Info: SIMULATION PARAMETERS:
Info: TIMESTEP               2
Info: NUMBER OF STEPS        0
Info: STEPS PER CYCLE        10
Info: PERIODIC CELL BASIS 1  31.605 0 0
Info: PERIODIC CELL BASIS 2  0 31.1832 0
Info: PERIODIC CELL BASIS 3  0 0 30.7808
Info: PERIODIC CELL CENTER   0 0 0
Info: WRAPPING WATERS AROUND PERIODIC BOUNDARIES ON OUTPUT.
Info: WRAPPING ALL CLUSTERS AROUND PERIODIC BOUNDARIES ON OUTPUT.
Info: FIRST LDB TIMESTEP     50
Info: LAST LDB TIMESTEP     -1
Info: HOM BACKGROUND SCALING 1
Info: PME BACKGROUND SCALING 1
Info: MIN ATOMS PER PATCH    40
Info: EMPTY PATCH LOAD       40 ATOMS
Info: VELOCITY FILE          mobley_7769613_equil.vel
Info: CENTER OF MASS MOVING INITIALLY? NO
Info: DIELECTRIC             1
Info: EXCLUDE                SCALED ONE-FOUR
Info: 1-4 ELECTROSTATICS SCALED BY 0.833333
Info: MODIFIED 1-4 VDW PARAMETERS WILL BE USED
Info: DCD FILENAME           mobley_7769613_prod.dcd
Info: DCD FREQUENCY          100000
Info: DCD FIRST STEP         100000
Info: DCD FILE WILL CONTAIN UNIT CELL DATA
Info: XST FILENAME           mobley_7769613_prod.xst
Info: XST FREQUENCY          100000
Info: NO VELOCITY DCD OUTPUT
Info: NO FORCE DCD OUTPUT
Info: OUTPUT FILENAME        mobley_7769613_prod
Info: BINARY OUTPUT FILES WILL BE USED
Info: RESTART FILENAME       mobley_7769613_prod.restart
Info: RESTART FREQUENCY      100000
Info: BINARY RESTART FILES WILL BE USED
Info: CUTOFF                 9
Info: PAIRLIST DISTANCE      11
Info: PAIRLIST SHRINK RATE   0.01
Info: PAIRLIST GROW RATE     0.01
Info: PAIRLIST TRIGGER       0.3
Info: PAIRLISTS PER CYCLE    2
Info: PAIRLISTS ENABLED
Info: MARGIN                 2
Info: HYDROGEN GROUP CUTOFF  2.5
Info: PATCH DIMENSION        15.5
Info: ENERGY OUTPUT STEPS    100000
Info: ENERGY EVALUATION STEPS    100000
Info: OUTPUT ENERGY PRECISION 4
Info: CROSSTERM ENERGY INCLUDED IN DIHEDRAL
Info: TIMING OUTPUT STEPS    1000000
Info: PRESSURE OUTPUT STEPS  100000
Info: ALCHEMICAL FEP ON
Info: FEP CURRENT LAMBDA VALUE     1
Info: FEP COMPARISON LAMBDA VALUE  0.95
Info: FEP INTRA-ALCHEMICAL NON-BONDED INTERACTIONS WILL BE RETAINED
Info: FEP INTRA-ALCHEMICAL BONDED INTERACTIONS WILL BE RETAINED
Info: FEP VDW SHIFTING COEFFICIENT 5
Info: FEP ELEC. ACTIVE FOR ANNIHILATED PARTICLES BETWEEN LAMBDA = 0 AND LAMBDA = 0.5
Info: FEP ELEC. ACTIVE FOR EXNIHILATED PARTICLES BETWEEN LAMBDA = 0.5 AND LAMBDA = 1
Info: FEP VDW ACTIVE FOR ANNIHILATED PARTICLES BETWEEN LAMBDA = 0 AND LAMBDA = 1
Info: FEP VDW ACTIVE FOR EXNIHILATED PARTICLES BETWEEN LAMBDA = 0 AND LAMBDA = 1
Info: FEP BOND ACTIVE FOR ANNIHILATED PARTICLES BETWEEN LAMBDA = 1 AND LAMBDA = 1
Info: FEP BOND ACTIVE FOR EXNIHILATED PARTICLES BETWEEN LAMBDA = 0 AND LAMBDA = 0
Info: LANGEVIN DYNAMICS ACTIVE
Info: LANGEVIN TEMPERATURE   300
Info: LANGEVIN USING BBK INTEGRATOR
Info: LANGEVIN DAMPING COEFFICIENT IS 1 INVERSE PS
Info: LANGEVIN DYNAMICS APPLIED TO HYDROGENS
Info: LANGEVIN PISTON PRESSURE CONTROL ACTIVE
Info:        TARGET PRESSURE IS 1.01325 BAR
Info:     OSCILLATION PERIOD IS 50 FS
Info:             DECAY TIME IS 25 FS
Info:     PISTON TEMPERATURE IS 300 K
Info:       PRESSURE CONTROL IS GROUP-BASED
Info:    INITIAL STRAIN RATE IS -0.000234418 -0.000234418 -0.000234418
Info:       CELL FLUCTUATION IS ISOTROPIC
Info: PARTICLE MESH EWALD (PME) ACTIVE
Info: PME TOLERANCE               1e-06
Info: PME EWALD COEFFICIENT       0.348832
Info: PME INTERPOLATION ORDER     4
Info: PME GRID DIMENSIONS         32 32 32
Info: PME MAXIMUM GRID SPACING    1
Info: PME CALCULATION WILL BE PERFORMED ON GPU
Info: FULL ELECTROSTATIC EVALUATION FREQUENCY      2
Info: USING VERLET I (r-RESPA) MTS SCHEME.
Info: C1 SPLITTING OF LONG RANGE ELECTROSTATICS
Info: PLACING ATOMS IN PATCHES BY HYDROGEN GROUPS
Info: RIGID BONDS TO HYDROGEN : ALL
Info:         ERROR TOLERANCE : 1e-08
Info:          MAX ITERATIONS : 100
Info: RIGID WATER USING SETTLE ALGORITHM
Info: RANDOM NUMBER SEED     1743583636
Info: USE HYDROGEN BONDS?    NO
Info: Using AMBER format force field!
Info: AMBER PARM FILE        mobley_7769613.prmtop
Info: COORDINATE PDB         mobley_7769613.pdb
Info: Exclusions will be read from PARM file!
Info: SCNB (VDW SCALING)     2
Info: USING ARITHMETIC MEAN TO COMBINE L-J SIGMA PARAMETERS
Info: BINARY COORDINATES     mobley_7769613_equil.coor
Info: SUMMARY OF PARAMETERS:
Info: 5 BONDS
Info: 4 ANGLES
Info:   4 HARMONIC
Info:   0 COSINE-BASED
Info: 3 DIHEDRAL
Info: 0 IMPROPER
Info: 0 CROSSTERM
Info: 0 VDW
Info: 15 VDW_PAIRS
Info: 0 NBTHOLE_PAIRS
Info: To read alchdata from file: mobley_7769613.pdb
Info: To read alchflag data from column: 5
Info: STRUCTURE SUMMARY:
Info: 2942 ATOMS
Info: 2941 BONDS
Info: 24 ANGLES
Info: 36 DIHEDRALS
Info: 0 IMPROPERS
Info: 0 CROSSTERMS
Info: 2992 EXCLUSIONS
Info: 2937 RIGID BONDS
Info: ALCH: 0 ATOMS TO DISAPPEAR IN FINAL STATE
Info: ALCH: 14 ATOMS TO APPEAR IN FINAL STATE
Info: 5889 DEGREES OF FREEDOM
Info: 981 HYDROGEN GROUPS
Info: 4 ATOMS IN LARGEST HYDROGEN GROUP
Info: 981 MIGRATION GROUPS
Info: 4 ATOMS IN LARGEST MIGRATION GROUP
Info: TOTAL MASS = 17720.6 amu
Info: TOTAL CHARGE = 0.00040001 e
Info: MASS DENSITY = 0.970023 g/cm^3
Info: ATOM DENSITY = 0.096981 atoms/A^3
Info: ADDED 0 IMPLICIT EXCLUSIONS
Info: NONBONDED TABLE R-SQUARED SPACING: 0.0625
Info: NONBONDED TABLE SIZE: 705 POINTS
Info: REDUCING NUMBER OF PATCHES TO IMPROVE LOAD BALANCE
Info: REMOVING COM VELOCITY -0.0122245 -0.138825 0.00362742
Info: Use 3D box decompostion in PME FFT.
Info: Updated CUDA force table with 4096 elements.
Info: Updated CUDA LJ table with 5 x 5 elements.
Info: Found 17 unique exclusion lists needing 36 bytes
TCL: Running for 1500000 steps
ETITLE: TS BOND ANGLE DIHED IMPRP ELECT VDW BOUNDARY MISC KINETIC TOTAL TEMP POTENTIAL TOTALAVG TEMPAVG PRESSURE GPRESSURE VOLUME PRESSAVG GPRESSAVG
ENERGY: 0 1.4935 5.1100 5.8017 0.0000 -10658.2898 1429.2819 0.0000 0.0000 1809.1176 -7407.4852 309.1830 -9216.6028 -7407.4852 309.1830 50.1257 136.9443 30335.8457 50.1257 136.9443
ENERGY: 300000 0.5600 7.2552 5.4037 0.0000 -10625.2344 1392.3664 0.0000 0.0000 1765.3553 -7454.2937 301.7039 -9219.6489 -7484.1070 300.2967 -284.5941 -232.8284 30310.9426 -157.3345 -82.9681
ENERGY: 600000 1.1092 4.2333 5.0864 0.0000 -10678.4313 1447.0877 0.0000 0.0000 1783.8209 -7437.0937 304.8597 -9220.9146 -7489.5436 299.7081 131.3984 155.9172 30305.7321 -56.7014 9.0357
ENERGY: 900000 0.8854 10.3956 5.1564 0.0000 -10722.4973 1486.5311 0.0000 0.0000 1718.5025 -7501.0264 293.6966 -9219.5288 -7484.0561 297.7390 628.9139 628.2840 30016.3280 30.7043 87.4522
ENERGY: 1200000 0.4228 10.1573 5.2036 0.0000 -10545.4866 1403.9277 0.0000 0.0000 1796.9795 -7328.7958 307.1086 -9125.7753 -7472.9858 299.1246 438.0773 511.6299 29938.1654 53.4294 113.7255
ENERGY: 1500000 0.3355 6.3848 5.7064 0.0000 -10669.7456 1430.0462 0.0000 0.0000 1764.7978 -7462.4750 301.6086 -9227.2728 -7480.6955 299.1151 187.6214 193.3518 30023.1783 48.9256 112.2682
TCL: Running FEP window   2: Lambda1 0.95   Lambda2 0.8999999999999999 [dLambda -0.050000000000000044]
TCL: Setting parameter firsttimestep to 0
TCL: Setting parameter alchLambda to 0.95
Info: NONBONDED TABLE R-SQUARED SPACING: 0.0625
Info: NONBONDED TABLE SIZE: 705 POINTS
TCL: Setting parameter alchLambda2 to 0.8999999999999999
Info: NONBONDED TABLE R-SQUARED SPACING: 0.0625
Info: NONBONDED TABLE SIZE: 705 POINTS
TCL: Running for 1500000 steps
ETITLE: TS BOND ANGLE DIHED IMPRP ELECT VDW BOUNDARY MISC KINETIC TOTAL TEMP POTENTIAL TOTALAVG TEMPAVG PRESSURE GPRESSURE VOLUME PRESSAVG GPRESSAVG
ENERGY: 0 0.3355 6.3848 5.7064 0.0000 -10669.3086 1430.2931 0.0000 0.0000 1763.9319 -7462.6569 301.4607 -9226.5888 -7462.6569 301.4607 109.8015 183.0855 30023.1783 109.8015 183.0855
ENERGY: 300000 0.9213 7.0357 5.3226 0.0000 -10692.7651 1392.2096 0.0000 0.0000 1751.1607 -7536.1152 299.2780 -9287.2759 -7516.8050 299.7250 -458.6978 -424.4609 30202.5138 -313.1939 -270.3311
ENERGY: 600000 2.4322 8.4709 5.4242 0.0000 -10669.3411 1406.0055 0.0000 0.0000 1734.3797 -7512.6286 296.4101 -9247.0083 -7507.1811 297.9431 -230.2698 -198.9287 30152.9544 -179.5134 -123.4673
ENERGY: 900000 3.5644 7.6476 4.9465 0.0000 -10774.9343 1446.4201 0.0000 0.0000 1675.0888 -7637.2669 286.2771 -9312.3557 -7519.4173 296.6760 -96.8498 -27.2830 29786.3617 -209.8789 -151.8331
ENERGY: 1200000 0.8393 8.9524 5.9807 0.0000 -10720.1357 1456.1730 0.0000 0.0000 1730.8146 -7517.3757 295.8008 -9248.1903 -7515.2831 297.0719 198.4835 168.7228 30066.3765 -219.0483 -167.8196
ENERGY: 1500000 0.7293 3.6743 5.8258 0.0000 -10568.0998 1345.0365 0.0000 0.0000 1797.8750 -7414.9588 307.2616 -9212.8338 -7491.5109 298.0366 -792.4477 -683.6652 30731.2910 -294.5421 -240.1975
TCL: Running FEP window   3: Lambda1 0.8999999999999999 Lambda2 0.8499999999999999 [dLambda -0.050000000000000044]
TCL: Setting parameter firsttimestep to 0
TCL: Setting parameter alchLambda to 0.8999999999999999
Info: NONBONDED TABLE R-SQUARED SPACING: 0.0625
Info: NONBONDED TABLE SIZE: 705 POINTS
TCL: Setting parameter alchLambda2 to 0.8499999999999999
Info: NONBONDED TABLE R-SQUARED SPACING: 0.0625
Info: NONBONDED TABLE SIZE: 705 POINTS
TCL: Running for 1500000 steps
ETITLE: TS BOND ANGLE DIHED IMPRP ELECT VDW BOUNDARY MISC KINETIC TOTAL TEMP POTENTIAL TOTALAVG TEMPAVG PRESSURE GPRESSURE VOLUME PRESSAVG GPRESSAVG
ENERGY: 0 0.7293 3.6743 5.8258 0.0000 -10567.7756 1345.1257 0.0000 0.0000 1796.9843 -7415.4361 307.1094 -9212.4204 -7415.4361 307.1094 -776.2528 -692.2025 30731.2910 -776.2528 -692.2025
ENERGY: 300000 2.4420 6.7276 5.4329 0.0000 -10740.0474 1467.1660 0.0000 0.0000 1796.3234 -7461.9553 306.9965 -9258.2788 -7471.8172 302.5542 157.6515 223.1381 30180.9021 -166.5469 -87.4920
ENERGY: 600000 3.1188 3.3580 5.8594 0.0000 -10723.0690 1462.1112 0.0000 0.0000 1800.9653 -7447.6563 307.7898 -9248.6216 -7465.9886 303.0939 182.2472 276.6157 30126.4195 -86.8007 -7.8479
ENERGY: 900000 2.6819 6.6697 5.2034 0.0000 -10513.5237 1327.2938 0.0000 0.0000 1699.5004 -7472.1744 290.4491 -9171.6748 -7468.0752 301.1172 -776.4696 -763.5527 30448.5069 -78.4798 -12.0639
ENERGY: 1200000 1.5975 6.1354 5.1127 0.0000 -10852.1520 1533.4531 0.0000 0.0000 1778.1562 -7527.6972 303.8916 -9305.8533 -7471.5666 302.0186 427.9291 530.5367 30132.2196 2.3665 66.8968
ENERGY: 1500000 0.4973 5.6447 5.4487 0.0000 -10596.8833 1347.8942 0.0000 0.0000 1756.8222 -7480.5763 300.2456 -9237.3984 -7468.7925 301.7062 -672.7585 -711.6008 30627.5508 -63.8303 -2.7983
TCL: Running FEP window   4: Lambda1 0.8499999999999999 Lambda2 0.7999999999999998 [dLambda -0.050000000000000044]
TCL: Setting parameter firsttimestep to 0
TCL: Setting parameter alchLambda to 0.8499999999999999
Info: NONBONDED TABLE R-SQUARED SPACING: 0.0625
Info: NONBONDED TABLE SIZE: 705 POINTS
TCL: Setting parameter alchLambda2 to 0.7999999999999998
Info: NONBONDED TABLE R-SQUARED SPACING: 0.0625
Info: NONBONDED TABLE SIZE: 705 POINTS
TCL: Running for 1500000 steps
ETITLE: TS BOND ANGLE DIHED IMPRP ELECT VDW BOUNDARY MISC KINETIC TOTAL TEMP POTENTIAL TOTALAVG TEMPAVG PRESSURE GPRESSURE VOLUME PRESSAVG GPRESSAVG
ENERGY: 0 0.4973 5.6447 5.4487 0.0000 -10596.3136 1347.9706 0.0000 0.0000 1755.9758 -7480.7766 300.1009 -9236.7524 -7480.7766 300.1009 -782.8271 -719.1696 30627.5508 -782.8271 -719.1696
ENERGY: 300000 1.4480 7.1543 7.0539 0.0000 -10738.9667 1477.5473 0.0000 0.0000 1809.1866 -7436.5765 309.1948 -9245.7632 -7456.3646 301.1022 379.4333 369.6087 30141.3616 -110.1363 -57.3360
ENERGY: 600000 0.0579 5.2867 5.6068 0.0000 -10708.6230 1416.6408 0.0000 0.0000 1765.5994 -7515.4315 301.7456 -9281.0308 -7455.6917 300.9489 -204.6442 -99.2013 30125.7379 -119.6156 -63.0692
ENERGY: 900000 1.6545 4.0185 5.7138 0.0000 -10652.9947 1528.5117 0.0000 0.0000 1785.5708 -7327.5255 305.1588 -9113.0963 -7435.3250 302.9413 1059.8251 1085.1503 30421.0210 128.2838 181.1260
ENERGY: 1200000 0.9193 7.0386 5.2345 0.0000 -10580.5195 1371.4345 0.0000 0.0000 1762.9960 -7432.8966 301.3007 -9195.8926 -7442.2000 302.5175 -352.1193 -293.0720 30309.5682 26.3319 80.1752
ENERGY: 1500000 1.3093 8.7979 5.5499 0.0000 -10505.4714 1367.9105 0.0000 0.0000 1743.8118 -7378.0921 298.0221 -9121.9038 -7440.4639 302.4234 -553.0649 -464.8505 31103.5945 41.7736 97.0360
TCL: Running FEP window   5: Lambda1 0.7999999999999998 Lambda2 0.7499999999999998 [dLambda -0.050000000000000044]
TCL: Setting parameter firsttimestep to 0
TCL: Setting parameter alchLambda to 0.7999999999999998
Info: NONBONDED TABLE R-SQUARED SPACING: 0.0625
Info: NONBONDED TABLE SIZE: 705 POINTS
TCL: Setting parameter alchLambda2 to 0.7499999999999998
Info: NONBONDED TABLE R-SQUARED SPACING: 0.0625
Info: NONBONDED TABLE SIZE: 705 POINTS
TCL: Running for 1500000 steps
ETITLE: TS BOND ANGLE DIHED IMPRP ELECT VDW BOUNDARY MISC KINETIC TOTAL TEMP POTENTIAL TOTALAVG TEMPAVG PRESSURE GPRESSURE VOLUME PRESSAVG GPRESSAVG
ENERGY: 0 1.3093 8.7979 5.5499 0.0000 -10505.1991 1368.4793 0.0000 0.0000 1742.9401 -7378.1227 297.8731 -9121.0628 -7378.1227 297.8731 -549.9545 -464.3165 31103.5945 -549.9545 -464.3165
ENERGY: 300000 0.5199 8.0942 5.9000 0.0000 -10645.1231 1415.5173 0.0000 0.0000 1718.6108 -7496.4810 293.7152 -9215.0918 -7452.0186 299.1578 -133.3628 -43.7744 30322.3349 -26.4970 60.5523
ENERGY: 600000 0.4210 9.2596 5.1915 0.0000 -10674.3821 1381.9225 0.0000 0.0000 1791.0500 -7486.5375 306.0952 -9277.5875 -7445.7551 301.8554 -942.0038 -868.3500 31051.1521 135.8852 211.2107
ENERGY: 900000 0.9589 9.3783 6.9456 0.0000 -10622.1994 1338.7780 0.0000 0.0000 1737.4814 -7528.6572 296.9402 -9266.1386 -7468.8371 298.7313 -798.7970 -732.7945 30116.5762 -27.5080 41.3270
ENERGY: 1200000 0.8705 4.4313 5.7147 0.0000 -10576.8312 1359.8945 0.0000 0.0000 1726.0321 -7479.8881 294.9835 -9205.9202 -7475.9779 298.5000 -1086.9203 -962.2715 30992.7344 -99.1575 -26.9814
ENERGY: 1500000 1.5097 4.4450 6.1304 0.0000 -10640.0512 1382.8170 0.0000 0.0000 1761.4257 -7483.7234 301.0323 -9245.1491 -7476.1009 299.2464 -155.3559 -189.9440 30080.4467 -68.8945 -0.4829
TCL: Running FEP window   6: Lambda1 0.7499999999999998 Lambda2 0.6999999999999997 [dLambda -0.050000000000000044]
TCL: Setting parameter firsttimestep to 0
TCL: Setting parameter alchLambda to 0.7499999999999998
Info: NONBONDED TABLE R-SQUARED SPACING: 0.0625
Info: NONBONDED TABLE SIZE: 705 POINTS
TCL: Setting parameter alchLambda2 to 0.6999999999999997
Info: NONBONDED TABLE R-SQUARED SPACING: 0.0625
Info: NONBONDED TABLE SIZE: 705 POINTS
TCL: Running for 1500000 steps
ETITLE: TS BOND ANGLE DIHED IMPRP ELECT VDW BOUNDARY MISC KINETIC TOTAL TEMP POTENTIAL TOTALAVG TEMPAVG PRESSURE GPRESSURE VOLUME PRESSAVG GPRESSAVG
ENERGY: 0 1.5097 4.4450 6.1304 0.0000 -10639.7279 1383.1988 0.0000 0.0000 1760.5567 -7483.8871 300.8838 -9244.4438 -7483.8871 300.8838 -283.5699 -192.0943 30080.4467 -283.5699 -192.0943
ENERGY: 300000 1.0633 5.8732 5.5321 0.0000 -10590.0005 1406.7869 0.0000 0.0000 1751.5892 -7419.1558 299.3513 -9170.7450 -7454.6725 299.3647 -215.2584 -151.0449 30746.0264 -209.9860 -156.8065
ENERGY: 600000 2.4651 6.3664 5.6778 0.0000 -10608.9534 1356.2938 0.0000 0.0000 1792.5703 -7445.5800 306.3550 -9238.1504 -7463.1316 299.7759 -852.1975 -741.8564 31000.2315 -352.0656 -279.7767
ENERGY: 900000 0.1744 3.8736 5.3998 0.0000 -10551.8916 1302.1495 0.0000 0.0000 1757.4783 -7482.8161 300.3577 -9240.2944 -7471.5882 298.9418 -1109.5028 -983.2480 30287.7537 -361.4607 -286.1496
ENERGY: 1200000 0.8175 6.8874 5.1335 0.0000 -10693.6319 1444.7281 0.0000 0.0000 1709.0778 -7526.9877 292.0860 -9236.0655 -7471.9781 298.8757 163.2187 170.0011 29942.5561 -345.0688 -279.7660
ENERGY: 1500000 2.5391 4.4147 5.1541 0.0000 -10790.0712 1455.7904 0.0000 0.0000 1788.7912 -7533.3817 305.7092 -9322.1729 -7474.6749 299.3605 204.6626 236.4620 29658.0489 -273.7185 -205.5191
TCL: Running FEP window   7: Lambda1 0.6999999999999997 Lambda2 0.6499999999999997 [dLambda -0.050000000000000044]
TCL: Setting parameter firsttimestep to 0
TCL: Setting parameter alchLambda to 0.6999999999999997
Info: NONBONDED TABLE R-SQUARED SPACING: 0.0625
Info: NONBONDED TABLE SIZE: 705 POINTS
TCL: Setting parameter alchLambda2 to 0.6499999999999997
Info: NONBONDED TABLE R-SQUARED SPACING: 0.0625
Info: NONBONDED TABLE SIZE: 705 POINTS
TCL: Running for 1500000 steps
ETITLE: TS BOND ANGLE DIHED IMPRP ELECT VDW BOUNDARY MISC KINETIC TOTAL TEMP POTENTIAL TOTALAVG TEMPAVG PRESSURE GPRESSURE VOLUME PRESSAVG GPRESSAVG
ENERGY: 0 2.5391 4.4147 5.1541 0.0000 -10789.8220 1455.6305 0.0000 0.0000 1787.8897 -7534.1940 305.5551 -9322.0837 -7534.1940 305.5551 157.7683 223.7264 29658.0489 157.7683 223.7264
ENERGY: 300000 2.2806 5.2426 6.5701 0.0000 -10597.5040 1428.1961 0.0000 0.0000 1754.8476 -7400.3670 299.9081 -9155.2146 -7422.7723 300.4420 197.8990 244.5127 30195.6100 -140.6455 -56.1625
ENERGY: 600000 0.5394 4.9360 6.6100 0.0000 -10538.3936 1367.2528 0.0000 0.0000 1768.2968 -7390.7586 302.2066 -9159.0554 -7440.1138 300.5492 -537.5954 -473.9747 30825.0285 -38.6736 39.3495
ENERGY: 900000 0.6038 7.4793 5.7140 0.0000 -10650.7096 1448.6674 0.0000 0.0000 1750.4286 -7437.8166 299.1529 -9188.2451 -7440.0627 300.3043 214.4584 295.3626 30035.8315 -0.4565 71.6589
ENERGY: 1200000 1.1083 7.2407 5.7526 0.0000 -10721.2305 1481.8172 0.0000 0.0000 1764.6312 -7460.6806 301.5802 -9225.3118 -7450.3711 300.7069 420.8755 482.5744 30000.3556 -9.1477 64.5773
ENERGY: 1500000 0.6721 9.0540 5.4257 0.0000 -10499.7282 1348.6568 0.0000 0.0000 1794.3629 -7341.5566 306.6614 -9135.9195 -7435.2098 301.2744 -431.8477 -404.7517 30541.5101 -24.1813 45.5227
TCL: Running FEP window   8: Lambda1 0.6499999999999997 Lambda2 0.5999999999999996 [dLambda -0.050000000000000044]
TCL: Setting parameter firsttimestep to 0
TCL: Setting parameter alchLambda to 0.6499999999999997
Info: NONBONDED TABLE R-SQUARED SPACING: 0.0625
Info: NONBONDED TABLE SIZE: 705 POINTS
TCL: Setting parameter alchLambda2 to 0.5999999999999996
Info: NONBONDED TABLE R-SQUARED SPACING: 0.0625
Info: NONBONDED TABLE SIZE: 705 POINTS
TCL: Running for 1500000 steps
ETITLE: TS BOND ANGLE DIHED IMPRP ELECT VDW BOUNDARY MISC KINETIC TOTAL TEMP POTENTIAL TOTALAVG TEMPAVG PRESSURE GPRESSURE VOLUME PRESSAVG GPRESSAVG
ENERGY: 0 0.6721 9.0540 5.4257 0.0000 -10499.2827 1348.3686 0.0000 0.0000 1793.4151 -7342.3472 306.4994 -9135.7622 -7342.3472 306.4994 -501.7762 -414.4070 30541.5101 -501.7762 -414.4070
ENERGY: 300000 1.5455 6.4643 5.7130 0.0000 -10750.1706 1538.4244 0.0000 0.0000 1775.7208 -7422.3026 303.4754 -9198.0234 -7426.2827 302.4196 989.4836 1045.7580 30002.7477 385.3641 456.1056
ENERGY: 600000 1.4554 7.1064 5.2566 0.0000 -10492.9852 1386.2910 0.0000 0.0000 1777.3772 -7315.4985 303.7585 -9092.8758 -7415.3511 301.2281 -157.2361 -48.9228 30744.4125 -77.2701 -2.8583
ENERGY: 900000 0.5059 7.5224 5.6929 0.0000 -10753.9241 1458.7574 0.0000 0.0000 1692.8253 -7588.6202 289.3084 -9281.4456 -7436.6538 299.7606 -10.3080 -14.5425 30291.2921 -125.0722 -51.8773
ENERGY: 1200000 0.8858 6.1043 6.1948 0.0000 -10658.2888 1393.8003 0.0000 0.0000 1793.4783 -7457.8254 306.5102 -9251.3037 -7436.7475 300.9459 -412.4249 -332.8464 30482.4090 -25.3181 42.0124
ENERGY: 1500000 2.2915 4.7700 6.0461 0.0000 -10565.0084 1416.6316 0.0000 0.0000 1706.6188 -7428.6504 291.6657 -9135.2692 -7441.5005 300.2448 189.7718 167.7263 29986.5342 -8.1001 49.7710
TCL: Running FEP window   9: Lambda1 0.5999999999999996 Lambda2 0.5499999999999996 [dLambda -0.050000000000000044]
TCL: Setting parameter firsttimestep to 0
TCL: Setting parameter alchLambda to 0.5999999999999996
Info: NONBONDED TABLE R-SQUARED SPACING: 0.0625
Info: NONBONDED TABLE SIZE: 705 POINTS
TCL: Setting parameter alchLambda2 to 0.5499999999999996
Info: NONBONDED TABLE R-SQUARED SPACING: 0.0625
Info: NONBONDED TABLE SIZE: 705 POINTS
TCL: Running for 1500000 steps
ETITLE: TS BOND ANGLE DIHED IMPRP ELECT VDW BOUNDARY MISC KINETIC TOTAL TEMP POTENTIAL TOTALAVG TEMPAVG PRESSURE GPRESSURE VOLUME PRESSAVG GPRESSAVG
ENERGY: 0 2.2915 4.7700 6.0461 0.0000 -10564.8169 1416.5746 0.0000 0.0000 1705.7512 -7429.3835 291.5174 -9135.1347 -7429.3835 291.5174 98.4539 162.3110 29986.5342 98.4539 162.3110
ENERGY: 300000 0.6611 3.5007 5.4442 0.0000 -10653.2229 1437.2347 0.0000 0.0000 1704.5350 -7501.8472 291.3096 -9206.3822 -7494.9150 295.3869 -382.8870 -340.9054 31137.3866 -33.0991 16.2119
ENERGY: 600000 2.1133 5.3708 6.7971 0.0000 -10663.2144 1423.1707 0.0000 0.0000 1766.5440 -7459.2185 301.9071 -9225.7625 -7490.9497 298.3346 -124.6072 -39.4220 30036.7014 41.7131 98.9021
ENERGY: 900000 0.8686 3.6479 5.1265 0.0000 -10553.2955 1337.6408 0.0000 0.0000 1799.8893 -7406.1224 307.6059 -9206.0117 -7484.3410 298.7142 -657.0915 -547.1200 30616.9733 41.1042 95.1834
ENERGY: 1200000 1.0712 7.2700 5.0128 0.0000 -10645.5934 1443.6198 0.0000 0.0000 1815.6580 -7372.9616 310.3008 -9188.6196 -7469.1846 299.6640 155.0590 272.9290 30334.0493 34.2690 93.0063
ENERGY: 1500000 2.3388 4.7092 5.7212 0.0000 -10722.9786 1444.8090 0.0000 0.0000 1737.9204 -7527.4801 297.0152 -9265.4004 -7471.2496 299.7116 -54.9796 46.8971 29909.4972 45.8540 111.3077
TCL: Running FEP window  10: Lambda1 0.5499999999999996 Lambda2 0.4999999999999996 [dLambda -0.04999999999999999]
TCL: Setting parameter firsttimestep to 0
TCL: Setting parameter alchLambda to 0.5499999999999996
Info: NONBONDED TABLE R-SQUARED SPACING: 0.0625
Info: NONBONDED TABLE SIZE: 705 POINTS
TCL: Setting parameter alchLambda2 to 0.4999999999999996
Info: NONBONDED TABLE R-SQUARED SPACING: 0.0625
Info: NONBONDED TABLE SIZE: 705 POINTS
TCL: Running for 1500000 steps
ETITLE: TS BOND ANGLE DIHED IMPRP ELECT VDW BOUNDARY MISC KINETIC TOTAL TEMP POTENTIAL TOTALAVG TEMPAVG PRESSURE GPRESSURE VOLUME PRESSAVG GPRESSAVG
ENERGY: 0 2.3388 4.7092 5.7212 0.0000 -10722.8810 1444.6393 0.0000 0.0000 1737.0633 -7528.4092 296.8687 -9265.4725 -7528.4092 296.8687 -48.6438 39.0001 29909.4972 -48.6438 39.0001
ENERGY: 300000 2.3198 7.0726 5.5527 0.0000 -10561.5555 1342.1455 0.0000 0.0000 1721.6611 -7482.8037 294.2365 -9204.4649 -7478.0787 296.6679 -605.6393 -514.3683 30059.6419 -339.6918 -285.9923
ENERGY: 600000 0.1998 5.5648 5.1930 0.0000 -10694.1924 1425.5999 0.0000 0.0000 1693.8452 -7563.7897 289.4826 -9257.6348 -7505.4675 294.8234 -290.5747 -207.6774 30384.1941 -251.2817 -193.0780
ENERGY: 900000 0.8287 4.9652 5.6088 0.0000 -10645.8835 1442.0545 0.0000 0.0000 1763.2869 -7429.1395 301.3504 -9192.4264 -7501.8839 296.3220 166.2233 139.1826 30699.5190 -157.6730 -102.2222
ENERGY: 1200000 1.9163 6.2022 5.2013 0.0000 -10604.7505 1348.7305 0.0000 0.0000 1751.7168 -7490.9834 299.3731 -9242.7003 -7490.7211 297.8219 -709.8648 -705.1074 30132.1356 -176.7005 -121.2119
ENERGY: 1500000 0.1991 9.5496 5.0898 0.0000 -10526.5931 1386.4501 0.0000 0.0000 1751.0585 -7374.2460 299.2606 -9125.3045 -7474.1232 298.4780 -167.6295 -130.1170 30764.9740 -124.0648 -69.9090
TCL: Running FEP window  11: Lambda1 0.4999999999999996 Lambda2 0.4499999999999996 [dLambda -0.04999999999999999]
TCL: Setting parameter firsttimestep to 0
TCL: Setting parameter alchLambda to 0.4999999999999996
Info: NONBONDED TABLE R-SQUARED SPACING: 0.0625
Info: NONBONDED TABLE SIZE: 705 POINTS
TCL: Setting parameter alchLambda2 to 0.4499999999999996
Info: NONBONDED TABLE R-SQUARED SPACING: 0.0625
Info: NONBONDED TABLE SIZE: 705 POINTS
TCL: Running for 1500000 steps
ETITLE: TS BOND ANGLE DIHED IMPRP ELECT VDW BOUNDARY MISC KINETIC TOTAL TEMP POTENTIAL TOTALAVG TEMPAVG PRESSURE GPRESSURE VOLUME PRESSAVG GPRESSAVG
ENERGY: 0 0.1991 9.5496 5.0898 0.0000 -10526.4262 1386.2030 0.0000 0.0000 1750.1756 -7375.2091 299.1097 -9125.3846 -7375.2091 299.1097 -214.9357 -138.6500 30764.9740 -214.9357 -138.6500
ENERGY: 300000 0.7428 5.6431 5.4318 0.0000 -10498.6979 1285.4806 0.0000 0.0000 1812.8837 -7388.5159 309.8267 -9201.3996 -7429.5793 301.0096 -1139.0368 -1107.8129 30484.0547 -144.0779 -104.0124
ENERGY: 600000 1.3878 4.1783 5.7598 0.0000 -10626.0426 1430.2024 0.0000 0.0000 1832.7150 -7351.7993 313.2159 -9184.5143 -7425.0917 303.6623 162.5763 212.6025 30198.7537 -111.3415 -60.7423
ENERGY: 900000 0.6102 6.3723 5.7446 0.0000 -10790.2780 1528.1878 0.0000 0.0000 1725.9998 -7523.3633 294.9780 -9249.3631 -7451.3289 301.1861 1014.5836 995.3752 29751.2048 -38.0158 11.6364
ENERGY: 1200000 1.6608 9.0986 5.9884 0.0000 -10575.6730 1376.9722 0.0000 0.0000 1771.6483 -7410.3047 302.7794 -9181.9531 -7447.4484 300.2997 -360.0952 -242.0576 30186.5068 -79.8693 -24.6545
ENERGY: 1500000 0.5986 5.0496 5.6387 0.0000 -10673.3850 1504.0659 0.0000 0.0000 1754.3580 -7403.6741 299.8244 -9158.0321 -7443.4410 300.9269 834.6784 905.3129 30215.4119 -13.7318 45.8698
TCL: Running FEP window  12: Lambda1 0.4499999999999996 Lambda2 0.39999999999999963 [dLambda -0.04999999999999999]
TCL: Setting parameter firsttimestep to 0
TCL: Setting parameter alchLambda to 0.4499999999999996
Info: NONBONDED TABLE R-SQUARED SPACING: 0.0625
Info: NONBONDED TABLE SIZE: 705 POINTS
TCL: Setting parameter alchLambda2 to 0.39999999999999963
Info: NONBONDED TABLE R-SQUARED SPACING: 0.0625
Info: NONBONDED TABLE SIZE: 705 POINTS
TCL: Running for 1500000 steps
ETITLE: TS BOND ANGLE DIHED IMPRP ELECT VDW BOUNDARY MISC KINETIC TOTAL TEMP POTENTIAL TOTALAVG TEMPAVG PRESSURE GPRESSURE VOLUME PRESSAVG GPRESSAVG
ENERGY: 0 0.5986 5.0496 5.6387 0.0000 -10673.3846 1504.4902 0.0000 0.0000 1753.4735 -7404.1339 299.6733 -9157.6074 -7404.1339 299.6733 815.4606 900.8839 30215.4119 815.4606 900.8839
ENERGY: 300000 2.5243 10.3224 5.1661 0.0000 -10779.6578 1519.1474 0.0000 0.0000 1748.0143 -7494.4832 298.7403 -9242.4976 -7467.2614 298.5075 296.3846 395.0126 30387.2214 429.4876 512.7296
ENERGY: 600000 3.3323 4.5675 5.5457 0.0000 -10700.8622 1431.9783 0.0000 0.0000 1759.1760 -7496.2623 300.6479 -9255.4384 -7466.4279 299.1916 -139.4730 -117.6397 30336.7722 177.0279 241.8081
ENERGY: 900000 0.5862 6.1778 5.8832 0.0000 -10694.2355 1450.9523 0.0000 0.0000 1757.5643 -7473.0716 300.3724 -9230.6359 -7464.4899 300.2011 294.6679 358.5656 29832.4289 88.8684 167.0000
ENERGY: 1200000 0.8651 7.0887 5.1566 0.0000 -10756.1112 1471.0660 0.0000 0.0000 1741.5520 -7530.3827 297.6359 -9271.9348 -7479.7843 299.7872 89.5873 174.8075 30214.1925 107.5799 183.0495
ENERGY: 1500000 1.3797 4.6554 5.5603 0.0000 -10570.7883 1364.7006 0.0000 0.0000 1772.7221 -7421.7702 302.9629 -9194.4923 -7468.3573 299.9328 -319.9630 -335.0936 30229.6087 -31.8545 39.2104
TCL: Running FEP window  13: Lambda1 0.39999999999999963 Lambda2 0.34999999999999964 [dLambda -0.04999999999999999]
TCL: Setting parameter firsttimestep to 0
TCL: Setting parameter alchLambda to 0.39999999999999963
Info: NONBONDED TABLE R-SQUARED SPACING: 0.0625
Info: NONBONDED TABLE SIZE: 705 POINTS
TCL: Setting parameter alchLambda2 to 0.34999999999999964
Info: NONBONDED TABLE R-SQUARED SPACING: 0.0625
Info: NONBONDED TABLE SIZE: 705 POINTS
TCL: Running for 1500000 steps
ETITLE: TS BOND ANGLE DIHED IMPRP ELECT VDW BOUNDARY MISC KINETIC TOTAL TEMP POTENTIAL TOTALAVG TEMPAVG PRESSURE GPRESSURE VOLUME PRESSAVG GPRESSAVG
ENERGY: 0 1.3797 4.6554 5.5603 0.0000 -10570.7891 1364.6504 0.0000 0.0000 1771.8166 -7422.7267 302.8082 -9194.5434 -7422.7267 302.8082 -423.5992 -342.2422 30229.6087 -423.5992 -342.2422
ENERGY: 300000 0.5806 8.1680 5.4922 0.0000 -10662.7407 1413.6682 0.0000 0.0000 1780.7995 -7454.0322 304.3434 -9234.8316 -7431.7980 301.0219 -388.0572 -303.1714 30619.9676 -45.0786 59.3122
ENERGY: 600000 0.8187 7.6104 5.6467 0.0000 -10730.1122 1425.6317 0.0000 0.0000 1818.4827 -7471.9220 310.7835 -9290.4047 -7450.3111 300.3806 -309.7758 -210.7137 30380.1593 -291.8660 -190.7418
ENERGY: 900000 1.3395 3.3615 5.9476 0.0000 -10669.3239 1424.8706 0.0000 0.0000 1733.2144 -7500.5902 296.2110 -9233.8046 -7464.2877 299.2216 33.8550 138.5215 29811.8950 -280.6956 -181.7398
ENERGY: 1200000 0.6498 5.5065 6.1240 0.0000 -10686.9628 1405.8774 0.0000 0.0000 1729.1631 -7539.6420 295.5186 -9268.8050 -7473.9346 299.3370 -419.8546 -319.2800 30339.5235 -299.6813 -201.7721
ENERGY: 1500000 1.0164 4.9121 5.2386 0.0000 -10597.8165 1362.1793 0.0000 0.0000 1740.5958 -7483.8743 297.4725 -9224.4701 -7471.8709 299.0094 -627.2325 -522.0871 30415.9263 -273.9175 -181.3369
TCL: Running FEP window  14: Lambda1 0.34999999999999964 Lambda2 0.29999999999999966 [dLambda -0.04999999999999999]
TCL: Setting parameter firsttimestep to 0
TCL: Setting parameter alchLambda to 0.34999999999999964
Info: NONBONDED TABLE R-SQUARED SPACING: 0.0625
Info: NONBONDED TABLE SIZE: 705 POINTS
TCL: Setting parameter alchLambda2 to 0.29999999999999966
Info: NONBONDED TABLE R-SQUARED SPACING: 0.0625
Info: NONBONDED TABLE SIZE: 705 POINTS
TCL: Running for 1500000 steps
ETITLE: TS BOND ANGLE DIHED IMPRP ELECT VDW BOUNDARY MISC KINETIC TOTAL TEMP POTENTIAL TOTALAVG TEMPAVG PRESSURE GPRESSURE VOLUME PRESSAVG GPRESSAVG
ENERGY: 0 1.0164 4.9121 5.2386 0.0000 -10597.8164 1362.5958 0.0000 0.0000 1739.7534 -7484.3001 297.3285 -9224.0535 -7484.3001 297.3285 -621.7608 -524.4810 30415.9263 -621.7608 -524.4810
ENERGY: 300000 1.6760 5.7409 6.2639 0.0000 -10605.2126 1362.0366 0.0000 0.0000 1801.2712 -7428.2241 307.8421 -9229.4953 -7498.2298 297.5032 -708.7440 -587.2401 30273.6827 -651.7371 -583.2324
ENERGY: 600000 0.5745 6.4825 5.2483 0.0000 -10742.5296 1439.0727 0.0000 0.0000 1751.8973 -7539.2543 299.4039 -9291.1516 -7493.8930 298.7229 -111.6549 -61.5392 30171.1080 -586.0636 -525.9366
ENERGY: 900000 0.3242 6.8873 5.3990 0.0000 -10614.7720 1411.2583 0.0000 0.0000 1769.8314 -7421.0718 302.4689 -9190.9032 -7483.2425 299.8816 -2.1828 87.4332 29964.7256 -346.9416 -275.5436
ENERGY: 1200000 0.8010 8.6778 5.9333 0.0000 -10565.5809 1357.1113 0.0000 0.0000 1685.6416 -7507.4159 288.0806 -9193.0574 -7481.9046 298.4703 -753.7492 -645.7076 30249.1425 -363.0610 -287.9302
ENERGY: 1500000 0.4728 6.4182 5.6378 0.0000 -10746.3234 1515.1082 0.0000 0.0000 1730.0430 -7488.6434 295.6690 -9218.6864 -7479.7846 298.8591 481.0237 479.9122 30603.3345 -341.2036 -271.9720
TCL: Running FEP window  15: Lambda1 0.29999999999999966 Lambda2 0.24999999999999967 [dLambda -0.04999999999999999]
TCL: Setting parameter firsttimestep to 0
TCL: Setting parameter alchLambda to 0.29999999999999966
Info: NONBONDED TABLE R-SQUARED SPACING: 0.0625
Info: NONBONDED TABLE SIZE: 705 POINTS
TCL: Setting parameter alchLambda2 to 0.24999999999999967
Info: NONBONDED TABLE R-SQUARED SPACING: 0.0625
Info: NONBONDED TABLE SIZE: 705 POINTS
TCL: Running for 1500000 steps
ETITLE: TS BOND ANGLE DIHED IMPRP ELECT VDW BOUNDARY MISC KINETIC TOTAL TEMP POTENTIAL TOTALAVG TEMPAVG PRESSURE GPRESSURE VOLUME PRESSAVG GPRESSAVG
ENERGY: 0 0.4728 6.4182 5.6378 0.0000 -10746.3217 1515.2865 0.0000 0.0000 1729.2015 -7489.3049 295.5251 -9218.5064 -7489.3049 295.5251 403.8234 474.7179 30603.3345 403.8234 474.7179
ENERGY: 300000 0.9721 5.9809 6.0178 0.0000 -10706.9643 1445.5228 0.0000 0.0000 1758.7215 -7489.7491 300.5702 -9248.4707 -7482.0538 293.7565 -6.0397 55.3694 29982.8251 -63.9065 15.0455
ENERGY: 600000 3.4085 5.5001 6.9872 0.0000 -10596.7437 1418.3870 0.0000 0.0000 1676.6845 -7485.7763 286.5498 -9162.4607 -7476.3841 294.2981 -123.0273 -85.9132 30290.1432 -37.4541 15.2018
ENERGY: 900000 5.1936 4.0828 5.1732 0.0000 -10587.2943 1425.8316 0.0000 0.0000 1733.4595 -7413.5535 296.2528 -9147.0130 -7473.8459 295.2816 -292.7885 -241.3890 30705.7631 -57.4759 -5.0276
ENERGY: 1200000 2.2421 4.6103 5.0803 0.0000 -10664.0356 1409.6968 0.0000 0.0000 1778.4243 -7463.9819 303.9375 -9242.4062 -7471.4343 295.8621 -668.0656 -578.3096 30813.2765 -104.1584 -44.4228
ENERGY: 1500000 0.6535 4.0886 5.1395 0.0000 -10617.2991 1399.3582 0.0000 0.0000 1836.3409 -7371.7185 313.8355 -9208.0593 -7471.7439 296.9550 -20.5612 52.5371 29968.2907 -100.0679 -40.9342
TCL: Running FEP window  16: Lambda1 0.24999999999999967 Lambda2 0.19999999999999968 [dLambda -0.04999999999999999]
TCL: Setting parameter firsttimestep to 0
TCL: Setting parameter alchLambda to 0.24999999999999967
Info: NONBONDED TABLE R-SQUARED SPACING: 0.0625
Info: NONBONDED TABLE SIZE: 705 POINTS
TCL: Setting parameter alchLambda2 to 0.19999999999999968
Info: NONBONDED TABLE R-SQUARED SPACING: 0.0625
Info: NONBONDED TABLE SIZE: 705 POINTS
TCL: Running for 1500000 steps
ETITLE: TS BOND ANGLE DIHED IMPRP ELECT VDW BOUNDARY MISC KINETIC TOTAL TEMP POTENTIAL TOTALAVG TEMPAVG PRESSURE GPRESSURE VOLUME PRESSAVG GPRESSAVG
ENERGY: 0 0.6535 4.0886 5.1395 0.0000 -10617.2988 1399.6979 0.0000 0.0000 1835.4954 -7372.2239 313.6910 -9207.7193 -7372.2239 313.6910 -50.4911 49.4135 29968.2907 -50.4911 49.4135
ENERGY: 300000 2.1170 6.6932 5.5887 0.0000 -10594.4368 1381.8805 0.0000 0.0000 1818.9380 -7379.2194 310.8613 -9198.1573 -7452.6057 306.5514 -506.1219 -441.6900 30617.6876 -62.3342 0.8183
ENERGY: 600000 1.0226 7.8354 5.7606 0.0000 -10668.0275 1421.5592 0.0000 0.0000 1784.0399 -7447.8097 304.8972 -9231.8496 -7440.4063 305.2631 -230.5739 -213.6709 30507.1759 -173.7801 -122.5593
ENERGY: 900000 5.2245 6.0695 5.9681 0.0000 -10591.8540 1453.1932 0.0000 0.0000 1806.7829 -7314.6158 308.7840 -9121.3987 -7456.5203 303.7168 186.3525 327.1406 30255.0779 -158.7633 -104.1144
ENERGY: 1200000 0.0897 4.8820 5.1873 0.0000 -10594.5383 1390.1025 0.0000 0.0000 1763.0222 -7431.2545 301.3052 -9194.2768 -7447.8047 303.0772 -162.6313 -72.7830 30144.7321 -151.6697 -94.3349
ENERGY: 1500000 0.8203 8.4096 5.1232 0.0000 -10677.3895 1393.6060 0.0000 0.0000 1743.5527 -7525.8776 297.9778 -9269.4304 -7458.0035 302.0323 -520.9929 -509.5916 30202.8464 -186.2925 -136.2155
TCL: Running FEP window  17: Lambda1 0.19999999999999968 Lambda2 0.1499999999999997 [dLambda -0.04999999999999999]
TCL: Setting parameter firsttimestep to 0
TCL: Setting parameter alchLambda to 0.19999999999999968
Info: NONBONDED TABLE R-SQUARED SPACING: 0.0625
Info: NONBONDED TABLE SIZE: 705 POINTS
TCL: Setting parameter alchLambda2 to 0.1499999999999997
Info: NONBONDED TABLE R-SQUARED SPACING: 0.0625
Info: NONBONDED TABLE SIZE: 705 POINTS
TCL: Running for 1500000 steps
ETITLE: TS BOND ANGLE DIHED IMPRP ELECT VDW BOUNDARY MISC KINETIC TOTAL TEMP POTENTIAL TOTALAVG TEMPAVG PRESSURE GPRESSURE VOLUME PRESSAVG GPRESSAVG
ENERGY: 0 0.8203 8.4096 5.1232 0.0000 -10677.3896 1393.5672 0.0000 0.0000 1742.6727 -7526.7966 297.8274 -9269.4693 -7526.7966 297.8274 -582.8327 -514.4105 30202.8464 -582.8327 -514.4105
ENERGY: 300000 2.8160 6.2475 6.0111 0.0000 -10615.1832 1384.7621 0.0000 0.0000 1714.6365 -7500.7099 293.0360 -9215.3464 -7487.0084 298.1597 -387.2036 -367.8505 30383.4561 124.0134 173.8248
ENERGY: 600000 0.9511 4.1837 5.3776 0.0000 -10712.1085 1438.0232 0.0000 0.0000 1744.4541 -7519.1187 298.1319 -9263.5728 -7501.6221 298.0856 -152.6391 -87.6329 30053.2632 -77.5736 -13.4899
ENERGY: 900000 0.2282 8.4381 5.5816 0.0000 -10706.9579 1459.8697 0.0000 0.0000 1786.3930 -7446.4473 305.2993 -9232.8402 -7487.5507 299.4139 199.4421 271.6266 30118.1231 -90.7325 -16.5389
ENERGY: 1200000 0.4400 4.1108 5.1817 0.0000 -10834.4124 1478.6114 0.0000 0.0000 1807.9570 -7538.1114 308.9847 -9346.0684 -7487.8820 300.3669 190.7457 229.2119 29878.8426 -80.7485 -9.6125
ENERGY: 1500000 0.7963 5.9313 6.1879 0.0000 -10510.8334 1285.2914 0.0000 0.0000 1808.1833 -7404.4432 309.0233 -9212.6265 -7484.4075 300.8059 -1167.5842 -1118.9192 30367.6475 -133.6297 -69.4825
TCL: Running FEP window  18: Lambda1 0.1499999999999997 Lambda2 0.09999999999999969 [dLambda -0.05 ]
TCL: Setting parameter firsttimestep to 0
TCL: Setting parameter alchLambda to 0.1499999999999997
Info: NONBONDED TABLE R-SQUARED SPACING: 0.0625
Info: NONBONDED TABLE SIZE: 705 POINTS
TCL: Setting parameter alchLambda2 to 0.09999999999999969
Info: NONBONDED TABLE R-SQUARED SPACING: 0.0625
Info: NONBONDED TABLE SIZE: 705 POINTS
TCL: Running for 1500000 steps
ETITLE: TS BOND ANGLE DIHED IMPRP ELECT VDW BOUNDARY MISC KINETIC TOTAL TEMP POTENTIAL TOTALAVG TEMPAVG PRESSURE GPRESSURE VOLUME PRESSAVG GPRESSAVG
ENERGY: 0 0.7963 5.9313 6.1879 0.0000 -10510.8343 1284.9172 0.0000 0.0000 1807.2822 -7405.7192 308.8693 -9213.0015 -7405.7192 308.8693 -1208.9633 -1123.4071 30367.6475 -1208.9633 -1123.4071
ENERGY: 300000 0.7366 5.5219 5.2685 0.0000 -10586.6226 1429.8938 0.0000 0.0000 1722.4755 -7422.7263 294.3757 -9145.2018 -7382.6008 304.7548 19.8639 42.5361 30366.7887 -280.6164 -245.4213
ENERGY: 600000 1.8104 5.1685 5.0925 0.0000 -10684.6226 1440.2672 0.0000 0.0000 1730.5994 -7501.6846 295.7640 -9232.2840 -7422.8718 300.9418 179.9889 202.8707 29783.7247 -146.7077 -98.3689
ENERGY: 900000 2.1638 2.8554 5.8298 0.0000 -10688.3912 1443.4720 0.0000 0.0000 1821.6182 -7412.4520 311.3194 -9234.0702 -7431.1675 301.9174 -30.6320 65.7794 30020.5343 -236.2886 -186.0269
ENERGY: 1200000 1.6591 8.2672 5.2870 0.0000 -10613.2571 1416.8380 0.0000 0.0000 1712.9444 -7468.2613 292.7468 -9181.2058 -7447.5303 301.5490 10.9537 113.6174 29933.8174 -83.5504 -28.3384
ENERGY: 1500000 0.7515 7.8174 5.7832 0.0000 -10623.7731 1401.7359 0.0000 0.0000 1784.4509 -7423.2343 304.9674 -9207.6852 -7445.8552 302.2972 -189.2073 -149.8761 30168.2384 -77.3741 -21.9813
TCL: Running FEP window  19: Lambda1 0.09999999999999969 Lambda2 0.049999999999999684 [dLambda -0.05 ]
TCL: Setting parameter firsttimestep to 0
TCL: Setting parameter alchLambda to 0.09999999999999969
Info: NONBONDED TABLE R-SQUARED SPACING: 0.0625
Info: NONBONDED TABLE SIZE: 705 POINTS
TCL: Setting parameter alchLambda2 to 0.049999999999999684
Info: NONBONDED TABLE R-SQUARED SPACING: 0.0625
Info: NONBONDED TABLE SIZE: 705 POINTS
TCL: Running for 1500000 steps
ETITLE: TS BOND ANGLE DIHED IMPRP ELECT VDW BOUNDARY MISC KINETIC TOTAL TEMP POTENTIAL TOTALAVG TEMPAVG PRESSURE GPRESSURE VOLUME PRESSAVG GPRESSAVG
ENERGY: 0 0.7515 7.8174 5.7832 0.0000 -10623.7727 1401.6739 0.0000 0.0000 1783.5842 -7424.1626 304.8193 -9207.7468 -7424.1626 304.8193 -222.6844 -151.7032 30168.2384 -222.6844 -151.7032
ENERGY: 300000 1.0567 8.5202 5.3249 0.0000 -10699.3096 1500.5954 0.0000 0.0000 1751.6847 -7432.1277 299.3676 -9183.8123 -7442.1776 298.5982 667.0717 728.4734 29825.5584 140.4183 193.6880
ENERGY: 600000 0.7102 3.9349 5.9786 0.0000 -10514.7811 1379.0117 0.0000 0.0000 1848.7555 -7276.3902 315.9572 -9125.1457 -7421.9379 302.1627 -301.0116 -230.4566 30590.6352 164.0929 217.6815
ENERGY: 900000 1.2964 5.6940 5.3006 0.0000 -10592.4283 1407.2127 0.0000 0.0000 1715.6075 -7457.3171 293.2019 -9172.9246 -7424.7424 301.9124 -243.6586 -147.3300 30447.1961 149.8424 198.3299
ENERGY: 1200000 0.9230 5.3810 5.3873 0.0000 -10627.9211 1346.2177 0.0000 0.0000 1768.3230 -7501.6891 302.2111 -9270.0121 -7428.8892 302.1380 -830.6400 -794.5379 30110.0660 36.0734 88.4300
ENERGY: 1500000 1.1130 5.4547 6.3900 0.0000 -10699.5692 1419.1483 0.0000 0.0000 1789.9974 -7477.4659 305.9153 -9267.4633 -7430.0981 302.8629 -524.4963 -457.1172 30631.9496 -8.4252 48.5035
TCL: Running FEP window  20: Lambda1 0.049999999999999684 Lambda2 0.0    [dLambda -0.049999999999999684]
TCL: Setting parameter firsttimestep to 0
TCL: Setting parameter alchLambda to 0.049999999999999684
Info: NONBONDED TABLE R-SQUARED SPACING: 0.0625
Info: NONBONDED TABLE SIZE: 705 POINTS
TCL: Setting parameter alchLambda2 to 0.0
Info: NONBONDED TABLE R-SQUARED SPACING: 0.0625
Info: NONBONDED TABLE SIZE: 705 POINTS
TCL: Running for 1500000 steps
ETITLE: TS BOND ANGLE DIHED IMPRP ELECT VDW BOUNDARY MISC KINETIC TOTAL TEMP POTENTIAL TOTALAVG TEMPAVG PRESSURE GPRESSURE VOLUME PRESSAVG GPRESSAVG
ENERGY: 0 1.1130 5.4547 6.3900 0.0000 -10699.5690 1419.4334 0.0000 0.0000 1789.1512 -7478.0268 305.7707 -9267.1780 -7478.0268 305.7707 -550.4490 -457.2408 30631.9496 -550.4490 -457.2408
ENERGY: 300000 2.2610 6.1968 4.9296 0.0000 -10668.3678 1430.7396 0.0000 0.0000 1717.5084 -7506.7324 293.5268 -9224.2407 -7484.8418 300.4707 -153.9138 -49.5854 30133.1465 -132.1355 -47.2771
ENERGY: 600000 0.6351 3.8756 5.5882 0.0000 -10735.6229 1472.0866 0.0000 0.0000 1789.0347 -7464.4026 305.7508 -9253.4374 -7462.6853 302.4383 86.9659 131.8929 30090.0794 6.0451 87.1992
ENERGY: 900000 1.2276 7.2124 5.6963 0.0000 -10661.2871 1483.2992 0.0000 0.0000 1702.0407 -7461.8109 290.8833 -9163.8516 -7467.0542 300.8449 281.0645 318.2038 30520.5793 133.9424 210.5127
ENERGY: 1200000 1.0401 8.9458 5.4812 0.0000 -10628.7114 1433.0599 0.0000 0.0000 1772.5225 -7407.6618 302.9288 -9180.1843 -7461.7144 302.1335 -162.9372 -57.3976 30443.2498 22.2887 101.5443
ENERGY: 1500000 1.0266 4.8599 5.1631 0.0000 -10625.2339 1410.5236 0.0000 0.0000 1738.9058 -7464.7550 297.1836 -9203.6608 -7454.2753 301.9485 -288.9354 -156.0561 30203.3905 112.8386 196.8287
TCL: Exiting due to exit command.
