Info: SIMULATION PARAMETERS:
Info: TIMESTEP               2
Info: NUMBER OF STEPS        0
Info: STEPS PER CYCLE        10
Info: PERIODIC CELL BASIS 1  31.4969 0 0
Info: PERIODIC CELL BASIS 2  0 31.9893 0
Info: PERIODIC CELL BASIS 3  0 0 30.0393
Info: PERIODIC CELL CENTER   0 0 0
Info: WRAPPING WATERS AROUND PERIODIC BOUNDARIES ON OUTPUT.
Info: WRAPPING ALL CLUSTERS AROUND PERIODIC BOUNDARIES ON OUTPUT.
Info: FIRST LDB TIMESTEP     50
Info: LAST LDB TIMESTEP     -1
Info: HOM BACKGROUND SCALING 1
Info: PME BACKGROUND SCALING 1
Info: MIN ATOMS PER PATCH    40
Info: EMPTY PATCH LOAD       40 ATOMS
Info: VELOCITY FILE          mobley_6474572_equil.vel
Info: CENTER OF MASS MOVING INITIALLY? NO
Info: DIELECTRIC             1
Info: EXCLUDE                SCALED ONE-FOUR
Info: 1-4 ELECTROSTATICS SCALED BY 0.833333
Info: MODIFIED 1-4 VDW PARAMETERS WILL BE USED
Info: DCD FILENAME           mobley_6474572_prod.dcd
Info: DCD FREQUENCY          100000
Info: DCD FIRST STEP         100000
Info: DCD FILE WILL CONTAIN UNIT CELL DATA
Info: XST FILENAME           mobley_6474572_prod.xst
Info: XST FREQUENCY          100000
Info: NO VELOCITY DCD OUTPUT
Info: NO FORCE DCD OUTPUT
Info: OUTPUT FILENAME        mobley_6474572_prod
Info: BINARY OUTPUT FILES WILL BE USED
Info: RESTART FILENAME       mobley_6474572_prod.restart
Info: RESTART FREQUENCY      100000
Info: BINARY RESTART FILES WILL BE USED
Info: CUTOFF                 9
Info: PAIRLIST DISTANCE      11
Info: PAIRLIST SHRINK RATE   0.01
Info: PAIRLIST GROW RATE     0.01
Info: PAIRLIST TRIGGER       0.3
Info: PAIRLISTS PER CYCLE    2
Info: PAIRLISTS ENABLED
Info: MARGIN                 2
Info: HYDROGEN GROUP CUTOFF  2.5
Info: PATCH DIMENSION        15.5
Info: ENERGY OUTPUT STEPS    100000
Info: ENERGY EVALUATION STEPS    100000
Info: OUTPUT ENERGY PRECISION 4
Info: CROSSTERM ENERGY INCLUDED IN DIHEDRAL
Info: TIMING OUTPUT STEPS    1000000
Info: PRESSURE OUTPUT STEPS  100000
Info: ALCHEMICAL FEP ON
Info: FEP CURRENT LAMBDA VALUE     1
Info: FEP COMPARISON LAMBDA VALUE  0.95
Info: FEP INTRA-ALCHEMICAL NON-BONDED INTERACTIONS WILL BE RETAINED
Info: FEP INTRA-ALCHEMICAL BONDED INTERACTIONS WILL BE RETAINED
Info: FEP VDW SHIFTING COEFFICIENT 5
Info: FEP ELEC. ACTIVE FOR ANNIHILATED PARTICLES BETWEEN LAMBDA = 0 AND LAMBDA = 0.5
Info: FEP ELEC. ACTIVE FOR EXNIHILATED PARTICLES BETWEEN LAMBDA = 0.5 AND LAMBDA = 1
Info: FEP VDW ACTIVE FOR ANNIHILATED PARTICLES BETWEEN LAMBDA = 0 AND LAMBDA = 1
Info: FEP VDW ACTIVE FOR EXNIHILATED PARTICLES BETWEEN LAMBDA = 0 AND LAMBDA = 1
Info: FEP BOND ACTIVE FOR ANNIHILATED PARTICLES BETWEEN LAMBDA = 1 AND LAMBDA = 1
Info: FEP BOND ACTIVE FOR EXNIHILATED PARTICLES BETWEEN LAMBDA = 0 AND LAMBDA = 0
Info: LANGEVIN DYNAMICS ACTIVE
Info: LANGEVIN TEMPERATURE   300
Info: LANGEVIN USING BBK INTEGRATOR
Info: LANGEVIN DAMPING COEFFICIENT IS 1 INVERSE PS
Info: LANGEVIN DYNAMICS APPLIED TO HYDROGENS
Info: LANGEVIN PISTON PRESSURE CONTROL ACTIVE
Info:        TARGET PRESSURE IS 1.01325 BAR
Info:     OSCILLATION PERIOD IS 50 FS
Info:             DECAY TIME IS 25 FS
Info:     PISTON TEMPERATURE IS 300 K
Info:       PRESSURE CONTROL IS GROUP-BASED
Info:    INITIAL STRAIN RATE IS 0.000186804 0.000186804 0.000186804
Info:       CELL FLUCTUATION IS ISOTROPIC
Info: PARTICLE MESH EWALD (PME) ACTIVE
Info: PME TOLERANCE               1e-06
Info: PME EWALD COEFFICIENT       0.348832
Info: PME INTERPOLATION ORDER     4
Info: PME GRID DIMENSIONS         32 32 32
Info: PME MAXIMUM GRID SPACING    1
Info: PME CALCULATION WILL BE PERFORMED ON GPU
Info: FULL ELECTROSTATIC EVALUATION FREQUENCY      2
Info: USING VERLET I (r-RESPA) MTS SCHEME.
Info: C1 SPLITTING OF LONG RANGE ELECTROSTATICS
Info: PLACING ATOMS IN PATCHES BY HYDROGEN GROUPS
Info: RIGID BONDS TO HYDROGEN : ALL
Info:         ERROR TOLERANCE : 1e-08
Info:          MAX ITERATIONS : 100
Info: RIGID WATER USING SETTLE ALGORITHM
Info: RANDOM NUMBER SEED     1743488985
Info: USE HYDROGEN BONDS?    NO
Info: Using AMBER format force field!
Info: AMBER PARM FILE        mobley_6474572.prmtop
Info: COORDINATE PDB         mobley_6474572.pdb
Info: Exclusions will be read from PARM file!
Info: SCNB (VDW SCALING)     2
Info: USING ARITHMETIC MEAN TO COMBINE L-J SIGMA PARAMETERS
Info: BINARY COORDINATES     mobley_6474572_equil.coor
Info: SUMMARY OF PARAMETERS:
Info: 6 BONDS
Info: 5 ANGLES
Info:   5 HARMONIC
Info:   0 COSINE-BASED
Info: 2 DIHEDRAL
Info: 0 IMPROPER
Info: 0 CROSSTERM
Info: 0 VDW
Info: 21 VDW_PAIRS
Info: 0 NBTHOLE_PAIRS
Info: To read alchdata from file: mobley_6474572.pdb
Info: To read alchflag data from column: 5
Info: STRUCTURE SUMMARY:
Info: 2919 ATOMS
Info: 2918 BONDS
Info: 6 ANGLES
Info: 6 DIHEDRALS
Info: 0 IMPROPERS
Info: 0 CROSSTERMS
Info: 2928 EXCLUSIONS
Info: 2916 RIGID BONDS
Info: ALCH: 0 ATOMS TO DISAPPEAR IN FINAL STATE
Info: ALCH: 6 ATOMS TO APPEAR IN FINAL STATE
Info: 5841 DEGREES OF FREEDOM
Info: 974 HYDROGEN GROUPS
Info: 3 ATOMS IN LARGEST HYDROGEN GROUP
Info: 974 MIGRATION GROUPS
Info: 3 ATOMS IN LARGEST MIGRATION GROUP
Info: TOTAL MASS = 17556 amu
Info: TOTAL CHARGE = 1.49012e-08 e
Info: MASS DENSITY = 0.963216 g/cm^3
Info: ATOM DENSITY = 0.0964433 atoms/A^3
Info: ADDED 0 IMPLICIT EXCLUSIONS
Info: NONBONDED TABLE R-SQUARED SPACING: 0.0625
Info: NONBONDED TABLE SIZE: 705 POINTS
Info: REDUCING NUMBER OF PATCHES TO IMPROVE LOAD BALANCE
Info: REMOVING COM VELOCITY 0.06952 -0.184072 -0.114382
Info: Use 3D box decompostion in PME FFT.
Info: Updated CUDA force table with 4096 elements.
Info: Updated CUDA LJ table with 6 x 6 elements.
Info: Found 9 unique exclusion lists needing 12 bytes
TCL: Running for 1500000 steps
ETITLE: TS BOND ANGLE DIHED IMPRP ELECT VDW BOUNDARY MISC KINETIC TOTAL TEMP POTENTIAL TOTALAVG TEMPAVG PRESSURE GPRESSURE VOLUME PRESSAVG GPRESSAVG
ENERGY: 0 1.7667 0.3493 0.6343 0.0000 -10629.6172 1500.0773 0.0000 0.0000 1825.6906 -7301.0990 314.5795 -9126.7896 -7301.0990 314.5795 618.0590 705.0258 30266.4837 618.0590 705.0258
ENERGY: 300000 1.5327 0.7458 0.5811 0.0000 -10690.5447 1494.0061 0.0000 0.0000 1769.1495 -7424.5296 304.8370 -9193.6790 -7378.7092 307.8828 551.2627 612.4968 29949.5662 203.9372 256.9546
ENERGY: 600000 1.3786 2.4424 1.2291 0.0000 -10539.8556 1402.2857 0.0000 0.0000 1781.1079 -7351.4119 306.8975 -9132.5198 -7410.2766 304.6894 -299.8443 -180.6385 30372.1683 -74.1933 -3.8532
ENERGY: 900000 0.2621 2.2655 0.6295 0.0000 -10616.9330 1473.4723 0.0000 0.0000 1752.3903 -7387.9133 301.9493 -9140.3036 -7398.4214 305.1227 555.1292 696.3710 29813.3223 21.0327 99.7656
ENERGY: 1200000 0.0919 0.9943 0.0163 0.0000 -10651.6437 1410.5401 0.0000 0.0000 1713.0098 -7526.9913 295.1637 -9240.0011 -7414.4072 303.2358 -505.3027 -368.2465 30240.0933 -115.7389 -33.2827
ENERGY: 1500000 0.6953 1.4915 0.4694 0.0000 -10580.1073 1389.2812 0.0000 0.0000 1733.1304 -7455.0395 298.6307 -9188.1699 -7421.3512 301.9586 -330.4748 -262.3892 30218.7539 -172.5462 -88.9205
TCL: Running FEP window   2: Lambda1 0.95   Lambda2 0.8999999999999999 [dLambda -0.050000000000000044]
TCL: Setting parameter firsttimestep to 0
TCL: Setting parameter alchLambda to 0.95
Info: NONBONDED TABLE R-SQUARED SPACING: 0.0625
Info: NONBONDED TABLE SIZE: 705 POINTS
TCL: Setting parameter alchLambda2 to 0.8999999999999999
Info: NONBONDED TABLE R-SQUARED SPACING: 0.0625
Info: NONBONDED TABLE SIZE: 705 POINTS
TCL: Running for 1500000 steps
ETITLE: TS BOND ANGLE DIHED IMPRP ELECT VDW BOUNDARY MISC KINETIC TOTAL TEMP POTENTIAL TOTALAVG TEMPAVG PRESSURE GPRESSURE VOLUME PRESSAVG GPRESSAVG
ENERGY: 0 0.6953 1.4915 0.4694 0.0000 -10579.7009 1389.6590 0.0000 0.0000 1732.3070 -7455.0787 298.4888 -9187.3857 -7455.0787 298.4888 -362.0890 -264.2327 30218.7539 -362.0890 -264.2327
ENERGY: 300000 0.0246 1.7680 1.0468 0.0000 -10599.8628 1376.9394 0.0000 0.0000 1745.5473 -7474.5368 300.7702 -9220.0841 -7489.2021 296.9640 -332.1848 -262.2299 29882.8184 -604.8696 -516.8909
ENERGY: 600000 0.3188 0.7962 0.8600 0.0000 -10706.6801 1474.6183 0.0000 0.0000 1767.1713 -7462.9156 304.4962 -9230.0869 -7476.7388 299.1555 309.7987 346.3832 30063.1186 -327.5731 -241.1174
ENERGY: 900000 0.3851 0.6925 0.4828 0.0000 -10542.5844 1376.6246 0.0000 0.0000 1708.4431 -7455.9562 294.3769 -9164.3993 -7469.5520 299.0286 -256.7231 -295.9444 30172.1958 -315.8584 -241.3917
ENERGY: 1200000 0.0824 1.8177 0.3617 0.0000 -10636.4381 1470.0153 0.0000 0.0000 1731.8763 -7432.2847 298.4146 -9164.1611 -7446.0086 300.0951 472.7213 542.2061 29920.4353 -232.6196 -156.3957
ENERGY: 1500000 0.1771 1.4178 0.1614 0.0000 -10489.4359 1332.7255 0.0000 0.0000 1743.6362 -7411.3179 300.4409 -9154.9542 -7448.2502 300.4938 -898.2582 -834.9462 30587.0689 -213.9702 -132.7197
TCL: Running FEP window   3: Lambda1 0.8999999999999999 Lambda2 0.8499999999999999 [dLambda -0.050000000000000044]
TCL: Setting parameter firsttimestep to 0
TCL: Setting parameter alchLambda to 0.8999999999999999
Info: NONBONDED TABLE R-SQUARED SPACING: 0.0625
Info: NONBONDED TABLE SIZE: 705 POINTS
TCL: Setting parameter alchLambda2 to 0.8499999999999999
Info: NONBONDED TABLE R-SQUARED SPACING: 0.0625
Info: NONBONDED TABLE SIZE: 705 POINTS
TCL: Running for 1500000 steps
ETITLE: TS BOND ANGLE DIHED IMPRP ELECT VDW BOUNDARY MISC KINETIC TOTAL TEMP POTENTIAL TOTALAVG TEMPAVG PRESSURE GPRESSURE VOLUME PRESSAVG GPRESSAVG
ENERGY: 0 0.1771 1.4178 0.1614 0.0000 -10489.3501 1332.9914 0.0000 0.0000 1742.7578 -7411.8447 300.2895 -9154.6024 -7411.8447 300.2895 -919.5480 -838.9224 30587.0689 -919.5480 -838.9224
ENERGY: 300000 1.1317 1.0077 0.6406 0.0000 -10675.7303 1487.7634 0.0000 0.0000 1775.3355 -7409.8514 305.9029 -9185.1869 -7399.0735 302.9006 506.0995 575.4343 29933.7230 -121.3652 -50.3185
ENERGY: 600000 0.2494 1.8276 2.4891 0.0000 -10575.4082 1425.4925 0.0000 0.0000 1731.9254 -7413.4241 298.4231 -9145.3496 -7426.2286 300.8105 146.0488 167.5716 30151.8644 -31.3015 40.4926
ENERGY: 900000 0.5561 0.1584 0.6748 0.0000 -10562.3829 1359.8573 0.0000 0.0000 1761.7904 -7439.3459 303.5690 -9201.1362 -7426.9720 300.3017 -666.8681 -609.4992 30206.6074 -173.5495 -107.7758
ENERGY: 1200000 0.7836 1.7861 0.0400 0.0000 -10592.6877 1417.3346 0.0000 0.0000 1690.8803 -7481.8630 291.3507 -9172.7434 -7426.2957 299.7475 -187.2175 -139.7624 30072.9543 -196.6646 -126.5624
ENERGY: 1500000 1.4168 1.0067 1.6346 0.0000 -10569.0367 1347.2111 0.0000 0.0000 1768.0575 -7449.7101 304.6489 -9217.7676 -7431.1278 300.5109 -666.7819 -543.0201 30150.0359 -267.4424 -192.8633
TCL: Running FEP window   4: Lambda1 0.8499999999999999 Lambda2 0.7999999999999998 [dLambda -0.050000000000000044]
TCL: Setting parameter firsttimestep to 0
TCL: Setting parameter alchLambda to 0.8499999999999999
Info: NONBONDED TABLE R-SQUARED SPACING: 0.0625
Info: NONBONDED TABLE SIZE: 705 POINTS
TCL: Setting parameter alchLambda2 to 0.7999999999999998
Info: NONBONDED TABLE R-SQUARED SPACING: 0.0625
Info: NONBONDED TABLE SIZE: 705 POINTS
TCL: Running for 1500000 steps
ETITLE: TS BOND ANGLE DIHED IMPRP ELECT VDW BOUNDARY MISC KINETIC TOTAL TEMP POTENTIAL TOTALAVG TEMPAVG PRESSURE GPRESSURE VOLUME PRESSAVG GPRESSAVG
ENERGY: 0 1.4168 1.0067 1.6346 0.0000 -10568.7918 1347.4860 0.0000 0.0000 1767.2083 -7450.0394 304.5025 -9217.2478 -7450.0394 304.5025 -611.0990 -543.4150 30150.0359 -611.0990 -543.4150
ENERGY: 300000 0.6844 2.7699 4.4461 0.0000 -10679.1909 1508.4717 0.0000 0.0000 1774.5497 -7388.2691 305.7675 -9162.8188 -7425.7781 302.6304 428.0653 533.3443 30080.0974 -132.8736 -49.3047
ENERGY: 600000 0.9265 0.6376 1.2864 0.0000 -10613.9653 1470.1076 0.0000 0.0000 1754.2025 -7386.8047 302.2615 -9141.0072 -7418.4353 301.3266 514.2796 544.4850 30107.9376 249.8558 315.1287
ENERGY: 900000 0.3258 1.9266 0.6128 0.0000 -10681.0744 1518.1968 0.0000 0.0000 1775.3945 -7384.6179 305.9131 -9160.0124 -7414.9725 302.1818 824.5521 868.1831 29976.7045 205.9561 273.1845
ENERGY: 1200000 2.2408 1.0011 0.2615 0.0000 -10517.9906 1417.1091 0.0000 0.0000 1728.7760 -7368.6021 297.8804 -9097.3781 -7415.9259 300.3486 -3.7302 113.5055 30069.9476 137.9993 205.6770
ENERGY: 1500000 0.9295 2.5512 1.5746 0.0000 -10625.9834 1437.2215 0.0000 0.0000 1755.8987 -7427.8078 302.5538 -9183.7065 -7411.3869 301.0565 -225.9908 -137.2923 30286.4531 104.1177 170.4456
TCL: Running FEP window   5: Lambda1 0.7999999999999998 Lambda2 0.7499999999999998 [dLambda -0.050000000000000044]
TCL: Setting parameter firsttimestep to 0
TCL: Setting parameter alchLambda to 0.7999999999999998
Info: NONBONDED TABLE R-SQUARED SPACING: 0.0625
Info: NONBONDED TABLE SIZE: 705 POINTS
TCL: Setting parameter alchLambda2 to 0.7499999999999998
Info: NONBONDED TABLE R-SQUARED SPACING: 0.0625
Info: NONBONDED TABLE SIZE: 705 POINTS
TCL: Running for 1500000 steps
ETITLE: TS BOND ANGLE DIHED IMPRP ELECT VDW BOUNDARY MISC KINETIC TOTAL TEMP POTENTIAL TOTALAVG TEMPAVG PRESSURE GPRESSURE VOLUME PRESSAVG GPRESSAVG
ENERGY: 0 0.9295 2.5512 1.5746 0.0000 -10625.9314 1437.4463 0.0000 0.0000 1755.0406 -7428.3891 302.4060 -9183.4297 -7428.3891 302.4060 -233.3121 -138.8463 30286.4531 -233.3121 -138.8463
ENERGY: 300000 0.4960 1.8535 0.3820 0.0000 -10380.6533 1314.3712 0.0000 0.0000 1785.3544 -7278.1962 307.6292 -9063.5506 -7386.0722 300.4077 -625.7442 -533.6829 30021.5154 -299.5969 -235.5611
ENERGY: 600000 1.6422 0.3006 0.6445 0.0000 -10538.0205 1383.7143 0.0000 0.0000 1762.8254 -7388.8936 303.7473 -9151.7189 -7395.3872 301.0729 -328.0678 -283.0487 30334.8627 -323.0259 -257.6754
ENERGY: 900000 0.7994 0.9738 1.2627 0.0000 -10574.8608 1385.7209 0.0000 0.0000 1726.4236 -7459.6804 297.4750 -9186.1040 -7426.6783 301.1942 -691.4432 -536.5387 30371.9508 -197.3947 -124.2738
ENERGY: 1200000 0.0269 1.0710 0.7396 0.0000 -10608.1429 1449.3842 0.0000 0.0000 1768.6188 -7388.3025 304.7456 -9156.9213 -7431.5756 301.1169 171.2845 200.3724 30475.2241 -139.2840 -69.5834
ENERGY: 1500000 1.4939 2.3767 0.6920 0.0000 -10665.9365 1498.9137 0.0000 0.0000 1733.2156 -7429.2445 298.6454 -9162.4601 -7436.1403 300.6506 467.3351 554.5811 30257.6860 -103.0256 -41.0201
TCL: Running FEP window   6: Lambda1 0.7499999999999998 Lambda2 0.6999999999999997 [dLambda -0.050000000000000044]
TCL: Setting parameter firsttimestep to 0
TCL: Setting parameter alchLambda to 0.7499999999999998
Info: NONBONDED TABLE R-SQUARED SPACING: 0.0625
Info: NONBONDED TABLE SIZE: 705 POINTS
TCL: Setting parameter alchLambda2 to 0.6999999999999997
Info: NONBONDED TABLE R-SQUARED SPACING: 0.0625
Info: NONBONDED TABLE SIZE: 705 POINTS
TCL: Running for 1500000 steps
ETITLE: TS BOND ANGLE DIHED IMPRP ELECT VDW BOUNDARY MISC KINETIC TOTAL TEMP POTENTIAL TOTALAVG TEMPAVG PRESSURE GPRESSURE VOLUME PRESSAVG GPRESSAVG
ENERGY: 0 1.4939 2.3767 0.6920 0.0000 -10665.7077 1499.0694 0.0000 0.0000 1732.2703 -7429.8053 298.4825 -9162.0756 -7429.8053 298.4825 463.8831 552.9506 30257.6860 463.8831 552.9506
ENERGY: 300000 0.4455 0.7353 2.5731 0.0000 -10467.5267 1347.2515 0.0000 0.0000 1780.5680 -7335.9535 306.8045 -9116.5214 -7401.5100 301.6835 -654.7372 -604.8295 30547.5986 120.4358 201.6846
ENERGY: 600000 0.1864 1.7616 0.2078 0.0000 -10646.3985 1452.4383 0.0000 0.0000 1755.2486 -7436.5557 302.4418 -9191.8043 -7416.7478 301.1695 121.3843 216.7792 30044.2297 47.3765 125.1888
ENERGY: 900000 0.7941 2.6817 0.0712 0.0000 -10634.8813 1393.9158 0.0000 0.0000 1710.4016 -7527.0169 294.7143 -9237.4185 -7438.9011 300.2324 -474.6556 -482.1556 30227.5619 -50.1987 18.0595
ENERGY: 1200000 0.5402 0.1424 1.7093 0.0000 -10663.9707 1441.6155 0.0000 0.0000 1748.5771 -7471.3861 301.2923 -9219.9632 -7434.5876 300.3149 63.2396 146.3879 29865.3096 -98.3770 -23.8988
ENERGY: 1500000 4.3426 1.0623 3.0088 0.0000 -10710.2608 1489.2964 0.0000 0.0000 1711.9964 -7500.5543 294.9891 -9212.5507 -7439.2650 299.7267 399.2838 483.8261 30032.1341 -87.9436 -13.4500
TCL: Running FEP window   7: Lambda1 0.6999999999999997 Lambda2 0.6499999999999997 [dLambda -0.050000000000000044]
TCL: Setting parameter firsttimestep to 0
TCL: Setting parameter alchLambda to 0.6999999999999997
Info: NONBONDED TABLE R-SQUARED SPACING: 0.0625
Info: NONBONDED TABLE SIZE: 705 POINTS
TCL: Setting parameter alchLambda2 to 0.6499999999999997
Info: NONBONDED TABLE R-SQUARED SPACING: 0.0625
Info: NONBONDED TABLE SIZE: 705 POINTS
TCL: Running for 1500000 steps
ETITLE: TS BOND ANGLE DIHED IMPRP ELECT VDW BOUNDARY MISC KINETIC TOTAL TEMP POTENTIAL TOTALAVG TEMPAVG PRESSURE GPRESSURE VOLUME PRESSAVG GPRESSAVG
ENERGY: 0 4.3426 1.0623 3.0088 0.0000 -10710.0257 1489.0909 0.0000 0.0000 1711.0920 -7501.4291 294.8333 -9212.5211 -7501.4291 294.8333 400.0189 477.5820 30032.1341 400.0189 477.5820
ENERGY: 300000 0.0284 1.1374 1.9144 0.0000 -10634.7949 1394.0388 0.0000 0.0000 1772.8108 -7464.8650 305.4679 -9237.6759 -7481.5154 300.0876 -248.2503 -226.3904 29817.5336 143.3295 171.8063
ENERGY: 600000 0.4529 1.9310 1.9938 0.0000 -10612.6324 1434.0327 0.0000 0.0000 1740.2311 -7433.9909 299.8542 -9174.2220 -7456.3761 301.4501 68.6419 102.6248 30030.4391 86.1430 135.5120
ENERGY: 900000 0.0957 0.2920 0.8284 0.0000 -10622.9026 1414.1595 0.0000 0.0000 1761.2996 -7446.2274 303.4844 -9207.5270 -7449.8779 300.6027 -175.8508 -81.7555 30013.3715 25.6375 80.6335
ENERGY: 1200000 0.0955 1.4633 1.2872 0.0000 -10587.1723 1417.0730 0.0000 0.0000 1722.0748 -7445.1785 296.7257 -9167.2533 -7454.2958 299.9285 -260.7311 -150.2474 30319.3283 -63.4819 0.4362
ENERGY: 1500000 0.0600 1.4995 1.7111 0.0000 -10717.5479 1456.2561 0.0000 0.0000 1773.1182 -7484.9030 305.5209 -9258.0212 -7451.5498 300.3824 156.3619 208.4454 29652.6357 -48.2525 18.2969
TCL: Running FEP window   8: Lambda1 0.6499999999999997 Lambda2 0.5999999999999996 [dLambda -0.050000000000000044]
TCL: Setting parameter firsttimestep to 0
TCL: Setting parameter alchLambda to 0.6499999999999997
Info: NONBONDED TABLE R-SQUARED SPACING: 0.0625
Info: NONBONDED TABLE SIZE: 705 POINTS
TCL: Setting parameter alchLambda2 to 0.5999999999999996
Info: NONBONDED TABLE R-SQUARED SPACING: 0.0625
Info: NONBONDED TABLE SIZE: 705 POINTS
TCL: Running for 1500000 steps
ETITLE: TS BOND ANGLE DIHED IMPRP ELECT VDW BOUNDARY MISC KINETIC TOTAL TEMP POTENTIAL TOTALAVG TEMPAVG PRESSURE GPRESSURE VOLUME PRESSAVG GPRESSAVG
ENERGY: 0 0.0600 1.4995 1.7111 0.0000 -10717.5412 1456.3157 0.0000 0.0000 1772.2339 -7485.7210 305.3685 -9257.9549 -7485.7210 305.3685 130.9922 202.1956 29652.6357 130.9922 202.1956
ENERGY: 300000 4.5501 0.8710 0.1081 0.0000 -10579.1924 1421.8644 0.0000 0.0000 1664.1170 -7487.6817 286.7392 -9151.7987 -7479.4019 297.7892 4.4488 30.0659 30022.2309 198.9190 250.0794
ENERGY: 600000 0.1222 0.3750 3.6596 0.0000 -10639.1664 1430.7528 0.0000 0.0000 1706.8253 -7497.4315 294.0981 -9204.2567 -7480.4296 298.6508 -108.4430 -43.8886 30042.3158 193.9295 265.0624
ENERGY: 900000 0.1522 0.3556 0.7230 0.0000 -10687.2189 1510.4573 0.0000 0.0000 1749.2898 -7426.2410 301.4151 -9175.5308 -7459.7801 297.6651 675.1318 716.4050 29971.6564 178.9407 247.0631
ENERGY: 1200000 0.1154 1.5733 0.1138 0.0000 -10714.3342 1548.4468 0.0000 0.0000 1729.2383 -7434.8465 297.9600 -9164.0848 -7462.9664 297.5210 953.1155 1009.0935 29963.8634 237.5371 299.5675
ENERGY: 1500000 2.8179 0.4249 0.1308 0.0000 -10729.5085 1507.5630 0.0000 0.0000 1702.4835 -7516.0883 293.3500 -9218.5719 -7462.6273 298.2186 641.9082 682.6639 29801.7683 189.2593 258.9082
TCL: Running FEP window   9: Lambda1 0.5999999999999996 Lambda2 0.5499999999999996 [dLambda -0.050000000000000044]
TCL: Setting parameter firsttimestep to 0
TCL: Setting parameter alchLambda to 0.5999999999999996
Info: NONBONDED TABLE R-SQUARED SPACING: 0.0625
Info: NONBONDED TABLE SIZE: 705 POINTS
TCL: Setting parameter alchLambda2 to 0.5499999999999996
Info: NONBONDED TABLE R-SQUARED SPACING: 0.0625
Info: NONBONDED TABLE SIZE: 705 POINTS
TCL: Running for 1500000 steps
ETITLE: TS BOND ANGLE DIHED IMPRP ELECT VDW BOUNDARY MISC KINETIC TOTAL TEMP POTENTIAL TOTALAVG TEMPAVG PRESSURE GPRESSURE VOLUME PRESSAVG GPRESSAVG
ENERGY: 0 2.8179 0.4249 0.1308 0.0000 -10729.2783 1507.4032 0.0000 0.0000 1701.6002 -7516.9012 293.1978 -9218.5014 -7516.9012 293.1978 581.2939 677.7686 29801.7683 581.2939 677.7686
ENERGY: 300000 0.2922 0.8794 0.8067 0.0000 -10662.5629 1464.6925 0.0000 0.0000 1733.2292 -7462.6629 298.6477 -9195.8920 -7436.9657 296.7021 49.6172 102.8821 30254.8923 193.8091 287.8467
ENERGY: 600000 0.6080 1.5206 0.4710 0.0000 -10612.7910 1442.8162 0.0000 0.0000 1751.1668 -7416.2085 301.7385 -9167.3753 -7453.0259 297.6660 219.5135 288.3822 29814.8491 138.9853 216.4576
ENERGY: 900000 0.1246 2.9360 0.9049 0.0000 -10783.1445 1549.4263 0.0000 0.0000 1716.3037 -7513.4490 295.7313 -9229.7527 -7450.3657 298.7454 1027.2983 1058.5696 29650.7454 116.8986 187.4150
ENERGY: 1200000 0.6559 2.2764 1.5446 0.0000 -10676.2740 1520.0737 0.0000 0.0000 1775.2101 -7376.5133 305.8813 -9151.7234 -7438.0694 300.1032 614.2972 696.4939 30358.0360 176.9475 243.1830
ENERGY: 1500000 0.4701 1.3242 2.9076 0.0000 -10577.1198 1449.2598 0.0000 0.0000 1736.5264 -7386.6316 299.2158 -9123.1580 -7430.7431 300.8679 120.9220 199.9023 30425.3151 171.5739 236.3004
TCL: Running FEP window  10: Lambda1 0.5499999999999996 Lambda2 0.4999999999999996 [dLambda -0.04999999999999999]
TCL: Setting parameter firsttimestep to 0
TCL: Setting parameter alchLambda to 0.5499999999999996
Info: NONBONDED TABLE R-SQUARED SPACING: 0.0625
Info: NONBONDED TABLE SIZE: 705 POINTS
TCL: Setting parameter alchLambda2 to 0.4999999999999996
Info: NONBONDED TABLE R-SQUARED SPACING: 0.0625
Info: NONBONDED TABLE SIZE: 705 POINTS
TCL: Running for 1500000 steps
ETITLE: TS BOND ANGLE DIHED IMPRP ELECT VDW BOUNDARY MISC KINETIC TOTAL TEMP POTENTIAL TOTALAVG TEMPAVG PRESSURE GPRESSURE VOLUME PRESSAVG GPRESSAVG
ENERGY: 0 0.4701 1.3242 2.9076 0.0000 -10577.1700 1449.1065 0.0000 0.0000 1735.6985 -7387.6631 299.0732 -9123.3616 -7387.6631 299.0732 107.0326 194.0763 30425.3151 107.0326 194.0763
ENERGY: 300000 0.0289 3.9828 1.9013 0.0000 -10608.9519 1366.2288 0.0000 0.0000 1734.5071 -7502.3029 298.8679 -9236.8101 -7440.8676 298.4724 -682.6584 -617.5761 30085.9927 -38.3881 35.6031
ENERGY: 600000 0.1203 1.1804 0.8138 0.0000 -10594.8438 1403.4626 0.0000 0.0000 1735.7916 -7453.4751 299.0892 -9189.2667 -7433.4967 299.4891 84.8341 99.7244 29501.4624 65.9829 105.3708
ENERGY: 900000 0.7921 1.2255 0.0953 0.0000 -10672.5550 1473.5156 0.0000 0.0000 1783.8114 -7413.1150 307.3634 -9196.9264 -7442.6713 300.0667 280.0359 382.2947 30044.3704 46.9306 95.9197
ENERGY: 1200000 0.0180 0.4594 1.0693 0.0000 -10610.9718 1448.8625 0.0000 0.0000 1741.3127 -7419.2499 300.0405 -9160.5626 -7450.7262 299.6764 -4.3788 96.5136 30366.7028 65.6894 123.5526
ENERGY: 1500000 1.1128 0.7367 1.1938 0.0000 -10651.4778 1405.0201 0.0000 0.0000 1763.9671 -7479.4472 303.9441 -9243.4143 -7446.9068 299.7085 -499.4344 -379.0459 30154.7446 42.3108 105.0623
TCL: Running FEP window  11: Lambda1 0.4999999999999996 Lambda2 0.4499999999999996 [dLambda -0.04999999999999999]
TCL: Setting parameter firsttimestep to 0
TCL: Setting parameter alchLambda to 0.4999999999999996
Info: NONBONDED TABLE R-SQUARED SPACING: 0.0625
Info: NONBONDED TABLE SIZE: 705 POINTS
TCL: Setting parameter alchLambda2 to 0.4499999999999996
Info: NONBONDED TABLE R-SQUARED SPACING: 0.0625
Info: NONBONDED TABLE SIZE: 705 POINTS
TCL: Running for 1500000 steps
ETITLE: TS BOND ANGLE DIHED IMPRP ELECT VDW BOUNDARY MISC KINETIC TOTAL TEMP POTENTIAL TOTALAVG TEMPAVG PRESSURE GPRESSURE VOLUME PRESSAVG GPRESSAVG
ENERGY: 0 1.1128 0.7367 1.1938 0.0000 -10651.2833 1405.1869 0.0000 0.0000 1763.1640 -7479.8890 303.8057 -9243.0530 -7479.8890 303.8057 -452.6707 -378.5683 30154.7446 -452.6707 -378.5683
ENERGY: 300000 0.1787 2.0985 1.0751 0.0000 -10593.6111 1423.7458 0.0000 0.0000 1715.1482 -7451.3648 295.5322 -9166.5131 -7455.5341 298.1215 -131.8449 -89.9027 30280.2875 -97.6911 -37.5291
ENERGY: 600000 0.1661 0.6016 1.7079 0.0000 -10702.5389 1543.7456 0.0000 0.0000 1742.4663 -7413.8515 300.2393 -9156.3178 -7449.8625 299.8701 959.8921 1029.8480 29984.4789 297.6292 359.2296
ENERGY: 900000 0.1746 2.6920 3.6251 0.0000 -10486.2482 1370.1987 0.0000 0.0000 1677.1212 -7432.4366 288.9799 -9109.5578 -7443.0610 297.8311 -464.4321 -397.8906 30274.3153 167.6530 226.4306
ENERGY: 1200000 0.0101 0.7053 0.3872 0.0000 -10698.1546 1407.9270 0.0000 0.0000 1737.1698 -7551.9553 299.3267 -9289.1250 -7451.3776 299.0368 -439.2871 -308.2629 29792.8182 99.1340 165.0790
ENERGY: 1500000 2.1836 1.8620 0.7983 0.0000 -10579.0149 1431.5118 0.0000 0.0000 1747.5077 -7395.1515 301.1080 -9142.6592 -7443.6995 300.1883 99.0380 149.9058 29967.7222 102.4640 167.1854
TCL: Running FEP window  12: Lambda1 0.4499999999999996 Lambda2 0.39999999999999963 [dLambda -0.04999999999999999]
TCL: Setting parameter firsttimestep to 0
TCL: Setting parameter alchLambda to 0.4499999999999996
Info: NONBONDED TABLE R-SQUARED SPACING: 0.0625
Info: NONBONDED TABLE SIZE: 705 POINTS
TCL: Setting parameter alchLambda2 to 0.39999999999999963
Info: NONBONDED TABLE R-SQUARED SPACING: 0.0625
Info: NONBONDED TABLE SIZE: 705 POINTS
TCL: Running for 1500000 steps
ETITLE: TS BOND ANGLE DIHED IMPRP ELECT VDW BOUNDARY MISC KINETIC TOTAL TEMP POTENTIAL TOTALAVG TEMPAVG PRESSURE GPRESSURE VOLUME PRESSAVG GPRESSAVG
ENERGY: 0 2.1836 1.8620 0.7983 0.0000 -10579.0152 1431.7725 0.0000 0.0000 1746.6602 -7395.7386 300.9620 -9142.3988 -7395.7386 300.9620 60.2932 148.4360 29967.7222 60.2932 148.4360
ENERGY: 300000 1.9405 2.4611 0.4396 0.0000 -10515.6644 1396.2488 0.0000 0.0000 1763.8790 -7350.6954 303.9289 -9114.5744 -7390.3613 304.2252 -61.1428 16.5838 29998.7107 87.3862 188.8568
ENERGY: 600000 0.1443 0.5697 1.8072 0.0000 -10575.2652 1433.7000 0.0000 0.0000 1698.2319 -7440.8120 292.6174 -9139.0439 -7429.2486 300.0631 -235.5391 -139.4867 30525.0250 -213.6219 -124.5723
ENERGY: 900000 0.5121 0.5572 1.1939 0.0000 -10496.9831 1373.7144 0.0000 0.0000 1690.7281 -7430.2774 291.3245 -9121.0056 -7428.4604 299.8234 -249.6122 -181.0723 29880.9284 -261.0682 -178.3767
ENERGY: 1200000 0.5872 1.9255 0.2855 0.0000 -10727.1946 1532.0254 0.0000 0.0000 1774.5861 -7417.7850 305.7738 -9192.3710 -7426.2802 299.7212 802.7952 816.4206 30177.5060 -205.3247 -132.9808
ENERGY: 1500000 2.7232 0.1500 1.0550 0.0000 -10676.6023 1433.9895 0.0000 0.0000 1735.0614 -7503.6231 298.9634 -9238.6845 -7432.6778 299.6920 -51.2345 1.9349 29849.6122 -177.2267 -115.3413
TCL: Running FEP window  13: Lambda1 0.39999999999999963 Lambda2 0.34999999999999964 [dLambda -0.04999999999999999]
TCL: Setting parameter firsttimestep to 0
TCL: Setting parameter alchLambda to 0.39999999999999963
Info: NONBONDED TABLE R-SQUARED SPACING: 0.0625
Info: NONBONDED TABLE SIZE: 705 POINTS
TCL: Setting parameter alchLambda2 to 0.34999999999999964
Info: NONBONDED TABLE R-SQUARED SPACING: 0.0625
Info: NONBONDED TABLE SIZE: 705 POINTS
TCL: Running for 1500000 steps
ETITLE: TS BOND ANGLE DIHED IMPRP ELECT VDW BOUNDARY MISC KINETIC TOTAL TEMP POTENTIAL TOTALAVG TEMPAVG PRESSURE GPRESSURE VOLUME PRESSAVG GPRESSAVG
ENERGY: 0 2.7232 0.1500 1.0550 0.0000 -10676.6034 1434.3702 0.0000 0.0000 1734.1939 -7504.1111 298.8139 -9238.3050 -7504.1111 298.8139 -77.0990 4.6882 29849.6122 -77.0990 4.6882
ENERGY: 300000 1.0395 0.9473 0.4279 0.0000 -10519.0226 1385.0042 0.0000 0.0000 1732.9339 -7398.6698 298.5968 -9131.6037 -7443.6124 300.0330 -407.0284 -327.4477 30229.3004 -403.4339 -328.2276
ENERGY: 600000 0.4889 0.8304 0.9436 0.0000 -10575.3295 1418.3766 0.0000 0.0000 1756.1271 -7398.5629 302.5932 -9154.6900 -7462.9646 298.7723 322.5734 353.3794 29685.4308 -297.0431 -230.1087
ENERGY: 900000 0.0028 2.3912 0.4714 0.0000 -10425.1046 1335.6414 0.0000 0.0000 1763.4377 -7323.1601 303.8528 -9086.5978 -7450.3754 299.7821 -599.9521 -480.8891 30153.5045 -283.3517 -208.0524
ENERGY: 1200000 0.0698 2.0028 0.5189 0.0000 -10612.9203 1417.9717 0.0000 0.0000 1781.8160 -7410.5412 307.0195 -9192.3571 -7437.9194 301.0272 -342.4081 -266.3491 30537.9029 -369.2258 -304.7754
ENERGY: 1500000 0.1374 1.2030 1.2255 0.0000 -10541.6121 1365.6126 0.0000 0.0000 1746.1278 -7427.3058 300.8702 -9173.4336 -7436.5720 300.9387 -359.8027 -277.5655 29768.6502 -406.6279 -336.3144
TCL: Running FEP window  14: Lambda1 0.34999999999999964 Lambda2 0.29999999999999966 [dLambda -0.04999999999999999]
TCL: Setting parameter firsttimestep to 0
TCL: Setting parameter alchLambda to 0.34999999999999964
Info: NONBONDED TABLE R-SQUARED SPACING: 0.0625
Info: NONBONDED TABLE SIZE: 705 POINTS
TCL: Setting parameter alchLambda2 to 0.29999999999999966
Info: NONBONDED TABLE R-SQUARED SPACING: 0.0625
Info: NONBONDED TABLE SIZE: 705 POINTS
TCL: Running for 1500000 steps
ETITLE: TS BOND ANGLE DIHED IMPRP ELECT VDW BOUNDARY MISC KINETIC TOTAL TEMP POTENTIAL TOTALAVG TEMPAVG PRESSURE GPRESSURE VOLUME PRESSAVG GPRESSAVG
ENERGY: 0 0.1374 1.2030 1.2255 0.0000 -10541.6126 1365.8878 0.0000 0.0000 1745.2483 -7427.9106 300.7187 -9173.1589 -7427.9106 300.7187 -365.6160 -280.3737 29768.6502 -365.6160 -280.3737
ENERGY: 300000 2.2691 1.6564 1.3023 0.0000 -10758.7665 1588.1036 0.0000 0.0000 1730.6411 -7434.7941 298.2017 -9165.4352 -7482.6964 296.4784 1558.6255 1652.7702 29652.2192 81.8001 162.5139
ENERGY: 600000 0.7039 0.7791 0.4201 0.0000 -10609.3157 1447.9685 0.0000 0.0000 1776.9836 -7382.4605 306.1869 -9159.4440 -7445.3449 299.9709 65.2861 167.7725 30227.7197 262.6188 334.6234
ENERGY: 900000 1.4450 0.4568 0.2990 0.0000 -10689.0359 1521.0763 0.0000 0.0000 1791.0961 -7374.6627 308.6186 -9165.7588 -7433.2439 299.8980 676.3004 731.8066 30071.9403 222.8335 289.7604
ENERGY: 1200000 1.1040 0.3844 0.6398 0.0000 -10511.6675 1360.9553 0.0000 0.0000 1740.4178 -7408.1661 299.8864 -9148.5839 -7430.2435 299.8164 -380.9782 -309.2029 29988.7435 138.4233 212.8087
ENERGY: 1500000 0.3859 1.1834 2.3540 0.0000 -10691.9419 1445.6142 0.0000 0.0000 1792.5386 -7449.8658 308.8671 -9242.4044 -7436.0831 299.6750 105.5671 163.5714 29596.4442 96.3744 167.5778
TCL: Running FEP window  15: Lambda1 0.29999999999999966 Lambda2 0.24999999999999967 [dLambda -0.04999999999999999]
TCL: Setting parameter firsttimestep to 0
TCL: Setting parameter alchLambda to 0.29999999999999966
Info: NONBONDED TABLE R-SQUARED SPACING: 0.0625
Info: NONBONDED TABLE SIZE: 705 POINTS
TCL: Setting parameter alchLambda2 to 0.24999999999999967
Info: NONBONDED TABLE R-SQUARED SPACING: 0.0625
Info: NONBONDED TABLE SIZE: 705 POINTS
TCL: Running for 1500000 steps
ETITLE: TS BOND ANGLE DIHED IMPRP ELECT VDW BOUNDARY MISC KINETIC TOTAL TEMP POTENTIAL TOTALAVG TEMPAVG PRESSURE GPRESSURE VOLUME PRESSAVG GPRESSAVG
ENERGY: 0 0.3859 1.1834 2.3540 0.0000 -10691.9426 1445.2139 0.0000 0.0000 1791.6585 -7451.1470 308.7155 -9242.8055 -7451.1470 308.7155 76.0664 159.3235 29596.4442 76.0664 159.3235
ENERGY: 300000 0.5023 1.6998 0.4529 0.0000 -10682.5877 1484.0169 0.0000 0.0000 1737.9922 -7457.9237 299.4684 -9195.9159 -7422.8359 304.5120 387.2225 443.0213 30006.6921 49.6574 102.7055
ENERGY: 600000 1.5893 2.0549 0.6605 0.0000 -10617.3912 1435.5522 0.0000 0.0000 1685.5299 -7492.0044 290.4288 -9177.5343 -7430.7031 301.7421 93.5668 153.9496 29828.0765 80.8358 124.9355
ENERGY: 900000 0.5257 1.7907 0.5842 0.0000 -10473.3656 1368.0488 0.0000 0.0000 1774.3805 -7328.0357 305.7384 -9102.4162 -7416.3579 301.7025 -210.0078 -150.1428 30213.0175 52.8651 107.6676
ENERGY: 1200000 0.3599 2.2077 2.1605 0.0000 -10434.3990 1324.4100 0.0000 0.0000 1755.3766 -7349.8844 302.4639 -9105.2610 -7418.8676 301.4779 -782.1251 -713.0513 30368.5310 -61.9432 -1.6916
ENERGY: 1500000 0.4844 0.7842 1.0329 0.0000 -10547.7864 1411.5704 0.0000 0.0000 1746.5418 -7387.3726 300.9416 -9133.9145 -7416.3324 301.9058 -258.5571 -199.9364 30273.3850 -127.7068 -67.7706
TCL: Running FEP window  16: Lambda1 0.24999999999999967 Lambda2 0.19999999999999968 [dLambda -0.04999999999999999]
TCL: Setting parameter firsttimestep to 0
TCL: Setting parameter alchLambda to 0.24999999999999967
Info: NONBONDED TABLE R-SQUARED SPACING: 0.0625
Info: NONBONDED TABLE SIZE: 705 POINTS
TCL: Setting parameter alchLambda2 to 0.19999999999999968
Info: NONBONDED TABLE R-SQUARED SPACING: 0.0625
Info: NONBONDED TABLE SIZE: 705 POINTS
TCL: Running for 1500000 steps
ETITLE: TS BOND ANGLE DIHED IMPRP ELECT VDW BOUNDARY MISC KINETIC TOTAL TEMP POTENTIAL TOTALAVG TEMPAVG PRESSURE GPRESSURE VOLUME PRESSAVG GPRESSAVG
ENERGY: 0 0.4844 0.7842 1.0329 0.0000 -10547.7859 1411.6115 0.0000 0.0000 1745.6750 -7388.1979 300.7922 -9133.8729 -7388.1979 300.7922 -258.3193 -196.9953 30273.3850 -258.3193 -196.9953
ENERGY: 300000 0.1608 0.8126 1.9818 0.0000 -10612.7532 1394.5805 0.0000 0.0000 1726.6982 -7488.5193 297.5224 -9215.2174 -7453.4969 298.5967 -522.0412 -436.8076 30165.5520 -240.8451 -169.9869
ENERGY: 600000 0.2025 0.5332 0.9076 0.0000 -10454.9429 1303.2961 0.0000 0.0000 1748.5982 -7401.4053 301.2959 -9150.0035 -7424.4110 300.9704 -1069.8715 -1039.6742 30640.0648 -232.6177 -159.7705
ENERGY: 900000 1.2924 1.0333 0.1530 0.0000 -10590.5973 1456.7840 0.0000 0.0000 1767.5502 -7363.7844 304.5615 -9131.3346 -7406.7120 301.1553 184.9853 223.8293 29852.7429 -238.4658 -171.1318
ENERGY: 1200000 0.5971 2.8202 2.7425 0.0000 -10675.3525 1472.0214 0.0000 0.0000 1741.2112 -7455.9601 300.0231 -9197.1713 -7419.1854 301.0331 446.0663 502.3435 29580.8579 -179.4870 -111.3804
ENERGY: 1500000 0.8603 0.7596 0.7287 0.0000 -10624.4103 1432.1384 0.0000 0.0000 1778.9734 -7410.9499 306.5297 -9189.9232 -7420.5141 300.9498 56.6540 232.7428 29521.5852 -195.2850 -123.5579
TCL: Running FEP window  17: Lambda1 0.19999999999999968 Lambda2 0.1499999999999997 [dLambda -0.04999999999999999]
TCL: Setting parameter firsttimestep to 0
TCL: Setting parameter alchLambda to 0.19999999999999968
Info: NONBONDED TABLE R-SQUARED SPACING: 0.0625
Info: NONBONDED TABLE SIZE: 705 POINTS
TCL: Setting parameter alchLambda2 to 0.1499999999999997
Info: NONBONDED TABLE R-SQUARED SPACING: 0.0625
Info: NONBONDED TABLE SIZE: 705 POINTS
TCL: Running for 1500000 steps
ETITLE: TS BOND ANGLE DIHED IMPRP ELECT VDW BOUNDARY MISC KINETIC TOTAL TEMP POTENTIAL TOTALAVG TEMPAVG PRESSURE GPRESSURE VOLUME PRESSAVG GPRESSAVG
ENERGY: 0 0.8603 0.7596 0.7287 0.0000 -10624.4104 1432.0654 0.0000 0.0000 1778.0610 -7411.9354 306.3725 -9189.9964 -7411.9354 306.3725 146.5538 231.0356 29521.5852 146.5538 231.0356
ENERGY: 300000 0.4076 2.4496 0.4623 0.0000 -10695.5280 1457.0058 0.0000 0.0000 1739.4285 -7495.7741 299.7159 -9235.2027 -7424.1553 303.7821 -42.6060 34.7321 30162.0813 -110.0101 -28.4244
ENERGY: 600000 0.5775 1.1768 1.3689 0.0000 -10562.3974 1391.5486 0.0000 0.0000 1713.9380 -7453.7875 295.3237 -9167.7256 -7430.8848 302.0014 -271.5628 -208.9973 29832.6156 -279.2961 -207.0713
ENERGY: 900000 0.9115 0.3357 0.4853 0.0000 -10657.2370 1478.3629 0.0000 0.0000 1767.8082 -7409.3335 304.6059 -9177.1416 -7430.8011 301.8559 367.2196 418.9600 29920.8550 -199.9246 -130.1531
ENERGY: 1200000 0.3965 0.6354 0.6425 0.0000 -10691.9930 1466.4521 0.0000 0.0000 1730.1463 -7493.7202 298.1165 -9223.8665 -7441.4100 301.0438 91.3004 104.2962 30084.6870 -87.8342 -26.7821
ENERGY: 1500000 0.5512 2.3414 0.1407 0.0000 -10560.3260 1393.2777 0.0000 0.0000 1758.1207 -7405.8944 302.9367 -9164.0151 -7437.2606 300.9775 -439.0822 -339.1664 30349.8140 -134.0626 -68.4725
TCL: Running FEP window  18: Lambda1 0.1499999999999997 Lambda2 0.09999999999999969 [dLambda -0.05 ]
TCL: Setting parameter firsttimestep to 0
TCL: Setting parameter alchLambda to 0.1499999999999997
Info: NONBONDED TABLE R-SQUARED SPACING: 0.0625
Info: NONBONDED TABLE SIZE: 705 POINTS
TCL: Setting parameter alchLambda2 to 0.09999999999999969
Info: NONBONDED TABLE R-SQUARED SPACING: 0.0625
Info: NONBONDED TABLE SIZE: 705 POINTS
TCL: Running for 1500000 steps
ETITLE: TS BOND ANGLE DIHED IMPRP ELECT VDW BOUNDARY MISC KINETIC TOTAL TEMP POTENTIAL TOTALAVG TEMPAVG PRESSURE GPRESSURE VOLUME PRESSAVG GPRESSAVG
ENERGY: 0 0.5512 2.3414 0.1407 0.0000 -10560.3251 1392.9806 0.0000 0.0000 1757.2597 -7407.0516 302.7883 -9164.3113 -7407.0516 302.7883 -418.0897 -342.5970 30349.8140 -418.0897 -342.5970
ENERGY: 300000 0.5937 0.2864 1.2122 0.0000 -10626.1925 1432.2964 0.0000 0.0000 1717.6938 -7474.1101 295.9708 -9191.8038 -7434.4796 299.4812 -50.9031 63.0739 30104.6567 146.3068 210.3764
ENERGY: 600000 0.3155 0.5443 0.3779 0.0000 -10697.0286 1493.5180 0.0000 0.0000 1720.4434 -7481.8295 296.4446 -9202.2729 -7414.8832 301.9732 137.9924 237.4260 30362.3971 225.7193 293.9843
ENERGY: 900000 1.0603 2.6169 0.7483 0.0000 -10643.3035 1441.1896 0.0000 0.0000 1746.2424 -7451.4460 300.8900 -9197.6884 -7423.2168 300.9789 360.1099 300.4598 29784.2063 28.6935 80.8632
ENERGY: 1200000 0.2940 1.4679 0.2821 0.0000 -10603.2698 1478.2566 0.0000 0.0000 1728.5337 -7394.4354 297.8386 -9122.9691 -7419.8095 300.5909 610.4400 652.8235 29734.0646 14.4639 68.1341
ENERGY: 1500000 1.0158 0.8477 1.4218 0.0000 -10607.7635 1435.1108 0.0000 0.0000 1699.9926 -7469.3747 292.9208 -9169.3673 -7427.6090 300.0877 -152.2887 -60.3041 30296.2675 16.3781 75.9237
TCL: Running FEP window  19: Lambda1 0.09999999999999969 Lambda2 0.049999999999999684 [dLambda -0.05 ]
TCL: Setting parameter firsttimestep to 0
TCL: Setting parameter alchLambda to 0.09999999999999969
Info: NONBONDED TABLE R-SQUARED SPACING: 0.0625
Info: NONBONDED TABLE SIZE: 705 POINTS
TCL: Setting parameter alchLambda2 to 0.049999999999999684
Info: NONBONDED TABLE R-SQUARED SPACING: 0.0625
Info: NONBONDED TABLE SIZE: 705 POINTS
TCL: Running for 1500000 steps
ETITLE: TS BOND ANGLE DIHED IMPRP ELECT VDW BOUNDARY MISC KINETIC TOTAL TEMP POTENTIAL TOTALAVG TEMPAVG PRESSURE GPRESSURE VOLUME PRESSAVG GPRESSAVG
ENERGY: 0 1.0158 0.8477 1.4218 0.0000 -10607.7632 1435.2153 0.0000 0.0000 1699.1187 -7470.1438 292.7702 -9169.2625 -7470.1438 292.7702 -145.3800 -61.4883 30296.2675 -145.3800 -61.4883
ENERGY: 300000 1.8034 0.6105 0.2150 0.0000 -10495.3443 1352.6911 0.0000 0.0000 1793.9980 -7346.0264 309.1186 -9140.0244 -7428.3707 301.8135 -190.6312 -209.6480 29646.7939 -70.3547 -26.2185
ENERGY: 600000 0.8599 0.4144 0.5933 0.0000 -10616.0850 1385.6890 0.0000 0.0000 1732.6534 -7495.8750 298.5485 -9228.5284 -7438.8559 300.3598 -580.7105 -459.9893 29976.1191 -72.8922 -9.9307
ENERGY: 900000 0.2006 2.3947 1.2005 0.0000 -10704.0129 1533.2850 0.0000 0.0000 1812.3220 -7354.6101 312.2759 -9166.9321 -7433.0206 300.9477 783.6653 791.1410 30176.1780 130.2488 187.1532
ENERGY: 1200000 0.6438 0.2025 0.4137 0.0000 -10637.3836 1514.0213 0.0000 0.0000 1717.3887 -7404.7136 295.9183 -9122.1024 -7438.4330 300.8810 797.2717 858.3864 29966.2911 181.3004 232.1620
ENERGY: 1500000 0.9564 1.0786 0.9062 0.0000 -10627.0306 1473.0175 0.0000 0.0000 1752.1529 -7398.9190 301.9084 -9151.0720 -7437.3976 300.6884 750.7930 755.6552 29549.1043 201.2301 248.3703
TCL: Running FEP window  20: Lambda1 0.049999999999999684 Lambda2 0.0    [dLambda -0.049999999999999684]
TCL: Setting parameter firsttimestep to 0
TCL: Setting parameter alchLambda to 0.049999999999999684
Info: NONBONDED TABLE R-SQUARED SPACING: 0.0625
Info: NONBONDED TABLE SIZE: 705 POINTS
TCL: Setting parameter alchLambda2 to 0.0
Info: NONBONDED TABLE R-SQUARED SPACING: 0.0625
Info: NONBONDED TABLE SIZE: 705 POINTS
TCL: Running for 1500000 steps
ETITLE: TS BOND ANGLE DIHED IMPRP ELECT VDW BOUNDARY MISC KINETIC TOTAL TEMP POTENTIAL TOTALAVG TEMPAVG PRESSURE GPRESSURE VOLUME PRESSAVG GPRESSAVG
ENERGY: 0 0.9564 1.0786 0.9062 0.0000 -10627.0318 1472.1561 0.0000 0.0000 1751.2761 -7400.6584 301.7573 -9151.9345 -7400.6584 301.7573 676.5122 752.5180 29549.1043 676.5122 752.5180
ENERGY: 300000 0.8933 1.3383 1.4263 0.0000 -10560.9707 1402.8192 0.0000 0.0000 1788.1492 -7366.3443 308.1108 -9154.4935 -7414.2511 300.2255 -112.0475 -19.0969 30108.7905 -41.8961 36.3172
ENERGY: 600000 0.2740 2.1174 1.5558 0.0000 -10520.4021 1399.2709 0.0000 0.0000 1741.8022 -7375.3818 300.1249 -9117.1841 -7403.8145 300.5237 -343.7428 -241.5649 30560.4332 -200.1505 -121.0762
ENERGY: 900000 0.3277 2.0408 0.8084 0.0000 -10480.8158 1393.4148 0.0000 0.0000 1823.2323 -7260.9919 314.1559 -9084.2242 -7401.5330 301.2614 88.0445 152.8437 29788.0539 -225.2197 -153.0243
ENERGY: 1200000 0.5920 0.6665 0.4146 0.0000 -10585.0149 1462.9333 0.0000 0.0000 1720.2366 -7400.1718 296.4090 -9120.4085 -7415.4488 299.6443 222.6659 343.8433 30223.5858 -97.2111 -21.7899
ENERGY: 1500000 0.0509 3.0131 2.1293 0.0000 -10689.9296 1474.2631 0.0000 0.0000 1710.4075 -7500.0656 294.7154 -9210.4731 -7428.4525 299.6178 158.7071 208.5424 30229.1830 -59.9564 10.2508
TCL: Exiting due to exit command.
