Info: SIMULATION PARAMETERS:
Info: TIMESTEP               2
Info: NUMBER OF STEPS        0
Info: STEPS PER CYCLE        10
Info: PERIODIC CELL BASIS 1  31.7224 0 0
Info: PERIODIC CELL BASIS 2  0 30.044 0
Info: PERIODIC CELL BASIS 3  0 0 31.8933
Info: PERIODIC CELL CENTER   0 0 0
Info: WRAPPING WATERS AROUND PERIODIC BOUNDARIES ON OUTPUT.
Info: WRAPPING ALL CLUSTERS AROUND PERIODIC BOUNDARIES ON OUTPUT.
Info: FIRST LDB TIMESTEP     50
Info: LAST LDB TIMESTEP     -1
Info: HOM BACKGROUND SCALING 1
Info: PME BACKGROUND SCALING 1
Info: MIN ATOMS PER PATCH    40
Info: EMPTY PATCH LOAD       40 ATOMS
Info: VELOCITY FILE          mobley_7009711_equil.vel
Info: CENTER OF MASS MOVING INITIALLY? NO
Info: DIELECTRIC             1
Info: EXCLUDE                SCALED ONE-FOUR
Info: 1-4 ELECTROSTATICS SCALED BY 0.833333
Info: MODIFIED 1-4 VDW PARAMETERS WILL BE USED
Info: DCD FILENAME           mobley_7009711_prod.dcd
Info: DCD FREQUENCY          100000
Info: DCD FIRST STEP         100000
Info: DCD FILE WILL CONTAIN UNIT CELL DATA
Info: XST FILENAME           mobley_7009711_prod.xst
Info: XST FREQUENCY          100000
Info: NO VELOCITY DCD OUTPUT
Info: NO FORCE DCD OUTPUT
Info: OUTPUT FILENAME        mobley_7009711_prod
Info: BINARY OUTPUT FILES WILL BE USED
Info: RESTART FILENAME       mobley_7009711_prod.restart
Info: RESTART FREQUENCY      100000
Info: BINARY RESTART FILES WILL BE USED
Info: CUTOFF                 9
Info: PAIRLIST DISTANCE      11
Info: PAIRLIST SHRINK RATE   0.01
Info: PAIRLIST GROW RATE     0.01
Info: PAIRLIST TRIGGER       0.3
Info: PAIRLISTS PER CYCLE    2
Info: PAIRLISTS ENABLED
Info: MARGIN                 2
Info: HYDROGEN GROUP CUTOFF  2.5
Info: PATCH DIMENSION        15.5
Info: ENERGY OUTPUT STEPS    100000
Info: ENERGY EVALUATION STEPS    100000
Info: OUTPUT ENERGY PRECISION 4
Info: CROSSTERM ENERGY INCLUDED IN DIHEDRAL
Info: TIMING OUTPUT STEPS    1000000
Info: PRESSURE OUTPUT STEPS  100000
Info: ALCHEMICAL FEP ON
Info: FEP CURRENT LAMBDA VALUE     1
Info: FEP COMPARISON LAMBDA VALUE  0.95
Info: FEP INTRA-ALCHEMICAL NON-BONDED INTERACTIONS WILL BE RETAINED
Info: FEP INTRA-ALCHEMICAL BONDED INTERACTIONS WILL BE RETAINED
Info: FEP VDW SHIFTING COEFFICIENT 5
Info: FEP ELEC. ACTIVE FOR ANNIHILATED PARTICLES BETWEEN LAMBDA = 0 AND LAMBDA = 0.5
Info: FEP ELEC. ACTIVE FOR EXNIHILATED PARTICLES BETWEEN LAMBDA = 0.5 AND LAMBDA = 1
Info: FEP VDW ACTIVE FOR ANNIHILATED PARTICLES BETWEEN LAMBDA = 0 AND LAMBDA = 1
Info: FEP VDW ACTIVE FOR EXNIHILATED PARTICLES BETWEEN LAMBDA = 0 AND LAMBDA = 1
Info: FEP BOND ACTIVE FOR ANNIHILATED PARTICLES BETWEEN LAMBDA = 1 AND LAMBDA = 1
Info: FEP BOND ACTIVE FOR EXNIHILATED PARTICLES BETWEEN LAMBDA = 0 AND LAMBDA = 0
Info: LANGEVIN DYNAMICS ACTIVE
Info: LANGEVIN TEMPERATURE   300
Info: LANGEVIN USING BBK INTEGRATOR
Info: LANGEVIN DAMPING COEFFICIENT IS 1 INVERSE PS
Info: LANGEVIN DYNAMICS APPLIED TO HYDROGENS
Info: LANGEVIN PISTON PRESSURE CONTROL ACTIVE
Info:        TARGET PRESSURE IS 1.01325 BAR
Info:     OSCILLATION PERIOD IS 50 FS
Info:             DECAY TIME IS 25 FS
Info:     PISTON TEMPERATURE IS 300 K
Info:       PRESSURE CONTROL IS GROUP-BASED
Info:    INITIAL STRAIN RATE IS -0.000120283 -0.000120283 -0.000120283
Info:       CELL FLUCTUATION IS ISOTROPIC
Info: PARTICLE MESH EWALD (PME) ACTIVE
Info: PME TOLERANCE               1e-06
Info: PME EWALD COEFFICIENT       0.348832
Info: PME INTERPOLATION ORDER     4
Info: PME GRID DIMENSIONS         32 32 32
Info: PME MAXIMUM GRID SPACING    1
Info: PME CALCULATION WILL BE PERFORMED ON GPU
Info: FULL ELECTROSTATIC EVALUATION FREQUENCY      2
Info: USING VERLET I (r-RESPA) MTS SCHEME.
Info: C1 SPLITTING OF LONG RANGE ELECTROSTATICS
Info: PLACING ATOMS IN PATCHES BY HYDROGEN GROUPS
Info: RIGID BONDS TO HYDROGEN : ALL
Info:         ERROR TOLERANCE : 1e-08
Info:          MAX ITERATIONS : 100
Info: RIGID WATER USING SETTLE ALGORITHM
Info: RANDOM NUMBER SEED     1743626983
Info: USE HYDROGEN BONDS?    NO
Info: Using AMBER format force field!
Info: AMBER PARM FILE        mobley_7009711.prmtop
Info: COORDINATE PDB         mobley_7009711.pdb
Info: Exclusions will be read from PARM file!
Info: SCNB (VDW SCALING)     2
Info: USING ARITHMETIC MEAN TO COMBINE L-J SIGMA PARAMETERS
Info: BINARY COORDINATES     mobley_7009711_equil.coor
Info: SUMMARY OF PARAMETERS:
Info: 8 BONDS
Info: 7 ANGLES
Info:   7 HARMONIC
Info:   0 COSINE-BASED
Info: 4 DIHEDRAL
Info: 0 IMPROPER
Info: 0 CROSSTERM
Info: 0 VDW
Info: 28 VDW_PAIRS
Info: 0 NBTHOLE_PAIRS
Info: To read alchdata from file: mobley_7009711.pdb
Info: To read alchflag data from column: 5
Info: STRUCTURE SUMMARY:
Info: 2920 ATOMS
Info: 2920 BONDS
Info: 31 ANGLES
Info: 44 DIHEDRALS
Info: 0 IMPROPERS
Info: 0 CROSSTERMS
Info: 2986 EXCLUSIONS
Info: 2911 RIGID BONDS
Info: ALCH: 0 ATOMS TO DISAPPEAR IN FINAL STATE
Info: ALCH: 19 ATOMS TO APPEAR IN FINAL STATE
Info: 5849 DEGREES OF FREEDOM
Info: 976 HYDROGEN GROUPS
Info: 4 ATOMS IN LARGEST HYDROGEN GROUP
Info: 976 MIGRATION GROUPS
Info: 4 ATOMS IN LARGEST MIGRATION GROUP
Info: TOTAL MASS = 17543.6 amu
Info: TOTAL CHARGE = 9.99719e-05 e
Info: MASS DENSITY = 0.95842 g/cm^3
Info: ATOM DENSITY = 0.0960639 atoms/A^3
Info: ADDED 0 IMPLICIT EXCLUSIONS
Info: NONBONDED TABLE R-SQUARED SPACING: 0.0625
Info: NONBONDED TABLE SIZE: 705 POINTS
Info: REMOVING COM VELOCITY 0.0020627 -0.0369084 -0.0549521
Info: Use 3D box decompostion in PME FFT.
Info: Updated CUDA force table with 4096 elements.
Info: Updated CUDA LJ table with 7 x 7 elements.
Info: Found 22 unique exclusion lists needing 60 bytes
TCL: Running for 1500000 steps
ETITLE: TS BOND ANGLE DIHED IMPRP ELECT VDW BOUNDARY MISC KINETIC TOTAL TEMP POTENTIAL TOTALAVG TEMPAVG PRESSURE GPRESSURE VOLUME PRESSAVG GPRESSAVG
ENERGY: 0 1.2716 4.8666 3.5690 0.0000 -10499.3844 1423.4223 0.0000 0.0000 1731.6481 -7334.6068 297.9672 -9066.2549 -7334.6068 297.9672 302.4116 388.4043 30396.4399 302.4116 388.4043
ENERGY: 300000 1.9505 8.7614 4.3345 0.0000 -10772.5161 1541.0882 0.0000 0.0000 1825.0437 -7391.3377 314.0379 -9216.3814 -7372.5972 302.8228 1027.9297 1078.7762 29562.9863 -163.7131 -124.5780
ENERGY: 600000 1.9681 4.8568 1.7410 0.0000 -10578.8125 1431.6345 0.0000 0.0000 1718.3549 -7420.2573 295.6798 -9138.6122 -7390.7112 301.2208 372.7645 429.8522 29538.6773 -39.7849 2.0621
ENERGY: 900000 2.4328 6.9690 4.0763 0.0000 -10548.6973 1406.8621 0.0000 0.0000 1744.8149 -7383.5421 300.2328 -9128.3570 -7408.3571 300.6041 107.6704 125.7087 30048.9590 27.0086 70.2830
ENERGY: 1200000 1.3809 6.0630 3.6379 0.0000 -10475.6117 1292.4691 0.0000 0.0000 1770.9266 -7401.1343 304.7259 -9172.0609 -7418.7630 299.6093 -1194.7263 -1193.1615 30560.1775 -67.9149 -24.1961
ENERGY: 1500000 3.1275 3.1685 2.9426 0.0000 -10457.0415 1309.5889 0.0000 0.0000 1754.6304 -7383.5836 301.9218 -9138.2140 -7422.4654 299.8778 -926.7919 -879.9528 30600.4831 -170.6800 -124.0780
TCL: Running FEP window   2: Lambda1 0.95   Lambda2 0.8999999999999999 [dLambda -0.050000000000000044]
TCL: Setting parameter firsttimestep to 0
TCL: Setting parameter alchLambda to 0.95
Info: NONBONDED TABLE R-SQUARED SPACING: 0.0625
Info: NONBONDED TABLE SIZE: 705 POINTS
TCL: Setting parameter alchLambda2 to 0.8999999999999999
Info: NONBONDED TABLE R-SQUARED SPACING: 0.0625
Info: NONBONDED TABLE SIZE: 705 POINTS
TCL: Running for 1500000 steps
ETITLE: TS BOND ANGLE DIHED IMPRP ELECT VDW BOUNDARY MISC KINETIC TOTAL TEMP POTENTIAL TOTALAVG TEMPAVG PRESSURE GPRESSURE VOLUME PRESSAVG GPRESSAVG
ENERGY: 0 3.1275 3.1685 2.9426 0.0000 -10455.8946 1310.1050 0.0000 0.0000 1753.7852 -7382.7657 301.7763 -9136.5510 -7382.7657 301.7763 -981.5683 -887.2378 30600.4831 -981.5683 -887.2378
ENERGY: 300000 4.7943 6.4200 7.6105 0.0000 -10586.3424 1440.7246 0.0000 0.0000 1731.3015 -7395.4915 297.9075 -9126.7930 -7415.5476 296.2825 107.7823 164.0249 29984.6905 -312.8730 -262.9374
ENERGY: 600000 1.8879 4.0469 3.7598 0.0000 -10602.7357 1431.0339 0.0000 0.0000 1783.9506 -7378.0566 306.9669 -9162.0072 -7419.7264 298.3737 -401.1208 -276.4477 30673.9145 -300.3008 -240.9041
ENERGY: 900000 1.0361 4.3806 1.5700 0.0000 -10543.1756 1387.1750 0.0000 0.0000 1759.6811 -7389.3328 302.7908 -9149.0139 -7413.2729 299.4269 -61.4889 12.7810 29863.4987 -248.8828 -180.3945
ENERGY: 1200000 1.5531 5.3835 1.8006 0.0000 -10243.7142 1202.3806 0.0000 0.0000 1744.6175 -7287.9788 300.1988 -9032.5963 -7407.9797 300.4183 -1511.2344 -1483.5202 30555.9962 -273.3206 -209.1885
ENERGY: 1500000 2.6725 7.2810 3.0903 0.0000 -10601.3695 1401.8872 0.0000 0.0000 1696.5971 -7489.8415 291.9359 -9186.4385 -7412.8023 299.9869 -623.4800 -505.8531 30426.1938 -261.0163 -193.3371
TCL: Running FEP window   3: Lambda1 0.8999999999999999 Lambda2 0.8499999999999999 [dLambda -0.050000000000000044]
TCL: Setting parameter firsttimestep to 0
TCL: Setting parameter alchLambda to 0.8999999999999999
Info: NONBONDED TABLE R-SQUARED SPACING: 0.0625
Info: NONBONDED TABLE SIZE: 705 POINTS
TCL: Setting parameter alchLambda2 to 0.8499999999999999
Info: NONBONDED TABLE R-SQUARED SPACING: 0.0625
Info: NONBONDED TABLE SIZE: 705 POINTS
TCL: Running for 1500000 steps
ETITLE: TS BOND ANGLE DIHED IMPRP ELECT VDW BOUNDARY MISC KINETIC TOTAL TEMP POTENTIAL TOTALAVG TEMPAVG PRESSURE GPRESSURE VOLUME PRESSAVG GPRESSAVG
ENERGY: 0 2.6725 7.2810 3.0903 0.0000 -10599.0168 1401.2294 0.0000 0.0000 1695.7296 -7489.0140 291.7866 -9184.7436 -7489.0140 291.7866 -608.4732 -519.1394 30426.1938 -608.4732 -519.1394
ENERGY: 300000 3.7397 5.2954 2.3308 0.0000 -10767.4261 1466.4380 0.0000 0.0000 1710.4262 -7579.1961 294.3155 -9289.6223 -7468.3547 296.6925 -47.3328 -7.8127 30028.6922 -284.7266 -191.6548
ENERGY: 600000 3.9094 6.4833 2.2871 0.0000 -10483.1550 1329.3220 0.0000 0.0000 1733.1895 -7407.9636 298.2324 -9141.1531 -7439.8284 299.1962 -949.8784 -886.8869 30377.4213 -258.4319 -178.9770
ENERGY: 900000 0.8673 5.8462 2.2088 0.0000 -10648.0760 1454.6570 0.0000 0.0000 1735.6904 -7448.8064 298.6627 -9184.4967 -7444.1126 299.0019 591.6432 594.6703 29628.5760 -166.9743 -94.6506
ENERGY: 1200000 5.0934 9.3455 2.5709 0.0000 -10507.5371 1344.0293 0.0000 0.0000 1779.8132 -7366.6848 306.2550 -9146.4980 -7430.1937 299.8990 -678.0542 -657.2645 30195.5783 -127.3236 -51.7814
ENERGY: 1500000 2.9390 11.0561 5.3115 0.0000 -10597.7329 1393.3457 0.0000 0.0000 1685.2822 -7499.7985 289.9889 -9185.0806 -7433.5055 299.7429 -292.7324 -231.1118 29771.8671 -114.5057 -45.6014
TCL: Running FEP window   4: Lambda1 0.8499999999999999 Lambda2 0.7999999999999998 [dLambda -0.050000000000000044]
TCL: Setting parameter firsttimestep to 0
TCL: Setting parameter alchLambda to 0.8499999999999999
Info: NONBONDED TABLE R-SQUARED SPACING: 0.0625
Info: NONBONDED TABLE SIZE: 705 POINTS
TCL: Setting parameter alchLambda2 to 0.7999999999999998
Info: NONBONDED TABLE R-SQUARED SPACING: 0.0625
Info: NONBONDED TABLE SIZE: 705 POINTS
TCL: Running for 1500000 steps
ETITLE: TS BOND ANGLE DIHED IMPRP ELECT VDW BOUNDARY MISC KINETIC TOTAL TEMP POTENTIAL TOTALAVG TEMPAVG PRESSURE GPRESSURE VOLUME PRESSAVG GPRESSAVG
ENERGY: 0 2.9390 11.0561 5.3115 0.0000 -10595.8884 1392.3269 0.0000 0.0000 1684.4259 -7499.8290 289.8416 -9184.2549 -7499.8290 289.8416 -352.3442 -253.0670 29771.8671 -352.3442 -253.0670
ENERGY: 300000 2.9121 6.2546 2.8186 0.0000 -10513.5311 1360.9962 0.0000 0.0000 1752.7343 -7387.8154 301.5955 -9140.5496 -7435.9853 297.8090 -671.8709 -640.7903 30474.9172 -443.9590 -370.7613
ENERGY: 600000 2.6925 6.5466 2.4202 0.0000 -10642.6144 1503.7698 0.0000 0.0000 1721.8568 -7405.3286 296.2824 -9127.1854 -7408.5541 298.7974 545.0578 582.3850 30164.7578 -153.5734 -90.6425
ENERGY: 900000 2.9191 5.8137 3.8500 0.0000 -10747.5048 1507.8898 0.0000 0.0000 1748.8307 -7478.2015 300.9238 -9227.0322 -7424.0062 297.0539 683.8417 751.0469 29712.1748 -109.9791 -51.8500
ENERGY: 1200000 7.2203 7.3355 7.0970 0.0000 -10572.6359 1396.3891 0.0000 0.0000 1688.3008 -7466.2932 290.5083 -9154.5940 -7430.5565 297.3238 -427.0914 -369.3513 30067.9472 -105.1208 -55.6072
ENERGY: 1500000 3.5879 6.9371 1.3362 0.0000 -10533.9491 1353.8203 0.0000 0.0000 1757.9604 -7410.3073 302.4948 -9168.2677 -7439.2213 296.9409 -857.5752 -771.8131 30330.2446 -209.5881 -158.9088
TCL: Running FEP window   5: Lambda1 0.7999999999999998 Lambda2 0.7499999999999998 [dLambda -0.050000000000000044]
TCL: Setting parameter firsttimestep to 0
TCL: Setting parameter alchLambda to 0.7999999999999998
Info: NONBONDED TABLE R-SQUARED SPACING: 0.0625
Info: NONBONDED TABLE SIZE: 705 POINTS
TCL: Setting parameter alchLambda2 to 0.7499999999999998
Info: NONBONDED TABLE R-SQUARED SPACING: 0.0625
Info: NONBONDED TABLE SIZE: 705 POINTS
TCL: Running for 1500000 steps
ETITLE: TS BOND ANGLE DIHED IMPRP ELECT VDW BOUNDARY MISC KINETIC TOTAL TEMP POTENTIAL TOTALAVG TEMPAVG PRESSURE GPRESSURE VOLUME PRESSAVG GPRESSAVG
ENERGY: 0 3.5879 6.9371 1.3362 0.0000 -10533.2903 1353.9872 0.0000 0.0000 1757.1188 -7410.3232 302.3499 -9167.4420 -7410.3232 302.3499 -866.6022 -782.1059 30330.2446 -866.6022 -782.1059
ENERGY: 300000 1.6866 6.6989 4.0065 0.0000 -10619.1043 1406.0947 0.0000 0.0000 1718.0401 -7482.5775 295.6256 -9200.6176 -7387.5359 300.1293 -360.2404 -307.2277 30202.4502 -537.1435 -466.1173
ENERGY: 600000 3.1826 8.5837 1.0949 0.0000 -10666.1544 1455.2638 0.0000 0.0000 1742.1059 -7455.9235 299.7667 -9198.0294 -7422.5407 299.3660 52.3565 78.1352 30211.8113 -236.1416 -170.9481
ENERGY: 900000 4.3110 9.4094 2.5855 0.0000 -10618.6192 1484.8496 0.0000 0.0000 1761.1325 -7356.3313 303.0406 -9117.4638 -7422.2082 298.8134 641.5472 696.0727 29966.5310 -108.3644 -36.3981
ENERGY: 1200000 3.8936 6.0166 1.8427 0.0000 -10621.5125 1446.7635 0.0000 0.0000 1725.3615 -7437.6346 296.8854 -9162.9961 -7423.1525 299.6377 194.6759 221.4829 30006.9472 -81.3148 -18.5729
ENERGY: 1500000 5.6861 6.1992 1.9190 0.0000 -10667.4134 1471.4273 0.0000 0.0000 1767.7282 -7414.4536 304.1755 -9182.1818 -7416.3002 300.4444 -166.5329 -45.2977 30414.3977 -88.4544 -20.8569
TCL: Running FEP window   6: Lambda1 0.7499999999999998 Lambda2 0.6999999999999997 [dLambda -0.050000000000000044]
TCL: Setting parameter firsttimestep to 0
TCL: Setting parameter alchLambda to 0.7499999999999998
Info: NONBONDED TABLE R-SQUARED SPACING: 0.0625
Info: NONBONDED TABLE SIZE: 705 POINTS
TCL: Setting parameter alchLambda2 to 0.6999999999999997
Info: NONBONDED TABLE R-SQUARED SPACING: 0.0625
Info: NONBONDED TABLE SIZE: 705 POINTS
TCL: Running for 1500000 steps
ETITLE: TS BOND ANGLE DIHED IMPRP ELECT VDW BOUNDARY MISC KINETIC TOTAL TEMP POTENTIAL TOTALAVG TEMPAVG PRESSURE GPRESSURE VOLUME PRESSAVG GPRESSAVG
ENERGY: 0 5.6861 6.1992 1.9190 0.0000 -10665.1082 1471.1217 0.0000 0.0000 1766.8484 -7413.3337 304.0241 -9180.1821 -7413.3337 304.0241 -146.1966 -52.1462 30414.3977 -146.1966 -52.1462
ENERGY: 300000 1.5649 4.4370 1.4464 0.0000 -10737.2121 1505.4422 0.0000 0.0000 1820.6368 -7403.6848 313.2796 -9224.3216 -7422.7951 304.8271 589.5870 707.6586 29789.8434 125.2484 226.6624
ENERGY: 600000 1.5556 4.1578 6.2283 0.0000 -10679.1608 1487.2965 0.0000 0.0000 1714.9164 -7465.0062 295.0881 -9179.9226 -7418.2068 303.7638 726.5610 753.9972 29450.7018 227.4735 309.2700
ENERGY: 900000 3.6247 6.0187 3.4995 0.0000 -10627.0783 1432.4681 0.0000 0.0000 1777.9513 -7403.5160 305.9346 -9181.4673 -7401.2315 303.3571 88.4566 180.1941 29808.8493 149.5655 240.0399
ENERGY: 1200000 2.0693 9.9894 3.8179 0.0000 -10697.6872 1497.6321 0.0000 0.0000 1705.2321 -7478.9463 293.4217 -9184.1784 -7402.0436 301.2096 426.0990 505.5278 29911.4391 82.7937 167.0040
ENERGY: 1500000 2.8861 9.5711 2.7098 0.0000 -10588.0621 1488.5248 0.0000 0.0000 1801.9383 -7282.4320 310.0621 -9084.3703 -7382.8841 302.2210 616.7518 631.9673 30435.4714 56.6132 131.4997
TCL: Running FEP window   7: Lambda1 0.6999999999999997 Lambda2 0.6499999999999997 [dLambda -0.050000000000000044]
TCL: Setting parameter firsttimestep to 0
TCL: Setting parameter alchLambda to 0.6999999999999997
Info: NONBONDED TABLE R-SQUARED SPACING: 0.0625
Info: NONBONDED TABLE SIZE: 705 POINTS
TCL: Setting parameter alchLambda2 to 0.6499999999999997
Info: NONBONDED TABLE R-SQUARED SPACING: 0.0625
Info: NONBONDED TABLE SIZE: 705 POINTS
TCL: Running for 1500000 steps
ETITLE: TS BOND ANGLE DIHED IMPRP ELECT VDW BOUNDARY MISC KINETIC TOTAL TEMP POTENTIAL TOTALAVG TEMPAVG PRESSURE GPRESSURE VOLUME PRESSAVG GPRESSAVG
ENERGY: 0 2.8861 9.5711 2.7098 0.0000 -10585.5051 1487.1752 0.0000 0.0000 1801.0839 -7282.0791 309.9151 -9083.1630 -7282.0791 309.9151 535.1485 619.9351 30435.4714 535.1485 619.9351
ENERGY: 300000 3.3700 4.9204 3.5604 0.0000 -10616.5861 1428.7701 0.0000 0.0000 1669.9620 -7506.0031 287.3527 -9175.9651 -7411.0263 295.0260 -100.3647 28.0423 29955.7914 -90.1813 -17.3335
ENERGY: 600000 3.9496 2.5677 2.8383 0.0000 -10585.3724 1426.9832 0.0000 0.0000 1714.4646 -7434.5689 295.0104 -9149.0334 -7408.7563 296.5122 -279.1124 -161.8607 30400.9867 -139.8643 -73.5648
ENERGY: 900000 1.7664 7.6858 1.6092 0.0000 -10532.3616 1413.7666 0.0000 0.0000 1723.1496 -7384.3841 296.5048 -9107.5337 -7397.2761 298.0818 58.9682 125.6688 30212.4999 -137.5088 -68.4646
ENERGY: 1200000 1.9921 3.4092 2.7739 0.0000 -10492.4744 1439.5663 0.0000 0.0000 1793.2465 -7251.4864 308.5665 -9044.7329 -7388.8518 299.6225 394.5843 477.4857 30164.0656 30.1251 109.3216
ENERGY: 1500000 6.5043 4.0201 1.6073 0.0000 -10693.6233 1465.1074 0.0000 0.0000 1725.8634 -7490.5208 296.9718 -9216.3842 -7399.8984 299.1903 57.6583 118.7320 30451.4979 -24.7680 53.8852
TCL: Running FEP window   8: Lambda1 0.6499999999999997 Lambda2 0.5999999999999996 [dLambda -0.050000000000000044]
TCL: Setting parameter firsttimestep to 0
TCL: Setting parameter alchLambda to 0.6499999999999997
Info: NONBONDED TABLE R-SQUARED SPACING: 0.0625
Info: NONBONDED TABLE SIZE: 705 POINTS
TCL: Setting parameter alchLambda2 to 0.5999999999999996
Info: NONBONDED TABLE R-SQUARED SPACING: 0.0625
Info: NONBONDED TABLE SIZE: 705 POINTS
TCL: Running for 1500000 steps
ETITLE: TS BOND ANGLE DIHED IMPRP ELECT VDW BOUNDARY MISC KINETIC TOTAL TEMP POTENTIAL TOTALAVG TEMPAVG PRESSURE GPRESSURE VOLUME PRESSAVG GPRESSAVG
ENERGY: 0 6.5043 4.0201 1.6073 0.0000 -10692.7484 1465.1947 0.0000 0.0000 1725.0103 -7490.4118 296.8250 -9215.4221 -7490.4118 296.8250 27.8396 108.8446 30451.4979 27.8396 108.8446
ENERGY: 300000 2.5864 3.8467 2.4942 0.0000 -10450.9968 1325.3299 0.0000 0.0000 1770.0231 -7346.7165 304.5704 -9116.7395 -7401.5737 305.5678 -418.0312 -305.2655 29469.6593 41.7527 137.9427
ENERGY: 600000 2.3129 4.4868 2.4458 0.0000 -10583.5331 1500.9158 0.0000 0.0000 1778.9254 -7294.4465 306.1022 -9073.3719 -7385.5169 305.1341 1013.5219 1080.6806 29699.1524 113.1995 193.4651
ENERGY: 900000 2.5764 5.2553 1.6701 0.0000 -10575.9158 1421.2057 0.0000 0.0000 1772.8591 -7372.3492 305.0584 -9145.2083 -7385.2444 302.8463 80.4364 123.1225 30298.5563 25.1268 92.8159
ENERGY: 1200000 2.9266 4.0094 1.5869 0.0000 -10683.2562 1437.5899 0.0000 0.0000 1739.8989 -7497.2445 299.3869 -9237.1434 -7394.5352 303.1078 105.6492 149.5004 29847.7397 50.9638 115.5937
ENERGY: 1500000 2.2640 10.7775 2.5987 0.0000 -10635.2278 1506.4946 0.0000 0.0000 1742.1257 -7370.9674 299.7701 -9113.0931 -7395.5267 301.9410 759.1624 780.6588 30120.3274 26.6988 91.2474
TCL: Running FEP window   9: Lambda1 0.5999999999999996 Lambda2 0.5499999999999996 [dLambda -0.050000000000000044]
TCL: Setting parameter firsttimestep to 0
TCL: Setting parameter alchLambda to 0.5999999999999996
Info: NONBONDED TABLE R-SQUARED SPACING: 0.0625
Info: NONBONDED TABLE SIZE: 705 POINTS
TCL: Setting parameter alchLambda2 to 0.5499999999999996
Info: NONBONDED TABLE R-SQUARED SPACING: 0.0625
Info: NONBONDED TABLE SIZE: 705 POINTS
TCL: Running for 1500000 steps
ETITLE: TS BOND ANGLE DIHED IMPRP ELECT VDW BOUNDARY MISC KINETIC TOTAL TEMP POTENTIAL TOTALAVG TEMPAVG PRESSURE GPRESSURE VOLUME PRESSAVG GPRESSAVG
ENERGY: 0 2.2640 10.7775 2.5987 0.0000 -10633.8954 1506.7625 0.0000 0.0000 1741.2295 -7370.2632 299.6158 -9111.4926 -7370.2632 299.6158 700.0463 776.6086 30120.3274 700.0463 776.6086
ENERGY: 300000 2.3271 5.4347 1.4458 0.0000 -10691.5153 1518.8567 0.0000 0.0000 1757.8795 -7405.5715 302.4808 -9163.4510 -7401.7559 303.7578 519.0260 604.1258 30019.5534 391.6645 450.7188
ENERGY: 600000 3.5912 5.9534 2.5419 0.0000 -10673.6436 1461.4739 0.0000 0.0000 1706.8847 -7493.1985 293.7061 -9200.0832 -7404.6346 301.9359 102.6284 274.9077 30031.5172 226.4535 304.0938
ENERGY: 900000 3.7647 3.5042 2.7946 0.0000 -10428.1481 1290.0293 0.0000 0.0000 1805.7056 -7322.3497 310.7103 -9128.0553 -7386.2509 302.7447 -1023.6352 -998.0843 30160.2588 30.2324 94.7917
ENERGY: 1200000 2.9318 8.5848 3.9286 0.0000 -10681.5909 1499.6001 0.0000 0.0000 1746.0840 -7420.4615 300.4512 -9166.5455 -7397.8344 302.2139 846.5436 905.5854 29715.5224 128.1327 181.3461
ENERGY: 1500000 2.6903 7.2527 5.3499 0.0000 -10591.2636 1413.1756 0.0000 0.0000 1786.0785 -7376.7166 307.3331 -9162.7951 -7398.5019 302.3174 89.3572 118.0106 29749.0883 91.8365 144.6449
TCL: Running FEP window  10: Lambda1 0.5499999999999996 Lambda2 0.4999999999999996 [dLambda -0.04999999999999999]
TCL: Setting parameter firsttimestep to 0
TCL: Setting parameter alchLambda to 0.5499999999999996
Info: NONBONDED TABLE R-SQUARED SPACING: 0.0625
Info: NONBONDED TABLE SIZE: 705 POINTS
TCL: Setting parameter alchLambda2 to 0.4999999999999996
Info: NONBONDED TABLE R-SQUARED SPACING: 0.0625
Info: NONBONDED TABLE SIZE: 705 POINTS
TCL: Running for 1500000 steps
ETITLE: TS BOND ANGLE DIHED IMPRP ELECT VDW BOUNDARY MISC KINETIC TOTAL TEMP POTENTIAL TOTALAVG TEMPAVG PRESSURE GPRESSURE VOLUME PRESSAVG GPRESSAVG
ENERGY: 0 2.6904 7.2527 5.3499 0.0000 -10590.5523 1413.3694 0.0000 0.0000 1785.2052 -7376.6847 307.1828 -9161.8900 -7376.6847 307.1828 29.1397 110.5754 29749.0883 29.1397 110.5754
ENERGY: 300000 2.3299 6.2420 2.2307 0.0000 -10620.2720 1428.7178 0.0000 0.0000 1721.5709 -7459.1806 296.2332 -9180.7516 -7385.9407 299.4501 47.6142 91.1311 30184.3290 -225.6309 -165.1935
ENERGY: 600000 1.2384 5.5726 2.5969 0.0000 -10641.0166 1495.9338 0.0000 0.0000 1780.8350 -7354.8399 306.4308 -9135.6748 -7388.9903 300.5713 579.2355 700.8181 30002.2345 -254.7396 -178.4399
ENERGY: 900000 2.5128 4.4400 2.1725 0.0000 -10480.7519 1377.7372 0.0000 0.0000 1720.1044 -7373.7851 295.9808 -9093.8895 -7392.3772 299.7125 -356.8573 -301.8074 30362.2187 -251.9583 -187.4112
ENERGY: 1200000 2.1901 4.0900 2.3972 0.0000 -10494.1737 1329.8841 0.0000 0.0000 1779.9327 -7375.6796 306.2756 -9155.6123 -7393.8761 300.9360 -489.1647 -422.9656 29973.9316 -252.7539 -190.3468
ENERGY: 1500000 3.6933 6.2797 5.3542 0.0000 -10586.8029 1475.7447 0.0000 0.0000 1707.1921 -7388.5390 293.7590 -9095.7311 -7406.9772 299.8707 561.6690 597.4270 29808.5978 -178.9246 -118.3012
TCL: Running FEP window  11: Lambda1 0.4999999999999996 Lambda2 0.4499999999999996 [dLambda -0.04999999999999999]
TCL: Setting parameter firsttimestep to 0
TCL: Setting parameter alchLambda to 0.4999999999999996
Info: NONBONDED TABLE R-SQUARED SPACING: 0.0625
Info: NONBONDED TABLE SIZE: 705 POINTS
TCL: Setting parameter alchLambda2 to 0.4499999999999996
Info: NONBONDED TABLE R-SQUARED SPACING: 0.0625
Info: NONBONDED TABLE SIZE: 705 POINTS
TCL: Running for 1500000 steps
ETITLE: TS BOND ANGLE DIHED IMPRP ELECT VDW BOUNDARY MISC KINETIC TOTAL TEMP POTENTIAL TOTALAVG TEMPAVG PRESSURE GPRESSURE VOLUME PRESSAVG GPRESSAVG
ENERGY: 0 3.6933 6.2796 5.3542 0.0000 -10586.2744 1475.8837 0.0000 0.0000 1706.3151 -7388.7485 293.6081 -9095.0636 -7388.7485 293.6081 522.1806 595.2072 29808.5978 522.1806 595.2072
ENERGY: 300000 3.2232 8.0961 4.4292 0.0000 -10422.8165 1292.6288 0.0000 0.0000 1778.7045 -7335.7347 306.0642 -9114.4392 -7390.3718 302.7844 -962.4772 -965.7869 30262.7642 -192.3568 -149.0289
ENERGY: 600000 2.5349 5.3708 4.1971 0.0000 -10585.6935 1474.1726 0.0000 0.0000 1782.1219 -7317.2961 306.6523 -9099.4181 -7379.9206 301.3660 530.3403 607.9622 30243.8679 -103.6648 -55.4278
ENERGY: 900000 3.6629 4.7843 3.5119 0.0000 -10527.1747 1361.6581 0.0000 0.0000 1764.7457 -7388.8117 303.6623 -9153.5574 -7381.1182 302.3612 -609.4830 -521.6247 30196.8754 -61.7039 -13.1805
ENERGY: 1200000 1.8069 5.7871 2.2961 0.0000 -10555.5266 1434.7719 0.0000 0.0000 1776.0210 -7334.8437 305.6025 -9110.8647 -7379.2617 302.2444 327.7592 354.4916 30008.6705 -67.7744 -15.5764
ENERGY: 1500000 1.6096 5.1378 1.8116 0.0000 -10669.0999 1452.9781 0.0000 0.0000 1810.6233 -7396.9396 311.5565 -9207.5628 -7380.9620 302.4151 306.2561 321.4035 29574.0471 -83.1531 -30.7594
TCL: Running FEP window  12: Lambda1 0.4499999999999996 Lambda2 0.39999999999999963 [dLambda -0.04999999999999999]
TCL: Setting parameter firsttimestep to 0
TCL: Setting parameter alchLambda to 0.4499999999999996
Info: NONBONDED TABLE R-SQUARED SPACING: 0.0625
Info: NONBONDED TABLE SIZE: 705 POINTS
TCL: Setting parameter alchLambda2 to 0.39999999999999963
Info: NONBONDED TABLE R-SQUARED SPACING: 0.0625
Info: NONBONDED TABLE SIZE: 705 POINTS
TCL: Running for 1500000 steps
ETITLE: TS BOND ANGLE DIHED IMPRP ELECT VDW BOUNDARY MISC KINETIC TOTAL TEMP POTENTIAL TOTALAVG TEMPAVG PRESSURE GPRESSURE VOLUME PRESSAVG GPRESSAVG
ENERGY: 0 1.6096 5.1378 1.8116 0.0000 -10669.1011 1452.6891 0.0000 0.0000 1809.7211 -7398.1319 311.4013 -9207.8530 -7398.1319 311.4013 238.3227 311.7224 29574.0471 238.3227 311.7224
ENERGY: 300000 3.2911 6.0212 1.7057 0.0000 -10591.3805 1448.2904 0.0000 0.0000 1754.3343 -7377.7379 301.8708 -9132.0721 -7394.9897 302.1771 202.0498 289.7152 29985.2031 40.2369 130.3366
ENERGY: 600000 5.1056 8.4792 4.0507 0.0000 -10408.7033 1299.0704 0.0000 0.0000 1773.1254 -7318.8720 305.1042 -9091.9974 -7395.3590 301.6777 -1118.1940 -999.5789 30238.7790 -325.1161 -236.5454
ENERGY: 900000 3.1036 3.7064 4.4938 0.0000 -10681.7799 1427.1632 0.0000 0.0000 1772.5409 -7470.7721 305.0036 -9243.3130 -7415.4337 301.4383 -153.5800 -114.2380 29735.7963 -237.1297 -158.5630
ENERGY: 1200000 5.0839 5.6138 3.4442 0.0000 -10522.1852 1440.7607 0.0000 0.0000 1710.8217 -7356.4608 294.3835 -9067.2825 -7419.3665 299.8342 161.6557 288.0448 29879.1884 -82.7191 -3.2827
ENERGY: 1500000 2.4433 8.5275 1.9298 0.0000 -10586.3257 1427.9201 0.0000 0.0000 1730.6725 -7414.8324 297.7993 -9145.5050 -7420.4012 300.0545 -115.7367 -92.4811 30223.6808 -44.3343 33.7353
TCL: Running FEP window  13: Lambda1 0.39999999999999963 Lambda2 0.34999999999999964 [dLambda -0.04999999999999999]
TCL: Setting parameter firsttimestep to 0
TCL: Setting parameter alchLambda to 0.39999999999999963
Info: NONBONDED TABLE R-SQUARED SPACING: 0.0625
Info: NONBONDED TABLE SIZE: 705 POINTS
TCL: Setting parameter alchLambda2 to 0.34999999999999964
Info: NONBONDED TABLE R-SQUARED SPACING: 0.0625
Info: NONBONDED TABLE SIZE: 705 POINTS
TCL: Running for 1500000 steps
ETITLE: TS BOND ANGLE DIHED IMPRP ELECT VDW BOUNDARY MISC KINETIC TOTAL TEMP POTENTIAL TOTALAVG TEMPAVG PRESSURE GPRESSURE VOLUME PRESSAVG GPRESSAVG
ENERGY: 0 2.4433 8.5275 1.9298 0.0000 -10586.3270 1428.5141 0.0000 0.0000 1729.8331 -7415.0791 297.6549 -9144.9122 -7415.0791 297.6549 -171.4020 -93.0212 30223.6808 -171.4020 -93.0212
ENERGY: 300000 4.1176 5.7353 2.9778 0.0000 -10561.5533 1400.6572 0.0000 0.0000 1745.9460 -7402.1193 300.4274 -9148.0653 -7404.7744 297.9309 -191.9894 -136.7888 29792.4365 -104.0895 -37.0941
ENERGY: 600000 4.7520 7.7263 1.2357 0.0000 -10539.2258 1379.0424 0.0000 0.0000 1781.1390 -7365.3304 306.4831 -9146.4694 -7402.5593 299.9540 -627.7055 -580.9728 30407.1369 -267.8457 -212.3085
ENERGY: 900000 1.8013 10.0737 3.3710 0.0000 -10482.3869 1367.0644 0.0000 0.0000 1732.1799 -7367.8966 298.0587 -9100.0765 -7404.9999 299.0581 -374.3638 -302.0183 29941.1145 -268.9846 -213.6516
ENERGY: 1200000 2.8632 4.6919 3.8338 0.0000 -10667.0702 1446.7826 0.0000 0.0000 1737.0320 -7471.8666 298.8936 -9208.8986 -7399.5573 300.5969 82.9243 145.5933 29708.3454 -129.2461 -68.7219
ENERGY: 1500000 4.1739 6.6552 4.1714 0.0000 -10531.2973 1354.0352 0.0000 0.0000 1706.5264 -7455.7352 293.6444 -9162.2616 -7403.6267 300.2193 -948.3675 -862.6592 30125.4770 -169.3561 -106.7560
TCL: Running FEP window  14: Lambda1 0.34999999999999964 Lambda2 0.29999999999999966 [dLambda -0.04999999999999999]
TCL: Setting parameter firsttimestep to 0
TCL: Setting parameter alchLambda to 0.34999999999999964
Info: NONBONDED TABLE R-SQUARED SPACING: 0.0625
Info: NONBONDED TABLE SIZE: 705 POINTS
TCL: Setting parameter alchLambda2 to 0.29999999999999966
Info: NONBONDED TABLE R-SQUARED SPACING: 0.0625
Info: NONBONDED TABLE SIZE: 705 POINTS
TCL: Running for 1500000 steps
ETITLE: TS BOND ANGLE DIHED IMPRP ELECT VDW BOUNDARY MISC KINETIC TOTAL TEMP POTENTIAL TOTALAVG TEMPAVG PRESSURE GPRESSURE VOLUME PRESSAVG GPRESSAVG
ENERGY: 0 4.1739 6.6552 4.1714 0.0000 -10531.2961 1354.2408 0.0000 0.0000 1705.6783 -7456.3765 293.4985 -9162.0549 -7456.3765 293.4985 -954.7505 -864.7803 30125.4770 -954.7505 -864.7803
ENERGY: 300000 0.7877 8.9733 2.3002 0.0000 -10479.2954 1359.3997 0.0000 0.0000 1684.4276 -7423.4068 289.8419 -9107.8345 -7440.0164 294.7732 -379.2559 -400.8256 30245.5505 -564.4071 -539.7478
ENERGY: 600000 1.0946 7.8956 6.8033 0.0000 -10620.6769 1441.4923 0.0000 0.0000 1778.9651 -7384.4261 306.1091 -9163.3912 -7423.9047 298.1042 115.5677 221.7445 30017.5341 -396.8914 -346.1157
ENERGY: 900000 1.8582 5.7028 2.5849 0.0000 -10550.4466 1380.6438 0.0000 0.0000 1767.7125 -7391.9444 304.1728 -9159.6569 -7423.3437 297.9097 -384.8380 -327.7392 29968.7775 -271.9290 -223.9178
ENERGY: 1200000 2.7077 6.0599 1.2453 0.0000 -10786.4300 1548.0719 0.0000 0.0000 1744.1798 -7484.1655 300.1235 -9228.3453 -7425.6019 298.5796 947.0627 1018.8002 29215.0936 -156.3622 -105.8271
ENERGY: 1500000 2.8257 5.2161 4.6943 0.0000 -10689.2633 1495.6739 0.0000 0.0000 1778.5035 -7402.3498 306.0296 -9180.8533 -7424.5536 298.5460 644.2645 679.9148 29936.1572 -125.3458 -72.2093
TCL: Running FEP window  15: Lambda1 0.29999999999999966 Lambda2 0.24999999999999967 [dLambda -0.04999999999999999]
TCL: Setting parameter firsttimestep to 0
TCL: Setting parameter alchLambda to 0.29999999999999966
Info: NONBONDED TABLE R-SQUARED SPACING: 0.0625
Info: NONBONDED TABLE SIZE: 705 POINTS
TCL: Setting parameter alchLambda2 to 0.24999999999999967
Info: NONBONDED TABLE R-SQUARED SPACING: 0.0625
Info: NONBONDED TABLE SIZE: 705 POINTS
TCL: Running for 1500000 steps
ETITLE: TS BOND ANGLE DIHED IMPRP ELECT VDW BOUNDARY MISC KINETIC TOTAL TEMP POTENTIAL TOTALAVG TEMPAVG PRESSURE GPRESSURE VOLUME PRESSAVG GPRESSAVG
ENERGY: 0 2.8257 5.2161 4.6943 0.0000 -10689.2635 1495.5738 0.0000 0.0000 1777.6379 -7403.3157 305.8807 -9180.9536 -7403.3157 305.8807 594.2935 676.2181 29936.1572 594.2935 676.2181
ENERGY: 300000 4.4869 2.1661 1.9799 0.0000 -10603.1365 1394.3052 0.0000 0.0000 1781.7659 -7418.4324 306.5910 -9200.1984 -7423.9660 301.2324 -535.5662 -476.2952 30431.3741 -359.6226 -285.9520
ENERGY: 600000 2.3200 6.6858 3.6904 0.0000 -10542.1091 1454.8474 0.0000 0.0000 1766.2650 -7308.3006 303.9237 -9074.5655 -7415.9234 301.4120 376.3504 396.5839 30191.9441 -269.0768 -188.4747
ENERGY: 900000 2.8522 7.4177 2.4354 0.0000 -10565.2957 1444.5325 0.0000 0.0000 1722.6886 -7385.3692 296.4255 -9108.0579 -7418.5391 300.2123 346.3474 452.8755 29760.1555 -122.0099 -44.4152
ENERGY: 1200000 4.4101 7.6528 1.4828 0.0000 -10627.8057 1424.5767 0.0000 0.0000 1766.0893 -7423.5939 303.8935 -9189.6833 -7421.7677 300.8771 -96.7594 26.2898 29546.3492 24.2508 102.7233
ENERGY: 1500000 1.5976 3.5212 2.4656 0.0000 -10653.7420 1496.6370 0.0000 0.0000 1720.2547 -7429.2659 296.0067 -9149.5206 -7408.2032 301.1026 660.1007 790.8433 29737.4597 92.4932 164.4179
TCL: Running FEP window  16: Lambda1 0.24999999999999967 Lambda2 0.19999999999999968 [dLambda -0.04999999999999999]
TCL: Setting parameter firsttimestep to 0
TCL: Setting parameter alchLambda to 0.24999999999999967
Info: NONBONDED TABLE R-SQUARED SPACING: 0.0625
Info: NONBONDED TABLE SIZE: 705 POINTS
TCL: Setting parameter alchLambda2 to 0.19999999999999968
Info: NONBONDED TABLE R-SQUARED SPACING: 0.0625
Info: NONBONDED TABLE SIZE: 705 POINTS
TCL: Running for 1500000 steps
ETITLE: TS BOND ANGLE DIHED IMPRP ELECT VDW BOUNDARY MISC KINETIC TOTAL TEMP POTENTIAL TOTALAVG TEMPAVG PRESSURE GPRESSURE VOLUME PRESSAVG GPRESSAVG
ENERGY: 0 1.5976 3.5212 2.4656 0.0000 -10653.7417 1496.9355 0.0000 0.0000 1719.3403 -7429.8816 295.8493 -9149.2219 -7429.8816 295.8493 728.4203 788.0826 29737.4597 728.4203 788.0826
ENERGY: 300000 3.9830 6.4083 2.7415 0.0000 -10535.2769 1375.2938 0.0000 0.0000 1747.4963 -7399.3541 300.6942 -9146.8503 -7434.8445 301.4885 -191.3642 -161.2369 29680.3538 -386.1102 -318.1000
ENERGY: 600000 1.1113 4.8411 5.1847 0.0000 -10533.8594 1355.2027 0.0000 0.0000 1740.4005 -7427.1191 299.4732 -9167.5196 -7438.7227 299.3417 -600.4101 -571.6294 30009.3098 -272.7815 -207.6038
ENERGY: 900000 2.1302 5.4941 2.0691 0.0000 -10635.2200 1513.8565 0.0000 0.0000 1782.6279 -7329.0421 306.7393 -9111.6700 -7427.0005 301.1062 695.9773 776.9629 30025.8444 -106.4026 -32.8237
ENERGY: 1200000 0.4389 5.7661 5.2151 0.0000 -10575.4772 1424.4659 0.0000 0.0000 1791.1117 -7348.4796 308.1992 -9139.5913 -7406.5407 301.1837 50.4431 137.7397 29978.7677 -146.2835 -64.3205
ENERGY: 1500000 2.9415 10.5354 4.0886 0.0000 -10654.5217 1548.3613 0.0000 0.0000 1702.9114 -7385.6834 293.0224 -9088.5948 -7403.2279 300.1488 1352.8825 1366.7388 29699.3104 -23.4604 53.4539
TCL: Running FEP window  17: Lambda1 0.19999999999999968 Lambda2 0.1499999999999997 [dLambda -0.04999999999999999]
TCL: Setting parameter firsttimestep to 0
TCL: Setting parameter alchLambda to 0.19999999999999968
Info: NONBONDED TABLE R-SQUARED SPACING: 0.0625
Info: NONBONDED TABLE SIZE: 705 POINTS
TCL: Setting parameter alchLambda2 to 0.1499999999999997
Info: NONBONDED TABLE R-SQUARED SPACING: 0.0625
Info: NONBONDED TABLE SIZE: 705 POINTS
TCL: Running for 1500000 steps
ETITLE: TS BOND ANGLE DIHED IMPRP ELECT VDW BOUNDARY MISC KINETIC TOTAL TEMP POTENTIAL TOTALAVG TEMPAVG PRESSURE GPRESSURE VOLUME PRESSAVG GPRESSAVG
ENERGY: 0 2.9415 10.5354 4.0886 0.0000 -10654.5211 1548.7877 0.0000 0.0000 1702.0467 -7386.1211 292.8736 -9088.1679 -7386.1211 292.8736 1285.7605 1364.1745 29699.3104 1285.7605 1364.1745
ENERGY: 300000 2.3952 5.8210 3.6120 0.0000 -10870.0575 1571.5882 0.0000 0.0000 1758.1289 -7528.5123 302.5238 -9286.6412 -7444.6651 299.0431 826.2389 876.2738 29619.0240 427.0672 489.8066
ENERGY: 600000 6.0317 5.8946 2.8975 0.0000 -10638.4116 1463.5002 0.0000 0.0000 1721.7609 -7438.3267 296.2659 -9160.0876 -7446.3675 296.5094 241.7735 334.4545 29696.5910 323.9839 393.3764
ENERGY: 900000 5.5396 8.1864 4.5956 0.0000 -10696.8665 1443.7459 0.0000 0.0000 1767.1949 -7467.6041 304.0837 -9234.7990 -7440.5563 299.0795 -317.0996 -280.1897 30021.2595 225.3445 282.9488
ENERGY: 1200000 1.6522 7.9128 3.3561 0.0000 -10589.5470 1330.9923 0.0000 0.0000 1750.4942 -7495.1393 301.2100 -9245.6335 -7439.8039 299.8841 -1143.6612 -1039.8647 29989.5861 88.7836 151.5861
ENERGY: 1500000 1.3894 7.2806 2.6826 0.0000 -10441.7361 1279.2266 0.0000 0.0000 1699.8613 -7451.2957 292.4976 -9151.1570 -7427.9189 299.3101 -1201.2356 -1171.4507 30145.2653 -56.3764 4.2963
TCL: Running FEP window  18: Lambda1 0.1499999999999997 Lambda2 0.09999999999999969 [dLambda -0.05 ]
TCL: Setting parameter firsttimestep to 0
TCL: Setting parameter alchLambda to 0.1499999999999997
Info: NONBONDED TABLE R-SQUARED SPACING: 0.0625
Info: NONBONDED TABLE SIZE: 705 POINTS
TCL: Setting parameter alchLambda2 to 0.09999999999999969
Info: NONBONDED TABLE R-SQUARED SPACING: 0.0625
Info: NONBONDED TABLE SIZE: 705 POINTS
TCL: Running for 1500000 steps
ETITLE: TS BOND ANGLE DIHED IMPRP ELECT VDW BOUNDARY MISC KINETIC TOTAL TEMP POTENTIAL TOTALAVG TEMPAVG PRESSURE GPRESSURE VOLUME PRESSAVG GPRESSAVG
ENERGY: 0 1.3894 7.2806 2.6826 0.0000 -10441.7374 1279.5405 0.0000 0.0000 1698.9606 -7451.8837 292.3426 -9150.8444 -7451.8837 292.3426 -1240.0840 -1178.0080 30145.2653 -1240.0840 -1178.0080
ENERGY: 300000 2.0315 10.5415 4.5765 0.0000 -10687.1381 1528.4616 0.0000 0.0000 1705.9470 -7435.5800 293.5447 -9141.5269 -7425.6456 295.7133 1131.3833 1174.3363 29396.0857 -134.0609 -54.2037
ENERGY: 600000 1.9017 4.4233 3.1479 0.0000 -10470.5562 1370.4695 0.0000 0.0000 1799.4626 -7291.1514 309.6361 -9090.6139 -7409.6863 298.5024 -368.1299 -308.7399 30112.2196 -271.8160 -199.0042
ENERGY: 900000 2.1823 7.9971 5.0614 0.0000 -10614.1062 1431.1409 0.0000 0.0000 1693.5738 -7474.1508 291.4157 -9167.7246 -7405.6645 298.6184 -17.9876 1.6773 29726.0073 -194.8557 -123.3165
ENERGY: 1200000 4.7575 6.2558 5.0920 0.0000 -10693.9687 1503.1164 0.0000 0.0000 1734.3091 -7440.4378 298.4250 -9174.7469 -7407.9186 298.9369 550.9749 687.5053 29567.2710 -80.9501 -7.5846
ENERGY: 1500000 1.3348 3.5746 3.5288 0.0000 -10509.3818 1414.5940 0.0000 0.0000 1684.8578 -7401.4919 289.9159 -9086.3497 -7403.1472 299.1192 -189.6381 -147.3077 30382.9806 -139.7565 -65.6578
TCL: Running FEP window  19: Lambda1 0.09999999999999969 Lambda2 0.049999999999999684 [dLambda -0.05 ]
TCL: Setting parameter firsttimestep to 0
TCL: Setting parameter alchLambda to 0.09999999999999969
Info: NONBONDED TABLE R-SQUARED SPACING: 0.0625
Info: NONBONDED TABLE SIZE: 705 POINTS
TCL: Setting parameter alchLambda2 to 0.049999999999999684
Info: NONBONDED TABLE R-SQUARED SPACING: 0.0625
Info: NONBONDED TABLE SIZE: 705 POINTS
TCL: Running for 1500000 steps
ETITLE: TS BOND ANGLE DIHED IMPRP ELECT VDW BOUNDARY MISC KINETIC TOTAL TEMP POTENTIAL TOTALAVG TEMPAVG PRESSURE GPRESSURE VOLUME PRESSAVG GPRESSAVG
ENERGY: 0 1.3348 3.5746 3.5288 0.0000 -10509.3813 1414.9464 0.0000 0.0000 1684.0026 -7401.9942 289.7687 -9085.9968 -7401.9942 289.7687 -228.2387 -148.4957 30382.9806 -228.2387 -148.4957
ENERGY: 300000 3.1975 7.8089 4.8118 0.0000 -10515.1534 1409.1812 0.0000 0.0000 1722.2716 -7367.8824 296.3537 -9090.1540 -7422.0099 295.3457 -4.8214 33.1729 29722.5029 -249.4422 -191.9142
ENERGY: 600000 1.2770 6.7220 7.3536 0.0000 -10595.0745 1413.2037 0.0000 0.0000 1734.0191 -7432.4991 298.3751 -9166.5182 -7419.2589 295.9629 -294.6492 -231.8725 29948.8017 -204.0068 -142.4238
ENERGY: 900000 1.4192 3.1562 1.6503 0.0000 -10581.8633 1456.6008 0.0000 0.0000 1735.8792 -7383.1577 298.6952 -9119.0369 -7427.0420 295.9254 139.3148 222.8289 30142.2009 -174.2821 -111.8456
ENERGY: 1200000 3.4537 6.8003 4.5188 0.0000 -10538.2855 1416.1105 0.0000 0.0000 1713.5066 -7393.8957 294.8455 -9107.4022 -7417.4563 296.8187 -377.7164 -297.5219 30341.2563 -221.3314 -153.2341
ENERGY: 1500000 2.0223 6.5157 4.3576 0.0000 -10584.3035 1386.9590 0.0000 0.0000 1711.0701 -7473.3788 294.4263 -9184.4489 -7419.0438 297.2125 -209.3392 -179.7716 29594.0790 -237.8436 -171.5807
TCL: Running FEP window  20: Lambda1 0.049999999999999684 Lambda2 0.0    [dLambda -0.049999999999999684]
TCL: Setting parameter firsttimestep to 0
TCL: Setting parameter alchLambda to 0.049999999999999684
Info: NONBONDED TABLE R-SQUARED SPACING: 0.0625
Info: NONBONDED TABLE SIZE: 705 POINTS
TCL: Setting parameter alchLambda2 to 0.0
Info: NONBONDED TABLE R-SQUARED SPACING: 0.0625
Info: NONBONDED TABLE SIZE: 705 POINTS
TCL: Running for 1500000 steps
ETITLE: TS BOND ANGLE DIHED IMPRP ELECT VDW BOUNDARY MISC KINETIC TOTAL TEMP POTENTIAL TOTALAVG TEMPAVG PRESSURE GPRESSURE VOLUME PRESSAVG GPRESSAVG
ENERGY: 0 2.0223 6.5157 4.3576 0.0000 -10584.3035 1385.5375 0.0000 0.0000 1710.2116 -7475.6588 294.2786 -9185.8704 -7475.6588 294.2786 -274.8581 -189.8009 29594.0790 -274.8581 -189.8009
ENERGY: 300000 2.5108 7.3982 2.7697 0.0000 -10660.8138 1486.7840 0.0000 0.0000 1723.3445 -7438.0065 296.5383 -9161.3510 -7456.8933 294.9142 299.6663 434.3764 30028.3104 -179.6743 -104.6944
ENERGY: 600000 3.8816 6.5407 2.8297 0.0000 -10398.0383 1347.0242 0.0000 0.0000 1717.1446 -7320.6175 295.4715 -9037.7620 -7433.3691 296.3167 -295.1130 -283.5065 29936.0453 -283.7741 -234.6189
ENERGY: 900000 4.4518 4.2442 3.2215 0.0000 -10676.3481 1486.6358 0.0000 0.0000 1691.4806 -7486.3143 291.0555 -9177.7949 -7440.2301 296.8207 189.3935 253.1280 29818.9249 -176.6507 -125.8586
ENERGY: 1200000 2.6527 4.2879 1.8620 0.0000 -10784.1957 1496.0601 0.0000 0.0000 1744.7108 -7534.6222 300.2149 -9279.3331 -7442.5005 297.6909 112.8160 270.1271 29553.8657 -83.6093 -25.6584
ENERGY: 1500000 2.1503 4.7339 6.5489 0.0000 -10554.0801 1400.2830 0.0000 0.0000 1777.8158 -7362.5482 305.9113 -9140.3640 -7432.5064 298.1226 -203.9737 -138.9309 29978.6862 -168.4924 -105.1851
TCL: Exiting due to exit command.
