Info: SIMULATION PARAMETERS:
Info: TIMESTEP               2
Info: NUMBER OF STEPS        0
Info: STEPS PER CYCLE        10
Info: PERIODIC CELL BASIS 1  30.7898 0 0
Info: PERIODIC CELL BASIS 2  0 31.1638 0
Info: PERIODIC CELL BASIS 3  0 0 31.4384
Info: PERIODIC CELL CENTER   0 0 0
Info: WRAPPING WATERS AROUND PERIODIC BOUNDARIES ON OUTPUT.
Info: WRAPPING ALL CLUSTERS AROUND PERIODIC BOUNDARIES ON OUTPUT.
Info: FIRST LDB TIMESTEP     50
Info: LAST LDB TIMESTEP     -1
Info: HOM BACKGROUND SCALING 1
Info: PME BACKGROUND SCALING 1
Info: MIN ATOMS PER PATCH    40
Info: EMPTY PATCH LOAD       40 ATOMS
Info: VELOCITY FILE          mobley_3682850_equil.vel
Info: CENTER OF MASS MOVING INITIALLY? NO
Info: DIELECTRIC             1
Info: EXCLUDE                SCALED ONE-FOUR
Info: 1-4 ELECTROSTATICS SCALED BY 0.833333
Info: MODIFIED 1-4 VDW PARAMETERS WILL BE USED
Info: DCD FILENAME           mobley_3682850_prod.dcd
Info: DCD FREQUENCY          100000
Info: DCD FIRST STEP         100000
Info: DCD FILE WILL CONTAIN UNIT CELL DATA
Info: XST FILENAME           mobley_3682850_prod.xst
Info: XST FREQUENCY          100000
Info: NO VELOCITY DCD OUTPUT
Info: NO FORCE DCD OUTPUT
Info: OUTPUT FILENAME        mobley_3682850_prod
Info: BINARY OUTPUT FILES WILL BE USED
Info: RESTART FILENAME       mobley_3682850_prod.restart
Info: RESTART FREQUENCY      100000
Info: BINARY RESTART FILES WILL BE USED
Info: CUTOFF                 9
Info: PAIRLIST DISTANCE      11
Info: PAIRLIST SHRINK RATE   0.01
Info: PAIRLIST GROW RATE     0.01
Info: PAIRLIST TRIGGER       0.3
Info: PAIRLISTS PER CYCLE    2
Info: PAIRLISTS ENABLED
Info: MARGIN                 2
Info: HYDROGEN GROUP CUTOFF  2.5
Info: PATCH DIMENSION        15.5
Info: ENERGY OUTPUT STEPS    100000
Info: ENERGY EVALUATION STEPS    100000
Info: OUTPUT ENERGY PRECISION 4
Info: CROSSTERM ENERGY INCLUDED IN DIHEDRAL
Info: TIMING OUTPUT STEPS    1000000
Info: PRESSURE OUTPUT STEPS  100000
Info: ALCHEMICAL FEP ON
Info: FEP CURRENT LAMBDA VALUE     0
Info: FEP COMPARISON LAMBDA VALUE  0.05
Info: FEP INTRA-ALCHEMICAL NON-BONDED INTERACTIONS WILL BE RETAINED
Info: FEP INTRA-ALCHEMICAL BONDED INTERACTIONS WILL BE RETAINED
Info: FEP VDW SHIFTING COEFFICIENT 5
Info: FEP ELEC. ACTIVE FOR ANNIHILATED PARTICLES BETWEEN LAMBDA = 0 AND LAMBDA = 0.5
Info: FEP ELEC. ACTIVE FOR EXNIHILATED PARTICLES BETWEEN LAMBDA = 0.5 AND LAMBDA = 1
Info: FEP VDW ACTIVE FOR ANNIHILATED PARTICLES BETWEEN LAMBDA = 0 AND LAMBDA = 1
Info: FEP VDW ACTIVE FOR EXNIHILATED PARTICLES BETWEEN LAMBDA = 0 AND LAMBDA = 1
Info: FEP BOND ACTIVE FOR ANNIHILATED PARTICLES BETWEEN LAMBDA = 1 AND LAMBDA = 1
Info: FEP BOND ACTIVE FOR EXNIHILATED PARTICLES BETWEEN LAMBDA = 0 AND LAMBDA = 0
Info: LANGEVIN DYNAMICS ACTIVE
Info: LANGEVIN TEMPERATURE   300
Info: LANGEVIN USING BBK INTEGRATOR
Info: LANGEVIN DAMPING COEFFICIENT IS 1 INVERSE PS
Info: LANGEVIN DYNAMICS APPLIED TO HYDROGENS
Info: LANGEVIN PISTON PRESSURE CONTROL ACTIVE
Info:        TARGET PRESSURE IS 1.01325 BAR
Info:     OSCILLATION PERIOD IS 50 FS
Info:             DECAY TIME IS 25 FS
Info:     PISTON TEMPERATURE IS 300 K
Info:       PRESSURE CONTROL IS GROUP-BASED
Info:    INITIAL STRAIN RATE IS -0.000239674 -0.000239674 -0.000239674
Info:       CELL FLUCTUATION IS ISOTROPIC
Info: PARTICLE MESH EWALD (PME) ACTIVE
Info: PME TOLERANCE               1e-06
Info: PME EWALD COEFFICIENT       0.348832
Info: PME INTERPOLATION ORDER     4
Info: PME GRID DIMENSIONS         32 32 32
Info: PME MAXIMUM GRID SPACING    1
Info: PME CALCULATION WILL BE PERFORMED ON GPU
Info: FULL ELECTROSTATIC EVALUATION FREQUENCY      2
Info: USING VERLET I (r-RESPA) MTS SCHEME.
Info: C1 SPLITTING OF LONG RANGE ELECTROSTATICS
Info: PLACING ATOMS IN PATCHES BY HYDROGEN GROUPS
Info: RIGID BONDS TO HYDROGEN : ALL
Info:         ERROR TOLERANCE : 1e-08
Info:          MAX ITERATIONS : 100
Info: RIGID WATER USING SETTLE ALGORITHM
Info: RANDOM NUMBER SEED     1743589042
Info: USE HYDROGEN BONDS?    NO
Info: Using AMBER format force field!
Info: AMBER PARM FILE        mobley_3682850.prmtop
Info: COORDINATE PDB         mobley_3682850.pdb
Info: Exclusions will be read from PARM file!
Info: SCNB (VDW SCALING)     2
Info: USING ARITHMETIC MEAN TO COMBINE L-J SIGMA PARAMETERS
Info: BINARY COORDINATES     mobley_3682850_equil.coor
Info: SUMMARY OF PARAMETERS:
Info: 6 BONDS
Info: 7 ANGLES
Info:   7 HARMONIC
Info:   0 COSINE-BASED
Info: 11 DIHEDRAL
Info: 0 IMPROPER
Info: 0 CROSSTERM
Info: 0 VDW
Info: 21 VDW_PAIRS
Info: 0 NBTHOLE_PAIRS
Info: To read alchdata from file: mobley_3682850.pdb
Info: To read alchflag data from column: 5
Info: STRUCTURE SUMMARY:
Info: 2936 ATOMS
Info: 2936 BONDS
Info: 33 ANGLES
Info: 61 DIHEDRALS
Info: 0 IMPROPERS
Info: 0 CROSSTERMS
Info: 3014 EXCLUSIONS
Info: 2929 RIGID BONDS
Info: ALCH: 0 ATOMS TO DISAPPEAR IN FINAL STATE
Info: ALCH: 17 ATOMS TO APPEAR IN FINAL STATE
Info: 5879 DEGREES OF FREEDOM
Info: 980 HYDROGEN GROUPS
Info: 3 ATOMS IN LARGEST HYDROGEN GROUP
Info: 980 MIGRATION GROUPS
Info: 3 ATOMS IN LARGEST MIGRATION GROUP
Info: TOTAL MASS = 17627.7 amu
Info: TOTAL CHARGE = 0.000299945 e
Info: MASS DENSITY = 0.970369 g/cm^3
Info: ATOM DENSITY = 0.097328 atoms/A^3
Info: ADDED 0 IMPLICIT EXCLUSIONS
Info: NONBONDED TABLE R-SQUARED SPACING: 0.0625
Info: NONBONDED TABLE SIZE: 705 POINTS
Info: REMOVING COM VELOCITY 0.136974 -0.162737 -0.076003
Info: Use 3D box decompostion in PME FFT.
Info: Updated CUDA force table with 4096 elements.
Info: Updated CUDA LJ table with 6 x 6 elements.
Info: Found 20 unique exclusion lists needing 52 bytes
TCL: Running for 1500000 steps
ETITLE: TS BOND ANGLE DIHED IMPRP ELECT VDW BOUNDARY MISC KINETIC TOTAL TEMP POTENTIAL TOTALAVG TEMPAVG PRESSURE GPRESSURE VOLUME PRESSAVG GPRESSAVG
ENERGY: 0 3.6819 7.3167 5.2301 0.0000 -10767.7092 1533.8895 0.0000 0.0000 1734.9294 -7482.6615 297.0084 -9217.5909 -7482.6615 297.0084 690.7168 768.3800 30166.0368 690.7168 768.3800
ENERGY: 300000 1.7824 5.9983 5.1906 0.0000 -10556.5420 1360.0281 0.0000 0.0000 1785.0803 -7398.4623 305.5939 -9183.5426 -7418.4550 301.4124 -400.3569 -309.2676 29980.2335 134.1539 203.5322
ENERGY: 600000 1.1304 7.1968 6.9097 0.0000 -10591.4023 1434.8526 0.0000 0.0000 1756.0716 -7385.2412 300.6278 -9141.3129 -7433.5321 301.3380 42.0225 124.8352 30134.9241 82.7096 152.0028
ENERGY: 900000 1.9451 6.2607 5.6037 0.0000 -10642.2131 1495.8405 0.0000 0.0000 1701.8787 -7430.6844 291.3503 -9132.5631 -7432.3181 299.9181 543.7440 639.0036 30131.3083 215.2045 291.8053
ENERGY: 1200000 2.8901 6.7135 6.0453 0.0000 -10626.6664 1408.0649 0.0000 0.0000 1767.6347 -7435.3178 302.6073 -9202.9525 -7435.5551 299.6481 -46.9482 -52.1120 29496.1197 125.5324 190.8743
ENERGY: 1500000 1.4626 8.3792 5.4734 0.0000 -10580.6112 1349.7806 0.0000 0.0000 1725.3272 -7490.1884 295.3646 -9215.5156 -7439.6792 298.5542 -585.3247 -472.1119 29576.8383 3.3912 70.5920
TCL: Running FEP window   2: Lambda1 0.05   Lambda2 0.1    [dLambda 0.05  ]
TCL: Setting parameter firsttimestep to 0
TCL: Setting parameter alchLambda to 0.05
Info: NONBONDED TABLE R-SQUARED SPACING: 0.0625
Info: NONBONDED TABLE SIZE: 705 POINTS
TCL: Setting parameter alchLambda2 to 0.1
Info: NONBONDED TABLE R-SQUARED SPACING: 0.0625
Info: NONBONDED TABLE SIZE: 705 POINTS
TCL: Running for 1500000 steps
ETITLE: TS BOND ANGLE DIHED IMPRP ELECT VDW BOUNDARY MISC KINETIC TOTAL TEMP POTENTIAL TOTALAVG TEMPAVG PRESSURE GPRESSURE VOLUME PRESSAVG GPRESSAVG
ENERGY: 0 1.4626 8.3792 5.4734 0.0000 -10580.6126 1353.1969 0.0000 0.0000 1724.4924 -7487.6082 295.2217 -9212.1006 -7487.6082 295.2217 -573.8518 -466.0307 29576.8383 -573.8518 -466.0307
ENERGY: 300000 2.2246 5.2882 5.3892 0.0000 -10639.6594 1477.1934 0.0000 0.0000 1780.0430 -7369.5210 304.7316 -9149.5640 -7443.6396 300.6353 488.3178 569.5142 29918.5280 -199.4067 -135.7853
ENERGY: 600000 1.2850 5.2274 6.2311 0.0000 -10696.8426 1477.7156 0.0000 0.0000 1815.8558 -7390.5276 310.8625 -9206.3834 -7424.6496 301.3154 192.5449 282.0337 30212.4995 -137.4401 -78.6734
ENERGY: 900000 0.7155 6.4581 6.1842 0.0000 -10646.8492 1481.2374 0.0000 0.0000 1736.2095 -7416.0445 297.2275 -9152.2540 -7413.0575 301.5765 525.8367 614.9512 29698.5391 -110.6722 -49.1145
ENERGY: 1200000 3.2952 7.5112 7.3477 0.0000 -10541.3136 1370.4387 0.0000 0.0000 1796.6943 -7356.0264 307.5821 -9152.7207 -7411.6044 301.5339 -527.3600 -448.5788 29991.8716 -143.9159 -77.1772
ENERGY: 1500000 2.5233 10.6217 5.3559 0.0000 -10600.0559 1413.3391 0.0000 0.0000 1734.1872 -7434.0287 296.8813 -9168.2159 -7417.4439 301.5009 -421.1300 -369.4972 30429.0804 -174.8290 -114.1595
TCL: Running FEP window   3: Lambda1 0.1    Lambda2 0.15000000000000002 [dLambda 0.05000000000000002]
TCL: Setting parameter firsttimestep to 0
TCL: Setting parameter alchLambda to 0.1
Info: NONBONDED TABLE R-SQUARED SPACING: 0.0625
Info: NONBONDED TABLE SIZE: 705 POINTS
TCL: Setting parameter alchLambda2 to 0.15000000000000002
Info: NONBONDED TABLE R-SQUARED SPACING: 0.0625
Info: NONBONDED TABLE SIZE: 705 POINTS
TCL: Running for 1500000 steps
ETITLE: TS BOND ANGLE DIHED IMPRP ELECT VDW BOUNDARY MISC KINETIC TOTAL TEMP POTENTIAL TOTALAVG TEMPAVG PRESSURE GPRESSURE VOLUME PRESSAVG GPRESSAVG
ENERGY: 0 2.5233 10.6217 5.3559 0.0000 -10600.0551 1414.4178 0.0000 0.0000 1733.2952 -7433.8413 296.7286 -9167.1365 -7433.8413 296.7286 -443.7676 -361.5711 30429.0804 -443.7676 -361.5711
ENERGY: 300000 3.4746 6.6202 5.9883 0.0000 -10676.9975 1497.2715 0.0000 0.0000 1748.4671 -7415.1759 299.3260 -9163.6429 -7458.1053 297.1178 472.4722 547.7722 30117.2033 325.1146 375.2673
ENERGY: 600000 5.0106 5.0987 5.1244 0.0000 -10672.8478 1472.5477 0.0000 0.0000 1807.6585 -7377.4079 309.4591 -9185.0664 -7429.3500 299.3209 178.2691 243.0001 30332.3186 130.5567 174.8239
ENERGY: 900000 2.0514 7.6335 9.1643 0.0000 -10593.4963 1432.9034 0.0000 0.0000 1760.0087 -7381.7350 301.3018 -9141.7437 -7442.4780 297.8952 -190.0659 -122.8981 30609.3880 37.0292 78.2406
ENERGY: 1200000 4.3386 10.4541 5.5832 0.0000 -10568.3453 1424.5794 0.0000 0.0000 1758.3853 -7365.0046 301.0239 -9123.3899 -7425.4978 298.2978 -141.9285 -41.8020 30555.7210 -96.7359 -44.7429
ENERGY: 1500000 1.9847 9.5142 6.4179 0.0000 -10679.5075 1466.6721 0.0000 0.0000 1709.0892 -7485.8293 292.5847 -9194.9186 -7429.9168 298.4329 63.1102 216.3643 30204.0448 -129.5983 -71.7760
TCL: Running FEP window   4: Lambda1 0.15000000000000002 Lambda2 0.2    [dLambda 0.04999999999999999]
TCL: Setting parameter firsttimestep to 0
TCL: Setting parameter alchLambda to 0.15000000000000002
Info: NONBONDED TABLE R-SQUARED SPACING: 0.0625
Info: NONBONDED TABLE SIZE: 705 POINTS
TCL: Setting parameter alchLambda2 to 0.2
Info: NONBONDED TABLE R-SQUARED SPACING: 0.0625
Info: NONBONDED TABLE SIZE: 705 POINTS
TCL: Running for 1500000 steps
ETITLE: TS BOND ANGLE DIHED IMPRP ELECT VDW BOUNDARY MISC KINETIC TOTAL TEMP POTENTIAL TOTALAVG TEMPAVG PRESSURE GPRESSURE VOLUME PRESSAVG GPRESSAVG
ENERGY: 0 1.9847 9.5143 6.4179 0.0000 -10679.5079 1468.1653 0.0000 0.0000 1708.2188 -7485.2070 292.4357 -9193.4258 -7485.2070 292.4357 130.2579 226.0538 30204.0448 130.2579 226.0538
ENERGY: 300000 2.4361 9.8675 5.4257 0.0000 -10559.4753 1385.4802 0.0000 0.0000 1706.3373 -7449.9286 292.1136 -9156.2659 -7438.7921 296.2217 -666.5687 -592.2860 30325.5576 -534.9187 -459.0719
ENERGY: 600000 0.9136 11.6301 6.1463 0.0000 -10626.0989 1370.9532 0.0000 0.0000 1705.0057 -7531.4500 291.8857 -9236.4557 -7451.8367 298.2722 -951.7542 -930.6680 30786.6579 -350.1806 -288.3147
ENERGY: 900000 0.8211 8.4010 5.2860 0.0000 -10567.8435 1378.2775 0.0000 0.0000 1734.3765 -7440.6813 296.9138 -9175.0579 -7451.8503 298.6278 -418.7250 -345.7063 30164.0209 -334.0073 -273.1781
ENERGY: 1200000 2.0299 7.5633 6.5339 0.0000 -10488.8869 1339.2787 0.0000 0.0000 1759.6809 -7373.8003 301.2457 -9133.4811 -7443.9833 298.6738 -755.7865 -660.2289 30337.5530 -367.2834 -302.1782
ENERGY: 1500000 2.9558 12.9214 6.0705 0.0000 -10786.8205 1535.3444 0.0000 0.0000 1755.6367 -7473.8916 300.5533 -9229.5283 -7439.2466 300.0920 228.9332 342.0500 30538.3636 -317.4476 -251.4616
TCL: Running FEP window   5: Lambda1 0.2    Lambda2 0.25   [dLambda 0.04999999999999999]
TCL: Setting parameter firsttimestep to 0
TCL: Setting parameter alchLambda to 0.2
Info: NONBONDED TABLE R-SQUARED SPACING: 0.0625
Info: NONBONDED TABLE SIZE: 705 POINTS
TCL: Setting parameter alchLambda2 to 0.25
Info: NONBONDED TABLE R-SQUARED SPACING: 0.0625
Info: NONBONDED TABLE SIZE: 705 POINTS
TCL: Running for 1500000 steps
ETITLE: TS BOND ANGLE DIHED IMPRP ELECT VDW BOUNDARY MISC KINETIC TOTAL TEMP POTENTIAL TOTALAVG TEMPAVG PRESSURE GPRESSURE VOLUME PRESSAVG GPRESSAVG
ENERGY: 0 2.9558 12.9214 6.0705 0.0000 -10786.8206 1536.0830 0.0000 0.0000 1754.7830 -7474.0068 300.4072 -9228.7898 -7474.0068 300.4072 266.5968 349.4411 30538.3636 266.5968 349.4411
ENERGY: 300000 3.0126 5.3402 5.2145 0.0000 -10648.6337 1408.1046 0.0000 0.0000 1771.5812 -7455.3806 303.2829 -9226.9618 -7460.4482 301.8374 -216.6549 -163.2484 29715.2721 285.5992 344.3829
ENERGY: 600000 2.7339 3.6866 5.5211 0.0000 -10774.2629 1504.0051 0.0000 0.0000 1731.1795 -7527.1366 296.3664 -9258.3162 -7456.9789 301.0666 280.9390 390.0257 29990.4844 112.4716 169.2622
ENERGY: 900000 1.9261 7.4360 7.5136 0.0000 -10819.8918 1568.0652 0.0000 0.0000 1684.7463 -7550.2046 288.4174 -9234.9509 -7463.2210 299.2809 803.0718 906.7499 29849.0907 95.6800 160.2324
ENERGY: 1200000 1.7981 9.0831 6.6573 0.0000 -10630.6440 1456.3509 0.0000 0.0000 1727.6957 -7429.0589 295.7700 -9156.7546 -7456.9530 299.5604 125.6907 158.3052 30532.9293 -42.4617 22.6105
ENERGY: 1500000 1.4439 6.4035 6.3036 0.0000 -10601.9715 1440.2723 0.0000 0.0000 1725.4020 -7422.1462 295.3774 -9147.5482 -7458.2459 298.7607 171.2769 171.6987 30249.9942 -41.2585 20.5989
TCL: Running FEP window   6: Lambda1 0.25   Lambda2 0.3    [dLambda 0.04999999999999999]
TCL: Setting parameter firsttimestep to 0
TCL: Setting parameter alchLambda to 0.25
Info: NONBONDED TABLE R-SQUARED SPACING: 0.0625
Info: NONBONDED TABLE SIZE: 705 POINTS
TCL: Setting parameter alchLambda2 to 0.3
Info: NONBONDED TABLE R-SQUARED SPACING: 0.0625
Info: NONBONDED TABLE SIZE: 705 POINTS
TCL: Running for 1500000 steps
ETITLE: TS BOND ANGLE DIHED IMPRP ELECT VDW BOUNDARY MISC KINETIC TOTAL TEMP POTENTIAL TOTALAVG TEMPAVG PRESSURE GPRESSURE VOLUME PRESSAVG GPRESSAVG
ENERGY: 0 1.4439 6.4035 6.3036 0.0000 -10601.9719 1439.9841 0.0000 0.0000 1724.5327 -7423.3040 295.2286 -9147.8367 -7423.3040 295.2286 91.4087 174.0010 30249.9942 91.4087 174.0010
ENERGY: 300000 2.8633 7.5329 5.6119 0.0000 -10631.9338 1428.9864 0.0000 0.0000 1783.3940 -7403.5452 305.3052 -9186.9392 -7426.9384 302.6443 27.2376 108.8305 30068.9467 85.4869 164.1990
ENERGY: 600000 1.0314 7.2149 6.8813 0.0000 -10580.7045 1385.1725 0.0000 0.0000 1822.9289 -7357.4754 312.0733 -9180.4043 -7420.8122 302.8491 -300.6832 -222.9873 30128.0644 -74.7652 -0.2295
ENERGY: 900000 1.7566 8.2545 5.9471 0.0000 -10677.8108 1400.9189 0.0000 0.0000 1779.9602 -7480.9736 304.7174 -9260.9338 -7417.4959 303.6202 -514.5480 -452.4075 30048.5988 -97.5700 -27.0687
ENERGY: 1200000 1.0759 5.5077 5.4402 0.0000 -10569.7262 1372.0866 0.0000 0.0000 1759.5578 -7426.0581 301.2246 -9185.6159 -7422.0268 303.5418 -389.9855 -300.2693 29907.1834 -119.7165 -53.1760
ENERGY: 1500000 1.8326 7.9050 6.3511 0.0000 -10659.8278 1452.2087 0.0000 0.0000 1748.7904 -7442.7399 299.3813 -9191.5303 -7419.4399 303.2090 193.2113 250.2534 29917.2056 -129.5210 -59.2964
TCL: Running FEP window   7: Lambda1 0.3    Lambda2 0.35   [dLambda 0.04999999999999999]
TCL: Setting parameter firsttimestep to 0
TCL: Setting parameter alchLambda to 0.3
Info: NONBONDED TABLE R-SQUARED SPACING: 0.0625
Info: NONBONDED TABLE SIZE: 705 POINTS
TCL: Setting parameter alchLambda2 to 0.35
Info: NONBONDED TABLE R-SQUARED SPACING: 0.0625
Info: NONBONDED TABLE SIZE: 705 POINTS
TCL: Running for 1500000 steps
ETITLE: TS BOND ANGLE DIHED IMPRP ELECT VDW BOUNDARY MISC KINETIC TOTAL TEMP POTENTIAL TOTALAVG TEMPAVG PRESSURE GPRESSURE VOLUME PRESSAVG GPRESSAVG
ENERGY: 0 1.8326 7.9050 6.3511 0.0000 -10659.8279 1452.8642 0.0000 0.0000 1747.8915 -7442.9834 299.2274 -9190.8749 -7442.9834 299.2274 188.2077 258.0994 29917.2056 188.2077 258.0994
ENERGY: 300000 1.5565 7.4502 5.4338 0.0000 -10755.7103 1445.0411 0.0000 0.0000 1779.7083 -7516.5203 304.6742 -9296.2286 -7492.7719 296.9409 -120.2665 -58.8252 29913.6975 -201.1285 -128.0244
ENERGY: 600000 0.8693 11.7147 5.4983 0.0000 -10487.3673 1367.0922 0.0000 0.0000 1737.9918 -7364.2011 297.5327 -9102.1929 -7455.9770 297.7582 -352.2774 -285.2133 30219.0706 -99.9415 -32.2423
ENERGY: 900000 1.4150 10.4219 5.0886 0.0000 -10494.2682 1348.2602 0.0000 0.0000 1796.7880 -7332.2944 307.5982 -9129.0824 -7443.7926 299.7773 -756.5686 -600.6100 30662.8083 -186.1627 -107.5788
ENERGY: 1200000 1.5644 6.3261 5.9124 0.0000 -10680.3195 1495.9716 0.0000 0.0000 1700.7606 -7469.7844 291.1589 -9170.5450 -7446.9098 298.8434 757.6143 816.0907 29821.0242 -22.9007 46.9282
ENERGY: 1500000 1.3361 8.8793 5.5278 0.0000 -10710.1560 1457.5880 0.0000 0.0000 1757.7366 -7479.0881 300.9128 -9236.8247 -7455.2879 299.2610 -13.9829 54.6083 30302.6951 -5.0406 63.5751
TCL: Running FEP window   8: Lambda1 0.35   Lambda2 0.39999999999999997 [dLambda 0.04999999999999999]
TCL: Setting parameter firsttimestep to 0
TCL: Setting parameter alchLambda to 0.35
Info: NONBONDED TABLE R-SQUARED SPACING: 0.0625
Info: NONBONDED TABLE SIZE: 705 POINTS
TCL: Setting parameter alchLambda2 to 0.39999999999999997
Info: NONBONDED TABLE R-SQUARED SPACING: 0.0625
Info: NONBONDED TABLE SIZE: 705 POINTS
TCL: Running for 1500000 steps
ETITLE: TS BOND ANGLE DIHED IMPRP ELECT VDW BOUNDARY MISC KINETIC TOTAL TEMP POTENTIAL TOTALAVG TEMPAVG PRESSURE GPRESSURE VOLUME PRESSAVG GPRESSAVG
ENERGY: 0 1.3361 8.8793 5.5278 0.0000 -10710.1561 1457.1910 0.0000 0.0000 1756.8366 -7480.3852 300.7588 -9237.2218 -7480.3852 300.7588 -22.7686 56.8818 30302.6951 -22.7686 56.8818
ENERGY: 300000 1.7580 11.0428 6.9774 0.0000 -10688.6499 1504.0522 0.0000 0.0000 1803.4750 -7361.3446 308.7430 -9164.8196 -7402.9200 303.3390 828.5626 920.7106 29881.2270 116.9133 199.4825
ENERGY: 600000 0.6275 7.5035 6.6143 0.0000 -10516.3637 1359.7616 0.0000 0.0000 1781.8388 -7360.0181 305.0390 -9141.8569 -7407.5213 304.5203 -438.6766 -368.3898 30042.4745 -97.9354 -18.7444
ENERGY: 900000 2.8059 7.8744 6.6136 0.0000 -10699.3526 1458.6397 0.0000 0.0000 1707.7949 -7515.6242 292.3631 -9223.4190 -7432.3210 301.2316 100.5985 197.1510 29826.1969 -7.4584 71.4409
ENERGY: 1200000 6.6679 12.4591 5.7312 0.0000 -10593.9298 1437.9679 0.0000 0.0000 1733.3021 -7397.8016 296.7298 -9131.1036 -7427.0549 301.0998 47.9500 115.7564 30286.4609 30.3599 106.9707
ENERGY: 1500000 0.9091 7.4201 6.4843 0.0000 -10602.7365 1384.5752 0.0000 0.0000 1670.0463 -7533.3015 285.9008 -9203.3478 -7442.8797 299.9384 -607.6992 -529.0180 30525.9476 85.9171 158.9422
TCL: Running FEP window   9: Lambda1 0.39999999999999997 Lambda2 0.44999999999999996 [dLambda 0.04999999999999999]
TCL: Setting parameter firsttimestep to 0
TCL: Setting parameter alchLambda to 0.39999999999999997
Info: NONBONDED TABLE R-SQUARED SPACING: 0.0625
Info: NONBONDED TABLE SIZE: 705 POINTS
TCL: Setting parameter alchLambda2 to 0.44999999999999996
Info: NONBONDED TABLE R-SQUARED SPACING: 0.0625
Info: NONBONDED TABLE SIZE: 705 POINTS
TCL: Running for 1500000 steps
ETITLE: TS BOND ANGLE DIHED IMPRP ELECT VDW BOUNDARY MISC KINETIC TOTAL TEMP POTENTIAL TOTALAVG TEMPAVG PRESSURE GPRESSURE VOLUME PRESSAVG GPRESSAVG
ENERGY: 0 0.9091 7.4201 6.4843 0.0000 -10602.7364 1384.6949 0.0000 0.0000 1669.1864 -7534.0416 285.7536 -9203.2280 -7534.0416 285.7536 -603.2131 -519.4672 30525.9476 -603.2131 -519.4672
ENERGY: 300000 1.1699 12.5836 5.9416 0.0000 -10540.9713 1410.5648 0.0000 0.0000 1747.8031 -7362.9082 299.2123 -9110.7114 -7462.4203 296.4524 62.4112 161.7249 30114.6092 65.8834 158.9780
ENERGY: 600000 2.5540 7.2705 5.7364 0.0000 -10870.8131 1580.0730 0.0000 0.0000 1684.8621 -7590.3172 288.4372 -9275.1792 -7482.9666 296.3075 1239.9416 1287.8987 29442.3666 159.4397 241.5259
ENERGY: 900000 2.6512 4.5429 5.8919 0.0000 -10624.9007 1433.9913 0.0000 0.0000 1720.3705 -7457.4529 294.5160 -9177.8234 -7470.9777 295.9372 -209.9896 -106.2868 30318.5527 86.3695 161.4594
ENERGY: 1200000 1.5358 8.2778 5.8114 0.0000 -10685.5409 1500.9918 0.0000 0.0000 1774.0796 -7394.8445 303.7107 -9168.9241 -7447.0603 298.1720 269.8452 364.8113 30810.4071 66.7926 141.9962
ENERGY: 1500000 2.1258 6.9979 5.5538 0.0000 -10660.2701 1453.6124 0.0000 0.0000 1788.7595 -7403.2206 306.2238 -9191.9802 -7444.0575 299.1970 385.4607 438.3779 29849.2693 125.8764 196.4038
TCL: Running FEP window  10: Lambda1 0.44999999999999996 Lambda2 0.49999999999999994 [dLambda 0.04999999999999999]
TCL: Setting parameter firsttimestep to 0
TCL: Setting parameter alchLambda to 0.44999999999999996
Info: NONBONDED TABLE R-SQUARED SPACING: 0.0625
Info: NONBONDED TABLE SIZE: 705 POINTS
TCL: Setting parameter alchLambda2 to 0.49999999999999994
Info: NONBONDED TABLE R-SQUARED SPACING: 0.0625
Info: NONBONDED TABLE SIZE: 705 POINTS
TCL: Running for 1500000 steps
ETITLE: TS BOND ANGLE DIHED IMPRP ELECT VDW BOUNDARY MISC KINETIC TOTAL TEMP POTENTIAL TOTALAVG TEMPAVG PRESSURE GPRESSURE VOLUME PRESSAVG GPRESSAVG
ENERGY: 0 2.1258 6.9979 5.5538 0.0000 -10660.2717 1453.4996 0.0000 0.0000 1787.8853 -7404.2093 306.0741 -9192.0946 -7404.2093 306.0741 362.6550 443.8120 29849.2693 362.6550 443.8120
ENERGY: 300000 1.6607 7.3107 5.0610 0.0000 -10826.6131 1523.0162 0.0000 0.0000 1863.2783 -7426.2863 318.9809 -9289.5646 -7405.8751 307.3450 269.4964 349.9828 30340.6455 319.9223 385.6375
ENERGY: 600000 2.0872 6.9886 5.6981 0.0000 -10561.7515 1457.7549 0.0000 0.0000 1733.6876 -7355.5350 296.7958 -9089.2226 -7415.0227 304.3226 407.8815 484.7921 30135.9074 133.1489 197.2124
ENERGY: 900000 4.9105 8.0336 6.0700 0.0000 -10665.3236 1432.2363 0.0000 0.0000 1800.9434 -7413.1298 308.3096 -9214.0733 -7412.2790 305.5638 -77.0810 29.2321 30304.8684 165.3627 235.5510
ENERGY: 1200000 4.8866 8.3933 5.9182 0.0000 -10483.9822 1331.5465 0.0000 0.0000 1785.9634 -7347.2741 305.7451 -9133.2375 -7415.1522 305.6347 -887.9104 -817.4780 30697.2407 43.1145 116.4092
ENERGY: 1500000 2.3986 7.1588 5.0250 0.0000 -10692.6896 1441.9456 0.0000 0.0000 1785.4535 -7450.7081 305.6578 -9236.1616 -7423.7117 304.7409 376.7101 419.4943 29867.0035 15.6346 84.0391
TCL: Running FEP window  11: Lambda1 0.49999999999999994 Lambda2 0.5499999999999999 [dLambda 0.04999999999999999]
TCL: Setting parameter firsttimestep to 0
TCL: Setting parameter alchLambda to 0.49999999999999994
Info: NONBONDED TABLE R-SQUARED SPACING: 0.0625
Info: NONBONDED TABLE SIZE: 705 POINTS
TCL: Setting parameter alchLambda2 to 0.5499999999999999
Info: NONBONDED TABLE R-SQUARED SPACING: 0.0625
Info: NONBONDED TABLE SIZE: 705 POINTS
TCL: Running for 1500000 steps
ETITLE: TS BOND ANGLE DIHED IMPRP ELECT VDW BOUNDARY MISC KINETIC TOTAL TEMP POTENTIAL TOTALAVG TEMPAVG PRESSURE GPRESSURE VOLUME PRESSAVG GPRESSAVG
ENERGY: 0 2.3986 7.1588 5.0250 0.0000 -10692.6892 1441.3350 0.0000 0.0000 1784.5727 -7452.1992 305.5070 -9236.7719 -7452.1992 305.5070 336.5128 419.1088 29867.0035 336.5128 419.1088
ENERGY: 300000 2.7747 5.2009 4.9378 0.0000 -10666.4609 1447.2119 0.0000 0.0000 1758.1094 -7448.2261 300.9767 -9206.3355 -7426.7882 304.7416 -154.4105 -50.8547 30487.8311 -68.7957 4.8557
ENERGY: 600000 0.9441 8.9368 6.5577 0.0000 -10589.8519 1369.4570 0.0000 0.0000 1767.3706 -7436.5858 302.5621 -9203.9564 -7435.9060 301.7559 -364.8019 -286.3837 29921.9938 17.4715 87.1408
ENERGY: 900000 2.7764 6.1004 5.9243 0.0000 -10647.1654 1395.8499 0.0000 0.0000 1769.1743 -7467.3401 302.8709 -9236.5144 -7432.7435 302.7200 -77.1026 -17.4445 29883.1870 -77.8203 -8.4383
ENERGY: 1200000 1.6555 7.1073 6.2108 0.0000 -10756.4994 1497.9452 0.0000 0.0000 1727.7436 -7515.8370 295.7782 -9243.5806 -7434.3750 302.0458 370.8379 454.1402 30019.5481 82.5257 150.5371
ENERGY: 1500000 1.3273 7.2453 5.5318 0.0000 -10512.0989 1404.0161 0.0000 0.0000 1779.7489 -7314.2295 304.6812 -9093.9784 -7425.2864 301.9130 -71.9015 13.0843 30331.4079 28.9155 100.6577
TCL: Running FEP window  12: Lambda1 0.5499999999999999 Lambda2 0.6    [dLambda 0.050000000000000044]
TCL: Setting parameter firsttimestep to 0
TCL: Setting parameter alchLambda to 0.5499999999999999
Info: NONBONDED TABLE R-SQUARED SPACING: 0.0625
Info: NONBONDED TABLE SIZE: 705 POINTS
TCL: Setting parameter alchLambda2 to 0.6
Info: NONBONDED TABLE R-SQUARED SPACING: 0.0625
Info: NONBONDED TABLE SIZE: 705 POINTS
TCL: Running for 1500000 steps
ETITLE: TS BOND ANGLE DIHED IMPRP ELECT VDW BOUNDARY MISC KINETIC TOTAL TEMP POTENTIAL TOTALAVG TEMPAVG PRESSURE GPRESSURE VOLUME PRESSAVG GPRESSAVG
ENERGY: 0 1.3273 7.2453 5.5318 0.0000 -10512.1650 1404.1752 0.0000 0.0000 1778.8913 -7314.9942 304.5344 -9093.8855 -7314.9942 304.5344 -61.7139 19.6021 30331.4079 -61.7139 19.6021
ENERGY: 300000 1.9312 5.9604 6.1326 0.0000 -10624.5146 1438.6775 0.0000 0.0000 1706.4356 -7465.3773 292.1304 -9171.8129 -7437.6394 299.8637 14.0513 79.6906 30437.0372 129.2605 208.5021
ENERGY: 600000 1.6871 5.3560 5.4601 0.0000 -10670.0365 1467.4723 0.0000 0.0000 1746.3360 -7443.7250 298.9611 -9190.0610 -7428.1676 300.6052 355.2138 486.0525 30040.0001 189.5450 283.7946
ENERGY: 900000 1.2036 7.8948 6.3429 0.0000 -10619.6816 1457.7440 0.0000 0.0000 1790.3779 -7356.1183 306.5008 -9146.4962 -7428.1234 300.8557 323.7065 403.5784 30386.8003 141.6854 221.4767
ENERGY: 1200000 0.7230 4.8554 5.7600 0.0000 -10614.1240 1373.3227 0.0000 0.0000 1719.5291 -7509.9338 294.3720 -9229.4629 -7437.1428 299.6341 -606.9074 -521.8404 29963.1339 116.9634 194.3510
ENERGY: 1500000 3.8576 10.0088 5.1002 0.0000 -10929.1895 1624.1891 0.0000 0.0000 1743.7767 -7542.2570 298.5230 -9286.0337 -7439.8825 299.5251 1164.1437 1274.0167 30191.1555 229.8027 307.0420
TCL: Running FEP window  13: Lambda1 0.6    Lambda2 0.65   [dLambda 0.050000000000000044]
TCL: Setting parameter firsttimestep to 0
TCL: Setting parameter alchLambda to 0.6
Info: NONBONDED TABLE R-SQUARED SPACING: 0.0625
Info: NONBONDED TABLE SIZE: 705 POINTS
TCL: Setting parameter alchLambda2 to 0.65
Info: NONBONDED TABLE R-SQUARED SPACING: 0.0625
Info: NONBONDED TABLE SIZE: 705 POINTS
TCL: Running for 1500000 steps
ETITLE: TS BOND ANGLE DIHED IMPRP ELECT VDW BOUNDARY MISC KINETIC TOTAL TEMP POTENTIAL TOTALAVG TEMPAVG PRESSURE GPRESSURE VOLUME PRESSAVG GPRESSAVG
ENERGY: 0 3.8577 10.0088 5.1002 0.0000 -10929.4173 1623.7643 0.0000 0.0000 1742.9141 -7543.7721 298.3753 -9286.6862 -7543.7721 298.3753 1185.6781 1272.5433 30191.1555 1185.6781 1272.5433
ENERGY: 300000 1.3984 7.7035 5.9704 0.0000 -10501.2513 1358.1960 0.0000 0.0000 1763.2922 -7364.6908 301.8639 -9127.9829 -7449.3950 300.7965 -628.8842 -533.3693 30767.0471 85.0567 170.3339
ENERGY: 600000 1.5222 6.8526 5.6489 0.0000 -10494.3826 1342.5310 0.0000 0.0000 1685.5151 -7452.3127 288.5490 -9137.8279 -7451.9754 297.4277 -575.9325 -514.0950 30198.6386 -182.6475 -111.2296
ENERGY: 900000 2.6972 8.5736 5.5340 0.0000 -10756.0391 1502.7968 0.0000 0.0000 1736.6295 -7499.8081 297.2994 -9236.4376 -7442.4606 299.0287 569.8353 616.4135 29795.7670 43.9544 113.8480
ENERGY: 1200000 0.5051 7.1478 5.9041 0.0000 -10581.2895 1378.0968 0.0000 0.0000 1711.8519 -7477.7837 293.0577 -9189.6355 -7447.0989 298.2769 -295.2071 -240.6851 29973.4589 13.0756 82.9105
ENERGY: 1500000 3.4159 5.5552 5.1639 0.0000 -10555.3128 1405.3460 0.0000 0.0000 1759.3762 -7376.4556 301.1935 -9135.8318 -7444.2276 298.2893 62.1006 76.3029 30030.2235 15.3755 81.0679
TCL: Running FEP window  14: Lambda1 0.65   Lambda2 0.7000000000000001 [dLambda 0.050000000000000044]
TCL: Setting parameter firsttimestep to 0
TCL: Setting parameter alchLambda to 0.65
Info: NONBONDED TABLE R-SQUARED SPACING: 0.0625
Info: NONBONDED TABLE SIZE: 705 POINTS
TCL: Setting parameter alchLambda2 to 0.7000000000000001
Info: NONBONDED TABLE R-SQUARED SPACING: 0.0625
Info: NONBONDED TABLE SIZE: 705 POINTS
TCL: Running for 1500000 steps
ETITLE: TS BOND ANGLE DIHED IMPRP ELECT VDW BOUNDARY MISC KINETIC TOTAL TEMP POTENTIAL TOTALAVG TEMPAVG PRESSURE GPRESSURE VOLUME PRESSAVG GPRESSAVG
ENERGY: 0 3.4159 5.5552 5.1639 0.0000 -10555.7090 1405.4073 0.0000 0.0000 1758.5161 -7377.6506 301.0463 -9136.1666 -7377.6506 301.0463 7.9948 83.2956 30030.2235 7.9948 83.2956
ENERGY: 300000 2.6950 7.5214 6.6135 0.0000 -10649.0609 1413.8903 0.0000 0.0000 1784.0921 -7434.2485 305.4247 -9218.3406 -7477.2170 296.3317 -135.1471 -68.9630 30248.0205 -8.4736 51.7833
ENERGY: 600000 2.4292 8.1394 6.0025 0.0000 -10807.9790 1548.9325 0.0000 0.0000 1768.2136 -7474.2618 302.7064 -9242.4754 -7478.9724 297.3974 747.8517 776.3780 30255.9615 29.1849 84.8697
ENERGY: 900000 2.6526 8.0519 4.9681 0.0000 -10630.6667 1376.6155 0.0000 0.0000 1736.2602 -7502.1185 297.2362 -9238.3787 -7462.0533 297.7523 -707.9737 -560.0411 30263.1940 -100.0730 -41.1085
ENERGY: 1200000 3.7074 7.4449 6.6473 0.0000 -10675.8266 1457.8311 0.0000 0.0000 1776.2587 -7423.9373 304.0837 -9200.1959 -7454.4864 299.1741 -84.2363 -35.0416 30709.6462 -193.2311 -138.7433
ENERGY: 1500000 1.4397 6.7630 5.4423 0.0000 -10542.6059 1378.6478 0.0000 0.0000 1747.4313 -7402.8818 299.1486 -9150.3131 -7444.2006 298.6981 -433.2441 -392.6609 30538.8055 -192.5683 -142.3496
TCL: Running FEP window  15: Lambda1 0.7000000000000001 Lambda2 0.7500000000000001 [dLambda 0.050000000000000044]
TCL: Setting parameter firsttimestep to 0
TCL: Setting parameter alchLambda to 0.7000000000000001
Info: NONBONDED TABLE R-SQUARED SPACING: 0.0625
Info: NONBONDED TABLE SIZE: 705 POINTS
TCL: Setting parameter alchLambda2 to 0.7500000000000001
Info: NONBONDED TABLE R-SQUARED SPACING: 0.0625
Info: NONBONDED TABLE SIZE: 705 POINTS
TCL: Running for 1500000 steps
ETITLE: TS BOND ANGLE DIHED IMPRP ELECT VDW BOUNDARY MISC KINETIC TOTAL TEMP POTENTIAL TOTALAVG TEMPAVG PRESSURE GPRESSURE VOLUME PRESSAVG GPRESSAVG
ENERGY: 0 1.4397 6.7630 5.4423 0.0000 -10543.7500 1378.7892 0.0000 0.0000 1746.5530 -7404.7628 298.9983 -9151.3158 -7404.7628 298.9983 -462.9373 -385.5482 30538.8055 -462.9373 -385.5482
ENERGY: 300000 0.8131 5.5744 6.4969 0.0000 -10769.2788 1481.3021 0.0000 0.0000 1723.8644 -7551.2279 295.1141 -9275.0923 -7454.2024 300.3171 230.8452 288.5931 29991.9720 -247.5454 -190.2302
ENERGY: 600000 2.1174 6.8492 5.7135 0.0000 -10659.3883 1493.8567 0.0000 0.0000 1794.4863 -7356.3652 307.2042 -9150.8515 -7447.4565 300.1358 556.4984 633.2987 30184.1091 -173.2028 -108.9738
ENERGY: 900000 0.9994 5.6641 5.2148 0.0000 -10692.3435 1480.1045 0.0000 0.0000 1771.8873 -7428.4735 303.3353 -9200.3607 -7443.2716 300.8671 176.0708 227.7492 30526.6460 -121.3670 -61.0295
ENERGY: 1200000 0.0769 8.2390 6.3424 0.0000 -10561.2463 1424.3993 0.0000 0.0000 1762.9589 -7359.2298 301.8069 -9122.1888 -7451.9834 299.0087 135.8324 199.8425 30239.3756 -68.3731 -13.4365
ENERGY: 1500000 1.3249 6.4613 5.9703 0.0000 -10686.8988 1464.4688 0.0000 0.0000 1761.2985 -7447.3751 301.5226 -9208.6735 -7453.0085 299.5809 211.2579 254.8721 30291.8400 -121.1016 -63.0394
TCL: Running FEP window  16: Lambda1 0.7500000000000001 Lambda2 0.8000000000000002 [dLambda 0.050000000000000044]
TCL: Setting parameter firsttimestep to 0
TCL: Setting parameter alchLambda to 0.7500000000000001
Info: NONBONDED TABLE R-SQUARED SPACING: 0.0625
Info: NONBONDED TABLE SIZE: 705 POINTS
TCL: Setting parameter alchLambda2 to 0.8000000000000002
Info: NONBONDED TABLE R-SQUARED SPACING: 0.0625
Info: NONBONDED TABLE SIZE: 705 POINTS
TCL: Running for 1500000 steps
ETITLE: TS BOND ANGLE DIHED IMPRP ELECT VDW BOUNDARY MISC KINETIC TOTAL TEMP POTENTIAL TOTALAVG TEMPAVG PRESSURE GPRESSURE VOLUME PRESSAVG GPRESSAVG
ENERGY: 0 1.3249 6.4613 5.9703 0.0000 -10687.5728 1465.0056 0.0000 0.0000 1760.4209 -7448.3898 301.3724 -9208.8107 -7448.3898 301.3724 198.7257 268.4140 30291.8400 198.7257 268.4140
ENERGY: 300000 1.8414 7.0121 6.0064 0.0000 -10631.1479 1394.9198 0.0000 0.0000 1741.3006 -7480.0675 298.0991 -9221.3681 -7467.9632 298.4287 -459.9687 -416.6703 30362.1140 -57.6794 -8.9235
ENERGY: 600000 4.5069 8.5937 6.4931 0.0000 -10664.2482 1439.8533 0.0000 0.0000 1792.6559 -7412.1453 306.8908 -9204.8012 -7449.4501 299.6359 -60.2846 8.1517 30252.6539 -241.1092 -176.1183
ENERGY: 900000 0.9048 8.1178 5.5778 0.0000 -10709.4347 1416.7083 0.0000 0.0000 1778.6537 -7499.4723 304.4937 -9278.1261 -7444.7468 301.3722 -410.7290 -324.4845 30357.9280 -201.0760 -131.2160
ENERGY: 1200000 0.7464 6.0770 5.6383 0.0000 -10625.2359 1429.2784 0.0000 0.0000 1781.6526 -7401.8431 305.0071 -9183.4958 -7443.3384 300.3026 -196.5757 -195.9321 30672.6396 -73.2611 -15.5570
ENERGY: 1500000 0.8574 5.9945 6.1827 0.0000 -10726.3894 1511.3460 0.0000 0.0000 1764.6062 -7437.4025 302.0889 -9202.0087 -7439.2399 300.7749 902.7208 982.2399 29666.7326 22.9876 86.9600
TCL: Running FEP window  17: Lambda1 0.8000000000000002 Lambda2 0.8500000000000002 [dLambda 0.050000000000000044]
TCL: Setting parameter firsttimestep to 0
TCL: Setting parameter alchLambda to 0.8000000000000002
Info: NONBONDED TABLE R-SQUARED SPACING: 0.0625
Info: NONBONDED TABLE SIZE: 705 POINTS
TCL: Setting parameter alchLambda2 to 0.8500000000000002
Info: NONBONDED TABLE R-SQUARED SPACING: 0.0625
Info: NONBONDED TABLE SIZE: 705 POINTS
TCL: Running for 1500000 steps
ETITLE: TS BOND ANGLE DIHED IMPRP ELECT VDW BOUNDARY MISC KINETIC TOTAL TEMP POTENTIAL TOTALAVG TEMPAVG PRESSURE GPRESSURE VOLUME PRESSAVG GPRESSAVG
ENERGY: 0 0.8574 5.9945 6.1827 0.0000 -10727.9028 1511.5781 0.0000 0.0000 1763.7428 -7439.5473 301.9411 -9203.2901 -7439.5473 301.9411 898.7401 992.6761 29666.7326 898.7401 992.6761
ENERGY: 300000 2.3625 6.1615 6.1427 0.0000 -10697.6436 1493.3568 0.0000 0.0000 1754.8033 -7434.8168 300.4107 -9189.6201 -7448.1004 300.0013 185.8670 206.9347 30622.2529 350.2780 405.2876
ENERGY: 600000 2.7238 3.7890 6.1367 0.0000 -10752.4745 1451.3384 0.0000 0.0000 1772.5721 -7515.9145 303.4526 -9288.4866 -7456.7796 301.4947 61.6925 170.8220 30006.1750 125.7807 189.7071
ENERGY: 900000 2.7126 5.6283 5.5744 0.0000 -10665.6423 1444.1092 0.0000 0.0000 1652.0064 -7555.6114 282.8125 -9207.6178 -7448.7287 300.0621 70.7753 109.6858 30154.4152 251.1738 312.6303
ENERGY: 1200000 1.2912 6.7101 7.0960 0.0000 -10620.2815 1451.7137 0.0000 0.0000 1801.9376 -7351.5328 308.4798 -9153.4704 -7434.6854 300.8233 143.6483 256.0838 30582.5223 189.2720 251.2840
ENERGY: 1500000 5.6390 10.4816 5.4181 0.0000 -10577.1866 1388.7377 0.0000 0.0000 1742.6781 -7424.2320 298.3349 -9166.9102 -7441.4965 300.6638 -280.3473 -266.6711 30216.8875 146.0361 206.4358
TCL: Running FEP window  18: Lambda1 0.8500000000000002 Lambda2 0.9000000000000002 [dLambda 0.050000000000000044]
TCL: Setting parameter firsttimestep to 0
TCL: Setting parameter alchLambda to 0.8500000000000002
Info: NONBONDED TABLE R-SQUARED SPACING: 0.0625
Info: NONBONDED TABLE SIZE: 705 POINTS
TCL: Setting parameter alchLambda2 to 0.9000000000000002
Info: NONBONDED TABLE R-SQUARED SPACING: 0.0625
Info: NONBONDED TABLE SIZE: 705 POINTS
TCL: Running for 1500000 steps
ETITLE: TS BOND ANGLE DIHED IMPRP ELECT VDW BOUNDARY MISC KINETIC TOTAL TEMP POTENTIAL TOTALAVG TEMPAVG PRESSURE GPRESSURE VOLUME PRESSAVG GPRESSAVG
ENERGY: 0 5.6390 10.4816 5.4181 0.0000 -10577.8992 1390.0398 0.0000 0.0000 1741.7988 -7424.5219 298.1844 -9166.3207 -7424.5219 298.1844 -313.0924 -242.9568 30216.8875 -313.0924 -242.9568
ENERGY: 300000 3.3739 9.0376 5.1583 0.0000 -10686.7738 1481.3366 0.0000 0.0000 1775.1268 -7412.7406 303.8899 -9187.8675 -7471.4596 299.0482 515.5776 582.1109 30067.1199 104.5748 163.6817
ENERGY: 600000 2.4046 10.5557 5.9926 0.0000 -10616.2970 1404.0136 0.0000 0.0000 1804.3270 -7389.0034 308.8888 -9193.3304 -7448.7999 299.2661 -347.2280 -222.5096 30724.0943 -77.7881 0.5086
ENERGY: 900000 1.6533 4.8759 7.1056 0.0000 -10556.1486 1373.4980 0.0000 0.0000 1788.7363 -7380.2795 306.2198 -9169.0158 -7430.3969 299.9250 -227.0771 -220.7738 30307.2135 -162.9841 -90.4383
ENERGY: 1200000 1.8841 7.1488 5.7790 0.0000 -10782.2311 1491.8311 0.0000 0.0000 1779.2104 -7496.3776 304.5890 -9275.5880 -7437.9846 301.1241 493.7807 640.0638 29682.8499 -67.3758 3.4147
ENERGY: 1500000 1.7958 11.7867 6.1105 0.0000 -10564.2378 1376.0562 0.0000 0.0000 1754.6201 -7413.8684 300.3793 -9168.4884 -7431.9254 301.4634 -314.4773 -266.2191 30528.3710 -17.2751 48.8853
TCL: Running FEP window  19: Lambda1 0.9000000000000002 Lambda2 0.9500000000000003 [dLambda 0.050000000000000044]
TCL: Setting parameter firsttimestep to 0
TCL: Setting parameter alchLambda to 0.9000000000000002
Info: NONBONDED TABLE R-SQUARED SPACING: 0.0625
Info: NONBONDED TABLE SIZE: 705 POINTS
TCL: Setting parameter alchLambda2 to 0.9500000000000003
Info: NONBONDED TABLE R-SQUARED SPACING: 0.0625
Info: NONBONDED TABLE SIZE: 705 POINTS
TCL: Running for 1500000 steps
ETITLE: TS BOND ANGLE DIHED IMPRP ELECT VDW BOUNDARY MISC KINETIC TOTAL TEMP POTENTIAL TOTALAVG TEMPAVG PRESSURE GPRESSURE VOLUME PRESSAVG GPRESSAVG
ENERGY: 0 1.7958 11.7867 6.1105 0.0000 -10565.4124 1376.1151 0.0000 0.0000 1753.7116 -7415.8926 300.2238 -9169.6042 -7415.8926 300.2238 -344.2413 -254.1854 30528.3710 -344.2413 -254.1854
ENERGY: 300000 0.8720 5.7047 5.8888 0.0000 -10573.4768 1324.5007 0.0000 0.0000 1792.1156 -7444.3950 306.7983 -9236.5106 -7443.5099 299.7619 -796.3554 -742.5293 30005.7118 -506.7233 -447.2171
ENERGY: 600000 1.0016 8.1526 5.4973 0.0000 -10494.7523 1334.9717 0.0000 0.0000 1768.7190 -7376.4101 302.7930 -9145.1291 -7417.0985 301.5633 -578.7246 -533.8967 30489.1253 -409.5748 -363.1326
ENERGY: 900000 2.5394 10.2860 6.2048 0.0000 -10616.3374 1382.7812 0.0000 0.0000 1727.4724 -7487.0536 295.7318 -9214.5260 -7440.0801 299.8152 -504.9997 -533.6085 30679.5442 -374.2439 -326.3159
ENERGY: 1200000 2.2293 7.1579 6.1272 0.0000 -10601.8504 1400.2831 0.0000 0.0000 1744.8061 -7441.2468 298.6992 -9186.0529 -7449.2502 299.8736 -197.3981 -65.2121 30390.1970 -311.8654 -260.3686
ENERGY: 1500000 1.4714 8.8985 6.5829 0.0000 -10670.6256 1495.7647 0.0000 0.0000 1737.2654 -7420.6426 297.4083 -9157.9080 -7444.3901 299.6983 657.8312 688.1984 30175.3219 -138.5866 -87.4184
TCL: Running FEP window  20: Lambda1 0.9500000000000003 Lambda2 1.0    [dLambda 0.04999999999999971]
TCL: Setting parameter firsttimestep to 0
TCL: Setting parameter alchLambda to 0.9500000000000003
Info: NONBONDED TABLE R-SQUARED SPACING: 0.0625
Info: NONBONDED TABLE SIZE: 705 POINTS
TCL: Setting parameter alchLambda2 to 1.0
Info: NONBONDED TABLE R-SQUARED SPACING: 0.0625
Info: NONBONDED TABLE SIZE: 705 POINTS
TCL: Running for 1500000 steps
ETITLE: TS BOND ANGLE DIHED IMPRP ELECT VDW BOUNDARY MISC KINETIC TOTAL TEMP POTENTIAL TOTALAVG TEMPAVG PRESSURE GPRESSURE VOLUME PRESSAVG GPRESSAVG
ENERGY: 0 1.4714 8.8985 6.5829 0.0000 -10671.8337 1496.1419 0.0000 0.0000 1736.3785 -7422.3605 297.2565 -9158.7389 -7422.3605 297.2565 620.7020 702.6174 30175.3219 620.7020 702.6174
ENERGY: 300000 2.0684 8.9951 5.6941 0.0000 -10605.5312 1404.3453 0.0000 0.0000 1780.6419 -7403.7864 304.8341 -9184.4283 -7389.6483 300.7421 -260.3502 -189.6590 30584.5061 -40.1294 40.3519
ENERGY: 600000 2.0172 10.4445 5.9224 0.0000 -10519.2106 1337.0028 0.0000 0.0000 1769.2541 -7394.5696 302.8846 -9163.8238 -7396.6005 301.4083 -467.3001 -442.9938 30070.2981 -304.7920 -236.7380
ENERGY: 900000 2.6907 6.2878 5.3827 0.0000 -10528.5388 1340.0602 0.0000 0.0000 1745.7411 -7428.3762 298.8593 -9174.1174 -7412.8438 300.9953 -789.7010 -692.6594 30029.4279 -268.5974 -208.4705
ENERGY: 1200000 1.4125 6.1231 4.8317 0.0000 -10548.6781 1392.6434 0.0000 0.0000 1752.9867 -7390.6807 300.0997 -9143.6674 -7408.8368 301.7888 -352.2489 -228.3726 30537.9170 -325.5976 -266.7447
ENERGY: 1500000 1.5191 10.6654 5.5445 0.0000 -10693.8777 1516.4941 0.0000 0.0000 1725.3672 -7434.2874 295.3714 -9159.6546 -7416.6942 300.8094 784.0878 754.0281 30376.4441 -162.1679 -107.9142
TCL: Exiting due to exit command.
