Info: SIMULATION PARAMETERS:
Info: TIMESTEP               2
Info: NUMBER OF STEPS        0
Info: STEPS PER CYCLE        10
Info: PERIODIC CELL BASIS 1  30.4148 0 0
Info: PERIODIC CELL BASIS 2  0 31.3573 0
Info: PERIODIC CELL BASIS 3  0 0 31.7627
Info: PERIODIC CELL CENTER   0 0 0
Info: WRAPPING WATERS AROUND PERIODIC BOUNDARIES ON OUTPUT.
Info: WRAPPING ALL CLUSTERS AROUND PERIODIC BOUNDARIES ON OUTPUT.
Info: FIRST LDB TIMESTEP     50
Info: LAST LDB TIMESTEP     -1
Info: HOM BACKGROUND SCALING 1
Info: PME BACKGROUND SCALING 1
Info: MIN ATOMS PER PATCH    40
Info: EMPTY PATCH LOAD       40 ATOMS
Info: VELOCITY FILE          mobley_2972906_equil.vel
Info: CENTER OF MASS MOVING INITIALLY? NO
Info: DIELECTRIC             1
Info: EXCLUDE                SCALED ONE-FOUR
Info: 1-4 ELECTROSTATICS SCALED BY 0.833333
Info: MODIFIED 1-4 VDW PARAMETERS WILL BE USED
Info: DCD FILENAME           mobley_2972906_prod.dcd
Info: DCD FREQUENCY          100000
Info: DCD FIRST STEP         100000
Info: DCD FILE WILL CONTAIN UNIT CELL DATA
Info: XST FILENAME           mobley_2972906_prod.xst
Info: XST FREQUENCY          100000
Info: NO VELOCITY DCD OUTPUT
Info: NO FORCE DCD OUTPUT
Info: OUTPUT FILENAME        mobley_2972906_prod
Info: BINARY OUTPUT FILES WILL BE USED
Info: RESTART FILENAME       mobley_2972906_prod.restart
Info: RESTART FREQUENCY      100000
Info: BINARY RESTART FILES WILL BE USED
Info: CUTOFF                 9
Info: PAIRLIST DISTANCE      11
Info: PAIRLIST SHRINK RATE   0.01
Info: PAIRLIST GROW RATE     0.01
Info: PAIRLIST TRIGGER       0.3
Info: PAIRLISTS PER CYCLE    2
Info: PAIRLISTS ENABLED
Info: MARGIN                 2
Info: HYDROGEN GROUP CUTOFF  2.5
Info: PATCH DIMENSION        15.5
Info: ENERGY OUTPUT STEPS    100000
Info: ENERGY EVALUATION STEPS    100000
Info: OUTPUT ENERGY PRECISION 4
Info: CROSSTERM ENERGY INCLUDED IN DIHEDRAL
Info: TIMING OUTPUT STEPS    1000000
Info: PRESSURE OUTPUT STEPS  100000
Info: ALCHEMICAL FEP ON
Info: FEP CURRENT LAMBDA VALUE     0
Info: FEP COMPARISON LAMBDA VALUE  0.05
Info: FEP INTRA-ALCHEMICAL NON-BONDED INTERACTIONS WILL BE RETAINED
Info: FEP INTRA-ALCHEMICAL BONDED INTERACTIONS WILL BE RETAINED
Info: FEP VDW SHIFTING COEFFICIENT 5
Info: FEP ELEC. ACTIVE FOR ANNIHILATED PARTICLES BETWEEN LAMBDA = 0 AND LAMBDA = 0.5
Info: FEP ELEC. ACTIVE FOR EXNIHILATED PARTICLES BETWEEN LAMBDA = 0.5 AND LAMBDA = 1
Info: FEP VDW ACTIVE FOR ANNIHILATED PARTICLES BETWEEN LAMBDA = 0 AND LAMBDA = 1
Info: FEP VDW ACTIVE FOR EXNIHILATED PARTICLES BETWEEN LAMBDA = 0 AND LAMBDA = 1
Info: FEP BOND ACTIVE FOR ANNIHILATED PARTICLES BETWEEN LAMBDA = 1 AND LAMBDA = 1
Info: FEP BOND ACTIVE FOR EXNIHILATED PARTICLES BETWEEN LAMBDA = 0 AND LAMBDA = 0
Info: LANGEVIN DYNAMICS ACTIVE
Info: LANGEVIN TEMPERATURE   300
Info: LANGEVIN USING BBK INTEGRATOR
Info: LANGEVIN DAMPING COEFFICIENT IS 1 INVERSE PS
Info: LANGEVIN DYNAMICS APPLIED TO HYDROGENS
Info: LANGEVIN PISTON PRESSURE CONTROL ACTIVE
Info:        TARGET PRESSURE IS 1.01325 BAR
Info:     OSCILLATION PERIOD IS 50 FS
Info:             DECAY TIME IS 25 FS
Info:     PISTON TEMPERATURE IS 300 K
Info:       PRESSURE CONTROL IS GROUP-BASED
Info:    INITIAL STRAIN RATE IS -0.000321417 -0.000321417 -0.000321417
Info:       CELL FLUCTUATION IS ISOTROPIC
Info: PARTICLE MESH EWALD (PME) ACTIVE
Info: PME TOLERANCE               1e-06
Info: PME EWALD COEFFICIENT       0.348832
Info: PME INTERPOLATION ORDER     4
Info: PME GRID DIMENSIONS         32 32 32
Info: PME MAXIMUM GRID SPACING    1
Info: PME CALCULATION WILL BE PERFORMED ON GPU
Info: FULL ELECTROSTATIC EVALUATION FREQUENCY      2
Info: USING VERLET I (r-RESPA) MTS SCHEME.
Info: C1 SPLITTING OF LONG RANGE ELECTROSTATICS
Info: PLACING ATOMS IN PATCHES BY HYDROGEN GROUPS
Info: RIGID BONDS TO HYDROGEN : ALL
Info:         ERROR TOLERANCE : 1e-08
Info:          MAX ITERATIONS : 100
Info: RIGID WATER USING SETTLE ALGORITHM
Info: RANDOM NUMBER SEED     1743496548
Info: USE HYDROGEN BONDS?    NO
Info: Using AMBER format force field!
Info: AMBER PARM FILE        mobley_2972906.prmtop
Info: COORDINATE PDB         mobley_2972906.pdb
Info: Exclusions will be read from PARM file!
Info: SCNB (VDW SCALING)     2
Info: USING ARITHMETIC MEAN TO COMBINE L-J SIGMA PARAMETERS
Info: BINARY COORDINATES     mobley_2972906_equil.coor
Info: SUMMARY OF PARAMETERS:
Info: 7 BONDS
Info: 7 ANGLES
Info:   7 HARMONIC
Info:   0 COSINE-BASED
Info: 3 DIHEDRAL
Info: 0 IMPROPER
Info: 0 CROSSTERM
Info: 0 VDW
Info: 21 VDW_PAIRS
Info: 0 NBTHOLE_PAIRS
Info: To read alchdata from file: mobley_2972906.pdb
Info: To read alchflag data from column: 5
Info: STRUCTURE SUMMARY:
Info: 2913 ATOMS
Info: 2913 BONDS
Info: 13 ANGLES
Info: 20 DIHEDRALS
Info: 0 IMPROPERS
Info: 0 CROSSTERMS
Info: 2937 EXCLUSIONS
Info: 2908 RIGID BONDS
Info: ALCH: 0 ATOMS TO DISAPPEAR IN FINAL STATE
Info: ALCH: 9 ATOMS TO APPEAR IN FINAL STATE
Info: 5831 DEGREES OF FREEDOM
Info: 973 HYDROGEN GROUPS
Info: 3 ATOMS IN LARGEST HYDROGEN GROUP
Info: 973 MIGRATION GROUPS
Info: 3 ATOMS IN LARGEST MIGRATION GROUP
Info: TOTAL MASS = 17523.6 amu
Info: TOTAL CHARGE = -0.000100012 e
Info: MASS DENSITY = 0.9606 g/cm^3
Info: ATOM DENSITY = 0.0961612 atoms/A^3
Info: ADDED 0 IMPLICIT EXCLUSIONS
Info: NONBONDED TABLE R-SQUARED SPACING: 0.0625
Info: NONBONDED TABLE SIZE: 705 POINTS
Info: REMOVING COM VELOCITY 0.0553809 -0.0958383 0.187897
Info: Use 3D box decompostion in PME FFT.
Info: Updated CUDA force table with 4096 elements.
Info: Updated CUDA LJ table with 6 x 6 elements.
Info: Found 11 unique exclusion lists needing 16 bytes
TCL: Running for 1500000 steps
ETITLE: TS BOND ANGLE DIHED IMPRP ELECT VDW BOUNDARY MISC KINETIC TOTAL TEMP POTENTIAL TOTALAVG TEMPAVG PRESSURE GPRESSURE VOLUME PRESSAVG GPRESSAVG
ENERGY: 0 2.5535 6.4400 1.3874 0.0000 -10529.7410 1425.8324 0.0000 0.0000 1768.6772 -7324.8505 305.2783 -9093.5277 -7324.8505 305.2783 77.1240 173.0487 30292.8708 77.1240 173.0487
ENERGY: 300000 0.5472 2.1420 3.3245 0.0000 -10671.7989 1479.1763 0.0000 0.0000 1716.4965 -7470.1124 296.2718 -9186.6088 -7406.8810 304.0259 327.9193 393.0012 29649.0263 -73.1875 12.1601
ENERGY: 600000 2.6381 1.5177 1.2805 0.0000 -10499.1612 1399.5162 0.0000 0.0000 1714.1015 -7380.1071 295.8584 -9094.2087 -7404.8575 300.7426 -156.6535 -35.3430 30216.9399 -15.2977 68.5148
ENERGY: 900000 0.7398 1.5243 1.9905 0.0000 -10491.4868 1406.6611 0.0000 0.0000 1736.8958 -7343.6753 299.7927 -9080.5711 -7396.5715 299.0860 -23.7279 66.9099 30132.5547 -108.1230 -30.2756
ENERGY: 1200000 5.3532 3.4679 1.7544 0.0000 -10559.6976 1420.8588 0.0000 0.0000 1724.2924 -7403.9709 297.6174 -9128.2633 -7393.9551 300.0273 102.1098 160.3637 29788.2835 -183.5530 -107.8880
ENERGY: 1500000 2.2058 2.7522 1.5039 0.0000 -10521.4412 1335.2387 0.0000 0.0000 1733.2272 -7446.5132 299.1595 -9179.7405 -7398.9182 299.6535 -825.1459 -798.9858 29775.1910 -246.2911 -174.7990
TCL: Running FEP window   2: Lambda1 0.05   Lambda2 0.1    [dLambda 0.05  ]
TCL: Setting parameter firsttimestep to 0
TCL: Setting parameter alchLambda to 0.05
Info: NONBONDED TABLE R-SQUARED SPACING: 0.0625
Info: NONBONDED TABLE SIZE: 705 POINTS
TCL: Setting parameter alchLambda2 to 0.1
Info: NONBONDED TABLE R-SQUARED SPACING: 0.0625
Info: NONBONDED TABLE SIZE: 705 POINTS
TCL: Running for 1500000 steps
ETITLE: TS BOND ANGLE DIHED IMPRP ELECT VDW BOUNDARY MISC KINETIC TOTAL TEMP POTENTIAL TOTALAVG TEMPAVG PRESSURE GPRESSURE VOLUME PRESSAVG GPRESSAVG
ENERGY: 0 2.2058 2.7522 1.5039 0.0000 -10521.4423 1337.5163 0.0000 0.0000 1732.3335 -7445.1306 299.0053 -9177.4641 -7445.1306 299.0053 -874.4574 -790.0498 29775.1910 -874.4574 -790.0498
ENERGY: 300000 1.5115 2.2036 1.3668 0.0000 -10504.1929 1414.4953 0.0000 0.0000 1742.2054 -7342.4102 300.7092 -9084.6156 -7389.7911 301.6524 -135.5233 -46.0277 30137.4331 -52.3637 -13.3746
ENERGY: 600000 0.5861 1.1110 0.5153 0.0000 -10599.4243 1488.9493 0.0000 0.0000 1682.0058 -7426.2567 290.3186 -9108.2625 -7398.7907 299.6034 804.3100 858.4634 29652.1515 8.0239 59.1053
ENERGY: 900000 3.2885 3.7378 1.5902 0.0000 -10580.7391 1453.2151 0.0000 0.0000 1764.6288 -7354.2788 304.5795 -9118.9076 -7392.5728 300.5553 335.5736 415.2825 30025.2728 92.2355 153.6246
ENERGY: 1200000 0.4627 1.5992 0.5597 0.0000 -10647.0334 1449.3280 0.0000 0.0000 1701.5047 -7493.5791 293.6841 -9195.0838 -7405.2225 299.4787 89.6310 172.3633 29801.2340 -22.4405 37.3196
ENERGY: 1500000 0.7795 1.3599 0.5292 0.0000 -10572.5394 1375.1218 0.0000 0.0000 1800.5116 -7394.2374 310.7730 -9194.7490 -7404.7586 299.6442 -607.3811 -548.4130 30050.8888 -43.0840 17.8886
TCL: Running FEP window   3: Lambda1 0.1    Lambda2 0.15000000000000002 [dLambda 0.05000000000000002]
TCL: Setting parameter firsttimestep to 0
TCL: Setting parameter alchLambda to 0.1
Info: NONBONDED TABLE R-SQUARED SPACING: 0.0625
Info: NONBONDED TABLE SIZE: 705 POINTS
TCL: Setting parameter alchLambda2 to 0.15000000000000002
Info: NONBONDED TABLE R-SQUARED SPACING: 0.0625
Info: NONBONDED TABLE SIZE: 705 POINTS
TCL: Running for 1500000 steps
ETITLE: TS BOND ANGLE DIHED IMPRP ELECT VDW BOUNDARY MISC KINETIC TOTAL TEMP POTENTIAL TOTALAVG TEMPAVG PRESSURE GPRESSURE VOLUME PRESSAVG GPRESSAVG
ENERGY: 0 0.7795 1.3599 0.5292 0.0000 -10572.5391 1375.8588 0.0000 0.0000 1799.6555 -7394.3563 310.6252 -9194.0117 -7394.3563 310.6252 -620.7088 -544.0820 30050.8888 -620.7088 -544.0820
ENERGY: 300000 0.2616 1.7559 2.2481 0.0000 -10531.3962 1355.5255 0.0000 0.0000 1725.0879 -7446.5171 297.7547 -9171.6050 -7398.9611 303.5056 -544.8536 -491.7662 29797.6689 -217.8178 -171.8196
ENERGY: 600000 1.0501 1.6607 2.0507 0.0000 -10542.0830 1406.9372 0.0000 0.0000 1723.3552 -7407.0291 297.4556 -9130.3842 -7402.9072 302.0755 77.5728 119.7920 29815.6696 154.4139 207.5391
ENERGY: 900000 2.0170 0.4777 1.6717 0.0000 -10499.9799 1376.6002 0.0000 0.0000 1708.9664 -7410.2470 294.9720 -9119.2134 -7408.2410 300.6997 -440.6680 -425.3926 29861.4019 213.9224 254.1433
ENERGY: 1200000 0.6951 2.6197 1.2292 0.0000 -10838.7169 1581.1125 0.0000 0.0000 1724.4430 -7528.6174 297.6434 -9253.0604 -7408.9174 301.0662 989.1111 1065.0600 29563.2586 215.7753 263.5724
ENERGY: 1500000 1.3892 1.5878 0.7112 0.0000 -10686.4863 1524.9228 0.0000 0.0000 1733.5349 -7424.3404 299.2126 -9157.8754 -7411.9013 301.4544 760.5013 769.8031 29848.7247 201.7268 251.9852
TCL: Running FEP window   4: Lambda1 0.15000000000000002 Lambda2 0.2    [dLambda 0.04999999999999999]
TCL: Setting parameter firsttimestep to 0
TCL: Setting parameter alchLambda to 0.15000000000000002
Info: NONBONDED TABLE R-SQUARED SPACING: 0.0625
Info: NONBONDED TABLE SIZE: 705 POINTS
TCL: Setting parameter alchLambda2 to 0.2
Info: NONBONDED TABLE R-SQUARED SPACING: 0.0625
Info: NONBONDED TABLE SIZE: 705 POINTS
TCL: Running for 1500000 steps
ETITLE: TS BOND ANGLE DIHED IMPRP ELECT VDW BOUNDARY MISC KINETIC TOTAL TEMP POTENTIAL TOTALAVG TEMPAVG PRESSURE GPRESSURE VOLUME PRESSAVG GPRESSAVG
ENERGY: 0 1.3892 1.5878 0.7112 0.0000 -10686.4868 1525.6015 0.0000 0.0000 1732.6445 -7424.5526 299.0590 -9157.1971 -7424.5526 299.0590 684.3764 770.0911 29848.7247 684.3764 770.0911
ENERGY: 300000 3.1139 1.1812 2.9443 0.0000 -10431.2974 1383.0507 0.0000 0.0000 1706.7555 -7334.2517 294.5905 -9041.0072 -7374.7454 300.3047 -26.8608 31.4364 30042.9637 309.5223 377.1565
ENERGY: 600000 0.9982 3.7888 3.9206 0.0000 -10613.1409 1417.8245 0.0000 0.0000 1678.8602 -7507.7486 289.7756 -9186.6088 -7402.4797 297.8271 0.3627 36.8880 29773.2867 190.0890 257.7748
ENERGY: 900000 2.6983 3.1638 1.5050 0.0000 -10540.3084 1383.4819 0.0000 0.0000 1732.5093 -7416.9502 299.0356 -9149.4594 -7408.8396 298.0046 -222.1137 -195.8633 29744.1512 181.6116 240.8994
ENERGY: 1200000 1.4555 2.2660 1.1392 0.0000 -10589.2364 1422.6397 0.0000 0.0000 1721.7442 -7439.9918 297.1775 -9161.7360 -7414.2874 298.4286 -56.7660 5.7444 29789.5689 37.3868 100.5667
ENERGY: 1500000 5.0176 2.7996 2.7471 0.0000 -10445.6251 1369.7473 0.0000 0.0000 1694.2453 -7371.0682 292.4312 -9065.3136 -7403.7057 298.9628 -692.3414 -598.7275 30164.3016 -32.6693 27.0879
TCL: Running FEP window   5: Lambda1 0.2    Lambda2 0.25   [dLambda 0.04999999999999999]
TCL: Setting parameter firsttimestep to 0
TCL: Setting parameter alchLambda to 0.2
Info: NONBONDED TABLE R-SQUARED SPACING: 0.0625
Info: NONBONDED TABLE SIZE: 705 POINTS
TCL: Setting parameter alchLambda2 to 0.25
Info: NONBONDED TABLE R-SQUARED SPACING: 0.0625
Info: NONBONDED TABLE SIZE: 705 POINTS
TCL: Running for 1500000 steps
ETITLE: TS BOND ANGLE DIHED IMPRP ELECT VDW BOUNDARY MISC KINETIC TOTAL TEMP POTENTIAL TOTALAVG TEMPAVG PRESSURE GPRESSURE VOLUME PRESSAVG GPRESSAVG
ENERGY: 0 5.0176 2.7996 2.7471 0.0000 -10445.6255 1370.1472 0.0000 0.0000 1693.4088 -7371.5053 292.2868 -9064.9141 -7371.5053 292.2868 -678.8114 -596.8364 30164.3016 -678.8114 -596.8364
ENERGY: 300000 1.0894 1.8178 1.4781 0.0000 -10484.2920 1357.3738 0.0000 0.0000 1691.0414 -7431.4915 291.8782 -9122.5329 -7359.5115 297.1622 -741.4520 -631.2733 30270.3497 -379.7691 -326.3006
ENERGY: 600000 3.8080 5.0054 2.4597 0.0000 -10473.4179 1318.7839 0.0000 0.0000 1712.7422 -7430.6186 295.6238 -9143.3609 -7352.8667 301.8372 -879.5391 -879.9590 30011.3406 -284.7511 -229.2787
ENERGY: 900000 0.9231 2.5669 2.8302 0.0000 -10627.0884 1431.1926 0.0000 0.0000 1771.7827 -7417.7929 305.8143 -9189.5757 -7378.6005 301.3196 -163.3947 -111.1132 29832.2142 -280.3900 -224.0081
ENERGY: 1200000 1.7731 10.2733 1.8460 0.0000 -10619.9269 1465.2283 0.0000 0.0000 1773.8054 -7367.0008 306.1634 -9140.8063 -7382.4107 301.5522 415.3290 432.5698 29991.1879 -215.0034 -156.1727
ENERGY: 1500000 4.1489 4.9283 4.7999 0.0000 -10527.4933 1421.2775 0.0000 0.0000 1747.5572 -7344.7816 301.6329 -9092.3388 -7387.6146 301.5743 -77.3013 -61.4623 30450.4471 -86.5094 -36.5543
TCL: Running FEP window   6: Lambda1 0.25   Lambda2 0.3    [dLambda 0.04999999999999999]
TCL: Setting parameter firsttimestep to 0
TCL: Setting parameter alchLambda to 0.25
Info: NONBONDED TABLE R-SQUARED SPACING: 0.0625
Info: NONBONDED TABLE SIZE: 705 POINTS
TCL: Setting parameter alchLambda2 to 0.3
Info: NONBONDED TABLE R-SQUARED SPACING: 0.0625
Info: NONBONDED TABLE SIZE: 705 POINTS
TCL: Running for 1500000 steps
ETITLE: TS BOND ANGLE DIHED IMPRP ELECT VDW BOUNDARY MISC KINETIC TOTAL TEMP POTENTIAL TOTALAVG TEMPAVG PRESSURE GPRESSURE VOLUME PRESSAVG GPRESSAVG
ENERGY: 0 4.1489 4.9283 4.7999 0.0000 -10527.4927 1422.1045 0.0000 0.0000 1746.6497 -7344.8615 301.4763 -9091.5112 -7344.8615 301.4763 -122.2808 -55.2397 30450.4471 -122.2808 -55.2397
ENERGY: 300000 3.6398 2.3370 1.2516 0.0000 -10639.1318 1434.8328 0.0000 0.0000 1698.2820 -7498.7887 293.1279 -9197.0706 -7427.7412 298.1784 -55.0111 1.6333 29762.5106 148.0223 229.0089
ENERGY: 600000 1.1339 4.5542 2.8546 0.0000 -10401.5250 1263.2786 0.0000 0.0000 1736.6866 -7393.0171 299.7566 -9129.7037 -7385.9573 300.8785 -1356.5545 -1272.6834 30472.9579 -141.0300 -51.2872
ENERGY: 900000 0.7321 1.5872 1.2641 0.0000 -10695.7555 1514.5335 0.0000 0.0000 1711.7799 -7465.8587 295.4577 -9177.6386 -7404.9941 299.1085 628.0062 744.1728 29765.1220 -48.9951 30.3976
ENERGY: 1200000 3.9697 2.0822 1.3910 0.0000 -10614.4917 1515.6276 0.0000 0.0000 1725.1047 -7366.3165 297.7576 -9091.4212 -7415.7524 298.2293 852.9853 851.9811 30277.1838 88.7943 161.3931
ENERGY: 1500000 1.0078 1.3583 1.8553 0.0000 -10570.2595 1441.7819 0.0000 0.0000 1752.5866 -7371.6695 302.5010 -9124.2562 -7407.8905 299.1186 -51.4896 64.6250 30206.1677 129.5825 202.2213
TCL: Running FEP window   7: Lambda1 0.3    Lambda2 0.35   [dLambda 0.04999999999999999]
TCL: Setting parameter firsttimestep to 0
TCL: Setting parameter alchLambda to 0.3
Info: NONBONDED TABLE R-SQUARED SPACING: 0.0625
Info: NONBONDED TABLE SIZE: 705 POINTS
TCL: Setting parameter alchLambda2 to 0.35
Info: NONBONDED TABLE R-SQUARED SPACING: 0.0625
Info: NONBONDED TABLE SIZE: 705 POINTS
TCL: Running for 1500000 steps
ETITLE: TS BOND ANGLE DIHED IMPRP ELECT VDW BOUNDARY MISC KINETIC TOTAL TEMP POTENTIAL TOTALAVG TEMPAVG PRESSURE GPRESSURE VOLUME PRESSAVG GPRESSAVG
ENERGY: 0 1.0078 1.3583 1.8553 0.0000 -10570.2578 1441.7768 0.0000 0.0000 1751.7388 -7372.5208 302.3547 -9124.2596 -7372.5208 302.3547 -34.3350 66.4896 30206.1677 -34.3350 66.4896
ENERGY: 300000 1.1707 0.9071 1.8923 0.0000 -10682.0953 1463.1381 0.0000 0.0000 1795.4055 -7419.5816 309.8917 -9214.9871 -7357.2514 303.2172 196.1480 216.6370 30119.2192 -385.8334 -307.5308
ENERGY: 600000 1.1132 2.0774 2.1176 0.0000 -10579.5589 1420.7057 0.0000 0.0000 1768.1478 -7385.3974 305.1869 -9153.5451 -7356.6158 304.0580 143.6740 150.6895 29685.2767 -244.4811 -176.5467
ENERGY: 900000 0.7288 0.9573 3.1057 0.0000 -10628.6520 1422.3628 0.0000 0.0000 1692.0204 -7509.4769 292.0471 -9201.4973 -7384.4770 302.8791 -375.7594 -340.7063 30408.2013 -229.0023 -162.2526
ENERGY: 1200000 1.0928 3.7803 1.8774 0.0000 -10490.2439 1356.3652 0.0000 0.0000 1788.1274 -7339.0007 308.6354 -9127.1282 -7384.2381 302.6781 -570.1885 -516.3324 29969.8345 -206.9755 -141.2819
ENERGY: 1500000 2.1428 0.6076 1.3571 0.0000 -10661.7807 1451.9036 0.0000 0.0000 1697.1379 -7508.6317 292.9304 -9205.7696 -7389.4572 301.5042 -63.6922 31.8071 29717.7421 -167.9016 -100.5812
TCL: Running FEP window   8: Lambda1 0.35   Lambda2 0.39999999999999997 [dLambda 0.04999999999999999]
TCL: Setting parameter firsttimestep to 0
TCL: Setting parameter alchLambda to 0.35
Info: NONBONDED TABLE R-SQUARED SPACING: 0.0625
Info: NONBONDED TABLE SIZE: 705 POINTS
TCL: Setting parameter alchLambda2 to 0.39999999999999997
Info: NONBONDED TABLE R-SQUARED SPACING: 0.0625
Info: NONBONDED TABLE SIZE: 705 POINTS
TCL: Running for 1500000 steps
ETITLE: TS BOND ANGLE DIHED IMPRP ELECT VDW BOUNDARY MISC KINETIC TOTAL TEMP POTENTIAL TOTALAVG TEMPAVG PRESSURE GPRESSURE VOLUME PRESSAVG GPRESSAVG
ENERGY: 0 2.1428 0.6076 1.3571 0.0000 -10661.7786 1451.7188 0.0000 0.0000 1696.2388 -7509.7134 292.7752 -9205.9523 -7509.7134 292.7752 -42.9417 33.1901 29717.7421 -42.9417 33.1901
ENERGY: 300000 1.6160 0.3930 0.7096 0.0000 -10600.6812 1434.8284 0.0000 0.0000 1778.1241 -7385.0102 306.9089 -9163.1343 -7379.2305 300.8023 22.8758 117.2596 29853.6365 -599.4769 -522.1016
ENERGY: 600000 1.4933 2.8122 3.1740 0.0000 -10573.4976 1479.7440 0.0000 0.0000 1756.9515 -7329.3225 303.2544 -9086.2740 -7351.8165 301.2183 819.5898 893.0605 29700.8707 -295.1778 -229.8605
ENERGY: 900000 1.8232 2.8763 1.5119 0.0000 -10766.6257 1455.8419 0.0000 0.0000 1796.4567 -7508.1156 310.0731 -9304.5723 -7385.2186 301.6604 -186.3515 -182.5030 29933.7670 -281.6131 -230.4387
ENERGY: 1200000 0.2306 1.7870 1.8638 0.0000 -10685.7967 1508.4205 0.0000 0.0000 1714.5756 -7458.9192 295.9402 -9173.4948 -7392.6666 301.8666 570.1991 636.4577 29659.2150 -249.2700 -197.2769
ENERGY: 1500000 3.0498 3.8209 2.4231 0.0000 -10479.2879 1315.3608 0.0000 0.0000 1719.4023 -7435.2309 296.7733 -9154.6333 -7401.5739 300.7605 -1139.2146 -1060.7963 30372.6142 -254.1324 -194.6625
TCL: Running FEP window   9: Lambda1 0.39999999999999997 Lambda2 0.44999999999999996 [dLambda 0.04999999999999999]
TCL: Setting parameter firsttimestep to 0
TCL: Setting parameter alchLambda to 0.39999999999999997
Info: NONBONDED TABLE R-SQUARED SPACING: 0.0625
Info: NONBONDED TABLE SIZE: 705 POINTS
TCL: Setting parameter alchLambda2 to 0.44999999999999996
Info: NONBONDED TABLE R-SQUARED SPACING: 0.0625
Info: NONBONDED TABLE SIZE: 705 POINTS
TCL: Running for 1500000 steps
ETITLE: TS BOND ANGLE DIHED IMPRP ELECT VDW BOUNDARY MISC KINETIC TOTAL TEMP POTENTIAL TOTALAVG TEMPAVG PRESSURE GPRESSURE VOLUME PRESSAVG GPRESSAVG
ENERGY: 0 3.0498 3.8209 2.4231 0.0000 -10479.2876 1315.0643 0.0000 0.0000 1718.5592 -7436.3703 296.6278 -9154.9295 -7436.3703 296.6278 -1148.3976 -1058.2704 30372.6142 -1148.3976 -1058.2704
ENERGY: 300000 1.1766 1.1589 2.3061 0.0000 -10474.4971 1368.1522 0.0000 0.0000 1744.7381 -7356.9653 301.1463 -9101.7034 -7403.3457 301.0046 -246.1455 -170.3583 29830.9741 -152.0563 -86.9711
ENERGY: 600000 2.7698 4.7675 2.5803 0.0000 -10726.2808 1499.3724 0.0000 0.0000 1783.4219 -7433.3690 307.8233 -9216.7909 -7408.9935 300.7753 421.8315 461.4537 30069.1063 -106.3361 -33.6399
ENERGY: 900000 1.0513 2.9579 1.7772 0.0000 -10656.7934 1443.0439 0.0000 0.0000 1649.6157 -7558.3474 284.7280 -9207.9631 -7413.9785 299.3755 -266.6671 -164.2266 29939.4075 -42.9352 33.3101
ENERGY: 1200000 1.0128 2.1098 3.8199 0.0000 -10514.3873 1430.7827 0.0000 0.0000 1777.1906 -7299.4714 306.7477 -9076.6620 -7398.0777 300.2691 470.8581 501.2892 29638.9348 -62.2303 8.1389
ENERGY: 1500000 3.0499 1.4870 2.8408 0.0000 -10422.1984 1313.6286 0.0000 0.0000 1748.1047 -7353.0873 301.7274 -9101.1920 -7390.7036 300.7170 -548.2330 -506.2752 29755.5001 -94.1809 -27.9046
TCL: Running FEP window  10: Lambda1 0.44999999999999996 Lambda2 0.49999999999999994 [dLambda 0.04999999999999999]
TCL: Setting parameter firsttimestep to 0
TCL: Setting parameter alchLambda to 0.44999999999999996
Info: NONBONDED TABLE R-SQUARED SPACING: 0.0625
Info: NONBONDED TABLE SIZE: 705 POINTS
TCL: Setting parameter alchLambda2 to 0.49999999999999994
Info: NONBONDED TABLE R-SQUARED SPACING: 0.0625
Info: NONBONDED TABLE SIZE: 705 POINTS
TCL: Running for 1500000 steps
ETITLE: TS BOND ANGLE DIHED IMPRP ELECT VDW BOUNDARY MISC KINETIC TOTAL TEMP POTENTIAL TOTALAVG TEMPAVG PRESSURE GPRESSURE VOLUME PRESSAVG GPRESSAVG
ENERGY: 0 3.0499 1.4870 2.8408 0.0000 -10422.1989 1313.4409 0.0000 0.0000 1747.2447 -7354.1357 301.5790 -9101.3803 -7354.1357 301.5790 -603.7221 -506.5328 29755.5001 -603.7221 -506.5328
ENERGY: 300000 1.7566 1.5110 0.7930 0.0000 -10719.3025 1529.9056 0.0000 0.0000 1728.5014 -7456.8348 298.3438 -9185.3362 -7397.0590 298.5523 982.2737 1025.9201 29596.7636 266.7010 346.0296
ENERGY: 600000 1.3826 2.5900 2.4244 0.0000 -10647.4674 1503.9459 0.0000 0.0000 1748.6826 -7388.4419 301.8272 -9137.1245 -7401.9370 301.3643 646.4632 725.1898 29864.9167 285.3113 362.6497
ENERGY: 900000 1.7806 1.7033 1.1585 0.0000 -10544.4864 1415.7169 0.0000 0.0000 1705.1046 -7419.0226 294.3055 -9124.1272 -7394.3168 300.4381 -118.6675 -18.3152 30089.9485 224.8534 306.4708
ENERGY: 1200000 0.4849 3.4289 0.3090 0.0000 -10396.5570 1294.1906 0.0000 0.0000 1758.6659 -7339.4776 303.5503 -9098.1435 -7387.4226 300.5107 -1003.5760 -910.8303 30371.5677 205.2894 286.8709
ENERGY: 1500000 1.6914 0.6370 2.8015 0.0000 -10495.5887 1378.6138 0.0000 0.0000 1713.7284 -7398.1166 295.7940 -9111.8450 -7399.8889 300.0606 -311.5684 -255.6379 30352.3545 137.1910 212.3226
TCL: Running FEP window  11: Lambda1 0.49999999999999994 Lambda2 0.5499999999999999 [dLambda 0.04999999999999999]
TCL: Setting parameter firsttimestep to 0
TCL: Setting parameter alchLambda to 0.49999999999999994
Info: NONBONDED TABLE R-SQUARED SPACING: 0.0625
Info: NONBONDED TABLE SIZE: 705 POINTS
TCL: Setting parameter alchLambda2 to 0.5499999999999999
Info: NONBONDED TABLE R-SQUARED SPACING: 0.0625
Info: NONBONDED TABLE SIZE: 705 POINTS
TCL: Running for 1500000 steps
ETITLE: TS BOND ANGLE DIHED IMPRP ELECT VDW BOUNDARY MISC KINETIC TOTAL TEMP POTENTIAL TOTALAVG TEMPAVG PRESSURE GPRESSURE VOLUME PRESSAVG GPRESSAVG
ENERGY: 0 1.6914 0.6370 2.8015 0.0000 -10495.5894 1378.3131 0.0000 0.0000 1712.8811 -7399.2653 295.6477 -9112.1463 -7399.2653 295.6477 -334.5223 -253.0568 30352.3545 -334.5223 -253.0568
ENERGY: 300000 3.1055 3.3181 2.3118 0.0000 -10572.0937 1403.2568 0.0000 0.0000 1762.4915 -7397.6100 304.2106 -9160.1015 -7411.7927 296.3395 -265.9971 -237.8059 30072.1241 -257.7131 -231.2789
ENERGY: 600000 3.0871 2.1613 0.5333 0.0000 -10607.6610 1469.4405 0.0000 0.0000 1770.4228 -7362.0160 305.5796 -9132.4388 -7387.9820 299.3630 491.0861 608.1858 30019.5813 52.7873 111.3434
ENERGY: 900000 1.7344 2.7316 1.2190 0.0000 -10552.7336 1442.1111 0.0000 0.0000 1739.2056 -7365.7319 300.1914 -9104.9375 -7399.1127 299.1412 489.7501 579.6972 29506.6054 69.4339 124.5321
ENERGY: 1200000 1.2751 1.9289 2.7301 0.0000 -10647.1046 1436.0338 0.0000 0.0000 1754.0786 -7451.0581 302.7585 -9205.1367 -7408.9260 299.5483 50.9764 70.5467 29891.9439 61.2063 122.5860
ENERGY: 1500000 1.0160 0.9080 2.2028 0.0000 -10643.1933 1477.8220 0.0000 0.0000 1749.7433 -7411.5013 302.0103 -9161.2446 -7408.3906 299.6728 448.1674 513.0377 29667.8223 59.6463 120.9470
TCL: Running FEP window  12: Lambda1 0.5499999999999999 Lambda2 0.6    [dLambda 0.050000000000000044]
TCL: Setting parameter firsttimestep to 0
TCL: Setting parameter alchLambda to 0.5499999999999999
Info: NONBONDED TABLE R-SQUARED SPACING: 0.0625
Info: NONBONDED TABLE SIZE: 705 POINTS
TCL: Setting parameter alchLambda2 to 0.6
Info: NONBONDED TABLE R-SQUARED SPACING: 0.0625
Info: NONBONDED TABLE SIZE: 705 POINTS
TCL: Running for 1500000 steps
ETITLE: TS BOND ANGLE DIHED IMPRP ELECT VDW BOUNDARY MISC KINETIC TOTAL TEMP POTENTIAL TOTALAVG TEMPAVG PRESSURE GPRESSURE VOLUME PRESSAVG GPRESSAVG
ENERGY: 0 1.0160 0.9080 2.2028 0.0000 -10643.0979 1478.1295 0.0000 0.0000 1748.8995 -7411.9422 301.8646 -9160.8417 -7411.9422 301.8646 416.9129 521.6734 29667.8223 416.9129 521.6734
ENERGY: 300000 3.5487 2.3593 1.4529 0.0000 -10649.6287 1455.4126 0.0000 0.0000 1779.6951 -7407.1600 307.1800 -9186.8551 -7387.5017 300.4264 -150.5629 -87.6366 30353.5133 -331.6814 -265.8623
ENERGY: 600000 1.5609 1.1512 1.4363 0.0000 -10654.6371 1445.1730 0.0000 0.0000 1712.3727 -7492.9431 295.5600 -9205.3158 -7415.7682 301.0018 51.4409 54.9884 29849.1042 -41.6515 30.8859
ENERGY: 900000 0.2497 2.5393 2.3494 0.0000 -10513.9201 1305.2136 0.0000 0.0000 1781.0492 -7422.5188 307.4137 -9203.5681 -7407.7561 302.1755 -1266.9700 -1211.9444 30578.3913 -191.0832 -134.7816
ENERGY: 1200000 0.9764 1.2771 1.6006 0.0000 -10548.8513 1384.7344 0.0000 0.0000 1732.5434 -7427.7194 299.0415 -9160.2628 -7410.4878 301.8944 -424.9098 -387.1170 30140.6390 -230.3275 -177.2330
ENERGY: 1500000 0.4013 2.6786 2.5816 0.0000 -10562.5719 1397.7247 0.0000 0.0000 1789.8801 -7369.3056 308.9380 -9159.1857 -7405.9222 302.6259 -282.5426 -244.9416 30415.0942 -208.8608 -158.8513
TCL: Running FEP window  13: Lambda1 0.6    Lambda2 0.65   [dLambda 0.050000000000000044]
TCL: Setting parameter firsttimestep to 0
TCL: Setting parameter alchLambda to 0.6
Info: NONBONDED TABLE R-SQUARED SPACING: 0.0625
Info: NONBONDED TABLE SIZE: 705 POINTS
TCL: Setting parameter alchLambda2 to 0.65
Info: NONBONDED TABLE R-SQUARED SPACING: 0.0625
Info: NONBONDED TABLE SIZE: 705 POINTS
TCL: Running for 1500000 steps
ETITLE: TS BOND ANGLE DIHED IMPRP ELECT VDW BOUNDARY MISC KINETIC TOTAL TEMP POTENTIAL TOTALAVG TEMPAVG PRESSURE GPRESSURE VOLUME PRESSAVG GPRESSAVG
ENERGY: 0 0.4013 2.6786 2.5816 0.0000 -10562.6810 1397.6995 0.0000 0.0000 1788.9736 -7370.3465 308.7815 -9159.3201 -7370.3465 308.7815 -325.7625 -238.1659 30415.0942 -325.7625 -238.1659
ENERGY: 300000 1.2128 2.3342 1.7213 0.0000 -10534.6092 1420.4429 0.0000 0.0000 1793.2997 -7315.5984 309.5282 -9108.8981 -7368.7454 304.5897 -4.7353 23.2207 30320.4283 -96.6472 -24.4226
ENERGY: 600000 0.2970 0.8577 1.6637 0.0000 -10466.0454 1360.8056 0.0000 0.0000 1757.0503 -7345.3710 303.2715 -9102.4213 -7358.3954 302.8061 -422.7914 -392.7195 30106.2454 -204.7523 -152.4534
ENERGY: 900000 1.6103 2.0491 4.3876 0.0000 -10544.0661 1389.5123 0.0000 0.0000 1763.2848 -7383.2218 304.3475 -9146.5066 -7374.1931 302.5504 -530.4575 -451.0849 30278.9430 -218.3545 -152.2865
ENERGY: 1200000 0.4270 1.7232 1.2019 0.0000 -10700.8013 1502.1123 0.0000 0.0000 1768.0751 -7427.2618 305.1744 -9195.3369 -7391.4229 301.4902 451.8697 511.1959 30107.9521 7.3924 71.1650
ENERGY: 1500000 1.7597 1.5566 1.8601 0.0000 -10549.8882 1389.6448 0.0000 0.0000 1769.9391 -7385.1278 305.4961 -9155.0669 -7395.1555 301.6873 -485.8013 -433.9203 30401.7801 14.1873 70.7824
TCL: Running FEP window  14: Lambda1 0.65   Lambda2 0.7000000000000001 [dLambda 0.050000000000000044]
TCL: Setting parameter firsttimestep to 0
TCL: Setting parameter alchLambda to 0.65
Info: NONBONDED TABLE R-SQUARED SPACING: 0.0625
Info: NONBONDED TABLE SIZE: 705 POINTS
TCL: Setting parameter alchLambda2 to 0.7000000000000001
Info: NONBONDED TABLE R-SQUARED SPACING: 0.0625
Info: NONBONDED TABLE SIZE: 705 POINTS
TCL: Running for 1500000 steps
ETITLE: TS BOND ANGLE DIHED IMPRP ELECT VDW BOUNDARY MISC KINETIC TOTAL TEMP POTENTIAL TOTALAVG TEMPAVG PRESSURE GPRESSURE VOLUME PRESSAVG GPRESSAVG
ENERGY: 0 1.7596 1.5566 1.8601 0.0000 -10550.0327 1389.7356 0.0000 0.0000 1769.0471 -7386.0737 305.3421 -9155.1208 -7386.0737 305.3421 -522.5040 -430.3261 30401.7801 -522.5040 -430.3261
ENERGY: 300000 2.6705 1.3799 0.8540 0.0000 -10692.7772 1484.2464 0.0000 0.0000 1728.9125 -7474.7139 298.4148 -9203.6264 -7436.9161 300.8576 234.7964 326.2243 30104.3058 216.5792 324.1198
ENERGY: 600000 0.7160 1.4464 1.4360 0.0000 -10501.0809 1396.4570 0.0000 0.0000 1724.1989 -7376.8266 297.6012 -9101.0255 -7403.0779 302.4624 18.2898 69.5094 29857.0743 -19.2176 77.8279
ENERGY: 900000 0.5987 2.6676 1.1871 0.0000 -10572.8134 1382.9463 0.0000 0.0000 1715.0337 -7470.3799 296.0193 -9185.4136 -7414.6235 300.0637 -334.5585 -258.7515 29844.0324 6.4982 97.6278
ENERGY: 1200000 1.3349 0.8001 2.0210 0.0000 -10549.8517 1360.8125 0.0000 0.0000 1760.6005 -7424.2827 303.8842 -9184.8832 -7428.4673 300.1259 -704.8435 -662.2380 29809.9610 -58.1668 27.9274
ENERGY: 1500000 2.8228 2.1231 2.6614 0.0000 -10605.9466 1427.7253 0.0000 0.0000 1762.7422 -7407.8720 304.2539 -9170.6142 -7423.5843 300.6611 -37.3306 15.2456 30048.2378 -66.1128 15.4070
TCL: Running FEP window  15: Lambda1 0.7000000000000001 Lambda2 0.7500000000000001 [dLambda 0.050000000000000044]
TCL: Setting parameter firsttimestep to 0
TCL: Setting parameter alchLambda to 0.7000000000000001
Info: NONBONDED TABLE R-SQUARED SPACING: 0.0625
Info: NONBONDED TABLE SIZE: 705 POINTS
TCL: Setting parameter alchLambda2 to 0.7500000000000001
Info: NONBONDED TABLE R-SQUARED SPACING: 0.0625
Info: NONBONDED TABLE SIZE: 705 POINTS
TCL: Running for 1500000 steps
ETITLE: TS BOND ANGLE DIHED IMPRP ELECT VDW BOUNDARY MISC KINETIC TOTAL TEMP POTENTIAL TOTALAVG TEMPAVG PRESSURE GPRESSURE VOLUME PRESSAVG GPRESSAVG
ENERGY: 0 2.8228 2.1231 2.6614 0.0000 -10606.0374 1427.6381 0.0000 0.0000 1761.8430 -7408.9492 304.0987 -9170.7921 -7408.9492 304.0987 -66.2392 20.8090 30048.2378 -66.2392 20.8090
ENERGY: 300000 1.1152 1.9316 1.6322 0.0000 -10611.8696 1409.7596 0.0000 0.0000 1717.6173 -7479.8137 296.4652 -9197.4310 -7410.5786 302.8738 -539.8007 -434.1710 30380.4340 -121.4375 -50.6725
ENERGY: 600000 2.6451 0.8260 2.3775 0.0000 -10453.4037 1338.1004 0.0000 0.0000 1741.8530 -7367.6017 300.6484 -9109.4548 -7401.3024 300.6676 -418.7464 -350.9880 29905.8204 -205.0896 -143.6359
ENERGY: 900000 1.4336 4.4013 3.2435 0.0000 -10630.9396 1504.5115 0.0000 0.0000 1736.7104 -7380.6393 299.7607 -9117.3497 -7394.6712 301.2665 806.9033 810.1019 29897.7213 -38.7028 31.7354
ENERGY: 1200000 1.6205 1.6973 4.2134 0.0000 -10536.1683 1407.2451 0.0000 0.0000 1706.2965 -7415.0955 294.5112 -9121.3920 -7407.3169 299.5478 -6.3008 104.4073 29614.7966 -19.0298 49.0065
ENERGY: 1500000 1.6788 2.3176 0.5543 0.0000 -10607.8320 1421.2218 0.0000 0.0000 1736.1789 -7445.8806 299.6690 -9182.0595 -7406.2423 299.8447 -196.3121 -121.9365 30022.1802 -86.8696 -13.3426
TCL: Running FEP window  16: Lambda1 0.7500000000000001 Lambda2 0.8000000000000002 [dLambda 0.050000000000000044]
TCL: Setting parameter firsttimestep to 0
TCL: Setting parameter alchLambda to 0.7500000000000001
Info: NONBONDED TABLE R-SQUARED SPACING: 0.0625
Info: NONBONDED TABLE SIZE: 705 POINTS
TCL: Setting parameter alchLambda2 to 0.8000000000000002
Info: NONBONDED TABLE R-SQUARED SPACING: 0.0625
Info: NONBONDED TABLE SIZE: 705 POINTS
TCL: Running for 1500000 steps
ETITLE: TS BOND ANGLE DIHED IMPRP ELECT VDW BOUNDARY MISC KINETIC TOTAL TEMP POTENTIAL TOTALAVG TEMPAVG PRESSURE GPRESSURE VOLUME PRESSAVG GPRESSAVG
ENERGY: 0 1.6788 2.3176 0.5543 0.0000 -10607.6911 1421.1972 0.0000 0.0000 1735.3149 -7446.6283 299.5199 -9181.9432 -7446.6283 299.5199 -209.2716 -116.6515 30022.1802 -209.2716 -116.6515
ENERGY: 300000 1.1137 2.8183 0.7166 0.0000 -10400.1532 1327.5048 0.0000 0.0000 1754.8300 -7313.1699 302.8882 -9067.9999 -7335.7987 304.7511 -549.3299 -550.2201 30281.2265 -136.9353 -100.0759
ENERGY: 600000 2.0662 2.3037 0.9333 0.0000 -10524.4956 1382.0729 0.0000 0.0000 1778.8356 -7358.2839 307.0317 -9137.1196 -7359.5654 303.1399 -220.9850 -88.6713 29899.1776 30.9781 96.2954
ENERGY: 900000 1.8838 1.2295 0.4699 0.0000 -10721.7895 1533.2203 0.0000 0.0000 1709.7222 -7475.2637 295.1025 -9184.9859 -7398.8218 300.2228 845.6304 851.4785 30127.4030 172.1338 233.3677
ENERGY: 1200000 2.8425 2.8903 2.8108 0.0000 -10568.2767 1454.0760 0.0000 0.0000 1711.8117 -7393.8453 295.4632 -9105.6571 -7400.3040 300.4406 340.5320 414.2033 30298.9479 165.9571 232.5191
ENERGY: 1500000 1.1638 1.2122 1.3393 0.0000 -10527.1889 1366.4619 0.0000 0.0000 1775.8402 -7381.1715 306.5146 -9157.0117 -7391.9337 301.2489 -188.9557 -111.8829 29488.2178 176.8683 241.4500
TCL: Running FEP window  17: Lambda1 0.8000000000000002 Lambda2 0.8500000000000002 [dLambda 0.050000000000000044]
TCL: Setting parameter firsttimestep to 0
TCL: Setting parameter alchLambda to 0.8000000000000002
Info: NONBONDED TABLE R-SQUARED SPACING: 0.0625
Info: NONBONDED TABLE SIZE: 705 POINTS
TCL: Setting parameter alchLambda2 to 0.8500000000000002
Info: NONBONDED TABLE R-SQUARED SPACING: 0.0625
Info: NONBONDED TABLE SIZE: 705 POINTS
TCL: Running for 1500000 steps
ETITLE: TS BOND ANGLE DIHED IMPRP ELECT VDW BOUNDARY MISC KINETIC TOTAL TEMP POTENTIAL TOTALAVG TEMPAVG PRESSURE GPRESSURE VOLUME PRESSAVG GPRESSAVG
ENERGY: 0 1.1638 1.2122 1.3393 0.0000 -10527.5093 1366.5557 0.0000 0.0000 1774.9988 -7382.2395 306.3694 -9157.2383 -7382.2395 306.3694 -187.3014 -104.6505 29488.2178 -187.3014 -104.6505
ENERGY: 300000 1.8246 3.1762 0.7202 0.0000 -10641.5477 1467.7940 0.0000 0.0000 1782.3866 -7385.6460 307.6446 -9168.0326 -7400.9655 302.8293 457.0054 509.6878 29874.8694 -349.8179 -285.5139
ENERGY: 600000 3.2222 3.1301 1.0410 0.0000 -10588.9704 1446.0395 0.0000 0.0000 1756.3704 -7379.1673 303.1541 -9135.5377 -7403.3878 300.8145 289.1513 334.6270 29818.3756 -232.5309 -172.1004
ENERGY: 900000 1.9776 0.8272 0.5785 0.0000 -10469.4136 1355.3436 0.0000 0.0000 1728.2586 -7382.4281 298.3019 -9110.6866 -7410.6962 300.3366 -488.1276 -454.9781 30291.4426 -159.7516 -99.0650
ENERGY: 1200000 1.2970 4.5036 3.2674 0.0000 -10567.3382 1385.9788 0.0000 0.0000 1782.9217 -7389.3697 307.7369 -9172.2914 -7410.8692 300.6895 -59.6776 14.3869 29610.2072 -144.6829 -83.0287
ENERGY: 1500000 1.3257 0.9720 1.1470 0.0000 -10622.6633 1491.5829 0.0000 0.0000 1744.6160 -7383.0197 301.1253 -9127.6357 -7406.3370 301.0338 895.2688 918.6296 29528.1140 -53.5511 5.1312
TCL: Running FEP window  18: Lambda1 0.8500000000000002 Lambda2 0.9000000000000002 [dLambda 0.050000000000000044]
TCL: Setting parameter firsttimestep to 0
TCL: Setting parameter alchLambda to 0.8500000000000002
Info: NONBONDED TABLE R-SQUARED SPACING: 0.0625
Info: NONBONDED TABLE SIZE: 705 POINTS
TCL: Setting parameter alchLambda2 to 0.9000000000000002
Info: NONBONDED TABLE R-SQUARED SPACING: 0.0625
Info: NONBONDED TABLE SIZE: 705 POINTS
TCL: Running for 1500000 steps
ETITLE: TS BOND ANGLE DIHED IMPRP ELECT VDW BOUNDARY MISC KINETIC TOTAL TEMP POTENTIAL TOTALAVG TEMPAVG PRESSURE GPRESSURE VOLUME PRESSAVG GPRESSAVG
ENERGY: 0 1.3257 0.9720 1.1470 0.0000 -10623.2644 1491.4184 0.0000 0.0000 1743.7183 -7384.6829 300.9703 -9128.4013 -7384.6829 300.9703 836.0681 920.9287 29528.1140 836.0681 920.9287
ENERGY: 300000 1.1069 2.1173 2.2358 0.0000 -10571.9974 1468.4634 0.0000 0.0000 1697.8769 -7400.1972 293.0580 -9098.0740 -7402.0209 297.5220 554.3744 658.5992 29761.7963 436.0882 532.6748
ENERGY: 600000 2.7489 2.1318 1.7918 0.0000 -10514.1403 1435.0396 0.0000 0.0000 1723.3907 -7349.0377 297.4617 -9072.4283 -7394.5363 298.3836 254.5061 302.7363 30247.5975 235.1305 324.0957
ENERGY: 900000 1.0636 0.8080 2.8019 0.0000 -10451.9394 1335.3893 0.0000 0.0000 1737.8985 -7373.9782 299.9658 -9111.8766 -7409.2510 299.0217 -675.9615 -590.8642 30080.1685 49.6157 147.2960
ENERGY: 1200000 2.3558 3.2319 1.8457 0.0000 -10607.7256 1479.6568 0.0000 0.0000 1729.8945 -7390.7410 298.5843 -9120.6355 -7403.2721 299.5170 568.1860 629.2654 30211.8038 105.3149 198.6063
ENERGY: 1500000 1.4947 2.8926 2.3991 0.0000 -10637.7951 1438.1366 0.0000 0.0000 1745.1197 -7447.7523 301.2122 -9192.8721 -7400.8569 299.6840 313.9235 298.8892 29665.1839 87.4124 173.6047
TCL: Running FEP window  19: Lambda1 0.9000000000000002 Lambda2 0.9500000000000003 [dLambda 0.050000000000000044]
TCL: Setting parameter firsttimestep to 0
TCL: Setting parameter alchLambda to 0.9000000000000002
Info: NONBONDED TABLE R-SQUARED SPACING: 0.0625
Info: NONBONDED TABLE SIZE: 705 POINTS
TCL: Setting parameter alchLambda2 to 0.9500000000000003
Info: NONBONDED TABLE R-SQUARED SPACING: 0.0625
Info: NONBONDED TABLE SIZE: 705 POINTS
TCL: Running for 1500000 steps
ETITLE: TS BOND ANGLE DIHED IMPRP ELECT VDW BOUNDARY MISC KINETIC TOTAL TEMP POTENTIAL TOTALAVG TEMPAVG PRESSURE GPRESSURE VOLUME PRESSAVG GPRESSAVG
ENERGY: 0 1.4947 2.8926 2.3991 0.0000 -10637.9193 1438.0213 0.0000 0.0000 1744.2050 -7448.9065 301.0543 -9193.1115 -7448.9065 301.0543 235.8410 305.1424 29665.1839 235.8410 305.1424
ENERGY: 300000 1.3412 3.9354 0.7627 0.0000 -10574.1224 1401.6372 0.0000 0.0000 1701.2548 -7465.1911 293.6410 -9166.4459 -7435.7082 299.3641 -216.5584 -163.8586 29899.3961 -96.9429 -25.7616
ENERGY: 600000 1.6101 1.8045 3.9585 0.0000 -10662.5882 1456.9169 0.0000 0.0000 1734.0803 -7464.2179 299.3068 -9198.2982 -7426.0060 299.0306 247.4840 339.1610 29670.7260 -135.8078 -73.2167
ENERGY: 900000 1.7303 2.1389 2.6610 0.0000 -10437.1648 1358.1657 0.0000 0.0000 1715.3081 -7357.1609 296.0666 -9072.4689 -7441.4401 297.0704 -540.6020 -485.9179 30362.0675 -139.1063 -83.1224
ENERGY: 1200000 3.0188 1.6514 0.9501 0.0000 -10495.0826 1434.2478 0.0000 0.0000 1765.7329 -7289.4817 304.7701 -9055.2145 -7426.0860 298.7194 376.9710 483.2955 30031.2108 -7.8374 40.4065
ENERGY: 1500000 0.6555 1.3167 1.2141 0.0000 -10513.7922 1396.1133 0.0000 0.0000 1724.6168 -7389.8758 297.6734 -9114.4926 -7422.7348 298.5000 -1.2866 117.7478 29811.1529 -5.3659 50.8175
TCL: Running FEP window  20: Lambda1 0.9500000000000003 Lambda2 1.0    [dLambda 0.04999999999999971]
TCL: Setting parameter firsttimestep to 0
TCL: Setting parameter alchLambda to 0.9500000000000003
Info: NONBONDED TABLE R-SQUARED SPACING: 0.0625
Info: NONBONDED TABLE SIZE: 705 POINTS
TCL: Setting parameter alchLambda2 to 1.0
Info: NONBONDED TABLE R-SQUARED SPACING: 0.0625
Info: NONBONDED TABLE SIZE: 705 POINTS
TCL: Running for 1500000 steps
ETITLE: TS BOND ANGLE DIHED IMPRP ELECT VDW BOUNDARY MISC KINETIC TOTAL TEMP POTENTIAL TOTALAVG TEMPAVG PRESSURE GPRESSURE VOLUME PRESSAVG GPRESSAVG
ENERGY: 0 0.6555 1.3167 1.2141 0.0000 -10514.3235 1396.2260 0.0000 0.0000 1723.7766 -7391.1347 297.5283 -9114.9113 -7391.1347 297.5283 47.6085 127.4666 29811.1529 47.6085 127.4666
ENERGY: 300000 0.6359 2.7146 1.3105 0.0000 -10502.0888 1383.5714 0.0000 0.0000 1707.0982 -7406.7582 294.6496 -9113.8564 -7424.1377 299.9737 -213.4760 -161.8756 29934.6390 -26.6259 46.6542
ENERGY: 600000 3.7153 3.6388 2.5408 0.0000 -10481.9294 1365.7692 0.0000 0.0000 1747.0533 -7359.2120 301.5459 -9106.2653 -7409.2792 301.4850 -157.1664 -129.0314 29671.5874 -117.0130 -68.5173
ENERGY: 900000 1.3267 2.3570 1.4386 0.0000 -10649.0000 1406.0166 0.0000 0.0000 1762.4787 -7475.3825 304.2084 -9237.8612 -7402.3024 301.1998 -278.5968 -227.0641 30229.3033 -29.7999 11.1520
ENERGY: 1200000 0.5080 1.3109 1.8912 0.0000 -10596.1765 1436.7568 0.0000 0.0000 1767.4246 -7388.2850 305.0621 -9155.7096 -7406.3489 300.4271 327.1908 353.8339 29755.8621 -66.8200 -29.5243
ENERGY: 1500000 1.8201 1.9369 4.2839 0.0000 -10466.9310 1414.0144 0.0000 0.0000 1678.2170 -7366.6587 289.6646 -9044.8757 -7411.6576 299.2971 39.2591 107.1816 30089.8114 -107.0265 -63.3319
TCL: Exiting due to exit command.
