Info: SIMULATION PARAMETERS:
Info: TIMESTEP               2
Info: NUMBER OF STEPS        0
Info: STEPS PER CYCLE        10
Info: PERIODIC CELL BASIS 1  32.3003 0 0
Info: PERIODIC CELL BASIS 2  0 31.707 0
Info: PERIODIC CELL BASIS 3  0 0 29.4672
Info: PERIODIC CELL CENTER   0 0 0
Info: WRAPPING WATERS AROUND PERIODIC BOUNDARIES ON OUTPUT.
Info: WRAPPING ALL CLUSTERS AROUND PERIODIC BOUNDARIES ON OUTPUT.
Info: FIRST LDB TIMESTEP     50
Info: LAST LDB TIMESTEP     -1
Info: HOM BACKGROUND SCALING 1
Info: PME BACKGROUND SCALING 1
Info: MIN ATOMS PER PATCH    40
Info: EMPTY PATCH LOAD       40 ATOMS
Info: VELOCITY FILE          mobley_9414831_equil.vel
Info: CENTER OF MASS MOVING INITIALLY? NO
Info: DIELECTRIC             1
Info: EXCLUDE                SCALED ONE-FOUR
Info: 1-4 ELECTROSTATICS SCALED BY 0.833333
Info: MODIFIED 1-4 VDW PARAMETERS WILL BE USED
Info: DCD FILENAME           mobley_9414831_prod.dcd
Info: DCD FREQUENCY          100000
Info: DCD FIRST STEP         100000
Info: DCD FILE WILL CONTAIN UNIT CELL DATA
Info: XST FILENAME           mobley_9414831_prod.xst
Info: XST FREQUENCY          100000
Info: NO VELOCITY DCD OUTPUT
Info: NO FORCE DCD OUTPUT
Info: OUTPUT FILENAME        mobley_9414831_prod
Info: BINARY OUTPUT FILES WILL BE USED
Info: RESTART FILENAME       mobley_9414831_prod.restart
Info: RESTART FREQUENCY      100000
Info: BINARY RESTART FILES WILL BE USED
Info: CUTOFF                 9
Info: PAIRLIST DISTANCE      11
Info: PAIRLIST SHRINK RATE   0.01
Info: PAIRLIST GROW RATE     0.01
Info: PAIRLIST TRIGGER       0.3
Info: PAIRLISTS PER CYCLE    2
Info: PAIRLISTS ENABLED
Info: MARGIN                 2
Info: HYDROGEN GROUP CUTOFF  2.5
Info: PATCH DIMENSION        15.5
Info: ENERGY OUTPUT STEPS    100000
Info: ENERGY EVALUATION STEPS    100000
Info: OUTPUT ENERGY PRECISION 4
Info: CROSSTERM ENERGY INCLUDED IN DIHEDRAL
Info: TIMING OUTPUT STEPS    1000000
Info: PRESSURE OUTPUT STEPS  100000
Info: ALCHEMICAL FEP ON
Info: FEP CURRENT LAMBDA VALUE     0
Info: FEP COMPARISON LAMBDA VALUE  0.05
Info: FEP INTRA-ALCHEMICAL NON-BONDED INTERACTIONS WILL BE RETAINED
Info: FEP INTRA-ALCHEMICAL BONDED INTERACTIONS WILL BE RETAINED
Info: FEP VDW SHIFTING COEFFICIENT 5
Info: FEP ELEC. ACTIVE FOR ANNIHILATED PARTICLES BETWEEN LAMBDA = 0 AND LAMBDA = 0.5
Info: FEP ELEC. ACTIVE FOR EXNIHILATED PARTICLES BETWEEN LAMBDA = 0.5 AND LAMBDA = 1
Info: FEP VDW ACTIVE FOR ANNIHILATED PARTICLES BETWEEN LAMBDA = 0 AND LAMBDA = 1
Info: FEP VDW ACTIVE FOR EXNIHILATED PARTICLES BETWEEN LAMBDA = 0 AND LAMBDA = 1
Info: FEP BOND ACTIVE FOR ANNIHILATED PARTICLES BETWEEN LAMBDA = 1 AND LAMBDA = 1
Info: FEP BOND ACTIVE FOR EXNIHILATED PARTICLES BETWEEN LAMBDA = 0 AND LAMBDA = 0
Info: LANGEVIN DYNAMICS ACTIVE
Info: LANGEVIN TEMPERATURE   300
Info: LANGEVIN USING BBK INTEGRATOR
Info: LANGEVIN DAMPING COEFFICIENT IS 1 INVERSE PS
Info: LANGEVIN DYNAMICS APPLIED TO HYDROGENS
Info: LANGEVIN PISTON PRESSURE CONTROL ACTIVE
Info:        TARGET PRESSURE IS 1.01325 BAR
Info:     OSCILLATION PERIOD IS 50 FS
Info:             DECAY TIME IS 25 FS
Info:     PISTON TEMPERATURE IS 300 K
Info:       PRESSURE CONTROL IS GROUP-BASED
Info:    INITIAL STRAIN RATE IS -0.000639637 -0.000639637 -0.000639637
Info:       CELL FLUCTUATION IS ISOTROPIC
Info: PARTICLE MESH EWALD (PME) ACTIVE
Info: PME TOLERANCE               1e-06
Info: PME EWALD COEFFICIENT       0.348832
Info: PME INTERPOLATION ORDER     4
Info: PME GRID DIMENSIONS         36 32 32
Info: PME MAXIMUM GRID SPACING    1
Info: PME CALCULATION WILL BE PERFORMED ON GPU
Info: FULL ELECTROSTATIC EVALUATION FREQUENCY      2
Info: USING VERLET I (r-RESPA) MTS SCHEME.
Info: C1 SPLITTING OF LONG RANGE ELECTROSTATICS
Info: PLACING ATOMS IN PATCHES BY HYDROGEN GROUPS
Info: RIGID BONDS TO HYDROGEN : ALL
Info:         ERROR TOLERANCE : 1e-08
Info:          MAX ITERATIONS : 100
Info: RIGID WATER USING SETTLE ALGORITHM
Info: RANDOM NUMBER SEED     1743625321
Info: USE HYDROGEN BONDS?    NO
Info: Using AMBER format force field!
Info: AMBER PARM FILE        mobley_9414831.prmtop
Info: COORDINATE PDB         mobley_9414831.pdb
Info: Exclusions will be read from PARM file!
Info: SCNB (VDW SCALING)     2
Info: USING ARITHMETIC MEAN TO COMBINE L-J SIGMA PARAMETERS
Info: BINARY COORDINATES     mobley_9414831_equil.coor
Info: SUMMARY OF PARAMETERS:
Info: 6 BONDS
Info: 5 ANGLES
Info:   5 HARMONIC
Info:   0 COSINE-BASED
Info: 3 DIHEDRAL
Info: 0 IMPROPER
Info: 0 CROSSTERM
Info: 0 VDW
Info: 21 VDW_PAIRS
Info: 0 NBTHOLE_PAIRS
Info: To read alchdata from file: mobley_9414831.pdb
Info: To read alchflag data from column: 5
Info: STRUCTURE SUMMARY:
Info: 2973 ATOMS
Info: 2974 BONDS
Info: 36 ANGLES
Info: 60 DIHEDRALS
Info: 0 IMPROPERS
Info: 0 CROSSTERMS
Info: 3054 EXCLUSIONS
Info: 2962 RIGID BONDS
Info: ALCH: 0 ATOMS TO DISAPPEAR IN FINAL STATE
Info: ALCH: 21 ATOMS TO APPEAR IN FINAL STATE
Info: 5957 DEGREES OF FREEDOM
Info: 995 HYDROGEN GROUPS
Info: 4 ATOMS IN LARGEST HYDROGEN GROUP
Info: 995 MIGRATION GROUPS
Info: 4 ATOMS IN LARGEST MIGRATION GROUP
Info: TOTAL MASS = 17869.9 amu
Info: TOTAL CHARGE = 9.99738e-05 e
Info: MASS DENSITY = 0.98329 g/cm^3
Info: ATOM DENSITY = 0.0985131 atoms/A^3
Info: ADDED 0 IMPLICIT EXCLUSIONS
Info: NONBONDED TABLE R-SQUARED SPACING: 0.0625
Info: NONBONDED TABLE SIZE: 705 POINTS
Info: REDUCING NUMBER OF PATCHES TO IMPROVE LOAD BALANCE
Info: REMOVING COM VELOCITY -0.224171 -0.11294 0.0646178
Info: Use 3D box decompostion in PME FFT.
Info: Updated CUDA force table with 4096 elements.
Info: Updated CUDA LJ table with 6 x 6 elements.
Info: Found 20 unique exclusion lists needing 56 bytes
TCL: Running for 1500000 steps
ETITLE: TS BOND ANGLE DIHED IMPRP ELECT VDW BOUNDARY MISC KINETIC TOTAL TEMP POTENTIAL TOTALAVG TEMPAVG PRESSURE GPRESSURE VOLUME PRESSAVG GPRESSAVG
ENERGY: 0 4.5059 5.1941 5.3202 0.0000 -10805.2775 1518.1126 0.0000 0.0000 1801.9600 -7470.1847 304.4444 -9272.1448 -7470.1847 304.4444 383.4511 462.5091 30178.7164 383.4511 462.5091
ENERGY: 300000 3.3097 4.6771 8.6775 0.0000 -10787.1978 1461.7573 0.0000 0.0000 1748.1715 -7560.6048 295.3567 -9308.7763 -7517.7365 297.4839 -98.0549 -36.8611 30418.6912 -177.8033 -88.2586
ENERGY: 600000 3.0058 7.2307 5.0150 0.0000 -10681.3319 1406.4982 0.0000 0.0000 1724.4701 -7535.1121 291.3523 -9259.5822 -7516.4360 298.0893 -557.7039 -452.7802 30670.2020 -356.9228 -264.0256
ENERGY: 900000 4.1491 7.3469 3.5709 0.0000 -10697.2471 1402.1877 0.0000 0.0000 1744.5391 -7535.4534 294.7430 -9279.9925 -7512.7809 298.3606 -316.5840 -280.3838 30223.1454 -320.7503 -237.2675
ENERGY: 1200000 3.0274 4.0158 4.8404 0.0000 -10719.8513 1459.3943 0.0000 0.0000 1779.2658 -7469.3076 300.6101 -9248.5734 -7506.1045 298.9249 257.2849 309.8936 30419.0665 -140.4352 -59.4213
ENERGY: 1500000 5.2098 9.2664 3.7943 0.0000 -10836.0778 1447.6293 0.0000 0.0000 1752.8506 -7617.3274 296.1472 -9370.1780 -7509.2763 298.4636 37.3447 82.0963 29591.6007 -90.3636 -14.7278
TCL: Running FEP window   2: Lambda1 0.05   Lambda2 0.1    [dLambda 0.05  ]
TCL: Setting parameter firsttimestep to 0
TCL: Setting parameter alchLambda to 0.05
Info: NONBONDED TABLE R-SQUARED SPACING: 0.0625
Info: NONBONDED TABLE SIZE: 705 POINTS
TCL: Setting parameter alchLambda2 to 0.1
Info: NONBONDED TABLE R-SQUARED SPACING: 0.0625
Info: NONBONDED TABLE SIZE: 705 POINTS
TCL: Running for 1500000 steps
ETITLE: TS BOND ANGLE DIHED IMPRP ELECT VDW BOUNDARY MISC KINETIC TOTAL TEMP POTENTIAL TOTALAVG TEMPAVG PRESSURE GPRESSURE VOLUME PRESSAVG GPRESSAVG
ENERGY: 0 5.2099 9.2664 3.7943 0.0000 -10836.0770 1452.8648 0.0000 0.0000 1751.9606 -7612.9812 295.9969 -9364.9417 -7612.9812 295.9969 17.4369 95.0734 29591.6007 17.4369 95.0734
ENERGY: 300000 3.5152 5.1656 8.8681 0.0000 -10807.8481 1535.6863 0.0000 0.0000 1783.4902 -7471.1227 301.3239 -9254.6129 -7482.3248 303.0036 989.1730 1025.8221 30113.5233 17.1492 84.6511
ENERGY: 600000 6.0905 3.6165 7.6456 0.0000 -10743.5922 1534.6707 0.0000 0.0000 1844.6937 -7346.8753 311.6643 -9191.5690 -7480.0731 304.4189 596.4448 605.9353 30752.3603 15.2959 70.0290
ENERGY: 900000 2.5843 11.0044 4.2790 0.0000 -10835.3827 1529.5367 0.0000 0.0000 1760.1650 -7527.8133 297.3830 -9287.9783 -7495.2405 302.5018 473.8420 496.8171 30772.5089 -10.5573 37.9360
ENERGY: 1200000 2.9765 5.3133 9.2100 0.0000 -10553.9342 1400.9258 0.0000 0.0000 1846.7871 -7288.7215 312.0180 -9135.5085 -7476.5918 303.0104 -306.0101 -251.6678 30980.3190 27.4360 77.2418
ENERGY: 1500000 5.6648 7.1271 3.4902 0.0000 -10653.0279 1412.0403 0.0000 0.0000 1749.1833 -7475.5222 295.5276 -9224.7055 -7483.3067 301.5068 -366.2647 -290.3054 30595.3552 -54.6081 1.9927
TCL: Running FEP window   3: Lambda1 0.1    Lambda2 0.15000000000000002 [dLambda 0.05000000000000002]
TCL: Setting parameter firsttimestep to 0
TCL: Setting parameter alchLambda to 0.1
Info: NONBONDED TABLE R-SQUARED SPACING: 0.0625
Info: NONBONDED TABLE SIZE: 705 POINTS
TCL: Setting parameter alchLambda2 to 0.15000000000000002
Info: NONBONDED TABLE R-SQUARED SPACING: 0.0625
Info: NONBONDED TABLE SIZE: 705 POINTS
TCL: Running for 1500000 steps
ETITLE: TS BOND ANGLE DIHED IMPRP ELECT VDW BOUNDARY MISC KINETIC TOTAL TEMP POTENTIAL TOTALAVG TEMPAVG PRESSURE GPRESSURE VOLUME PRESSAVG GPRESSAVG
ENERGY: 0 5.6648 7.1271 3.4902 0.0000 -10653.0281 1414.5359 0.0000 0.0000 1748.2805 -7473.9295 295.3751 -9222.2100 -7473.9295 295.3751 -365.9248 -280.4087 30595.3552 -365.9248 -280.4087
ENERGY: 300000 6.2425 6.8184 4.6997 0.0000 -10767.9699 1398.3579 0.0000 0.0000 1746.1196 -7605.7319 295.0100 -9351.8515 -7461.5496 301.7017 -936.4399 -844.4946 30449.1299 -189.5626 -139.8656
ENERGY: 600000 4.9920 15.0612 4.8160 0.0000 -10698.9360 1408.7010 0.0000 0.0000 1752.9659 -7512.3998 296.1667 -9265.3657 -7459.9857 302.4317 -743.6227 -547.4740 30498.8023 -331.4234 -255.5580
ENERGY: 900000 4.4119 5.4434 2.0371 0.0000 -10732.8981 1422.6201 0.0000 0.0000 1756.9521 -7541.4335 296.8402 -9298.3855 -7472.7997 300.9725 -133.7624 -107.7676 30251.9844 -229.7122 -166.6566
ENERGY: 1200000 4.1255 7.6247 2.7643 0.0000 -10740.1008 1427.9440 0.0000 0.0000 1713.2180 -7584.4243 289.4512 -9297.6423 -7485.3964 300.3490 -481.0877 -359.7694 30304.7707 -217.2882 -146.1174
ENERGY: 1500000 2.1736 7.3931 7.4081 0.0000 -10775.6952 1454.7041 0.0000 0.0000 1736.8093 -7567.2069 293.4370 -9304.0162 -7494.9872 299.4190 -79.7474 -37.4800 30274.4466 -127.4860 -64.8097
TCL: Running FEP window   4: Lambda1 0.15000000000000002 Lambda2 0.2    [dLambda 0.04999999999999999]
TCL: Setting parameter firsttimestep to 0
TCL: Setting parameter alchLambda to 0.15000000000000002
Info: NONBONDED TABLE R-SQUARED SPACING: 0.0625
Info: NONBONDED TABLE SIZE: 705 POINTS
TCL: Setting parameter alchLambda2 to 0.2
Info: NONBONDED TABLE R-SQUARED SPACING: 0.0625
Info: NONBONDED TABLE SIZE: 705 POINTS
TCL: Running for 1500000 steps
ETITLE: TS BOND ANGLE DIHED IMPRP ELECT VDW BOUNDARY MISC KINETIC TOTAL TEMP POTENTIAL TOTALAVG TEMPAVG PRESSURE GPRESSURE VOLUME PRESSAVG GPRESSAVG
ENERGY: 0 2.1736 7.3931 7.4081 0.0000 -10775.6937 1455.2269 0.0000 0.0000 1735.8666 -7567.6254 293.2778 -9303.4920 -7567.6254 293.2778 -128.3549 -32.4412 30274.4466 -128.3549 -32.4412
ENERGY: 300000 4.9629 8.3903 2.0288 0.0000 -10652.5660 1391.1059 0.0000 0.0000 1767.7624 -7478.3156 298.6666 -9246.0781 -7498.0037 301.2168 -315.6382 -289.6180 30354.7577 82.4602 144.0025
ENERGY: 600000 4.1395 6.1973 5.7605 0.0000 -10715.4041 1422.0681 0.0000 0.0000 1744.1915 -7533.0473 294.6843 -9277.2388 -7520.9551 297.8870 -277.2750 -275.8482 30519.1629 -11.0765 48.0576
ENERGY: 900000 1.7610 2.3791 4.1337 0.0000 -10702.4077 1484.4617 0.0000 0.0000 1810.4839 -7399.1882 305.8845 -9209.6722 -7500.1101 298.5528 655.5217 713.8141 30337.5159 4.7060 61.7384
ENERGY: 1200000 3.5719 9.8869 2.8624 0.0000 -10779.0508 1480.6864 0.0000 0.0000 1771.3673 -7510.6758 299.2757 -9282.0431 -7498.4597 298.8769 186.5975 293.2091 30387.9726 -63.3452 2.6991
ENERGY: 1500000 3.9687 5.6358 4.9849 0.0000 -10742.6212 1485.7930 0.0000 0.0000 1816.3936 -7425.8451 306.8829 -9242.2387 -7491.3039 298.7051 371.7867 502.8858 30140.8649 -11.5966 60.1962
TCL: Running FEP window   5: Lambda1 0.2    Lambda2 0.25   [dLambda 0.04999999999999999]
TCL: Setting parameter firsttimestep to 0
TCL: Setting parameter alchLambda to 0.2
Info: NONBONDED TABLE R-SQUARED SPACING: 0.0625
Info: NONBONDED TABLE SIZE: 705 POINTS
TCL: Setting parameter alchLambda2 to 0.25
Info: NONBONDED TABLE R-SQUARED SPACING: 0.0625
Info: NONBONDED TABLE SIZE: 705 POINTS
TCL: Running for 1500000 steps
ETITLE: TS BOND ANGLE DIHED IMPRP ELECT VDW BOUNDARY MISC KINETIC TOTAL TEMP POTENTIAL TOTALAVG TEMPAVG PRESSURE GPRESSURE VOLUME PRESSAVG GPRESSAVG
ENERGY: 0 3.9687 5.6358 4.9849 0.0000 -10742.6213 1485.3324 0.0000 0.0000 1815.4634 -7427.2361 306.7258 -9242.6995 -7427.2361 306.7258 429.8129 504.5873 30140.8649 429.8129 504.5873
ENERGY: 300000 3.3576 7.6533 4.9609 0.0000 -10668.5772 1381.3172 0.0000 0.0000 1739.0239 -7532.2643 293.8112 -9271.2882 -7478.9762 301.3961 -665.8167 -648.8076 30408.0323 21.8324 84.3454
ENERGY: 600000 4.1365 5.2237 4.7428 0.0000 -10795.4497 1544.0198 0.0000 0.0000 1740.5918 -7496.7351 294.0761 -9237.3270 -7480.5556 301.5535 631.3696 751.4645 30480.6770 -7.1452 60.0313
ENERGY: 900000 4.4243 7.1253 4.5677 0.0000 -10588.0265 1365.7328 0.0000 0.0000 1810.7794 -7395.3971 305.9344 -9206.1764 -7475.1035 302.5343 -578.8487 -470.5602 30893.8723 -11.4328 48.0354
ENERGY: 1200000 7.7854 4.7829 3.9592 0.0000 -10848.6127 1518.5534 0.0000 0.0000 1770.8936 -7542.6382 299.1956 -9313.5317 -7482.3021 302.4661 438.1296 541.0091 30257.1164 77.0443 140.1015
ENERGY: 1500000 5.3790 5.3849 2.6032 0.0000 -10742.7322 1500.8475 0.0000 0.0000 1765.6023 -7462.9154 298.3017 -9228.5176 -7477.0851 301.9417 482.9807 526.3042 30597.8822 88.9453 156.9491
TCL: Running FEP window   6: Lambda1 0.25   Lambda2 0.3    [dLambda 0.04999999999999999]
TCL: Setting parameter firsttimestep to 0
TCL: Setting parameter alchLambda to 0.25
Info: NONBONDED TABLE R-SQUARED SPACING: 0.0625
Info: NONBONDED TABLE SIZE: 705 POINTS
TCL: Setting parameter alchLambda2 to 0.3
Info: NONBONDED TABLE R-SQUARED SPACING: 0.0625
Info: NONBONDED TABLE SIZE: 705 POINTS
TCL: Running for 1500000 steps
ETITLE: TS BOND ANGLE DIHED IMPRP ELECT VDW BOUNDARY MISC KINETIC TOTAL TEMP POTENTIAL TOTALAVG TEMPAVG PRESSURE GPRESSURE VOLUME PRESSAVG GPRESSAVG
ENERGY: 0 5.3790 5.3849 2.6032 0.0000 -10742.7312 1501.8421 0.0000 0.0000 1764.7017 -7462.8203 298.1495 -9227.5220 -7462.8203 298.1495 458.1835 537.6022 30597.8822 458.1835 537.6022
ENERGY: 300000 4.6290 9.0734 6.8764 0.0000 -10770.5379 1450.5147 0.0000 0.0000 1811.3043 -7488.1401 306.0231 -9299.4444 -7492.6019 299.5631 -165.0331 -144.3888 30333.5665 163.4032 226.8536
ENERGY: 600000 5.4440 5.7868 6.8680 0.0000 -10590.0899 1354.2370 0.0000 0.0000 1826.5554 -7391.1988 308.5998 -9217.7542 -7465.1319 300.7286 -686.7843 -605.6759 30798.7526 -13.3942 40.4637
ENERGY: 900000 5.9288 3.4706 2.6100 0.0000 -10825.2266 1449.0861 0.0000 0.0000 1732.3468 -7631.7842 292.6831 -9364.1310 -7484.0353 299.4485 -183.6781 -109.8318 30131.6488 -95.3662 -31.7223
ENERGY: 1200000 3.8066 4.8140 6.6985 0.0000 -10628.4673 1339.5622 0.0000 0.0000 1834.9675 -7438.6185 310.0210 -9273.5859 -7491.7948 300.8541 -1119.1906 -1042.2680 30977.9038 -137.1085 -78.7872
ENERGY: 1500000 2.1557 9.5664 2.2872 0.0000 -10658.7950 1365.1785 0.0000 0.0000 1765.8226 -7513.7847 298.3389 -9279.6073 -7494.9358 300.6064 -515.9671 -471.3243 30037.1630 -192.2654 -132.7950
TCL: Running FEP window   7: Lambda1 0.3    Lambda2 0.35   [dLambda 0.04999999999999999]
TCL: Setting parameter firsttimestep to 0
TCL: Setting parameter alchLambda to 0.3
Info: NONBONDED TABLE R-SQUARED SPACING: 0.0625
Info: NONBONDED TABLE SIZE: 705 POINTS
TCL: Setting parameter alchLambda2 to 0.35
Info: NONBONDED TABLE R-SQUARED SPACING: 0.0625
Info: NONBONDED TABLE SIZE: 705 POINTS
TCL: Running for 1500000 steps
ETITLE: TS BOND ANGLE DIHED IMPRP ELECT VDW BOUNDARY MISC KINETIC TOTAL TEMP POTENTIAL TOTALAVG TEMPAVG PRESSURE GPRESSURE VOLUME PRESSAVG GPRESSAVG
ENERGY: 0 2.1557 9.5664 2.2872 0.0000 -10658.7946 1365.3274 0.0000 0.0000 1764.9619 -7514.4962 298.1935 -9279.4580 -7514.4962 298.1935 -535.8731 -465.3888 30037.1630 -535.8731 -465.3888
ENERGY: 300000 3.8481 5.8553 8.0737 0.0000 -10707.2709 1417.9467 0.0000 0.0000 1725.1711 -7546.3760 291.4707 -9271.5472 -7492.8003 297.8841 -440.6957 -372.3669 30748.6295 -644.4636 -555.0906
ENERGY: 600000 5.7360 6.3762 4.9884 0.0000 -10712.4432 1408.2942 0.0000 0.0000 1729.2019 -7557.8465 292.1517 -9287.0484 -7506.1338 297.2916 -631.7926 -573.2558 30968.6897 -490.0656 -419.8502
ENERGY: 900000 9.3237 7.8005 5.3080 0.0000 -10592.3143 1402.3734 0.0000 0.0000 1779.7592 -7387.7495 300.6935 -9167.5087 -7503.7740 297.7078 -364.5528 -326.1118 30894.4316 -348.3890 -283.3788
ENERGY: 1200000 4.6452 5.9901 5.3667 0.0000 -10816.9056 1507.1722 0.0000 0.0000 1781.9738 -7511.7576 301.0677 -9293.7315 -7495.6691 298.6002 298.5073 438.5396 30672.8192 -258.7848 -187.2173
ENERGY: 1500000 3.7313 5.1430 5.9005 0.0000 -10817.2730 1471.0222 0.0000 0.0000 1811.7229 -7519.7530 306.0938 -9331.4759 -7492.7332 299.1707 -139.1328 -83.0349 30894.7819 -288.3627 -217.8002
TCL: Running FEP window   8: Lambda1 0.35   Lambda2 0.39999999999999997 [dLambda 0.04999999999999999]
TCL: Setting parameter firsttimestep to 0
TCL: Setting parameter alchLambda to 0.35
Info: NONBONDED TABLE R-SQUARED SPACING: 0.0625
Info: NONBONDED TABLE SIZE: 705 POINTS
TCL: Setting parameter alchLambda2 to 0.39999999999999997
Info: NONBONDED TABLE R-SQUARED SPACING: 0.0625
Info: NONBONDED TABLE SIZE: 705 POINTS
TCL: Running for 1500000 steps
ETITLE: TS BOND ANGLE DIHED IMPRP ELECT VDW BOUNDARY MISC KINETIC TOTAL TEMP POTENTIAL TOTALAVG TEMPAVG PRESSURE GPRESSURE VOLUME PRESSAVG GPRESSAVG
ENERGY: 0 3.7314 5.1430 5.9005 0.0000 -10817.2716 1470.7869 0.0000 0.0000 1810.8665 -7520.8433 305.9491 -9331.7098 -7520.8433 305.9491 -166.1889 -82.3283 30894.7819 -166.1889 -82.3283
ENERGY: 300000 4.0160 6.7018 5.9595 0.0000 -10803.3624 1499.1800 0.0000 0.0000 1798.4416 -7489.0635 303.8499 -9287.5051 -7494.6784 304.6413 345.7187 351.8299 30520.5114 43.6588 118.1052
ENERGY: 600000 6.1412 6.9007 2.2359 0.0000 -10730.1237 1457.3328 0.0000 0.0000 1762.0900 -7495.4230 297.7083 -9257.5130 -7490.9091 303.9523 75.5261 99.7656 30374.9328 32.6966 95.6526
ENERGY: 900000 4.9720 11.7980 4.1636 0.0000 -10827.1449 1472.3084 0.0000 0.0000 1832.9200 -7500.9829 309.6751 -9333.9029 -7503.8365 303.4457 -196.4267 -133.8554 30525.1673 19.7475 82.0537
ENERGY: 1200000 4.2525 7.0199 4.1959 0.0000 -10841.7482 1497.9779 0.0000 0.0000 1758.3886 -7569.9135 297.0829 -9328.3021 -7506.7601 302.4977 408.7751 523.0152 30021.8331 47.5677 112.1578
ENERGY: 1500000 3.8291 3.7916 4.1800 0.0000 -10859.6323 1531.3862 0.0000 0.0000 1829.1055 -7487.3399 309.0306 -9316.4454 -7509.9732 302.5295 686.3957 736.1614 30477.0480 40.2316 101.5788
TCL: Running FEP window   9: Lambda1 0.39999999999999997 Lambda2 0.44999999999999996 [dLambda 0.04999999999999999]
TCL: Setting parameter firsttimestep to 0
TCL: Setting parameter alchLambda to 0.39999999999999997
Info: NONBONDED TABLE R-SQUARED SPACING: 0.0625
Info: NONBONDED TABLE SIZE: 705 POINTS
TCL: Setting parameter alchLambda2 to 0.44999999999999996
Info: NONBONDED TABLE R-SQUARED SPACING: 0.0625
Info: NONBONDED TABLE SIZE: 705 POINTS
TCL: Running for 1500000 steps
ETITLE: TS BOND ANGLE DIHED IMPRP ELECT VDW BOUNDARY MISC KINETIC TOTAL TEMP POTENTIAL TOTALAVG TEMPAVG PRESSURE GPRESSURE VOLUME PRESSAVG GPRESSAVG
ENERGY: 0 3.8291 3.7916 4.1800 0.0000 -10859.6318 1530.8924 0.0000 0.0000 1828.2118 -7488.7269 308.8797 -9316.9388 -7488.7269 308.8797 662.2638 736.2081 30477.0480 662.2638 736.2081
ENERGY: 300000 4.1336 4.3467 4.0707 0.0000 -10828.1957 1528.7345 0.0000 0.0000 1812.5394 -7474.3708 306.2318 -9286.9102 -7473.0003 301.8348 648.0214 725.4580 30254.7823 625.4122 696.7783
ENERGY: 600000 3.6121 5.4232 4.2625 0.0000 -10758.6613 1414.3174 0.0000 0.0000 1758.5078 -7572.5383 297.1030 -9331.0461 -7484.8125 300.5558 -459.1779 -391.7675 30325.6136 197.7177 264.1524
ENERGY: 900000 3.3936 9.7117 3.4171 0.0000 -10657.9541 1407.6247 0.0000 0.0000 1775.9216 -7457.8855 300.0451 -9233.8070 -7485.9436 300.3991 -300.8571 -207.9757 30640.3863 146.7376 215.0806
ENERGY: 1200000 6.0849 7.5481 3.8507 0.0000 -10701.6382 1407.0313 0.0000 0.0000 1798.6093 -7478.5139 303.8783 -9277.1232 -7486.7783 300.4569 -425.2687 -331.8010 30392.6008 40.7209 107.4238
ENERGY: 1500000 5.0591 4.4895 2.2346 0.0000 -10681.1418 1404.6202 0.0000 0.0000 1737.0646 -7527.6738 293.4802 -9264.7385 -7489.0484 300.3046 -443.8859 -352.9847 30395.7501 -50.6740 14.1114
TCL: Running FEP window  10: Lambda1 0.44999999999999996 Lambda2 0.49999999999999994 [dLambda 0.04999999999999999]
TCL: Setting parameter firsttimestep to 0
TCL: Setting parameter alchLambda to 0.44999999999999996
Info: NONBONDED TABLE R-SQUARED SPACING: 0.0625
Info: NONBONDED TABLE SIZE: 705 POINTS
TCL: Setting parameter alchLambda2 to 0.49999999999999994
Info: NONBONDED TABLE R-SQUARED SPACING: 0.0625
Info: NONBONDED TABLE SIZE: 705 POINTS
TCL: Running for 1500000 steps
ETITLE: TS BOND ANGLE DIHED IMPRP ELECT VDW BOUNDARY MISC KINETIC TOTAL TEMP POTENTIAL TOTALAVG TEMPAVG PRESSURE GPRESSURE VOLUME PRESSAVG GPRESSAVG
ENERGY: 0 5.0591 4.4895 2.2346 0.0000 -10681.1413 1405.7043 0.0000 0.0000 1736.1978 -7527.4560 293.3337 -9263.6538 -7527.4560 293.3337 -427.4850 -339.0557 30395.7501 -427.4850 -339.0557
ENERGY: 300000 3.9591 4.7949 3.5415 0.0000 -10656.4481 1452.1956 0.0000 0.0000 1762.3688 -7429.5882 297.7554 -9191.9570 -7466.5256 294.2397 138.9852 247.0872 30599.1767 5.3750 85.0946
ENERGY: 600000 5.5572 7.1611 4.3419 0.0000 -10675.3545 1460.1775 0.0000 0.0000 1731.2943 -7466.8224 292.5053 -9198.1167 -7480.0772 296.2583 325.0125 395.4491 30519.1989 -108.5895 -28.8098
ENERGY: 900000 3.6239 5.6938 3.5685 0.0000 -10748.0411 1468.4399 0.0000 0.0000 1760.9070 -7505.8081 297.5084 -9266.7150 -7495.2701 296.6800 268.1581 316.2894 30303.0682 -213.9860 -134.0906
ENERGY: 1200000 4.8671 8.3625 4.3171 0.0000 -10759.7171 1420.2782 0.0000 0.0000 1773.0244 -7548.8677 299.5556 -9321.8921 -7513.4458 297.2645 -666.6133 -634.5185 31203.0876 -221.1213 -151.7353
ENERGY: 1500000 4.3920 6.3505 3.2535 0.0000 -10834.0913 1494.9710 0.0000 0.0000 1735.2430 -7589.8812 293.1724 -9325.1242 -7513.9376 296.9645 133.3521 141.0897 30496.5476 -196.7213 -133.9107
TCL: Running FEP window  11: Lambda1 0.49999999999999994 Lambda2 0.5499999999999999 [dLambda 0.04999999999999999]
TCL: Setting parameter firsttimestep to 0
TCL: Setting parameter alchLambda to 0.49999999999999994
Info: NONBONDED TABLE R-SQUARED SPACING: 0.0625
Info: NONBONDED TABLE SIZE: 705 POINTS
TCL: Setting parameter alchLambda2 to 0.5499999999999999
Info: NONBONDED TABLE R-SQUARED SPACING: 0.0625
Info: NONBONDED TABLE SIZE: 705 POINTS
TCL: Running for 1500000 steps
ETITLE: TS BOND ANGLE DIHED IMPRP ELECT VDW BOUNDARY MISC KINETIC TOTAL TEMP POTENTIAL TOTALAVG TEMPAVG PRESSURE GPRESSURE VOLUME PRESSAVG GPRESSAVG
ENERGY: 0 4.3921 6.3505 3.2535 0.0000 -10834.0918 1495.0095 0.0000 0.0000 1734.3908 -7590.6955 293.0284 -9325.0863 -7590.6955 293.0284 56.0766 148.4803 30496.5476 56.0766 148.4803
ENERGY: 300000 2.1079 7.3073 5.6023 0.0000 -10834.4630 1497.7756 0.0000 0.0000 1781.7870 -7539.8830 301.0361 -9321.6699 -7532.6236 299.3992 631.9260 647.9648 30116.1217 218.9719 266.2725
ENERGY: 600000 4.9949 6.2654 2.6937 0.0000 -10808.0598 1476.1499 0.0000 0.0000 1748.0062 -7569.9498 295.3288 -9317.9560 -7518.3589 300.4168 384.5337 369.9210 29990.0734 195.2151 240.2544
ENERGY: 900000 5.0251 6.4174 2.2367 0.0000 -10797.6551 1422.3208 0.0000 0.0000 1761.3172 -7600.3380 297.5777 -9361.6551 -7518.3607 300.8068 -524.1513 -431.4204 30436.2100 64.6036 123.7410
ENERGY: 1200000 3.5250 3.9699 10.8564 0.0000 -10936.9065 1590.8638 0.0000 0.0000 1783.0881 -7544.6033 301.2559 -9327.6914 -7514.9622 300.2540 794.7738 819.3451 30829.0231 116.1040 168.3626
ENERGY: 1500000 2.0404 6.2404 2.5490 0.0000 -10759.0674 1412.9710 0.0000 0.0000 1779.9482 -7555.3183 300.7254 -9335.2665 -7517.2721 299.8325 -286.9871 -203.8874 30518.1022 108.8227 160.8964
TCL: Running FEP window  12: Lambda1 0.5499999999999999 Lambda2 0.6    [dLambda 0.050000000000000044]
TCL: Setting parameter firsttimestep to 0
TCL: Setting parameter alchLambda to 0.5499999999999999
Info: NONBONDED TABLE R-SQUARED SPACING: 0.0625
Info: NONBONDED TABLE SIZE: 705 POINTS
TCL: Setting parameter alchLambda2 to 0.6
Info: NONBONDED TABLE R-SQUARED SPACING: 0.0625
Info: NONBONDED TABLE SIZE: 705 POINTS
TCL: Running for 1500000 steps
ETITLE: TS BOND ANGLE DIHED IMPRP ELECT VDW BOUNDARY MISC KINETIC TOTAL TEMP POTENTIAL TOTALAVG TEMPAVG PRESSURE GPRESSURE VOLUME PRESSAVG GPRESSAVG
ENERGY: 0 2.0404 6.2404 2.5490 0.0000 -10758.9094 1412.4506 0.0000 0.0000 1779.0655 -7556.5634 300.5763 -9335.6290 -7556.5634 300.5763 -276.9986 -201.1540 30518.1022 -276.9986 -201.1540
ENERGY: 300000 3.5342 5.1307 3.5366 0.0000 -10800.0133 1498.3403 0.0000 0.0000 1753.7215 -7535.7499 296.2944 -9289.4714 -7529.9261 297.8285 310.8796 314.9771 30583.6344 -146.3552 -80.5820
ENERGY: 600000 5.8914 7.2350 5.5491 0.0000 -10630.8931 1379.1466 0.0000 0.0000 1799.5759 -7433.4950 304.0416 -9233.0709 -7525.8641 297.8207 -648.4661 -589.1851 31113.0794 -247.2992 -189.2614
ENERGY: 900000 1.7131 6.9241 6.9363 0.0000 -10814.6826 1454.3864 0.0000 0.0000 1749.2549 -7595.4677 295.5397 -9344.7227 -7528.4470 298.0185 287.7655 355.8535 30068.3158 -18.2724 36.9484
ENERGY: 1200000 4.7139 6.5814 4.4619 0.0000 -10766.1998 1426.8165 0.0000 0.0000 1781.6525 -7541.9735 301.0134 -9323.6260 -7520.6867 299.0593 -710.6523 -565.5238 30785.0098 -108.4282 -48.5460
ENERGY: 1500000 1.5840 3.2762 5.6844 0.0000 -10671.0805 1399.6131 0.0000 0.0000 1809.3265 -7451.5962 305.6889 -9260.9227 -7512.8293 299.8257 -86.2232 -14.5350 30540.6193 -126.0430 -63.9188
TCL: Running FEP window  13: Lambda1 0.6    Lambda2 0.65   [dLambda 0.050000000000000044]
TCL: Setting parameter firsttimestep to 0
TCL: Setting parameter alchLambda to 0.6
Info: NONBONDED TABLE R-SQUARED SPACING: 0.0625
Info: NONBONDED TABLE SIZE: 705 POINTS
TCL: Setting parameter alchLambda2 to 0.65
Info: NONBONDED TABLE R-SQUARED SPACING: 0.0625
Info: NONBONDED TABLE SIZE: 705 POINTS
TCL: Running for 1500000 steps
ETITLE: TS BOND ANGLE DIHED IMPRP ELECT VDW BOUNDARY MISC KINETIC TOTAL TEMP POTENTIAL TOTALAVG TEMPAVG PRESSURE GPRESSURE VOLUME PRESSAVG GPRESSAVG
ENERGY: 0 1.5840 3.2762 5.6844 0.0000 -10670.6593 1399.3687 0.0000 0.0000 1808.4767 -7452.2693 305.5454 -9260.7460 -7452.2693 305.5454 -97.9107 -4.5610 30540.6193 -97.9107 -4.5610
ENERGY: 300000 3.0006 4.3695 3.2205 0.0000 -10841.9215 1476.2587 0.0000 0.0000 1721.4865 -7633.5858 290.8482 -9355.0723 -7495.7478 301.4079 -156.0217 -107.9946 30537.8553 -94.3766 -21.9594
ENERGY: 600000 2.0608 6.4790 3.9870 0.0000 -10605.2333 1343.4156 0.0000 0.0000 1758.0585 -7491.2325 297.0271 -9249.2910 -7495.7337 302.0878 -770.2126 -706.4276 30760.7276 -195.1409 -121.0965
ENERGY: 900000 4.4383 3.9985 5.5414 0.0000 -10700.6355 1410.3099 0.0000 0.0000 1793.9260 -7482.4215 303.0870 -9276.3475 -7513.1403 300.8357 -210.1571 -134.7889 30434.1167 -176.6159 -104.7900
ENERGY: 1200000 3.5773 4.0264 2.8289 0.0000 -10658.1852 1406.4299 0.0000 0.0000 1773.5037 -7467.8190 299.6366 -9241.3227 -7500.1406 300.9028 -429.8391 -393.2158 30914.7159 -292.6838 -221.2485
ENERGY: 1500000 4.7315 5.2673 1.8375 0.0000 -10597.6483 1379.7919 0.0000 0.0000 1789.6250 -7416.3951 302.3603 -9206.0201 -7493.2577 301.0623 -451.0583 -348.8226 30701.2647 -269.1206 -192.1672
TCL: Running FEP window  14: Lambda1 0.65   Lambda2 0.7000000000000001 [dLambda 0.050000000000000044]
TCL: Setting parameter firsttimestep to 0
TCL: Setting parameter alchLambda to 0.65
Info: NONBONDED TABLE R-SQUARED SPACING: 0.0625
Info: NONBONDED TABLE SIZE: 705 POINTS
TCL: Setting parameter alchLambda2 to 0.7000000000000001
Info: NONBONDED TABLE R-SQUARED SPACING: 0.0625
Info: NONBONDED TABLE SIZE: 705 POINTS
TCL: Running for 1500000 steps
ETITLE: TS BOND ANGLE DIHED IMPRP ELECT VDW BOUNDARY MISC KINETIC TOTAL TEMP POTENTIAL TOTALAVG TEMPAVG PRESSURE GPRESSURE VOLUME PRESSAVG GPRESSAVG
ENERGY: 0 4.7315 5.2673 1.8375 0.0000 -10597.8692 1379.8040 0.0000 0.0000 1788.7242 -7417.5047 302.2081 -9206.2289 -7417.5047 302.2081 -414.2034 -336.6029 30701.2647 -414.2034 -336.6029
ENERGY: 300000 5.5853 7.1178 5.3050 0.0000 -10633.4334 1418.2640 0.0000 0.0000 1781.4312 -7415.7301 300.9760 -9197.1613 -7472.6353 298.9839 39.7480 96.4745 30281.6505 -6.0683 26.7033
ENERGY: 600000 3.6155 10.9578 3.2018 0.0000 -10755.7839 1418.5192 0.0000 0.0000 1783.1480 -7536.3416 301.2660 -9319.4896 -7495.0032 299.9433 -428.2513 -358.9632 30699.1824 106.0359 125.6264
ENERGY: 900000 3.4641 5.8104 3.5048 0.0000 -10610.3489 1383.6036 0.0000 0.0000 1771.5138 -7442.4522 299.3004 -9213.9660 -7486.5371 300.1878 -146.1235 -158.6361 30426.1141 58.8990 91.5930
ENERGY: 1200000 7.2589 6.8878 7.4487 0.0000 -10670.4287 1395.4028 0.0000 0.0000 1763.2598 -7490.1707 297.9059 -9253.4306 -7481.1898 300.5305 -359.1263 -254.1390 30576.9152 44.2546 87.3711
ENERGY: 1500000 3.5673 6.1744 5.3724 0.0000 -10882.3151 1501.7129 0.0000 0.0000 1822.4215 -7543.0665 307.9014 -9365.4880 -7492.1585 301.0694 265.5083 282.8085 30035.0465 35.2247 81.5070
TCL: Running FEP window  15: Lambda1 0.7000000000000001 Lambda2 0.7500000000000001 [dLambda 0.050000000000000044]
TCL: Setting parameter firsttimestep to 0
TCL: Setting parameter alchLambda to 0.7000000000000001
Info: NONBONDED TABLE R-SQUARED SPACING: 0.0625
Info: NONBONDED TABLE SIZE: 705 POINTS
TCL: Setting parameter alchLambda2 to 0.7500000000000001
Info: NONBONDED TABLE R-SQUARED SPACING: 0.0625
Info: NONBONDED TABLE SIZE: 705 POINTS
TCL: Running for 1500000 steps
ETITLE: TS BOND ANGLE DIHED IMPRP ELECT VDW BOUNDARY MISC KINETIC TOTAL TEMP POTENTIAL TOTALAVG TEMPAVG PRESSURE GPRESSURE VOLUME PRESSAVG GPRESSAVG
ENERGY: 0 3.5673 6.1744 5.3724 0.0000 -10883.3131 1502.8428 0.0000 0.0000 1821.5475 -7543.8086 307.7537 -9365.3562 -7543.8086 307.7537 225.6136 304.6940 30035.0465 225.6136 304.6940
ENERGY: 300000 2.3547 6.0096 5.5769 0.0000 -10734.3180 1435.2474 0.0000 0.0000 1736.3551 -7548.7744 293.3603 -9285.1295 -7525.9547 300.3224 -81.0863 -70.7072 30591.7172 -153.6494 -123.4361
ENERGY: 600000 8.0664 5.1768 6.0160 0.0000 -10853.3025 1515.5558 0.0000 0.0000 1767.9997 -7550.4878 298.7067 -9318.4875 -7539.2881 296.8344 358.2646 430.4378 30447.5682 104.8432 150.1974
ENERGY: 900000 8.1434 5.3315 4.6245 0.0000 -10757.1787 1421.2611 0.0000 0.0000 1748.7066 -7569.1116 295.4471 -9317.8182 -7527.6267 298.1035 -616.7978 -580.4730 30976.1442 -24.0692 19.3647
ENERGY: 1200000 2.6707 5.2041 5.4036 0.0000 -10751.7677 1462.5439 0.0000 0.0000 1709.3429 -7566.6024 288.7965 -9275.9453 -7528.4118 297.7768 181.7855 323.1034 30283.9276 45.8259 91.4559
ENERGY: 1500000 3.1707 6.2752 2.7576 0.0000 -10669.2671 1396.2838 0.0000 0.0000 1857.3679 -7403.4119 313.8056 -9260.7797 -7516.3549 298.9480 -187.7263 -49.6538 30170.5588 -55.4063 -4.2141
TCL: Running FEP window  16: Lambda1 0.7500000000000001 Lambda2 0.8000000000000002 [dLambda 0.050000000000000044]
TCL: Setting parameter firsttimestep to 0
TCL: Setting parameter alchLambda to 0.7500000000000001
Info: NONBONDED TABLE R-SQUARED SPACING: 0.0625
Info: NONBONDED TABLE SIZE: 705 POINTS
TCL: Setting parameter alchLambda2 to 0.8000000000000002
Info: NONBONDED TABLE R-SQUARED SPACING: 0.0625
Info: NONBONDED TABLE SIZE: 705 POINTS
TCL: Running for 1500000 steps
ETITLE: TS BOND ANGLE DIHED IMPRP ELECT VDW BOUNDARY MISC KINETIC TOTAL TEMP POTENTIAL TOTALAVG TEMPAVG PRESSURE GPRESSURE VOLUME PRESSAVG GPRESSAVG
ENERGY: 0 3.1707 6.2752 2.7576 0.0000 -10670.2104 1396.4528 0.0000 0.0000 1856.4921 -7405.0620 313.6577 -9261.5541 -7405.0620 313.6577 -123.1139 -38.8112 30170.5588 -123.1139 -38.8112
ENERGY: 300000 6.8479 5.7176 2.9324 0.0000 -10629.0383 1391.0955 0.0000 0.0000 1796.6352 -7425.8097 303.5447 -9222.4449 -7473.8686 305.0984 -189.5247 -139.6924 30362.7820 213.4340 284.8045
ENERGY: 600000 6.3761 7.0590 4.0128 0.0000 -10670.2468 1365.6269 0.0000 0.0000 1766.5043 -7520.6677 298.4541 -9287.1720 -7491.5511 303.1433 -737.5417 -662.5372 30777.4401 -180.0159 -111.1542
ENERGY: 900000 4.3113 10.3858 5.9758 0.0000 -10679.8909 1484.9925 0.0000 0.0000 1798.4537 -7375.7719 303.8520 -9174.2255 -7482.9648 302.4832 464.2521 517.9081 31047.7449 -55.9118 6.6506
ENERGY: 1200000 8.1151 7.5861 3.3547 0.0000 -10689.3248 1416.6402 0.0000 0.0000 1762.3230 -7491.3057 297.7476 -9253.6287 -7478.9305 301.7773 -305.0754 -254.3827 30672.0015 -114.5264 -51.9068
ENERGY: 1500000 2.4900 6.1044 5.1646 0.0000 -10528.1541 1273.5776 0.0000 0.0000 1735.6256 -7505.1919 293.2370 -9240.8175 -7481.5108 301.1277 -1043.2801 -1025.5590 30308.6999 -179.4773 -115.5202
TCL: Running FEP window  17: Lambda1 0.8000000000000002 Lambda2 0.8500000000000002 [dLambda 0.050000000000000044]
TCL: Setting parameter firsttimestep to 0
TCL: Setting parameter alchLambda to 0.8000000000000002
Info: NONBONDED TABLE R-SQUARED SPACING: 0.0625
Info: NONBONDED TABLE SIZE: 705 POINTS
TCL: Setting parameter alchLambda2 to 0.8500000000000002
Info: NONBONDED TABLE R-SQUARED SPACING: 0.0625
Info: NONBONDED TABLE SIZE: 705 POINTS
TCL: Running for 1500000 steps
ETITLE: TS BOND ANGLE DIHED IMPRP ELECT VDW BOUNDARY MISC KINETIC TOTAL TEMP POTENTIAL TOTALAVG TEMPAVG PRESSURE GPRESSURE VOLUME PRESSAVG GPRESSAVG
ENERGY: 0 2.4900 6.1044 5.1646 0.0000 -10529.0534 1274.6090 0.0000 0.0000 1734.7274 -7505.9578 293.0853 -9240.6853 -7505.9578 293.0853 -1084.1076 -1001.9260 30308.6999 -1084.1076 -1001.9260
ENERGY: 300000 4.8935 5.1672 3.5727 0.0000 -10656.4929 1381.9947 0.0000 0.0000 1742.0759 -7518.7888 294.3268 -9260.8647 -7491.8404 297.3313 -577.5937 -516.0825 30525.7976 -573.7739 -523.4549
ENERGY: 600000 7.5520 6.4217 4.2059 0.0000 -10556.9066 1329.7793 0.0000 0.0000 1824.6292 -7384.3185 308.2744 -9208.9477 -7477.4616 300.9905 -838.2215 -784.2161 30872.4635 -612.1329 -569.6171
ENERGY: 900000 7.5723 4.5956 7.8942 0.0000 -10691.5810 1389.2463 0.0000 0.0000 1774.7003 -7507.5723 299.8388 -9282.2727 -7488.0794 302.0460 -381.9222 -404.9005 30442.8375 -477.0612 -436.1757
ENERGY: 1200000 2.7710 8.1377 5.1324 0.0000 -10825.8366 1525.1372 0.0000 0.0000 1794.0280 -7490.6303 303.1042 -9284.6583 -7499.8828 301.2688 507.2864 574.3194 30558.6553 -369.2902 -322.7756
ENERGY: 1500000 4.0584 5.4591 2.8699 0.0000 -10764.8093 1431.1979 0.0000 0.0000 1795.7774 -7525.4467 303.3998 -9321.2240 -7506.4212 301.5033 -16.5161 50.9869 30356.4584 -292.9385 -243.2142
TCL: Running FEP window  18: Lambda1 0.8500000000000002 Lambda2 0.9000000000000002 [dLambda 0.050000000000000044]
TCL: Setting parameter firsttimestep to 0
TCL: Setting parameter alchLambda to 0.8500000000000002
Info: NONBONDED TABLE R-SQUARED SPACING: 0.0625
Info: NONBONDED TABLE SIZE: 705 POINTS
TCL: Setting parameter alchLambda2 to 0.9000000000000002
Info: NONBONDED TABLE R-SQUARED SPACING: 0.0625
Info: NONBONDED TABLE SIZE: 705 POINTS
TCL: Running for 1500000 steps
ETITLE: TS BOND ANGLE DIHED IMPRP ELECT VDW BOUNDARY MISC KINETIC TOTAL TEMP POTENTIAL TOTALAVG TEMPAVG PRESSURE GPRESSURE VOLUME PRESSAVG GPRESSAVG
ENERGY: 0 4.0584 5.4591 2.8699 0.0000 -10765.5710 1430.8988 0.0000 0.0000 1794.8659 -7527.4188 303.2458 -9322.2847 -7527.4188 303.2458 -19.1309 59.1872 30356.4584 -19.1309 59.1872
ENERGY: 300000 2.9179 4.2636 7.1565 0.0000 -10814.3328 1549.2904 0.0000 0.0000 1749.3734 -7501.3310 295.5598 -9250.7044 -7546.4181 296.8447 1004.9809 1025.7821 30315.4914 450.2840 489.2990
ENERGY: 600000 5.1735 2.7392 2.7120 0.0000 -10832.7802 1494.5728 0.0000 0.0000 1770.1412 -7557.4414 299.0685 -9327.5826 -7533.3427 297.9312 125.8718 165.4642 30565.5509 297.8666 338.0170
ENERGY: 900000 3.7306 5.0292 6.1670 0.0000 -10602.5550 1392.1051 0.0000 0.0000 1753.8419 -7441.6812 296.3147 -9195.5231 -7504.2231 298.5992 -603.8255 -496.0111 30994.6006 118.7049 166.6416
ENERGY: 1200000 4.8190 11.9168 7.5163 0.0000 -10859.7174 1482.8627 0.0000 0.0000 1823.7581 -7528.8445 308.1272 -9352.6025 -7513.0949 298.6307 -21.9064 76.5486 30418.8538 92.4618 149.1408
ENERGY: 1500000 2.6477 4.8780 4.6082 0.0000 -10732.1215 1440.5701 0.0000 0.0000 1731.5218 -7547.8958 292.5437 -9279.4176 -7518.6203 298.1046 153.3166 219.3501 30506.7528 61.1539 111.8717
TCL: Running FEP window  19: Lambda1 0.9000000000000002 Lambda2 0.9500000000000003 [dLambda 0.050000000000000044]
TCL: Setting parameter firsttimestep to 0
TCL: Setting parameter alchLambda to 0.9000000000000002
Info: NONBONDED TABLE R-SQUARED SPACING: 0.0625
Info: NONBONDED TABLE SIZE: 705 POINTS
TCL: Setting parameter alchLambda2 to 0.9500000000000003
Info: NONBONDED TABLE R-SQUARED SPACING: 0.0625
Info: NONBONDED TABLE SIZE: 705 POINTS
TCL: Running for 1500000 steps
ETITLE: TS BOND ANGLE DIHED IMPRP ELECT VDW BOUNDARY MISC KINETIC TOTAL TEMP POTENTIAL TOTALAVG TEMPAVG PRESSURE GPRESSURE VOLUME PRESSAVG GPRESSAVG
ENERGY: 0 2.6477 4.8780 4.6082 0.0000 -10732.8782 1440.4366 0.0000 0.0000 1730.6578 -7549.6500 292.3977 -9280.3078 -7549.6500 292.3977 138.8245 227.7055 30506.7528 138.8245 227.7055
ENERGY: 300000 7.7735 4.9264 3.9497 0.0000 -10681.1065 1416.2720 0.0000 0.0000 1710.9515 -7537.2335 289.0683 -9248.1849 -7513.2168 297.0599 -436.9958 -426.1434 30736.4915 -83.4952 -8.6149
ENERGY: 600000 2.2703 3.6398 7.5914 0.0000 -10749.1119 1464.7302 0.0000 0.0000 1762.1297 -7508.7504 297.7150 -9270.8802 -7522.2019 298.0421 121.0856 265.1165 30772.9943 -127.0666 -46.3506
ENERGY: 900000 3.9362 5.9380 7.6437 0.0000 -10747.7296 1429.7774 0.0000 0.0000 1756.9991 -7543.4353 296.8481 -9300.4343 -7515.6091 299.1773 -50.3637 -41.6653 30480.0126 -163.9347 -96.6766
ENERGY: 1200000 9.7444 4.9802 5.5138 0.0000 -10582.1959 1346.9051 0.0000 0.0000 1765.8887 -7449.1636 298.3501 -9215.0523 -7502.0731 299.3369 -909.3968 -843.0713 30907.5366 -125.7355 -53.5376
ENERGY: 1500000 3.3958 5.3270 4.2051 0.0000 -10880.5134 1517.3004 0.0000 0.0000 1787.6918 -7562.5932 302.0337 -9350.2851 -7496.6114 300.4702 351.2699 400.7626 30604.1776 -17.3070 49.8282
TCL: Running FEP window  20: Lambda1 0.9500000000000003 Lambda2 1.0    [dLambda 0.04999999999999971]
TCL: Setting parameter firsttimestep to 0
TCL: Setting parameter alchLambda to 0.9500000000000003
Info: NONBONDED TABLE R-SQUARED SPACING: 0.0625
Info: NONBONDED TABLE SIZE: 705 POINTS
TCL: Setting parameter alchLambda2 to 1.0
Info: NONBONDED TABLE R-SQUARED SPACING: 0.0625
Info: NONBONDED TABLE SIZE: 705 POINTS
TCL: Running for 1500000 steps
ETITLE: TS BOND ANGLE DIHED IMPRP ELECT VDW BOUNDARY MISC KINETIC TOTAL TEMP POTENTIAL TOTALAVG TEMPAVG PRESSURE GPRESSURE VOLUME PRESSAVG GPRESSAVG
ENERGY: 0 3.3958 5.3270 4.2051 0.0000 -10881.5085 1517.3313 0.0000 0.0000 1786.8308 -7564.4186 301.8883 -9351.2494 -7564.4186 301.8883 331.2418 413.0214 30604.1776 331.2418 413.0214
ENERGY: 300000 3.5904 7.4055 4.8835 0.0000 -10698.0064 1402.9501 0.0000 0.0000 1730.0577 -7549.1192 292.2963 -9279.1769 -7508.5585 301.9430 -125.0454 -71.6158 30582.7966 -379.5849 -315.2289
ENERGY: 600000 5.5722 7.4316 4.9775 0.0000 -10765.4375 1448.0615 0.0000 0.0000 1786.4649 -7512.9299 301.8264 -9299.3947 -7498.3628 301.8220 -74.0203 18.4643 30765.0885 -256.0239 -172.7893
ENERGY: 900000 5.0759 3.7961 7.7964 0.0000 -10803.9394 1524.2082 0.0000 0.0000 1706.8354 -7556.2275 288.3729 -9263.0629 -7509.4297 299.6890 755.9242 820.1186 30521.4203 -150.7656 -77.1661
ENERGY: 1200000 2.8510 6.4049 5.2379 0.0000 -10847.2007 1483.7407 0.0000 0.0000 1784.6148 -7564.3514 301.5139 -9348.9663 -7516.3863 300.1663 1.9797 92.8808 30402.0864 -50.8353 13.8087
ENERGY: 1500000 2.3624 8.5970 4.3558 0.0000 -10836.4967 1523.6259 0.0000 0.0000 1745.8826 -7551.6730 294.9700 -9297.5556 -7531.3133 298.7371 557.2080 552.7524 30860.4759 -66.7947 -9.8014
TCL: Exiting due to exit command.
