Info: SIMULATION PARAMETERS:
Info: TIMESTEP               2
Info: NUMBER OF STEPS        0
Info: STEPS PER CYCLE        10
Info: PERIODIC CELL BASIS 1  32.9696 0 0
Info: PERIODIC CELL BASIS 2  0 33.3366 0
Info: PERIODIC CELL BASIS 3  0 0 27.6502
Info: PERIODIC CELL CENTER   0 0 0
Info: WRAPPING WATERS AROUND PERIODIC BOUNDARIES ON OUTPUT.
Info: WRAPPING ALL CLUSTERS AROUND PERIODIC BOUNDARIES ON OUTPUT.
Info: FIRST LDB TIMESTEP     50
Info: LAST LDB TIMESTEP     -1
Info: HOM BACKGROUND SCALING 1
Info: PME BACKGROUND SCALING 1
Info: MIN ATOMS PER PATCH    40
Info: EMPTY PATCH LOAD       40 ATOMS
Info: VELOCITY FILE          mobley_5510474_equil.vel
Info: CENTER OF MASS MOVING INITIALLY? NO
Info: DIELECTRIC             1
Info: EXCLUDE                SCALED ONE-FOUR
Info: 1-4 ELECTROSTATICS SCALED BY 0.833333
Info: MODIFIED 1-4 VDW PARAMETERS WILL BE USED
Info: DCD FILENAME           mobley_5510474_prod.dcd
Info: DCD FREQUENCY          100000
Info: DCD FIRST STEP         100000
Info: DCD FILE WILL CONTAIN UNIT CELL DATA
Info: XST FILENAME           mobley_5510474_prod.xst
Info: XST FREQUENCY          100000
Info: NO VELOCITY DCD OUTPUT
Info: NO FORCE DCD OUTPUT
Info: OUTPUT FILENAME        mobley_5510474_prod
Info: BINARY OUTPUT FILES WILL BE USED
Info: RESTART FILENAME       mobley_5510474_prod.restart
Info: RESTART FREQUENCY      100000
Info: BINARY RESTART FILES WILL BE USED
Info: CUTOFF                 9
Info: PAIRLIST DISTANCE      11
Info: PAIRLIST SHRINK RATE   0.01
Info: PAIRLIST GROW RATE     0.01
Info: PAIRLIST TRIGGER       0.3
Info: PAIRLISTS PER CYCLE    2
Info: PAIRLISTS ENABLED
Info: MARGIN                 2
Info: HYDROGEN GROUP CUTOFF  2.5
Info: PATCH DIMENSION        15.5
Info: ENERGY OUTPUT STEPS    100000
Info: ENERGY EVALUATION STEPS    100000
Info: OUTPUT ENERGY PRECISION 4
Info: CROSSTERM ENERGY INCLUDED IN DIHEDRAL
Info: TIMING OUTPUT STEPS    1000000
Info: PRESSURE OUTPUT STEPS  100000
Info: ALCHEMICAL FEP ON
Info: FEP CURRENT LAMBDA VALUE     1
Info: FEP COMPARISON LAMBDA VALUE  0.95
Info: FEP INTRA-ALCHEMICAL NON-BONDED INTERACTIONS WILL BE RETAINED
Info: FEP INTRA-ALCHEMICAL BONDED INTERACTIONS WILL BE RETAINED
Info: FEP VDW SHIFTING COEFFICIENT 5
Info: FEP ELEC. ACTIVE FOR ANNIHILATED PARTICLES BETWEEN LAMBDA = 0 AND LAMBDA = 0.5
Info: FEP ELEC. ACTIVE FOR EXNIHILATED PARTICLES BETWEEN LAMBDA = 0.5 AND LAMBDA = 1
Info: FEP VDW ACTIVE FOR ANNIHILATED PARTICLES BETWEEN LAMBDA = 0 AND LAMBDA = 1
Info: FEP VDW ACTIVE FOR EXNIHILATED PARTICLES BETWEEN LAMBDA = 0 AND LAMBDA = 1
Info: FEP BOND ACTIVE FOR ANNIHILATED PARTICLES BETWEEN LAMBDA = 1 AND LAMBDA = 1
Info: FEP BOND ACTIVE FOR EXNIHILATED PARTICLES BETWEEN LAMBDA = 0 AND LAMBDA = 0
Info: LANGEVIN DYNAMICS ACTIVE
Info: LANGEVIN TEMPERATURE   300
Info: LANGEVIN USING BBK INTEGRATOR
Info: LANGEVIN DAMPING COEFFICIENT IS 1 INVERSE PS
Info: LANGEVIN DYNAMICS APPLIED TO HYDROGENS
Info: LANGEVIN PISTON PRESSURE CONTROL ACTIVE
Info:        TARGET PRESSURE IS 1.01325 BAR
Info:     OSCILLATION PERIOD IS 50 FS
Info:             DECAY TIME IS 25 FS
Info:     PISTON TEMPERATURE IS 300 K
Info:       PRESSURE CONTROL IS GROUP-BASED
Info:    INITIAL STRAIN RATE IS -0.000258264 -0.000258264 -0.000258264
Info:       CELL FLUCTUATION IS ISOTROPIC
Info: PARTICLE MESH EWALD (PME) ACTIVE
Info: PME TOLERANCE               1e-06
Info: PME EWALD COEFFICIENT       0.348832
Info: PME INTERPOLATION ORDER     4
Info: PME GRID DIMENSIONS         36 36 28
Info: PME MAXIMUM GRID SPACING    1
Info: PME CALCULATION WILL BE PERFORMED ON GPU
Info: FULL ELECTROSTATIC EVALUATION FREQUENCY      2
Info: USING VERLET I (r-RESPA) MTS SCHEME.
Info: C1 SPLITTING OF LONG RANGE ELECTROSTATICS
Info: PLACING ATOMS IN PATCHES BY HYDROGEN GROUPS
Info: RIGID BONDS TO HYDROGEN : ALL
Info:         ERROR TOLERANCE : 1e-08
Info:          MAX ITERATIONS : 100
Info: RIGID WATER USING SETTLE ALGORITHM
Info: RANDOM NUMBER SEED     1743648924
Info: USE HYDROGEN BONDS?    NO
Info: Using AMBER format force field!
Info: AMBER PARM FILE        mobley_5510474.prmtop
Info: COORDINATE PDB         mobley_5510474.pdb
Info: Exclusions will be read from PARM file!
Info: SCNB (VDW SCALING)     2
Info: USING ARITHMETIC MEAN TO COMBINE L-J SIGMA PARAMETERS
Info: BINARY COORDINATES     mobley_5510474_equil.coor
Info: SUMMARY OF PARAMETERS:
Info: 6 BONDS
Info: 5 ANGLES
Info:   5 HARMONIC
Info:   0 COSINE-BASED
Info: 3 DIHEDRAL
Info: 0 IMPROPER
Info: 0 CROSSTERM
Info: 0 VDW
Info: 21 VDW_PAIRS
Info: 0 NBTHOLE_PAIRS
Info: To read alchdata from file: mobley_5510474.pdb
Info: To read alchflag data from column: 5
Info: STRUCTURE SUMMARY:
Info: 2947 ATOMS
Info: 2949 BONDS
Info: 38 ANGLES
Info: 68 DIHEDRALS
Info: 0 IMPROPERS
Info: 0 CROSSTERMS
Info: 3034 EXCLUSIONS
Info: 2929 RIGID BONDS
Info: ALCH: 0 ATOMS TO DISAPPEAR IN FINAL STATE
Info: ALCH: 22 ATOMS TO APPEAR IN FINAL STATE
Info: 5912 DEGREES OF FREEDOM
Info: 993 HYDROGEN GROUPS
Info: 3 ATOMS IN LARGEST HYDROGEN GROUP
Info: 993 MIGRATION GROUPS
Info: 3 ATOMS IN LARGEST MIGRATION GROUP
Info: TOTAL MASS = 17887.6 amu
Info: TOTAL CHARGE = -9.99719e-05 e
Info: MASS DENSITY = 0.977409 g/cm^3
Info: ATOM DENSITY = 0.096972 atoms/A^3
Info: ADDED 0 IMPLICIT EXCLUSIONS
Info: NONBONDED TABLE R-SQUARED SPACING: 0.0625
Info: NONBONDED TABLE SIZE: 705 POINTS
Info: REDUCING NUMBER OF PATCHES TO IMPROVE LOAD BALANCE
Info: REMOVING COM VELOCITY 0.13854 0.0168596 -0.076439
Info: Use 3D box decompostion in PME FFT.
Info: Updated CUDA force table with 4096 elements.
Info: Updated CUDA LJ table with 6 x 6 elements.
Info: Found 24 unique exclusion lists needing 68 bytes
TCL: Running for 1500000 steps
ETITLE: TS BOND ANGLE DIHED IMPRP ELECT VDW BOUNDARY MISC KINETIC TOTAL TEMP POTENTIAL TOTALAVG TEMPAVG PRESSURE GPRESSURE VOLUME PRESSAVG GPRESSAVG
ENERGY: 0 5.7917 5.1642 5.5400 0.0000 -10691.9817 1498.4271 0.0000 0.0000 1716.5658 -7460.4929 292.2244 -9177.0587 -7460.4929 292.2244 458.4138 546.8908 30390.2115 458.4138 546.8908
ENERGY: 300000 2.7375 3.4491 4.7786 0.0000 -10555.4979 1399.4980 0.0000 0.0000 1801.2331 -7343.8015 306.6379 -9145.0347 -7444.6076 299.5501 -58.6395 1.6310 30734.7878 88.9556 176.4826
ENERGY: 600000 7.9557 4.4160 3.3861 0.0000 -10635.5440 1468.9038 0.0000 0.0000 1779.8590 -7371.0234 302.9992 -9150.8824 -7427.4074 300.9373 199.9763 223.9397 30746.8882 -19.4895 40.9695
ENERGY: 900000 7.9564 7.7532 6.4589 0.0000 -10578.1675 1397.5684 0.0000 0.0000 1718.9180 -7439.5126 292.6248 -9158.4306 -7429.9511 299.5242 -250.3589 -141.4949 30517.0024 -126.1857 -56.9983
ENERGY: 1200000 6.0958 6.1283 5.2760 0.0000 -10511.0262 1339.2761 0.0000 0.0000 1815.4068 -7338.8432 309.0508 -9154.2500 -7416.0677 301.2042 -679.6069 -614.6465 30571.0905 -36.0750 27.1217
ENERGY: 1500000 4.8966 3.1766 4.5468 0.0000 -10680.1065 1496.9073 0.0000 0.0000 1734.3620 -7436.2172 295.2539 -9170.5793 -7410.3790 300.9422 472.5191 574.5319 30515.7410 55.2660 122.8871
TCL: Running FEP window   2: Lambda1 0.95   Lambda2 0.8999999999999999 [dLambda -0.050000000000000044]
TCL: Setting parameter firsttimestep to 0
TCL: Setting parameter alchLambda to 0.95
Info: NONBONDED TABLE R-SQUARED SPACING: 0.0625
Info: NONBONDED TABLE SIZE: 705 POINTS
TCL: Setting parameter alchLambda2 to 0.8999999999999999
Info: NONBONDED TABLE R-SQUARED SPACING: 0.0625
Info: NONBONDED TABLE SIZE: 705 POINTS
TCL: Running for 1500000 steps
ETITLE: TS BOND ANGLE DIHED IMPRP ELECT VDW BOUNDARY MISC KINETIC TOTAL TEMP POTENTIAL TOTALAVG TEMPAVG PRESSURE GPRESSURE VOLUME PRESSAVG GPRESSAVG
ENERGY: 0 4.8966 3.1766 4.5468 0.0000 -10679.8507 1498.0319 0.0000 0.0000 1733.4745 -7435.7244 295.1029 -9169.1989 -7435.7244 295.1029 472.6545 566.2469 30515.7410 472.6545 566.2469
ENERGY: 300000 3.5844 4.4889 5.4738 0.0000 -10628.5610 1436.7260 0.0000 0.0000 1740.4043 -7437.8836 296.2826 -9178.2879 -7435.0037 297.8693 297.5823 321.3358 30425.0525 181.4362 265.1371
ENERGY: 600000 7.3808 8.3441 6.5639 0.0000 -10598.0317 1419.5896 0.0000 0.0000 1757.9308 -7398.2226 299.2662 -9156.1534 -7443.5750 297.8338 -129.8535 -74.3680 30765.2358 266.3035 349.5234
ENERGY: 900000 8.4154 6.8653 4.1253 0.0000 -10692.5877 1501.2022 0.0000 0.0000 1787.9815 -7383.9980 304.3820 -9171.9795 -7433.6025 299.8735 648.0617 688.1560 30195.3412 238.1208 310.6685
ENERGY: 1200000 4.6785 3.2470 7.5140 0.0000 -10710.0253 1380.4030 0.0000 0.0000 1738.7062 -7575.4765 295.9935 -9314.1827 -7446.5638 299.3830 -251.6887 -219.7839 29888.8511 172.3506 243.2191
ENERGY: 1500000 3.1231 4.5444 7.2082 0.0000 -10588.3195 1405.4541 0.0000 0.0000 1737.1484 -7430.8413 295.7283 -9167.9897 -7438.4394 299.4680 -172.3440 -65.3523 30368.9829 141.7951 207.1670
TCL: Running FEP window   3: Lambda1 0.8999999999999999 Lambda2 0.8499999999999999 [dLambda -0.050000000000000044]
TCL: Setting parameter firsttimestep to 0
TCL: Setting parameter alchLambda to 0.8999999999999999
Info: NONBONDED TABLE R-SQUARED SPACING: 0.0625
Info: NONBONDED TABLE SIZE: 705 POINTS
TCL: Setting parameter alchLambda2 to 0.8499999999999999
Info: NONBONDED TABLE R-SQUARED SPACING: 0.0625
Info: NONBONDED TABLE SIZE: 705 POINTS
TCL: Running for 1500000 steps
ETITLE: TS BOND ANGLE DIHED IMPRP ELECT VDW BOUNDARY MISC KINETIC TOTAL TEMP POTENTIAL TOTALAVG TEMPAVG PRESSURE GPRESSURE VOLUME PRESSAVG GPRESSAVG
ENERGY: 0 3.1231 4.5444 7.2082 0.0000 -10588.4968 1406.6579 0.0000 0.0000 1736.2507 -7430.7126 295.5755 -9166.9633 -7430.7126 295.5755 -171.0980 -71.1240 30368.9829 -171.0980 -71.1240
ENERGY: 300000 7.2286 5.3994 3.5008 0.0000 -10619.8067 1430.9225 0.0000 0.0000 1734.8447 -7437.9107 295.3361 -9172.7555 -7459.5774 297.0789 -60.6958 -70.9387 30517.7114 -104.1489 -55.5704
ENERGY: 600000 5.7012 3.4249 2.8461 0.0000 -10791.3715 1608.8296 0.0000 0.0000 1736.8653 -7433.7043 295.6801 -9170.5696 -7453.1998 298.8272 1493.5225 1559.5795 30414.1779 244.1502 291.9059
ENERGY: 900000 3.5682 7.1342 6.8959 0.0000 -10648.3919 1392.5028 0.0000 0.0000 1723.2686 -7515.0222 293.3654 -9238.2908 -7453.5981 299.0039 -376.5532 -339.9768 30314.2337 99.3009 149.4757
ENERGY: 1200000 8.5226 4.4597 5.2616 0.0000 -10484.6186 1351.8356 0.0000 0.0000 1730.6240 -7383.9151 294.6176 -9114.5391 -7445.5640 297.7457 -582.4757 -522.2721 30466.3642 -40.5970 16.1595
ENERGY: 1500000 7.1821 6.6757 3.8014 0.0000 -10426.8514 1331.2999 0.0000 0.0000 1759.5379 -7318.3542 299.5398 -9077.8921 -7439.6947 298.1459 -525.9829 -479.2951 30847.7771 -72.3902 -14.2327
TCL: Running FEP window   4: Lambda1 0.8499999999999999 Lambda2 0.7999999999999998 [dLambda -0.050000000000000044]
TCL: Setting parameter firsttimestep to 0
TCL: Setting parameter alchLambda to 0.8499999999999999
Info: NONBONDED TABLE R-SQUARED SPACING: 0.0625
Info: NONBONDED TABLE SIZE: 705 POINTS
TCL: Setting parameter alchLambda2 to 0.7999999999999998
Info: NONBONDED TABLE R-SQUARED SPACING: 0.0625
Info: NONBONDED TABLE SIZE: 705 POINTS
TCL: Running for 1500000 steps
ETITLE: TS BOND ANGLE DIHED IMPRP ELECT VDW BOUNDARY MISC KINETIC TOTAL TEMP POTENTIAL TOTALAVG TEMPAVG PRESSURE GPRESSURE VOLUME PRESSAVG GPRESSAVG
ENERGY: 0 7.1821 6.6757 3.8014 0.0000 -10426.2606 1332.1817 0.0000 0.0000 1758.6590 -7317.7607 299.3902 -9076.4197 -7317.7607 299.3902 -563.4499 -489.6763 30847.7771 -563.4499 -489.6763
ENERGY: 300000 6.2198 7.8274 6.1563 0.0000 -10557.0334 1423.0889 0.0000 0.0000 1758.5406 -7355.2003 299.3701 -9113.7409 -7363.8035 298.6587 -86.4561 -112.0956 30969.6886 -186.0588 -157.4600
ENERGY: 600000 8.5350 6.4401 3.3536 0.0000 -10739.0818 1537.5184 0.0000 0.0000 1751.4476 -7431.7871 298.1626 -9183.2347 -7403.7075 297.8645 1170.6723 1194.3573 30022.6929 294.3530 341.7512
ENERGY: 900000 7.1134 3.6160 8.6890 0.0000 -10559.8833 1350.2527 0.0000 0.0000 1720.2439 -7469.9681 292.8505 -9190.2120 -7417.5543 297.6731 -969.8932 -895.8397 30749.7155 101.6920 152.8954
ENERGY: 1200000 4.5550 4.0453 9.1656 0.0000 -10628.7516 1395.8517 0.0000 0.0000 1760.4248 -7454.7093 299.6908 -9215.1341 -7421.4248 298.1069 -442.8958 -326.7928 30597.7846 -11.1021 39.7997
ENERGY: 1500000 9.2459 3.7613 3.3976 0.0000 -10653.6906 1389.3794 0.0000 0.0000 1811.1049 -7436.8015 308.3185 -9247.9064 -7429.6442 298.7129 -650.2491 -564.3916 30652.3832 -64.9505 -12.2105
TCL: Running FEP window   5: Lambda1 0.7999999999999998 Lambda2 0.7499999999999998 [dLambda -0.050000000000000044]
TCL: Setting parameter firsttimestep to 0
TCL: Setting parameter alchLambda to 0.7999999999999998
Info: NONBONDED TABLE R-SQUARED SPACING: 0.0625
Info: NONBONDED TABLE SIZE: 705 POINTS
TCL: Setting parameter alchLambda2 to 0.7499999999999998
Info: NONBONDED TABLE R-SQUARED SPACING: 0.0625
Info: NONBONDED TABLE SIZE: 705 POINTS
TCL: Running for 1500000 steps
ETITLE: TS BOND ANGLE DIHED IMPRP ELECT VDW BOUNDARY MISC KINETIC TOTAL TEMP POTENTIAL TOTALAVG TEMPAVG PRESSURE GPRESSURE VOLUME PRESSAVG GPRESSAVG
ENERGY: 0 9.2459 3.7613 3.3976 0.0000 -10653.1580 1390.5024 0.0000 0.0000 1810.2271 -7436.0237 308.1691 -9246.2508 -7436.0237 308.1691 -650.7154 -567.3718 30652.3832 -650.7154 -567.3718
ENERGY: 300000 6.3071 7.0216 6.4721 0.0000 -10499.4092 1360.2849 0.0000 0.0000 1723.3943 -7395.9292 293.3868 -9119.3235 -7449.0111 301.2927 -803.1301 -682.6476 30862.2387 -107.7014 -30.6477
ENERGY: 600000 8.3098 3.8283 6.1253 0.0000 -10582.9524 1340.1681 0.0000 0.0000 1724.1838 -7500.3371 293.5212 -9224.5209 -7434.2286 300.9668 -901.9587 -800.3003 30126.9918 -228.7615 -149.6431
ENERGY: 900000 7.1325 3.4234 5.9618 0.0000 -10521.8043 1362.9138 0.0000 0.0000 1810.6855 -7331.6872 308.2471 -9142.3727 -7424.5200 300.4138 -446.0168 -303.9562 30009.9769 -50.1617 26.9645
ENERGY: 1200000 6.7992 6.0430 11.0528 0.0000 -10645.6020 1405.7400 0.0000 0.0000 1835.6378 -7380.3292 312.4949 -9215.9670 -7411.2189 301.8845 -342.3658 -266.3613 30585.9860 -187.9379 -111.5549
ENERGY: 1500000 11.5709 3.9536 5.5215 0.0000 -10500.7561 1354.0297 0.0000 0.0000 1809.4230 -7316.2574 308.0322 -9125.6804 -7407.3195 301.7620 -587.2661 -571.8729 30749.2033 -282.6294 -214.5150
TCL: Running FEP window   6: Lambda1 0.7499999999999998 Lambda2 0.6999999999999997 [dLambda -0.050000000000000044]
TCL: Setting parameter firsttimestep to 0
TCL: Setting parameter alchLambda to 0.7499999999999998
Info: NONBONDED TABLE R-SQUARED SPACING: 0.0625
Info: NONBONDED TABLE SIZE: 705 POINTS
TCL: Setting parameter alchLambda2 to 0.6999999999999997
Info: NONBONDED TABLE R-SQUARED SPACING: 0.0625
Info: NONBONDED TABLE SIZE: 705 POINTS
TCL: Running for 1500000 steps
ETITLE: TS BOND ANGLE DIHED IMPRP ELECT VDW BOUNDARY MISC KINETIC TOTAL TEMP POTENTIAL TOTALAVG TEMPAVG PRESSURE GPRESSURE VOLUME PRESSAVG GPRESSAVG
ENERGY: 0 11.5709 3.9536 5.5215 0.0000 -10500.3828 1354.8652 0.0000 0.0000 1808.5396 -7315.9320 307.8818 -9124.4716 -7315.9320 307.8818 -659.8996 -576.7564 30749.2033 -659.8996 -576.7564
ENERGY: 300000 5.2528 5.7806 8.6455 0.0000 -10663.2896 1441.0537 0.0000 0.0000 1771.4218 -7431.1351 301.5629 -9202.5569 -7382.7258 303.0150 -103.1531 -89.4607 30512.8418 -83.6978 -16.4296
ENERGY: 600000 5.5031 5.8067 5.3671 0.0000 -10612.1655 1409.1685 0.0000 0.0000 1742.0901 -7444.2300 296.5696 -9186.3201 -7407.0194 299.4233 -91.5723 7.1852 30345.6277 -183.9090 -114.4927
ENERGY: 900000 7.0050 4.5643 3.8798 0.0000 -10639.0334 1446.4207 0.0000 0.0000 1725.5918 -7451.5719 293.7609 -9177.1636 -7401.1402 299.6776 246.6071 319.6425 29975.6527 -148.1531 -85.0550
ENERGY: 1200000 11.1166 6.5482 5.3244 0.0000 -10751.2511 1513.9748 0.0000 0.0000 1753.2080 -7461.0791 298.4622 -9214.2871 -7401.4106 300.1727 194.9837 210.0555 30503.2644 -162.5923 -105.4351
ENERGY: 1500000 5.5446 7.8261 5.1749 0.0000 -10583.2488 1345.7215 0.0000 0.0000 1757.7024 -7461.2794 299.2274 -9218.9818 -7404.8668 299.5278 -897.3383 -783.4653 30423.5158 -265.3958 -207.0500
TCL: Running FEP window   7: Lambda1 0.6999999999999997 Lambda2 0.6499999999999997 [dLambda -0.050000000000000044]
TCL: Setting parameter firsttimestep to 0
TCL: Setting parameter alchLambda to 0.6999999999999997
Info: NONBONDED TABLE R-SQUARED SPACING: 0.0625
Info: NONBONDED TABLE SIZE: 705 POINTS
TCL: Setting parameter alchLambda2 to 0.6499999999999997
Info: NONBONDED TABLE R-SQUARED SPACING: 0.0625
Info: NONBONDED TABLE SIZE: 705 POINTS
TCL: Running for 1500000 steps
ETITLE: TS BOND ANGLE DIHED IMPRP ELECT VDW BOUNDARY MISC KINETIC TOTAL TEMP POTENTIAL TOTALAVG TEMPAVG PRESSURE GPRESSURE VOLUME PRESSAVG GPRESSAVG
ENERGY: 0 5.5446 7.8261 5.1749 0.0000 -10583.4627 1345.9710 0.0000 0.0000 1756.8202 -7462.1260 299.0772 -9218.9462 -7462.1260 299.0772 -860.7564 -799.9818 30423.5158 -860.7564 -799.9818
ENERGY: 300000 5.1756 3.5510 2.7356 0.0000 -10515.2146 1387.8599 0.0000 0.0000 1743.6810 -7372.2115 296.8404 -9115.8925 -7426.6425 298.8702 -11.5205 -0.1481 30389.1912 -356.2629 -341.1964
ENERGY: 600000 5.5876 9.4704 6.0876 0.0000 -10623.0335 1442.6122 0.0000 0.0000 1786.4649 -7372.8107 304.1238 -9159.2757 -7422.4693 298.6134 233.8285 331.8516 30395.4196 -109.6755 -65.5804
ENERGY: 900000 7.0932 5.1511 8.8392 0.0000 -10650.2466 1431.1271 0.0000 0.0000 1787.0145 -7411.0216 304.2174 -9198.0361 -7425.9208 298.1691 64.1550 102.6231 30485.3522 -140.0600 -98.2245
ENERGY: 1200000 6.5478 4.2423 3.9973 0.0000 -10606.8489 1411.3872 0.0000 0.0000 1751.6855 -7428.9887 298.2031 -9180.6743 -7419.7935 298.9979 -195.0179 -127.3446 30535.9501 -143.7226 -98.9901
ENERGY: 1500000 5.7727 4.6179 8.7542 0.0000 -10622.6746 1481.2054 0.0000 0.0000 1803.7135 -7318.6110 307.0602 -9122.3245 -7409.9701 299.8525 538.3125 565.7986 30259.4812 -148.3532 -107.6126
TCL: Running FEP window   8: Lambda1 0.6499999999999997 Lambda2 0.5999999999999996 [dLambda -0.050000000000000044]
TCL: Setting parameter firsttimestep to 0
TCL: Setting parameter alchLambda to 0.6499999999999997
Info: NONBONDED TABLE R-SQUARED SPACING: 0.0625
Info: NONBONDED TABLE SIZE: 705 POINTS
TCL: Setting parameter alchLambda2 to 0.5999999999999996
Info: NONBONDED TABLE R-SQUARED SPACING: 0.0625
Info: NONBONDED TABLE SIZE: 705 POINTS
TCL: Running for 1500000 steps
ETITLE: TS BOND ANGLE DIHED IMPRP ELECT VDW BOUNDARY MISC KINETIC TOTAL TEMP POTENTIAL TOTALAVG TEMPAVG PRESSURE GPRESSURE VOLUME PRESSAVG GPRESSAVG
ENERGY: 0 5.7727 4.6179 8.7542 0.0000 -10622.5325 1481.7909 0.0000 0.0000 1802.8530 -7318.7440 306.9137 -9121.5970 -7318.7440 306.9137 475.5720 555.4930 30259.4812 475.5720 555.4930
ENERGY: 300000 5.8129 4.5644 6.0324 0.0000 -10637.8478 1435.1636 0.0000 0.0000 1795.1835 -7391.0909 305.6081 -9186.2744 -7379.3581 301.6002 -9.7830 45.2984 30636.2994 72.9836 141.4527
ENERGY: 600000 7.5493 3.0677 7.9491 0.0000 -10538.0613 1420.7921 0.0000 0.0000 1785.4196 -7313.2835 303.9459 -9098.7031 -7383.7360 301.0494 175.0221 279.1367 30596.9074 156.6645 225.7714
ENERGY: 900000 6.5719 3.1308 4.5133 0.0000 -10750.9253 1473.0021 0.0000 0.0000 1781.5460 -7482.1613 303.2864 -9263.7073 -7403.1803 301.7840 153.4661 249.6440 30133.6427 81.2042 148.6768
ENERGY: 1200000 6.3439 2.7098 5.2270 0.0000 -10581.4940 1373.1881 0.0000 0.0000 1756.7000 -7437.3253 299.0567 -9194.0252 -7401.0442 301.6820 -701.0824 -619.3124 30662.6959 36.9604 103.9080
ENERGY: 1500000 4.3918 5.7647 6.1526 0.0000 -10587.7594 1466.2817 0.0000 0.0000 1740.1352 -7365.0333 296.2368 -9105.1686 -7401.8784 300.5483 920.3703 966.7024 30039.1321 74.7294 141.3947
TCL: Running FEP window   9: Lambda1 0.5999999999999996 Lambda2 0.5499999999999996 [dLambda -0.050000000000000044]
TCL: Setting parameter firsttimestep to 0
TCL: Setting parameter alchLambda to 0.5999999999999996
Info: NONBONDED TABLE R-SQUARED SPACING: 0.0625
Info: NONBONDED TABLE SIZE: 705 POINTS
TCL: Setting parameter alchLambda2 to 0.5499999999999996
Info: NONBONDED TABLE R-SQUARED SPACING: 0.0625
Info: NONBONDED TABLE SIZE: 705 POINTS
TCL: Running for 1500000 steps
ETITLE: TS BOND ANGLE DIHED IMPRP ELECT VDW BOUNDARY MISC KINETIC TOTAL TEMP POTENTIAL TOTALAVG TEMPAVG PRESSURE GPRESSURE VOLUME PRESSAVG GPRESSAVG
ENERGY: 0 4.3918 5.7647 6.1526 0.0000 -10587.6359 1467.3212 0.0000 0.0000 1739.2642 -7364.7414 296.0885 -9104.0056 -7364.7414 296.0885 870.4550 959.4348 30039.1321 870.4550 959.4348
ENERGY: 300000 3.2451 5.3394 7.1224 0.0000 -10551.1682 1384.5179 0.0000 0.0000 1778.2472 -7372.6960 302.7249 -9150.9433 -7395.6058 296.6165 -60.5579 -19.1682 30325.2097 84.7240 158.1283
ENERGY: 600000 3.9696 4.3994 5.0685 0.0000 -10721.7676 1546.7064 0.0000 0.0000 1801.1351 -7360.4887 306.6213 -9161.6238 -7409.2227 298.7227 1265.0598 1329.5898 29985.0308 282.1358 341.5410
ENERGY: 900000 3.8774 3.7145 6.1380 0.0000 -10557.2283 1403.9957 0.0000 0.0000 1757.4689 -7382.0338 299.1876 -9139.5028 -7410.2015 299.6903 -44.6396 -53.4173 30249.7855 217.4778 272.0252
ENERGY: 1200000 4.9484 3.9313 5.2853 0.0000 -10695.6554 1435.0699 0.0000 0.0000 1782.0393 -7464.3812 303.3704 -9246.4205 -7417.2265 299.5106 -99.8421 -8.2017 30537.6869 194.5658 252.8922
ENERGY: 1500000 7.8472 3.1914 5.4456 0.0000 -10579.0793 1363.7765 0.0000 0.0000 1759.6640 -7439.1546 299.5613 -9198.8185 -7421.1649 300.0613 -373.0212 -412.1761 30136.2419 34.6794 92.1639
TCL: Running FEP window  10: Lambda1 0.5499999999999996 Lambda2 0.4999999999999996 [dLambda -0.04999999999999999]
TCL: Setting parameter firsttimestep to 0
TCL: Setting parameter alchLambda to 0.5499999999999996
Info: NONBONDED TABLE R-SQUARED SPACING: 0.0625
Info: NONBONDED TABLE SIZE: 705 POINTS
TCL: Setting parameter alchLambda2 to 0.4999999999999996
Info: NONBONDED TABLE R-SQUARED SPACING: 0.0625
Info: NONBONDED TABLE SIZE: 705 POINTS
TCL: Running for 1500000 steps
ETITLE: TS BOND ANGLE DIHED IMPRP ELECT VDW BOUNDARY MISC KINETIC TOTAL TEMP POTENTIAL TOTALAVG TEMPAVG PRESSURE GPRESSURE VOLUME PRESSAVG GPRESSAVG
ENERGY: 0 7.8472 3.1914 5.4456 0.0000 -10578.6000 1363.6054 0.0000 0.0000 1758.7732 -7439.7372 299.4097 -9198.5104 -7439.7372 299.4097 -510.5412 -426.4706 30136.2419 -510.5412 -426.4706
ENERGY: 300000 6.8239 4.9694 4.4611 0.0000 -10553.8975 1383.4505 0.0000 0.0000 1781.6094 -7372.5831 303.2972 -9154.1926 -7437.0874 299.3214 -335.2989 -337.9203 30949.2480 -71.8650 -46.2176
ENERGY: 600000 8.4784 5.3134 6.6899 0.0000 -10542.7817 1352.3116 0.0000 0.0000 1721.2031 -7448.7853 293.0138 -9169.9884 -7413.3376 299.8874 -569.6480 -494.9399 30092.7732 -336.5895 -300.6779
ENERGY: 900000 11.1241 4.1277 5.3479 0.0000 -10427.2176 1289.4853 0.0000 0.0000 1754.9225 -7362.2101 298.7541 -9117.1326 -7397.1093 300.0136 -1368.4836 -1282.8121 30753.3344 -351.8198 -296.8689
ENERGY: 1200000 7.8311 5.5515 3.8299 0.0000 -10611.4103 1418.3142 0.0000 0.0000 1746.3985 -7429.4850 297.3030 -9175.8835 -7388.5458 300.9028 -38.5049 86.9478 29915.3769 -164.6817 -107.1793
ENERGY: 1500000 6.9396 2.7804 8.1399 0.0000 -10555.0871 1400.9442 0.0000 0.0000 1777.5792 -7358.7039 302.6111 -9136.2831 -7387.2075 301.2012 -130.8973 -82.8486 30398.3955 -137.1200 -73.6647
TCL: Running FEP window  11: Lambda1 0.4999999999999996 Lambda2 0.4499999999999996 [dLambda -0.04999999999999999]
TCL: Setting parameter firsttimestep to 0
TCL: Setting parameter alchLambda to 0.4999999999999996
Info: NONBONDED TABLE R-SQUARED SPACING: 0.0625
Info: NONBONDED TABLE SIZE: 705 POINTS
TCL: Setting parameter alchLambda2 to 0.4499999999999996
Info: NONBONDED TABLE R-SQUARED SPACING: 0.0625
Info: NONBONDED TABLE SIZE: 705 POINTS
TCL: Running for 1500000 steps
ETITLE: TS BOND ANGLE DIHED IMPRP ELECT VDW BOUNDARY MISC KINETIC TOTAL TEMP POTENTIAL TOTALAVG TEMPAVG PRESSURE GPRESSURE VOLUME PRESSAVG GPRESSAVG
ENERGY: 0 6.9396 2.7804 8.1399 0.0000 -10555.1909 1401.3221 0.0000 0.0000 1776.6736 -7359.3354 302.4570 -9136.0089 -7359.3354 302.4570 -191.4326 -97.1738 30398.3955 -191.4326 -97.1738
ENERGY: 300000 6.5130 5.0471 12.5430 0.0000 -10588.0438 1403.3068 0.0000 0.0000 1743.0144 -7417.6195 296.7269 -9160.6339 -7377.5855 302.8320 -174.7074 -154.4467 30348.8643 -187.9048 -137.6809
ENERGY: 600000 5.6688 7.2823 6.1310 0.0000 -10577.3040 1387.5877 0.0000 0.0000 1757.3718 -7413.2625 299.1711 -9170.6343 -7389.4894 303.4824 -14.4178 53.3704 29791.8825 105.7583 171.6701
ENERGY: 900000 11.4871 3.1727 5.9498 0.0000 -10646.0348 1450.1428 0.0000 0.0000 1762.6382 -7412.6442 300.0676 -9175.2824 -7378.9251 302.3008 154.1230 195.5129 29906.2515 97.6348 153.9288
ENERGY: 1200000 6.8396 3.0575 3.3738 0.0000 -10676.5659 1442.6008 0.0000 0.0000 1693.6511 -7527.0431 288.3234 -9220.6942 -7393.6393 300.9659 -126.6130 -100.9259 30464.2090 132.5052 187.8801
ENERGY: 1500000 9.8575 3.8092 8.3025 0.0000 -10740.1497 1493.5986 0.0000 0.0000 1744.3241 -7480.2578 296.9499 -9224.5819 -7400.2797 301.1004 267.1837 278.4734 30020.6116 90.5339 142.6014
TCL: Running FEP window  12: Lambda1 0.4499999999999996 Lambda2 0.39999999999999963 [dLambda -0.04999999999999999]
TCL: Setting parameter firsttimestep to 0
TCL: Setting parameter alchLambda to 0.4499999999999996
Info: NONBONDED TABLE R-SQUARED SPACING: 0.0625
Info: NONBONDED TABLE SIZE: 705 POINTS
TCL: Setting parameter alchLambda2 to 0.39999999999999963
Info: NONBONDED TABLE R-SQUARED SPACING: 0.0625
Info: NONBONDED TABLE SIZE: 705 POINTS
TCL: Running for 1500000 steps
ETITLE: TS BOND ANGLE DIHED IMPRP ELECT VDW BOUNDARY MISC KINETIC TOTAL TEMP POTENTIAL TOTALAVG TEMPAVG PRESSURE GPRESSURE VOLUME PRESSAVG GPRESSAVG
ENERGY: 0 9.8575 3.8092 8.3025 0.0000 -10740.1507 1494.6042 0.0000 0.0000 1743.4455 -7480.1318 296.8003 -9223.5772 -7480.1318 296.8003 200.5795 273.4624 30020.6116 200.5795 273.4624
ENERGY: 300000 3.9740 3.6348 4.7066 0.0000 -10775.4220 1494.7062 0.0000 0.0000 1748.0698 -7520.3306 297.5875 -9268.4004 -7463.4739 299.7209 628.0070 612.8801 29977.7939 328.6386 366.6694
ENERGY: 600000 5.2469 3.1773 4.2568 0.0000 -10670.2769 1482.9605 0.0000 0.0000 1821.4972 -7353.1381 310.0877 -9174.6353 -7412.4979 301.8818 515.6900 582.4007 30091.4144 141.4163 188.6345
ENERGY: 900000 7.1865 2.5054 5.0709 0.0000 -10714.8995 1482.1930 0.0000 0.0000 1773.1808 -7444.7628 301.8624 -9217.9436 -7410.8370 301.5459 249.4544 351.2218 30812.9518 198.1364 259.2102
ENERGY: 1200000 6.4435 3.0339 6.8781 0.0000 -10673.4926 1419.9944 0.0000 0.0000 1731.0329 -7506.1097 294.6872 -9237.1427 -7425.9552 300.2685 -519.3340 -498.5974 30331.6812 85.9545 141.0063
ENERGY: 1500000 6.2061 6.4793 8.4738 0.0000 -10452.3122 1271.7550 0.0000 0.0000 1754.6584 -7404.7396 298.7092 -9159.3980 -7419.9404 301.1470 -1354.6434 -1226.1396 30484.3832 -85.5665 -24.3938
TCL: Running FEP window  13: Lambda1 0.39999999999999963 Lambda2 0.34999999999999964 [dLambda -0.04999999999999999]
TCL: Setting parameter firsttimestep to 0
TCL: Setting parameter alchLambda to 0.39999999999999963
Info: NONBONDED TABLE R-SQUARED SPACING: 0.0625
Info: NONBONDED TABLE SIZE: 705 POINTS
TCL: Setting parameter alchLambda2 to 0.34999999999999964
Info: NONBONDED TABLE R-SQUARED SPACING: 0.0625
Info: NONBONDED TABLE SIZE: 705 POINTS
TCL: Running for 1500000 steps
ETITLE: TS BOND ANGLE DIHED IMPRP ELECT VDW BOUNDARY MISC KINETIC TOTAL TEMP POTENTIAL TOTALAVG TEMPAVG PRESSURE GPRESSURE VOLUME PRESSAVG GPRESSAVG
ENERGY: 0 6.2062 6.4794 8.4738 0.0000 -10452.3123 1272.5737 0.0000 0.0000 1753.7800 -7404.7993 298.5596 -9158.5793 -7404.7993 298.5596 -1312.4419 -1230.3035 30484.3832 -1312.4419 -1230.3035
ENERGY: 300000 6.4728 3.2743 8.5862 0.0000 -10607.2992 1405.4298 0.0000 0.0000 1740.7388 -7442.7972 296.3395 -9183.5360 -7434.5334 299.5158 -380.6231 -256.2366 30396.3459 -139.5883 -63.0088
ENERGY: 600000 7.9755 4.2510 4.0817 0.0000 -10573.5070 1398.2299 0.0000 0.0000 1725.9511 -7433.0177 293.8221 -9158.9689 -7428.1764 297.9576 -586.1709 -541.7409 30754.1402 -115.7956 -47.1723
ENERGY: 900000 6.5130 5.0048 7.8329 0.0000 -10728.6018 1506.7410 0.0000 0.0000 1767.3338 -7435.1762 300.8670 -9202.5100 -7421.5626 298.9131 260.8094 323.1090 30664.9275 3.9750 71.2117
ENERGY: 1200000 4.5152 7.9631 5.6979 0.0000 -10663.6564 1437.8130 0.0000 0.0000 1761.5555 -7446.1117 299.8833 -9207.6672 -7421.4031 299.1593 -281.4342 -235.2323 30381.5971 -64.0168 3.2237
ENERGY: 1500000 8.7614 4.1791 5.2530 0.0000 -10618.2701 1452.0111 0.0000 0.0000 1777.4568 -7370.6089 302.5903 -9148.0656 -7424.7835 299.3384 197.9696 235.4173 29998.3434 -56.0649 11.0560
TCL: Running FEP window  14: Lambda1 0.34999999999999964 Lambda2 0.29999999999999966 [dLambda -0.04999999999999999]
TCL: Setting parameter firsttimestep to 0
TCL: Setting parameter alchLambda to 0.34999999999999964
Info: NONBONDED TABLE R-SQUARED SPACING: 0.0625
Info: NONBONDED TABLE SIZE: 705 POINTS
TCL: Setting parameter alchLambda2 to 0.29999999999999966
Info: NONBONDED TABLE R-SQUARED SPACING: 0.0625
Info: NONBONDED TABLE SIZE: 705 POINTS
TCL: Running for 1500000 steps
ETITLE: TS BOND ANGLE DIHED IMPRP ELECT VDW BOUNDARY MISC KINETIC TOTAL TEMP POTENTIAL TOTALAVG TEMPAVG PRESSURE GPRESSURE VOLUME PRESSAVG GPRESSAVG
ENERGY: 0 8.7614 4.1791 5.2530 0.0000 -10618.2701 1452.7495 0.0000 0.0000 1776.5506 -7370.7766 302.4360 -9147.3272 -7370.7766 302.4360 145.3714 229.0317 29998.3434 145.3714 229.0317
ENERGY: 300000 3.7369 7.5066 7.1552 0.0000 -10626.9637 1428.4773 0.0000 0.0000 1835.9684 -7344.1194 312.5512 -9180.0878 -7438.3617 301.7426 -174.5332 -96.7174 30550.5634 -334.1461 -247.1909
ENERGY: 600000 3.1194 2.4020 4.6575 0.0000 -10700.0193 1472.6253 0.0000 0.0000 1776.3613 -7440.8538 302.4038 -9217.2151 -7414.5486 302.1340 344.2042 351.5842 30270.0518 -181.8521 -114.4987
ENERGY: 900000 6.5328 4.4287 7.1415 0.0000 -10697.5422 1510.7112 0.0000 0.0000 1800.0472 -7368.6809 306.4360 -9168.7280 -7403.2401 302.8438 402.6323 502.9417 30601.3623 -59.7811 14.0241
ENERGY: 1200000 6.9729 3.9725 3.9181 0.0000 -10671.2286 1478.3986 0.0000 0.0000 1749.5589 -7428.4075 297.8410 -9177.9665 -7406.7619 302.7375 115.4499 195.1912 30552.1478 -84.3265 -4.6501
ENERGY: 1500000 4.9604 5.0229 5.2604 0.0000 -10691.1235 1508.8567 0.0000 0.0000 1726.9704 -7440.0528 293.9956 -9167.0231 -7405.8131 302.6234 582.3429 574.1797 30302.0033 -32.2466 42.7926
TCL: Running FEP window  15: Lambda1 0.29999999999999966 Lambda2 0.24999999999999967 [dLambda -0.04999999999999999]
TCL: Setting parameter firsttimestep to 0
TCL: Setting parameter alchLambda to 0.29999999999999966
Info: NONBONDED TABLE R-SQUARED SPACING: 0.0625
Info: NONBONDED TABLE SIZE: 705 POINTS
TCL: Setting parameter alchLambda2 to 0.24999999999999967
Info: NONBONDED TABLE R-SQUARED SPACING: 0.0625
Info: NONBONDED TABLE SIZE: 705 POINTS
TCL: Running for 1500000 steps
ETITLE: TS BOND ANGLE DIHED IMPRP ELECT VDW BOUNDARY MISC KINETIC TOTAL TEMP POTENTIAL TOTALAVG TEMPAVG PRESSURE GPRESSURE VOLUME PRESSAVG GPRESSAVG
ENERGY: 0 4.9604 5.0229 5.2604 0.0000 -10691.1225 1509.7673 0.0000 0.0000 1726.0994 -7440.0122 293.8473 -9166.1115 -7440.0122 293.8473 500.6752 574.8603 30302.0033 500.6752 574.8603
ENERGY: 300000 11.8577 5.3930 5.2225 0.0000 -10609.7266 1436.5507 0.0000 0.0000 1704.2974 -7446.4053 290.1358 -9150.7027 -7425.7370 295.2605 234.5609 254.1114 30277.3925 163.7940 212.7393
ENERGY: 600000 9.1113 3.6030 4.2589 0.0000 -10711.1948 1481.5089 0.0000 0.0000 1851.2451 -7361.4675 315.1519 -9212.7126 -7421.1039 298.6621 -157.0515 -69.0710 30615.3408 2.1163 54.2536
ENERGY: 900000 5.9030 5.1706 8.2682 0.0000 -10706.6700 1526.2640 0.0000 0.0000 1806.6410 -7354.4232 307.5586 -9161.0642 -7415.1965 299.8424 909.8028 1022.4921 29978.1434 146.7821 198.9412
ENERGY: 1200000 7.1065 6.2615 4.1844 0.0000 -10652.8548 1446.0549 0.0000 0.0000 1761.2089 -7428.0385 299.8243 -9189.2475 -7414.1901 299.5238 -119.4890 -106.1596 30265.2550 64.2806 114.5014
ENERGY: 1500000 5.7880 4.3863 2.7902 0.0000 -10652.6896 1429.2210 0.0000 0.0000 1676.8161 -7533.6880 285.4575 -9210.5041 -7424.3600 298.5351 95.4917 109.5663 30034.6957 8.3686 61.4270
TCL: Running FEP window  16: Lambda1 0.24999999999999967 Lambda2 0.19999999999999968 [dLambda -0.04999999999999999]
TCL: Setting parameter firsttimestep to 0
TCL: Setting parameter alchLambda to 0.24999999999999967
Info: NONBONDED TABLE R-SQUARED SPACING: 0.0625
Info: NONBONDED TABLE SIZE: 705 POINTS
TCL: Setting parameter alchLambda2 to 0.19999999999999968
Info: NONBONDED TABLE R-SQUARED SPACING: 0.0625
Info: NONBONDED TABLE SIZE: 705 POINTS
TCL: Running for 1500000 steps
ETITLE: TS BOND ANGLE DIHED IMPRP ELECT VDW BOUNDARY MISC KINETIC TOTAL TEMP POTENTIAL TOTALAVG TEMPAVG PRESSURE GPRESSURE VOLUME PRESSAVG GPRESSAVG
ENERGY: 0 5.7880 4.3863 2.7902 0.0000 -10652.6885 1430.0868 0.0000 0.0000 1675.9372 -7533.6999 285.3078 -9209.6371 -7533.6999 285.3078 10.2362 107.0606 30034.6957 10.2362 107.0606
ENERGY: 300000 5.7402 4.1217 4.0593 0.0000 -10566.7599 1377.0986 0.0000 0.0000 1719.7873 -7455.9528 292.7728 -9175.7402 -7436.9852 294.5216 -599.1930 -477.5118 30230.4109 20.7969 107.9593
ENERGY: 600000 8.5859 3.8089 4.6593 0.0000 -10587.1317 1389.3978 0.0000 0.0000 1735.1472 -7445.5327 295.3876 -9180.6799 -7435.3460 296.9974 -347.4202 -315.1587 30012.1986 -223.8694 -165.0385
ENERGY: 900000 8.9477 4.8886 2.8158 0.0000 -10559.9685 1446.3371 0.0000 0.0000 1826.3936 -7270.5858 310.9212 -9096.9793 -7415.9890 299.3573 71.2793 131.5852 30635.9137 -153.0887 -87.4931
ENERGY: 1200000 8.2343 6.3745 4.7311 0.0000 -10679.7461 1463.1159 0.0000 0.0000 1700.6841 -7496.6063 289.5207 -9197.2904 -7415.6417 297.7015 72.6752 165.4679 30126.2705 -175.7022 -109.8495
ENERGY: 1500000 5.3313 5.6225 6.1039 0.0000 -10684.9106 1459.7997 0.0000 0.0000 1739.9514 -7468.1018 296.2055 -9208.0532 -7418.6235 298.1686 167.4163 229.4855 30157.9812 -142.9712 -76.2243
TCL: Running FEP window  17: Lambda1 0.19999999999999968 Lambda2 0.1499999999999997 [dLambda -0.04999999999999999]
TCL: Setting parameter firsttimestep to 0
TCL: Setting parameter alchLambda to 0.19999999999999968
Info: NONBONDED TABLE R-SQUARED SPACING: 0.0625
Info: NONBONDED TABLE SIZE: 705 POINTS
TCL: Setting parameter alchLambda2 to 0.1499999999999997
Info: NONBONDED TABLE R-SQUARED SPACING: 0.0625
Info: NONBONDED TABLE SIZE: 705 POINTS
TCL: Running for 1500000 steps
ETITLE: TS BOND ANGLE DIHED IMPRP ELECT VDW BOUNDARY MISC KINETIC TOTAL TEMP POTENTIAL TOTALAVG TEMPAVG PRESSURE GPRESSURE VOLUME PRESSAVG GPRESSAVG
ENERGY: 0 5.3313 5.6225 6.1039 0.0000 -10684.9119 1460.5334 0.0000 0.0000 1739.0874 -7468.2335 296.0584 -9207.3208 -7468.2335 296.0584 164.1311 227.3406 30157.9812 164.1311 227.3406
ENERGY: 300000 10.5832 3.6203 3.8618 0.0000 -10493.6935 1332.7916 0.0000 0.0000 1822.1583 -7320.6783 310.2002 -9142.8366 -7413.1188 299.7419 -784.9740 -772.4079 30293.2196 -287.0219 -241.0236
ENERGY: 600000 4.0469 6.2660 5.1541 0.0000 -10711.7071 1470.5781 0.0000 0.0000 1776.0088 -7449.6532 302.3438 -9225.6620 -7441.1437 299.2614 27.8118 117.6306 30360.6256 -231.7889 -174.2584
ENERGY: 900000 6.8833 5.3149 5.9266 0.0000 -10661.5038 1497.5140 0.0000 0.0000 1777.2366 -7368.6284 302.5528 -9145.8650 -7409.5094 300.2597 567.0586 656.6075 30031.0790 -96.5327 -28.9962
ENERGY: 1200000 5.9219 3.9986 5.5544 0.0000 -10641.5527 1419.9500 0.0000 0.0000 1773.0921 -7433.0357 301.8473 -9206.1278 -7424.2582 299.7838 -125.6976 -64.1675 29884.7241 -5.7332 65.6369
ENERGY: 1500000 5.4491 5.1399 3.9646 0.0000 -10619.8883 1417.9873 0.0000 0.0000 1784.1713 -7403.1761 303.7334 -9187.3474 -7422.0435 299.8953 -556.8395 -509.9774 30479.5233 -88.2392 -19.9680
TCL: Running FEP window  18: Lambda1 0.1499999999999997 Lambda2 0.09999999999999969 [dLambda -0.05 ]
TCL: Setting parameter firsttimestep to 0
TCL: Setting parameter alchLambda to 0.1499999999999997
Info: NONBONDED TABLE R-SQUARED SPACING: 0.0625
Info: NONBONDED TABLE SIZE: 705 POINTS
TCL: Setting parameter alchLambda2 to 0.09999999999999969
Info: NONBONDED TABLE R-SQUARED SPACING: 0.0625
Info: NONBONDED TABLE SIZE: 705 POINTS
TCL: Running for 1500000 steps
ETITLE: TS BOND ANGLE DIHED IMPRP ELECT VDW BOUNDARY MISC KINETIC TOTAL TEMP POTENTIAL TOTALAVG TEMPAVG PRESSURE GPRESSURE VOLUME PRESSAVG GPRESSAVG
ENERGY: 0 5.4491 5.1399 3.9646 0.0000 -10619.8875 1418.5537 0.0000 0.0000 1783.2851 -7403.4951 303.5825 -9186.7802 -7403.4951 303.5825 -605.2739 -511.5053 30479.5233 -605.2739 -511.5053
ENERGY: 300000 7.7079 3.0713 3.6687 0.0000 -10604.9974 1471.8559 0.0000 0.0000 1736.4551 -7382.2385 295.6103 -9118.6936 -7421.8163 297.7841 424.3562 448.5401 30184.7919 -188.0076 -152.6495
ENERGY: 600000 6.4306 5.9562 2.4102 0.0000 -10631.9204 1346.4712 0.0000 0.0000 1764.7204 -7505.9318 300.4221 -9270.6522 -7423.8745 299.5764 -982.0810 -959.5267 30482.5192 -377.6541 -352.4451
ENERGY: 900000 8.7959 5.5210 6.1992 0.0000 -10558.5213 1382.0397 0.0000 0.0000 1768.6505 -7387.3151 301.0911 -9155.9655 -7419.4743 299.3193 -814.6257 -693.9532 30393.2904 -295.9992 -253.2171
ENERGY: 1200000 7.5027 3.5770 6.7785 0.0000 -10820.0119 1516.7369 0.0000 0.0000 1788.7109 -7496.7059 304.5062 -9285.4168 -7419.5540 300.9540 289.2900 401.5052 29826.6425 -281.2993 -230.8525
ENERGY: 1500000 3.8903 4.2299 6.2754 0.0000 -10492.9204 1428.8114 0.0000 0.0000 1752.9986 -7296.7148 298.4266 -9049.7134 -7413.4917 299.8585 72.3888 204.1579 30462.8373 -313.8217 -257.3911
TCL: Running FEP window  19: Lambda1 0.09999999999999969 Lambda2 0.049999999999999684 [dLambda -0.05 ]
TCL: Setting parameter firsttimestep to 0
TCL: Setting parameter alchLambda to 0.09999999999999969
Info: NONBONDED TABLE R-SQUARED SPACING: 0.0625
Info: NONBONDED TABLE SIZE: 705 POINTS
TCL: Setting parameter alchLambda2 to 0.049999999999999684
Info: NONBONDED TABLE R-SQUARED SPACING: 0.0625
Info: NONBONDED TABLE SIZE: 705 POINTS
TCL: Running for 1500000 steps
ETITLE: TS BOND ANGLE DIHED IMPRP ELECT VDW BOUNDARY MISC KINETIC TOTAL TEMP POTENTIAL TOTALAVG TEMPAVG PRESSURE GPRESSURE VOLUME PRESSAVG GPRESSAVG
ENERGY: 0 3.8903 4.2299 6.2754 0.0000 -10492.9187 1428.0460 0.0000 0.0000 1752.1037 -7298.3735 298.2742 -9050.4771 -7298.3735 298.2742 102.6357 194.2450 30462.8373 102.6357 194.2450
ENERGY: 300000 7.5523 4.1910 5.6354 0.0000 -10639.8845 1482.7688 0.0000 0.0000 1782.2579 -7357.4792 303.4076 -9139.7371 -7350.5743 302.6992 603.9636 693.8447 29940.7013 144.6962 192.3461
ENERGY: 600000 6.5761 6.4240 4.0633 0.0000 -10791.8460 1556.7351 0.0000 0.0000 1819.6496 -7398.3980 309.7731 -9218.0476 -7369.9951 304.1820 807.8128 856.9059 29776.7433 105.6074 164.0528
ENERGY: 900000 2.7159 6.6730 4.3225 0.0000 -10694.1339 1514.5060 0.0000 0.0000 1713.8520 -7452.0646 291.7624 -9165.9165 -7388.6082 303.2446 610.6166 673.9343 30081.4649 55.1409 122.4633
ENERGY: 1200000 5.3704 4.5531 7.1664 0.0000 -10719.6527 1428.4721 0.0000 0.0000 1753.1913 -7520.8994 298.4594 -9274.0907 -7411.8462 302.3405 -396.2279 -319.4182 30408.3303 125.7284 192.8597
ENERGY: 1500000 6.9535 4.8156 3.4346 0.0000 -10608.3372 1388.1152 0.0000 0.0000 1798.8726 -7406.1458 306.2361 -9205.0183 -7416.9200 301.7986 -322.9366 -224.1172 30073.1312 83.5864 151.1885
TCL: Running FEP window  20: Lambda1 0.049999999999999684 Lambda2 0.0    [dLambda -0.049999999999999684]
TCL: Setting parameter firsttimestep to 0
TCL: Setting parameter alchLambda to 0.049999999999999684
Info: NONBONDED TABLE R-SQUARED SPACING: 0.0625
Info: NONBONDED TABLE SIZE: 705 POINTS
TCL: Setting parameter alchLambda2 to 0.0
Info: NONBONDED TABLE R-SQUARED SPACING: 0.0625
Info: NONBONDED TABLE SIZE: 705 POINTS
TCL: Running for 1500000 steps
ETITLE: TS BOND ANGLE DIHED IMPRP ELECT VDW BOUNDARY MISC KINETIC TOTAL TEMP POTENTIAL TOTALAVG TEMPAVG PRESSURE GPRESSURE VOLUME PRESSAVG GPRESSAVG
ENERGY: 0 6.9535 4.8156 3.4346 0.0000 -10608.3370 1387.5410 0.0000 0.0000 1797.9692 -7407.6231 306.0823 -9205.5923 -7407.6231 306.0823 -319.5968 -231.5686 30073.1312 -319.5968 -231.5686
ENERGY: 300000 7.8837 4.8661 8.0185 0.0000 -10640.1570 1441.5632 0.0000 0.0000 1705.2684 -7472.5570 290.3011 -9177.8255 -7408.4560 297.9972 -393.5297 -294.4463 30249.3298 -401.4085 -314.1872
ENERGY: 600000 9.4820 8.1490 8.4090 0.0000 -10599.5230 1395.1617 0.0000 0.0000 1782.5955 -7395.7257 303.4651 -9178.3212 -7409.7767 300.5282 -658.7945 -532.9492 30342.7850 -361.2386 -270.7873
ENERGY: 900000 13.8156 4.1377 4.0976 0.0000 -10504.6107 1417.9745 0.0000 0.0000 1752.6251 -7311.9601 298.3630 -9064.5852 -7404.2666 299.3210 -194.2793 -138.4245 30327.9200 -250.0702 -168.8593
ENERGY: 1200000 6.0631 3.9737 2.9536 0.0000 -10641.8128 1407.0272 0.0000 0.0000 1795.0477 -7426.7475 305.5850 -9221.7952 -7413.0785 299.7425 -493.0985 -475.8540 30317.9971 -266.8105 -201.8357
ENERGY: 1500000 5.7494 4.0880 6.7764 0.0000 -10647.2796 1477.0661 0.0000 0.0000 1762.4089 -7391.1909 300.0286 -9153.5997 -7415.4729 300.3351 150.8738 271.8532 30212.0752 -171.4723 -108.3974
TCL: Exiting due to exit command.
