Info: SIMULATION PARAMETERS:
Info: TIMESTEP               2
Info: NUMBER OF STEPS        0
Info: STEPS PER CYCLE        10
Info: PERIODIC CELL BASIS 1  31.0018 0 0
Info: PERIODIC CELL BASIS 2  0 31.3569 0
Info: PERIODIC CELL BASIS 3  0 0 31.6332
Info: PERIODIC CELL CENTER   0 0 0
Info: WRAPPING WATERS AROUND PERIODIC BOUNDARIES ON OUTPUT.
Info: WRAPPING ALL CLUSTERS AROUND PERIODIC BOUNDARIES ON OUTPUT.
Info: FIRST LDB TIMESTEP     50
Info: LAST LDB TIMESTEP     -1
Info: HOM BACKGROUND SCALING 1
Info: PME BACKGROUND SCALING 1
Info: MIN ATOMS PER PATCH    40
Info: EMPTY PATCH LOAD       40 ATOMS
Info: VELOCITY FILE          mobley_2784376_equil.vel
Info: CENTER OF MASS MOVING INITIALLY? NO
Info: DIELECTRIC             1
Info: EXCLUDE                SCALED ONE-FOUR
Info: 1-4 ELECTROSTATICS SCALED BY 0.833333
Info: MODIFIED 1-4 VDW PARAMETERS WILL BE USED
Info: DCD FILENAME           mobley_2784376_prod.dcd
Info: DCD FREQUENCY          100000
Info: DCD FIRST STEP         100000
Info: DCD FILE WILL CONTAIN UNIT CELL DATA
Info: XST FILENAME           mobley_2784376_prod.xst
Info: XST FREQUENCY          100000
Info: NO VELOCITY DCD OUTPUT
Info: NO FORCE DCD OUTPUT
Info: OUTPUT FILENAME        mobley_2784376_prod
Info: BINARY OUTPUT FILES WILL BE USED
Info: RESTART FILENAME       mobley_2784376_prod.restart
Info: RESTART FREQUENCY      100000
Info: BINARY RESTART FILES WILL BE USED
Info: CUTOFF                 9
Info: PAIRLIST DISTANCE      11
Info: PAIRLIST SHRINK RATE   0.01
Info: PAIRLIST GROW RATE     0.01
Info: PAIRLIST TRIGGER       0.3
Info: PAIRLISTS PER CYCLE    2
Info: PAIRLISTS ENABLED
Info: MARGIN                 2
Info: HYDROGEN GROUP CUTOFF  2.5
Info: PATCH DIMENSION        15.5
Info: ENERGY OUTPUT STEPS    100000
Info: ENERGY EVALUATION STEPS    100000
Info: OUTPUT ENERGY PRECISION 4
Info: CROSSTERM ENERGY INCLUDED IN DIHEDRAL
Info: TIMING OUTPUT STEPS    1000000
Info: PRESSURE OUTPUT STEPS  100000
Info: ALCHEMICAL FEP ON
Info: FEP CURRENT LAMBDA VALUE     0
Info: FEP COMPARISON LAMBDA VALUE  0.05
Info: FEP INTRA-ALCHEMICAL NON-BONDED INTERACTIONS WILL BE RETAINED
Info: FEP INTRA-ALCHEMICAL BONDED INTERACTIONS WILL BE RETAINED
Info: FEP VDW SHIFTING COEFFICIENT 5
Info: FEP ELEC. ACTIVE FOR ANNIHILATED PARTICLES BETWEEN LAMBDA = 0 AND LAMBDA = 0.5
Info: FEP ELEC. ACTIVE FOR EXNIHILATED PARTICLES BETWEEN LAMBDA = 0.5 AND LAMBDA = 1
Info: FEP VDW ACTIVE FOR ANNIHILATED PARTICLES BETWEEN LAMBDA = 0 AND LAMBDA = 1
Info: FEP VDW ACTIVE FOR EXNIHILATED PARTICLES BETWEEN LAMBDA = 0 AND LAMBDA = 1
Info: FEP BOND ACTIVE FOR ANNIHILATED PARTICLES BETWEEN LAMBDA = 1 AND LAMBDA = 1
Info: FEP BOND ACTIVE FOR EXNIHILATED PARTICLES BETWEEN LAMBDA = 0 AND LAMBDA = 0
Info: LANGEVIN DYNAMICS ACTIVE
Info: LANGEVIN TEMPERATURE   300
Info: LANGEVIN USING BBK INTEGRATOR
Info: LANGEVIN DAMPING COEFFICIENT IS 1 INVERSE PS
Info: LANGEVIN DYNAMICS APPLIED TO HYDROGENS
Info: LANGEVIN PISTON PRESSURE CONTROL ACTIVE
Info:        TARGET PRESSURE IS 1.01325 BAR
Info:     OSCILLATION PERIOD IS 50 FS
Info:             DECAY TIME IS 25 FS
Info:     PISTON TEMPERATURE IS 300 K
Info:       PRESSURE CONTROL IS GROUP-BASED
Info:    INITIAL STRAIN RATE IS -0.000110768 -0.000110768 -0.000110768
Info:       CELL FLUCTUATION IS ISOTROPIC
Info: PARTICLE MESH EWALD (PME) ACTIVE
Info: PME TOLERANCE               1e-06
Info: PME EWALD COEFFICIENT       0.348832
Info: PME INTERPOLATION ORDER     4
Info: PME GRID DIMENSIONS         32 32 32
Info: PME MAXIMUM GRID SPACING    1
Info: PME CALCULATION WILL BE PERFORMED ON GPU
Info: FULL ELECTROSTATIC EVALUATION FREQUENCY      2
Info: USING VERLET I (r-RESPA) MTS SCHEME.
Info: C1 SPLITTING OF LONG RANGE ELECTROSTATICS
Info: PLACING ATOMS IN PATCHES BY HYDROGEN GROUPS
Info: RIGID BONDS TO HYDROGEN : ALL
Info:         ERROR TOLERANCE : 1e-08
Info:          MAX ITERATIONS : 100
Info: RIGID WATER USING SETTLE ALGORITHM
Info: RANDOM NUMBER SEED     1743496162
Info: USE HYDROGEN BONDS?    NO
Info: Using AMBER format force field!
Info: AMBER PARM FILE        mobley_2784376.prmtop
Info: COORDINATE PDB         mobley_2784376.pdb
Info: Exclusions will be read from PARM file!
Info: SCNB (VDW SCALING)     2
Info: USING ARITHMETIC MEAN TO COMBINE L-J SIGMA PARAMETERS
Info: BINARY COORDINATES     mobley_2784376_equil.coor
Info: SUMMARY OF PARAMETERS:
Info: 4 BONDS
Info: 3 ANGLES
Info:   3 HARMONIC
Info:   0 COSINE-BASED
Info: 1 DIHEDRAL
Info: 0 IMPROPER
Info: 0 CROSSTERM
Info: 0 VDW
Info: 10 VDW_PAIRS
Info: 0 NBTHOLE_PAIRS
Info: To read alchdata from file: mobley_2784376.pdb
Info: To read alchflag data from column: 5
Info: STRUCTURE SUMMARY:
Info: 2997 ATOMS
Info: 2997 BONDS
Info: 18 ANGLES
Info: 24 DIHEDRALS
Info: 0 IMPROPERS
Info: 0 CROSSTERMS
Info: 3024 EXCLUSIONS
Info: 2994 RIGID BONDS
Info: ALCH: 0 ATOMS TO DISAPPEAR IN FINAL STATE
Info: ALCH: 9 ATOMS TO APPEAR IN FINAL STATE
Info: 5997 DEGREES OF FREEDOM
Info: 999 HYDROGEN GROUPS
Info: 3 ATOMS IN LARGEST HYDROGEN GROUP
Info: 999 MIGRATION GROUPS
Info: 3 ATOMS IN LARGEST MIGRATION GROUP
Info: TOTAL MASS = 17986 amu
Info: TOTAL CHARGE = 0.000300005 e
Info: MASS DENSITY = 0.97125 g/cm^3
Info: ATOM DENSITY = 0.0974594 atoms/A^3
Info: ADDED 0 IMPLICIT EXCLUSIONS
Info: NONBONDED TABLE R-SQUARED SPACING: 0.0625
Info: NONBONDED TABLE SIZE: 705 POINTS
Info: REDUCING NUMBER OF PATCHES TO IMPROVE LOAD BALANCE
Info: REMOVING COM VELOCITY 0.170654 0.0371497 0.0661002
Info: Use 3D box decompostion in PME FFT.
Info: Updated CUDA force table with 4096 elements.
Info: Updated CUDA LJ table with 4 x 4 elements.
Info: Found 12 unique exclusion lists needing 20 bytes
TCL: Running for 1500000 steps
ETITLE: TS BOND ANGLE DIHED IMPRP ELECT VDW BOUNDARY MISC KINETIC TOTAL TEMP POTENTIAL TOTALAVG TEMPAVG PRESSURE GPRESSURE VOLUME PRESSAVG GPRESSAVG
ENERGY: 0 0.1226 4.1499 6.0370 0.0000 -11033.6949 1567.0440 0.0000 0.0000 1743.1681 -7713.1733 292.5470 -9456.3414 -7713.1733 292.5470 530.9034 602.1073 30751.2710 530.9034 602.1073
ENERGY: 300000 0.5249 4.2854 6.2966 0.0000 -11089.5572 1605.8309 0.0000 0.0000 1777.6053 -7695.0141 298.3264 -9472.6195 -7685.0798 297.5433 983.2668 1003.6250 30339.9134 599.4051 626.1486
ENERGY: 600000 0.1094 1.9054 6.4635 0.0000 -10796.5872 1410.7156 0.0000 0.0000 1808.4043 -7568.9891 303.4952 -9377.3934 -7649.3977 300.5443 -453.3789 -360.8755 30887.8559 281.4911 335.3034
ENERGY: 900000 0.3583 6.7459 5.6971 0.0000 -10969.2337 1497.5442 0.0000 0.0000 1757.1801 -7701.7081 294.8985 -9458.8882 -7643.6890 300.5922 175.6143 237.2554 30678.4607 234.7485 283.8578
ENERGY: 1200000 2.7852 4.1319 6.0197 0.0000 -10900.8341 1500.1269 0.0000 0.0000 1821.9180 -7565.8523 305.7632 -9387.7703 -7631.4322 300.7892 95.0000 161.3837 30851.2602 171.4853 224.6741
ENERGY: 1500000 0.2980 1.5359 6.2818 0.0000 -10929.3432 1528.5380 0.0000 0.0000 1845.6160 -7547.0736 309.7403 -9392.6895 -7621.5797 301.7267 713.8467 761.9775 30470.3745 109.7199 163.5903
TCL: Running FEP window   2: Lambda1 0.05   Lambda2 0.1    [dLambda 0.05  ]
TCL: Setting parameter firsttimestep to 0
TCL: Setting parameter alchLambda to 0.05
Info: NONBONDED TABLE R-SQUARED SPACING: 0.0625
Info: NONBONDED TABLE SIZE: 705 POINTS
TCL: Setting parameter alchLambda2 to 0.1
Info: NONBONDED TABLE R-SQUARED SPACING: 0.0625
Info: NONBONDED TABLE SIZE: 705 POINTS
TCL: Running for 1500000 steps
ETITLE: TS BOND ANGLE DIHED IMPRP ELECT VDW BOUNDARY MISC KINETIC TOTAL TEMP POTENTIAL TOTALAVG TEMPAVG PRESSURE GPRESSURE VOLUME PRESSAVG GPRESSAVG
ENERGY: 0 0.2980 1.5359 6.2818 0.0000 -10929.3437 1529.2714 0.0000 0.0000 1844.6889 -7547.2678 309.5847 -9391.9566 -7547.2678 309.5847 677.8904 762.4491 30470.3745 677.8904 762.4491
ENERGY: 300000 0.7399 2.2881 6.3534 0.0000 -10906.4717 1449.3684 0.0000 0.0000 1811.0588 -7636.6631 303.9407 -9447.7219 -7614.3057 302.2573 -234.4132 -234.9429 30729.1010 258.6524 311.3887
ENERGY: 600000 0.6812 5.3462 6.1809 0.0000 -10799.2701 1420.0833 0.0000 0.0000 1810.3568 -7556.6217 303.8229 -9366.9785 -7631.8430 300.9340 -349.7407 -240.9881 30920.1595 149.9943 218.2123
ENERGY: 900000 2.0067 6.1448 5.9584 0.0000 -10909.7535 1479.7941 0.0000 0.0000 1792.1914 -7623.6580 300.7743 -9415.8495 -7637.6850 300.3883 -46.6828 -51.2407 31055.2417 43.9736 110.9872
ENERGY: 1200000 0.1108 3.4178 6.0883 0.0000 -10792.7583 1360.0394 0.0000 0.0000 1772.0660 -7651.0360 297.3968 -9423.1020 -7636.0981 300.3063 -1155.2866 -1110.8380 31314.1749 4.8743 61.0231
ENERGY: 1500000 0.7997 3.3150 6.4448 0.0000 -10907.4407 1415.8073 0.0000 0.0000 1789.1500 -7691.9239 300.2639 -9481.0738 -7639.1438 300.1252 -475.3238 -503.0693 30574.3349 17.5012 61.4650
TCL: Running FEP window   3: Lambda1 0.1    Lambda2 0.15000000000000002 [dLambda 0.05000000000000002]
TCL: Setting parameter firsttimestep to 0
TCL: Setting parameter alchLambda to 0.1
Info: NONBONDED TABLE R-SQUARED SPACING: 0.0625
Info: NONBONDED TABLE SIZE: 705 POINTS
TCL: Setting parameter alchLambda2 to 0.15000000000000002
Info: NONBONDED TABLE R-SQUARED SPACING: 0.0625
Info: NONBONDED TABLE SIZE: 705 POINTS
TCL: Running for 1500000 steps
ETITLE: TS BOND ANGLE DIHED IMPRP ELECT VDW BOUNDARY MISC KINETIC TOTAL TEMP POTENTIAL TOTALAVG TEMPAVG PRESSURE GPRESSURE VOLUME PRESSAVG GPRESSAVG
ENERGY: 0 0.7997 3.3150 6.4448 0.0000 -10907.4394 1416.5361 0.0000 0.0000 1788.2640 -7692.0798 300.1152 -9480.3438 -7692.0798 300.1152 -581.7606 -500.2722 30574.3349 -581.7606 -500.2722
ENERGY: 300000 0.6750 8.3808 6.1532 0.0000 -10744.0531 1359.0814 0.0000 0.0000 1833.4344 -7536.3284 307.6959 -9369.7628 -7654.1792 298.7484 -769.3595 -704.3676 30687.8929 -291.2805 -203.5368
ENERGY: 600000 0.2726 3.8346 6.2282 0.0000 -10906.8955 1441.2322 0.0000 0.0000 1864.1085 -7591.2194 312.8438 -9455.3279 -7645.7144 299.9897 -85.0121 -38.6591 30482.5470 -247.3305 -170.8072
ENERGY: 900000 1.2545 3.8266 6.1686 0.0000 -10965.2978 1501.9805 0.0000 0.0000 1825.2096 -7626.8579 306.3156 -9452.0676 -7636.7889 300.1362 324.0919 384.3024 30454.7905 -148.8250 -79.9540
ENERGY: 1200000 0.6383 4.1852 6.4031 0.0000 -10922.3047 1506.3980 0.0000 0.0000 1770.4745 -7634.2057 297.1297 -9404.6801 -7624.5421 300.7419 166.5591 220.6048 31111.8614 -61.6666 1.2407
ENERGY: 1500000 0.6624 3.2837 6.1921 0.0000 -10754.1231 1387.4078 0.0000 0.0000 1783.3926 -7573.1845 299.2976 -9356.5771 -7620.9573 301.1127 -662.9273 -627.3528 31169.3544 -59.4306 3.3649
TCL: Running FEP window   4: Lambda1 0.15000000000000002 Lambda2 0.2    [dLambda 0.04999999999999999]
TCL: Setting parameter firsttimestep to 0
TCL: Setting parameter alchLambda to 0.15000000000000002
Info: NONBONDED TABLE R-SQUARED SPACING: 0.0625
Info: NONBONDED TABLE SIZE: 705 POINTS
TCL: Setting parameter alchLambda2 to 0.2
Info: NONBONDED TABLE R-SQUARED SPACING: 0.0625
Info: NONBONDED TABLE SIZE: 705 POINTS
TCL: Running for 1500000 steps
ETITLE: TS BOND ANGLE DIHED IMPRP ELECT VDW BOUNDARY MISC KINETIC TOTAL TEMP POTENTIAL TOTALAVG TEMPAVG PRESSURE GPRESSURE VOLUME PRESSAVG GPRESSAVG
ENERGY: 0 0.6624 3.2837 6.1921 0.0000 -10754.1228 1387.2568 0.0000 0.0000 1782.4625 -7574.2654 299.1415 -9356.7278 -7574.2654 299.1415 -702.3796 -626.3970 31169.3544 -702.3796 -626.3970
ENERGY: 300000 0.2018 4.2677 6.3190 0.0000 -10781.7101 1382.2263 0.0000 0.0000 1777.0927 -7611.6026 298.2404 -9388.6953 -7597.4173 297.6716 -665.3402 -604.1394 30987.1018 -591.7198 -535.8580
ENERGY: 600000 0.2630 3.7894 6.2849 0.0000 -10792.7454 1407.6099 0.0000 0.0000 1803.7501 -7571.0480 302.7141 -9374.7980 -7593.9504 300.1702 -595.6402 -529.8423 31368.4959 -409.2715 -343.2980
ENERGY: 900000 0.2541 4.5991 6.1672 0.0000 -10993.0852 1557.3559 0.0000 0.0000 1825.5817 -7599.1272 306.3780 -9424.7089 -7605.5513 300.1752 864.3101 948.9750 30266.3297 -89.9317 -23.7977
ENERGY: 1200000 0.1262 8.4019 5.8093 0.0000 -10828.9890 1428.8235 0.0000 0.0000 1796.2085 -7589.6196 301.4485 -9385.8281 -7597.9568 300.0053 -264.5860 -244.5097 31166.3444 -192.5390 -129.8115
ENERGY: 1500000 0.2233 2.4890 6.2460 0.0000 -10860.8667 1531.8388 0.0000 0.0000 1784.1931 -7535.8766 299.4320 -9320.0697 -7603.8351 299.3834 978.2297 1039.2745 30398.1465 -55.7065 7.2456
TCL: Running FEP window   5: Lambda1 0.2    Lambda2 0.25   [dLambda 0.04999999999999999]
TCL: Setting parameter firsttimestep to 0
TCL: Setting parameter alchLambda to 0.2
Info: NONBONDED TABLE R-SQUARED SPACING: 0.0625
Info: NONBONDED TABLE SIZE: 705 POINTS
TCL: Setting parameter alchLambda2 to 0.25
Info: NONBONDED TABLE R-SQUARED SPACING: 0.0625
Info: NONBONDED TABLE SIZE: 705 POINTS
TCL: Running for 1500000 steps
ETITLE: TS BOND ANGLE DIHED IMPRP ELECT VDW BOUNDARY MISC KINETIC TOTAL TEMP POTENTIAL TOTALAVG TEMPAVG PRESSURE GPRESSURE VOLUME PRESSAVG GPRESSAVG
ENERGY: 0 0.2233 2.4890 6.2460 0.0000 -10860.8688 1531.8823 0.0000 0.0000 1783.2787 -7536.7494 299.2785 -9320.0282 -7536.7494 299.2785 968.5672 1041.3902 30398.1465 968.5672 1041.3902
ENERGY: 300000 0.6279 3.6227 6.0619 0.0000 -10755.0236 1347.3311 0.0000 0.0000 1781.4374 -7615.9426 298.9695 -9397.3800 -7585.9559 297.0979 -1116.2853 -995.2969 30884.3827 -138.2019 -72.7392
ENERGY: 600000 0.3350 3.5081 6.1011 0.0000 -10882.4436 1471.0547 0.0000 0.0000 1809.6144 -7591.8303 303.6983 -9401.4446 -7593.7556 298.1857 52.8896 75.0271 30827.5200 18.3312 75.2092
ENERGY: 900000 1.6578 7.2150 6.1906 0.0000 -10869.8359 1425.1396 0.0000 0.0000 1795.1781 -7634.4548 301.2755 -9429.6329 -7602.3896 298.2788 -533.9453 -475.0119 31035.2371 -168.3735 -104.8440
ENERGY: 1200000 1.3822 2.2056 6.2654 0.0000 -10865.6395 1428.2008 0.0000 0.0000 1806.9578 -7620.6278 303.2525 -9427.5855 -7596.3470 299.6533 -630.3666 -472.5948 30990.4334 -186.0398 -114.3058
ENERGY: 1500000 2.2384 3.1285 6.0524 0.0000 -10818.6393 1427.6758 0.0000 0.0000 1812.7095 -7566.8347 304.2177 -9379.5442 -7595.0655 300.0317 -274.2467 -254.1281 30722.9014 -243.4540 -178.1713
TCL: Running FEP window   6: Lambda1 0.25   Lambda2 0.3    [dLambda 0.04999999999999999]
TCL: Setting parameter firsttimestep to 0
TCL: Setting parameter alchLambda to 0.25
Info: NONBONDED TABLE R-SQUARED SPACING: 0.0625
Info: NONBONDED TABLE SIZE: 705 POINTS
TCL: Setting parameter alchLambda2 to 0.3
Info: NONBONDED TABLE R-SQUARED SPACING: 0.0625
Info: NONBONDED TABLE SIZE: 705 POINTS
TCL: Running for 1500000 steps
ETITLE: TS BOND ANGLE DIHED IMPRP ELECT VDW BOUNDARY MISC KINETIC TOTAL TEMP POTENTIAL TOTALAVG TEMPAVG PRESSURE GPRESSURE VOLUME PRESSAVG GPRESSAVG
ENERGY: 0 2.2384 3.1285 6.0524 0.0000 -10818.6402 1428.5360 0.0000 0.0000 1811.8209 -7566.8639 304.0686 -9378.6849 -7566.8639 304.0686 -335.8717 -246.8599 30722.9014 -335.8717 -246.8599
ENERGY: 300000 0.4212 2.7743 6.3779 0.0000 -10842.5778 1447.1396 0.0000 0.0000 1792.0428 -7593.8219 300.7494 -9385.8647 -7590.1660 300.5314 205.3783 256.5553 30352.7219 372.3289 431.8142
ENERGY: 600000 1.2225 1.4205 6.3444 0.0000 -10810.0772 1367.6571 0.0000 0.0000 1797.6088 -7635.8239 301.6835 -9433.4327 -7600.6707 299.9728 -872.0792 -783.0708 30811.3383 156.5142 219.0359
ENERGY: 900000 0.4503 2.7646 6.2950 0.0000 -10809.5333 1394.7648 0.0000 0.0000 1842.9633 -7562.2953 309.2951 -9405.2586 -7592.9674 300.4638 -563.8161 -482.4111 30839.2225 -7.9366 57.9240
ENERGY: 1200000 0.2799 3.6718 6.4296 0.0000 -10863.4494 1435.5653 0.0000 0.0000 1749.3260 -7668.1769 293.5804 -9417.5028 -7591.3635 299.3554 -380.1734 -289.1345 30859.8728 -26.8279 32.7216
ENERGY: 1500000 1.2490 4.5405 6.0777 0.0000 -10861.8099 1458.0553 0.0000 0.0000 1763.7242 -7628.1631 295.9968 -9391.8873 -7594.0000 298.4428 -222.2052 -119.8190 30684.6694 -65.5478 -5.0819
TCL: Running FEP window   7: Lambda1 0.3    Lambda2 0.35   [dLambda 0.04999999999999999]
TCL: Setting parameter firsttimestep to 0
TCL: Setting parameter alchLambda to 0.3
Info: NONBONDED TABLE R-SQUARED SPACING: 0.0625
Info: NONBONDED TABLE SIZE: 705 POINTS
TCL: Setting parameter alchLambda2 to 0.35
Info: NONBONDED TABLE R-SQUARED SPACING: 0.0625
Info: NONBONDED TABLE SIZE: 705 POINTS
TCL: Running for 1500000 steps
ETITLE: TS BOND ANGLE DIHED IMPRP ELECT VDW BOUNDARY MISC KINETIC TOTAL TEMP POTENTIAL TOTALAVG TEMPAVG PRESSURE GPRESSURE VOLUME PRESSAVG GPRESSAVG
ENERGY: 0 1.2490 4.5405 6.0777 0.0000 -10861.8109 1458.1984 0.0000 0.0000 1762.8284 -7628.9168 295.8465 -9391.7452 -7628.9168 295.8465 -204.0192 -119.0228 30684.6694 -204.0192 -119.0228
ENERGY: 300000 1.5861 4.8060 6.1787 0.0000 -11012.0931 1557.7733 0.0000 0.0000 1844.1765 -7597.5724 309.4987 -9441.7489 -7626.5879 299.5816 810.7107 891.7558 30201.4376 -34.6202 19.3807
ENERGY: 600000 0.4124 4.4873 6.4596 0.0000 -10962.4983 1520.7074 0.0000 0.0000 1855.0431 -7575.3884 311.3224 -9430.4315 -7604.1033 301.1714 426.8012 507.6892 30735.0702 -19.4343 46.2241
ENERGY: 900000 1.5878 6.2282 6.3711 0.0000 -10874.8660 1542.4330 0.0000 0.0000 1840.7493 -7477.4965 308.9235 -9318.2458 -7610.3797 301.7451 942.4860 1004.8389 30380.2555 33.5505 98.6898
ENERGY: 1200000 2.1395 4.9931 6.0768 0.0000 -10810.4586 1420.3077 0.0000 0.0000 1797.2662 -7579.6754 301.6260 -9376.9415 -7612.1601 300.3830 -332.6087 -262.1830 31060.2138 41.8741 108.2459
ENERGY: 1500000 0.1441 4.1292 6.1387 0.0000 -10906.1805 1490.3757 0.0000 0.0000 1773.8367 -7631.5561 297.6939 -9405.3928 -7609.8589 299.9669 162.6388 185.7548 30947.7789 50.4178 116.3517
TCL: Running FEP window   8: Lambda1 0.35   Lambda2 0.39999999999999997 [dLambda 0.04999999999999999]
TCL: Setting parameter firsttimestep to 0
TCL: Setting parameter alchLambda to 0.35
Info: NONBONDED TABLE R-SQUARED SPACING: 0.0625
Info: NONBONDED TABLE SIZE: 705 POINTS
TCL: Setting parameter alchLambda2 to 0.39999999999999997
Info: NONBONDED TABLE R-SQUARED SPACING: 0.0625
Info: NONBONDED TABLE SIZE: 705 POINTS
TCL: Running for 1500000 steps
ETITLE: TS BOND ANGLE DIHED IMPRP ELECT VDW BOUNDARY MISC KINETIC TOTAL TEMP POTENTIAL TOTALAVG TEMPAVG PRESSURE GPRESSURE VOLUME PRESSAVG GPRESSAVG
ENERGY: 0 0.1441 4.1291 6.1387 0.0000 -10906.1824 1490.7372 0.0000 0.0000 1772.9132 -7632.1200 297.5389 -9405.0332 -7632.1200 297.5389 112.4208 191.4995 30947.7789 112.4208 191.4995
ENERGY: 300000 0.2635 3.6775 6.0559 0.0000 -10929.5166 1506.1021 0.0000 0.0000 1747.9643 -7665.4532 293.3519 -9413.4176 -7619.0927 294.6119 427.7063 512.8459 30463.1540 59.2708 135.0804
ENERGY: 600000 1.6557 4.6962 6.0311 0.0000 -10799.9848 1398.5141 0.0000 0.0000 1771.2901 -7617.7976 297.2665 -9389.0877 -7647.7672 294.5776 -669.3220 -630.0244 31079.8776 -141.6366 -69.5144
ENERGY: 900000 0.3456 2.0723 6.2287 0.0000 -10915.1353 1535.1727 0.0000 0.0000 1738.4785 -7632.8373 291.7599 -9371.3159 -7638.7102 295.0288 607.1824 645.0820 30872.0277 -199.4048 -134.1888
ENERGY: 1200000 0.6086 6.8377 5.9145 0.0000 -10769.4898 1419.5419 0.0000 0.0000 1764.2537 -7572.3335 296.0857 -9336.5872 -7643.4316 295.4963 -409.7012 -328.3768 30963.5473 -224.4752 -157.0891
ENERGY: 1500000 1.5346 4.2993 6.4027 0.0000 -10878.8617 1487.8522 0.0000 0.0000 1803.2053 -7575.5677 302.6227 -9378.7730 -7633.7688 296.7511 326.0083 358.7179 30686.8857 -160.7882 -91.1591
TCL: Running FEP window   9: Lambda1 0.39999999999999997 Lambda2 0.44999999999999996 [dLambda 0.04999999999999999]
TCL: Setting parameter firsttimestep to 0
TCL: Setting parameter alchLambda to 0.39999999999999997
Info: NONBONDED TABLE R-SQUARED SPACING: 0.0625
Info: NONBONDED TABLE SIZE: 705 POINTS
TCL: Setting parameter alchLambda2 to 0.44999999999999996
Info: NONBONDED TABLE R-SQUARED SPACING: 0.0625
Info: NONBONDED TABLE SIZE: 705 POINTS
TCL: Running for 1500000 steps
ETITLE: TS BOND ANGLE DIHED IMPRP ELECT VDW BOUNDARY MISC KINETIC TOTAL TEMP POTENTIAL TOTALAVG TEMPAVG PRESSURE GPRESSURE VOLUME PRESSAVG GPRESSAVG
ENERGY: 0 1.5346 4.2993 6.4027 0.0000 -10878.8599 1487.8313 0.0000 0.0000 1802.2901 -7576.5019 302.4691 -9378.7920 -7576.5019 302.4691 290.5978 360.7560 30686.8857 290.5978 360.7560
ENERGY: 300000 1.2083 3.0756 6.1368 0.0000 -10915.8397 1440.6566 0.0000 0.0000 1811.0056 -7653.7568 303.9318 -9464.7624 -7647.1945 301.0570 -163.7786 -74.7240 30440.0085 140.9133 214.3237
ENERGY: 600000 1.8239 5.5412 6.3435 0.0000 -10687.0233 1378.0144 0.0000 0.0000 1798.0253 -7497.2751 301.7534 -9295.3003 -7612.6869 302.2366 -786.6437 -676.4048 31505.8574 -94.1839 -29.0923
ENERGY: 900000 0.2252 6.1002 5.9417 0.0000 -10981.0308 1451.0669 0.0000 0.0000 1782.4697 -7735.2271 299.1428 -9517.6968 -7616.1560 303.1896 -514.2056 -424.8300 30726.7026 -198.0463 -126.5388
ENERGY: 1200000 0.2881 4.6449 6.1492 0.0000 -10681.4012 1350.8347 0.0000 0.0000 1839.1834 -7480.3008 308.6607 -9319.4843 -7597.9344 303.4048 -787.9801 -758.0763 31218.3135 -245.4603 -181.4212
ENERGY: 1500000 1.2543 3.7180 6.2016 0.0000 -11009.2121 1528.6766 0.0000 0.0000 1846.6861 -7622.6756 309.9199 -9469.3616 -7598.3341 304.1325 598.7578 650.6168 30376.5713 -226.2966 -164.5961
TCL: Running FEP window  10: Lambda1 0.44999999999999996 Lambda2 0.49999999999999994 [dLambda 0.04999999999999999]
TCL: Setting parameter firsttimestep to 0
TCL: Setting parameter alchLambda to 0.44999999999999996
Info: NONBONDED TABLE R-SQUARED SPACING: 0.0625
Info: NONBONDED TABLE SIZE: 705 POINTS
TCL: Setting parameter alchLambda2 to 0.49999999999999994
Info: NONBONDED TABLE R-SQUARED SPACING: 0.0625
Info: NONBONDED TABLE SIZE: 705 POINTS
TCL: Running for 1500000 steps
ETITLE: TS BOND ANGLE DIHED IMPRP ELECT VDW BOUNDARY MISC KINETIC TOTAL TEMP POTENTIAL TOTALAVG TEMPAVG PRESSURE GPRESSURE VOLUME PRESSAVG GPRESSAVG
ENERGY: 0 1.2543 3.7180 6.2016 0.0000 -11009.2131 1528.7381 0.0000 0.0000 1845.8158 -7623.4854 309.7738 -9469.3011 -7623.4854 309.7738 553.6176 653.8978 30376.5713 553.6176 653.8978
ENERGY: 300000 0.2689 2.8915 6.2835 0.0000 -10979.5229 1438.7894 0.0000 0.0000 1802.8085 -7728.4810 302.5561 -9531.2895 -7621.5896 305.6458 -526.8162 -443.7052 30576.1256 -13.1248 62.5199
ENERGY: 600000 1.6464 4.0327 6.2888 0.0000 -10811.7079 1433.2167 0.0000 0.0000 1807.6939 -7558.8294 303.3760 -9366.5232 -7593.8866 305.3473 -217.0856 -118.8950 30727.5196 -193.3655 -127.2761
ENERGY: 900000 0.4883 2.4088 6.3789 0.0000 -10680.4298 1322.1295 0.0000 0.0000 1769.3300 -7579.6942 296.9376 -9349.0242 -7600.3705 304.0185 -816.5846 -720.0442 30638.1426 -329.5752 -253.8306
ENERGY: 1200000 0.0986 1.7735 6.2387 0.0000 -10932.1972 1439.2656 0.0000 0.0000 1741.4615 -7743.3593 292.2606 -9484.8208 -7614.2339 301.5539 -470.9810 -395.9791 30698.6559 -268.9708 -191.4183
ENERGY: 1500000 0.4234 8.4679 5.6976 0.0000 -10862.7728 1497.7998 0.0000 0.0000 1800.0530 -7550.3310 302.0937 -9350.3840 -7605.7044 301.2260 711.8724 783.2250 30275.5073 -198.2244 -117.9733
TCL: Running FEP window  11: Lambda1 0.49999999999999994 Lambda2 0.5499999999999999 [dLambda 0.04999999999999999]
TCL: Setting parameter firsttimestep to 0
TCL: Setting parameter alchLambda to 0.49999999999999994
Info: NONBONDED TABLE R-SQUARED SPACING: 0.0625
Info: NONBONDED TABLE SIZE: 705 POINTS
TCL: Setting parameter alchLambda2 to 0.5499999999999999
Info: NONBONDED TABLE R-SQUARED SPACING: 0.0625
Info: NONBONDED TABLE SIZE: 705 POINTS
TCL: Running for 1500000 steps
ETITLE: TS BOND ANGLE DIHED IMPRP ELECT VDW BOUNDARY MISC KINETIC TOTAL TEMP POTENTIAL TOTALAVG TEMPAVG PRESSURE GPRESSURE VOLUME PRESSAVG GPRESSAVG
ENERGY: 0 0.4234 8.4679 5.6976 0.0000 -10862.7724 1498.2502 0.0000 0.0000 1799.1431 -7550.7900 301.9410 -9349.9332 -7550.7900 301.9410 706.1501 790.6372 30275.5073 706.1501 790.6372
ENERGY: 300000 0.2416 4.7595 6.3326 0.0000 -10914.4093 1447.2234 0.0000 0.0000 1835.6758 -7620.1764 308.0721 -9455.8522 -7631.9042 301.4782 -212.4121 -162.0879 30684.2775 14.1909 62.2706
ENERGY: 600000 0.1105 4.0970 6.2821 0.0000 -10848.8655 1420.7449 0.0000 0.0000 1768.0861 -7649.5449 296.7288 -9417.6310 -7622.6660 300.6873 -588.7873 -463.9770 31234.6071 -139.8537 -82.2285
ENERGY: 900000 0.4890 7.7076 5.6756 0.0000 -10962.2761 1538.8316 0.0000 0.0000 1757.2143 -7652.3579 294.9043 -9409.5723 -7624.1634 299.4941 325.5916 351.1329 31044.8495 -66.2456 -12.6108
ENERGY: 1200000 2.0294 2.5011 6.3555 0.0000 -10895.4526 1435.9440 0.0000 0.0000 1771.8122 -7676.8104 297.3542 -9448.6226 -7628.4913 300.1793 -887.8628 -774.2457 31507.4560 -128.5819 -69.4758
ENERGY: 1500000 0.4343 7.7762 5.8951 0.0000 -10965.6888 1535.6114 0.0000 0.0000 1764.8590 -7651.1128 296.1872 -9415.9718 -7626.3319 299.9612 388.4376 494.6745 30668.4065 -63.6081 -2.2921
TCL: Running FEP window  12: Lambda1 0.5499999999999999 Lambda2 0.6    [dLambda 0.050000000000000044]
TCL: Setting parameter firsttimestep to 0
TCL: Setting parameter alchLambda to 0.5499999999999999
Info: NONBONDED TABLE R-SQUARED SPACING: 0.0625
Info: NONBONDED TABLE SIZE: 705 POINTS
TCL: Setting parameter alchLambda2 to 0.6
Info: NONBONDED TABLE R-SQUARED SPACING: 0.0625
Info: NONBONDED TABLE SIZE: 705 POINTS
TCL: Running for 1500000 steps
ETITLE: TS BOND ANGLE DIHED IMPRP ELECT VDW BOUNDARY MISC KINETIC TOTAL TEMP POTENTIAL TOTALAVG TEMPAVG PRESSURE GPRESSURE VOLUME PRESSAVG GPRESSAVG
ENERGY: 0 0.4343 7.7762 5.8951 0.0000 -10965.6488 1535.2735 0.0000 0.0000 1763.9923 -7652.2774 296.0418 -9416.2697 -7652.2774 296.0418 414.1397 493.4515 30668.4065 414.1397 493.4515
ENERGY: 300000 0.0360 4.2921 6.2959 0.0000 -10803.0921 1372.4718 0.0000 0.0000 1776.2509 -7643.7455 298.0991 -9419.9964 -7644.9493 296.0906 -920.2534 -826.3257 31173.8716 -46.9216 9.3635
ENERGY: 600000 0.0225 5.5308 6.2910 0.0000 -10870.8672 1480.9479 0.0000 0.0000 1779.0182 -7599.0569 298.5635 -9378.0751 -7619.0625 298.6067 187.1592 280.8156 30894.7137 -33.5050 23.0748
ENERGY: 900000 0.9875 3.6899 6.1561 0.0000 -11028.2526 1618.9270 0.0000 0.0000 1760.7002 -7637.7919 295.4893 -9398.4921 -7615.6201 298.8760 1417.1665 1443.6090 30266.5655 130.3336 185.8018
ENERGY: 1200000 0.5685 6.4788 6.5135 0.0000 -10936.0738 1558.6231 0.0000 0.0000 1782.7576 -7581.1322 299.1911 -9363.8899 -7608.5623 299.9462 831.2238 887.3969 30620.1481 230.9458 286.2771
ENERGY: 1500000 1.2664 6.5116 6.3449 0.0000 -10863.5269 1406.5461 0.0000 0.0000 1769.7234 -7673.1345 297.0036 -9442.8579 -7608.5876 300.2595 -455.5682 -364.7576 30472.1847 125.3254 184.9367
TCL: Running FEP window  13: Lambda1 0.6    Lambda2 0.65   [dLambda 0.050000000000000044]
TCL: Setting parameter firsttimestep to 0
TCL: Setting parameter alchLambda to 0.6
Info: NONBONDED TABLE R-SQUARED SPACING: 0.0625
Info: NONBONDED TABLE SIZE: 705 POINTS
TCL: Setting parameter alchLambda2 to 0.65
Info: NONBONDED TABLE R-SQUARED SPACING: 0.0625
Info: NONBONDED TABLE SIZE: 705 POINTS
TCL: Running for 1500000 steps
ETITLE: TS BOND ANGLE DIHED IMPRP ELECT VDW BOUNDARY MISC KINETIC TOTAL TEMP POTENTIAL TOTALAVG TEMPAVG PRESSURE GPRESSURE VOLUME PRESSAVG GPRESSAVG
ENERGY: 0 1.2664 6.5116 6.3449 0.0000 -10863.5115 1406.3628 0.0000 0.0000 1768.8308 -7674.1950 296.8538 -9443.0258 -7674.1950 296.8538 -432.9290 -364.3345 30472.1847 -432.9290 -364.3345
ENERGY: 300000 0.3148 4.1571 6.1988 0.0000 -10916.9491 1496.4379 0.0000 0.0000 1812.2311 -7597.6095 304.1375 -9409.8405 -7630.2021 301.6401 416.0839 459.5949 30432.4550 -274.1125 -195.6585
ENERGY: 600000 1.1187 9.4410 5.9496 0.0000 -10782.2540 1403.9487 0.0000 0.0000 1777.2933 -7584.5026 298.2740 -9361.7959 -7600.0172 302.0842 -601.1268 -554.4878 31144.2944 -218.5943 -157.0198
ENERGY: 900000 0.9773 4.7312 6.4283 0.0000 -10844.8283 1471.9738 0.0000 0.0000 1790.4294 -7570.2883 300.4786 -9360.7177 -7596.6993 302.5706 17.0669 3.2330 31094.2366 -111.3937 -66.7479
ENERGY: 1200000 0.9300 5.7486 5.9413 0.0000 -10788.7323 1383.3807 0.0000 0.0000 1770.5577 -7622.1740 297.1436 -9392.7317 -7589.8295 302.1983 -707.0524 -681.2978 30982.3939 -161.5694 -118.3573
ENERGY: 1500000 0.5616 5.4095 6.3227 0.0000 -10879.1900 1401.3184 0.0000 0.0000 1882.9836 -7582.5943 316.0115 -9465.5778 -7587.7564 303.3196 -603.3699 -550.9004 30745.4626 -214.9966 -173.9132
TCL: Running FEP window  14: Lambda1 0.65   Lambda2 0.7000000000000001 [dLambda 0.050000000000000044]
TCL: Setting parameter firsttimestep to 0
TCL: Setting parameter alchLambda to 0.65
Info: NONBONDED TABLE R-SQUARED SPACING: 0.0625
Info: NONBONDED TABLE SIZE: 705 POINTS
TCL: Setting parameter alchLambda2 to 0.7000000000000001
Info: NONBONDED TABLE R-SQUARED SPACING: 0.0625
Info: NONBONDED TABLE SIZE: 705 POINTS
TCL: Running for 1500000 steps
ETITLE: TS BOND ANGLE DIHED IMPRP ELECT VDW BOUNDARY MISC KINETIC TOTAL TEMP POTENTIAL TOTALAVG TEMPAVG PRESSURE GPRESSURE VOLUME PRESSAVG GPRESSAVG
ENERGY: 0 0.5616 5.4095 6.3227 0.0000 -10879.2050 1401.7939 0.0000 0.0000 1882.0869 -7583.0304 315.8610 -9465.1174 -7583.0304 315.8610 -620.9435 -541.9554 30745.4626 -620.9435 -541.9554
ENERGY: 300000 0.4405 2.5472 6.3311 0.0000 -10820.6234 1458.3943 0.0000 0.0000 1765.0261 -7587.8843 296.2153 -9352.9103 -7601.5362 302.6159 -41.4127 43.4070 31157.1022 -134.7758 -58.0348
ENERGY: 600000 0.2541 4.4168 6.2892 0.0000 -10900.4270 1424.4224 0.0000 0.0000 1864.3230 -7600.7215 312.8798 -9465.0446 -7626.7841 303.6362 -437.4648 -406.5429 30720.1693 -174.8657 -105.0304
ENERGY: 900000 0.8766 4.8111 6.0484 0.0000 -10790.3056 1437.8470 0.0000 0.0000 1789.2392 -7551.4834 300.2788 -9340.7225 -7612.5679 302.7927 -45.2430 56.0198 30659.9872 -264.5798 -195.8579
ENERGY: 1200000 1.6389 5.0056 6.0272 0.0000 -10771.8358 1381.0128 0.0000 0.0000 1815.1119 -7563.0394 304.6209 -9378.1513 -7613.2252 301.4605 -423.2037 -332.3592 30574.8221 -216.1490 -148.9551
ENERGY: 1500000 1.1020 2.5693 6.2670 0.0000 -10955.7754 1538.3068 0.0000 0.0000 1785.2470 -7622.2831 299.6089 -9407.5302 -7614.2744 301.6700 586.8875 658.9002 30698.9216 -119.8903 -54.2260
TCL: Running FEP window  15: Lambda1 0.7000000000000001 Lambda2 0.7500000000000001 [dLambda 0.050000000000000044]
TCL: Setting parameter firsttimestep to 0
TCL: Setting parameter alchLambda to 0.7000000000000001
Info: NONBONDED TABLE R-SQUARED SPACING: 0.0625
Info: NONBONDED TABLE SIZE: 705 POINTS
TCL: Setting parameter alchLambda2 to 0.7500000000000001
Info: NONBONDED TABLE R-SQUARED SPACING: 0.0625
Info: NONBONDED TABLE SIZE: 705 POINTS
TCL: Running for 1500000 steps
ETITLE: TS BOND ANGLE DIHED IMPRP ELECT VDW BOUNDARY MISC KINETIC TOTAL TEMP POTENTIAL TOTALAVG TEMPAVG PRESSURE GPRESSURE VOLUME PRESSAVG GPRESSAVG
ENERGY: 0 1.1020 2.5693 6.2670 0.0000 -10955.7655 1538.2680 0.0000 0.0000 1784.3406 -7623.2186 299.4567 -9407.5591 -7623.2186 299.4567 573.8442 662.5924 30698.9216 573.8442 662.5924
ENERGY: 300000 1.0957 5.6282 6.3467 0.0000 -10884.2386 1451.9391 0.0000 0.0000 1783.2918 -7635.9372 299.2807 -9419.2290 -7614.0981 298.3322 -222.1966 -124.9722 30784.5265 360.4143 416.9630
ENERGY: 600000 1.2680 4.3718 6.3080 0.0000 -10882.8107 1460.4001 0.0000 0.0000 1726.5192 -7683.9435 289.7529 -9410.4628 -7625.7956 298.0454 -74.2966 -11.1459 30981.2488 116.1369 180.1411
ENERGY: 900000 0.2950 3.8493 5.9950 0.0000 -10805.8914 1370.9489 0.0000 0.0000 1812.9142 -7611.8890 304.2521 -9424.8032 -7625.7927 299.1466 -461.5571 -382.7209 30222.7822 151.6046 216.2713
ENERGY: 1200000 0.8574 5.3649 6.1523 0.0000 -10736.9864 1343.9409 0.0000 0.0000 1791.2665 -7589.4044 300.6191 -9380.6709 -7617.0595 299.4634 -1210.4433 -1180.6078 31781.2758 19.8198 87.6772
ENERGY: 1500000 0.3494 3.4856 6.2686 0.0000 -10877.3383 1468.7173 0.0000 0.0000 1795.5431 -7602.9744 301.3368 -9398.5175 -7618.4019 299.5227 -136.5772 -28.3540 31265.7819 -24.0706 46.2789
TCL: Running FEP window  16: Lambda1 0.7500000000000001 Lambda2 0.8000000000000002 [dLambda 0.050000000000000044]
TCL: Setting parameter firsttimestep to 0
TCL: Setting parameter alchLambda to 0.7500000000000001
Info: NONBONDED TABLE R-SQUARED SPACING: 0.0625
Info: NONBONDED TABLE SIZE: 705 POINTS
TCL: Setting parameter alchLambda2 to 0.8000000000000002
Info: NONBONDED TABLE R-SQUARED SPACING: 0.0625
Info: NONBONDED TABLE SIZE: 705 POINTS
TCL: Running for 1500000 steps
ETITLE: TS BOND ANGLE DIHED IMPRP ELECT VDW BOUNDARY MISC KINETIC TOTAL TEMP POTENTIAL TOTALAVG TEMPAVG PRESSURE GPRESSURE VOLUME PRESSAVG GPRESSAVG
ENERGY: 0 0.3494 3.4856 6.2686 0.0000 -10877.4155 1468.6712 0.0000 0.0000 1794.6048 -7604.0359 301.1793 -9398.6407 -7604.0359 301.1793 -102.5806 -26.1610 31265.7819 -102.5806 -26.1610
ENERGY: 300000 0.2435 3.8178 6.1307 0.0000 -10990.8954 1574.4032 0.0000 0.0000 1769.2944 -7637.0057 296.9316 -9406.3001 -7618.4012 298.5420 762.8796 842.0221 30941.3716 286.3162 338.6557
ENERGY: 600000 0.7826 6.3346 6.0487 0.0000 -10879.9719 1494.6158 0.0000 0.0000 1760.0316 -7612.1585 295.3771 -9372.1902 -7608.2565 297.7758 179.2242 252.9588 30890.0086 170.8320 245.6247
ENERGY: 900000 1.0303 5.3853 6.1057 0.0000 -10809.0659 1438.2922 0.0000 0.0000 1803.1847 -7555.0676 302.6192 -9358.2523 -7616.9037 298.1059 -151.5746 -4.1289 31052.6944 61.1565 135.1293
ENERGY: 1200000 1.5554 3.5889 6.2925 0.0000 -10755.0125 1356.0620 0.0000 0.0000 1795.6117 -7591.9021 301.3483 -9387.5138 -7601.8424 299.3899 -1024.8280 -927.1996 31036.0150 1.7435 74.7442
ENERGY: 1500000 1.2124 2.1254 6.4109 0.0000 -10627.2102 1304.7246 0.0000 0.0000 1756.9154 -7555.8215 294.8541 -9312.7369 -7601.1460 299.4999 -1328.3144 -1223.2274 31689.7852 -125.3765 -47.8768
TCL: Running FEP window  17: Lambda1 0.8000000000000002 Lambda2 0.8500000000000002 [dLambda 0.050000000000000044]
TCL: Setting parameter firsttimestep to 0
TCL: Setting parameter alchLambda to 0.8000000000000002
Info: NONBONDED TABLE R-SQUARED SPACING: 0.0625
Info: NONBONDED TABLE SIZE: 705 POINTS
TCL: Setting parameter alchLambda2 to 0.8500000000000002
Info: NONBONDED TABLE R-SQUARED SPACING: 0.0625
Info: NONBONDED TABLE SIZE: 705 POINTS
TCL: Running for 1500000 steps
ETITLE: TS BOND ANGLE DIHED IMPRP ELECT VDW BOUNDARY MISC KINETIC TOTAL TEMP POTENTIAL TOTALAVG TEMPAVG PRESSURE GPRESSURE VOLUME PRESSAVG GPRESSAVG
ENERGY: 0 1.2124 2.1254 6.4109 0.0000 -10627.2289 1305.1944 0.0000 0.0000 1756.0363 -7556.2495 294.7066 -9312.2858 -7556.2495 294.7066 -1300.3118 -1214.5774 31689.7852 -1300.3118 -1214.5774
ENERGY: 300000 0.3918 5.2577 6.2291 0.0000 -10948.4111 1486.4303 0.0000 0.0000 1786.9815 -7663.1208 299.8999 -9450.1023 -7599.9694 298.2907 68.2714 157.8268 30576.8229 -516.4777 -462.0585
ENERGY: 600000 0.8196 5.4059 6.3174 0.0000 -10978.7856 1465.0708 0.0000 0.0000 1814.1478 -7687.0240 304.4591 -9501.1718 -7617.5661 301.6618 -265.5838 -165.3593 30782.8317 -225.6545 -156.6757
ENERGY: 900000 0.6384 3.6461 6.4390 0.0000 -10885.8798 1411.4160 0.0000 0.0000 1781.1790 -7682.5612 298.9262 -9463.7403 -7623.5374 301.2695 -402.7556 -356.4955 30621.7590 -121.0471 -53.0528
ENERGY: 1200000 0.4640 2.8535 6.1458 0.0000 -10846.2659 1399.9983 0.0000 0.0000 1796.2893 -7640.5151 301.4620 -9436.8044 -7614.5976 301.6383 -321.5768 -272.3849 30478.0937 -82.9573 -25.1212
ENERGY: 1500000 0.5335 3.7732 6.3204 0.0000 -10748.0234 1376.8302 0.0000 0.0000 1789.4382 -7571.1278 300.3122 -9360.5660 -7616.7909 300.7802 -403.5309 -319.1885 30629.1698 -109.4477 -52.4593
TCL: Running FEP window  18: Lambda1 0.8500000000000002 Lambda2 0.9000000000000002 [dLambda 0.050000000000000044]
TCL: Setting parameter firsttimestep to 0
TCL: Setting parameter alchLambda to 0.8500000000000002
Info: NONBONDED TABLE R-SQUARED SPACING: 0.0625
Info: NONBONDED TABLE SIZE: 705 POINTS
TCL: Setting parameter alchLambda2 to 0.9000000000000002
Info: NONBONDED TABLE R-SQUARED SPACING: 0.0625
Info: NONBONDED TABLE SIZE: 705 POINTS
TCL: Running for 1500000 steps
ETITLE: TS BOND ANGLE DIHED IMPRP ELECT VDW BOUNDARY MISC KINETIC TOTAL TEMP POTENTIAL TOTALAVG TEMPAVG PRESSURE GPRESSURE VOLUME PRESSAVG GPRESSAVG
ENERGY: 0 0.5335 3.7732 6.3204 0.0000 -10748.0288 1377.5739 0.0000 0.0000 1788.5513 -7571.2764 300.1634 -9359.8277 -7571.2764 300.1634 -398.4667 -303.8364 30629.1698 -398.4667 -303.8364
ENERGY: 300000 0.6509 5.3409 5.9492 0.0000 -10792.8043 1399.0327 0.0000 0.0000 1851.8698 -7529.9608 310.7898 -9381.8306 -7586.6107 303.2346 -652.9615 -570.6147 31253.4614 -55.9811 20.2579
ENERGY: 600000 0.5992 5.0202 6.1265 0.0000 -10993.7795 1525.5740 0.0000 0.0000 1770.1557 -7686.3040 297.0762 -9456.4597 -7593.7224 301.1447 603.7506 661.3454 30213.7167 -29.3347 25.6815
ENERGY: 900000 0.8125 4.2819 6.1242 0.0000 -10846.7800 1435.6182 0.0000 0.0000 1841.5826 -7558.3605 309.0634 -9399.9431 -7585.4945 302.6301 -183.8934 -145.5917 30886.0309 -88.9387 -20.7123
ENERGY: 1200000 0.3976 4.5987 6.1030 0.0000 -10871.4565 1451.0553 0.0000 0.0000 1688.4243 -7720.8778 283.3596 -9409.3021 -7598.5279 301.1856 -358.2869 -223.5508 30875.0548 -132.2736 -57.3526
ENERGY: 1500000 0.9891 2.3940 6.3589 0.0000 -10883.6590 1500.7054 0.0000 0.0000 1752.2556 -7620.9559 294.0721 -9373.2115 -7609.4420 300.3738 230.6163 298.4474 31104.0953 -105.1126 -41.1206
TCL: Running FEP window  19: Lambda1 0.9000000000000002 Lambda2 0.9500000000000003 [dLambda 0.050000000000000044]
TCL: Setting parameter firsttimestep to 0
TCL: Setting parameter alchLambda to 0.9000000000000002
Info: NONBONDED TABLE R-SQUARED SPACING: 0.0625
Info: NONBONDED TABLE SIZE: 705 POINTS
TCL: Setting parameter alchLambda2 to 0.9500000000000003
Info: NONBONDED TABLE R-SQUARED SPACING: 0.0625
Info: NONBONDED TABLE SIZE: 705 POINTS
TCL: Running for 1500000 steps
ETITLE: TS BOND ANGLE DIHED IMPRP ELECT VDW BOUNDARY MISC KINETIC TOTAL TEMP POTENTIAL TOTALAVG TEMPAVG PRESSURE GPRESSURE VOLUME PRESSAVG GPRESSAVG
ENERGY: 0 0.9891 2.3940 6.3589 0.0000 -10883.6211 1501.8199 0.0000 0.0000 1751.3780 -7620.6811 293.9248 -9372.0591 -7620.6811 293.9248 242.5874 317.7142 31104.0953 242.5874 317.7142
ENERGY: 300000 0.2448 1.6210 6.3010 0.0000 -10865.8757 1413.7017 0.0000 0.0000 1789.5555 -7654.4516 300.3319 -9444.0072 -7655.3775 297.3785 -477.7133 -405.2830 30759.0077 -138.6363 -69.1450
ENERGY: 600000 1.1414 3.5009 6.2638 0.0000 -10824.9209 1449.8264 0.0000 0.0000 1814.5376 -7549.6508 304.5245 -9364.1884 -7623.2437 300.0257 106.4618 168.6542 30604.7057 6.2075 68.0336
ENERGY: 900000 1.1146 4.7245 5.9648 0.0000 -10739.8563 1394.7636 0.0000 0.0000 1756.6208 -7576.6680 294.8047 -9333.2888 -7629.6474 299.0847 -323.3614 -297.8126 30956.0038 -36.6254 29.8540
ENERGY: 1200000 0.3285 2.7283 6.4887 0.0000 -10947.1598 1487.2818 0.0000 0.0000 1810.4286 -7639.9038 303.8350 -9450.3324 -7621.3882 299.6794 24.0530 111.8450 30738.6938 -65.8591 -7.0939
ENERGY: 1500000 0.8260 5.1097 6.3187 0.0000 -10742.4499 1375.2225 0.0000 0.0000 1831.6435 -7523.3295 307.3953 -9354.9731 -7612.9064 300.5181 -850.7233 -772.2008 31274.7858 -162.0816 -97.2187
TCL: Running FEP window  20: Lambda1 0.9500000000000003 Lambda2 1.0    [dLambda 0.04999999999999971]
TCL: Setting parameter firsttimestep to 0
TCL: Setting parameter alchLambda to 0.9500000000000003
Info: NONBONDED TABLE R-SQUARED SPACING: 0.0625
Info: NONBONDED TABLE SIZE: 705 POINTS
TCL: Setting parameter alchLambda2 to 1.0
Info: NONBONDED TABLE R-SQUARED SPACING: 0.0625
Info: NONBONDED TABLE SIZE: 705 POINTS
TCL: Running for 1500000 steps
ETITLE: TS BOND ANGLE DIHED IMPRP ELECT VDW BOUNDARY MISC KINETIC TOTAL TEMP POTENTIAL TOTALAVG TEMPAVG PRESSURE GPRESSURE VOLUME PRESSAVG GPRESSAVG
ENERGY: 0 0.8260 5.1097 6.3187 0.0000 -10742.4661 1375.2433 0.0000 0.0000 1830.7584 -7524.2101 307.2468 -9354.9685 -7524.2101 307.2468 -855.6844 -768.1668 31274.7858 -855.6844 -768.1668
ENERGY: 300000 0.6273 3.9844 6.1483 0.0000 -10829.2841 1438.0336 0.0000 0.0000 1822.2022 -7558.2883 305.8109 -9380.4905 -7586.0434 304.3051 -336.1304 -241.7403 31088.9484 -368.2185 -304.0276
ENERGY: 600000 1.5606 4.6898 6.0594 0.0000 -11021.8987 1535.7975 0.0000 0.0000 1798.6664 -7675.1249 301.8610 -9473.7913 -7616.4708 301.6665 322.2230 433.7139 30688.1221 -8.4950 69.0433
ENERGY: 900000 1.6869 3.4344 6.3662 0.0000 -10924.8565 1452.9408 0.0000 0.0000 1770.1598 -7690.2685 297.0768 -9460.4283 -7622.1136 300.8649 58.5639 140.8690 30314.5772 -10.2417 65.1931
ENERGY: 1200000 1.3027 3.9625 5.9877 0.0000 -10894.7657 1437.8797 0.0000 0.0000 1771.9545 -7673.6785 297.3780 -9445.6331 -7625.5215 300.6985 -680.0808 -520.6373 31256.3131 -61.0212 15.0039
ENERGY: 1500000 0.2237 1.6383 6.3285 0.0000 -11087.1416 1533.9351 0.0000 0.0000 1847.6060 -7697.4099 310.0743 -9545.0159 -7637.7651 300.3703 584.2440 579.1369 30194.1948 39.1422 109.3607
TCL: Exiting due to exit command.
