Info: SIMULATION PARAMETERS:
Info: TIMESTEP               2
Info: NUMBER OF STEPS        0
Info: STEPS PER CYCLE        10
Info: PERIODIC CELL BASIS 1  30.2087 0 0
Info: PERIODIC CELL BASIS 2  0 30.6166 0
Info: PERIODIC CELL BASIS 3  0 0 32.5056
Info: PERIODIC CELL CENTER   0 0 0
Info: WRAPPING WATERS AROUND PERIODIC BOUNDARIES ON OUTPUT.
Info: WRAPPING ALL CLUSTERS AROUND PERIODIC BOUNDARIES ON OUTPUT.
Info: FIRST LDB TIMESTEP     50
Info: LAST LDB TIMESTEP     -1
Info: HOM BACKGROUND SCALING 1
Info: PME BACKGROUND SCALING 1
Info: MIN ATOMS PER PATCH    40
Info: EMPTY PATCH LOAD       40 ATOMS
Info: VELOCITY FILE          mobley_4059279_equil.vel
Info: CENTER OF MASS MOVING INITIALLY? NO
Info: DIELECTRIC             1
Info: EXCLUDE                SCALED ONE-FOUR
Info: 1-4 ELECTROSTATICS SCALED BY 0.833333
Info: MODIFIED 1-4 VDW PARAMETERS WILL BE USED
Info: DCD FILENAME           mobley_4059279_prod.dcd
Info: DCD FREQUENCY          100000
Info: DCD FIRST STEP         100000
Info: DCD FILE WILL CONTAIN UNIT CELL DATA
Info: XST FILENAME           mobley_4059279_prod.xst
Info: XST FREQUENCY          100000
Info: NO VELOCITY DCD OUTPUT
Info: NO FORCE DCD OUTPUT
Info: OUTPUT FILENAME        mobley_4059279_prod
Info: BINARY OUTPUT FILES WILL BE USED
Info: RESTART FILENAME       mobley_4059279_prod.restart
Info: RESTART FREQUENCY      100000
Info: BINARY RESTART FILES WILL BE USED
Info: CUTOFF                 9
Info: PAIRLIST DISTANCE      11
Info: PAIRLIST SHRINK RATE   0.01
Info: PAIRLIST GROW RATE     0.01
Info: PAIRLIST TRIGGER       0.3
Info: PAIRLISTS PER CYCLE    2
Info: PAIRLISTS ENABLED
Info: MARGIN                 2
Info: HYDROGEN GROUP CUTOFF  2.5
Info: PATCH DIMENSION        15.5
Info: ENERGY OUTPUT STEPS    100000
Info: ENERGY EVALUATION STEPS    100000
Info: OUTPUT ENERGY PRECISION 4
Info: CROSSTERM ENERGY INCLUDED IN DIHEDRAL
Info: TIMING OUTPUT STEPS    1000000
Info: PRESSURE OUTPUT STEPS  100000
Info: ALCHEMICAL FEP ON
Info: FEP CURRENT LAMBDA VALUE     0
Info: FEP COMPARISON LAMBDA VALUE  0.05
Info: FEP INTRA-ALCHEMICAL NON-BONDED INTERACTIONS WILL BE RETAINED
Info: FEP INTRA-ALCHEMICAL BONDED INTERACTIONS WILL BE RETAINED
Info: FEP VDW SHIFTING COEFFICIENT 5
Info: FEP ELEC. ACTIVE FOR ANNIHILATED PARTICLES BETWEEN LAMBDA = 0 AND LAMBDA = 0.5
Info: FEP ELEC. ACTIVE FOR EXNIHILATED PARTICLES BETWEEN LAMBDA = 0.5 AND LAMBDA = 1
Info: FEP VDW ACTIVE FOR ANNIHILATED PARTICLES BETWEEN LAMBDA = 0 AND LAMBDA = 1
Info: FEP VDW ACTIVE FOR EXNIHILATED PARTICLES BETWEEN LAMBDA = 0 AND LAMBDA = 1
Info: FEP BOND ACTIVE FOR ANNIHILATED PARTICLES BETWEEN LAMBDA = 1 AND LAMBDA = 1
Info: FEP BOND ACTIVE FOR EXNIHILATED PARTICLES BETWEEN LAMBDA = 0 AND LAMBDA = 0
Info: LANGEVIN DYNAMICS ACTIVE
Info: LANGEVIN TEMPERATURE   300
Info: LANGEVIN USING BBK INTEGRATOR
Info: LANGEVIN DAMPING COEFFICIENT IS 1 INVERSE PS
Info: LANGEVIN DYNAMICS APPLIED TO HYDROGENS
Info: LANGEVIN PISTON PRESSURE CONTROL ACTIVE
Info:        TARGET PRESSURE IS 1.01325 BAR
Info:     OSCILLATION PERIOD IS 50 FS
Info:             DECAY TIME IS 25 FS
Info:     PISTON TEMPERATURE IS 300 K
Info:       PRESSURE CONTROL IS GROUP-BASED
Info:    INITIAL STRAIN RATE IS 0.000100861 0.000100861 0.000100861
Info:       CELL FLUCTUATION IS ISOTROPIC
Info: PARTICLE MESH EWALD (PME) ACTIVE
Info: PME TOLERANCE               1e-06
Info: PME EWALD COEFFICIENT       0.348832
Info: PME INTERPOLATION ORDER     4
Info: PME GRID DIMENSIONS         32 32 36
Info: PME MAXIMUM GRID SPACING    1
Info: PME CALCULATION WILL BE PERFORMED ON GPU
Info: FULL ELECTROSTATIC EVALUATION FREQUENCY      2
Info: USING VERLET I (r-RESPA) MTS SCHEME.
Info: C1 SPLITTING OF LONG RANGE ELECTROSTATICS
Info: PLACING ATOMS IN PATCHES BY HYDROGEN GROUPS
Info: RIGID BONDS TO HYDROGEN : ALL
Info:         ERROR TOLERANCE : 1e-08
Info:          MAX ITERATIONS : 100
Info: RIGID WATER USING SETTLE ALGORITHM
Info: RANDOM NUMBER SEED     1743632481
Info: USE HYDROGEN BONDS?    NO
Info: Using AMBER format force field!
Info: AMBER PARM FILE        mobley_4059279.prmtop
Info: COORDINATE PDB         mobley_4059279.pdb
Info: Exclusions will be read from PARM file!
Info: SCNB (VDW SCALING)     2
Info: USING ARITHMETIC MEAN TO COMBINE L-J SIGMA PARAMETERS
Info: BINARY COORDINATES     mobley_4059279_equil.coor
Info: SUMMARY OF PARAMETERS:
Info: 5 BONDS
Info: 5 ANGLES
Info:   5 HARMONIC
Info:   0 COSINE-BASED
Info: 3 DIHEDRAL
Info: 0 IMPROPER
Info: 0 CROSSTERM
Info: 0 VDW
Info: 15 VDW_PAIRS
Info: 0 NBTHOLE_PAIRS
Info: To read alchdata from file: mobley_4059279.pdb
Info: To read alchflag data from column: 5
Info: STRUCTURE SUMMARY:
Info: 2944 ATOMS
Info: 2944 BONDS
Info: 42 ANGLES
Info: 62 DIHEDRALS
Info: 0 IMPROPERS
Info: 0 CROSSTERMS
Info: 3037 EXCLUSIONS
Info: 2936 RIGID BONDS
Info: ALCH: 0 ATOMS TO DISAPPEAR IN FINAL STATE
Info: ALCH: 22 ATOMS TO APPEAR IN FINAL STATE
Info: 5896 DEGREES OF FREEDOM
Info: 982 HYDROGEN GROUPS
Info: 4 ATOMS IN LARGEST HYDROGEN GROUP
Info: 982 MIGRATION GROUPS
Info: 4 ATOMS IN LARGEST MIGRATION GROUP
Info: TOTAL MASS = 17661.8 amu
Info: TOTAL CHARGE = 0.000399984 e
Info: MASS DENSITY = 0.975542 g/cm^3
Info: ATOM DENSITY = 0.0979242 atoms/A^3
Info: ADDED 0 IMPLICIT EXCLUSIONS
Info: NONBONDED TABLE R-SQUARED SPACING: 0.0625
Info: NONBONDED TABLE SIZE: 705 POINTS
Info: REMOVING COM VELOCITY 0.119032 0.0530604 -0.0279854
Info: Use 3D box decompostion in PME FFT.
Info: Updated CUDA force table with 4096 elements.
Info: Updated CUDA LJ table with 5 x 5 elements.
Info: Found 23 unique exclusion lists needing 72 bytes
TCL: Running for 1500000 steps
ETITLE: TS BOND ANGLE DIHED IMPRP ELECT VDW BOUNDARY MISC KINETIC TOTAL TEMP POTENTIAL TOTALAVG TEMPAVG PRESSURE GPRESSURE VOLUME PRESSAVG GPRESSAVG
ENERGY: 0 1.7353 5.0897 3.9124 0.0000 -10597.3792 1459.7632 0.0000 0.0000 1774.2057 -7352.6729 302.8565 -9126.8786 -7352.6729 302.8565 79.5600 147.6767 30064.0714 79.5600 147.6767
ENERGY: 300000 2.3690 10.6691 5.9442 0.0000 -10704.3717 1533.5639 0.0000 0.0000 1765.0947 -7386.7308 301.3012 -9151.8255 -7379.2607 300.2297 859.1917 894.4112 29710.9639 135.0227 193.1594
ENERGY: 600000 3.4903 11.1003 6.9176 0.0000 -10500.7667 1379.4135 0.0000 0.0000 1761.3054 -7338.5397 300.6544 -9099.8451 -7364.6418 300.9597 -450.6549 -379.3442 30223.5266 101.1870 165.0334
ENERGY: 900000 1.2711 15.1015 4.6104 0.0000 -10517.2853 1371.9999 0.0000 0.0000 1726.1819 -7398.1206 294.6588 -9124.3024 -7362.1497 300.6251 -284.7031 -293.8503 30132.8605 82.7823 144.7458
ENERGY: 1200000 3.5480 7.0937 3.7469 0.0000 -10462.3235 1314.8272 0.0000 0.0000 1733.0284 -7400.0793 295.8275 -9133.1077 -7363.4506 299.0105 -1077.6807 -1043.1252 30213.2564 -39.1910 21.6655
ENERGY: 1500000 3.5972 12.8938 3.8785 0.0000 -10659.3754 1482.0661 0.0000 0.0000 1781.9433 -7374.9966 304.1773 -9156.9399 -7360.0954 299.8129 381.2055 450.0498 29840.1658 -39.9971 19.1418
TCL: Running FEP window   2: Lambda1 0.05   Lambda2 0.1    [dLambda 0.05  ]
TCL: Setting parameter firsttimestep to 0
TCL: Setting parameter alchLambda to 0.05
Info: NONBONDED TABLE R-SQUARED SPACING: 0.0625
Info: NONBONDED TABLE SIZE: 705 POINTS
TCL: Setting parameter alchLambda2 to 0.1
Info: NONBONDED TABLE R-SQUARED SPACING: 0.0625
Info: NONBONDED TABLE SIZE: 705 POINTS
TCL: Running for 1500000 steps
ETITLE: TS BOND ANGLE DIHED IMPRP ELECT VDW BOUNDARY MISC KINETIC TOTAL TEMP POTENTIAL TOTALAVG TEMPAVG PRESSURE GPRESSURE VOLUME PRESSAVG GPRESSAVG
ENERGY: 0 3.5972 12.8938 3.8785 0.0000 -10659.3749 1484.3532 0.0000 0.0000 1781.0444 -7373.6079 304.0239 -9154.6523 -7373.6079 304.0239 371.2617 455.0446 29840.1658 371.2617 455.0446
ENERGY: 300000 5.1158 6.7543 3.3120 0.0000 -10371.5099 1349.8724 0.0000 0.0000 1736.4456 -7270.0098 296.4108 -9006.4554 -7337.5922 299.9338 -370.4287 -388.4005 30386.7179 -32.7101 23.3397
ENERGY: 600000 2.6886 12.4209 4.0271 0.0000 -10566.2718 1398.6522 0.0000 0.0000 1737.3398 -7411.1433 296.5635 -9148.4830 -7361.1936 298.7890 -544.7245 -482.9405 30511.8435 -71.5989 -5.8859
ENERGY: 900000 3.6683 9.4669 4.3296 0.0000 -10556.8077 1322.4149 0.0000 0.0000 1748.5949 -7468.3331 298.4847 -9216.9279 -7369.4422 299.2371 -1130.8283 -1062.5067 29791.9031 -181.1677 -111.4131
ENERGY: 1200000 1.1845 14.1321 4.6354 0.0000 -10704.6329 1513.0187 0.0000 0.0000 1814.5591 -7357.1031 309.7448 -9171.6622 -7373.1000 298.7434 531.2794 594.0235 29962.3570 -133.7341 -63.6964
ENERGY: 1500000 1.6319 12.7737 3.9182 0.0000 -10530.6507 1382.2700 0.0000 0.0000 1734.9261 -7395.1308 296.1515 -9130.0569 -7374.1385 298.8740 -278.2706 -182.8597 29801.8893 -217.4424 -143.9802
TCL: Running FEP window   3: Lambda1 0.1    Lambda2 0.15000000000000002 [dLambda 0.05000000000000002]
TCL: Setting parameter firsttimestep to 0
TCL: Setting parameter alchLambda to 0.1
Info: NONBONDED TABLE R-SQUARED SPACING: 0.0625
Info: NONBONDED TABLE SIZE: 705 POINTS
TCL: Setting parameter alchLambda2 to 0.15000000000000002
Info: NONBONDED TABLE R-SQUARED SPACING: 0.0625
Info: NONBONDED TABLE SIZE: 705 POINTS
TCL: Running for 1500000 steps
ETITLE: TS BOND ANGLE DIHED IMPRP ELECT VDW BOUNDARY MISC KINETIC TOTAL TEMP POTENTIAL TOTALAVG TEMPAVG PRESSURE GPRESSURE VOLUME PRESSAVG GPRESSAVG
ENERGY: 0 1.6319 12.7737 3.9182 0.0000 -10530.6521 1383.9789 0.0000 0.0000 1734.1066 -7394.2428 296.0116 -9128.3494 -7394.2428 296.0116 -260.5544 -175.6815 29801.8893 -260.5544 -175.6815
ENERGY: 300000 3.8501 13.2453 3.6809 0.0000 -10499.5171 1405.5997 0.0000 0.0000 1800.4599 -7272.6812 307.3381 -9073.1411 -7358.1663 302.8439 -116.4862 -57.9944 30185.5828 -141.4215 -60.8679
ENERGY: 600000 1.3943 10.3365 3.9146 0.0000 -10570.0944 1439.5047 0.0000 0.0000 1785.0050 -7329.9393 304.6999 -9114.9443 -7349.7160 300.6524 68.8457 114.7549 30670.2218 -214.5437 -158.2523
ENERGY: 900000 2.6753 5.1502 3.2860 0.0000 -10488.5913 1422.0905 0.0000 0.0000 1735.0944 -7320.2948 296.1802 -9055.3892 -7342.6291 300.8774 51.4522 56.3289 30274.3546 -250.4047 -194.5951
ENERGY: 1200000 1.9920 10.8024 4.8812 0.0000 -10690.0561 1496.0091 0.0000 0.0000 1764.3028 -7412.0686 301.1661 -9176.3713 -7341.9049 300.3814 527.1137 617.3896 29647.8118 -203.5450 -150.4115
ENERGY: 1500000 1.8180 10.6218 3.4387 0.0000 -10564.3141 1465.2642 0.0000 0.0000 1770.6050 -7312.5663 302.2418 -9083.1713 -7350.0453 299.8306 301.1937 311.5437 30455.6564 -134.9692 -90.6084
TCL: Running FEP window   4: Lambda1 0.15000000000000002 Lambda2 0.2    [dLambda 0.04999999999999999]
TCL: Setting parameter firsttimestep to 0
TCL: Setting parameter alchLambda to 0.15000000000000002
Info: NONBONDED TABLE R-SQUARED SPACING: 0.0625
Info: NONBONDED TABLE SIZE: 705 POINTS
TCL: Setting parameter alchLambda2 to 0.2
Info: NONBONDED TABLE R-SQUARED SPACING: 0.0625
Info: NONBONDED TABLE SIZE: 705 POINTS
TCL: Running for 1500000 steps
ETITLE: TS BOND ANGLE DIHED IMPRP ELECT VDW BOUNDARY MISC KINETIC TOTAL TEMP POTENTIAL TOTALAVG TEMPAVG PRESSURE GPRESSURE VOLUME PRESSAVG GPRESSAVG
ENERGY: 0 1.8180 10.6218 3.4387 0.0000 -10564.3140 1464.7388 0.0000 0.0000 1769.7342 -7313.9624 302.0932 -9083.6966 -7313.9624 302.0932 232.4248 313.3434 30455.6564 232.4248 313.3434
ENERGY: 300000 2.9512 10.8259 3.7926 0.0000 -10688.9504 1444.3378 0.0000 0.0000 1758.4019 -7468.6411 300.1588 -9227.0429 -7377.5555 303.5776 -281.9780 -190.6658 30148.0250 166.4450 224.3561
ENERGY: 600000 4.5308 13.0848 4.7737 0.0000 -10642.6388 1444.1037 0.0000 0.0000 1782.5217 -7393.6241 304.2760 -9176.1458 -7372.3215 302.4558 45.0217 74.8071 29967.5535 129.1000 177.9578
ENERGY: 900000 3.6082 14.8542 5.5264 0.0000 -10707.4230 1466.9628 0.0000 0.0000 1821.2584 -7395.2130 310.8884 -9216.4714 -7373.3545 302.5558 105.7265 174.7782 29852.4392 164.8891 220.0086
ENERGY: 1200000 0.8647 9.7800 5.1622 0.0000 -10615.5888 1419.2298 0.0000 0.0000 1755.2079 -7425.3441 299.6136 -9180.5520 -7374.5665 301.5641 -341.5422 -247.7573 30124.0981 -29.9590 25.5239
ENERGY: 1500000 1.9543 9.7736 6.8808 0.0000 -10546.9356 1513.1972 0.0000 0.0000 1729.7340 -7285.3956 295.2652 -9015.1296 -7373.6526 300.4065 1005.3752 990.4191 30233.7108 29.7198 81.3319
TCL: Running FEP window   5: Lambda1 0.2    Lambda2 0.25   [dLambda 0.04999999999999999]
TCL: Setting parameter firsttimestep to 0
TCL: Setting parameter alchLambda to 0.2
Info: NONBONDED TABLE R-SQUARED SPACING: 0.0625
Info: NONBONDED TABLE SIZE: 705 POINTS
TCL: Setting parameter alchLambda2 to 0.25
Info: NONBONDED TABLE R-SQUARED SPACING: 0.0625
Info: NONBONDED TABLE SIZE: 705 POINTS
TCL: Running for 1500000 steps
ETITLE: TS BOND ANGLE DIHED IMPRP ELECT VDW BOUNDARY MISC KINETIC TOTAL TEMP POTENTIAL TOTALAVG TEMPAVG PRESSURE GPRESSURE VOLUME PRESSAVG GPRESSAVG
ENERGY: 0 1.9543 9.7736 6.8808 0.0000 -10546.9341 1512.9177 0.0000 0.0000 1728.8372 -7286.5704 295.1121 -9015.4076 -7286.5704 295.1121 906.8707 992.5281 30233.7108 906.8707 992.5281
ENERGY: 300000 2.3585 8.2918 5.2244 0.0000 -10468.3220 1359.1888 0.0000 0.0000 1713.9759 -7379.2826 292.5753 -9093.2585 -7331.7312 297.7065 -484.2954 -364.5614 29909.1039 -81.1802 -6.3924
ENERGY: 600000 2.3544 13.0158 4.1589 0.0000 -10633.5394 1478.8607 0.0000 0.0000 1726.4258 -7408.7237 294.7005 -9135.1495 -7344.9809 297.1090 56.3465 126.3952 30343.4186 -70.1601 -1.0589
ENERGY: 900000 5.8681 8.6691 4.9903 0.0000 -10553.4464 1427.3410 0.0000 0.0000 1733.3524 -7373.2254 295.8828 -9106.5778 -7346.7566 298.1482 -198.8408 -191.2961 30360.9237 -93.2501 -23.6040
ENERGY: 1200000 1.7280 11.4774 3.1464 0.0000 -10660.7129 1463.5659 0.0000 0.0000 1728.0865 -7452.7087 294.9839 -9180.7952 -7379.7364 297.1147 39.9404 96.8254 30213.3644 -170.3463 -101.4514
ENERGY: 1500000 2.1190 9.9369 4.0063 0.0000 -10534.9075 1468.0624 0.0000 0.0000 1753.7912 -7296.9917 299.3717 -9050.7829 -7376.7286 296.8943 619.8346 639.2258 29925.0969 -145.0830 -84.0542
TCL: Running FEP window   6: Lambda1 0.25   Lambda2 0.3    [dLambda 0.04999999999999999]
TCL: Setting parameter firsttimestep to 0
TCL: Setting parameter alchLambda to 0.25
Info: NONBONDED TABLE R-SQUARED SPACING: 0.0625
Info: NONBONDED TABLE SIZE: 705 POINTS
TCL: Setting parameter alchLambda2 to 0.3
Info: NONBONDED TABLE R-SQUARED SPACING: 0.0625
Info: NONBONDED TABLE SIZE: 705 POINTS
TCL: Running for 1500000 steps
ETITLE: TS BOND ANGLE DIHED IMPRP ELECT VDW BOUNDARY MISC KINETIC TOTAL TEMP POTENTIAL TOTALAVG TEMPAVG PRESSURE GPRESSURE VOLUME PRESSAVG GPRESSAVG
ENERGY: 0 2.1190 9.9369 4.0063 0.0000 -10534.9077 1468.3452 0.0000 0.0000 1752.9396 -7297.5607 299.2264 -9050.5003 -7297.5607 299.2264 556.3990 647.0635 29925.0969 556.3990 647.0635
ENERGY: 300000 6.5018 13.2003 3.6908 0.0000 -10596.4807 1432.7927 0.0000 0.0000 1754.3447 -7385.9504 299.4662 -9140.2951 -7325.9297 303.2348 246.8065 243.2986 29651.9571 179.4348 235.1943
ENERGY: 600000 2.1394 8.6828 4.3424 0.0000 -10623.1688 1492.3976 0.0000 0.0000 1734.0770 -7381.5296 296.0065 -9115.6066 -7365.8261 300.0840 542.4731 554.0978 30117.1980 229.8682 280.4230
ENERGY: 900000 1.7041 12.8762 3.5749 0.0000 -10540.8233 1458.5096 0.0000 0.0000 1804.8317 -7259.3268 308.0843 -9064.1585 -7358.8418 300.6316 136.7985 191.7835 30614.6009 168.5725 209.0821
ENERGY: 1200000 2.5013 13.9251 3.9148 0.0000 -10345.0013 1264.7186 0.0000 0.0000 1794.5500 -7265.3916 306.3293 -9059.9416 -7343.5945 301.6194 -1342.8825 -1282.2988 30435.3689 24.7429 61.3169
ENERGY: 1500000 6.0410 8.6898 3.8040 0.0000 -10562.0211 1413.9730 0.0000 0.0000 1754.1368 -7375.3765 299.4307 -9129.5133 -7344.8764 301.2468 -123.9093 -104.3585 29951.3799 -1.2899 43.1265
TCL: Running FEP window   7: Lambda1 0.3    Lambda2 0.35   [dLambda 0.04999999999999999]
TCL: Setting parameter firsttimestep to 0
TCL: Setting parameter alchLambda to 0.3
Info: NONBONDED TABLE R-SQUARED SPACING: 0.0625
Info: NONBONDED TABLE SIZE: 705 POINTS
TCL: Setting parameter alchLambda2 to 0.35
Info: NONBONDED TABLE R-SQUARED SPACING: 0.0625
Info: NONBONDED TABLE SIZE: 705 POINTS
TCL: Running for 1500000 steps
ETITLE: TS BOND ANGLE DIHED IMPRP ELECT VDW BOUNDARY MISC KINETIC TOTAL TEMP POTENTIAL TOTALAVG TEMPAVG PRESSURE GPRESSURE VOLUME PRESSAVG GPRESSAVG
ENERGY: 0 6.0410 8.6898 3.8040 0.0000 -10562.0203 1414.6457 0.0000 0.0000 1753.2894 -7375.5504 299.2861 -9128.8399 -7375.5504 299.2861 -180.6468 -94.8053 29951.3799 -180.6468 -94.8053
ENERGY: 300000 5.1274 9.8045 3.7444 0.0000 -10662.7902 1447.3754 0.0000 0.0000 1725.7625 -7470.9760 294.5872 -9196.7385 -7370.3505 303.6473 -124.9723 -160.7031 30124.6151 -114.0251 -87.4325
ENERGY: 600000 2.8722 11.1534 4.6410 0.0000 -10686.3839 1513.3766 0.0000 0.0000 1765.4629 -7388.8779 301.3641 -9154.3408 -7380.5410 301.9150 254.2069 374.9762 30429.7591 -38.4236 20.1975
ENERGY: 900000 3.0870 12.0725 4.6759 0.0000 -10471.7968 1321.0485 0.0000 0.0000 1738.2011 -7392.7118 296.7105 -9130.9129 -7386.8618 300.9214 -1146.6680 -1051.9875 30768.1328 -196.6535 -130.7240
ENERGY: 1200000 2.4339 12.3579 3.8053 0.0000 -10669.0873 1439.0002 0.0000 0.0000 1755.8519 -7455.6382 299.7235 -9211.4901 -7386.6416 301.9694 -81.2430 2.7268 29716.8077 -153.3053 -90.4968
ENERGY: 1500000 1.9079 13.9062 4.5289 0.0000 -10580.5707 1434.6457 0.0000 0.0000 1715.7203 -7409.8618 292.8730 -9125.5821 -7390.1443 300.6691 58.0047 156.6486 29993.1080 -160.4112 -94.5023
TCL: Running FEP window   8: Lambda1 0.35   Lambda2 0.39999999999999997 [dLambda 0.04999999999999999]
TCL: Setting parameter firsttimestep to 0
TCL: Setting parameter alchLambda to 0.35
Info: NONBONDED TABLE R-SQUARED SPACING: 0.0625
Info: NONBONDED TABLE SIZE: 705 POINTS
TCL: Setting parameter alchLambda2 to 0.39999999999999997
Info: NONBONDED TABLE R-SQUARED SPACING: 0.0625
Info: NONBONDED TABLE SIZE: 705 POINTS
TCL: Running for 1500000 steps
ETITLE: TS BOND ANGLE DIHED IMPRP ELECT VDW BOUNDARY MISC KINETIC TOTAL TEMP POTENTIAL TOTALAVG TEMPAVG PRESSURE GPRESSURE VOLUME PRESSAVG GPRESSAVG
ENERGY: 0 1.9079 13.9062 4.5289 0.0000 -10580.5728 1436.4150 0.0000 0.0000 1714.8237 -7408.9911 292.7200 -9123.8148 -7408.9911 292.7200 80.6374 173.6004 29993.1080 80.6374 173.6004
ENERGY: 300000 2.2029 13.0664 4.6846 0.0000 -10511.2058 1464.5242 0.0000 0.0000 1821.3314 -7205.3964 310.9008 -9026.7278 -7311.9873 302.4535 261.5749 308.6353 30811.7698 -118.7078 -86.7495
ENERGY: 600000 2.2058 6.6088 4.1987 0.0000 -10554.8480 1459.7348 0.0000 0.0000 1750.6779 -7331.4221 298.8403 -9082.1000 -7322.9033 301.8361 -61.3618 -4.2463 30718.0443 -235.0700 -210.9000
ENERGY: 900000 4.6999 9.3481 3.8103 0.0000 -10535.9249 1380.3480 0.0000 0.0000 1775.3752 -7362.3434 303.0561 -9137.7186 -7347.3742 302.1168 -489.6098 -416.0148 30303.5543 -193.0700 -152.3819
ENERGY: 1200000 3.1176 10.5937 4.3368 0.0000 -10678.1640 1502.9335 0.0000 0.0000 1822.8159 -7334.3666 311.1542 -9157.1825 -7354.0087 301.8635 918.9122 954.3918 29578.2171 -127.6201 -79.7607
ENERGY: 1500000 4.0054 8.0024 3.1411 0.0000 -10550.1172 1406.4403 0.0000 0.0000 1715.3470 -7413.1811 292.8093 -9128.5281 -7352.5273 302.2055 -151.9859 -64.4398 29864.6160 -163.3847 -110.3844
TCL: Running FEP window   9: Lambda1 0.39999999999999997 Lambda2 0.44999999999999996 [dLambda 0.04999999999999999]
TCL: Setting parameter firsttimestep to 0
TCL: Setting parameter alchLambda to 0.39999999999999997
Info: NONBONDED TABLE R-SQUARED SPACING: 0.0625
Info: NONBONDED TABLE SIZE: 705 POINTS
TCL: Setting parameter alchLambda2 to 0.44999999999999996
Info: NONBONDED TABLE R-SQUARED SPACING: 0.0625
Info: NONBONDED TABLE SIZE: 705 POINTS
TCL: Running for 1500000 steps
ETITLE: TS BOND ANGLE DIHED IMPRP ELECT VDW BOUNDARY MISC KINETIC TOTAL TEMP POTENTIAL TOTALAVG TEMPAVG PRESSURE GPRESSURE VOLUME PRESSAVG GPRESSAVG
ENERGY: 0 4.0054 8.0024 3.1411 0.0000 -10550.1173 1406.8995 0.0000 0.0000 1714.4791 -7413.5899 292.6612 -9128.0690 -7413.5899 292.6612 -131.5626 -55.4366 29864.6160 -131.5626 -55.4366
ENERGY: 300000 3.6911 11.3063 4.8875 0.0000 -10693.2157 1500.2818 0.0000 0.0000 1770.8889 -7402.1600 302.2903 -9173.0489 -7420.9193 296.8666 292.7860 310.3368 30155.9001 132.3474 176.8852
ENERGY: 600000 4.8302 6.1524 3.6785 0.0000 -10627.6303 1445.8205 0.0000 0.0000 1744.7918 -7422.3570 297.8355 -9167.1488 -7394.1883 298.1774 100.6756 128.3756 29853.4096 224.9494 265.8271
ENERGY: 900000 0.6529 13.4831 4.8597 0.0000 -10390.5455 1277.5325 0.0000 0.0000 1743.9140 -7350.1032 297.6857 -9094.0172 -7366.6595 299.5228 -1320.7957 -1230.7827 30645.1506 -74.6777 -18.9620
ENERGY: 1200000 2.7183 12.0792 3.9897 0.0000 -10495.0161 1354.0255 0.0000 0.0000 1703.3076 -7418.8957 290.7542 -9122.2033 -7365.1013 299.2210 -847.0383 -804.3195 30415.7688 -148.7871 -91.2771
ENERGY: 1500000 3.4333 8.5029 3.4092 0.0000 -10496.2939 1392.0098 0.0000 0.0000 1804.6824 -7284.2563 308.0589 -9088.9387 -7354.0252 299.9019 -433.2098 -374.8899 30559.9698 -154.3520 -96.5934
TCL: Running FEP window  10: Lambda1 0.44999999999999996 Lambda2 0.49999999999999994 [dLambda 0.04999999999999999]
TCL: Setting parameter firsttimestep to 0
TCL: Setting parameter alchLambda to 0.44999999999999996
Info: NONBONDED TABLE R-SQUARED SPACING: 0.0625
Info: NONBONDED TABLE SIZE: 705 POINTS
TCL: Setting parameter alchLambda2 to 0.49999999999999994
Info: NONBONDED TABLE R-SQUARED SPACING: 0.0625
Info: NONBONDED TABLE SIZE: 705 POINTS
TCL: Running for 1500000 steps
ETITLE: TS BOND ANGLE DIHED IMPRP ELECT VDW BOUNDARY MISC KINETIC TOTAL TEMP POTENTIAL TOTALAVG TEMPAVG PRESSURE GPRESSURE VOLUME PRESSAVG GPRESSAVG
ENERGY: 0 3.4333 8.5029 3.4092 0.0000 -10496.2909 1391.6437 0.0000 0.0000 1803.8232 -7285.4786 307.9122 -9089.3018 -7285.4786 307.9122 -462.4758 -372.4797 30559.9698 -462.4758 -372.4797
ENERGY: 300000 6.7707 7.9597 5.6187 0.0000 -10475.9748 1411.5450 0.0000 0.0000 1773.9443 -7270.1365 302.8119 -9044.0808 -7315.2787 303.8527 -104.4502 -74.6152 30430.3592 -402.2801 -332.0204
ENERGY: 600000 3.4808 5.8190 3.9162 0.0000 -10535.3438 1446.8352 0.0000 0.0000 1776.6010 -7298.6917 303.2654 -9075.2927 -7310.5337 303.1350 238.9165 267.4332 30621.0368 -132.7382 -66.3451
ENERGY: 900000 4.3307 11.0493 4.2190 0.0000 -10791.9872 1534.7079 0.0000 0.0000 1774.5343 -7463.1461 302.9126 -9237.6804 -7344.1394 301.7154 484.5820 566.5939 29945.4057 29.7722 88.6035
ENERGY: 1200000 5.2010 11.4666 6.5607 0.0000 -10512.5196 1403.3940 0.0000 0.0000 1824.7498 -7261.1474 311.4844 -9085.8973 -7338.0124 302.2022 -187.3825 -115.1611 30604.7457 -53.6237 6.2615
ENERGY: 1500000 7.5098 10.0138 4.1829 0.0000 -10607.9350 1450.6652 0.0000 0.0000 1730.9603 -7404.6030 295.4745 -9135.5633 -7350.7089 300.8457 -164.5565 -98.4023 30241.5036 -58.5473 -4.2073
TCL: Running FEP window  11: Lambda1 0.49999999999999994 Lambda2 0.5499999999999999 [dLambda 0.04999999999999999]
TCL: Setting parameter firsttimestep to 0
TCL: Setting parameter alchLambda to 0.49999999999999994
Info: NONBONDED TABLE R-SQUARED SPACING: 0.0625
Info: NONBONDED TABLE SIZE: 705 POINTS
TCL: Setting parameter alchLambda2 to 0.5499999999999999
Info: NONBONDED TABLE R-SQUARED SPACING: 0.0625
Info: NONBONDED TABLE SIZE: 705 POINTS
TCL: Running for 1500000 steps
ETITLE: TS BOND ANGLE DIHED IMPRP ELECT VDW BOUNDARY MISC KINETIC TOTAL TEMP POTENTIAL TOTALAVG TEMPAVG PRESSURE GPRESSURE VOLUME PRESSAVG GPRESSAVG
ENERGY: 0 7.5098 10.0138 4.1829 0.0000 -10607.9346 1450.6393 0.0000 0.0000 1730.1312 -7405.4576 295.3330 -9135.5888 -7405.4576 295.3330 -177.2321 -92.9413 30241.5036 -177.2321 -92.9413
ENERGY: 300000 1.9991 6.8748 4.1927 0.0000 -10511.3462 1474.4028 0.0000 0.0000 1742.6878 -7281.1889 297.4764 -9023.8768 -7385.8665 294.0290 486.1625 567.7926 30630.5998 40.7426 100.0752
ENERGY: 600000 3.6967 11.3387 5.3603 0.0000 -10505.3378 1349.3375 0.0000 0.0000 1727.0606 -7408.5439 294.8088 -9135.6045 -7394.2674 296.2965 -738.7728 -617.5840 30281.7600 -225.2638 -145.4454
ENERGY: 900000 2.5576 8.0249 3.6264 0.0000 -10632.0522 1466.0592 0.0000 0.0000 1704.8829 -7446.9012 291.0231 -9151.7841 -7388.9703 295.4282 118.9452 160.4266 30405.1514 -244.4636 -159.3555
ENERGY: 1200000 3.5681 12.1068 4.3218 0.0000 -10479.0961 1370.7276 0.0000 0.0000 1761.8264 -7326.5454 300.7433 -9088.3718 -7384.9133 296.5098 -356.0641 -311.3184 29994.0856 -230.3377 -146.9989
ENERGY: 1500000 4.8695 8.7644 4.9499 0.0000 -10643.2786 1441.3369 0.0000 0.0000 1752.8983 -7430.4596 299.2193 -9183.3579 -7379.5360 297.4945 -16.0351 126.6903 30022.9925 -221.4595 -129.7615
TCL: Running FEP window  12: Lambda1 0.5499999999999999 Lambda2 0.6    [dLambda 0.050000000000000044]
TCL: Setting parameter firsttimestep to 0
TCL: Setting parameter alchLambda to 0.5499999999999999
Info: NONBONDED TABLE R-SQUARED SPACING: 0.0625
Info: NONBONDED TABLE SIZE: 705 POINTS
TCL: Setting parameter alchLambda2 to 0.6
Info: NONBONDED TABLE R-SQUARED SPACING: 0.0625
Info: NONBONDED TABLE SIZE: 705 POINTS
TCL: Running for 1500000 steps
ETITLE: TS BOND ANGLE DIHED IMPRP ELECT VDW BOUNDARY MISC KINETIC TOTAL TEMP POTENTIAL TOTALAVG TEMPAVG PRESSURE GPRESSURE VOLUME PRESSAVG GPRESSAVG
ENERGY: 0 4.8695 8.7644 4.9499 0.0000 -10643.3990 1442.0191 0.0000 0.0000 1752.0527 -7430.7434 299.0750 -9182.7962 -7430.7434 299.0750 60.4423 142.5370 30022.9925 60.4423 142.5370
ENERGY: 300000 4.5584 8.9712 4.2723 0.0000 -10612.2759 1461.0280 0.0000 0.0000 1767.6898 -7365.7562 301.7442 -9133.4460 -7390.5123 300.9695 315.7747 371.1768 29890.5459 244.5713 302.0239
ENERGY: 600000 3.5518 10.5879 3.8740 0.0000 -10642.6125 1437.8792 0.0000 0.0000 1766.8853 -7419.8344 301.6069 -9186.7197 -7379.9229 301.8601 53.5318 129.4658 29822.3801 205.6605 257.9414
ENERGY: 900000 5.4291 9.6392 3.7535 0.0000 -10630.6205 1511.0857 0.0000 0.0000 1721.7809 -7378.9321 293.9076 -9100.7130 -7391.7161 300.0248 440.7995 541.6983 30491.9311 221.9267 274.0425
ENERGY: 1200000 1.1752 7.5331 4.2807 0.0000 -10575.6986 1404.7028 0.0000 0.0000 1792.4985 -7365.5083 305.9791 -9158.0067 -7389.2670 300.0384 -408.6890 -364.9372 30733.8810 102.3286 152.5026
ENERGY: 1500000 3.7801 9.3969 4.1704 0.0000 -10543.2666 1439.5510 0.0000 0.0000 1734.0434 -7352.3247 296.0008 -9086.3682 -7381.4956 299.7642 138.4397 190.4123 30346.0726 113.5606 159.7022
TCL: Running FEP window  13: Lambda1 0.6    Lambda2 0.65   [dLambda 0.050000000000000044]
TCL: Setting parameter firsttimestep to 0
TCL: Setting parameter alchLambda to 0.6
Info: NONBONDED TABLE R-SQUARED SPACING: 0.0625
Info: NONBONDED TABLE SIZE: 705 POINTS
TCL: Setting parameter alchLambda2 to 0.65
Info: NONBONDED TABLE R-SQUARED SPACING: 0.0625
Info: NONBONDED TABLE SIZE: 705 POINTS
TCL: Running for 1500000 steps
ETITLE: TS BOND ANGLE DIHED IMPRP ELECT VDW BOUNDARY MISC KINETIC TOTAL TEMP POTENTIAL TOTALAVG TEMPAVG PRESSURE GPRESSURE VOLUME PRESSAVG GPRESSAVG
ENERGY: 0 3.7801 9.3969 4.1704 0.0000 -10543.2556 1439.4489 0.0000 0.0000 1733.1934 -7353.2659 295.8557 -9086.4593 -7353.2659 295.8557 125.4852 199.4014 30346.0726 125.4852 199.4014
ENERGY: 300000 3.6123 10.2503 4.9298 0.0000 -10596.5365 1416.4860 0.0000 0.0000 1829.2567 -7332.0013 312.2537 -9161.2580 -7380.9026 301.1745 -348.1186 -325.6020 30465.6774 -67.9268 -10.6992
ENERGY: 600000 6.1744 5.7457 4.0229 0.0000 -10566.1123 1418.2574 0.0000 0.0000 1766.2916 -7365.6203 301.5056 -9131.9119 -7354.1695 302.1360 -240.2537 -193.6230 30206.0800 -99.4230 -41.2928
ENERGY: 900000 1.7412 12.3537 4.4134 0.0000 -10649.6516 1418.1493 0.0000 0.0000 1756.1398 -7456.8541 299.7726 -9212.9940 -7355.9621 300.8968 76.8622 83.7481 29580.4224 -14.0973 33.9789
ENERGY: 1200000 2.2372 10.0582 5.2179 0.0000 -10561.7121 1420.3366 0.0000 0.0000 1825.2239 -7298.6382 311.5653 -9123.8621 -7355.4675 301.4074 -87.6503 -30.1990 30568.6088 -9.7089 41.5009
ENERGY: 1500000 1.8269 10.6243 5.3228 0.0000 -10720.3718 1495.8374 0.0000 0.0000 1793.9098 -7412.8506 306.2200 -9206.7604 -7355.1780 301.6438 468.2227 525.2165 30029.9000 14.8768 69.2456
TCL: Running FEP window  14: Lambda1 0.65   Lambda2 0.7000000000000001 [dLambda 0.050000000000000044]
TCL: Setting parameter firsttimestep to 0
TCL: Setting parameter alchLambda to 0.65
Info: NONBONDED TABLE R-SQUARED SPACING: 0.0625
Info: NONBONDED TABLE SIZE: 705 POINTS
TCL: Setting parameter alchLambda2 to 0.7000000000000001
Info: NONBONDED TABLE R-SQUARED SPACING: 0.0625
Info: NONBONDED TABLE SIZE: 705 POINTS
TCL: Running for 1500000 steps
ETITLE: TS BOND ANGLE DIHED IMPRP ELECT VDW BOUNDARY MISC KINETIC TOTAL TEMP POTENTIAL TOTALAVG TEMPAVG PRESSURE GPRESSURE VOLUME PRESSAVG GPRESSAVG
ENERGY: 0 1.8269 10.6243 5.3228 0.0000 -10721.0266 1495.3987 0.0000 0.0000 1793.0100 -7414.8439 306.0664 -9207.8539 -7414.8439 306.0664 435.7332 526.9377 30029.9000 435.7332 526.9377
ENERGY: 300000 1.8573 13.2408 3.5686 0.0000 -10774.6964 1532.1752 0.0000 0.0000 1763.9583 -7459.8963 301.1073 -9223.8546 -7401.7740 301.1151 616.8732 663.4665 29794.7676 332.6180 386.3253
ENERGY: 600000 1.5675 10.1393 6.0072 0.0000 -10738.4809 1505.8326 0.0000 0.0000 1742.4967 -7472.4376 297.4438 -9214.9343 -7401.5329 300.4123 550.2913 581.5343 30024.5757 225.3354 284.6211
ENERGY: 900000 1.6712 10.7736 3.8414 0.0000 -10644.7111 1504.8987 0.0000 0.0000 1771.9142 -7351.6121 302.4653 -9123.5263 -7392.6915 301.1263 834.9334 980.3632 29806.0121 176.1586 250.8889
ENERGY: 1200000 3.7863 13.4009 4.1214 0.0000 -10518.0838 1360.8115 0.0000 0.0000 1797.8157 -7338.1481 306.8867 -9135.9638 -7391.7182 300.7988 -724.5329 -625.5172 30635.0301 -16.6890 55.0992
ENERGY: 1500000 2.6198 9.3517 5.2377 0.0000 -10577.2745 1395.9176 0.0000 0.0000 1769.6776 -7394.4701 302.0835 -9164.1478 -7394.4021 300.9418 -390.0582 -362.2129 30216.9916 -21.2439 46.8669
TCL: Running FEP window  15: Lambda1 0.7000000000000001 Lambda2 0.7500000000000001 [dLambda 0.050000000000000044]
TCL: Setting parameter firsttimestep to 0
TCL: Setting parameter alchLambda to 0.7000000000000001
Info: NONBONDED TABLE R-SQUARED SPACING: 0.0625
Info: NONBONDED TABLE SIZE: 705 POINTS
TCL: Setting parameter alchLambda2 to 0.7500000000000001
Info: NONBONDED TABLE R-SQUARED SPACING: 0.0625
Info: NONBONDED TABLE SIZE: 705 POINTS
TCL: Running for 1500000 steps
ETITLE: TS BOND ANGLE DIHED IMPRP ELECT VDW BOUNDARY MISC KINETIC TOTAL TEMP POTENTIAL TOTALAVG TEMPAVG PRESSURE GPRESSURE VOLUME PRESSAVG GPRESSAVG
ENERGY: 0 2.6198 9.3517 5.2377 0.0000 -10577.4424 1395.4512 0.0000 0.0000 1768.7764 -7396.0056 301.9297 -9164.7819 -7396.0056 301.9297 -448.1068 -361.4956 30216.9916 -448.1068 -361.4956
ENERGY: 300000 2.6952 7.4907 6.1591 0.0000 -10563.3339 1432.9751 0.0000 0.0000 1748.4573 -7365.5565 298.4612 -9114.0138 -7383.4954 300.7756 -33.7531 -23.9117 30525.6656 20.1529 65.9607
ENERGY: 600000 2.3420 10.0048 3.1376 0.0000 -10633.6659 1540.0831 0.0000 0.0000 1731.4973 -7346.6011 295.5662 -9078.0985 -7375.5680 300.4454 971.5318 1053.6322 30035.8508 266.8776 319.0121
ENERGY: 900000 2.2670 10.0521 4.7960 0.0000 -10525.9245 1386.1811 0.0000 0.0000 1773.1114 -7349.5169 302.6697 -9122.6283 -7371.6276 301.9749 -383.7473 -320.1357 30450.6767 144.1950 195.5991
ENERGY: 1200000 2.4386 7.9530 3.5727 0.0000 -10531.7623 1391.8101 0.0000 0.0000 1769.3439 -7356.6440 302.0266 -9125.9879 -7384.0303 300.6009 -92.7175 21.5364 29922.8150 160.6759 215.2734
ENERGY: 1500000 4.1365 8.6945 4.0418 0.0000 -10681.0651 1469.6596 0.0000 0.0000 1748.9001 -7445.6326 298.5368 -9194.5328 -7388.5262 300.1327 163.1838 241.1663 29913.0396 67.3751 125.1520
TCL: Running FEP window  16: Lambda1 0.7500000000000001 Lambda2 0.8000000000000002 [dLambda 0.050000000000000044]
TCL: Setting parameter firsttimestep to 0
TCL: Setting parameter alchLambda to 0.7500000000000001
Info: NONBONDED TABLE R-SQUARED SPACING: 0.0625
Info: NONBONDED TABLE SIZE: 705 POINTS
TCL: Setting parameter alchLambda2 to 0.8000000000000002
Info: NONBONDED TABLE R-SQUARED SPACING: 0.0625
Info: NONBONDED TABLE SIZE: 705 POINTS
TCL: Running for 1500000 steps
ETITLE: TS BOND ANGLE DIHED IMPRP ELECT VDW BOUNDARY MISC KINETIC TOTAL TEMP POTENTIAL TOTALAVG TEMPAVG PRESSURE GPRESSURE VOLUME PRESSAVG GPRESSAVG
ENERGY: 0 4.1365 8.6945 4.0418 0.0000 -10682.0200 1469.5998 0.0000 0.0000 1748.0640 -7447.4835 298.3941 -9195.5475 -7447.4835 298.3941 167.3227 247.2552 29913.0396 167.3227 247.2552
ENERGY: 300000 4.3036 8.6208 3.7204 0.0000 -10605.5225 1442.8052 0.0000 0.0000 1787.0707 -7359.0018 305.0525 -9146.0724 -7391.9116 298.4169 446.0775 544.4278 29437.9691 177.7838 273.0563
ENERGY: 600000 3.5534 9.1812 4.0291 0.0000 -10474.5324 1342.7319 0.0000 0.0000 1713.5211 -7401.5158 292.4976 -9115.0369 -7407.3808 297.9948 -788.7286 -778.2492 30568.5782 58.5091 141.1973
ENERGY: 900000 4.3700 12.8326 4.6810 0.0000 -10609.2051 1468.4220 0.0000 0.0000 1770.5672 -7348.3322 302.2354 -9118.8995 -7398.0956 298.8738 385.0390 511.5539 29986.3656 13.9716 93.1346
ENERGY: 1200000 3.0295 17.5511 5.7560 0.0000 -10712.7701 1513.1094 0.0000 0.0000 1749.7108 -7423.6134 298.6752 -9173.3242 -7402.7816 298.6058 660.6106 781.3273 29697.5829 52.5116 131.0304
ENERGY: 1500000 1.6071 11.5752 3.4984 0.0000 -10656.8283 1439.2610 0.0000 0.0000 1777.9498 -7422.9367 303.4956 -9200.8865 -7402.1832 299.1108 -34.0380 36.0640 30152.1009 18.5075 91.3179
TCL: Running FEP window  17: Lambda1 0.8000000000000002 Lambda2 0.8500000000000002 [dLambda 0.050000000000000044]
TCL: Setting parameter firsttimestep to 0
TCL: Setting parameter alchLambda to 0.8000000000000002
Info: NONBONDED TABLE R-SQUARED SPACING: 0.0625
Info: NONBONDED TABLE SIZE: 705 POINTS
TCL: Setting parameter alchLambda2 to 0.8500000000000002
Info: NONBONDED TABLE R-SQUARED SPACING: 0.0625
Info: NONBONDED TABLE SIZE: 705 POINTS
TCL: Running for 1500000 steps
ETITLE: TS BOND ANGLE DIHED IMPRP ELECT VDW BOUNDARY MISC KINETIC TOTAL TEMP POTENTIAL TOTALAVG TEMPAVG PRESSURE GPRESSURE VOLUME PRESSAVG GPRESSAVG
ENERGY: 0 1.6071 11.5752 3.4984 0.0000 -10658.5891 1439.5762 0.0000 0.0000 1777.0918 -7425.2405 303.3491 -9202.3322 -7425.2405 303.3491 -41.1765 46.9624 30152.1009 -41.1765 46.9624
ENERGY: 300000 1.2733 12.3398 4.3172 0.0000 -10528.7383 1433.9896 0.0000 0.0000 1769.3824 -7307.4360 302.0331 -9076.8184 -7408.7199 300.7310 394.4375 466.6524 29876.3053 279.7345 341.1906
ENERGY: 600000 2.3521 8.1127 5.2408 0.0000 -10598.0424 1443.3304 0.0000 0.0000 1756.9713 -7382.0352 299.9146 -9139.0065 -7407.1326 299.9959 10.7683 29.9967 30725.2633 199.4614 265.1598
ENERGY: 900000 3.8394 10.2342 3.7259 0.0000 -10632.3058 1428.6969 0.0000 0.0000 1745.9672 -7439.8422 298.0362 -9185.8094 -7396.8394 299.6290 -378.1600 -283.1008 30407.3348 134.9586 198.5652
ENERGY: 1200000 4.1781 10.9671 5.6812 0.0000 -10632.5589 1427.7762 0.0000 0.0000 1703.6545 -7480.3017 290.8134 -9183.9562 -7395.4601 298.5389 -387.0557 -309.5387 30434.2567 75.3115 140.0028
ENERGY: 1500000 2.1482 10.6356 4.1862 0.0000 -10586.2532 1406.6757 0.0000 0.0000 1799.1658 -7363.4417 307.1172 -9162.6075 -7382.2497 300.0466 -220.1814 -84.1780 30098.4799 79.4472 144.8693
TCL: Running FEP window  18: Lambda1 0.8500000000000002 Lambda2 0.9000000000000002 [dLambda 0.050000000000000044]
TCL: Setting parameter firsttimestep to 0
TCL: Setting parameter alchLambda to 0.8500000000000002
Info: NONBONDED TABLE R-SQUARED SPACING: 0.0625
Info: NONBONDED TABLE SIZE: 705 POINTS
TCL: Setting parameter alchLambda2 to 0.9000000000000002
Info: NONBONDED TABLE R-SQUARED SPACING: 0.0625
Info: NONBONDED TABLE SIZE: 705 POINTS
TCL: Running for 1500000 steps
ETITLE: TS BOND ANGLE DIHED IMPRP ELECT VDW BOUNDARY MISC KINETIC TOTAL TEMP POTENTIAL TOTALAVG TEMPAVG PRESSURE GPRESSURE VOLUME PRESSAVG GPRESSAVG
ENERGY: 0 2.1482 10.6356 4.1862 0.0000 -10587.9410 1406.9968 0.0000 0.0000 1798.3402 -7365.6340 306.9762 -9163.9742 -7365.6340 306.9762 -144.5615 -71.6534 30098.4799 -144.5615 -71.6534
ENERGY: 300000 3.5589 12.0483 3.8829 0.0000 -10524.0159 1400.3016 0.0000 0.0000 1763.6008 -7340.6234 301.0462 -9104.2242 -7377.0568 301.5649 -106.4058 -106.5514 30352.3793 -184.1647 -95.2645
ENERGY: 600000 2.6324 6.1760 3.2955 0.0000 -10766.7333 1570.9049 0.0000 0.0000 1811.7133 -7372.0112 309.2590 -9183.7244 -7397.6400 299.7680 1338.1934 1377.0774 29752.3506 187.8914 248.2050
ENERGY: 900000 3.4050 11.8659 5.9877 0.0000 -10593.3457 1437.3771 0.0000 0.0000 1801.3856 -7333.3245 307.4961 -9134.7101 -7386.0378 301.3315 184.8637 208.8357 30151.6844 231.5396 274.8274
ENERGY: 1200000 2.7656 9.7197 3.9584 0.0000 -10727.8314 1531.6971 0.0000 0.0000 1722.1292 -7457.5615 293.9670 -9179.6906 -7388.4806 301.9515 937.4589 1055.9026 29650.3634 217.0814 255.8998
ENERGY: 1500000 1.7941 13.1317 5.7513 0.0000 -10528.3688 1385.9357 0.0000 0.0000 1739.5425 -7382.2134 296.9395 -9121.7559 -7390.6633 301.2147 -507.2762 -504.7513 30801.4812 198.4979 234.9193
TCL: Running FEP window  19: Lambda1 0.9000000000000002 Lambda2 0.9500000000000003 [dLambda 0.050000000000000044]
TCL: Setting parameter firsttimestep to 0
TCL: Setting parameter alchLambda to 0.9000000000000002
Info: NONBONDED TABLE R-SQUARED SPACING: 0.0625
Info: NONBONDED TABLE SIZE: 705 POINTS
TCL: Setting parameter alchLambda2 to 0.9500000000000003
Info: NONBONDED TABLE R-SQUARED SPACING: 0.0625
Info: NONBONDED TABLE SIZE: 705 POINTS
TCL: Running for 1500000 steps
ETITLE: TS BOND ANGLE DIHED IMPRP ELECT VDW BOUNDARY MISC KINETIC TOTAL TEMP POTENTIAL TOTALAVG TEMPAVG PRESSURE GPRESSURE VOLUME PRESSAVG GPRESSAVG
ENERGY: 0 1.7941 13.1317 5.7513 0.0000 -10530.7524 1387.3536 0.0000 0.0000 1738.6981 -7384.0236 296.7953 -9122.7217 -7384.0236 296.7953 -549.5948 -482.2506 30801.4812 -549.5948 -482.2506
ENERGY: 300000 1.8464 7.5020 4.2831 0.0000 -10546.1796 1456.0662 0.0000 0.0000 1770.3403 -7306.1416 302.1967 -9076.4819 -7338.8441 302.6854 491.0427 569.2515 30241.2389 -237.5419 -178.9400
ENERGY: 600000 2.5708 8.5172 3.4973 0.0000 -10538.1751 1346.6348 0.0000 0.0000 1754.2893 -7422.6657 299.4568 -9176.9550 -7381.5057 299.6355 -887.5060 -854.9699 30787.9917 -149.4744 -98.9781
ENERGY: 900000 2.9768 14.8336 6.1368 0.0000 -10523.9803 1355.5825 0.0000 0.0000 1746.2141 -7398.2365 298.0783 -9144.4506 -7374.9257 299.8617 -629.6044 -553.0931 30487.8009 -267.8170 -216.7824
ENERGY: 1200000 3.0391 9.9470 4.3209 0.0000 -10708.3000 1475.2647 0.0000 0.0000 1838.9677 -7376.7606 313.9113 -9215.7283 -7376.2399 301.5095 156.3449 214.0799 30461.0429 -226.3503 -180.4620
ENERGY: 1500000 6.8994 7.2501 4.3113 0.0000 -10685.3953 1514.3505 0.0000 0.0000 1738.3439 -7414.2401 296.7349 -9152.5840 -7379.8334 301.0728 328.9867 351.3300 30612.5110 -211.3130 -163.0003
TCL: Running FEP window  20: Lambda1 0.9500000000000003 Lambda2 1.0    [dLambda 0.04999999999999971]
TCL: Setting parameter firsttimestep to 0
TCL: Setting parameter alchLambda to 0.9500000000000003
Info: NONBONDED TABLE R-SQUARED SPACING: 0.0625
Info: NONBONDED TABLE SIZE: 705 POINTS
TCL: Setting parameter alchLambda2 to 1.0
Info: NONBONDED TABLE R-SQUARED SPACING: 0.0625
Info: NONBONDED TABLE SIZE: 705 POINTS
TCL: Running for 1500000 steps
ETITLE: TS BOND ANGLE DIHED IMPRP ELECT VDW BOUNDARY MISC KINETIC TOTAL TEMP POTENTIAL TOTALAVG TEMPAVG PRESSURE GPRESSURE VOLUME PRESSAVG GPRESSAVG
ENERGY: 0 6.8994 7.2501 4.3113 0.0000 -10687.6480 1516.0923 0.0000 0.0000 1737.4765 -7415.6185 296.5868 -9153.0950 -7415.6185 296.5868 310.2262 381.6254 30612.5110 310.2262 381.6254
ENERGY: 300000 1.8889 14.7210 4.3566 0.0000 -10513.8606 1443.5760 0.0000 0.0000 1765.3313 -7283.9869 301.3416 -9049.3181 -7369.0613 298.6676 500.8303 556.9384 30537.2083 98.1177 173.8036
ENERGY: 600000 1.6101 7.1644 5.0774 0.0000 -10638.1082 1399.1651 0.0000 0.0000 1775.4202 -7449.6710 303.0638 -9225.0912 -7387.1841 301.3623 -576.2807 -546.0907 30516.0794 -19.8535 48.6052
ENERGY: 900000 4.4297 7.6500 3.5278 0.0000 -10538.2699 1403.0720 0.0000 0.0000 1744.9666 -7374.6237 297.8654 -9119.5903 -7376.0807 301.5195 68.4612 109.8945 29809.7448 8.3273 66.5989
ENERGY: 1200000 2.6814 9.6573 4.1998 0.0000 -10626.5018 1366.1674 0.0000 0.0000 1688.7337 -7555.0622 288.2664 -9243.7959 -7391.7345 299.3332 -593.9229 -564.1661 30009.3229 -79.0190 -18.1321
ENERGY: 1500000 2.3190 10.7928 3.7472 0.0000 -10587.4525 1394.7338 0.0000 0.0000 1740.8039 -7435.0559 297.1548 -9175.8598 -7406.9278 298.8516 -106.9819 -27.2421 30149.6565 -89.2326 -30.1267
TCL: Exiting due to exit command.
