Info: SIMULATION PARAMETERS:
Info: TIMESTEP               2
Info: NUMBER OF STEPS        0
Info: STEPS PER CYCLE        10
Info: PERIODIC CELL BASIS 1  31.0811 0 0
Info: PERIODIC CELL BASIS 2  0 30.4152 0
Info: PERIODIC CELL BASIS 3  0 0 32.1366
Info: PERIODIC CELL CENTER   0 0 0
Info: WRAPPING WATERS AROUND PERIODIC BOUNDARIES ON OUTPUT.
Info: WRAPPING ALL CLUSTERS AROUND PERIODIC BOUNDARIES ON OUTPUT.
Info: FIRST LDB TIMESTEP     50
Info: LAST LDB TIMESTEP     -1
Info: HOM BACKGROUND SCALING 1
Info: PME BACKGROUND SCALING 1
Info: MIN ATOMS PER PATCH    40
Info: EMPTY PATCH LOAD       40 ATOMS
Info: VELOCITY FILE          mobley_5692472_equil.vel
Info: CENTER OF MASS MOVING INITIALLY? NO
Info: DIELECTRIC             1
Info: EXCLUDE                SCALED ONE-FOUR
Info: 1-4 ELECTROSTATICS SCALED BY 0.833333
Info: MODIFIED 1-4 VDW PARAMETERS WILL BE USED
Info: DCD FILENAME           mobley_5692472_prod.dcd
Info: DCD FREQUENCY          100000
Info: DCD FIRST STEP         100000
Info: DCD FILE WILL CONTAIN UNIT CELL DATA
Info: XST FILENAME           mobley_5692472_prod.xst
Info: XST FREQUENCY          100000
Info: NO VELOCITY DCD OUTPUT
Info: NO FORCE DCD OUTPUT
Info: OUTPUT FILENAME        mobley_5692472_prod
Info: BINARY OUTPUT FILES WILL BE USED
Info: RESTART FILENAME       mobley_5692472_prod.restart
Info: RESTART FREQUENCY      100000
Info: BINARY RESTART FILES WILL BE USED
Info: CUTOFF                 9
Info: PAIRLIST DISTANCE      11
Info: PAIRLIST SHRINK RATE   0.01
Info: PAIRLIST GROW RATE     0.01
Info: PAIRLIST TRIGGER       0.3
Info: PAIRLISTS PER CYCLE    2
Info: PAIRLISTS ENABLED
Info: MARGIN                 2
Info: HYDROGEN GROUP CUTOFF  2.5
Info: PATCH DIMENSION        15.5
Info: ENERGY OUTPUT STEPS    100000
Info: ENERGY EVALUATION STEPS    100000
Info: OUTPUT ENERGY PRECISION 4
Info: CROSSTERM ENERGY INCLUDED IN DIHEDRAL
Info: TIMING OUTPUT STEPS    1000000
Info: PRESSURE OUTPUT STEPS  100000
Info: ALCHEMICAL FEP ON
Info: FEP CURRENT LAMBDA VALUE     0
Info: FEP COMPARISON LAMBDA VALUE  0.05
Info: FEP INTRA-ALCHEMICAL NON-BONDED INTERACTIONS WILL BE RETAINED
Info: FEP INTRA-ALCHEMICAL BONDED INTERACTIONS WILL BE RETAINED
Info: FEP VDW SHIFTING COEFFICIENT 5
Info: FEP ELEC. ACTIVE FOR ANNIHILATED PARTICLES BETWEEN LAMBDA = 0 AND LAMBDA = 0.5
Info: FEP ELEC. ACTIVE FOR EXNIHILATED PARTICLES BETWEEN LAMBDA = 0.5 AND LAMBDA = 1
Info: FEP VDW ACTIVE FOR ANNIHILATED PARTICLES BETWEEN LAMBDA = 0 AND LAMBDA = 1
Info: FEP VDW ACTIVE FOR EXNIHILATED PARTICLES BETWEEN LAMBDA = 0 AND LAMBDA = 1
Info: FEP BOND ACTIVE FOR ANNIHILATED PARTICLES BETWEEN LAMBDA = 1 AND LAMBDA = 1
Info: FEP BOND ACTIVE FOR EXNIHILATED PARTICLES BETWEEN LAMBDA = 0 AND LAMBDA = 0
Info: LANGEVIN DYNAMICS ACTIVE
Info: LANGEVIN TEMPERATURE   300
Info: LANGEVIN USING BBK INTEGRATOR
Info: LANGEVIN DAMPING COEFFICIENT IS 1 INVERSE PS
Info: LANGEVIN DYNAMICS APPLIED TO HYDROGENS
Info: LANGEVIN PISTON PRESSURE CONTROL ACTIVE
Info:        TARGET PRESSURE IS 1.01325 BAR
Info:     OSCILLATION PERIOD IS 50 FS
Info:             DECAY TIME IS 25 FS
Info:     PISTON TEMPERATURE IS 300 K
Info:       PRESSURE CONTROL IS GROUP-BASED
Info:    INITIAL STRAIN RATE IS -0.000603161 -0.000603161 -0.000603161
Info:       CELL FLUCTUATION IS ISOTROPIC
Info: PARTICLE MESH EWALD (PME) ACTIVE
Info: PME TOLERANCE               1e-06
Info: PME EWALD COEFFICIENT       0.348832
Info: PME INTERPOLATION ORDER     4
Info: PME GRID DIMENSIONS         32 32 36
Info: PME MAXIMUM GRID SPACING    1
Info: PME CALCULATION WILL BE PERFORMED ON GPU
Info: FULL ELECTROSTATIC EVALUATION FREQUENCY      2
Info: USING VERLET I (r-RESPA) MTS SCHEME.
Info: C1 SPLITTING OF LONG RANGE ELECTROSTATICS
Info: PLACING ATOMS IN PATCHES BY HYDROGEN GROUPS
Info: RIGID BONDS TO HYDROGEN : ALL
Info:         ERROR TOLERANCE : 1e-08
Info:          MAX ITERATIONS : 100
Info: RIGID WATER USING SETTLE ALGORITHM
Info: RANDOM NUMBER SEED     1743506499
Info: USE HYDROGEN BONDS?    NO
Info: Using AMBER format force field!
Info: AMBER PARM FILE        mobley_5692472.prmtop
Info: COORDINATE PDB         mobley_5692472.pdb
Info: Exclusions will be read from PARM file!
Info: SCNB (VDW SCALING)     2
Info: USING ARITHMETIC MEAN TO COMBINE L-J SIGMA PARAMETERS
Info: BINARY COORDINATES     mobley_5692472_equil.coor
Info: SUMMARY OF PARAMETERS:
Info: 5 BONDS
Info: 4 ANGLES
Info:   4 HARMONIC
Info:   0 COSINE-BASED
Info: 1 DIHEDRAL
Info: 0 IMPROPER
Info: 0 CROSSTERM
Info: 0 VDW
Info: 21 VDW_PAIRS
Info: 0 NBTHOLE_PAIRS
Info: To read alchdata from file: mobley_5692472.pdb
Info: To read alchflag data from column: 5
Info: STRUCTURE SUMMARY:
Info: 2941 ATOMS
Info: 2940 BONDS
Info: 15 ANGLES
Info: 12 DIHEDRALS
Info: 0 IMPROPERS
Info: 0 CROSSTERMS
Info: 2967 EXCLUSIONS
Info: 2938 RIGID BONDS
Info: ALCH: 0 ATOMS TO DISAPPEAR IN FINAL STATE
Info: ALCH: 10 ATOMS TO APPEAR IN FINAL STATE
Info: 5885 DEGREES OF FREEDOM
Info: 980 HYDROGEN GROUPS
Info: 4 ATOMS IN LARGEST HYDROGEN GROUP
Info: 980 MIGRATION GROUPS
Info: 4 ATOMS IN LARGEST MIGRATION GROUP
Info: TOTAL MASS = 17646.7 amu
Info: TOTAL CHARGE = 7.45058e-09 e
Info: MASS DENSITY = 0.964575 g/cm^3
Info: ATOM DENSITY = 0.0968073 atoms/A^3
Info: ADDED 0 IMPLICIT EXCLUSIONS
Info: NONBONDED TABLE R-SQUARED SPACING: 0.0625
Info: NONBONDED TABLE SIZE: 705 POINTS
Info: REMOVING COM VELOCITY 0.012606 -0.0924573 0.328074
Info: Use 3D box decompostion in PME FFT.
Info: Updated CUDA force table with 4096 elements.
Info: Updated CUDA LJ table with 6 x 6 elements.
Info: Found 13 unique exclusion lists needing 20 bytes
TCL: Running for 1500000 steps
ETITLE: TS BOND ANGLE DIHED IMPRP ELECT VDW BOUNDARY MISC KINETIC TOTAL TEMP POTENTIAL TOTALAVG TEMPAVG PRESSURE GPRESSURE VOLUME PRESSAVG GPRESSAVG
ENERGY: 0 1.0634 5.5585 0.4266 0.0000 -10603.3323 1440.5497 0.0000 0.0000 1721.0218 -7434.7123 294.3271 -9155.7341 -7434.7123 294.3271 171.4957 249.6831 30379.9488 171.4957 249.6831
ENERGY: 300000 1.3470 3.1162 0.7427 0.0000 -10653.2222 1382.3662 0.0000 0.0000 1749.5833 -7516.0669 299.2117 -9265.6502 -7465.2224 302.0919 -483.3145 -430.4396 29702.7884 458.0590 491.7760
ENERGY: 600000 0.0580 5.7991 3.2741 0.0000 -10697.2049 1484.0104 0.0000 0.0000 1746.7962 -7457.2672 298.7350 -9204.0634 -7444.4321 299.7433 270.2604 319.3314 30374.2301 95.3312 139.6535
ENERGY: 900000 0.1616 2.4435 0.6980 0.0000 -10646.0699 1442.5935 0.0000 0.0000 1768.9440 -7431.2293 302.5227 -9200.1733 -7443.2039 299.8250 127.4372 206.6775 30055.3627 33.1341 83.7382
ENERGY: 1200000 0.2518 2.6341 0.8092 0.0000 -10590.3529 1409.4163 0.0000 0.0000 1754.1444 -7423.0970 299.9917 -9177.2415 -7443.2254 299.2751 -138.9946 -99.4034 30416.5980 26.1047 78.1626
ENERGY: 1500000 0.4632 2.7916 0.1495 0.0000 -10515.5623 1350.2283 0.0000 0.0000 1689.5703 -7472.3594 288.9483 -9161.9297 -7447.7529 298.4669 -705.6894 -630.6042 30488.7463 -22.2463 27.5881
TCL: Running FEP window   2: Lambda1 0.05   Lambda2 0.1    [dLambda 0.05  ]
TCL: Setting parameter firsttimestep to 0
TCL: Setting parameter alchLambda to 0.05
Info: NONBONDED TABLE R-SQUARED SPACING: 0.0625
Info: NONBONDED TABLE SIZE: 705 POINTS
TCL: Setting parameter alchLambda2 to 0.1
Info: NONBONDED TABLE R-SQUARED SPACING: 0.0625
Info: NONBONDED TABLE SIZE: 705 POINTS
TCL: Running for 1500000 steps
ETITLE: TS BOND ANGLE DIHED IMPRP ELECT VDW BOUNDARY MISC KINETIC TOTAL TEMP POTENTIAL TOTALAVG TEMPAVG PRESSURE GPRESSURE VOLUME PRESSAVG GPRESSAVG
ENERGY: 0 0.4632 2.7916 0.1495 0.0000 -10515.5629 1351.7278 0.0000 0.0000 1688.7368 -7471.6939 288.8058 -9160.4307 -7471.6939 288.8058 -701.3190 -626.8799 30488.7463 -701.3190 -626.8799
ENERGY: 300000 0.1631 2.3996 0.6013 0.0000 -10618.4671 1442.7401 0.0000 0.0000 1751.0426 -7421.5204 299.4612 -9172.5630 -7441.8336 299.0318 397.1876 477.7775 29896.2212 -128.8855 -67.0297
ENERGY: 600000 1.7268 1.7081 0.5196 0.0000 -10591.9073 1427.8530 0.0000 0.0000 1822.3688 -7337.7310 311.6594 -9160.0997 -7432.5507 303.1601 59.6131 121.0942 30336.5144 -97.3723 -45.2870
ENERGY: 900000 0.4956 6.4375 0.8320 0.0000 -10538.1770 1341.1818 0.0000 0.0000 1742.1391 -7447.0910 297.9386 -9189.2301 -7427.7628 303.0455 -403.5771 -385.4003 30211.9682 -91.7407 -42.6231
ENERGY: 1200000 0.2403 4.8284 1.1974 0.0000 -10665.4162 1431.2190 0.0000 0.0000 1752.5675 -7475.3635 299.7220 -9227.9310 -7441.2177 302.0170 -13.0228 30.0311 30040.5177 -75.3943 -26.0267
ENERGY: 1500000 0.2034 3.6203 1.7203 0.0000 -10614.2109 1435.0230 0.0000 0.0000 1792.6497 -7380.9942 306.5768 -9173.6439 -7440.4827 301.8232 153.8814 209.3898 30090.6865 -73.0761 -18.4057
TCL: Running FEP window   3: Lambda1 0.1    Lambda2 0.15000000000000002 [dLambda 0.05000000000000002]
TCL: Setting parameter firsttimestep to 0
TCL: Setting parameter alchLambda to 0.1
Info: NONBONDED TABLE R-SQUARED SPACING: 0.0625
Info: NONBONDED TABLE SIZE: 705 POINTS
TCL: Setting parameter alchLambda2 to 0.15000000000000002
Info: NONBONDED TABLE R-SQUARED SPACING: 0.0625
Info: NONBONDED TABLE SIZE: 705 POINTS
TCL: Running for 1500000 steps
ETITLE: TS BOND ANGLE DIHED IMPRP ELECT VDW BOUNDARY MISC KINETIC TOTAL TEMP POTENTIAL TOTALAVG TEMPAVG PRESSURE GPRESSURE VOLUME PRESSAVG GPRESSAVG
ENERGY: 0 0.2034 3.6203 1.7203 0.0000 -10614.2117 1436.3517 0.0000 0.0000 1791.7365 -7380.5794 306.4207 -9172.3159 -7380.5794 306.4207 111.9011 214.4522 30090.6865 111.9011 214.4522
ENERGY: 300000 0.1108 1.8043 0.4292 0.0000 -10777.5433 1489.9741 0.0000 0.0000 1727.1063 -7558.1186 295.3677 -9285.2250 -7498.1505 301.1524 163.6542 264.2777 30234.1438 -129.0235 -46.6758
ENERGY: 600000 2.3882 2.8817 0.8067 0.0000 -10605.4353 1416.0749 0.0000 0.0000 1760.7420 -7422.5418 301.1200 -9183.2839 -7496.2801 299.7327 -408.8401 -239.1199 30492.4227 -194.2809 -117.2459
ENERGY: 900000 0.1267 3.9995 0.7734 0.0000 -10799.1818 1511.7558 0.0000 0.0000 1731.1462 -7551.3801 296.0586 -9282.5263 -7487.7842 301.0722 452.8302 518.0561 29897.9842 -182.5540 -104.3368
ENERGY: 1200000 1.3339 6.0862 1.3633 0.0000 -10590.8093 1380.3436 0.0000 0.0000 1756.8231 -7444.8592 300.4498 -9201.6823 -7478.1007 300.8887 -600.3258 -558.0044 30672.0599 -251.6133 -180.8919
ENERGY: 1500000 0.0581 4.5935 1.2200 0.0000 -10778.0872 1483.4446 0.0000 0.0000 1749.8035 -7538.9675 299.2493 -9288.7710 -7487.2757 300.4143 300.5225 436.1126 29755.2502 -187.1693 -113.1595
TCL: Running FEP window   4: Lambda1 0.15000000000000002 Lambda2 0.2    [dLambda 0.04999999999999999]
TCL: Setting parameter firsttimestep to 0
TCL: Setting parameter alchLambda to 0.15000000000000002
Info: NONBONDED TABLE R-SQUARED SPACING: 0.0625
Info: NONBONDED TABLE SIZE: 705 POINTS
TCL: Setting parameter alchLambda2 to 0.2
Info: NONBONDED TABLE R-SQUARED SPACING: 0.0625
Info: NONBONDED TABLE SIZE: 705 POINTS
TCL: Running for 1500000 steps
ETITLE: TS BOND ANGLE DIHED IMPRP ELECT VDW BOUNDARY MISC KINETIC TOTAL TEMP POTENTIAL TOTALAVG TEMPAVG PRESSURE GPRESSURE VOLUME PRESSAVG GPRESSAVG
ENERGY: 0 0.0581 4.5935 1.2200 0.0000 -10778.0862 1483.1302 0.0000 0.0000 1748.9152 -7540.1692 299.0974 -9289.0844 -7540.1692 299.0974 363.3243 437.7138 29755.2502 363.3243 437.7138
ENERGY: 300000 0.3704 3.0740 0.6927 0.0000 -10616.2910 1406.2471 0.0000 0.0000 1750.0295 -7455.8773 299.2880 -9205.9068 -7476.0213 296.5063 32.7031 20.5472 30045.4639 18.4208 62.7881
ENERGY: 600000 0.0766 5.4900 0.2634 0.0000 -10650.7538 1440.4488 0.0000 0.0000 1759.2092 -7445.2659 300.8579 -9204.4750 -7460.7112 299.4928 -95.9345 -29.2549 30344.6584 -93.9710 -40.0547
ENERGY: 900000 0.0682 4.2306 0.8961 0.0000 -10630.9963 1381.3904 0.0000 0.0000 1781.3276 -7463.0833 304.6406 -9244.4109 -7478.8308 298.9777 -656.3018 -571.8050 30461.4240 -256.5256 -201.6806
ENERGY: 1200000 0.2730 3.7462 0.3476 0.0000 -10686.2040 1467.3793 0.0000 0.0000 1749.3825 -7465.0754 299.1773 -9214.4578 -7476.9059 299.4538 234.6070 284.8326 30232.5327 -202.4485 -141.8571
ENERGY: 1500000 0.4769 3.5094 2.3529 0.0000 -10583.7668 1397.2993 0.0000 0.0000 1733.3596 -7446.7686 296.4371 -9180.1283 -7483.7128 298.6279 -5.4733 22.4483 29910.3482 -219.7607 -157.7750
TCL: Running FEP window   5: Lambda1 0.2    Lambda2 0.25   [dLambda 0.04999999999999999]
TCL: Setting parameter firsttimestep to 0
TCL: Setting parameter alchLambda to 0.2
Info: NONBONDED TABLE R-SQUARED SPACING: 0.0625
Info: NONBONDED TABLE SIZE: 705 POINTS
TCL: Setting parameter alchLambda2 to 0.25
Info: NONBONDED TABLE R-SQUARED SPACING: 0.0625
Info: NONBONDED TABLE SIZE: 705 POINTS
TCL: Running for 1500000 steps
ETITLE: TS BOND ANGLE DIHED IMPRP ELECT VDW BOUNDARY MISC KINETIC TOTAL TEMP POTENTIAL TOTALAVG TEMPAVG PRESSURE GPRESSURE VOLUME PRESSAVG GPRESSAVG
ENERGY: 0 0.4769 3.5094 2.3529 0.0000 -10583.7674 1397.7553 0.0000 0.0000 1732.5052 -7447.1677 296.2910 -9179.6729 -7447.1677 296.2910 -50.7572 23.6804 29910.3482 -50.7572 23.6804
ENERGY: 300000 1.6015 3.1386 3.3735 0.0000 -10661.6747 1491.6892 0.0000 0.0000 1742.8202 -7419.0517 298.0551 -9161.8719 -7453.6806 301.1397 570.0075 568.7464 30229.5576 175.4370 234.9078
ENERGY: 600000 1.3317 2.6600 0.4653 0.0000 -10661.9683 1402.1728 0.0000 0.0000 1725.6070 -7529.7316 295.1113 -9255.3386 -7480.2138 299.7512 -507.9263 -368.9343 29920.3960 169.7100 232.8248
ENERGY: 900000 0.0958 5.0676 0.1258 0.0000 -10635.4009 1394.1215 0.0000 0.0000 1748.3780 -7487.6122 299.0056 -9235.9902 -7485.5857 298.9480 -531.9174 -437.9681 30438.8155 232.0876 283.3024
ENERGY: 1200000 0.5832 3.8809 1.2232 0.0000 -10536.0068 1392.2382 0.0000 0.0000 1788.3173 -7349.7639 305.8359 -9138.0812 -7465.0501 300.0800 -246.5764 -189.8375 30733.0846 145.5800 203.9189
ENERGY: 1500000 0.9645 5.5846 1.2678 0.0000 -10657.3271 1501.4062 0.0000 0.0000 1774.6594 -7373.4446 303.5002 -9148.1040 -7465.8829 299.9776 919.5276 981.3589 29827.1951 134.7913 194.0960
TCL: Running FEP window   6: Lambda1 0.25   Lambda2 0.3    [dLambda 0.04999999999999999]
TCL: Setting parameter firsttimestep to 0
TCL: Setting parameter alchLambda to 0.25
Info: NONBONDED TABLE R-SQUARED SPACING: 0.0625
Info: NONBONDED TABLE SIZE: 705 POINTS
TCL: Setting parameter alchLambda2 to 0.3
Info: NONBONDED TABLE R-SQUARED SPACING: 0.0625
Info: NONBONDED TABLE SIZE: 705 POINTS
TCL: Running for 1500000 steps
ETITLE: TS BOND ANGLE DIHED IMPRP ELECT VDW BOUNDARY MISC KINETIC TOTAL TEMP POTENTIAL TOTALAVG TEMPAVG PRESSURE GPRESSURE VOLUME PRESSAVG GPRESSAVG
ENERGY: 0 0.9645 5.5846 1.2678 0.0000 -10657.3263 1501.8619 0.0000 0.0000 1773.8227 -7373.8248 303.3571 -9147.6475 -7373.8248 303.3571 900.5316 981.9971 29827.1951 900.5316 981.9971
ENERGY: 300000 0.2584 2.1713 0.6591 0.0000 -10607.2846 1404.7378 0.0000 0.0000 1722.7270 -7476.7310 294.6187 -9199.4580 -7459.2103 298.2803 -520.4644 -457.6072 30888.6492 207.1451 258.1955
ENERGY: 600000 0.5695 3.6452 0.1456 0.0000 -10706.1514 1440.2318 0.0000 0.0000 1761.6632 -7499.8962 301.2776 -9261.5593 -7490.7373 298.8110 158.1397 185.5824 29654.6350 -59.8831 -9.0145
ENERGY: 900000 0.3960 5.3716 0.7083 0.0000 -10564.7139 1365.8855 0.0000 0.0000 1781.1771 -7411.1756 304.6148 -9192.3527 -7484.8686 299.7170 -422.8485 -326.2211 30016.5366 -37.1318 28.4572
ENERGY: 1200000 0.1133 3.9424 2.2938 0.0000 -10566.3003 1382.2736 0.0000 0.0000 1786.9474 -7390.7298 305.6017 -9177.6773 -7472.0841 299.7018 -422.9140 -434.4086 30805.4384 -84.8686 -26.5083
ENERGY: 1500000 1.7089 2.3429 0.1928 0.0000 -10574.7061 1386.9248 0.0000 0.0000 1788.6115 -7394.9252 305.8862 -9183.5367 -7468.1211 299.9168 -165.9919 -122.3704 30145.1455 -129.4370 -66.0254
TCL: Running FEP window   7: Lambda1 0.3    Lambda2 0.35   [dLambda 0.04999999999999999]
TCL: Setting parameter firsttimestep to 0
TCL: Setting parameter alchLambda to 0.3
Info: NONBONDED TABLE R-SQUARED SPACING: 0.0625
Info: NONBONDED TABLE SIZE: 705 POINTS
TCL: Setting parameter alchLambda2 to 0.35
Info: NONBONDED TABLE R-SQUARED SPACING: 0.0625
Info: NONBONDED TABLE SIZE: 705 POINTS
TCL: Running for 1500000 steps
ETITLE: TS BOND ANGLE DIHED IMPRP ELECT VDW BOUNDARY MISC KINETIC TOTAL TEMP POTENTIAL TOTALAVG TEMPAVG PRESSURE GPRESSURE VOLUME PRESSAVG GPRESSAVG
ENERGY: 0 1.7089 2.3429 0.1928 0.0000 -10574.7064 1387.5465 0.0000 0.0000 1787.7484 -7395.1669 305.7386 -9182.9153 -7395.1669 305.7386 -198.6196 -116.5831 30145.1455 -198.6196 -116.5831
ENERGY: 300000 0.2657 8.2402 1.4489 0.0000 -10598.3471 1366.1030 0.0000 0.0000 1775.6305 -7446.6587 303.6662 -9222.2892 -7441.9801 302.9620 -672.7679 -615.2502 30570.3819 -139.1031 -80.1883
ENERGY: 600000 0.3085 3.6204 0.2108 0.0000 -10594.3588 1449.0022 0.0000 0.0000 1729.4946 -7411.7223 295.7761 -9141.2169 -7446.0711 302.0446 20.4090 113.0311 30953.0440 -120.8928 -42.9099
ENERGY: 900000 0.1775 2.1365 1.4620 0.0000 -10751.2172 1472.6852 0.0000 0.0000 1768.7171 -7506.0389 302.4839 -9274.7560 -7457.6751 302.7671 230.9740 296.7738 30009.2103 -10.8850 69.1488
ENERGY: 1200000 0.4323 3.5080 0.4390 0.0000 -10621.9163 1426.1694 0.0000 0.0000 1802.2880 -7389.0795 308.2252 -9191.3675 -7459.5633 302.9665 191.6681 301.3949 29808.0061 86.0172 171.0298
ENERGY: 1500000 1.5924 2.1238 1.2830 0.0000 -10720.2390 1488.6835 0.0000 0.0000 1782.5291 -7444.0274 304.8460 -9226.5564 -7462.4033 301.9540 153.1885 221.6779 30348.8581 15.3739 100.2314
TCL: Running FEP window   8: Lambda1 0.35   Lambda2 0.39999999999999997 [dLambda 0.04999999999999999]
TCL: Setting parameter firsttimestep to 0
TCL: Setting parameter alchLambda to 0.35
Info: NONBONDED TABLE R-SQUARED SPACING: 0.0625
Info: NONBONDED TABLE SIZE: 705 POINTS
TCL: Setting parameter alchLambda2 to 0.39999999999999997
Info: NONBONDED TABLE R-SQUARED SPACING: 0.0625
Info: NONBONDED TABLE SIZE: 705 POINTS
TCL: Running for 1500000 steps
ETITLE: TS BOND ANGLE DIHED IMPRP ELECT VDW BOUNDARY MISC KINETIC TOTAL TEMP POTENTIAL TOTALAVG TEMPAVG PRESSURE GPRESSURE VOLUME PRESSAVG GPRESSAVG
ENERGY: 0 1.5924 2.1238 1.2830 0.0000 -10720.2392 1488.5343 0.0000 0.0000 1781.6382 -7445.0676 304.6937 -9226.7058 -7445.0676 304.6937 150.4115 224.8001 30348.8581 150.4115 224.8001
ENERGY: 300000 0.5486 5.5590 0.3112 0.0000 -10765.5615 1534.2924 0.0000 0.0000 1791.5344 -7433.3158 306.3861 -9224.8503 -7443.4448 302.4053 826.8367 887.1813 30162.6252 379.7479 442.8653
ENERGY: 600000 0.5639 5.9431 0.6118 0.0000 -10647.2673 1389.4662 0.0000 0.0000 1766.8578 -7483.8245 302.1659 -9250.6823 -7443.5836 302.5679 -536.8312 -432.0834 30446.3297 2.7302 64.4301
ENERGY: 900000 0.4764 3.6794 0.6837 0.0000 -10611.3352 1393.7353 0.0000 0.0000 1723.3861 -7489.3741 294.7315 -9212.7602 -7460.2401 301.6272 -285.6223 -202.8401 30459.2814 14.9781 80.5453
ENERGY: 1200000 2.1198 8.5328 1.8586 0.0000 -10546.2727 1346.0084 0.0000 0.0000 1740.9310 -7446.8221 297.7320 -9187.7531 -7457.0783 301.5274 -820.3436 -740.3991 30473.6242 14.4345 76.0709
ENERGY: 1500000 0.6934 3.8922 0.2264 0.0000 -10608.0301 1428.0617 0.0000 0.0000 1739.3404 -7435.8160 297.4600 -9175.1565 -7451.6071 301.3163 -159.8248 -62.3564 30638.2516 -15.9693 48.4909
TCL: Running FEP window   9: Lambda1 0.39999999999999997 Lambda2 0.44999999999999996 [dLambda 0.04999999999999999]
TCL: Setting parameter firsttimestep to 0
TCL: Setting parameter alchLambda to 0.39999999999999997
Info: NONBONDED TABLE R-SQUARED SPACING: 0.0625
Info: NONBONDED TABLE SIZE: 705 POINTS
TCL: Setting parameter alchLambda2 to 0.44999999999999996
Info: NONBONDED TABLE R-SQUARED SPACING: 0.0625
Info: NONBONDED TABLE SIZE: 705 POINTS
TCL: Running for 1500000 steps
ETITLE: TS BOND ANGLE DIHED IMPRP ELECT VDW BOUNDARY MISC KINETIC TOTAL TEMP POTENTIAL TOTALAVG TEMPAVG PRESSURE GPRESSURE VOLUME PRESSAVG GPRESSAVG
ENERGY: 0 0.6934 3.8922 0.2264 0.0000 -10608.0305 1428.3453 0.0000 0.0000 1738.4735 -7436.3997 297.3117 -9174.8733 -7436.3997 297.3117 -158.2260 -57.6224 30638.2516 -158.2260 -57.6224
ENERGY: 300000 2.7702 2.3196 0.7889 0.0000 -10630.5513 1429.7977 0.0000 0.0000 1772.2425 -7422.6324 303.0868 -9194.8749 -7459.9763 302.0875 -177.1564 -65.9969 30478.9216 -401.8982 -305.4050
ENERGY: 600000 0.4746 3.7353 0.4009 0.0000 -10646.8096 1408.1478 0.0000 0.0000 1731.0240 -7503.0269 296.0377 -9234.0509 -7483.8980 299.9196 -371.8292 -309.5318 30451.5741 -418.5508 -346.9708
ENERGY: 900000 1.0073 3.3257 0.2047 0.0000 -10516.7865 1380.2417 0.0000 0.0000 1804.6568 -7327.3502 308.6303 -9132.0070 -7472.1382 299.9645 -301.3506 -272.9292 30913.8116 -439.7033 -375.9913
ENERGY: 1200000 0.0539 4.4361 0.7709 0.0000 -10618.0094 1434.8621 0.0000 0.0000 1718.7763 -7459.1101 293.9431 -9177.8863 -7463.7874 299.8089 50.7630 92.7736 30295.8054 -419.0805 -354.3696
ENERGY: 1500000 2.1056 6.0022 0.7500 0.0000 -10485.0689 1314.8425 0.0000 0.0000 1739.7671 -7421.6017 297.5329 -9161.3687 -7456.9695 299.9909 -806.6198 -746.6968 30457.8123 -422.3512 -355.5281
TCL: Running FEP window  10: Lambda1 0.44999999999999996 Lambda2 0.49999999999999994 [dLambda 0.04999999999999999]
TCL: Setting parameter firsttimestep to 0
TCL: Setting parameter alchLambda to 0.44999999999999996
Info: NONBONDED TABLE R-SQUARED SPACING: 0.0625
Info: NONBONDED TABLE SIZE: 705 POINTS
TCL: Setting parameter alchLambda2 to 0.49999999999999994
Info: NONBONDED TABLE R-SQUARED SPACING: 0.0625
Info: NONBONDED TABLE SIZE: 705 POINTS
TCL: Running for 1500000 steps
ETITLE: TS BOND ANGLE DIHED IMPRP ELECT VDW BOUNDARY MISC KINETIC TOTAL TEMP POTENTIAL TOTALAVG TEMPAVG PRESSURE GPRESSURE VOLUME PRESSAVG GPRESSAVG
ENERGY: 0 2.1056 6.0022 0.7500 0.0000 -10485.0712 1314.9590 0.0000 0.0000 1738.9052 -7422.3493 297.3855 -9161.2545 -7422.3493 297.3855 -827.0062 -744.0230 30457.8123 -827.0062 -744.0230
ENERGY: 300000 0.3711 3.3739 0.5521 0.0000 -10510.6070 1382.6995 0.0000 0.0000 1767.4405 -7356.1700 302.2656 -9123.6105 -7437.2014 295.3654 -197.9980 -213.1355 30571.2784 -486.7930 -415.5757
ENERGY: 600000 0.5892 4.0739 0.9223 0.0000 -10458.8125 1370.4892 0.0000 0.0000 1753.1427 -7329.5952 299.8204 -9082.7379 -7431.3619 296.0410 -126.9623 -181.6578 30524.7243 -430.7325 -382.2364
ENERGY: 900000 1.9119 4.3336 1.1195 0.0000 -10563.8124 1419.5485 0.0000 0.0000 1748.4464 -7388.4523 299.0173 -9136.8988 -7423.1842 298.4123 400.2320 415.9934 29848.9888 -345.9513 -296.8994
ENERGY: 1200000 0.6278 3.3561 0.2773 0.0000 -10650.0046 1433.8880 0.0000 0.0000 1780.7673 -7431.0881 304.5447 -9211.8554 -7422.1498 299.7904 -58.6762 -59.7072 30427.7324 -367.6283 -319.7124
ENERGY: 1500000 0.1451 4.0676 0.4475 0.0000 -10568.0030 1333.0814 0.0000 0.0000 1774.7647 -7455.4966 303.5182 -9230.2613 -7426.3199 299.6139 -682.9570 -667.1630 30167.7134 -357.0554 -311.6658
TCL: Running FEP window  11: Lambda1 0.49999999999999994 Lambda2 0.5499999999999999 [dLambda 0.04999999999999999]
TCL: Setting parameter firsttimestep to 0
TCL: Setting parameter alchLambda to 0.49999999999999994
Info: NONBONDED TABLE R-SQUARED SPACING: 0.0625
Info: NONBONDED TABLE SIZE: 705 POINTS
TCL: Setting parameter alchLambda2 to 0.5499999999999999
Info: NONBONDED TABLE R-SQUARED SPACING: 0.0625
Info: NONBONDED TABLE SIZE: 705 POINTS
TCL: Running for 1500000 steps
ETITLE: TS BOND ANGLE DIHED IMPRP ELECT VDW BOUNDARY MISC KINETIC TOTAL TEMP POTENTIAL TOTALAVG TEMPAVG PRESSURE GPRESSURE VOLUME PRESSAVG GPRESSAVG
ENERGY: 0 0.1451 4.0676 0.4475 0.0000 -10568.0026 1332.8282 0.0000 0.0000 1773.8962 -7456.6180 303.3696 -9230.5142 -7456.6180 303.3696 -739.6997 -665.0271 30167.7134 -739.6997 -665.0271
ENERGY: 300000 0.4191 4.0541 0.1413 0.0000 -10653.8454 1414.1782 0.0000 0.0000 1728.5086 -7506.5441 295.6075 -9235.0527 -7472.7407 299.2435 -311.6757 -271.1712 30345.1211 -169.5699 -112.7060
ENERGY: 600000 0.4520 2.6548 0.1909 0.0000 -10672.5229 1431.1866 0.0000 0.0000 1737.7089 -7500.3297 297.1809 -9238.0386 -7485.4425 299.6700 24.9814 30.4318 30146.8823 -146.4472 -98.7634
ENERGY: 900000 0.5678 4.4930 0.8426 0.0000 -10629.2784 1462.3916 0.0000 0.0000 1772.8644 -7388.1190 303.1932 -9160.9834 -7472.3729 300.1043 254.2220 299.3199 30553.3878 -158.7185 -111.5472
ENERGY: 1200000 0.1099 2.2052 0.1498 0.0000 -10751.2974 1524.0495 0.0000 0.0000 1729.2956 -7495.4873 295.7421 -9224.7830 -7458.7766 300.2482 860.9539 930.4735 29740.2027 -20.6598 24.1887
ENERGY: 1500000 0.9987 3.8573 0.8733 0.0000 -10561.0697 1397.7626 0.0000 0.0000 1688.2926 -7469.2852 288.7298 -9157.5778 -7462.5789 299.3782 -189.9061 -109.2928 30161.3101 7.5561 56.9546
TCL: Running FEP window  12: Lambda1 0.5499999999999999 Lambda2 0.6    [dLambda 0.050000000000000044]
TCL: Setting parameter firsttimestep to 0
TCL: Setting parameter alchLambda to 0.5499999999999999
Info: NONBONDED TABLE R-SQUARED SPACING: 0.0625
Info: NONBONDED TABLE SIZE: 705 POINTS
TCL: Setting parameter alchLambda2 to 0.6
Info: NONBONDED TABLE R-SQUARED SPACING: 0.0625
Info: NONBONDED TABLE SIZE: 705 POINTS
TCL: Running for 1500000 steps
ETITLE: TS BOND ANGLE DIHED IMPRP ELECT VDW BOUNDARY MISC KINETIC TOTAL TEMP POTENTIAL TOTALAVG TEMPAVG PRESSURE GPRESSURE VOLUME PRESSAVG GPRESSAVG
ENERGY: 0 0.9987 3.8573 0.8733 0.0000 -10561.2020 1398.3730 0.0000 0.0000 1687.3969 -7469.7028 288.5766 -9157.0997 -7469.7028 288.5766 -178.8633 -103.7606 30161.3101 -178.8633 -103.7606
ENERGY: 300000 0.0343 2.1198 0.9208 0.0000 -10621.6282 1411.2313 0.0000 0.0000 1772.9518 -7434.3702 303.2081 -9207.3221 -7461.7733 297.0974 24.3494 94.5306 29814.6551 -134.4554 -55.0611
ENERGY: 600000 0.3378 5.1501 0.2504 0.0000 -10718.1622 1491.9444 0.0000 0.0000 1774.8965 -7445.5830 303.5407 -9220.4794 -7454.1412 297.6590 411.1695 499.1075 29929.4404 161.5515 228.0957
ENERGY: 900000 0.2701 3.0028 1.3107 0.0000 -10652.2774 1412.5052 0.0000 0.0000 1762.0442 -7473.1444 301.3427 -9235.1886 -7471.9072 296.3996 -84.3528 -25.1052 30266.1671 249.9875 317.3705
ENERGY: 1200000 0.8115 7.0280 1.0546 0.0000 -10585.9160 1419.3834 0.0000 0.0000 1743.9738 -7413.6646 298.2524 -9157.6384 -7466.5908 296.5770 -39.5242 11.2873 30678.3509 116.9325 172.7642
ENERGY: 1500000 0.7471 4.1093 0.0667 0.0000 -10716.5746 1482.8201 0.0000 0.0000 1741.6814 -7487.1500 297.8603 -9228.8314 -7468.2675 296.5768 427.6317 466.2956 29993.6578 149.3253 202.6406
TCL: Running FEP window  13: Lambda1 0.6    Lambda2 0.65   [dLambda 0.050000000000000044]
TCL: Setting parameter firsttimestep to 0
TCL: Setting parameter alchLambda to 0.6
Info: NONBONDED TABLE R-SQUARED SPACING: 0.0625
Info: NONBONDED TABLE SIZE: 705 POINTS
TCL: Setting parameter alchLambda2 to 0.65
Info: NONBONDED TABLE R-SQUARED SPACING: 0.0625
Info: NONBONDED TABLE SIZE: 705 POINTS
TCL: Running for 1500000 steps
ETITLE: TS BOND ANGLE DIHED IMPRP ELECT VDW BOUNDARY MISC KINETIC TOTAL TEMP POTENTIAL TOTALAVG TEMPAVG PRESSURE GPRESSURE VOLUME PRESSAVG GPRESSAVG
ENERGY: 0 0.7471 4.1093 0.0667 0.0000 -10716.8875 1482.6950 0.0000 0.0000 1740.8024 -7488.4670 297.7100 -9229.2694 -7488.4670 297.7100 396.1142 467.9540 29993.6578 396.1142 467.9540
ENERGY: 300000 0.3941 6.2123 0.4358 0.0000 -10690.6118 1441.1402 0.0000 0.0000 1769.3774 -7473.0520 302.5968 -9242.4295 -7481.5022 297.6475 126.9635 191.6093 29945.2819 -84.0637 -16.9234
ENERGY: 600000 2.5774 2.9413 1.1668 0.0000 -10613.7578 1344.2238 0.0000 0.0000 1728.0193 -7534.8292 295.5238 -9262.8485 -7487.8502 297.8005 -813.6513 -718.5398 29899.3049 100.6087 179.8143
ENERGY: 900000 0.4147 4.5435 1.6786 0.0000 -10767.7373 1466.7777 0.0000 0.0000 1719.4596 -7574.8632 294.0600 -9294.3228 -7489.0503 298.6739 168.0146 199.5681 29801.8134 46.2052 111.1097
ENERGY: 1200000 0.6703 4.2766 1.1332 0.0000 -10532.6808 1371.7334 0.0000 0.0000 1719.6623 -7435.2049 294.0946 -9154.8672 -7483.5550 298.3573 -515.9325 -477.9439 30663.3541 63.8892 127.0995
ENERGY: 1500000 0.4363 4.7860 0.1899 0.0000 -10529.9288 1387.0994 0.0000 0.0000 1745.8370 -7391.5803 298.5710 -9137.4173 -7472.1556 298.4667 -324.5306 -242.0855 30835.2745 -53.0231 5.7534
TCL: Running FEP window  14: Lambda1 0.65   Lambda2 0.7000000000000001 [dLambda 0.050000000000000044]
TCL: Setting parameter firsttimestep to 0
TCL: Setting parameter alchLambda to 0.65
Info: NONBONDED TABLE R-SQUARED SPACING: 0.0625
Info: NONBONDED TABLE SIZE: 705 POINTS
TCL: Setting parameter alchLambda2 to 0.7000000000000001
Info: NONBONDED TABLE R-SQUARED SPACING: 0.0625
Info: NONBONDED TABLE SIZE: 705 POINTS
TCL: Running for 1500000 steps
ETITLE: TS BOND ANGLE DIHED IMPRP ELECT VDW BOUNDARY MISC KINETIC TOTAL TEMP POTENTIAL TOTALAVG TEMPAVG PRESSURE GPRESSURE VOLUME PRESSAVG GPRESSAVG
ENERGY: 0 0.4363 4.7860 0.1899 0.0000 -10530.8886 1387.0291 0.0000 0.0000 1744.9517 -7393.4956 298.4196 -9138.4473 -7393.4956 298.4196 -318.7836 -238.1833 30835.2745 -318.7836 -238.1833
ENERGY: 300000 5.0415 5.2177 0.5200 0.0000 -10595.9786 1378.8657 0.0000 0.0000 1777.6389 -7428.6949 304.0097 -9206.3338 -7438.4346 298.4608 -456.4314 -410.5956 30353.3653 -234.2959 -193.1134
ENERGY: 600000 0.0241 3.8635 0.5785 0.0000 -10598.6833 1372.1323 0.0000 0.0000 1736.4027 -7485.6821 296.9575 -9222.0848 -7468.4658 298.6445 -441.1759 -395.5277 30206.4098 -289.8523 -232.9446
ENERGY: 900000 0.0751 4.1826 1.9451 0.0000 -10623.4508 1450.0540 0.0000 0.0000 1844.5935 -7322.6006 315.4602 -9167.1940 -7453.1244 300.1299 533.2219 579.7417 30133.8666 -190.1821 -134.3150
ENERGY: 1200000 1.8772 2.5794 0.1758 0.0000 -10692.7067 1440.7696 0.0000 0.0000 1730.7175 -7516.5870 295.9853 -9247.3045 -7455.7713 298.9349 -354.4969 -277.9070 30617.9486 -202.7951 -141.7438
ENERGY: 1500000 0.2977 1.9456 0.6263 0.0000 -10748.3023 1509.6130 0.0000 0.0000 1776.3526 -7459.4671 303.7897 -9235.8197 -7456.3184 299.5673 626.9918 697.0516 30065.5414 -125.8825 -64.6929
TCL: Running FEP window  15: Lambda1 0.7000000000000001 Lambda2 0.7500000000000001 [dLambda 0.050000000000000044]
TCL: Setting parameter firsttimestep to 0
TCL: Setting parameter alchLambda to 0.7000000000000001
Info: NONBONDED TABLE R-SQUARED SPACING: 0.0625
Info: NONBONDED TABLE SIZE: 705 POINTS
TCL: Setting parameter alchLambda2 to 0.7500000000000001
Info: NONBONDED TABLE R-SQUARED SPACING: 0.0625
Info: NONBONDED TABLE SIZE: 705 POINTS
TCL: Running for 1500000 steps
ETITLE: TS BOND ANGLE DIHED IMPRP ELECT VDW BOUNDARY MISC KINETIC TOTAL TEMP POTENTIAL TOTALAVG TEMPAVG PRESSURE GPRESSURE VOLUME PRESSAVG GPRESSAVG
ENERGY: 0 0.2977 1.9456 0.6263 0.0000 -10749.4935 1510.4241 0.0000 0.0000 1775.5289 -7460.6709 303.6489 -9236.1998 -7460.6709 303.6489 634.1605 704.8070 30065.5414 634.1605 704.8070
ENERGY: 300000 0.4041 2.4068 0.0305 0.0000 -10640.9389 1438.5419 0.0000 0.0000 1735.5664 -7463.9891 296.8145 -9199.5556 -7473.2034 297.7391 190.9053 270.5881 30027.8932 239.1512 310.0764
ENERGY: 600000 0.0496 4.7116 0.1765 0.0000 -10714.7225 1528.1605 0.0000 0.0000 1748.7363 -7432.8881 299.0668 -9181.6244 -7465.7595 297.5623 1045.6859 1093.4920 29820.4347 371.5903 435.9998
ENERGY: 900000 0.6427 1.5196 0.5804 0.0000 -10588.0826 1400.3218 0.0000 0.0000 1740.8514 -7444.1668 297.7184 -9185.0182 -7467.7192 298.8382 -337.0289 -319.2722 30888.6567 298.6279 356.7090
ENERGY: 1200000 2.1589 4.0567 0.7256 0.0000 -10575.1373 1413.0808 0.0000 0.0000 1781.0607 -7374.0546 304.5949 -9155.1153 -7452.9012 300.3505 -186.0177 -182.9768 30464.2206 258.1178 307.7172
ENERGY: 1500000 0.3391 2.2719 1.4607 0.0000 -10799.6379 1537.0040 0.0000 0.0000 1732.4118 -7526.1503 296.2750 -9258.5622 -7461.5771 299.5331 461.7895 599.8315 30402.3613 243.2331 305.4155
TCL: Running FEP window  16: Lambda1 0.7500000000000001 Lambda2 0.8000000000000002 [dLambda 0.050000000000000044]
TCL: Setting parameter firsttimestep to 0
TCL: Setting parameter alchLambda to 0.7500000000000001
Info: NONBONDED TABLE R-SQUARED SPACING: 0.0625
Info: NONBONDED TABLE SIZE: 705 POINTS
TCL: Setting parameter alchLambda2 to 0.8000000000000002
Info: NONBONDED TABLE R-SQUARED SPACING: 0.0625
Info: NONBONDED TABLE SIZE: 705 POINTS
TCL: Running for 1500000 steps
ETITLE: TS BOND ANGLE DIHED IMPRP ELECT VDW BOUNDARY MISC KINETIC TOTAL TEMP POTENTIAL TOTALAVG TEMPAVG PRESSURE GPRESSURE VOLUME PRESSAVG GPRESSAVG
ENERGY: 0 0.3391 2.2719 1.4607 0.0000 -10800.4974 1537.1701 0.0000 0.0000 1731.5591 -7527.6964 296.1292 -9259.2555 -7527.6964 296.1292 523.2167 603.1944 30402.3613 523.2167 603.1944
ENERGY: 300000 1.0087 8.0462 0.5525 0.0000 -10607.9781 1410.0591 0.0000 0.0000 1816.9385 -7371.3732 310.7307 -9188.3116 -7455.4691 302.3139 -155.3329 -81.2696 30383.9621 248.2455 322.9463
ENERGY: 600000 0.3646 1.8604 0.7584 0.0000 -10658.0695 1453.3882 0.0000 0.0000 1713.8165 -7487.8814 293.0949 -9201.6979 -7446.6472 300.2554 116.0932 233.0999 30383.8114 91.5723 169.8638
ENERGY: 900000 0.1107 5.7319 0.5989 0.0000 -10583.7052 1406.3898 0.0000 0.0000 1779.8292 -7391.0447 304.3843 -9170.8739 -7442.2357 301.3861 -169.5800 -105.9205 30469.0390 -44.3672 29.8523
ENERGY: 1200000 0.3699 4.4921 0.5544 0.0000 -10689.7632 1500.8037 0.0000 0.0000 1753.6924 -7429.8506 299.9144 -9183.5430 -7444.5280 300.9179 489.3642 601.3706 30221.7449 -15.3893 57.5277
ENERGY: 1500000 0.5043 5.1776 0.5567 0.0000 -10531.2658 1357.2607 0.0000 0.0000 1715.4068 -7452.3597 293.3669 -9167.7665 -7451.7609 299.9234 -454.0454 -467.6003 30241.8076 -63.0838 2.1549
TCL: Running FEP window  17: Lambda1 0.8000000000000002 Lambda2 0.8500000000000002 [dLambda 0.050000000000000044]
TCL: Setting parameter firsttimestep to 0
TCL: Setting parameter alchLambda to 0.8000000000000002
Info: NONBONDED TABLE R-SQUARED SPACING: 0.0625
Info: NONBONDED TABLE SIZE: 705 POINTS
TCL: Setting parameter alchLambda2 to 0.8500000000000002
Info: NONBONDED TABLE R-SQUARED SPACING: 0.0625
Info: NONBONDED TABLE SIZE: 705 POINTS
TCL: Running for 1500000 steps
ETITLE: TS BOND ANGLE DIHED IMPRP ELECT VDW BOUNDARY MISC KINETIC TOTAL TEMP POTENTIAL TOTALAVG TEMPAVG PRESSURE GPRESSURE VOLUME PRESSAVG GPRESSAVG
ENERGY: 0 0.5043 5.1776 0.5567 0.0000 -10533.3543 1358.3174 0.0000 0.0000 1714.5351 -7454.2633 293.2178 -9168.7984 -7454.2633 293.2178 -548.9978 -458.0605 30241.8076 -548.9978 -458.0605
ENERGY: 300000 0.0650 2.4141 0.7546 0.0000 -10573.0129 1390.2848 0.0000 0.0000 1759.2104 -7420.2839 300.8581 -9179.4943 -7428.9457 301.3762 -7.6745 -17.1548 30156.7487 -242.5229 -182.7897
ENERGY: 600000 1.0384 5.0709 0.5146 0.0000 -10789.5849 1536.5693 0.0000 0.0000 1726.1341 -7520.2575 295.2014 -9246.3916 -7476.0181 297.9329 589.1092 625.2000 30265.8198 -217.0776 -156.9740
ENERGY: 900000 0.3163 3.8420 0.2309 0.0000 -10581.9294 1351.9465 0.0000 0.0000 1722.6194 -7502.9744 294.6003 -9225.5938 -7474.4682 298.1833 -581.3534 -510.4489 30252.1369 -160.6577 -99.8413
ENERGY: 1200000 0.3064 4.3901 1.9875 0.0000 -10508.8964 1365.8639 0.0000 0.0000 1734.0569 -7402.2916 296.5564 -9136.3485 -7464.8191 297.9901 -400.3572 -316.7498 30469.1370 -137.1016 -70.2986
ENERGY: 1500000 0.3867 4.1350 0.8542 0.0000 -10481.4987 1310.9023 0.0000 0.0000 1722.2303 -7442.9902 294.5338 -9165.2204 -7467.9428 297.9424 -929.9114 -819.1413 30412.7319 -138.0460 -67.6866
TCL: Running FEP window  18: Lambda1 0.8500000000000002 Lambda2 0.9000000000000002 [dLambda 0.050000000000000044]
TCL: Setting parameter firsttimestep to 0
TCL: Setting parameter alchLambda to 0.8500000000000002
Info: NONBONDED TABLE R-SQUARED SPACING: 0.0625
Info: NONBONDED TABLE SIZE: 705 POINTS
TCL: Setting parameter alchLambda2 to 0.9000000000000002
Info: NONBONDED TABLE R-SQUARED SPACING: 0.0625
Info: NONBONDED TABLE SIZE: 705 POINTS
TCL: Running for 1500000 steps
ETITLE: TS BOND ANGLE DIHED IMPRP ELECT VDW BOUNDARY MISC KINETIC TOTAL TEMP POTENTIAL TOTALAVG TEMPAVG PRESSURE GPRESSURE VOLUME PRESSAVG GPRESSAVG
ENERGY: 0 0.3867 4.1350 0.8542 0.0000 -10482.1296 1310.9437 0.0000 0.0000 1721.3563 -7444.4536 294.3843 -9165.8099 -7444.4536 294.3843 -900.7220 -813.3181 30412.7319 -900.7220 -813.3181
ENERGY: 300000 0.1925 3.0656 0.2407 0.0000 -10683.8554 1469.8052 0.0000 0.0000 1748.2299 -7462.3215 298.9802 -9210.5514 -7457.1385 298.3165 236.9902 283.4741 30330.3807 -325.2926 -248.3116
ENERGY: 600000 0.5444 5.8705 1.0943 0.0000 -10813.6230 1555.3229 0.0000 0.0000 1739.4023 -7511.3885 297.4705 -9250.7908 -7459.6681 297.8825 960.1534 1019.6586 29965.0329 -30.5724 44.8802
ENERGY: 900000 0.2897 3.4556 0.8940 0.0000 -10535.7060 1401.9606 0.0000 0.0000 1706.9890 -7422.1172 291.9273 -9129.1062 -7464.8096 297.6787 27.0166 61.9097 30489.5759 25.0624 91.1534
ENERGY: 1200000 0.5296 2.9627 0.4877 0.0000 -10706.9098 1399.9134 0.0000 0.0000 1752.9085 -7550.1079 299.7804 -9303.0165 -7479.5586 297.9274 -366.7927 -307.4047 29956.3553 -18.9045 44.0885
ENERGY: 1500000 0.2622 2.6901 0.8097 0.0000 -10660.3803 1463.5715 0.0000 0.0000 1772.7763 -7420.2707 303.1781 -9193.0469 -7472.0783 298.7268 321.3896 437.1329 30075.5335 -46.9294 23.0579
TCL: Running FEP window  19: Lambda1 0.9000000000000002 Lambda2 0.9500000000000003 [dLambda 0.050000000000000044]
TCL: Setting parameter firsttimestep to 0
TCL: Setting parameter alchLambda to 0.9000000000000002
Info: NONBONDED TABLE R-SQUARED SPACING: 0.0625
Info: NONBONDED TABLE SIZE: 705 POINTS
TCL: Setting parameter alchLambda2 to 0.9500000000000003
Info: NONBONDED TABLE R-SQUARED SPACING: 0.0625
Info: NONBONDED TABLE SIZE: 705 POINTS
TCL: Running for 1500000 steps
ETITLE: TS BOND ANGLE DIHED IMPRP ELECT VDW BOUNDARY MISC KINETIC TOTAL TEMP POTENTIAL TOTALAVG TEMPAVG PRESSURE GPRESSURE VOLUME PRESSAVG GPRESSAVG
ENERGY: 0 0.2622 2.6901 0.8097 0.0000 -10661.0815 1464.1144 0.0000 0.0000 1771.9072 -7421.2981 303.0295 -9193.2053 -7421.2981 303.0295 359.7369 453.8766 30075.5335 359.7369 453.8766
ENERGY: 300000 0.2283 4.0242 0.6798 0.0000 -10653.9930 1507.3107 0.0000 0.0000 1792.4920 -7349.2579 306.5499 -9141.7499 -7426.1104 302.7945 971.2191 1048.3664 29809.9789 -54.3532 15.5713
ENERGY: 600000 0.2749 5.3369 1.7773 0.0000 -10542.4092 1385.5927 0.0000 0.0000 1776.6498 -7372.7775 303.8406 -9149.4274 -7443.0410 302.2632 -400.4804 -326.7499 30656.6437 -62.0059 10.4599
ENERGY: 900000 0.1979 2.6485 0.2543 0.0000 -10602.9278 1388.0608 0.0000 0.0000 1804.1874 -7407.5789 308.5500 -9211.7663 -7430.2415 303.9609 -287.0805 -212.1048 30406.7916 -149.8022 -90.1966
ENERGY: 1200000 0.6543 3.4538 0.2899 0.0000 -10652.8626 1413.8756 0.0000 0.0000 1702.1230 -7532.4660 291.0951 -9234.5890 -7446.6142 302.4569 -127.0816 -83.7401 30037.5683 -117.9404 -60.6522
ENERGY: 1500000 0.0735 6.7979 0.5552 0.0000 -10621.5763 1457.0254 0.0000 0.0000 1791.0708 -7366.0534 306.3068 -9157.1242 -7443.5749 303.0205 453.8449 513.3804 30162.3033 -50.0423 2.3687
TCL: Running FEP window  20: Lambda1 0.9500000000000003 Lambda2 1.0    [dLambda 0.04999999999999971]
TCL: Setting parameter firsttimestep to 0
TCL: Setting parameter alchLambda to 0.9500000000000003
Info: NONBONDED TABLE R-SQUARED SPACING: 0.0625
Info: NONBONDED TABLE SIZE: 705 POINTS
TCL: Setting parameter alchLambda2 to 1.0
Info: NONBONDED TABLE R-SQUARED SPACING: 0.0625
Info: NONBONDED TABLE SIZE: 705 POINTS
TCL: Running for 1500000 steps
ETITLE: TS BOND ANGLE DIHED IMPRP ELECT VDW BOUNDARY MISC KINETIC TOTAL TEMP POTENTIAL TOTALAVG TEMPAVG PRESSURE GPRESSURE VOLUME PRESSAVG GPRESSAVG
ENERGY: 0 0.0735 6.7979 0.5552 0.0000 -10622.8285 1457.6166 0.0000 0.0000 1790.1695 -7367.6158 306.1527 -9157.7853 -7367.6158 306.1527 436.2715 520.7510 30162.3033 436.2715 520.7510
ENERGY: 300000 0.3030 5.0618 0.0621 0.0000 -10664.1007 1402.5804 0.0000 0.0000 1672.2884 -7583.8049 285.9928 -9256.0933 -7483.4888 297.5103 -183.8629 -198.9564 30280.9253 363.3972 392.8998
ENERGY: 600000 0.1309 2.6587 0.7293 0.0000 -10606.5120 1337.2030 0.0000 0.0000 1677.8888 -7587.9013 286.9506 -9265.7902 -7505.4407 296.9253 -1004.3396 -941.4227 30398.3172 0.5891 41.6458
ENERGY: 900000 0.0901 6.8338 0.1828 0.0000 -10683.9267 1408.2085 0.0000 0.0000 1800.3519 -7468.2597 307.8941 -9268.6115 -7517.1996 297.2026 -290.0520 -308.8979 30356.2438 32.9645 72.1139
ENERGY: 1200000 0.3045 4.2154 0.2340 0.0000 -10633.3307 1382.4130 0.0000 0.0000 1782.5995 -7463.5644 304.8581 -9246.1638 -7513.5082 297.5163 -378.6580 -371.4252 30444.0237 -8.6522 25.3092
ENERGY: 1500000 1.2704 2.8918 0.2260 0.0000 -10532.7188 1384.2690 0.0000 0.0000 1720.1491 -7423.9125 294.1779 -9144.0616 -7503.4563 297.3418 -395.9534 -330.7800 31055.9436 -59.3962 -21.6106
TCL: Exiting due to exit command.
