Info: SIMULATION PARAMETERS:
Info: TIMESTEP               2
Info: NUMBER OF STEPS        0
Info: STEPS PER CYCLE        10
Info: PERIODIC CELL BASIS 1  32.9606 0 0
Info: PERIODIC CELL BASIS 2  0 30.2095 0
Info: PERIODIC CELL BASIS 3  0 0 30.3955
Info: PERIODIC CELL CENTER   0 0 0
Info: WRAPPING WATERS AROUND PERIODIC BOUNDARIES ON OUTPUT.
Info: WRAPPING ALL CLUSTERS AROUND PERIODIC BOUNDARIES ON OUTPUT.
Info: FIRST LDB TIMESTEP     50
Info: LAST LDB TIMESTEP     -1
Info: HOM BACKGROUND SCALING 1
Info: PME BACKGROUND SCALING 1
Info: MIN ATOMS PER PATCH    40
Info: EMPTY PATCH LOAD       40 ATOMS
Info: VELOCITY FILE          mobley_8052240_equil.vel
Info: CENTER OF MASS MOVING INITIALLY? NO
Info: DIELECTRIC             1
Info: EXCLUDE                SCALED ONE-FOUR
Info: 1-4 ELECTROSTATICS SCALED BY 0.833333
Info: MODIFIED 1-4 VDW PARAMETERS WILL BE USED
Info: DCD FILENAME           mobley_8052240_prod.dcd
Info: DCD FREQUENCY          100000
Info: DCD FIRST STEP         100000
Info: DCD FILE WILL CONTAIN UNIT CELL DATA
Info: XST FILENAME           mobley_8052240_prod.xst
Info: XST FREQUENCY          100000
Info: NO VELOCITY DCD OUTPUT
Info: NO FORCE DCD OUTPUT
Info: OUTPUT FILENAME        mobley_8052240_prod
Info: BINARY OUTPUT FILES WILL BE USED
Info: RESTART FILENAME       mobley_8052240_prod.restart
Info: RESTART FREQUENCY      100000
Info: BINARY RESTART FILES WILL BE USED
Info: CUTOFF                 9
Info: PAIRLIST DISTANCE      11
Info: PAIRLIST SHRINK RATE   0.01
Info: PAIRLIST GROW RATE     0.01
Info: PAIRLIST TRIGGER       0.3
Info: PAIRLISTS PER CYCLE    2
Info: PAIRLISTS ENABLED
Info: MARGIN                 2
Info: HYDROGEN GROUP CUTOFF  2.5
Info: PATCH DIMENSION        15.5
Info: ENERGY OUTPUT STEPS    100000
Info: ENERGY EVALUATION STEPS    100000
Info: OUTPUT ENERGY PRECISION 4
Info: CROSSTERM ENERGY INCLUDED IN DIHEDRAL
Info: TIMING OUTPUT STEPS    1000000
Info: PRESSURE OUTPUT STEPS  100000
Info: ALCHEMICAL FEP ON
Info: FEP CURRENT LAMBDA VALUE     0
Info: FEP COMPARISON LAMBDA VALUE  0.05
Info: FEP INTRA-ALCHEMICAL NON-BONDED INTERACTIONS WILL BE RETAINED
Info: FEP INTRA-ALCHEMICAL BONDED INTERACTIONS WILL BE RETAINED
Info: FEP VDW SHIFTING COEFFICIENT 5
Info: FEP ELEC. ACTIVE FOR ANNIHILATED PARTICLES BETWEEN LAMBDA = 0 AND LAMBDA = 0.5
Info: FEP ELEC. ACTIVE FOR EXNIHILATED PARTICLES BETWEEN LAMBDA = 0.5 AND LAMBDA = 1
Info: FEP VDW ACTIVE FOR ANNIHILATED PARTICLES BETWEEN LAMBDA = 0 AND LAMBDA = 1
Info: FEP VDW ACTIVE FOR EXNIHILATED PARTICLES BETWEEN LAMBDA = 0 AND LAMBDA = 1
Info: FEP BOND ACTIVE FOR ANNIHILATED PARTICLES BETWEEN LAMBDA = 1 AND LAMBDA = 1
Info: FEP BOND ACTIVE FOR EXNIHILATED PARTICLES BETWEEN LAMBDA = 0 AND LAMBDA = 0
Info: LANGEVIN DYNAMICS ACTIVE
Info: LANGEVIN TEMPERATURE   300
Info: LANGEVIN USING BBK INTEGRATOR
Info: LANGEVIN DAMPING COEFFICIENT IS 1 INVERSE PS
Info: LANGEVIN DYNAMICS APPLIED TO HYDROGENS
Info: LANGEVIN PISTON PRESSURE CONTROL ACTIVE
Info:        TARGET PRESSURE IS 1.01325 BAR
Info:     OSCILLATION PERIOD IS 50 FS
Info:             DECAY TIME IS 25 FS
Info:     PISTON TEMPERATURE IS 300 K
Info:       PRESSURE CONTROL IS GROUP-BASED
Info:    INITIAL STRAIN RATE IS 0.000152823 0.000152823 0.000152823
Info:       CELL FLUCTUATION IS ISOTROPIC
Info: PARTICLE MESH EWALD (PME) ACTIVE
Info: PME TOLERANCE               1e-06
Info: PME EWALD COEFFICIENT       0.348832
Info: PME INTERPOLATION ORDER     4
Info: PME GRID DIMENSIONS         36 32 32
Info: PME MAXIMUM GRID SPACING    1
Info: PME CALCULATION WILL BE PERFORMED ON GPU
Info: FULL ELECTROSTATIC EVALUATION FREQUENCY      2
Info: USING VERLET I (r-RESPA) MTS SCHEME.
Info: C1 SPLITTING OF LONG RANGE ELECTROSTATICS
Info: PLACING ATOMS IN PATCHES BY HYDROGEN GROUPS
Info: RIGID BONDS TO HYDROGEN : ALL
Info:         ERROR TOLERANCE : 1e-08
Info:          MAX ITERATIONS : 100
Info: RIGID WATER USING SETTLE ALGORITHM
Info: RANDOM NUMBER SEED     1743662844
Info: USE HYDROGEN BONDS?    NO
Info: Using AMBER format force field!
Info: AMBER PARM FILE        mobley_8052240.prmtop
Info: COORDINATE PDB         mobley_8052240.pdb
Info: Exclusions will be read from PARM file!
Info: SCNB (VDW SCALING)     2
Info: USING ARITHMETIC MEAN TO COMBINE L-J SIGMA PARAMETERS
Info: BINARY COORDINATES     mobley_8052240_equil.coor
Info: SUMMARY OF PARAMETERS:
Info: 8 BONDS
Info: 8 ANGLES
Info:   8 HARMONIC
Info:   0 COSINE-BASED
Info: 5 DIHEDRAL
Info: 0 IMPROPER
Info: 0 CROSSTERM
Info: 0 VDW
Info: 28 VDW_PAIRS
Info: 0 NBTHOLE_PAIRS
Info: To read alchdata from file: mobley_8052240.pdb
Info: To read alchflag data from column: 5
Info: STRUCTURE SUMMARY:
Info: 2945 ATOMS
Info: 2947 BONDS
Info: 45 ANGLES
Info: 83 DIHEDRALS
Info: 0 IMPROPERS
Info: 0 CROSSTERMS
Info: 3051 EXCLUSIONS
Info: 2928 RIGID BONDS
Info: ALCH: 0 ATOMS TO DISAPPEAR IN FINAL STATE
Info: ALCH: 26 ATOMS TO APPEAR IN FINAL STATE
Info: 5907 DEGREES OF FREEDOM
Info: 990 HYDROGEN GROUPS
Info: 3 ATOMS IN LARGEST HYDROGEN GROUP
Info: 990 MIGRATION GROUPS
Info: 3 ATOMS IN LARGEST MIGRATION GROUP
Info: TOTAL MASS = 17752.8 amu
Info: TOTAL CHARGE = 2.23517e-08 e
Info: MASS DENSITY = 0.974044 g/cm^3
Info: ATOM DENSITY = 0.0973057 atoms/A^3
Info: ADDED 0 IMPLICIT EXCLUSIONS
Info: NONBONDED TABLE R-SQUARED SPACING: 0.0625
Info: NONBONDED TABLE SIZE: 705 POINTS
Info: REMOVING COM VELOCITY -0.284273 0.164521 0.0771895
Info: Use 3D box decompostion in PME FFT.
Info: Updated CUDA force table with 4096 elements.
Info: Updated CUDA LJ table with 7 x 7 elements.
Info: Found 26 unique exclusion lists needing 84 bytes
TCL: Running for 1500000 steps
ETITLE: TS BOND ANGLE DIHED IMPRP ELECT VDW BOUNDARY MISC KINETIC TOTAL TEMP POTENTIAL TOTALAVG TEMPAVG PRESSURE GPRESSURE VOLUME PRESSAVG GPRESSAVG
ENERGY: 0 5.3781 5.4272 6.8983 0.0000 -10552.2924 1413.0618 0.0000 0.0000 1796.1500 -7325.3770 306.0314 -9121.5270 -7325.3770 306.0314 42.8359 114.0237 30265.4488 42.8359 114.0237
ENERGY: 300000 9.4059 6.3303 4.8998 0.0000 -10687.9786 1522.5410 0.0000 0.0000 1739.3796 -7405.4220 296.3588 -9144.8016 -7379.5959 301.1026 305.0811 419.9147 30202.0985 30.4100 76.8765
ENERGY: 600000 10.6291 7.3706 8.6183 0.0000 -10664.8209 1494.6005 0.0000 0.0000 1755.4144 -7388.1880 299.0908 -9143.6024 -7384.3502 301.0308 453.0341 539.0252 30028.0531 153.1119 194.3639
ENERGY: 900000 9.7662 6.6490 10.4631 0.0000 -10766.7431 1548.1692 0.0000 0.0000 1714.9805 -7476.7151 292.2016 -9191.6956 -7412.0129 299.7135 892.7174 935.3213 29561.0783 21.7828 69.9869
ENERGY: 1200000 5.9950 4.2824 8.1099 0.0000 -10537.3446 1396.3903 0.0000 0.0000 1698.9873 -7423.5796 289.4767 -9122.5669 -7410.0789 299.1324 -215.8169 -151.3718 30102.5528 -26.0369 31.5438
ENERGY: 1500000 6.2594 8.5588 6.3831 0.0000 -10535.6466 1351.0371 0.0000 0.0000 1764.3039 -7399.1043 300.6054 -9163.4082 -7419.3321 298.4176 -970.3727 -934.2371 30644.6315 -80.4299 -22.7585
TCL: Running FEP window   2: Lambda1 0.05   Lambda2 0.1    [dLambda 0.05  ]
TCL: Setting parameter firsttimestep to 0
TCL: Setting parameter alchLambda to 0.05
Info: NONBONDED TABLE R-SQUARED SPACING: 0.0625
Info: NONBONDED TABLE SIZE: 705 POINTS
TCL: Setting parameter alchLambda2 to 0.1
Info: NONBONDED TABLE R-SQUARED SPACING: 0.0625
Info: NONBONDED TABLE SIZE: 705 POINTS
TCL: Running for 1500000 steps
ETITLE: TS BOND ANGLE DIHED IMPRP ELECT VDW BOUNDARY MISC KINETIC TOTAL TEMP POTENTIAL TOTALAVG TEMPAVG PRESSURE GPRESSURE VOLUME PRESSAVG GPRESSAVG
ENERGY: 0 6.2594 8.5588 6.3831 0.0000 -10535.6473 1354.4645 0.0000 0.0000 1763.4683 -7396.5132 300.4630 -9159.9815 -7396.5132 300.4630 -1005.1097 -926.8970 30644.6315 -1005.1097 -926.8970
ENERGY: 300000 3.8175 6.6553 5.1898 0.0000 -10562.7025 1406.2314 0.0000 0.0000 1708.1399 -7432.6686 291.0361 -9140.8085 -7404.5649 300.0599 -7.4685 122.9551 29896.8005 -255.2144 -200.8001
ENERGY: 600000 3.9567 6.9472 11.0246 0.0000 -10643.6368 1482.5897 0.0000 0.0000 1756.5775 -7382.5410 299.2890 -9139.1185 -7417.7976 297.8933 409.8900 459.3703 30133.4749 -134.8884 -76.5588
ENERGY: 900000 8.7774 6.5959 5.8455 0.0000 -10546.7347 1368.4624 0.0000 0.0000 1775.3739 -7381.6796 302.4915 -9157.0535 -7426.5264 297.7366 -590.6933 -549.5270 30603.0770 -316.0146 -259.0542
ENERGY: 1200000 5.3149 5.6072 5.1450 0.0000 -10689.3445 1439.1971 0.0000 0.0000 1713.2263 -7520.8540 291.9027 -9234.0803 -7426.1358 298.1479 -261.4523 -223.2667 30058.6089 -211.5071 -159.9505
ENERGY: 1500000 11.1545 8.9515 7.6381 0.0000 -10519.5511 1359.8745 0.0000 0.0000 1773.6519 -7358.2807 302.1981 -9131.9325 -7427.4807 297.7858 -849.5395 -715.2680 30133.6503 -290.0280 -233.8573
TCL: Running FEP window   3: Lambda1 0.1    Lambda2 0.15000000000000002 [dLambda 0.05000000000000002]
TCL: Setting parameter firsttimestep to 0
TCL: Setting parameter alchLambda to 0.1
Info: NONBONDED TABLE R-SQUARED SPACING: 0.0625
Info: NONBONDED TABLE SIZE: 705 POINTS
TCL: Setting parameter alchLambda2 to 0.15000000000000002
Info: NONBONDED TABLE R-SQUARED SPACING: 0.0625
Info: NONBONDED TABLE SIZE: 705 POINTS
TCL: Running for 1500000 steps
ETITLE: TS BOND ANGLE DIHED IMPRP ELECT VDW BOUNDARY MISC KINETIC TOTAL TEMP POTENTIAL TOTALAVG TEMPAVG PRESSURE GPRESSURE VOLUME PRESSAVG GPRESSAVG
ENERGY: 0 11.1545 8.9515 7.6381 0.0000 -10519.5514 1363.1109 0.0000 0.0000 1772.8100 -7355.8864 302.0547 -9128.6964 -7355.8864 302.0547 -787.4994 -703.3970 30133.6503 -787.4994 -703.3970
ENERGY: 300000 4.8947 7.7054 6.8862 0.0000 -10574.5357 1334.6204 0.0000 0.0000 1742.8428 -7477.5863 296.9488 -9220.4290 -7420.5281 299.3577 -1114.0255 -1053.6110 30189.8110 -503.9323 -427.2565
ENERGY: 600000 7.5743 5.8336 9.3515 0.0000 -10484.4755 1336.6641 0.0000 0.0000 1683.2099 -7441.8421 286.7885 -9125.0521 -7420.9721 295.8772 -1066.4807 -1040.1402 30791.9361 -567.2895 -492.7348
ENERGY: 900000 5.8762 8.8063 8.5622 0.0000 -10633.1892 1478.3640 0.0000 0.0000 1770.6324 -7360.9481 301.6837 -9131.5805 -7422.0450 296.5073 285.3347 369.6137 30447.1502 -496.5683 -426.1098
ENERGY: 1200000 6.8671 7.6186 6.5743 0.0000 -10588.9264 1405.4399 0.0000 0.0000 1743.2863 -7419.1403 297.0244 -9162.4265 -7418.2790 297.0988 -14.7130 15.2945 29795.4905 -313.2369 -246.4318
ENERGY: 1500000 5.9787 7.1629 5.9061 0.0000 -10493.0440 1369.3361 0.0000 0.0000 1735.6653 -7368.9949 295.7259 -9104.6602 -7421.6499 297.1106 -813.0990 -780.7711 30511.0192 -293.0130 -230.6785
TCL: Running FEP window   4: Lambda1 0.15000000000000002 Lambda2 0.2    [dLambda 0.04999999999999999]
TCL: Setting parameter firsttimestep to 0
TCL: Setting parameter alchLambda to 0.15000000000000002
Info: NONBONDED TABLE R-SQUARED SPACING: 0.0625
Info: NONBONDED TABLE SIZE: 705 POINTS
TCL: Setting parameter alchLambda2 to 0.2
Info: NONBONDED TABLE R-SQUARED SPACING: 0.0625
Info: NONBONDED TABLE SIZE: 705 POINTS
TCL: Running for 1500000 steps
ETITLE: TS BOND ANGLE DIHED IMPRP ELECT VDW BOUNDARY MISC KINETIC TOTAL TEMP POTENTIAL TOTALAVG TEMPAVG PRESSURE GPRESSURE VOLUME PRESSAVG GPRESSAVG
ENERGY: 0 5.9787 7.1629 5.9061 0.0000 -10493.0442 1369.4780 0.0000 0.0000 1734.7963 -7369.7222 295.5779 -9104.5185 -7369.7222 295.5779 -854.4700 -774.9087 30511.0192 -854.4700 -774.9087
ENERGY: 300000 7.4348 4.9276 7.4147 0.0000 -10595.6935 1428.8125 0.0000 0.0000 1729.7359 -7417.3680 294.7157 -9147.1039 -7449.6418 297.7902 -262.3116 -177.8651 30137.0533 -248.1640 -178.5082
ENERGY: 600000 4.3361 7.5135 11.3576 0.0000 -10732.0388 1504.3918 0.0000 0.0000 1774.1466 -7430.2933 302.2824 -9204.4399 -7432.8960 299.6111 607.3911 636.3276 29707.5078 136.8407 197.0175
ENERGY: 900000 8.5444 11.1948 5.9863 0.0000 -10682.5707 1427.4144 0.0000 0.0000 1811.9895 -7417.4414 308.7302 -9229.4308 -7426.3828 299.7489 -491.0205 -457.0188 30160.8173 60.2021 120.0092
ENERGY: 1200000 5.7682 7.8203 8.9637 0.0000 -10628.4698 1428.5514 0.0000 0.0000 1744.4718 -7432.8945 297.2264 -9177.3663 -7426.2079 299.5681 -86.1877 36.4856 29858.1061 -0.3795 71.0815
ENERGY: 1500000 8.3142 5.8007 11.6449 0.0000 -10706.5271 1412.4202 0.0000 0.0000 1816.6726 -7451.6745 309.5281 -9268.3471 -7430.3338 300.0706 -244.1145 -221.2149 29768.1588 -17.6814 48.6961
TCL: Running FEP window   5: Lambda1 0.2    Lambda2 0.25   [dLambda 0.04999999999999999]
TCL: Setting parameter firsttimestep to 0
TCL: Setting parameter alchLambda to 0.2
Info: NONBONDED TABLE R-SQUARED SPACING: 0.0625
Info: NONBONDED TABLE SIZE: 705 POINTS
TCL: Setting parameter alchLambda2 to 0.25
Info: NONBONDED TABLE R-SQUARED SPACING: 0.0625
Info: NONBONDED TABLE SIZE: 705 POINTS
TCL: Running for 1500000 steps
ETITLE: TS BOND ANGLE DIHED IMPRP ELECT VDW BOUNDARY MISC KINETIC TOTAL TEMP POTENTIAL TOTALAVG TEMPAVG PRESSURE GPRESSURE VOLUME PRESSAVG GPRESSAVG
ENERGY: 0 8.3141 5.8007 11.6449 0.0000 -10706.5283 1412.2537 0.0000 0.0000 1815.8289 -7452.6859 309.3844 -9268.5148 -7452.6859 309.3844 -297.5678 -215.7335 29768.1588 -297.5678 -215.7335
ENERGY: 300000 7.2795 6.7355 4.7989 0.0000 -10578.4538 1387.0408 0.0000 0.0000 1734.8872 -7437.7119 295.5933 -9172.5991 -7452.6510 303.4489 -580.8982 -493.4106 30060.0315 -3.9750 58.8516
ENERGY: 600000 10.1670 4.2629 9.8873 0.0000 -10543.3581 1385.2145 0.0000 0.0000 1824.5385 -7309.2880 310.8683 -9133.8265 -7415.7725 302.9281 -494.0157 -432.0981 30405.5673 -78.7562 -16.7157
ENERGY: 900000 10.2082 7.5387 9.4849 0.0000 -10681.3075 1437.8171 0.0000 0.0000 1788.7888 -7427.4698 304.7772 -9216.2586 -7415.6435 303.0991 -274.5756 -187.1174 30029.7194 -161.6273 -93.8245
ENERGY: 1200000 4.3963 5.2086 8.2613 0.0000 -10581.9994 1439.1974 0.0000 0.0000 1721.9596 -7402.9762 293.3907 -9124.9357 -7407.5856 301.5228 12.3701 67.6403 30408.2012 -174.0989 -106.7684
ENERGY: 1500000 6.4339 8.4998 7.2277 0.0000 -10629.6059 1368.5912 0.0000 0.0000 1765.7815 -7473.0720 300.8572 -9238.8534 -7416.7954 301.8370 -1025.4356 -892.4085 30403.1999 -131.3400 -59.9574
TCL: Running FEP window   6: Lambda1 0.25   Lambda2 0.3    [dLambda 0.04999999999999999]
TCL: Setting parameter firsttimestep to 0
TCL: Setting parameter alchLambda to 0.25
Info: NONBONDED TABLE R-SQUARED SPACING: 0.0625
Info: NONBONDED TABLE SIZE: 705 POINTS
TCL: Setting parameter alchLambda2 to 0.3
Info: NONBONDED TABLE R-SQUARED SPACING: 0.0625
Info: NONBONDED TABLE SIZE: 705 POINTS
TCL: Running for 1500000 steps
ETITLE: TS BOND ANGLE DIHED IMPRP ELECT VDW BOUNDARY MISC KINETIC TOTAL TEMP POTENTIAL TOTALAVG TEMPAVG PRESSURE GPRESSURE VOLUME PRESSAVG GPRESSAVG
ENERGY: 0 6.4339 8.4998 7.2277 0.0000 -10629.6057 1368.4080 0.0000 0.0000 1764.9059 -7474.1305 300.7080 -9239.0363 -7474.1305 300.7080 -967.2462 -888.0596 30403.1999 -967.2462 -888.0596
ENERGY: 300000 4.9038 9.7746 8.8142 0.0000 -10815.7256 1550.2335 0.0000 0.0000 1780.1608 -7461.8387 303.3071 -9241.9995 -7457.1779 298.6423 756.5168 810.5741 29969.8974 56.8232 101.6043
ENERGY: 600000 8.7539 9.2996 5.3352 0.0000 -10697.3946 1497.9001 0.0000 0.0000 1738.4406 -7437.6652 296.1988 -9176.1058 -7464.7324 298.0499 555.8238 617.3280 30036.2572 120.6833 167.7208
ENERGY: 900000 8.4985 10.5126 9.1147 0.0000 -10570.6253 1384.9158 0.0000 0.0000 1796.7891 -7360.7947 306.1403 -9157.5838 -7463.8415 297.5164 -521.8003 -482.9961 30135.7852 -102.3206 -54.1372
ENERGY: 1200000 9.3468 6.7280 5.0378 0.0000 -10665.0967 1451.1082 0.0000 0.0000 1762.7394 -7430.1364 300.3389 -9192.8758 -7465.4000 297.7231 -20.9443 34.8829 30228.7674 -12.0226 38.3391
ENERGY: 1500000 8.0552 6.2457 9.6669 0.0000 -10670.7892 1505.2911 0.0000 0.0000 1751.5036 -7390.0266 298.4245 -9141.5303 -7445.8674 298.5601 508.3318 597.7220 30036.0596 -51.0686 6.3812
TCL: Running FEP window   7: Lambda1 0.3    Lambda2 0.35   [dLambda 0.04999999999999999]
TCL: Setting parameter firsttimestep to 0
TCL: Setting parameter alchLambda to 0.3
Info: NONBONDED TABLE R-SQUARED SPACING: 0.0625
Info: NONBONDED TABLE SIZE: 705 POINTS
TCL: Setting parameter alchLambda2 to 0.35
Info: NONBONDED TABLE R-SQUARED SPACING: 0.0625
Info: NONBONDED TABLE SIZE: 705 POINTS
TCL: Running for 1500000 steps
ETITLE: TS BOND ANGLE DIHED IMPRP ELECT VDW BOUNDARY MISC KINETIC TOTAL TEMP POTENTIAL TOTALAVG TEMPAVG PRESSURE GPRESSURE VOLUME PRESSAVG GPRESSAVG
ENERGY: 0 8.0552 6.2457 9.6669 0.0000 -10670.7895 1506.2781 0.0000 0.0000 1750.5784 -7389.9652 298.2668 -9140.5436 -7389.9652 298.2668 515.9319 610.5971 30036.0596 515.9319 610.5971
ENERGY: 300000 7.4335 6.1019 6.5065 0.0000 -10525.4948 1377.8257 0.0000 0.0000 1793.0274 -7334.5997 305.4994 -9127.6272 -7355.8198 305.0181 -480.5729 -460.3596 30345.5464 398.3525 454.8428
ENERGY: 600000 8.0026 6.6919 10.4314 0.0000 -10578.3982 1418.8141 0.0000 0.0000 1760.1620 -7374.2963 299.8997 -9134.4583 -7368.5944 303.5976 -179.9850 -67.5537 30154.2091 77.2329 137.2087
ENERGY: 900000 7.5958 13.2067 6.4574 0.0000 -10503.4600 1354.8575 0.0000 0.0000 1777.5788 -7343.7639 302.8672 -9121.3426 -7387.2336 301.8440 -537.5779 -460.1521 30293.3992 33.7432 93.8133
ENERGY: 1200000 8.5638 5.2135 5.5886 0.0000 -10545.8665 1346.0176 0.0000 0.0000 1730.9384 -7449.5445 294.9205 -9180.4829 -7386.7748 301.2897 -862.2359 -798.9555 30360.2962 3.7822 64.4017
ENERGY: 1500000 8.1460 7.6753 4.3515 0.0000 -10575.6027 1443.2078 0.0000 0.0000 1776.2965 -7335.9256 302.6487 -9112.2221 -7392.3978 300.6157 59.4380 70.2883 30254.6249 4.7993 57.1813
TCL: Running FEP window   8: Lambda1 0.35   Lambda2 0.39999999999999997 [dLambda 0.04999999999999999]
TCL: Setting parameter firsttimestep to 0
TCL: Setting parameter alchLambda to 0.35
Info: NONBONDED TABLE R-SQUARED SPACING: 0.0625
Info: NONBONDED TABLE SIZE: 705 POINTS
TCL: Setting parameter alchLambda2 to 0.39999999999999997
Info: NONBONDED TABLE R-SQUARED SPACING: 0.0625
Info: NONBONDED TABLE SIZE: 705 POINTS
TCL: Running for 1500000 steps
ETITLE: TS BOND ANGLE DIHED IMPRP ELECT VDW BOUNDARY MISC KINETIC TOTAL TEMP POTENTIAL TOTALAVG TEMPAVG PRESSURE GPRESSURE VOLUME PRESSAVG GPRESSAVG
ENERGY: 0 8.1460 7.6753 4.3515 0.0000 -10575.6026 1442.6572 0.0000 0.0000 1775.3655 -7337.4072 302.4901 -9112.7727 -7337.4072 302.4901 -3.4557 72.1315 30254.6249 -3.4557 72.1315
ENERGY: 300000 5.2404 8.5614 6.0956 0.0000 -10754.2642 1470.7880 0.0000 0.0000 1738.0417 -7525.5372 296.1308 -9263.5789 -7424.7654 298.9856 -15.0890 61.4227 30028.4573 123.1631 186.5424
ENERGY: 600000 7.9055 5.9458 6.6268 0.0000 -10566.7076 1395.5459 0.0000 0.0000 1706.1558 -7444.5278 290.6980 -9150.6837 -7421.2074 298.1987 -483.7420 -407.4035 30545.8024 -116.3237 -51.7190
ENERGY: 900000 4.8125 6.8495 5.8854 0.0000 -10668.5897 1435.3897 0.0000 0.0000 1743.0022 -7472.6504 296.9760 -9215.6526 -7419.6453 299.3725 -111.7596 -14.5244 30223.3350 -198.3186 -130.6090
ENERGY: 1200000 11.3238 10.0996 11.2021 0.0000 -10531.9227 1418.2221 0.0000 0.0000 1777.1737 -7303.9014 302.7982 -9081.0751 -7405.3448 299.6199 -31.0860 -41.3375 30353.2896 -247.1656 -190.6560
ENERGY: 1500000 7.8073 4.1738 7.8542 0.0000 -10669.3951 1478.2633 0.0000 0.0000 1758.4988 -7412.7978 299.6163 -9171.2966 -7404.8960 299.7084 211.3857 252.2919 30327.1876 -195.3866 -138.8540
TCL: Running FEP window   9: Lambda1 0.39999999999999997 Lambda2 0.44999999999999996 [dLambda 0.04999999999999999]
TCL: Setting parameter firsttimestep to 0
TCL: Setting parameter alchLambda to 0.39999999999999997
Info: NONBONDED TABLE R-SQUARED SPACING: 0.0625
Info: NONBONDED TABLE SIZE: 705 POINTS
TCL: Setting parameter alchLambda2 to 0.44999999999999996
Info: NONBONDED TABLE R-SQUARED SPACING: 0.0625
Info: NONBONDED TABLE SIZE: 705 POINTS
TCL: Running for 1500000 steps
ETITLE: TS BOND ANGLE DIHED IMPRP ELECT VDW BOUNDARY MISC KINETIC TOTAL TEMP POTENTIAL TOTALAVG TEMPAVG PRESSURE GPRESSURE VOLUME PRESSAVG GPRESSAVG
ENERGY: 0 7.8073 4.1738 7.8542 0.0000 -10669.3950 1477.9832 0.0000 0.0000 1757.5958 -7413.9808 299.4625 -9171.5765 -7413.9808 299.4625 179.2577 259.1781 30327.1876 179.2577 259.1781
ENERGY: 300000 6.9613 9.4057 8.6649 0.0000 -10563.9763 1399.1910 0.0000 0.0000 1778.4287 -7361.3247 303.0120 -9139.7534 -7432.8153 301.7021 -544.7163 -444.3254 30585.2188 -163.5542 -50.0264
ENERGY: 600000 6.2535 8.6996 7.6405 0.0000 -10644.1002 1414.0353 0.0000 0.0000 1748.7238 -7458.7475 297.9509 -9207.4713 -7438.5715 300.8538 -179.8928 -152.8877 30166.4876 54.2890 141.7817
ENERGY: 900000 8.6801 7.2196 9.8064 0.0000 -10585.3527 1370.5529 0.0000 0.0000 1826.0055 -7363.0883 311.1183 -9189.0938 -7437.0876 300.6305 -514.4225 -506.9052 29971.7619 -1.7486 65.3284
ENERGY: 1200000 5.1888 5.0546 7.4818 0.0000 -10622.6646 1456.7174 0.0000 0.0000 1777.9754 -7370.2466 302.9348 -9148.2220 -7438.7422 299.9298 301.6638 387.3305 30254.5607 -23.2609 49.0195
ENERGY: 1500000 5.6100 6.7184 5.7586 0.0000 -10767.2902 1501.9164 0.0000 0.0000 1853.1839 -7394.1030 315.7490 -9247.2869 -7438.5620 301.4284 272.2454 293.6854 30245.7768 -7.3333 60.6965
TCL: Running FEP window  10: Lambda1 0.44999999999999996 Lambda2 0.49999999999999994 [dLambda 0.04999999999999999]
TCL: Setting parameter firsttimestep to 0
TCL: Setting parameter alchLambda to 0.44999999999999996
Info: NONBONDED TABLE R-SQUARED SPACING: 0.0625
Info: NONBONDED TABLE SIZE: 705 POINTS
TCL: Setting parameter alchLambda2 to 0.49999999999999994
Info: NONBONDED TABLE R-SQUARED SPACING: 0.0625
Info: NONBONDED TABLE SIZE: 705 POINTS
TCL: Running for 1500000 steps
ETITLE: TS BOND ANGLE DIHED IMPRP ELECT VDW BOUNDARY MISC KINETIC TOTAL TEMP POTENTIAL TOTALAVG TEMPAVG PRESSURE GPRESSURE VOLUME PRESSAVG GPRESSAVG
ENERGY: 0 5.6100 6.7184 5.7586 0.0000 -10767.2896 1501.5507 0.0000 0.0000 1852.3198 -7395.3322 315.6017 -9247.6520 -7395.3322 315.6017 226.2175 302.4475 30245.7768 226.2175 302.4475
ENERGY: 300000 9.5171 5.2868 6.2636 0.0000 -10624.3914 1428.3873 0.0000 0.0000 1734.7587 -7440.1779 295.5715 -9174.9366 -7410.7714 303.9233 438.2876 452.5446 29634.7666 95.9850 138.7672
ENERGY: 600000 6.2630 5.9663 4.0633 0.0000 -10578.8191 1395.5359 0.0000 0.0000 1763.0816 -7403.9090 300.3972 -9166.9906 -7427.8244 300.0583 -240.1979 -237.2278 30037.0652 -31.3601 7.3751
ENERGY: 900000 7.6042 4.8032 9.7037 0.0000 -10585.1988 1387.8972 0.0000 0.0000 1741.4904 -7433.7001 296.7184 -9175.1906 -7406.7766 300.9021 -569.8568 -528.1787 30236.8713 -153.8481 -110.0886
ENERGY: 1200000 5.0849 3.4060 10.2892 0.0000 -10570.2680 1435.9504 0.0000 0.0000 1764.1288 -7351.4087 300.5756 -9115.5375 -7409.4409 301.1240 -41.4771 5.1866 30269.9108 -102.1401 -55.5948
ENERGY: 1500000 8.6866 5.2101 8.8895 0.0000 -10674.1496 1493.8637 0.0000 0.0000 1799.1549 -7358.3448 306.5434 -9157.4997 -7410.1356 301.4551 883.4793 924.8080 30104.1854 -81.6965 -28.9057
TCL: Running FEP window  11: Lambda1 0.49999999999999994 Lambda2 0.5499999999999999 [dLambda 0.04999999999999999]
TCL: Setting parameter firsttimestep to 0
TCL: Setting parameter alchLambda to 0.49999999999999994
Info: NONBONDED TABLE R-SQUARED SPACING: 0.0625
Info: NONBONDED TABLE SIZE: 705 POINTS
TCL: Setting parameter alchLambda2 to 0.5499999999999999
Info: NONBONDED TABLE R-SQUARED SPACING: 0.0625
Info: NONBONDED TABLE SIZE: 705 POINTS
TCL: Running for 1500000 steps
ETITLE: TS BOND ANGLE DIHED IMPRP ELECT VDW BOUNDARY MISC KINETIC TOTAL TEMP POTENTIAL TOTALAVG TEMPAVG PRESSURE GPRESSURE VOLUME PRESSAVG GPRESSAVG
ENERGY: 0 8.6866 5.2101 8.8895 0.0000 -10674.1502 1494.0083 0.0000 0.0000 1798.2806 -7359.0752 306.3944 -9157.3558 -7359.0752 306.3944 864.0930 937.9523 30104.1854 864.0930 937.9523
ENERGY: 300000 7.6135 4.9696 7.6052 0.0000 -10750.7169 1558.4480 0.0000 0.0000 1731.1826 -7440.8979 294.9622 -9172.0805 -7393.3597 299.2679 969.0003 982.5800 30264.1431 636.3749 675.0639
ENERGY: 600000 6.3887 7.6878 10.6194 0.0000 -10676.1195 1453.7255 0.0000 0.0000 1754.7218 -7442.9763 298.9728 -9197.6981 -7413.9115 298.6913 279.3538 380.5335 30114.6711 243.6036 303.6521
ENERGY: 900000 6.3647 8.8497 4.5456 0.0000 -10704.4594 1410.8840 0.0000 0.0000 1763.9819 -7509.8335 300.5506 -9273.8154 -7426.1403 298.6397 -271.3946 -192.1857 30010.3593 129.5349 199.6110
ENERGY: 1200000 6.9468 12.4887 10.5541 0.0000 -10806.0322 1550.9834 0.0000 0.0000 1761.5389 -7463.5204 300.1343 -9225.0592 -7432.5855 298.6725 838.6042 880.7797 29886.5057 206.3977 275.5067
ENERGY: 1500000 9.4330 6.9433 8.8176 0.0000 -10686.8895 1464.4831 0.0000 0.0000 1724.9151 -7472.2975 293.8943 -9197.2126 -7430.0192 299.0940 -53.5036 2.0630 30841.4531 173.9305 235.9837
TCL: Running FEP window  12: Lambda1 0.5499999999999999 Lambda2 0.6    [dLambda 0.050000000000000044]
TCL: Setting parameter firsttimestep to 0
TCL: Setting parameter alchLambda to 0.5499999999999999
Info: NONBONDED TABLE R-SQUARED SPACING: 0.0625
Info: NONBONDED TABLE SIZE: 705 POINTS
TCL: Setting parameter alchLambda2 to 0.6
Info: NONBONDED TABLE R-SQUARED SPACING: 0.0625
Info: NONBONDED TABLE SIZE: 705 POINTS
TCL: Running for 1500000 steps
ETITLE: TS BOND ANGLE DIHED IMPRP ELECT VDW BOUNDARY MISC KINETIC TOTAL TEMP POTENTIAL TOTALAVG TEMPAVG PRESSURE GPRESSURE VOLUME PRESSAVG GPRESSAVG
ENERGY: 0 9.4330 6.9433 8.8176 0.0000 -10686.6389 1464.8334 0.0000 0.0000 1724.0368 -7472.5748 293.7446 -9196.6115 -7472.5748 293.7446 -74.6541 17.1727 30841.4531 -74.6541 17.1727
ENERGY: 300000 7.2490 5.9402 8.3271 0.0000 -10612.3871 1456.0680 0.0000 0.0000 1737.1010 -7397.7018 295.9705 -9134.8028 -7406.1295 297.0538 345.5112 403.4006 30045.6112 -91.8514 -49.5213
ENERGY: 600000 9.7774 10.6617 5.3054 0.0000 -10664.4369 1421.8889 0.0000 0.0000 1846.3402 -7370.4634 314.5829 -9216.8036 -7389.6208 299.9753 -312.3652 -277.9481 30213.6710 -246.0472 -197.8055
ENERGY: 900000 8.8247 7.4069 5.5107 0.0000 -10539.9432 1426.0078 0.0000 0.0000 1730.0620 -7362.1313 294.7712 -9092.1932 -7387.6058 299.2998 -170.4867 -87.5006 30386.1552 -244.5997 -180.4869
ENERGY: 1200000 6.3949 8.2543 9.9865 0.0000 -10625.9470 1342.6027 0.0000 0.0000 1757.6689 -7501.0398 299.4749 -9258.7087 -7406.7577 298.5093 -1119.6353 -1005.5094 30232.0463 -221.7277 -154.2851
ENERGY: 1500000 11.5213 7.1621 5.4675 0.0000 -10440.2318 1339.2114 0.0000 0.0000 1746.5901 -7330.2794 297.5873 -9076.8696 -7402.8968 299.0930 -683.5852 -565.2318 30483.2051 -247.3671 -181.4142
TCL: Running FEP window  13: Lambda1 0.6    Lambda2 0.65   [dLambda 0.050000000000000044]
TCL: Setting parameter firsttimestep to 0
TCL: Setting parameter alchLambda to 0.6
Info: NONBONDED TABLE R-SQUARED SPACING: 0.0625
Info: NONBONDED TABLE SIZE: 705 POINTS
TCL: Setting parameter alchLambda2 to 0.65
Info: NONBONDED TABLE R-SQUARED SPACING: 0.0625
Info: NONBONDED TABLE SIZE: 705 POINTS
TCL: Running for 1500000 steps
ETITLE: TS BOND ANGLE DIHED IMPRP ELECT VDW BOUNDARY MISC KINETIC TOTAL TEMP POTENTIAL TOTALAVG TEMPAVG PRESSURE GPRESSURE VOLUME PRESSAVG GPRESSAVG
ENERGY: 0 11.5213 7.1621 5.4675 0.0000 -10441.5488 1339.3433 0.0000 0.0000 1745.6945 -7332.3602 297.4347 -9078.0547 -7332.3602 297.4347 -634.2907 -553.2389 30483.2051 -634.2907 -553.2389
ENERGY: 300000 8.4653 10.1784 4.5449 0.0000 -10737.4549 1462.6614 0.0000 0.0000 1807.8395 -7443.7653 308.0231 -9251.6048 -7425.0360 298.3560 -30.4508 59.8570 30525.9207 -139.2041 -60.9519
ENERGY: 600000 7.6327 4.9486 13.1277 0.0000 -10499.6427 1306.3081 0.0000 0.0000 1739.0399 -7428.5858 296.3009 -9167.6257 -7400.7987 298.3094 -1008.1998 -971.2163 30138.1193 -393.2793 -326.4630
ENERGY: 900000 9.6891 8.8810 14.0336 0.0000 -10614.4945 1383.9739 0.0000 0.0000 1774.0680 -7423.8488 302.2690 -9197.9168 -7418.8936 298.6229 -705.0125 -617.7214 30487.2020 -398.9264 -334.1604
ENERGY: 1200000 9.6425 6.3126 6.1559 0.0000 -10524.5563 1391.5090 0.0000 0.0000 1782.7833 -7328.1531 303.7540 -9110.9364 -7412.1623 298.6651 -51.9583 31.1308 30171.9998 -340.7152 -267.9733
ENERGY: 1500000 7.3381 6.6482 4.5443 0.0000 -10650.9761 1496.7700 0.0000 0.0000 1817.9519 -7317.7236 309.7461 -9135.6754 -7408.1985 298.9337 1198.6041 1195.1686 30185.3196 -147.8884 -87.1001
TCL: Running FEP window  14: Lambda1 0.65   Lambda2 0.7000000000000001 [dLambda 0.050000000000000044]
TCL: Setting parameter firsttimestep to 0
TCL: Setting parameter alchLambda to 0.65
Info: NONBONDED TABLE R-SQUARED SPACING: 0.0625
Info: NONBONDED TABLE SIZE: 705 POINTS
TCL: Setting parameter alchLambda2 to 0.7000000000000001
Info: NONBONDED TABLE R-SQUARED SPACING: 0.0625
Info: NONBONDED TABLE SIZE: 705 POINTS
TCL: Running for 1500000 steps
ETITLE: TS BOND ANGLE DIHED IMPRP ELECT VDW BOUNDARY MISC KINETIC TOTAL TEMP POTENTIAL TOTALAVG TEMPAVG PRESSURE GPRESSURE VOLUME PRESSAVG GPRESSAVG
ENERGY: 0 7.3381 6.6482 4.5443 0.0000 -10652.1600 1496.2069 0.0000 0.0000 1817.1008 -7320.3217 309.6011 -9137.4225 -7320.3217 309.6011 1117.7588 1204.3100 30185.3196 1117.7588 1204.3100
ENERGY: 300000 4.9898 9.3356 4.3232 0.0000 -10648.1146 1410.0172 0.0000 0.0000 1798.1249 -7421.3239 306.3679 -9219.4488 -7382.2433 305.5862 -380.6427 -361.0433 30489.9106 114.2123 169.8182
ENERGY: 600000 5.1623 9.5049 5.9268 0.0000 -10591.4977 1317.4979 0.0000 0.0000 1700.8001 -7552.6058 289.7855 -9253.4059 -7416.8673 303.2568 -1231.7350 -1175.7948 30156.6806 -168.9728 -104.0762
ENERGY: 900000 6.5193 12.2945 8.1747 0.0000 -10641.4309 1511.1517 0.0000 0.0000 1747.1064 -7356.1843 297.6753 -9103.2907 -7409.8634 301.8606 647.2516 671.4086 30483.1999 -112.4989 -47.6672
ENERGY: 1200000 6.6238 11.0227 9.9557 0.0000 -10625.2505 1419.4336 0.0000 0.0000 1750.4144 -7427.8003 298.2389 -9178.2147 -7414.8459 300.8073 -15.6491 -12.2192 30334.1197 -57.1930 2.9821
ENERGY: 1500000 5.1634 6.4460 9.2781 0.0000 -10726.1362 1474.7243 0.0000 0.0000 1800.3955 -7430.1290 306.7548 -9230.5244 -7415.5032 301.0256 528.4679 565.0770 29933.7718 -11.2801 49.5053
TCL: Running FEP window  15: Lambda1 0.7000000000000001 Lambda2 0.7500000000000001 [dLambda 0.050000000000000044]
TCL: Setting parameter firsttimestep to 0
TCL: Setting parameter alchLambda to 0.7000000000000001
Info: NONBONDED TABLE R-SQUARED SPACING: 0.0625
Info: NONBONDED TABLE SIZE: 705 POINTS
TCL: Setting parameter alchLambda2 to 0.7500000000000001
Info: NONBONDED TABLE R-SQUARED SPACING: 0.0625
Info: NONBONDED TABLE SIZE: 705 POINTS
TCL: Running for 1500000 steps
ETITLE: TS BOND ANGLE DIHED IMPRP ELECT VDW BOUNDARY MISC KINETIC TOTAL TEMP POTENTIAL TOTALAVG TEMPAVG PRESSURE GPRESSURE VOLUME PRESSAVG GPRESSAVG
ENERGY: 0 5.1635 6.4460 9.2781 0.0000 -10727.1578 1474.0464 0.0000 0.0000 1799.5833 -7432.6406 306.6164 -9232.2240 -7432.6406 306.6164 485.9616 568.6640 29933.7718 485.9616 568.6640
ENERGY: 300000 7.6638 4.8164 5.1039 0.0000 -10771.0523 1486.4610 0.0000 0.0000 1776.8061 -7490.2010 302.7356 -9267.0071 -7429.5590 301.1541 218.2469 273.3292 30053.6288 165.2511 257.8787
ENERGY: 600000 8.6491 10.2649 4.6549 0.0000 -10644.7814 1436.4011 0.0000 0.0000 1731.7768 -7453.0346 295.0634 -9184.8114 -7448.9599 300.9442 -211.7643 -184.5592 30614.2357 103.9521 181.1010
ENERGY: 900000 8.9065 5.6187 7.3114 0.0000 -10745.9163 1539.6880 0.0000 0.0000 1761.7663 -7422.6255 300.1731 -9184.3918 -7431.8338 301.3326 401.3240 428.4699 30610.7624 -43.6922 37.0201
ENERGY: 1200000 6.3784 7.0212 9.1455 0.0000 -10636.2755 1406.4262 0.0000 0.0000 1745.7182 -7461.5860 297.4388 -9207.3042 -7418.0422 302.5251 -189.2288 -107.1010 30365.3226 -15.1834 64.1320
ENERGY: 1500000 6.8201 7.1289 6.6827 0.0000 -10589.6592 1411.1625 0.0000 0.0000 1708.5163 -7449.3487 291.1002 -9157.8650 -7418.2127 301.6379 -227.6636 -188.0556 30359.3161 -69.1881 6.0536
TCL: Running FEP window  16: Lambda1 0.7500000000000001 Lambda2 0.8000000000000002 [dLambda 0.050000000000000044]
TCL: Setting parameter firsttimestep to 0
TCL: Setting parameter alchLambda to 0.7500000000000001
Info: NONBONDED TABLE R-SQUARED SPACING: 0.0625
Info: NONBONDED TABLE SIZE: 705 POINTS
TCL: Setting parameter alchLambda2 to 0.8000000000000002
Info: NONBONDED TABLE R-SQUARED SPACING: 0.0625
Info: NONBONDED TABLE SIZE: 705 POINTS
TCL: Running for 1500000 steps
ETITLE: TS BOND ANGLE DIHED IMPRP ELECT VDW BOUNDARY MISC KINETIC TOTAL TEMP POTENTIAL TOTALAVG TEMPAVG PRESSURE GPRESSURE VOLUME PRESSAVG GPRESSAVG
ENERGY: 0 6.8201 7.1289 6.6827 0.0000 -10592.0281 1411.4598 0.0000 0.0000 1707.6310 -7452.3057 290.9494 -9159.9367 -7452.3057 290.9494 -260.5934 -175.7851 30359.3161 -260.5934 -175.7851
ENERGY: 300000 8.9070 8.7527 9.1118 0.0000 -10784.2954 1586.8030 0.0000 0.0000 1782.1716 -7388.5493 303.6498 -9170.7208 -7408.7626 295.2137 1397.3711 1462.7643 30149.8879 -74.7026 8.5375
ENERGY: 600000 5.6302 8.0203 11.2766 0.0000 -10507.4565 1314.4328 0.0000 0.0000 1746.0251 -7422.0715 297.4910 -9168.0966 -7416.4928 296.8082 -806.5783 -794.5314 30266.5921 -189.1444 -132.4365
ENERGY: 900000 5.4624 3.7294 9.5102 0.0000 -10575.2834 1418.6898 0.0000 0.0000 1842.3721 -7295.5195 313.9068 -9137.8916 -7415.0553 298.1420 92.4022 193.7718 30151.4881 -40.7649 17.4232
ENERGY: 1200000 9.1650 8.7481 9.5964 0.0000 -10674.3764 1475.5250 0.0000 0.0000 1785.5465 -7385.7954 304.2248 -9171.3418 -7427.3086 298.3703 102.3086 165.6835 30499.6975 1.9237 66.4137
ENERGY: 1500000 5.3838 4.6096 10.2439 0.0000 -10632.7491 1477.1022 0.0000 0.0000 1720.8758 -7414.5339 293.2061 -9135.4097 -7429.4058 298.6873 514.5056 602.5148 30078.8255 48.8462 115.9024
TCL: Running FEP window  17: Lambda1 0.8000000000000002 Lambda2 0.8500000000000002 [dLambda 0.050000000000000044]
TCL: Setting parameter firsttimestep to 0
TCL: Setting parameter alchLambda to 0.8000000000000002
Info: NONBONDED TABLE R-SQUARED SPACING: 0.0625
Info: NONBONDED TABLE SIZE: 705 POINTS
TCL: Setting parameter alchLambda2 to 0.8500000000000002
Info: NONBONDED TABLE R-SQUARED SPACING: 0.0625
Info: NONBONDED TABLE SIZE: 705 POINTS
TCL: Running for 1500000 steps
ETITLE: TS BOND ANGLE DIHED IMPRP ELECT VDW BOUNDARY MISC KINETIC TOTAL TEMP POTENTIAL TOTALAVG TEMPAVG PRESSURE GPRESSURE VOLUME PRESSAVG GPRESSAVG
ENERGY: 0 5.3838 4.6096 10.2439 0.0000 -10634.5802 1476.8090 0.0000 0.0000 1720.0462 -7417.4877 293.0647 -9137.5339 -7417.4877 293.0647 537.0872 610.5969 30078.8255 537.0872 610.5969
ENERGY: 300000 8.4637 7.8997 4.0726 0.0000 -10596.8299 1401.5955 0.0000 0.0000 1757.5907 -7417.2077 299.4616 -9174.7984 -7422.5475 301.0508 -313.9049 -290.0742 30285.1764 -64.6087 -18.7880
ENERGY: 600000 7.6198 4.9338 7.5091 0.0000 -10429.6361 1256.1917 0.0000 0.0000 1777.7333 -7375.6484 302.8935 -9153.3817 -7433.4981 300.9177 -1450.7613 -1384.9640 30998.7966 -380.2388 -336.5254
ENERGY: 900000 7.3092 5.3814 7.7991 0.0000 -10693.1460 1422.8498 0.0000 0.0000 1743.3313 -7506.4752 297.0321 -9249.8065 -7431.8462 301.9081 -168.5889 -101.5025 30310.9562 -502.6818 -450.2658
ENERGY: 1200000 6.6335 4.0420 10.6747 0.0000 -10595.9325 1427.7286 0.0000 0.0000 1741.8285 -7405.0253 296.7760 -9146.8537 -7429.5092 301.9233 -33.2824 85.8718 30515.1656 -466.5177 -409.0012
ENERGY: 1500000 6.5105 8.3971 3.9580 0.0000 -10497.8480 1334.4244 0.0000 0.0000 1741.0382 -7403.5198 296.6414 -9144.5580 -7425.8293 301.3053 -577.4502 -518.6085 30183.6106 -262.4539 -207.2746
TCL: Running FEP window  18: Lambda1 0.8500000000000002 Lambda2 0.9000000000000002 [dLambda 0.050000000000000044]
TCL: Setting parameter firsttimestep to 0
TCL: Setting parameter alchLambda to 0.8500000000000002
Info: NONBONDED TABLE R-SQUARED SPACING: 0.0625
Info: NONBONDED TABLE SIZE: 705 POINTS
TCL: Setting parameter alchLambda2 to 0.9000000000000002
Info: NONBONDED TABLE R-SQUARED SPACING: 0.0625
Info: NONBONDED TABLE SIZE: 705 POINTS
TCL: Running for 1500000 steps
ETITLE: TS BOND ANGLE DIHED IMPRP ELECT VDW BOUNDARY MISC KINETIC TOTAL TEMP POTENTIAL TOTALAVG TEMPAVG PRESSURE GPRESSURE VOLUME PRESSAVG GPRESSAVG
ENERGY: 0 6.5105 8.3971 3.9580 0.0000 -10500.3811 1335.2891 0.0000 0.0000 1740.1540 -7406.0724 296.4907 -9146.2264 -7406.0724 296.4907 -581.7557 -497.4065 30183.6106 -581.7557 -497.4065
ENERGY: 300000 9.2422 6.2762 6.4034 0.0000 -10664.3216 1424.7451 0.0000 0.0000 1775.6135 -7442.0412 302.5324 -9217.6547 -7438.7590 298.0590 -177.8597 -131.0505 29942.3100 -429.0580 -384.4707
ENERGY: 600000 7.7852 6.0199 12.3357 0.0000 -10679.7955 1433.0924 0.0000 0.0000 1748.7464 -7471.8158 297.9547 -9220.5623 -7452.3084 297.7523 129.3551 170.4809 29996.7995 -207.4069 -143.6433
ENERGY: 900000 8.7741 6.8418 6.4555 0.0000 -10518.0303 1400.1871 0.0000 0.0000 1779.8644 -7315.9073 303.2567 -9095.7717 -7437.2404 297.6869 -176.6068 -77.5585 30675.2661 -205.5935 -137.8893
ENERGY: 1200000 4.6021 9.0133 6.4340 0.0000 -10657.6466 1477.5089 0.0000 0.0000 1800.2898 -7359.7985 306.7368 -9160.0882 -7431.2100 298.7244 564.7563 673.6434 30491.3998 -127.2105 -56.9039
ENERGY: 1500000 8.9925 8.1577 14.6520 0.0000 -10655.5252 1487.1194 0.0000 0.0000 1749.2997 -7387.3038 298.0490 -9136.6035 -7428.5712 299.5760 707.7074 741.7867 30257.4088 -43.7663 25.4264
TCL: Running FEP window  19: Lambda1 0.9000000000000002 Lambda2 0.9500000000000003 [dLambda 0.050000000000000044]
TCL: Setting parameter firsttimestep to 0
TCL: Setting parameter alchLambda to 0.9000000000000002
Info: NONBONDED TABLE R-SQUARED SPACING: 0.0625
Info: NONBONDED TABLE SIZE: 705 POINTS
TCL: Setting parameter alchLambda2 to 0.9500000000000003
Info: NONBONDED TABLE R-SQUARED SPACING: 0.0625
Info: NONBONDED TABLE SIZE: 705 POINTS
TCL: Running for 1500000 steps
ETITLE: TS BOND ANGLE DIHED IMPRP ELECT VDW BOUNDARY MISC KINETIC TOTAL TEMP POTENTIAL TOTALAVG TEMPAVG PRESSURE GPRESSURE VOLUME PRESSAVG GPRESSAVG
ENERGY: 0 8.9925 8.1577 14.6520 0.0000 -10657.6475 1487.0200 0.0000 0.0000 1748.4047 -7390.4206 297.8965 -9138.8253 -7390.4206 297.8965 671.7298 750.0543 30257.4088 671.7298 750.0543
ENERGY: 300000 5.7660 5.2771 4.6984 0.0000 -10762.7451 1517.2239 0.0000 0.0000 1705.4981 -7524.2817 290.5860 -9229.7798 -7463.6617 292.3938 744.8040 832.5874 29842.4953 245.2768 301.5809
ENERGY: 600000 5.1513 9.1532 6.1892 0.0000 -10671.8334 1436.6865 0.0000 0.0000 1769.3976 -7445.2556 301.4733 -9214.6532 -7429.4007 297.7855 370.2975 383.5915 29737.8286 147.5788 195.3001
ENERGY: 900000 7.1241 11.6139 4.7938 0.0000 -10599.1412 1399.4591 0.0000 0.0000 1690.2366 -7485.9136 287.9857 -9176.1502 -7431.7591 297.1231 -324.4355 -200.2752 30039.3361 76.0459 130.7206
ENERGY: 1200000 5.6398 8.7036 9.9622 0.0000 -10676.8841 1503.4802 0.0000 0.0000 1749.4743 -7399.6241 298.0787 -9149.0984 -7424.1650 297.6772 484.4325 571.7269 30421.6164 52.7947 112.3844
ENERGY: 1500000 5.9773 7.8294 6.4723 0.0000 -10602.7497 1334.1197 0.0000 0.0000 1781.4814 -7466.8696 303.5322 -9248.3510 -7433.3698 297.3383 -737.7255 -670.8695 30073.1044 27.4769 85.4035
TCL: Running FEP window  20: Lambda1 0.9500000000000003 Lambda2 1.0    [dLambda 0.04999999999999971]
TCL: Setting parameter firsttimestep to 0
TCL: Setting parameter alchLambda to 0.9500000000000003
Info: NONBONDED TABLE R-SQUARED SPACING: 0.0625
Info: NONBONDED TABLE SIZE: 705 POINTS
TCL: Setting parameter alchLambda2 to 1.0
Info: NONBONDED TABLE R-SQUARED SPACING: 0.0625
Info: NONBONDED TABLE SIZE: 705 POINTS
TCL: Running for 1500000 steps
ETITLE: TS BOND ANGLE DIHED IMPRP ELECT VDW BOUNDARY MISC KINETIC TOTAL TEMP POTENTIAL TOTALAVG TEMPAVG PRESSURE GPRESSURE VOLUME PRESSAVG GPRESSAVG
ENERGY: 0 5.9773 7.8294 6.4723 0.0000 -10605.5603 1335.3420 0.0000 0.0000 1780.5875 -7469.3518 303.3799 -9249.9393 -7469.3518 303.3799 -720.5578 -641.6306 30073.1044 -720.5578 -641.6306
ENERGY: 300000 5.7671 5.0734 9.7007 0.0000 -10628.7840 1422.7434 0.0000 0.0000 1765.4322 -7420.0672 300.7977 -9185.4994 -7463.0106 296.6090 -53.0976 24.6155 30568.5755 -214.6602 -132.0952
ENERGY: 600000 4.8773 5.0618 9.3768 0.0000 -10475.7467 1303.7532 0.0000 0.0000 1749.7293 -7402.9483 298.1222 -9152.6776 -7455.3563 296.9889 -1161.6364 -1048.1046 30707.1065 -80.2691 -2.5557
ENERGY: 900000 7.7189 8.8383 10.0351 0.0000 -10660.6854 1486.2782 0.0000 0.0000 1790.8738 -7356.9410 305.1325 -9147.8148 -7438.3635 297.7726 369.9438 438.3778 30540.4467 -42.9440 34.3948
ENERGY: 1200000 10.2149 7.8319 8.7817 0.0000 -10631.7806 1438.2912 0.0000 0.0000 1747.4579 -7419.2028 297.7352 -9166.6608 -7440.0942 297.9325 184.3950 242.9787 29976.9825 -8.2757 69.7285
ENERGY: 1500000 9.2939 7.1993 12.0286 0.0000 -10635.3417 1425.0253 0.0000 0.0000 1775.1592 -7406.6353 302.4550 -9181.7945 -7430.5413 299.2051 116.3218 183.5515 29842.4877 35.6333 111.2689
TCL: Exiting due to exit command.
