Info: SIMULATION PARAMETERS:
Info: TIMESTEP               2
Info: NUMBER OF STEPS        0
Info: STEPS PER CYCLE        10
Info: PERIODIC CELL BASIS 1  33.2218 0 0
Info: PERIODIC CELL BASIS 2  0 33.5422 0
Info: PERIODIC CELL BASIS 3  0 0 27.8208
Info: PERIODIC CELL CENTER   0 0 0
Info: WRAPPING WATERS AROUND PERIODIC BOUNDARIES ON OUTPUT.
Info: WRAPPING ALL CLUSTERS AROUND PERIODIC BOUNDARIES ON OUTPUT.
Info: FIRST LDB TIMESTEP     50
Info: LAST LDB TIMESTEP     -1
Info: HOM BACKGROUND SCALING 1
Info: PME BACKGROUND SCALING 1
Info: MIN ATOMS PER PATCH    40
Info: EMPTY PATCH LOAD       40 ATOMS
Info: VELOCITY FILE          mobley_9821936_equil.vel
Info: CENTER OF MASS MOVING INITIALLY? NO
Info: DIELECTRIC             1
Info: EXCLUDE                SCALED ONE-FOUR
Info: 1-4 ELECTROSTATICS SCALED BY 0.833333
Info: MODIFIED 1-4 VDW PARAMETERS WILL BE USED
Info: DCD FILENAME           mobley_9821936_prod.dcd
Info: DCD FREQUENCY          100000
Info: DCD FIRST STEP         100000
Info: DCD FILE WILL CONTAIN UNIT CELL DATA
Info: XST FILENAME           mobley_9821936_prod.xst
Info: XST FREQUENCY          100000
Info: NO VELOCITY DCD OUTPUT
Info: NO FORCE DCD OUTPUT
Info: OUTPUT FILENAME        mobley_9821936_prod
Info: BINARY OUTPUT FILES WILL BE USED
Info: RESTART FILENAME       mobley_9821936_prod.restart
Info: RESTART FREQUENCY      100000
Info: BINARY RESTART FILES WILL BE USED
Info: CUTOFF                 9
Info: PAIRLIST DISTANCE      11
Info: PAIRLIST SHRINK RATE   0.01
Info: PAIRLIST GROW RATE     0.01
Info: PAIRLIST TRIGGER       0.3
Info: PAIRLISTS PER CYCLE    2
Info: PAIRLISTS ENABLED
Info: MARGIN                 2
Info: HYDROGEN GROUP CUTOFF  2.5
Info: PATCH DIMENSION        15.5
Info: ENERGY OUTPUT STEPS    100000
Info: ENERGY EVALUATION STEPS    100000
Info: OUTPUT ENERGY PRECISION 4
Info: CROSSTERM ENERGY INCLUDED IN DIHEDRAL
Info: TIMING OUTPUT STEPS    1000000
Info: PRESSURE OUTPUT STEPS  100000
Info: ALCHEMICAL FEP ON
Info: FEP CURRENT LAMBDA VALUE     1
Info: FEP COMPARISON LAMBDA VALUE  0.95
Info: FEP INTRA-ALCHEMICAL NON-BONDED INTERACTIONS WILL BE RETAINED
Info: FEP INTRA-ALCHEMICAL BONDED INTERACTIONS WILL BE RETAINED
Info: FEP VDW SHIFTING COEFFICIENT 5
Info: FEP ELEC. ACTIVE FOR ANNIHILATED PARTICLES BETWEEN LAMBDA = 0 AND LAMBDA = 0.5
Info: FEP ELEC. ACTIVE FOR EXNIHILATED PARTICLES BETWEEN LAMBDA = 0.5 AND LAMBDA = 1
Info: FEP VDW ACTIVE FOR ANNIHILATED PARTICLES BETWEEN LAMBDA = 0 AND LAMBDA = 1
Info: FEP VDW ACTIVE FOR EXNIHILATED PARTICLES BETWEEN LAMBDA = 0 AND LAMBDA = 1
Info: FEP BOND ACTIVE FOR ANNIHILATED PARTICLES BETWEEN LAMBDA = 1 AND LAMBDA = 1
Info: FEP BOND ACTIVE FOR EXNIHILATED PARTICLES BETWEEN LAMBDA = 0 AND LAMBDA = 0
Info: LANGEVIN DYNAMICS ACTIVE
Info: LANGEVIN TEMPERATURE   300
Info: LANGEVIN USING BBK INTEGRATOR
Info: LANGEVIN DAMPING COEFFICIENT IS 1 INVERSE PS
Info: LANGEVIN DYNAMICS APPLIED TO HYDROGENS
Info: LANGEVIN PISTON PRESSURE CONTROL ACTIVE
Info:        TARGET PRESSURE IS 1.01325 BAR
Info:     OSCILLATION PERIOD IS 50 FS
Info:             DECAY TIME IS 25 FS
Info:     PISTON TEMPERATURE IS 300 K
Info:       PRESSURE CONTROL IS GROUP-BASED
Info:    INITIAL STRAIN RATE IS 9.67142e-05 9.67142e-05 9.67142e-05
Info:       CELL FLUCTUATION IS ISOTROPIC
Info: PARTICLE MESH EWALD (PME) ACTIVE
Info: PME TOLERANCE               1e-06
Info: PME EWALD COEFFICIENT       0.348832
Info: PME INTERPOLATION ORDER     4
Info: PME GRID DIMENSIONS         36 36 28
Info: PME MAXIMUM GRID SPACING    1
Info: PME CALCULATION WILL BE PERFORMED ON GPU
Info: FULL ELECTROSTATIC EVALUATION FREQUENCY      2
Info: USING VERLET I (r-RESPA) MTS SCHEME.
Info: C1 SPLITTING OF LONG RANGE ELECTROSTATICS
Info: PLACING ATOMS IN PATCHES BY HYDROGEN GROUPS
Info: RIGID BONDS TO HYDROGEN : ALL
Info:         ERROR TOLERANCE : 1e-08
Info:          MAX ITERATIONS : 100
Info: RIGID WATER USING SETTLE ALGORITHM
Info: RANDOM NUMBER SEED     1743650444
Info: USE HYDROGEN BONDS?    NO
Info: Using AMBER format force field!
Info: AMBER PARM FILE        mobley_9821936.prmtop
Info: COORDINATE PDB         mobley_9821936.pdb
Info: Exclusions will be read from PARM file!
Info: SCNB (VDW SCALING)     2
Info: USING ARITHMETIC MEAN TO COMBINE L-J SIGMA PARAMETERS
Info: BINARY COORDINATES     mobley_9821936_equil.coor
Info: SUMMARY OF PARAMETERS:
Info: 5 BONDS
Info: 4 ANGLES
Info:   4 HARMONIC
Info:   0 COSINE-BASED
Info: 3 DIHEDRAL
Info: 0 IMPROPER
Info: 0 CROSSTERM
Info: 0 VDW
Info: 15 VDW_PAIRS
Info: 0 NBTHOLE_PAIRS
Info: To read alchdata from file: mobley_9821936.pdb
Info: To read alchflag data from column: 5
Info: STRUCTURE SUMMARY:
Info: 2947 ATOMS
Info: 2949 BONDS
Info: 38 ANGLES
Info: 68 DIHEDRALS
Info: 0 IMPROPERS
Info: 0 CROSSTERMS
Info: 3034 EXCLUSIONS
Info: 2925 RIGID BONDS
Info: ALCH: 0 ATOMS TO DISAPPEAR IN FINAL STATE
Info: ALCH: 22 ATOMS TO APPEAR IN FINAL STATE
Info: 5916 DEGREES OF FREEDOM
Info: 997 HYDROGEN GROUPS
Info: 3 ATOMS IN LARGEST HYDROGEN GROUP
Info: 997 MIGRATION GROUPS
Info: 3 ATOMS IN LARGEST MIGRATION GROUP
Info: TOTAL MASS = 18025.3 amu
Info: TOTAL CHARGE = 9.9998e-05 e
Info: MASS DENSITY = 0.965515 g/cm^3
Info: ATOM DENSITY = 0.0950598 atoms/A^3
Info: ADDED 0 IMPLICIT EXCLUSIONS
Info: NONBONDED TABLE R-SQUARED SPACING: 0.0625
Info: NONBONDED TABLE SIZE: 705 POINTS
Info: REDUCING NUMBER OF PATCHES TO IMPROVE LOAD BALANCE
Info: REMOVING COM VELOCITY 0.111363 0.0305584 0.0102819
Info: Use 3D box decompostion in PME FFT.
Info: Updated CUDA force table with 4096 elements.
Info: Updated CUDA LJ table with 5 x 5 elements.
Info: Found 18 unique exclusion lists needing 44 bytes
TCL: Running for 1500000 steps
ETITLE: TS BOND ANGLE DIHED IMPRP ELECT VDW BOUNDARY MISC KINETIC TOTAL TEMP POTENTIAL TOTALAVG TEMPAVG PRESSURE GPRESSURE VOLUME PRESSAVG GPRESSAVG
ENERGY: 0 15.1558 4.8782 4.4477 0.0000 -10469.8395 1320.2279 0.0000 0.0000 1737.9654 -7387.1645 295.6673 -9125.1299 -7387.1645 295.6673 -953.4485 -868.6335 31001.5270 -953.4485 -868.6335
ENERGY: 300000 10.7981 6.0008 5.1407 0.0000 -10800.9978 1530.5951 0.0000 0.0000 1767.3485 -7481.1146 300.6661 -9248.4631 -7442.3777 298.5346 643.2754 724.0978 30089.0867 -420.6472 -354.4717
ENERGY: 600000 8.2985 7.9119 7.0609 0.0000 -10596.8072 1404.6092 0.0000 0.0000 1756.6365 -7412.2902 298.8437 -9168.9267 -7457.2856 298.5076 -205.4507 -84.3688 30586.2745 -275.8641 -201.2037
ENERGY: 900000 8.3113 3.5667 2.8748 0.0000 -10573.6127 1419.4148 0.0000 0.0000 1761.0175 -7378.4275 299.5890 -9139.4450 -7449.5561 297.8844 212.9575 227.8368 30216.8113 -82.9335 -26.3995
ENERGY: 1200000 9.2868 4.7389 7.4889 0.0000 -10620.5553 1425.6515 0.0000 0.0000 1729.1439 -7444.2453 294.1666 -9173.3892 -7441.0880 298.1258 -158.8953 -93.4668 30479.0210 61.5927 116.7633
ENERGY: 1500000 7.2022 4.1797 7.1419 0.0000 -10562.2407 1304.7473 0.0000 0.0000 1758.3095 -7480.6601 299.1283 -9238.9696 -7449.2845 297.3988 -1165.8661 -1125.0363 31054.4345 -114.0626 -63.8156
TCL: Running FEP window   2: Lambda1 0.95   Lambda2 0.8999999999999999 [dLambda -0.050000000000000044]
TCL: Setting parameter firsttimestep to 0
TCL: Setting parameter alchLambda to 0.95
Info: NONBONDED TABLE R-SQUARED SPACING: 0.0625
Info: NONBONDED TABLE SIZE: 705 POINTS
TCL: Setting parameter alchLambda2 to 0.8999999999999999
Info: NONBONDED TABLE R-SQUARED SPACING: 0.0625
Info: NONBONDED TABLE SIZE: 705 POINTS
TCL: Running for 1500000 steps
ETITLE: TS BOND ANGLE DIHED IMPRP ELECT VDW BOUNDARY MISC KINETIC TOTAL TEMP POTENTIAL TOTALAVG TEMPAVG PRESSURE GPRESSURE VOLUME PRESSAVG GPRESSAVG
ENERGY: 0 7.2022 4.1797 7.1419 0.0000 -10562.1530 1306.0053 0.0000 0.0000 1757.4134 -7480.2105 298.9759 -9237.6239 -7480.2105 298.9759 -1194.3556 -1134.2756 31054.4345 -1194.3556 -1134.2756
ENERGY: 300000 5.8433 2.9664 3.5840 0.0000 -10647.5264 1407.3894 0.0000 0.0000 1759.5908 -7468.1526 299.3463 -9227.7434 -7477.3896 298.6763 149.1713 159.7832 30144.3036 -662.0879 -610.9113
ENERGY: 600000 7.1002 5.7036 4.9391 0.0000 -10810.0499 1517.3588 0.0000 0.0000 1726.2079 -7548.7403 293.6671 -9274.9483 -7459.3336 299.8569 532.8742 593.6477 30427.5487 -343.1843 -270.5805
ENERGY: 900000 7.6478 2.6049 5.7084 0.0000 -10561.1265 1391.1878 0.0000 0.0000 1741.8174 -7412.1601 296.3226 -9153.9775 -7447.7209 301.1407 -354.2328 -274.8413 30933.8671 -387.2199 -317.4840
ENERGY: 1200000 6.1248 3.3912 4.3780 0.0000 -10630.8633 1410.2906 0.0000 0.0000 1786.4044 -7420.2743 303.9079 -9206.6787 -7441.1417 301.3966 239.9627 331.2027 30544.3864 -307.7791 -234.4704
ENERGY: 1500000 9.2642 3.6294 6.3448 0.0000 -10483.7698 1345.3883 0.0000 0.0000 1764.9621 -7354.1810 300.2601 -9119.1431 -7437.1593 300.8085 -603.6125 -574.4881 30876.6943 -303.6120 -232.0054
TCL: Running FEP window   3: Lambda1 0.8999999999999999 Lambda2 0.8499999999999999 [dLambda -0.050000000000000044]
TCL: Setting parameter firsttimestep to 0
TCL: Setting parameter alchLambda to 0.8999999999999999
Info: NONBONDED TABLE R-SQUARED SPACING: 0.0625
Info: NONBONDED TABLE SIZE: 705 POINTS
TCL: Setting parameter alchLambda2 to 0.8499999999999999
Info: NONBONDED TABLE R-SQUARED SPACING: 0.0625
Info: NONBONDED TABLE SIZE: 705 POINTS
TCL: Running for 1500000 steps
ETITLE: TS BOND ANGLE DIHED IMPRP ELECT VDW BOUNDARY MISC KINETIC TOTAL TEMP POTENTIAL TOTALAVG TEMPAVG PRESSURE GPRESSURE VOLUME PRESSAVG GPRESSAVG
ENERGY: 0 9.2642 3.6294 6.3448 0.0000 -10483.6872 1346.3190 0.0000 0.0000 1764.1264 -7354.0035 300.1179 -9118.1299 -7354.0035 300.1179 -667.6007 -587.6857 30876.6943 -667.6007 -587.6857
ENERGY: 300000 7.0062 3.9664 5.2487 0.0000 -10623.0594 1421.3287 0.0000 0.0000 1776.6232 -7408.8861 302.2439 -9185.5093 -7401.7262 302.1983 37.9461 30.8200 30645.2642 -359.6583 -289.1386
ENERGY: 600000 6.9862 3.8044 5.7922 0.0000 -10622.8406 1388.9846 0.0000 0.0000 1708.4651 -7508.8082 290.6487 -9217.2732 -7405.3417 300.1575 -51.1084 -41.0411 30113.3100 -283.7562 -221.0503
ENERGY: 900000 14.5971 4.8221 3.8580 0.0000 -10657.1001 1464.4013 0.0000 0.0000 1740.3189 -7429.1028 296.0677 -9169.4216 -7407.8574 299.3627 187.0115 257.5501 30573.0799 -163.8278 -102.7970
ENERGY: 1200000 5.4590 3.4187 4.5212 0.0000 -10663.4594 1531.6735 0.0000 0.0000 1769.4789 -7348.9081 301.0285 -9118.3870 -7419.5092 299.2165 1222.7822 1318.3669 30426.1721 -75.6973 -5.3068
ENERGY: 1500000 6.5964 4.5380 6.6423 0.0000 -10612.3568 1453.1437 0.0000 0.0000 1750.1597 -7391.2766 297.7419 -9141.4364 -7422.7321 299.3367 275.9345 393.2479 30725.0270 -37.8708 38.6134
TCL: Running FEP window   4: Lambda1 0.8499999999999999 Lambda2 0.7999999999999998 [dLambda -0.050000000000000044]
TCL: Setting parameter firsttimestep to 0
TCL: Setting parameter alchLambda to 0.8499999999999999
Info: NONBONDED TABLE R-SQUARED SPACING: 0.0625
Info: NONBONDED TABLE SIZE: 705 POINTS
TCL: Setting parameter alchLambda2 to 0.7999999999999998
Info: NONBONDED TABLE R-SQUARED SPACING: 0.0625
Info: NONBONDED TABLE SIZE: 705 POINTS
TCL: Running for 1500000 steps
ETITLE: TS BOND ANGLE DIHED IMPRP ELECT VDW BOUNDARY MISC KINETIC TOTAL TEMP POTENTIAL TOTALAVG TEMPAVG PRESSURE GPRESSURE VOLUME PRESSAVG GPRESSAVG
ENERGY: 0 6.5964 4.5380 6.6423 0.0000 -10612.2612 1453.7994 0.0000 0.0000 1749.2451 -7391.4401 297.5863 -9140.6851 -7391.4401 297.5863 283.5725 374.1446 30725.0270 283.5725 374.1446
ENERGY: 300000 14.8364 6.2388 3.2307 0.0000 -10661.4984 1396.9385 0.0000 0.0000 1773.3260 -7466.9280 301.6830 -9240.2540 -7383.0188 303.3016 -595.8171 -573.0371 30687.5157 59.0326 101.6128
ENERGY: 600000 7.0092 5.0949 3.1749 0.0000 -10591.8870 1356.1690 0.0000 0.0000 1843.1166 -7377.3225 313.5559 -9220.4391 -7380.2779 305.1021 -514.8292 -490.5834 30543.8454 -53.5157 -14.6176
ENERGY: 900000 7.8656 3.8344 5.6921 0.0000 -10646.8793 1388.2406 0.0000 0.0000 1768.1308 -7473.1158 300.7991 -9241.2465 -7390.6103 304.4652 -368.2416 -292.2512 30115.6009 62.6154 109.5261
ENERGY: 1200000 7.0291 3.6967 6.1654 0.0000 -10488.0145 1302.5278 0.0000 0.0000 1743.8704 -7424.7252 296.6719 -9168.5956 -7392.0261 303.5423 -1012.1115 -957.2000 30551.2728 -47.4128 3.9818
ENERGY: 1500000 7.3422 3.8640 7.0544 0.0000 -10663.7389 1508.0253 0.0000 0.0000 1803.5348 -7333.9183 306.8222 -9137.4530 -7393.3598 303.6723 458.7670 530.4730 30819.3159 20.3200 74.4545
TCL: Running FEP window   5: Lambda1 0.7999999999999998 Lambda2 0.7499999999999998 [dLambda -0.050000000000000044]
TCL: Setting parameter firsttimestep to 0
TCL: Setting parameter alchLambda to 0.7999999999999998
Info: NONBONDED TABLE R-SQUARED SPACING: 0.0625
Info: NONBONDED TABLE SIZE: 705 POINTS
TCL: Setting parameter alchLambda2 to 0.7499999999999998
Info: NONBONDED TABLE R-SQUARED SPACING: 0.0625
Info: NONBONDED TABLE SIZE: 705 POINTS
TCL: Running for 1500000 steps
ETITLE: TS BOND ANGLE DIHED IMPRP ELECT VDW BOUNDARY MISC KINETIC TOTAL TEMP POTENTIAL TOTALAVG TEMPAVG PRESSURE GPRESSURE VOLUME PRESSAVG GPRESSAVG
ENERGY: 0 7.3422 3.8640 7.0544 0.0000 -10663.7211 1507.7704 0.0000 0.0000 1802.6828 -7335.0072 306.6772 -9137.6900 -7335.0072 306.6772 434.6002 508.1443 30819.3159 434.6002 508.1443
ENERGY: 300000 12.2942 3.4180 4.6910 0.0000 -10656.5991 1461.0197 0.0000 0.0000 1746.2134 -7428.9628 297.0705 -9175.1762 -7393.4266 301.2727 478.3552 498.0571 30256.0366 401.0808 449.4811
ENERGY: 600000 6.0733 3.9385 6.1908 0.0000 -10558.0607 1344.9077 0.0000 0.0000 1750.6744 -7446.2761 297.8294 -9196.9504 -7409.9311 298.7976 -640.0989 -612.1997 30617.8082 -22.6434 27.1086
ENERGY: 900000 6.6592 4.7504 5.7694 0.0000 -10639.0804 1471.8432 0.0000 0.0000 1733.0428 -7417.0155 294.8299 -9150.0583 -7427.3595 298.2411 939.9838 974.4633 30219.2914 18.3257 64.1489
ENERGY: 1200000 5.9649 4.2478 9.1492 0.0000 -10563.5862 1449.2247 0.0000 0.0000 1756.6563 -7338.3433 298.8471 -9094.9996 -7417.1984 298.5127 361.8413 393.4951 30964.4235 32.6211 83.3933
ENERGY: 1500000 7.7067 6.0090 8.5657 0.0000 -10480.9154 1333.5932 0.0000 0.0000 1766.3852 -7358.6556 300.5022 -9125.0408 -7414.5303 298.7889 -725.8196 -688.4768 30843.6563 -24.0220 28.4542
TCL: Running FEP window   6: Lambda1 0.7499999999999998 Lambda2 0.6999999999999997 [dLambda -0.050000000000000044]
TCL: Setting parameter firsttimestep to 0
TCL: Setting parameter alchLambda to 0.7499999999999998
Info: NONBONDED TABLE R-SQUARED SPACING: 0.0625
Info: NONBONDED TABLE SIZE: 705 POINTS
TCL: Setting parameter alchLambda2 to 0.6999999999999997
Info: NONBONDED TABLE R-SQUARED SPACING: 0.0625
Info: NONBONDED TABLE SIZE: 705 POINTS
TCL: Running for 1500000 steps
ETITLE: TS BOND ANGLE DIHED IMPRP ELECT VDW BOUNDARY MISC KINETIC TOTAL TEMP POTENTIAL TOTALAVG TEMPAVG PRESSURE GPRESSURE VOLUME PRESSAVG GPRESSAVG
ENERGY: 0 7.7067 6.0089 8.5658 0.0000 -10480.8777 1334.5274 0.0000 0.0000 1765.5285 -7358.5404 300.3564 -9124.0690 -7358.5404 300.3564 -787.3946 -697.5939 30843.6563 -787.3946 -697.5939
ENERGY: 300000 13.9943 2.9228 6.8088 0.0000 -10496.4847 1350.5996 0.0000 0.0000 1740.4421 -7381.7171 296.0887 -9122.1592 -7402.7429 295.2157 -781.8323 -713.8422 30483.6410 -694.0337 -608.4648
ENERGY: 600000 6.3159 6.3851 5.3061 0.0000 -10697.9554 1459.0115 0.0000 0.0000 1671.1078 -7549.8290 284.2933 -9220.9367 -7433.1741 293.9529 108.1504 192.1161 30527.8520 -395.9255 -306.9751
ENERGY: 900000 11.2426 4.2664 3.6837 0.0000 -10636.5025 1428.1160 0.0000 0.0000 1811.1465 -7378.0473 308.1171 -9189.1938 -7440.6866 296.5071 -160.6856 -94.5309 30797.4501 -382.6302 -301.9685
ENERGY: 1200000 9.2951 5.5531 6.1310 0.0000 -10677.5396 1508.0659 0.0000 0.0000 1722.3703 -7426.1242 293.0143 -9148.4945 -7433.1940 296.9355 496.6878 555.3863 30663.8243 -207.3141 -134.5572
ENERGY: 1500000 6.0685 4.0991 6.4413 0.0000 -10710.6633 1496.0637 0.0000 0.0000 1785.7526 -7412.2380 303.7970 -9197.9907 -7424.3562 298.1132 368.9216 419.5495 30579.7233 -154.3423 -88.4505
TCL: Running FEP window   7: Lambda1 0.6999999999999997 Lambda2 0.6499999999999997 [dLambda -0.050000000000000044]
TCL: Setting parameter firsttimestep to 0
TCL: Setting parameter alchLambda to 0.6999999999999997
Info: NONBONDED TABLE R-SQUARED SPACING: 0.0625
Info: NONBONDED TABLE SIZE: 705 POINTS
TCL: Setting parameter alchLambda2 to 0.6499999999999997
Info: NONBONDED TABLE R-SQUARED SPACING: 0.0625
Info: NONBONDED TABLE SIZE: 705 POINTS
TCL: Running for 1500000 steps
ETITLE: TS BOND ANGLE DIHED IMPRP ELECT VDW BOUNDARY MISC KINETIC TOTAL TEMP POTENTIAL TOTALAVG TEMPAVG PRESSURE GPRESSURE VOLUME PRESSAVG GPRESSAVG
ENERGY: 0 6.0685 4.0991 6.4413 0.0000 -10710.5814 1496.6161 0.0000 0.0000 1784.8428 -7412.5136 303.6422 -9197.3564 -7412.5136 303.6422 334.6523 412.2145 30579.7233 334.6523 412.2145
ENERGY: 300000 8.2162 2.0171 6.3361 0.0000 -10492.4097 1291.8797 0.0000 0.0000 1784.5071 -7399.4534 303.5851 -9183.9605 -7445.9424 301.3254 -1120.6032 -1091.1778 30412.5140 -572.3519 -525.4435
ENERGY: 600000 6.2303 3.8759 3.4865 0.0000 -10580.8324 1421.9891 0.0000 0.0000 1764.9967 -7380.2539 300.2660 -9145.2506 -7423.6147 301.6608 47.6758 128.9157 30574.8235 -242.1757 -176.4942
ENERGY: 900000 7.3805 4.8254 4.3789 0.0000 -10598.3644 1431.2831 0.0000 0.0000 1784.8862 -7365.6102 303.6496 -9150.4964 -7415.2546 301.7884 412.9672 497.3541 29953.8552 -102.4739 -33.2661
ENERGY: 1200000 6.5295 4.5060 5.8464 0.0000 -10658.3405 1478.5451 0.0000 0.0000 1780.4745 -7382.4391 302.8991 -9162.9135 -7413.1786 301.6564 466.0111 513.5171 29919.2876 -54.1792 14.7950
ENERGY: 1500000 9.2038 4.6800 4.3971 0.0000 -10575.1505 1396.8692 0.0000 0.0000 1744.4787 -7415.5217 296.7754 -9160.0004 -7413.4448 301.4370 -362.8210 -352.8803 30370.5957 -70.0878 -7.5404
TCL: Running FEP window   8: Lambda1 0.6499999999999997 Lambda2 0.5999999999999996 [dLambda -0.050000000000000044]
TCL: Setting parameter firsttimestep to 0
TCL: Setting parameter alchLambda to 0.6499999999999997
Info: NONBONDED TABLE R-SQUARED SPACING: 0.0625
Info: NONBONDED TABLE SIZE: 705 POINTS
TCL: Setting parameter alchLambda2 to 0.5999999999999996
Info: NONBONDED TABLE R-SQUARED SPACING: 0.0625
Info: NONBONDED TABLE SIZE: 705 POINTS
TCL: Running for 1500000 steps
ETITLE: TS BOND ANGLE DIHED IMPRP ELECT VDW BOUNDARY MISC KINETIC TOTAL TEMP POTENTIAL TOTALAVG TEMPAVG PRESSURE GPRESSURE VOLUME PRESSAVG GPRESSAVG
ENERGY: 0 9.2038 4.6800 4.3971 0.0000 -10575.0904 1397.6732 0.0000 0.0000 1743.6287 -7415.5075 296.6308 -9159.1362 -7415.5075 296.6308 -433.2274 -361.9900 30370.5957 -433.2274 -361.9900
ENERGY: 300000 9.2144 4.1814 5.4122 0.0000 -10687.7260 1459.0162 0.0000 0.0000 1749.8353 -7460.0664 297.6867 -9209.9017 -7404.7554 299.1240 -141.5569 -75.4606 30783.4136 -224.2337 -179.8446
ENERGY: 600000 4.6717 4.2556 9.5747 0.0000 -10743.1681 1514.6568 0.0000 0.0000 1794.2749 -7415.7345 305.2469 -9210.0094 -7427.7430 299.0152 831.6168 913.5486 30422.5608 53.1776 99.1403
ENERGY: 900000 4.5091 7.7239 3.8123 0.0000 -10697.3327 1498.0624 0.0000 0.0000 1778.1083 -7405.1166 302.4966 -9183.2249 -7409.3231 300.1007 819.7762 801.0626 30427.2487 60.2824 91.3219
ENERGY: 1200000 6.0529 5.4707 5.2747 0.0000 -10548.7833 1410.2759 0.0000 0.0000 1738.8668 -7382.8423 295.8207 -9121.7092 -7403.8541 299.8350 81.8891 177.9035 30827.1157 43.3408 84.1179
ENERGY: 1500000 8.4840 3.3581 7.3160 0.0000 -10464.7195 1299.9107 0.0000 0.0000 1754.7982 -7390.8524 298.5310 -9145.6507 -7401.8996 300.1907 -1009.6183 -921.0664 30925.4054 -101.7321 -53.6666
TCL: Running FEP window   9: Lambda1 0.5999999999999996 Lambda2 0.5499999999999996 [dLambda -0.050000000000000044]
TCL: Setting parameter firsttimestep to 0
TCL: Setting parameter alchLambda to 0.5999999999999996
Info: NONBONDED TABLE R-SQUARED SPACING: 0.0625
Info: NONBONDED TABLE SIZE: 705 POINTS
TCL: Setting parameter alchLambda2 to 0.5499999999999996
Info: NONBONDED TABLE R-SQUARED SPACING: 0.0625
Info: NONBONDED TABLE SIZE: 705 POINTS
TCL: Running for 1500000 steps
ETITLE: TS BOND ANGLE DIHED IMPRP ELECT VDW BOUNDARY MISC KINETIC TOTAL TEMP POTENTIAL TOTALAVG TEMPAVG PRESSURE GPRESSURE VOLUME PRESSAVG GPRESSAVG
ENERGY: 0 8.4840 3.3581 7.3160 0.0000 -10464.6436 1300.9181 0.0000 0.0000 1753.9177 -7390.6496 298.3812 -9144.5673 -7390.6496 298.3812 -987.0201 -924.4556 30925.4054 -987.0201 -924.4556
ENERGY: 300000 5.8912 5.7200 5.2753 0.0000 -10688.5225 1475.8576 0.0000 0.0000 1778.5466 -7417.2317 302.5711 -9195.7783 -7427.7125 296.9853 239.3695 303.9767 30519.6649 -435.2904 -381.8180
ENERGY: 600000 14.8548 5.7220 4.1896 0.0000 -10573.6632 1406.1243 0.0000 0.0000 1767.0557 -7375.7167 300.6163 -9142.7724 -7412.6112 298.2720 -314.3146 -280.6152 30423.4671 -295.7808 -245.6822
ENERGY: 900000 7.5811 6.7257 6.7276 0.0000 -10619.9460 1434.3091 0.0000 0.0000 1792.2355 -7372.3669 304.8999 -9164.6024 -7415.5653 298.7110 105.4257 207.2689 30217.8037 -319.2301 -263.2675
ENERGY: 1200000 11.0390 3.4485 6.5717 0.0000 -10705.9710 1478.2300 0.0000 0.0000 1744.1106 -7462.5712 296.7128 -9206.6818 -7422.7581 298.9603 592.1628 669.6851 29938.3855 -273.0710 -214.7392
ENERGY: 1500000 9.2542 4.1137 3.3888 0.0000 -10609.8050 1461.0597 0.0000 0.0000 1751.1094 -7380.8790 297.9034 -9131.9885 -7420.3287 298.7749 401.2579 471.0458 30242.7234 -257.5516 -196.4910
TCL: Running FEP window  10: Lambda1 0.5499999999999996 Lambda2 0.4999999999999996 [dLambda -0.04999999999999999]
TCL: Setting parameter firsttimestep to 0
TCL: Setting parameter alchLambda to 0.5499999999999996
Info: NONBONDED TABLE R-SQUARED SPACING: 0.0625
Info: NONBONDED TABLE SIZE: 705 POINTS
TCL: Setting parameter alchLambda2 to 0.4999999999999996
Info: NONBONDED TABLE R-SQUARED SPACING: 0.0625
Info: NONBONDED TABLE SIZE: 705 POINTS
TCL: Running for 1500000 steps
ETITLE: TS BOND ANGLE DIHED IMPRP ELECT VDW BOUNDARY MISC KINETIC TOTAL TEMP POTENTIAL TOTALAVG TEMPAVG PRESSURE GPRESSURE VOLUME PRESSAVG GPRESSAVG
ENERGY: 0 9.2542 4.1137 3.3888 0.0000 -10609.6744 1461.7118 0.0000 0.0000 1750.2261 -7380.9798 297.7532 -9131.2059 -7380.9798 297.7532 378.2926 463.3021 30242.7234 378.2926 463.3021
ENERGY: 300000 7.6938 2.0873 5.3751 0.0000 -10667.1678 1464.6940 0.0000 0.0000 1718.0152 -7469.3023 292.2733 -9187.3175 -7422.5712 299.6108 499.5620 569.2617 29720.3450 299.2482 370.2220
ENERGY: 600000 7.3610 7.1853 5.6013 0.0000 -10806.4492 1650.9947 0.0000 0.0000 1728.1468 -7407.1601 293.9970 -9135.3068 -7410.2432 300.3681 2223.7106 2314.5866 30183.0100 467.2807 530.8806
ENERGY: 900000 4.8003 6.6249 8.4020 0.0000 -10664.9396 1483.2304 0.0000 0.0000 1739.1383 -7422.7438 295.8669 -9161.8820 -7414.7582 299.2398 654.3037 752.9358 30252.8457 253.6718 318.3272
ENERGY: 1200000 5.9298 8.0968 6.1450 0.0000 -10620.9583 1409.3457 0.0000 0.0000 1719.1928 -7472.2482 292.4737 -9191.4409 -7425.0108 298.0187 -209.6320 -183.7896 30695.7069 111.7441 174.8393
ENERGY: 1500000 9.3378 6.6932 7.1899 0.0000 -10603.3787 1409.6577 0.0000 0.0000 1781.4572 -7389.0430 303.0663 -9170.5001 -7426.6155 298.1164 -103.8170 -112.9272 30429.9196 4.3057 62.8365
TCL: Running FEP window  11: Lambda1 0.4999999999999996 Lambda2 0.4499999999999996 [dLambda -0.04999999999999999]
TCL: Setting parameter firsttimestep to 0
TCL: Setting parameter alchLambda to 0.4999999999999996
Info: NONBONDED TABLE R-SQUARED SPACING: 0.0625
Info: NONBONDED TABLE SIZE: 705 POINTS
TCL: Setting parameter alchLambda2 to 0.4499999999999996
Info: NONBONDED TABLE R-SQUARED SPACING: 0.0625
Info: NONBONDED TABLE SIZE: 705 POINTS
TCL: Running for 1500000 steps
ETITLE: TS BOND ANGLE DIHED IMPRP ELECT VDW BOUNDARY MISC KINETIC TOTAL TEMP POTENTIAL TOTALAVG TEMPAVG PRESSURE GPRESSURE VOLUME PRESSAVG GPRESSAVG
ENERGY: 0 9.3378 6.6932 7.1899 0.0000 -10603.2845 1410.9343 0.0000 0.0000 1780.6079 -7388.5214 302.9218 -9169.1293 -7388.5214 302.9218 -205.2288 -115.9428 30429.9196 -205.2288 -115.9428
ENERGY: 300000 9.7494 7.6931 5.9946 0.0000 -10781.2482 1543.4636 0.0000 0.0000 1798.8398 -7415.5077 306.0234 -9214.3475 -7370.8181 303.4765 957.1583 1031.8642 30305.5981 119.6966 179.6515
ENERGY: 600000 7.3804 7.4749 6.3216 0.0000 -10560.4469 1441.0680 0.0000 0.0000 1741.6516 -7356.5504 296.2944 -9098.2020 -7345.6040 304.1067 345.9912 313.2467 30879.9691 19.7445 72.7306
ENERGY: 900000 7.3450 4.0655 8.4603 0.0000 -10752.8396 1545.0717 0.0000 0.0000 1820.7656 -7367.1315 309.7535 -9187.8971 -7351.8484 303.0202 764.9208 850.5812 30633.0524 24.9281 88.5677
ENERGY: 1200000 6.2155 3.5787 4.5135 0.0000 -10534.4045 1376.8403 0.0000 0.0000 1775.6033 -7367.6532 302.0704 -9143.2565 -7354.9263 302.3131 -240.3081 -125.1692 30147.0882 -45.9497 25.2446
ENERGY: 1500000 7.0594 6.7997 5.0982 0.0000 -10577.1551 1406.9246 0.0000 0.0000 1777.0113 -7374.2620 302.3099 -9151.2733 -7357.9823 302.7486 -200.1886 -225.5939 30350.6546 -23.9657 41.7296
TCL: Running FEP window  12: Lambda1 0.4499999999999996 Lambda2 0.39999999999999963 [dLambda -0.04999999999999999]
TCL: Setting parameter firsttimestep to 0
TCL: Setting parameter alchLambda to 0.4499999999999996
Info: NONBONDED TABLE R-SQUARED SPACING: 0.0625
Info: NONBONDED TABLE SIZE: 705 POINTS
TCL: Setting parameter alchLambda2 to 0.39999999999999963
Info: NONBONDED TABLE R-SQUARED SPACING: 0.0625
Info: NONBONDED TABLE SIZE: 705 POINTS
TCL: Running for 1500000 steps
ETITLE: TS BOND ANGLE DIHED IMPRP ELECT VDW BOUNDARY MISC KINETIC TOTAL TEMP POTENTIAL TOTALAVG TEMPAVG PRESSURE GPRESSURE VOLUME PRESSAVG GPRESSAVG
ENERGY: 0 7.0594 6.7996 5.0982 0.0000 -10577.1547 1407.7146 0.0000 0.0000 1776.1333 -7374.3496 302.1606 -9150.4829 -7374.3496 302.1606 -307.4589 -233.1182 30350.6546 -307.4589 -233.1182
ENERGY: 300000 7.8302 2.7891 7.5558 0.0000 -10473.4878 1385.1763 0.0000 0.0000 1702.6437 -7367.4926 289.6583 -9070.1363 -7382.9033 300.7093 -124.9143 -32.5787 30759.5057 -77.2575 -15.8984
ENERGY: 600000 8.2670 4.9912 7.6918 0.0000 -10592.6344 1348.1889 0.0000 0.0000 1749.1085 -7474.3870 297.5630 -9223.4955 -7430.0521 299.9641 -899.4069 -813.4153 30388.7387 -78.5354 -12.4221
ENERGY: 900000 6.0084 4.1123 5.8861 0.0000 -10536.7265 1360.1544 0.0000 0.0000 1785.7099 -7374.8553 303.7898 -9160.5652 -7421.3342 298.9724 -651.2964 -590.4167 30690.7645 -192.2775 -132.5135
ENERGY: 1200000 9.2797 3.6046 3.7829 0.0000 -10592.1563 1398.1809 0.0000 0.0000 1792.5173 -7384.7909 304.9478 -9177.3082 -7409.5972 300.4254 -456.6021 -418.4584 30394.0524 -174.6635 -107.2266
ENERGY: 1500000 11.7359 4.4319 6.1002 0.0000 -10556.2065 1394.7865 0.0000 0.0000 1736.8254 -7402.3266 295.4734 -9139.1520 -7410.7141 299.6530 -539.5206 -493.3098 30684.7924 -161.5187 -97.3043
TCL: Running FEP window  13: Lambda1 0.39999999999999963 Lambda2 0.34999999999999964 [dLambda -0.04999999999999999]
TCL: Setting parameter firsttimestep to 0
TCL: Setting parameter alchLambda to 0.39999999999999963
Info: NONBONDED TABLE R-SQUARED SPACING: 0.0625
Info: NONBONDED TABLE SIZE: 705 POINTS
TCL: Setting parameter alchLambda2 to 0.34999999999999964
Info: NONBONDED TABLE R-SQUARED SPACING: 0.0625
Info: NONBONDED TABLE SIZE: 705 POINTS
TCL: Running for 1500000 steps
ETITLE: TS BOND ANGLE DIHED IMPRP ELECT VDW BOUNDARY MISC KINETIC TOTAL TEMP POTENTIAL TOTALAVG TEMPAVG PRESSURE GPRESSURE VOLUME PRESSAVG GPRESSAVG
ENERGY: 0 11.7359 4.4319 6.1002 0.0000 -10556.2065 1394.5388 0.0000 0.0000 1735.9596 -7403.4402 295.3261 -9139.3998 -7403.4402 295.3261 -593.5719 -508.5148 30684.7924 -593.5719 -508.5148
ENERGY: 300000 4.5510 4.2596 5.8968 0.0000 -10638.5039 1448.8279 0.0000 0.0000 1712.5275 -7462.4410 291.3398 -9174.9686 -7410.2450 294.9760 162.5280 189.1788 30399.4222 -192.2023 -113.7907
ENERGY: 600000 10.0097 6.2180 6.2356 0.0000 -10694.6859 1396.2669 0.0000 0.0000 1746.2796 -7529.6761 297.0818 -9275.9558 -7426.7286 297.9776 -278.0897 -232.1858 30317.6300 -291.4805 -248.1418
ENERGY: 900000 8.9647 5.6497 7.7100 0.0000 -10690.3343 1452.2708 0.0000 0.0000 1748.1294 -7467.6098 297.3965 -9215.7392 -7431.8540 297.6822 47.7738 80.4742 30499.0580 -238.1188 -201.3611
ENERGY: 1200000 9.5624 6.0487 5.7110 0.0000 -10561.3811 1411.5010 0.0000 0.0000 1806.8864 -7321.6717 307.3924 -9128.5581 -7427.5061 298.8724 -138.0021 -120.1414 30560.9682 -284.9480 -243.4756
ENERGY: 1500000 6.9009 5.0933 5.0673 0.0000 -10507.4653 1362.2286 0.0000 0.0000 1806.7281 -7321.4471 307.3654 -9128.1752 -7416.3091 299.2378 -408.9250 -315.1605 30110.6588 -276.8878 -228.8480
TCL: Running FEP window  14: Lambda1 0.34999999999999964 Lambda2 0.29999999999999966 [dLambda -0.04999999999999999]
TCL: Setting parameter firsttimestep to 0
TCL: Setting parameter alchLambda to 0.34999999999999964
Info: NONBONDED TABLE R-SQUARED SPACING: 0.0625
Info: NONBONDED TABLE SIZE: 705 POINTS
TCL: Setting parameter alchLambda2 to 0.29999999999999966
Info: NONBONDED TABLE R-SQUARED SPACING: 0.0625
Info: NONBONDED TABLE SIZE: 705 POINTS
TCL: Running for 1500000 steps
ETITLE: TS BOND ANGLE DIHED IMPRP ELECT VDW BOUNDARY MISC KINETIC TOTAL TEMP POTENTIAL TOTALAVG TEMPAVG PRESSURE GPRESSURE VOLUME PRESSAVG GPRESSAVG
ENERGY: 0 6.9009 5.0933 5.0673 0.0000 -10507.4662 1362.5334 0.0000 0.0000 1805.8477 -7322.0236 307.2156 -9127.8713 -7322.0236 307.2156 -396.7508 -323.9523 30110.6588 -396.7508 -323.9523
ENERGY: 300000 10.1512 7.7414 4.9541 0.0000 -10641.8937 1494.5576 0.0000 0.0000 1769.4620 -7355.0273 301.0256 -9124.4893 -7391.5649 298.7261 417.8080 459.6734 30354.5057 72.2998 121.9985
ENERGY: 600000 6.1586 6.8394 4.0889 0.0000 -10575.6749 1435.1624 0.0000 0.0000 1743.2754 -7380.1502 296.5707 -9123.4256 -7398.3476 298.9368 95.2112 78.2435 30373.8433 37.6709 96.7284
ENERGY: 900000 9.5850 7.4959 3.7780 0.0000 -10512.7950 1331.1592 0.0000 0.0000 1809.8263 -7350.9506 307.8925 -9160.7769 -7399.2715 299.2328 -964.1570 -882.7477 30401.5845 -108.0526 -51.7186
ENERGY: 1200000 6.4396 4.9161 5.6530 0.0000 -10546.1650 1368.0209 0.0000 0.0000 1766.7942 -7394.3411 300.5718 -9161.1352 -7397.0022 299.9677 -440.7060 -345.2705 30300.3837 -187.7215 -126.6806
ENERGY: 1500000 11.1424 3.2829 4.9962 0.0000 -10649.3384 1476.5709 0.0000 0.0000 1792.9509 -7360.3951 305.0216 -9153.3460 -7391.5965 301.1980 270.7910 338.9019 30476.8476 -114.2460 -50.5357
TCL: Running FEP window  15: Lambda1 0.29999999999999966 Lambda2 0.24999999999999967 [dLambda -0.04999999999999999]
TCL: Setting parameter firsttimestep to 0
TCL: Setting parameter alchLambda to 0.29999999999999966
Info: NONBONDED TABLE R-SQUARED SPACING: 0.0625
Info: NONBONDED TABLE SIZE: 705 POINTS
TCL: Setting parameter alchLambda2 to 0.24999999999999967
Info: NONBONDED TABLE R-SQUARED SPACING: 0.0625
Info: NONBONDED TABLE SIZE: 705 POINTS
TCL: Running for 1500000 steps
ETITLE: TS BOND ANGLE DIHED IMPRP ELECT VDW BOUNDARY MISC KINETIC TOTAL TEMP POTENTIAL TOTALAVG TEMPAVG PRESSURE GPRESSURE VOLUME PRESSAVG GPRESSAVG
ENERGY: 0 11.1424 3.2829 4.9962 0.0000 -10649.3382 1476.5030 0.0000 0.0000 1792.0880 -7361.3258 304.8748 -9153.4137 -7361.3258 304.8748 230.3088 326.8570 30476.8476 230.3088 326.8570
ENERGY: 300000 12.2790 2.7592 6.5889 0.0000 -10673.1305 1476.0324 0.0000 0.0000 1724.8288 -7450.6423 293.4325 -9175.4711 -7406.2675 300.5160 98.0876 103.6017 30522.6864 -148.9185 -111.7487
ENERGY: 600000 5.0709 4.4053 2.9642 0.0000 -10731.5861 1502.5994 0.0000 0.0000 1805.1230 -7411.4232 307.0924 -9216.5462 -7396.9455 301.7537 615.1045 689.8198 29918.6659 -36.2498 18.2879
ENERGY: 900000 8.8180 2.2965 6.9264 0.0000 -10682.7249 1462.2467 0.0000 0.0000 1836.7490 -7365.6884 312.4727 -9202.4373 -7398.2705 301.5076 -36.6088 -8.1233 30665.1432 -52.1016 3.3534
ENERGY: 1200000 8.0149 2.8369 6.3010 0.0000 -10713.7936 1494.0054 0.0000 0.0000 1774.7422 -7427.8932 301.9239 -9202.6354 -7404.9832 301.1175 48.4369 196.4634 30255.3148 55.3826 107.7776
ENERGY: 1500000 3.1103 5.8733 5.4739 0.0000 -10640.4500 1476.9816 0.0000 0.0000 1758.7104 -7390.3005 299.1965 -9149.0109 -7405.7831 300.7204 502.2039 574.2370 30223.9004 47.6651 102.6269
TCL: Running FEP window  16: Lambda1 0.24999999999999967 Lambda2 0.19999999999999968 [dLambda -0.04999999999999999]
TCL: Setting parameter firsttimestep to 0
TCL: Setting parameter alchLambda to 0.24999999999999967
Info: NONBONDED TABLE R-SQUARED SPACING: 0.0625
Info: NONBONDED TABLE SIZE: 705 POINTS
TCL: Setting parameter alchLambda2 to 0.19999999999999968
Info: NONBONDED TABLE R-SQUARED SPACING: 0.0625
Info: NONBONDED TABLE SIZE: 705 POINTS
TCL: Running for 1500000 steps
ETITLE: TS BOND ANGLE DIHED IMPRP ELECT VDW BOUNDARY MISC KINETIC TOTAL TEMP POTENTIAL TOTALAVG TEMPAVG PRESSURE GPRESSURE VOLUME PRESSAVG GPRESSAVG
ENERGY: 0 3.1103 5.8733 5.4739 0.0000 -10640.4495 1478.0403 0.0000 0.0000 1757.8426 -7390.1091 299.0489 -9147.9517 -7390.1091 299.0489 466.0958 573.5499 30223.9004 466.0958 573.5499
ENERGY: 300000 6.1755 8.0646 6.9170 0.0000 -10570.4896 1373.7524 0.0000 0.0000 1698.5176 -7477.0624 288.9564 -9175.5801 -7410.6504 296.8380 -732.4070 -619.0347 30565.0653 -520.9815 -423.6575
ENERGY: 600000 3.6303 2.9178 7.9423 0.0000 -10671.6565 1470.2803 0.0000 0.0000 1813.4891 -7373.3967 308.5156 -9186.8858 -7399.5233 299.5427 383.3761 421.9019 30387.1172 -301.4888 -236.6836
ENERGY: 900000 9.8536 2.2927 5.7229 0.0000 -10655.6833 1467.5961 0.0000 0.0000 1746.6469 -7423.5711 297.1443 -9170.2180 -7409.3393 298.5887 22.8263 73.0962 30341.7463 -308.5054 -243.2528
ENERGY: 1200000 10.3556 5.8034 4.7459 0.0000 -10712.1946 1539.2491 0.0000 0.0000 1864.2527 -7287.7878 317.1517 -9152.0405 -7403.3685 299.7136 792.3277 886.6641 30261.0592 -166.2209 -103.4436
ENERGY: 1500000 7.7790 6.0970 2.2890 0.0000 -10758.2246 1537.5176 0.0000 0.0000 1731.7343 -7472.8077 294.6073 -9204.5420 -7410.8455 299.0263 823.5871 827.4843 30239.6848 -58.9731 3.3479
TCL: Running FEP window  17: Lambda1 0.19999999999999968 Lambda2 0.1499999999999997 [dLambda -0.04999999999999999]
TCL: Setting parameter firsttimestep to 0
TCL: Setting parameter alchLambda to 0.19999999999999968
Info: NONBONDED TABLE R-SQUARED SPACING: 0.0625
Info: NONBONDED TABLE SIZE: 705 POINTS
TCL: Setting parameter alchLambda2 to 0.1499999999999997
Info: NONBONDED TABLE R-SQUARED SPACING: 0.0625
Info: NONBONDED TABLE SIZE: 705 POINTS
TCL: Running for 1500000 steps
ETITLE: TS BOND ANGLE DIHED IMPRP ELECT VDW BOUNDARY MISC KINETIC TOTAL TEMP POTENTIAL TOTALAVG TEMPAVG PRESSURE GPRESSURE VOLUME PRESSAVG GPRESSAVG
ENERGY: 0 7.7790 6.0970 2.2890 0.0000 -10758.2229 1537.4876 0.0000 0.0000 1730.8500 -7473.7203 294.4568 -9204.5703 -7473.7203 294.4568 728.2404 820.8941 30239.6848 728.2404 820.8941
ENERGY: 300000 12.7614 7.1384 7.2339 0.0000 -10682.6834 1471.5866 0.0000 0.0000 1776.5062 -7407.4569 302.2240 -9183.9631 -7396.4258 300.5416 403.4744 495.8707 29895.3633 610.1163 689.2107
ENERGY: 600000 7.9547 4.8175 3.3915 0.0000 -10729.6772 1487.1208 0.0000 0.0000 1792.9618 -7433.4308 305.0235 -9226.3926 -7410.1393 300.2378 21.9084 69.5304 30879.8829 463.3056 521.9738
ENERGY: 900000 6.2720 4.5269 5.3886 0.0000 -10686.0358 1428.8668 0.0000 0.0000 1809.9561 -7431.0255 307.9146 -9240.9816 -7407.8031 300.4742 -549.0879 -444.5802 30425.0409 227.4666 292.9243
ENERGY: 1200000 8.8389 4.3557 5.3896 0.0000 -10690.1753 1475.5705 0.0000 0.0000 1736.8808 -7459.1398 295.4828 -9196.0206 -7417.0886 300.3039 86.9869 209.8309 30166.1302 216.3393 285.3967
ENERGY: 1500000 6.8905 7.2177 3.8124 0.0000 -10621.9904 1487.1730 0.0000 0.0000 1755.1528 -7361.7440 298.5913 -9116.8968 -7415.7710 299.7451 230.2963 262.1845 30448.0495 237.4769 299.6202
TCL: Running FEP window  18: Lambda1 0.1499999999999997 Lambda2 0.09999999999999969 [dLambda -0.05 ]
TCL: Setting parameter firsttimestep to 0
TCL: Setting parameter alchLambda to 0.1499999999999997
Info: NONBONDED TABLE R-SQUARED SPACING: 0.0625
Info: NONBONDED TABLE SIZE: 705 POINTS
TCL: Setting parameter alchLambda2 to 0.09999999999999969
Info: NONBONDED TABLE R-SQUARED SPACING: 0.0625
Info: NONBONDED TABLE SIZE: 705 POINTS
TCL: Running for 1500000 steps
ETITLE: TS BOND ANGLE DIHED IMPRP ELECT VDW BOUNDARY MISC KINETIC TOTAL TEMP POTENTIAL TOTALAVG TEMPAVG PRESSURE GPRESSURE VOLUME PRESSAVG GPRESSAVG
ENERGY: 0 6.8906 7.2177 3.8124 0.0000 -10621.9898 1487.0373 0.0000 0.0000 1754.2776 -7362.7543 298.4424 -9117.0319 -7362.7543 298.4424 163.3216 251.2985 30448.0495 163.3216 251.2985
ENERGY: 300000 6.4871 3.9939 8.2052 0.0000 -10651.3141 1493.6378 0.0000 0.0000 1740.9481 -7398.0420 296.1748 -9138.9901 -7408.9678 300.3995 224.9072 291.6534 30682.9936 -26.8274 45.4316
ENERGY: 600000 8.5244 3.0631 4.9206 0.0000 -10599.2536 1437.0823 0.0000 0.0000 1777.0693 -7368.5939 302.3198 -9145.6632 -7407.6561 299.9552 -10.4800 82.9576 30326.8888 21.7201 87.3110
ENERGY: 900000 8.3960 2.6853 4.7594 0.0000 -10865.6878 1525.9133 0.0000 0.0000 1678.7445 -7645.1892 285.5925 -9323.9337 -7406.6478 299.9872 174.0024 296.8011 29785.8941 133.5826 206.9366
ENERGY: 1200000 11.0288 5.7496 6.4748 0.0000 -10684.1968 1464.5086 0.0000 0.0000 1792.3357 -7404.0993 304.9170 -9196.4350 -7417.7637 300.1468 -8.7443 74.6174 30101.4482 101.0555 172.9879
ENERGY: 1500000 6.4019 6.3002 4.2789 0.0000 -10568.0328 1364.3358 0.0000 0.0000 1787.0534 -7399.6624 304.0183 -9186.7159 -7416.6932 300.1180 -736.5680 -675.0315 30343.4264 36.5199 106.0407
TCL: Running FEP window  19: Lambda1 0.09999999999999969 Lambda2 0.049999999999999684 [dLambda -0.05 ]
TCL: Setting parameter firsttimestep to 0
TCL: Setting parameter alchLambda to 0.09999999999999969
Info: NONBONDED TABLE R-SQUARED SPACING: 0.0625
Info: NONBONDED TABLE SIZE: 705 POINTS
TCL: Setting parameter alchLambda2 to 0.049999999999999684
Info: NONBONDED TABLE R-SQUARED SPACING: 0.0625
Info: NONBONDED TABLE SIZE: 705 POINTS
TCL: Running for 1500000 steps
ETITLE: TS BOND ANGLE DIHED IMPRP ELECT VDW BOUNDARY MISC KINETIC TOTAL TEMP POTENTIAL TOTALAVG TEMPAVG PRESSURE GPRESSURE VOLUME PRESSAVG GPRESSAVG
ENERGY: 0 6.4019 6.3002 4.2789 0.0000 -10568.0321 1363.9867 0.0000 0.0000 1786.1838 -7400.8805 303.8704 -9187.0643 -7400.8805 303.8704 -753.2476 -680.9191 30343.4264 -753.2476 -680.9191
ENERGY: 300000 7.6893 7.8897 6.3305 0.0000 -10717.0393 1431.8207 0.0000 0.0000 1790.0810 -7473.2281 304.5334 -9263.3091 -7418.0301 302.9885 -13.7529 27.3494 29781.6248 -546.1934 -470.4820
ENERGY: 600000 7.5447 5.0496 5.6794 0.0000 -10623.3282 1404.6201 0.0000 0.0000 1788.1019 -7412.3325 304.1967 -9200.4344 -7439.1617 300.2608 -255.3965 -198.8885 29981.9278 -504.7987 -425.3959
ENERGY: 900000 8.5204 3.3465 6.4403 0.0000 -10575.9655 1401.1010 0.0000 0.0000 1753.1241 -7403.4333 298.2462 -9156.5573 -7434.0190 299.8524 63.5466 182.5790 29960.4996 -293.2892 -217.3127
ENERGY: 1200000 6.1534 4.3211 7.7011 0.0000 -10841.9241 1595.0774 0.0000 0.0000 1780.6274 -7448.0437 302.9251 -9228.6711 -7438.1564 299.2579 1275.3274 1267.9879 29892.0498 -96.5033 -24.9329
ENERGY: 1500000 8.0952 6.0424 4.4173 0.0000 -10598.3353 1418.1377 0.0000 0.0000 1760.5358 -7401.1068 299.5071 -9161.6426 -7427.9465 299.9364 -174.9742 -73.8385 30146.4269 -112.0245 -42.7543
TCL: Running FEP window  20: Lambda1 0.049999999999999684 Lambda2 0.0    [dLambda -0.049999999999999684]
TCL: Setting parameter firsttimestep to 0
TCL: Setting parameter alchLambda to 0.049999999999999684
Info: NONBONDED TABLE R-SQUARED SPACING: 0.0625
Info: NONBONDED TABLE SIZE: 705 POINTS
TCL: Setting parameter alchLambda2 to 0.0
Info: NONBONDED TABLE R-SQUARED SPACING: 0.0625
Info: NONBONDED TABLE SIZE: 705 POINTS
TCL: Running for 1500000 steps
ETITLE: TS BOND ANGLE DIHED IMPRP ELECT VDW BOUNDARY MISC KINETIC TOTAL TEMP POTENTIAL TOTALAVG TEMPAVG PRESSURE GPRESSURE VOLUME PRESSAVG GPRESSAVG
ENERGY: 0 8.0952 6.0424 4.4173 0.0000 -10598.3360 1416.8120 0.0000 0.0000 1759.6656 -7403.3034 299.3590 -9162.9690 -7403.3034 299.3590 -170.4423 -85.9702 30146.4269 -170.4423 -85.9702
ENERGY: 300000 10.1903 4.9122 4.4378 0.0000 -10686.1746 1422.3097 0.0000 0.0000 1800.2842 -7444.0404 306.2692 -9244.3245 -7386.9970 301.8388 -123.5526 -74.0963 29978.6848 -17.3772 61.2774
ENERGY: 600000 9.6090 5.2341 3.8316 0.0000 -10708.1529 1542.1895 0.0000 0.0000 1739.2729 -7408.0157 295.8898 -9147.2886 -7408.2913 300.3696 665.9504 738.4054 30293.5772 119.0445 198.7458
ENERGY: 900000 9.1991 8.1313 3.3283 0.0000 -10777.2459 1551.0109 0.0000 0.0000 1767.3674 -7438.2089 300.6693 -9205.5763 -7410.3959 300.9556 708.4831 740.4027 29877.0786 164.5768 236.1557
ENERGY: 1200000 7.6936 6.3932 4.6018 0.0000 -10681.7242 1465.8766 0.0000 0.0000 1792.9295 -7404.2295 305.0180 -9197.1590 -7412.1546 301.9980 509.1755 521.5156 29963.9283 270.6971 337.5569
ENERGY: 1500000 10.1319 6.0737 4.5780 0.0000 -10611.2891 1400.5648 0.0000 0.0000 1728.6328 -7461.3080 294.0796 -9189.9408 -7413.5558 301.7741 -534.1202 -489.4623 30506.1191 151.1305 216.9359
TCL: Exiting due to exit command.
