Info: SIMULATION PARAMETERS:
Info: TIMESTEP               2
Info: NUMBER OF STEPS        0
Info: STEPS PER CYCLE        10
Info: PERIODIC CELL BASIS 1  33.0777 0 0
Info: PERIODIC CELL BASIS 2  0 33.3967 0
Info: PERIODIC CELL BASIS 3  0 0 27.7001
Info: PERIODIC CELL CENTER   0 0 0
Info: WRAPPING WATERS AROUND PERIODIC BOUNDARIES ON OUTPUT.
Info: WRAPPING ALL CLUSTERS AROUND PERIODIC BOUNDARIES ON OUTPUT.
Info: FIRST LDB TIMESTEP     50
Info: LAST LDB TIMESTEP     -1
Info: HOM BACKGROUND SCALING 1
Info: PME BACKGROUND SCALING 1
Info: MIN ATOMS PER PATCH    40
Info: EMPTY PATCH LOAD       40 ATOMS
Info: VELOCITY FILE          mobley_2845466_equil.vel
Info: CENTER OF MASS MOVING INITIALLY? NO
Info: DIELECTRIC             1
Info: EXCLUDE                SCALED ONE-FOUR
Info: 1-4 ELECTROSTATICS SCALED BY 0.833333
Info: MODIFIED 1-4 VDW PARAMETERS WILL BE USED
Info: DCD FILENAME           mobley_2845466_prod.dcd
Info: DCD FREQUENCY          100000
Info: DCD FIRST STEP         100000
Info: DCD FILE WILL CONTAIN UNIT CELL DATA
Info: XST FILENAME           mobley_2845466_prod.xst
Info: XST FREQUENCY          100000
Info: NO VELOCITY DCD OUTPUT
Info: NO FORCE DCD OUTPUT
Info: OUTPUT FILENAME        mobley_2845466_prod
Info: BINARY OUTPUT FILES WILL BE USED
Info: RESTART FILENAME       mobley_2845466_prod.restart
Info: RESTART FREQUENCY      100000
Info: BINARY RESTART FILES WILL BE USED
Info: CUTOFF                 9
Info: PAIRLIST DISTANCE      11
Info: PAIRLIST SHRINK RATE   0.01
Info: PAIRLIST GROW RATE     0.01
Info: PAIRLIST TRIGGER       0.3
Info: PAIRLISTS PER CYCLE    2
Info: PAIRLISTS ENABLED
Info: MARGIN                 2
Info: HYDROGEN GROUP CUTOFF  2.5
Info: PATCH DIMENSION        15.5
Info: ENERGY OUTPUT STEPS    100000
Info: ENERGY EVALUATION STEPS    100000
Info: OUTPUT ENERGY PRECISION 4
Info: CROSSTERM ENERGY INCLUDED IN DIHEDRAL
Info: TIMING OUTPUT STEPS    1000000
Info: PRESSURE OUTPUT STEPS  100000
Info: ALCHEMICAL FEP ON
Info: FEP CURRENT LAMBDA VALUE     1
Info: FEP COMPARISON LAMBDA VALUE  0.95
Info: FEP INTRA-ALCHEMICAL NON-BONDED INTERACTIONS WILL BE RETAINED
Info: FEP INTRA-ALCHEMICAL BONDED INTERACTIONS WILL BE RETAINED
Info: FEP VDW SHIFTING COEFFICIENT 5
Info: FEP ELEC. ACTIVE FOR ANNIHILATED PARTICLES BETWEEN LAMBDA = 0 AND LAMBDA = 0.5
Info: FEP ELEC. ACTIVE FOR EXNIHILATED PARTICLES BETWEEN LAMBDA = 0.5 AND LAMBDA = 1
Info: FEP VDW ACTIVE FOR ANNIHILATED PARTICLES BETWEEN LAMBDA = 0 AND LAMBDA = 1
Info: FEP VDW ACTIVE FOR EXNIHILATED PARTICLES BETWEEN LAMBDA = 0 AND LAMBDA = 1
Info: FEP BOND ACTIVE FOR ANNIHILATED PARTICLES BETWEEN LAMBDA = 1 AND LAMBDA = 1
Info: FEP BOND ACTIVE FOR EXNIHILATED PARTICLES BETWEEN LAMBDA = 0 AND LAMBDA = 0
Info: LANGEVIN DYNAMICS ACTIVE
Info: LANGEVIN TEMPERATURE   300
Info: LANGEVIN USING BBK INTEGRATOR
Info: LANGEVIN DAMPING COEFFICIENT IS 1 INVERSE PS
Info: LANGEVIN DYNAMICS APPLIED TO HYDROGENS
Info: LANGEVIN PISTON PRESSURE CONTROL ACTIVE
Info:        TARGET PRESSURE IS 1.01325 BAR
Info:     OSCILLATION PERIOD IS 50 FS
Info:             DECAY TIME IS 25 FS
Info:     PISTON TEMPERATURE IS 300 K
Info:       PRESSURE CONTROL IS GROUP-BASED
Info:    INITIAL STRAIN RATE IS 0.000357741 0.000357741 0.000357741
Info:       CELL FLUCTUATION IS ISOTROPIC
Info: PARTICLE MESH EWALD (PME) ACTIVE
Info: PME TOLERANCE               1e-06
Info: PME EWALD COEFFICIENT       0.348832
Info: PME INTERPOLATION ORDER     4
Info: PME GRID DIMENSIONS         36 36 28
Info: PME MAXIMUM GRID SPACING    1
Info: PME CALCULATION WILL BE PERFORMED ON GPU
Info: FULL ELECTROSTATIC EVALUATION FREQUENCY      2
Info: USING VERLET I (r-RESPA) MTS SCHEME.
Info: C1 SPLITTING OF LONG RANGE ELECTROSTATICS
Info: PLACING ATOMS IN PATCHES BY HYDROGEN GROUPS
Info: RIGID BONDS TO HYDROGEN : ALL
Info:         ERROR TOLERANCE : 1e-08
Info:          MAX ITERATIONS : 100
Info: RIGID WATER USING SETTLE ALGORITHM
Info: RANDOM NUMBER SEED     1743643511
Info: USE HYDROGEN BONDS?    NO
Info: Using AMBER format force field!
Info: AMBER PARM FILE        mobley_2845466.prmtop
Info: COORDINATE PDB         mobley_2845466.pdb
Info: Exclusions will be read from PARM file!
Info: SCNB (VDW SCALING)     2
Info: USING ARITHMETIC MEAN TO COMBINE L-J SIGMA PARAMETERS
Info: BINARY COORDINATES     mobley_2845466_equil.coor
Info: SUMMARY OF PARAMETERS:
Info: 6 BONDS
Info: 5 ANGLES
Info:   5 HARMONIC
Info:   0 COSINE-BASED
Info: 3 DIHEDRAL
Info: 0 IMPROPER
Info: 0 CROSSTERM
Info: 0 VDW
Info: 21 VDW_PAIRS
Info: 0 NBTHOLE_PAIRS
Info: To read alchdata from file: mobley_2845466.pdb
Info: To read alchflag data from column: 5
Info: STRUCTURE SUMMARY:
Info: 2929 ATOMS
Info: 2931 BONDS
Info: 38 ANGLES
Info: 68 DIHEDRALS
Info: 0 IMPROPERS
Info: 0 CROSSTERMS
Info: 3016 EXCLUSIONS
Info: 2911 RIGID BONDS
Info: ALCH: 0 ATOMS TO DISAPPEAR IN FINAL STATE
Info: ALCH: 22 ATOMS TO APPEAR IN FINAL STATE
Info: 5876 DEGREES OF FREEDOM
Info: 987 HYDROGEN GROUPS
Info: 3 ATOMS IN LARGEST HYDROGEN GROUP
Info: 987 MIGRATION GROUPS
Info: 3 ATOMS IN LARGEST MIGRATION GROUP
Info: TOTAL MASS = 17779.5 amu
Info: TOTAL CHARGE = 0.000300042 e
Info: MASS DENSITY = 0.964847 g/cm^3
Info: ATOM DENSITY = 0.0957194 atoms/A^3
Info: ADDED 0 IMPLICIT EXCLUSIONS
Info: NONBONDED TABLE R-SQUARED SPACING: 0.0625
Info: NONBONDED TABLE SIZE: 705 POINTS
Info: REDUCING NUMBER OF PATCHES TO IMPROVE LOAD BALANCE
Info: REMOVING COM VELOCITY -0.00234028 -0.0526212 0.0316456
Info: Use 3D box decompostion in PME FFT.
Info: Updated CUDA force table with 4096 elements.
Info: Updated CUDA LJ table with 6 x 6 elements.
Info: Found 25 unique exclusion lists needing 72 bytes
TCL: Running for 1500000 steps
ETITLE: TS BOND ANGLE DIHED IMPRP ELECT VDW BOUNDARY MISC KINETIC TOTAL TEMP POTENTIAL TOTALAVG TEMPAVG PRESSURE GPRESSURE VOLUME PRESSAVG GPRESSAVG
ENERGY: 0 8.7427 5.4852 3.4321 0.0000 -10688.7241 1459.1486 0.0000 0.0000 1749.5637 -7462.3519 299.6666 -9211.9156 -7462.3519 299.6666 -126.3492 -45.6441 30599.8539 -126.3492 -45.6441
ENERGY: 300000 5.1661 3.5677 3.6351 0.0000 -10567.4362 1446.9441 0.0000 0.0000 1765.7088 -7342.4146 302.4320 -9108.1233 -7395.9969 301.7366 439.1338 499.5469 29855.3811 -38.6279 9.8441
ENERGY: 600000 5.2032 4.4251 5.6427 0.0000 -10583.8171 1412.9382 0.0000 0.0000 1756.6003 -7399.0077 300.8718 -9155.6080 -7372.1185 302.2344 41.5335 127.2539 30062.1797 -140.1387 -75.3054
ENERGY: 900000 3.1301 2.8131 3.8511 0.0000 -10488.9333 1412.3254 0.0000 0.0000 1737.7582 -7329.0556 297.6445 -9066.8137 -7378.2250 301.1903 178.2805 264.0507 30483.9814 -62.8914 3.1076
ENERGY: 1200000 9.1252 5.5419 4.6448 0.0000 -10544.3274 1363.2867 0.0000 0.0000 1756.3985 -7405.3303 300.8373 -9161.7288 -7385.7465 301.3214 -498.2183 -396.3904 30458.3214 -21.7630 52.0374
ENERGY: 1500000 4.6339 2.5908 4.6050 0.0000 -10608.4689 1399.1493 0.0000 0.0000 1802.1912 -7395.2986 308.6807 -9197.4899 -7387.9749 301.1458 104.8031 183.7615 29849.7458 -105.2242 -27.9208
TCL: Running FEP window   2: Lambda1 0.95   Lambda2 0.8999999999999999 [dLambda -0.050000000000000044]
TCL: Setting parameter firsttimestep to 0
TCL: Setting parameter alchLambda to 0.95
Info: NONBONDED TABLE R-SQUARED SPACING: 0.0625
Info: NONBONDED TABLE SIZE: 705 POINTS
TCL: Setting parameter alchLambda2 to 0.8999999999999999
Info: NONBONDED TABLE R-SQUARED SPACING: 0.0625
Info: NONBONDED TABLE SIZE: 705 POINTS
TCL: Running for 1500000 steps
ETITLE: TS BOND ANGLE DIHED IMPRP ELECT VDW BOUNDARY MISC KINETIC TOTAL TEMP POTENTIAL TOTALAVG TEMPAVG PRESSURE GPRESSURE VOLUME PRESSAVG GPRESSAVG
ENERGY: 0 4.6339 2.5908 4.6050 0.0000 -10608.0979 1400.4407 0.0000 0.0000 1801.3686 -7394.4589 308.5398 -9195.8275 -7394.4589 308.5398 95.5198 178.2589 29849.7458 95.5198 178.2589
ENERGY: 300000 5.9614 6.3354 7.4631 0.0000 -10628.0874 1495.4661 0.0000 0.0000 1717.5245 -7395.3369 294.1789 -9112.8615 -7405.5928 300.8114 725.4076 762.8139 30246.7417 310.6558 351.0315
ENERGY: 600000 5.4448 5.3906 10.2500 0.0000 -10458.7005 1370.7609 0.0000 0.0000 1745.7716 -7321.0825 299.0171 -9066.8542 -7397.7347 299.2071 -194.0576 -95.4270 30567.0365 198.6318 247.8108
ENERGY: 900000 6.7261 6.4264 6.5711 0.0000 -10527.6926 1343.6436 0.0000 0.0000 1761.2530 -7403.0723 301.6688 -9164.3253 -7404.0841 300.3944 -897.2683 -919.8772 30601.7238 56.7549 110.5036
ENERGY: 1200000 4.2882 4.4691 6.9850 0.0000 -10658.3598 1449.1917 0.0000 0.0000 1795.9206 -7397.5052 307.6066 -9193.4258 -7403.5063 300.4805 276.6223 338.6652 30139.1958 -22.0605 26.7200
ENERGY: 1500000 6.6512 4.5682 4.8089 0.0000 -10556.7611 1391.4146 0.0000 0.0000 1736.1895 -7413.1287 297.3759 -9149.3182 -7391.6066 300.7491 -359.5404 -326.3110 30511.6768 7.5150 52.3123
TCL: Running FEP window   3: Lambda1 0.8999999999999999 Lambda2 0.8499999999999999 [dLambda -0.050000000000000044]
TCL: Setting parameter firsttimestep to 0
TCL: Setting parameter alchLambda to 0.8999999999999999
Info: NONBONDED TABLE R-SQUARED SPACING: 0.0625
Info: NONBONDED TABLE SIZE: 705 POINTS
TCL: Setting parameter alchLambda2 to 0.8499999999999999
Info: NONBONDED TABLE R-SQUARED SPACING: 0.0625
Info: NONBONDED TABLE SIZE: 705 POINTS
TCL: Running for 1500000 steps
ETITLE: TS BOND ANGLE DIHED IMPRP ELECT VDW BOUNDARY MISC KINETIC TOTAL TEMP POTENTIAL TOTALAVG TEMPAVG PRESSURE GPRESSURE VOLUME PRESSAVG GPRESSAVG
ENERGY: 0 6.6512 4.5682 4.8089 0.0000 -10556.5370 1391.4411 0.0000 0.0000 1735.3198 -7413.7479 297.2269 -9149.0676 -7413.7479 297.2269 -406.3687 -351.8722 30511.6768 -406.3687 -351.8722
ENERGY: 300000 7.3761 2.9811 4.8954 0.0000 -10568.7251 1416.6011 0.0000 0.0000 1769.5290 -7367.3424 303.0863 -9136.8715 -7408.8344 297.8202 31.8896 85.2114 30018.8050 -369.5387 -307.5766
ENERGY: 600000 6.6406 6.7528 3.0029 0.0000 -10572.2108 1405.3759 0.0000 0.0000 1728.8143 -7421.6244 296.1126 -9150.4387 -7409.2658 300.4622 -376.7805 -294.6470 30568.5881 -364.5312 -298.6932
ENERGY: 900000 6.6206 4.8716 6.0501 0.0000 -10637.4824 1439.3711 0.0000 0.0000 1778.5225 -7402.0464 304.6267 -9180.5689 -7417.8648 300.9443 -164.5774 -60.1102 30360.9234 -240.8262 -173.4937
ENERGY: 1200000 7.8126 4.4369 4.8982 0.0000 -10427.7486 1287.3684 0.0000 0.0000 1716.6952 -7406.5371 294.0369 -9123.2324 -7413.4925 300.4544 -993.4891 -910.0264 30423.0085 -276.3738 -202.9439
ENERGY: 1500000 7.4790 3.9872 4.4809 0.0000 -10632.6752 1399.8182 0.0000 0.0000 1740.2943 -7476.6155 298.0789 -9216.9098 -7414.5253 300.2651 -333.1877 -259.3287 30196.7879 -232.4541 -157.3286
TCL: Running FEP window   4: Lambda1 0.8499999999999999 Lambda2 0.7999999999999998 [dLambda -0.050000000000000044]
TCL: Setting parameter firsttimestep to 0
TCL: Setting parameter alchLambda to 0.8499999999999999
Info: NONBONDED TABLE R-SQUARED SPACING: 0.0625
Info: NONBONDED TABLE SIZE: 705 POINTS
TCL: Setting parameter alchLambda2 to 0.7999999999999998
Info: NONBONDED TABLE R-SQUARED SPACING: 0.0625
Info: NONBONDED TABLE SIZE: 705 POINTS
TCL: Running for 1500000 steps
ETITLE: TS BOND ANGLE DIHED IMPRP ELECT VDW BOUNDARY MISC KINETIC TOTAL TEMP POTENTIAL TOTALAVG TEMPAVG PRESSURE GPRESSURE VOLUME PRESSAVG GPRESSAVG
ENERGY: 0 7.4790 3.9872 4.4809 0.0000 -10632.2721 1399.8837 0.0000 0.0000 1739.4313 -7477.0100 297.9311 -9216.4413 -7477.0100 297.9311 -356.2562 -274.1989 30196.7879 -356.2562 -274.1989
ENERGY: 300000 6.8495 9.5980 5.9582 0.0000 -10493.7136 1356.5504 0.0000 0.0000 1778.5060 -7336.2514 304.6239 -9114.7575 -7385.4172 300.6055 -579.5187 -461.1515 30376.0609 -424.1826 -347.7440
ENERGY: 600000 6.0406 8.3919 4.3678 0.0000 -10615.2484 1457.8845 0.0000 0.0000 1735.6073 -7402.9563 297.2761 -9138.5636 -7372.2708 301.3470 518.1007 558.8382 29967.2738 -270.9128 -207.3459
ENERGY: 900000 7.8881 3.9883 7.9497 0.0000 -10579.5758 1429.7704 0.0000 0.0000 1769.3278 -7360.6515 303.0518 -9129.9793 -7374.2363 301.2459 -36.6827 -32.8879 30367.9002 -198.1880 -132.5843
ENERGY: 1200000 6.0036 5.8576 6.8321 0.0000 -10591.4912 1459.3114 0.0000 0.0000 1738.1028 -7375.3837 297.7036 -9113.4864 -7386.2333 300.1449 354.1098 421.6775 30324.3342 -163.9246 -96.3519
ENERGY: 1500000 9.3595 5.8463 6.5816 0.0000 -10574.3419 1405.2033 0.0000 0.0000 1755.6957 -7391.6555 300.7169 -9147.3512 -7385.1321 300.6700 -193.4448 -171.8146 30592.8365 -157.3556 -92.6513
TCL: Running FEP window   5: Lambda1 0.7999999999999998 Lambda2 0.7499999999999998 [dLambda -0.050000000000000044]
TCL: Setting parameter firsttimestep to 0
TCL: Setting parameter alchLambda to 0.7999999999999998
Info: NONBONDED TABLE R-SQUARED SPACING: 0.0625
Info: NONBONDED TABLE SIZE: 705 POINTS
TCL: Setting parameter alchLambda2 to 0.7499999999999998
Info: NONBONDED TABLE R-SQUARED SPACING: 0.0625
Info: NONBONDED TABLE SIZE: 705 POINTS
TCL: Running for 1500000 steps
ETITLE: TS BOND ANGLE DIHED IMPRP ELECT VDW BOUNDARY MISC KINETIC TOTAL TEMP POTENTIAL TOTALAVG TEMPAVG PRESSURE GPRESSURE VOLUME PRESSAVG GPRESSAVG
ENERGY: 0 9.3595 5.8463 6.5816 0.0000 -10573.9046 1406.1242 0.0000 0.0000 1754.8105 -7391.1825 300.5653 -9145.9930 -7391.1825 300.5653 -268.7163 -179.1466 30592.8365 -268.7163 -179.1466
ENERGY: 300000 9.9894 6.6464 7.4497 0.0000 -10392.2549 1290.2267 0.0000 0.0000 1838.4334 -7239.5093 314.8883 -9077.9427 -7355.4888 303.8671 -1026.0692 -1016.6827 30616.8481 -466.5750 -402.5893
ENERGY: 600000 5.0685 5.3281 5.6426 0.0000 -10612.9882 1432.6680 0.0000 0.0000 1745.2973 -7418.9837 298.9359 -9164.2810 -7379.3487 302.0935 147.7717 219.1232 30176.5433 -164.9307 -110.1060
ENERGY: 900000 4.6209 2.4729 5.6999 0.0000 -10659.6758 1499.4034 0.0000 0.0000 1794.4458 -7353.0330 307.3540 -9147.4787 -7371.7441 302.2640 760.0817 803.4901 30162.9298 -20.9927 38.8546
ENERGY: 1200000 5.1422 5.7729 5.5338 0.0000 -10676.4022 1477.8690 0.0000 0.0000 1708.1454 -7473.9389 292.5724 -9182.0842 -7386.8761 300.1002 160.5303 244.4267 30140.5980 -3.4863 59.2709
ENERGY: 1500000 7.4348 2.3239 6.6367 0.0000 -10626.5224 1433.8569 0.0000 0.0000 1738.3857 -7437.8844 297.7520 -9176.2700 -7388.7988 299.9769 -62.5367 88.2232 30410.4963 -68.9852 3.2832
TCL: Running FEP window   6: Lambda1 0.7499999999999998 Lambda2 0.6999999999999997 [dLambda -0.050000000000000044]
TCL: Setting parameter firsttimestep to 0
TCL: Setting parameter alchLambda to 0.7499999999999998
Info: NONBONDED TABLE R-SQUARED SPACING: 0.0625
Info: NONBONDED TABLE SIZE: 705 POINTS
TCL: Setting parameter alchLambda2 to 0.6999999999999997
Info: NONBONDED TABLE R-SQUARED SPACING: 0.0625
Info: NONBONDED TABLE SIZE: 705 POINTS
TCL: Running for 1500000 steps
ETITLE: TS BOND ANGLE DIHED IMPRP ELECT VDW BOUNDARY MISC KINETIC TOTAL TEMP POTENTIAL TOTALAVG TEMPAVG PRESSURE GPRESSURE VOLUME PRESSAVG GPRESSAVG
ENERGY: 0 7.4349 2.3239 6.6367 0.0000 -10625.7809 1434.1717 0.0000 0.0000 1737.5191 -7437.6946 297.6036 -9175.2137 -7437.6946 297.6036 -7.1160 77.7693 30410.4963 -7.1160 77.7693
ENERGY: 300000 6.9921 5.9812 6.9214 0.0000 -10638.4270 1431.6470 0.0000 0.0000 1697.0913 -7489.7941 290.6791 -9186.8853 -7411.2912 298.1247 -109.0416 -39.8146 30079.1353 327.0647 420.1072
ENERGY: 600000 4.4259 3.9397 5.1873 0.0000 -10602.4464 1438.5844 0.0000 0.0000 1750.2654 -7400.0436 299.7868 -9150.3090 -7392.5842 299.3424 10.3483 89.5362 30457.4111 218.6124 292.8865
ENERGY: 900000 6.3075 4.1997 5.3792 0.0000 -10698.9719 1454.6949 0.0000 0.0000 1719.6664 -7508.7241 294.5458 -9228.3905 -7392.0061 299.4983 -124.5998 -41.1095 30136.9485 76.2970 143.1393
ENERGY: 1200000 5.5594 3.8405 3.0062 0.0000 -10484.3986 1267.6067 0.0000 0.0000 1706.4579 -7497.9279 292.2834 -9204.3859 -7409.4626 297.7803 -1323.5666 -1287.6939 30183.1071 -31.2530 32.0056
ENERGY: 1500000 7.9389 2.1607 6.2464 0.0000 -10630.0757 1386.0844 0.0000 0.0000 1739.7169 -7487.9286 297.9800 -9227.6454 -7410.7482 297.0890 -481.0243 -403.8104 29752.1562 -134.3437 -70.5354
TCL: Running FEP window   7: Lambda1 0.6999999999999997 Lambda2 0.6499999999999997 [dLambda -0.050000000000000044]
TCL: Setting parameter firsttimestep to 0
TCL: Setting parameter alchLambda to 0.6999999999999997
Info: NONBONDED TABLE R-SQUARED SPACING: 0.0625
Info: NONBONDED TABLE SIZE: 705 POINTS
TCL: Setting parameter alchLambda2 to 0.6499999999999997
Info: NONBONDED TABLE R-SQUARED SPACING: 0.0625
Info: NONBONDED TABLE SIZE: 705 POINTS
TCL: Running for 1500000 steps
ETITLE: TS BOND ANGLE DIHED IMPRP ELECT VDW BOUNDARY MISC KINETIC TOTAL TEMP POTENTIAL TOTALAVG TEMPAVG PRESSURE GPRESSURE VOLUME PRESSAVG GPRESSAVG
ENERGY: 0 7.9389 2.1607 6.2464 0.0000 -10629.5295 1386.2388 0.0000 0.0000 1738.8751 -7488.0696 297.8359 -9226.9448 -7488.0696 297.8359 -507.1945 -422.6931 29752.1562 -507.1945 -422.6931
ENERGY: 300000 6.5507 7.6239 3.6303 0.0000 -10429.1473 1386.2570 0.0000 0.0000 1771.7195 -7253.3658 303.4615 -9025.0853 -7370.8099 299.2373 -160.0351 -61.2807 30749.5321 -360.3789 -267.3595
ENERGY: 600000 4.2085 8.3124 4.3876 0.0000 -10579.6124 1473.7400 0.0000 0.0000 1709.4344 -7379.5295 292.7932 -9088.9639 -7408.5807 296.1310 602.6642 662.4078 30102.2000 -64.9260 15.4208
ENERGY: 900000 8.5060 4.9893 5.6086 0.0000 -10533.6681 1374.6023 0.0000 0.0000 1720.0356 -7419.9262 294.6090 -9139.9618 -7396.0812 297.1729 -311.2430 -248.2156 30277.3069 -178.0724 -101.0809
ENERGY: 1200000 10.3632 4.3729 3.2166 0.0000 -10504.5576 1354.9905 0.0000 0.0000 1777.4064 -7354.2080 304.4355 -9131.6144 -7395.6772 298.4507 -415.0650 -369.3811 30103.6126 -173.8603 -91.2879
ENERGY: 1500000 7.2211 10.1708 3.9415 0.0000 -10656.2935 1468.3656 0.0000 0.0000 1739.1519 -7427.4427 297.8833 -9166.5946 -7392.6508 298.6455 43.2048 125.5339 30526.1722 -109.8291 -31.6187
TCL: Running FEP window   8: Lambda1 0.6499999999999997 Lambda2 0.5999999999999996 [dLambda -0.050000000000000044]
TCL: Setting parameter firsttimestep to 0
TCL: Setting parameter alchLambda to 0.6499999999999997
Info: NONBONDED TABLE R-SQUARED SPACING: 0.0625
Info: NONBONDED TABLE SIZE: 705 POINTS
TCL: Setting parameter alchLambda2 to 0.5999999999999996
Info: NONBONDED TABLE R-SQUARED SPACING: 0.0625
Info: NONBONDED TABLE SIZE: 705 POINTS
TCL: Running for 1500000 steps
ETITLE: TS BOND ANGLE DIHED IMPRP ELECT VDW BOUNDARY MISC KINETIC TOTAL TEMP POTENTIAL TOTALAVG TEMPAVG PRESSURE GPRESSURE VOLUME PRESSAVG GPRESSAVG
ENERGY: 0 7.2211 10.1708 3.9415 0.0000 -10656.3332 1469.2861 0.0000 0.0000 1738.3129 -7427.4007 297.7396 -9165.7137 -7427.4007 297.7396 35.1866 121.8577 30526.1722 35.1866 121.8577
ENERGY: 300000 4.3880 3.2175 8.5697 0.0000 -10450.4280 1376.3665 0.0000 0.0000 1725.0563 -7332.8301 295.4690 -9057.8864 -7375.5849 296.3979 -183.2752 -82.0869 30369.0343 -179.4939 -86.1811
ENERGY: 600000 5.6342 2.3715 7.0754 0.0000 -10567.2051 1352.4951 0.0000 0.0000 1774.9688 -7424.6601 304.0180 -9199.6289 -7373.2358 300.4475 -1000.7504 -982.3520 30538.0563 -192.8595 -112.7480
ENERGY: 900000 2.6321 4.8548 6.3835 0.0000 -10552.4152 1367.2894 0.0000 0.0000 1736.5435 -7434.7119 297.4365 -9171.2554 -7387.0376 299.6585 -250.7753 -195.0027 29805.6309 -222.2194 -145.6843
ENERGY: 1200000 5.9646 3.2629 6.5049 0.0000 -10486.2011 1301.1583 0.0000 0.0000 1710.4993 -7458.8112 292.9756 -9169.3105 -7388.6575 299.0090 -1287.6007 -1254.7425 30528.2069 -221.1390 -145.6960
ENERGY: 1500000 4.8994 5.8020 5.3000 0.0000 -10515.5103 1322.7712 0.0000 0.0000 1724.0257 -7452.7121 295.2924 -9176.7378 -7387.8628 298.7463 -988.4235 -976.0636 30266.3180 -244.8280 -179.4986
TCL: Running FEP window   9: Lambda1 0.5999999999999996 Lambda2 0.5499999999999996 [dLambda -0.050000000000000044]
TCL: Setting parameter firsttimestep to 0
TCL: Setting parameter alchLambda to 0.5999999999999996
Info: NONBONDED TABLE R-SQUARED SPACING: 0.0625
Info: NONBONDED TABLE SIZE: 705 POINTS
TCL: Setting parameter alchLambda2 to 0.5499999999999996
Info: NONBONDED TABLE R-SQUARED SPACING: 0.0625
Info: NONBONDED TABLE SIZE: 705 POINTS
TCL: Running for 1500000 steps
ETITLE: TS BOND ANGLE DIHED IMPRP ELECT VDW BOUNDARY MISC KINETIC TOTAL TEMP POTENTIAL TOTALAVG TEMPAVG PRESSURE GPRESSURE VOLUME PRESSAVG GPRESSAVG
ENERGY: 0 4.8994 5.8020 5.3000 0.0000 -10515.2210 1323.1292 0.0000 0.0000 1723.1506 -7452.9398 295.1426 -9176.0904 -7452.9398 295.1426 -1050.5877 -989.6052 30266.3180 -1050.5877 -989.6052
ENERGY: 300000 4.5317 4.2085 6.4252 0.0000 -10522.0888 1363.8170 0.0000 0.0000 1782.5890 -7360.5174 305.3232 -9143.1064 -7414.9795 298.6025 -585.9805 -477.6912 30262.1724 -664.7015 -589.2987
ENERGY: 600000 2.8201 6.2988 4.5223 0.0000 -10598.0453 1461.3002 0.0000 0.0000 1742.7892 -7380.3147 298.5063 -9123.1039 -7393.3270 299.4048 652.2075 658.8984 30067.5008 -440.4143 -373.1186
ENERGY: 900000 9.0024 6.0439 7.8183 0.0000 -10602.8735 1395.6067 0.0000 0.0000 1745.3868 -7439.0155 298.9512 -9184.4022 -7413.0134 298.5536 -240.8130 -180.5101 30196.8327 -331.1051 -263.2758
ENERGY: 1200000 10.0277 3.1085 6.6139 0.0000 -10561.3379 1392.2501 0.0000 0.0000 1804.7302 -7344.6074 309.1156 -9149.3376 -7401.1489 299.7333 -605.3497 -518.1500 30416.0230 -319.7324 -246.4032
ENERGY: 1500000 8.0409 4.9789 9.5322 0.0000 -10432.3657 1320.9594 0.0000 0.0000 1738.9740 -7349.8803 297.8528 -9088.8543 -7392.6476 300.3101 -725.8381 -655.9879 30556.0317 -371.1169 -300.6014
TCL: Running FEP window  10: Lambda1 0.5499999999999996 Lambda2 0.4999999999999996 [dLambda -0.04999999999999999]
TCL: Setting parameter firsttimestep to 0
TCL: Setting parameter alchLambda to 0.5499999999999996
Info: NONBONDED TABLE R-SQUARED SPACING: 0.0625
Info: NONBONDED TABLE SIZE: 705 POINTS
TCL: Setting parameter alchLambda2 to 0.4999999999999996
Info: NONBONDED TABLE R-SQUARED SPACING: 0.0625
Info: NONBONDED TABLE SIZE: 705 POINTS
TCL: Running for 1500000 steps
ETITLE: TS BOND ANGLE DIHED IMPRP ELECT VDW BOUNDARY MISC KINETIC TOTAL TEMP POTENTIAL TOTALAVG TEMPAVG PRESSURE GPRESSURE VOLUME PRESSAVG GPRESSAVG
ENERGY: 0 8.0409 4.9789 9.5322 0.0000 -10432.4773 1321.2403 0.0000 0.0000 1738.1306 -7350.5543 297.7083 -9088.6850 -7350.5543 297.7083 -749.5432 -664.7894 30556.0317 -749.5432 -664.7894
ENERGY: 300000 5.7755 6.5694 4.1554 0.0000 -10607.5248 1416.5086 0.0000 0.0000 1758.4667 -7416.0491 301.1915 -9174.5158 -7380.5656 301.2008 -252.6419 -169.5594 30400.2335 -273.0579 -210.5635
ENERGY: 600000 7.3946 4.0105 5.4770 0.0000 -10511.1048 1401.0397 0.0000 0.0000 1733.8404 -7359.3425 296.9735 -9093.1830 -7366.9817 301.8402 -165.2656 -159.1782 30580.4173 -189.6943 -137.4993
ENERGY: 900000 5.3757 5.1463 6.7366 0.0000 -10489.3176 1365.0557 0.0000 0.0000 1802.2652 -7304.7381 308.6934 -9107.0033 -7364.9045 302.7472 -267.8756 -283.4351 30310.9359 -91.4532 -46.2837
ENERGY: 1200000 6.4564 3.3953 5.8307 0.0000 -10621.4038 1476.5447 0.0000 0.0000 1770.0562 -7359.1205 303.1766 -9129.1767 -7362.8513 302.0379 590.2171 649.7645 30036.3978 -52.0004 -4.8223
ENERGY: 1500000 9.2651 7.9447 7.5926 0.0000 -10513.1265 1420.3482 0.0000 0.0000 1700.3081 -7367.6678 291.2301 -9067.9759 -7372.8848 300.3938 -22.4395 79.2654 30365.8696 -27.9917 25.4916
TCL: Running FEP window  11: Lambda1 0.4999999999999996 Lambda2 0.4499999999999996 [dLambda -0.04999999999999999]
TCL: Setting parameter firsttimestep to 0
TCL: Setting parameter alchLambda to 0.4999999999999996
Info: NONBONDED TABLE R-SQUARED SPACING: 0.0625
Info: NONBONDED TABLE SIZE: 705 POINTS
TCL: Setting parameter alchLambda2 to 0.4499999999999996
Info: NONBONDED TABLE R-SQUARED SPACING: 0.0625
Info: NONBONDED TABLE SIZE: 705 POINTS
TCL: Running for 1500000 steps
ETITLE: TS BOND ANGLE DIHED IMPRP ELECT VDW BOUNDARY MISC KINETIC TOTAL TEMP POTENTIAL TOTALAVG TEMPAVG PRESSURE GPRESSURE VOLUME PRESSAVG GPRESSAVG
ENERGY: 0 9.2651 7.9447 7.5926 0.0000 -10513.2246 1421.0879 0.0000 0.0000 1699.4491 -7367.8852 291.0829 -9067.3343 -7367.8852 291.0829 -14.9046 73.2364 30365.8696 -14.9046 73.2364
ENERGY: 300000 6.7880 5.6509 4.9492 0.0000 -10565.0497 1372.9731 0.0000 0.0000 1731.1143 -7443.5742 296.5066 -9174.6885 -7403.3563 294.1264 -521.1591 -452.4278 30220.8367 49.4153 132.8428
ENERGY: 600000 8.4295 3.5495 5.9595 0.0000 -10647.6296 1458.5248 0.0000 0.0000 1753.5685 -7417.5977 300.3526 -9171.1662 -7377.2541 299.3432 173.1560 252.5609 30143.8530 -6.3495 71.9087
ENERGY: 900000 3.5115 7.5136 5.1264 0.0000 -10678.6440 1451.9514 0.0000 0.0000 1745.5681 -7464.9730 298.9822 -9210.5411 -7391.5011 298.9466 -31.6789 44.5831 30429.5214 -28.6532 31.4044
ENERGY: 1200000 6.3199 3.4477 7.6626 0.0000 -10662.8704 1430.7462 0.0000 0.0000 1753.4567 -7461.2372 300.3334 -9214.6940 -7396.3801 299.4270 -536.9881 -470.1143 30610.5036 -66.0785 -6.2547
ENERGY: 1500000 9.9975 5.9461 8.6105 0.0000 -10688.7763 1420.0149 0.0000 0.0000 1768.0740 -7476.1333 302.8371 -9244.2073 -7398.0261 299.8731 -60.3689 58.5663 29444.9950 -44.4996 23.1399
TCL: Running FEP window  12: Lambda1 0.4499999999999996 Lambda2 0.39999999999999963 [dLambda -0.04999999999999999]
TCL: Setting parameter firsttimestep to 0
TCL: Setting parameter alchLambda to 0.4499999999999996
Info: NONBONDED TABLE R-SQUARED SPACING: 0.0625
Info: NONBONDED TABLE SIZE: 705 POINTS
TCL: Setting parameter alchLambda2 to 0.39999999999999963
Info: NONBONDED TABLE R-SQUARED SPACING: 0.0625
Info: NONBONDED TABLE SIZE: 705 POINTS
TCL: Running for 1500000 steps
ETITLE: TS BOND ANGLE DIHED IMPRP ELECT VDW BOUNDARY MISC KINETIC TOTAL TEMP POTENTIAL TOTALAVG TEMPAVG PRESSURE GPRESSURE VOLUME PRESSAVG GPRESSAVG
ENERGY: 0 9.9975 5.9461 8.6105 0.0000 -10688.7772 1421.1863 0.0000 0.0000 1767.2213 -7475.8155 302.6910 -9243.0368 -7475.8155 302.6910 -23.3795 54.6693 29444.9950 -23.3795 54.6693
ENERGY: 300000 5.9168 5.3946 5.8757 0.0000 -10548.7956 1390.7540 0.0000 0.0000 1800.0798 -7340.7748 308.3190 -9140.8545 -7387.1237 301.5212 -179.7871 -190.1896 29996.2967 -187.2166 -147.8859
ENERGY: 600000 8.7597 8.2240 3.9427 0.0000 -10479.6898 1305.0378 0.0000 0.0000 1776.6037 -7377.1218 304.2980 -9153.7256 -7391.1419 301.2226 -1177.3162 -1087.8666 30215.9026 -336.9630 -290.0917
ENERGY: 900000 7.7156 5.5984 7.6048 0.0000 -10506.4715 1356.7984 0.0000 0.0000 1783.8572 -7344.8971 305.5404 -9128.7543 -7383.9803 301.7705 -798.6840 -760.5602 30478.8686 -305.7952 -256.0363
ENERGY: 1200000 9.3683 3.3719 3.2242 0.0000 -10550.1279 1399.6273 0.0000 0.0000 1741.4289 -7393.1073 298.2733 -9134.5362 -7383.1168 301.2963 -165.8085 -161.9745 30332.0457 -271.6111 -221.9360
ENERGY: 1500000 5.6132 5.5231 4.4894 0.0000 -10544.5257 1399.8991 0.0000 0.0000 1735.0722 -7393.9288 297.1845 -9129.0009 -7385.3620 301.5744 -86.6155 -37.9367 29879.0524 -204.2208 -154.0839
TCL: Running FEP window  13: Lambda1 0.39999999999999963 Lambda2 0.34999999999999964 [dLambda -0.04999999999999999]
TCL: Setting parameter firsttimestep to 0
TCL: Setting parameter alchLambda to 0.39999999999999963
Info: NONBONDED TABLE R-SQUARED SPACING: 0.0625
Info: NONBONDED TABLE SIZE: 705 POINTS
TCL: Setting parameter alchLambda2 to 0.34999999999999964
Info: NONBONDED TABLE R-SQUARED SPACING: 0.0625
Info: NONBONDED TABLE SIZE: 705 POINTS
TCL: Running for 1500000 steps
ETITLE: TS BOND ANGLE DIHED IMPRP ELECT VDW BOUNDARY MISC KINETIC TOTAL TEMP POTENTIAL TOTALAVG TEMPAVG PRESSURE GPRESSURE VOLUME PRESSAVG GPRESSAVG
ENERGY: 0 5.6132 5.5231 4.4894 0.0000 -10544.5260 1400.6976 0.0000 0.0000 1734.2163 -7393.9864 297.0379 -9128.2027 -7393.9864 297.0379 -118.2591 -42.5339 29879.0524 -118.2591 -42.5339
ENERGY: 300000 6.2191 4.0006 5.4619 0.0000 -10614.5027 1430.9255 0.0000 0.0000 1756.2792 -7411.6164 300.8168 -9167.8956 -7387.7527 300.3535 93.5141 223.9638 29958.7479 124.7436 247.0623
ENERGY: 600000 5.5395 5.2884 4.2275 0.0000 -10545.9648 1383.0830 0.0000 0.0000 1722.2860 -7425.5405 294.9945 -9147.8265 -7397.4705 299.3385 -343.9519 -322.1445 30201.0756 0.2840 89.2350
ENERGY: 900000 5.6074 5.1723 7.1900 0.0000 -10435.9401 1345.4221 0.0000 0.0000 1769.8479 -7302.7004 303.1409 -9072.5482 -7392.2568 298.5258 -450.4304 -414.0477 30401.7996 -151.0849 -71.0964
ENERGY: 1200000 7.3542 8.2512 4.6207 0.0000 -10592.9411 1386.8668 0.0000 0.0000 1769.0596 -7416.7885 303.0059 -9185.8482 -7382.1500 299.3138 -575.7388 -462.7952 29766.2499 -155.1808 -77.4830
ENERGY: 1500000 4.0579 3.8810 2.2552 0.0000 -10556.2503 1429.6580 0.0000 0.0000 1737.1096 -7379.2886 297.5335 -9116.3982 -7375.0955 298.8664 169.8153 198.6505 30132.6073 -131.0848 -58.7109
TCL: Running FEP window  14: Lambda1 0.34999999999999964 Lambda2 0.29999999999999966 [dLambda -0.04999999999999999]
TCL: Setting parameter firsttimestep to 0
TCL: Setting parameter alchLambda to 0.34999999999999964
Info: NONBONDED TABLE R-SQUARED SPACING: 0.0625
Info: NONBONDED TABLE SIZE: 705 POINTS
TCL: Setting parameter alchLambda2 to 0.29999999999999966
Info: NONBONDED TABLE R-SQUARED SPACING: 0.0625
Info: NONBONDED TABLE SIZE: 705 POINTS
TCL: Running for 1500000 steps
ETITLE: TS BOND ANGLE DIHED IMPRP ELECT VDW BOUNDARY MISC KINETIC TOTAL TEMP POTENTIAL TOTALAVG TEMPAVG PRESSURE GPRESSURE VOLUME PRESSAVG GPRESSAVG
ENERGY: 0 4.0579 3.8810 2.2552 0.0000 -10556.2502 1430.0693 0.0000 0.0000 1736.2223 -7379.7644 297.3815 -9115.9868 -7379.7644 297.3815 106.0759 189.9434 30132.6073 106.0759 189.9434
ENERGY: 300000 4.9620 8.2522 5.0087 0.0000 -10745.9425 1524.9821 0.0000 0.0000 1739.1480 -7463.5895 297.8826 -9202.7375 -7414.0293 299.0726 641.0612 668.2551 30091.9787 46.4566 105.0664
ENERGY: 600000 2.4077 2.6737 6.0569 0.0000 -10699.2892 1504.2350 0.0000 0.0000 1715.4102 -7468.5057 293.8168 -9183.9159 -7429.9101 298.2168 446.7420 492.2672 29937.4883 -30.4772 28.3266
ENERGY: 900000 5.1463 4.5180 5.5615 0.0000 -10616.3472 1411.6504 0.0000 0.0000 1734.3836 -7455.0875 297.0665 -9189.4710 -7403.6410 299.1365 -345.8643 -268.6058 30387.9171 -81.4690 -11.2168
ENERGY: 1200000 5.0514 5.5522 5.3174 0.0000 -10551.5544 1400.1315 0.0000 0.0000 1786.8586 -7348.6433 306.0545 -9135.5018 -7400.6464 300.8015 -401.0326 -310.1751 30166.8747 -122.1861 -43.7552
ENERGY: 1500000 6.6544 4.5022 5.7060 0.0000 -10619.5888 1470.9819 0.0000 0.0000 1684.9370 -7446.8072 288.5973 -9131.7442 -7396.8418 299.8652 263.5434 355.8365 30141.7809 -98.9678 -23.2791
TCL: Running FEP window  15: Lambda1 0.29999999999999966 Lambda2 0.24999999999999967 [dLambda -0.04999999999999999]
TCL: Setting parameter firsttimestep to 0
TCL: Setting parameter alchLambda to 0.29999999999999966
Info: NONBONDED TABLE R-SQUARED SPACING: 0.0625
Info: NONBONDED TABLE SIZE: 705 POINTS
TCL: Setting parameter alchLambda2 to 0.24999999999999967
Info: NONBONDED TABLE R-SQUARED SPACING: 0.0625
Info: NONBONDED TABLE SIZE: 705 POINTS
TCL: Running for 1500000 steps
ETITLE: TS BOND ANGLE DIHED IMPRP ELECT VDW BOUNDARY MISC KINETIC TOTAL TEMP POTENTIAL TOTALAVG TEMPAVG PRESSURE GPRESSURE VOLUME PRESSAVG GPRESSAVG
ENERGY: 0 6.6544 4.5022 5.7060 0.0000 -10619.5884 1471.7953 0.0000 0.0000 1684.0759 -7446.8546 288.4498 -9130.9305 -7446.8546 288.4498 273.2786 350.6022 30141.7809 273.2786 350.6022
ENERGY: 300000 5.9656 2.5297 5.7459 0.0000 -10541.5136 1372.7370 0.0000 0.0000 1772.3952 -7382.1401 303.5772 -9154.5353 -7399.1105 298.4467 -528.4819 -475.4530 30122.0595 -156.9379 -81.2791
ENERGY: 600000 8.0314 5.0552 6.6272 0.0000 -10688.4918 1419.5679 0.0000 0.0000 1810.2349 -7438.9751 310.0584 -9249.2100 -7408.9647 299.7549 189.9085 174.8766 29464.9433 19.5283 83.7513
ENERGY: 900000 8.2313 3.4204 3.3171 0.0000 -10524.4255 1331.5366 0.0000 0.0000 1829.3051 -7348.6150 313.3248 -9177.9202 -7404.9160 301.1442 -982.5449 -913.5064 30593.7406 -261.1200 -197.4666
ENERGY: 1200000 4.4997 6.5268 5.5305 0.0000 -10519.8488 1476.0960 0.0000 0.0000 1820.0823 -7207.1134 311.7451 -9027.1958 -7387.5905 300.9750 630.8052 670.9555 30285.4205 -158.7310 -95.1453
ENERGY: 1500000 5.7560 8.5122 6.7958 0.0000 -10529.6898 1383.1789 0.0000 0.0000 1778.0207 -7347.4262 304.5407 -9125.4469 -7383.5397 301.0357 -382.0617 -303.8714 30154.8815 -220.0804 -152.8433
TCL: Running FEP window  16: Lambda1 0.24999999999999967 Lambda2 0.19999999999999968 [dLambda -0.04999999999999999]
TCL: Setting parameter firsttimestep to 0
TCL: Setting parameter alchLambda to 0.24999999999999967
Info: NONBONDED TABLE R-SQUARED SPACING: 0.0625
Info: NONBONDED TABLE SIZE: 705 POINTS
TCL: Setting parameter alchLambda2 to 0.19999999999999968
Info: NONBONDED TABLE R-SQUARED SPACING: 0.0625
Info: NONBONDED TABLE SIZE: 705 POINTS
TCL: Running for 1500000 steps
ETITLE: TS BOND ANGLE DIHED IMPRP ELECT VDW BOUNDARY MISC KINETIC TOTAL TEMP POTENTIAL TOTALAVG TEMPAVG PRESSURE GPRESSURE VOLUME PRESSAVG GPRESSAVG
ENERGY: 0 5.7560 8.5122 6.7958 0.0000 -10529.6906 1382.8688 0.0000 0.0000 1777.0997 -7348.6581 304.3830 -9125.7578 -7348.6581 304.3830 -397.2255 -317.0198 30154.8815 -397.2255 -317.0198
ENERGY: 300000 9.0195 5.3375 7.2628 0.0000 -10550.9068 1406.6655 0.0000 0.0000 1716.4754 -7406.1463 293.9992 -9122.6216 -7351.1510 301.1317 -68.6036 -40.5554 29888.7308 -212.2676 -165.3249
ENERGY: 600000 5.8504 4.8344 7.6479 0.0000 -10418.8140 1330.4236 0.0000 0.0000 1769.9965 -7300.0612 303.1663 -9070.0576 -7328.1025 303.4282 -474.3375 -506.2413 30471.1538 -184.9155 -155.5674
ENERGY: 900000 4.8203 3.8185 4.8789 0.0000 -10528.5505 1424.8526 0.0000 0.0000 1716.0378 -7374.1423 293.9243 -9090.1802 -7355.9787 301.1950 -221.2035 -202.2893 30751.4076 -152.7925 -117.2428
ENERGY: 1200000 7.0294 2.2663 5.7844 0.0000 -10604.2744 1414.2599 0.0000 0.0000 1731.5715 -7443.3628 296.5849 -9174.9344 -7373.3474 300.7752 -457.9761 -405.1319 30588.1279 -141.8503 -99.6593
ENERGY: 1500000 8.6600 6.2793 4.0244 0.0000 -10311.3038 1284.8791 0.0000 0.0000 1725.5098 -7281.9511 295.5466 -9007.4609 -7363.7320 300.5064 -938.1755 -817.4542 30359.6705 -178.7155 -129.4831
TCL: Running FEP window  17: Lambda1 0.19999999999999968 Lambda2 0.1499999999999997 [dLambda -0.04999999999999999]
TCL: Setting parameter firsttimestep to 0
TCL: Setting parameter alchLambda to 0.19999999999999968
Info: NONBONDED TABLE R-SQUARED SPACING: 0.0625
Info: NONBONDED TABLE SIZE: 705 POINTS
TCL: Setting parameter alchLambda2 to 0.1499999999999997
Info: NONBONDED TABLE R-SQUARED SPACING: 0.0625
Info: NONBONDED TABLE SIZE: 705 POINTS
TCL: Running for 1500000 steps
ETITLE: TS BOND ANGLE DIHED IMPRP ELECT VDW BOUNDARY MISC KINETIC TOTAL TEMP POTENTIAL TOTALAVG TEMPAVG PRESSURE GPRESSURE VOLUME PRESSAVG GPRESSAVG
ENERGY: 0 8.6600 6.2793 4.0244 0.0000 -10311.3037 1285.6635 0.0000 0.0000 1724.6713 -7282.0051 295.4030 -9006.6764 -7282.0051 295.4030 -917.2989 -819.2373 30359.6705 -917.2989 -819.2373
ENERGY: 300000 7.9209 5.9864 7.7452 0.0000 -10485.3563 1383.5311 0.0000 0.0000 1772.4175 -7307.7551 303.5810 -9080.1726 -7351.4171 300.1706 -486.7883 -445.3997 30156.4144 -527.4596 -449.6430
ENERGY: 600000 5.0703 3.5721 7.5819 0.0000 -10534.1477 1439.7426 0.0000 0.0000 1790.3771 -7287.8037 306.6572 -9078.1808 -7358.1436 299.5868 75.3407 147.8280 30274.2077 -381.0532 -305.4453
ENERGY: 900000 7.1786 6.0354 3.6158 0.0000 -10526.4076 1397.3459 0.0000 0.0000 1692.2835 -7419.9484 289.8556 -9112.2319 -7362.7367 299.8700 -516.6315 -454.9981 30154.1063 -370.1996 -312.4500
ENERGY: 1200000 6.4850 3.5487 5.8891 0.0000 -10584.5647 1465.7880 0.0000 0.0000 1775.1110 -7327.7429 304.0424 -9102.8539 -7359.7781 300.0369 219.7998 317.6287 30270.1616 -301.1554 -243.1183
ENERGY: 1500000 7.9374 7.6398 6.6410 0.0000 -10463.9975 1417.4088 0.0000 0.0000 1718.5619 -7305.8086 294.3566 -9024.3706 -7357.8323 299.4504 235.4124 350.2409 30107.8610 -193.3748 -130.4706
TCL: Running FEP window  18: Lambda1 0.1499999999999997 Lambda2 0.09999999999999969 [dLambda -0.05 ]
TCL: Setting parameter firsttimestep to 0
TCL: Setting parameter alchLambda to 0.1499999999999997
Info: NONBONDED TABLE R-SQUARED SPACING: 0.0625
Info: NONBONDED TABLE SIZE: 705 POINTS
TCL: Setting parameter alchLambda2 to 0.09999999999999969
Info: NONBONDED TABLE R-SQUARED SPACING: 0.0625
Info: NONBONDED TABLE SIZE: 705 POINTS
TCL: Running for 1500000 steps
ETITLE: TS BOND ANGLE DIHED IMPRP ELECT VDW BOUNDARY MISC KINETIC TOTAL TEMP POTENTIAL TOTALAVG TEMPAVG PRESSURE GPRESSURE VOLUME PRESSAVG GPRESSAVG
ENERGY: 0 7.9374 7.6398 6.6410 0.0000 -10463.9974 1417.0736 0.0000 0.0000 1717.6872 -7307.0184 294.2068 -9024.7056 -7307.0184 294.2068 260.2679 343.9617 30107.8610 260.2679 343.9617
ENERGY: 300000 5.6595 5.9724 6.5432 0.0000 -10560.6717 1350.4480 0.0000 0.0000 1784.1145 -7407.9341 305.5845 -9192.0486 -7328.6097 302.9345 -739.2914 -664.6256 30066.0664 -239.5886 -178.3010
ENERGY: 600000 9.6572 4.9695 3.8691 0.0000 -10719.3715 1480.3010 0.0000 0.0000 1759.6905 -7460.8842 301.4011 -9220.5747 -7349.5295 301.5964 109.7530 115.9378 29718.5144 -220.4453 -166.9534
ENERGY: 900000 6.4072 5.7074 4.5128 0.0000 -10591.3997 1380.8622 0.0000 0.0000 1819.1790 -7374.7310 311.5904 -9193.9101 -7349.9265 303.1545 -691.7509 -623.0148 30227.1819 -152.2212 -100.2231
ENERGY: 1200000 6.2881 4.8117 7.3244 0.0000 -10587.7071 1465.7324 0.0000 0.0000 1715.1254 -7388.4250 293.7680 -9103.5505 -7354.9697 302.5390 372.7288 451.0122 29974.4250 -21.6227 28.2168
ENERGY: 1500000 8.0118 5.8320 6.0130 0.0000 -10456.8190 1375.8702 0.0000 0.0000 1736.5327 -7324.5592 297.4347 -9061.0919 -7356.3829 302.2782 -471.0218 -349.1134 30177.0129 -118.7021 -61.0722
TCL: Running FEP window  19: Lambda1 0.09999999999999969 Lambda2 0.049999999999999684 [dLambda -0.05 ]
TCL: Setting parameter firsttimestep to 0
TCL: Setting parameter alchLambda to 0.09999999999999969
Info: NONBONDED TABLE R-SQUARED SPACING: 0.0625
Info: NONBONDED TABLE SIZE: 705 POINTS
TCL: Setting parameter alchLambda2 to 0.049999999999999684
Info: NONBONDED TABLE R-SQUARED SPACING: 0.0625
Info: NONBONDED TABLE SIZE: 705 POINTS
TCL: Running for 1500000 steps
ETITLE: TS BOND ANGLE DIHED IMPRP ELECT VDW BOUNDARY MISC KINETIC TOTAL TEMP POTENTIAL TOTALAVG TEMPAVG PRESSURE GPRESSURE VOLUME PRESSAVG GPRESSAVG
ENERGY: 0 8.0118 5.8320 6.0130 0.0000 -10456.8182 1375.4461 0.0000 0.0000 1735.6729 -7325.8424 297.2874 -9061.5152 -7325.8424 297.2874 -430.7225 -358.6416 30177.0129 -430.7225 -358.6416
ENERGY: 300000 7.0185 5.9660 5.5156 0.0000 -10541.9190 1443.8853 0.0000 0.0000 1742.6194 -7336.9141 298.4772 -9079.5336 -7391.2199 300.4878 345.9286 307.5335 30343.9375 -23.7235 10.2252
ENERGY: 600000 3.2253 7.9929 7.0857 0.0000 -10601.2966 1466.7627 0.0000 0.0000 1743.7949 -7372.4351 298.6785 -9116.2300 -7396.3472 299.6393 -63.8223 28.2007 30204.6588 -98.1294 -52.4280
ENERGY: 900000 6.8972 9.8833 4.5050 0.0000 -10513.1377 1373.5799 0.0000 0.0000 1706.4235 -7411.8489 292.2775 -9118.2724 -7400.6992 298.0315 -605.8936 -490.7837 29919.0461 -153.8405 -103.2084
ENERGY: 1200000 6.1607 4.4219 4.7909 0.0000 -10667.3045 1476.0721 0.0000 0.0000 1752.1094 -7423.7495 300.1026 -9175.8588 -7408.3456 297.4011 -59.6295 50.9150 30262.3463 -32.5021 29.4009
ENERGY: 1500000 3.3544 3.4156 2.9126 0.0000 -10618.1406 1461.7370 0.0000 0.0000 1787.0250 -7359.6961 306.0830 -9146.7211 -7411.1161 298.6731 432.1003 518.8780 29884.8915 -59.2977 0.1424
TCL: Running FEP window  20: Lambda1 0.049999999999999684 Lambda2 0.0    [dLambda -0.049999999999999684]
TCL: Setting parameter firsttimestep to 0
TCL: Setting parameter alchLambda to 0.049999999999999684
Info: NONBONDED TABLE R-SQUARED SPACING: 0.0625
Info: NONBONDED TABLE SIZE: 705 POINTS
TCL: Setting parameter alchLambda2 to 0.0
Info: NONBONDED TABLE R-SQUARED SPACING: 0.0625
Info: NONBONDED TABLE SIZE: 705 POINTS
TCL: Running for 1500000 steps
ETITLE: TS BOND ANGLE DIHED IMPRP ELECT VDW BOUNDARY MISC KINETIC TOTAL TEMP POTENTIAL TOTALAVG TEMPAVG PRESSURE GPRESSURE VOLUME PRESSAVG GPRESSAVG
ENERGY: 0 3.3544 3.4156 2.9126 0.0000 -10618.1404 1462.4750 0.0000 0.0000 1786.1545 -7359.8284 305.9339 -9145.9829 -7359.8284 305.9339 437.1462 518.5294 29884.8915 437.1462 518.5294
ENERGY: 300000 7.9158 7.7859 4.9756 0.0000 -10521.8625 1400.3797 0.0000 0.0000 1828.1098 -7272.6957 313.1200 -9100.8055 -7347.4535 305.9951 143.7536 157.7718 29586.1752 129.8607 182.5651
ENERGY: 600000 7.4078 4.1240 5.8407 0.0000 -10760.1037 1485.4915 0.0000 0.0000 1761.9199 -7495.3199 301.7830 -9257.2397 -7383.6724 303.1143 202.7427 252.2615 29738.5059 152.7495 215.6184
ENERGY: 900000 5.1880 3.0336 3.7269 0.0000 -10578.0842 1330.2367 0.0000 0.0000 1755.0671 -7480.8319 300.6092 -9235.8990 -7379.1331 303.8974 -1223.3808 -1165.1130 29970.7610 60.5873 129.2967
ENERGY: 1200000 5.6721 4.1062 4.6651 0.0000 -10514.3424 1365.9496 0.0000 0.0000 1760.5630 -7373.3865 301.5506 -9133.9494 -7373.5611 302.9209 -484.7738 -382.8749 29898.1343 12.1453 76.3590
ENERGY: 1500000 3.2520 3.1500 6.9989 0.0000 -10612.7409 1416.6724 0.0000 0.0000 1757.4403 -7425.2275 301.0157 -9182.6677 -7368.5391 303.3304 -228.2127 -171.4556 30010.2683 50.5544 111.7110
TCL: Exiting due to exit command.
