Info: SIMULATION PARAMETERS:
Info: TIMESTEP               2
Info: NUMBER OF STEPS        0
Info: STEPS PER CYCLE        10
Info: PERIODIC CELL BASIS 1  32.237 0 0
Info: PERIODIC CELL BASIS 2  0 30.0415 0
Info: PERIODIC CELL BASIS 3  0 0 30.7939
Info: PERIODIC CELL CENTER   0 0 0
Info: WRAPPING WATERS AROUND PERIODIC BOUNDARIES ON OUTPUT.
Info: WRAPPING ALL CLUSTERS AROUND PERIODIC BOUNDARIES ON OUTPUT.
Info: FIRST LDB TIMESTEP     50
Info: LAST LDB TIMESTEP     -1
Info: HOM BACKGROUND SCALING 1
Info: PME BACKGROUND SCALING 1
Info: MIN ATOMS PER PATCH    40
Info: EMPTY PATCH LOAD       40 ATOMS
Info: VELOCITY FILE          mobley_9507933_equil.vel
Info: CENTER OF MASS MOVING INITIALLY? NO
Info: DIELECTRIC             1
Info: EXCLUDE                SCALED ONE-FOUR
Info: 1-4 ELECTROSTATICS SCALED BY 0.833333
Info: MODIFIED 1-4 VDW PARAMETERS WILL BE USED
Info: DCD FILENAME           mobley_9507933_prod.dcd
Info: DCD FREQUENCY          100000
Info: DCD FIRST STEP         100000
Info: DCD FILE WILL CONTAIN UNIT CELL DATA
Info: XST FILENAME           mobley_9507933_prod.xst
Info: XST FREQUENCY          100000
Info: NO VELOCITY DCD OUTPUT
Info: NO FORCE DCD OUTPUT
Info: OUTPUT FILENAME        mobley_9507933_prod
Info: BINARY OUTPUT FILES WILL BE USED
Info: RESTART FILENAME       mobley_9507933_prod.restart
Info: RESTART FREQUENCY      100000
Info: BINARY RESTART FILES WILL BE USED
Info: CUTOFF                 9
Info: PAIRLIST DISTANCE      11
Info: PAIRLIST SHRINK RATE   0.01
Info: PAIRLIST GROW RATE     0.01
Info: PAIRLIST TRIGGER       0.3
Info: PAIRLISTS PER CYCLE    2
Info: PAIRLISTS ENABLED
Info: MARGIN                 2
Info: HYDROGEN GROUP CUTOFF  2.5
Info: PATCH DIMENSION        15.5
Info: ENERGY OUTPUT STEPS    100000
Info: ENERGY EVALUATION STEPS    100000
Info: OUTPUT ENERGY PRECISION 4
Info: CROSSTERM ENERGY INCLUDED IN DIHEDRAL
Info: TIMING OUTPUT STEPS    1000000
Info: PRESSURE OUTPUT STEPS  100000
Info: ALCHEMICAL FEP ON
Info: FEP CURRENT LAMBDA VALUE     1
Info: FEP COMPARISON LAMBDA VALUE  0.95
Info: FEP INTRA-ALCHEMICAL NON-BONDED INTERACTIONS WILL BE RETAINED
Info: FEP INTRA-ALCHEMICAL BONDED INTERACTIONS WILL BE RETAINED
Info: FEP VDW SHIFTING COEFFICIENT 5
Info: FEP ELEC. ACTIVE FOR ANNIHILATED PARTICLES BETWEEN LAMBDA = 0 AND LAMBDA = 0.5
Info: FEP ELEC. ACTIVE FOR EXNIHILATED PARTICLES BETWEEN LAMBDA = 0.5 AND LAMBDA = 1
Info: FEP VDW ACTIVE FOR ANNIHILATED PARTICLES BETWEEN LAMBDA = 0 AND LAMBDA = 1
Info: FEP VDW ACTIVE FOR EXNIHILATED PARTICLES BETWEEN LAMBDA = 0 AND LAMBDA = 1
Info: FEP BOND ACTIVE FOR ANNIHILATED PARTICLES BETWEEN LAMBDA = 1 AND LAMBDA = 1
Info: FEP BOND ACTIVE FOR EXNIHILATED PARTICLES BETWEEN LAMBDA = 0 AND LAMBDA = 0
Info: LANGEVIN DYNAMICS ACTIVE
Info: LANGEVIN TEMPERATURE   300
Info: LANGEVIN USING BBK INTEGRATOR
Info: LANGEVIN DAMPING COEFFICIENT IS 1 INVERSE PS
Info: LANGEVIN DYNAMICS APPLIED TO HYDROGENS
Info: LANGEVIN PISTON PRESSURE CONTROL ACTIVE
Info:        TARGET PRESSURE IS 1.01325 BAR
Info:     OSCILLATION PERIOD IS 50 FS
Info:             DECAY TIME IS 25 FS
Info:     PISTON TEMPERATURE IS 300 K
Info:       PRESSURE CONTROL IS GROUP-BASED
Info:    INITIAL STRAIN RATE IS -0.000341653 -0.000341653 -0.000341653
Info:       CELL FLUCTUATION IS ISOTROPIC
Info: PARTICLE MESH EWALD (PME) ACTIVE
Info: PME TOLERANCE               1e-06
Info: PME EWALD COEFFICIENT       0.348832
Info: PME INTERPOLATION ORDER     4
Info: PME GRID DIMENSIONS         36 32 32
Info: PME MAXIMUM GRID SPACING    1
Info: PME CALCULATION WILL BE PERFORMED ON GPU
Info: FULL ELECTROSTATIC EVALUATION FREQUENCY      2
Info: USING VERLET I (r-RESPA) MTS SCHEME.
Info: C1 SPLITTING OF LONG RANGE ELECTROSTATICS
Info: PLACING ATOMS IN PATCHES BY HYDROGEN GROUPS
Info: RIGID BONDS TO HYDROGEN : ALL
Info:         ERROR TOLERANCE : 1e-08
Info:          MAX ITERATIONS : 100
Info: RIGID WATER USING SETTLE ALGORITHM
Info: RANDOM NUMBER SEED     1743611174
Info: USE HYDROGEN BONDS?    NO
Info: Using AMBER format force field!
Info: AMBER PARM FILE        mobley_9507933.prmtop
Info: COORDINATE PDB         mobley_9507933.pdb
Info: Exclusions will be read from PARM file!
Info: SCNB (VDW SCALING)     2
Info: USING ARITHMETIC MEAN TO COMBINE L-J SIGMA PARAMETERS
Info: BINARY COORDINATES     mobley_9507933_equil.coor
Info: SUMMARY OF PARAMETERS:
Info: 8 BONDS
Info: 10 ANGLES
Info:   10 HARMONIC
Info:   0 COSINE-BASED
Info: 4 DIHEDRAL
Info: 0 IMPROPER
Info: 0 CROSSTERM
Info: 0 VDW
Info: 36 VDW_PAIRS
Info: 0 NBTHOLE_PAIRS
Info: To read alchdata from file: mobley_9507933.pdb
Info: To read alchflag data from column: 5
Info: STRUCTURE SUMMARY:
Info: 2909 ATOMS
Info: 2909 BONDS
Info: 28 ANGLES
Info: 37 DIHEDRALS
Info: 0 IMPROPERS
Info: 0 CROSSTERMS
Info: 2966 EXCLUSIONS
Info: 2901 RIGID BONDS
Info: ALCH: 0 ATOMS TO DISAPPEAR IN FINAL STATE
Info: ALCH: 17 ATOMS TO APPEAR IN FINAL STATE
Info: 5826 DEGREES OF FREEDOM
Info: 972 HYDROGEN GROUPS
Info: 4 ATOMS IN LARGEST HYDROGEN GROUP
Info: 972 MIGRATION GROUPS
Info: 4 ATOMS IN LARGEST MIGRATION GROUP
Info: TOTAL MASS = 17474.6 amu
Info: TOTAL CHARGE = -1.86265e-09 e
Info: MASS DENSITY = 0.973027 g/cm^3
Info: ATOM DENSITY = 0.0975445 atoms/A^3
Info: ADDED 0 IMPLICIT EXCLUSIONS
Info: NONBONDED TABLE R-SQUARED SPACING: 0.0625
Info: NONBONDED TABLE SIZE: 705 POINTS
Info: REMOVING COM VELOCITY -0.164122 -0.14816 0.0751439
Info: Use 3D box decompostion in PME FFT.
Info: Updated CUDA force table with 4096 elements.
Info: Updated CUDA LJ table with 8 x 8 elements.
Info: Found 19 unique exclusion lists needing 44 bytes
TCL: Running for 1500000 steps
ETITLE: TS BOND ANGLE DIHED IMPRP ELECT VDW BOUNDARY MISC KINETIC TOTAL TEMP POTENTIAL TOTALAVG TEMPAVG PRESSURE GPRESSURE VOLUME PRESSAVG GPRESSAVG
ENERGY: 0 2.0893 6.0166 3.5028 0.0000 -10579.2477 1432.3423 0.0000 0.0000 1727.7480 -7407.5488 298.4697 -9135.2968 -7407.5488 298.4697 183.0441 274.9458 29822.2892 183.0441 274.9458
ENERGY: 300000 2.1165 6.1154 1.6216 0.0000 -10754.1184 1529.9002 0.0000 0.0000 1738.4037 -7475.9610 300.3105 -9214.3647 -7398.0895 300.1779 487.0483 561.7525 30075.6040 -54.3325 8.7783
ENERGY: 600000 2.4135 5.6117 3.7027 0.0000 -10390.1938 1291.5113 0.0000 0.0000 1710.5521 -7376.4025 295.4991 -9086.9546 -7396.2693 300.5918 -998.9491 -946.5646 30335.2330 -283.9627 -231.4240
ENERGY: 900000 2.6156 6.4277 2.1446 0.0000 -10574.6700 1405.2928 0.0000 0.0000 1743.2202 -7414.9690 301.1426 -9158.1893 -7388.9324 301.6527 -378.3564 -352.8834 30251.7405 -256.5625 -206.7981
ENERGY: 1200000 2.5898 5.8988 3.5026 0.0000 -10748.3257 1472.3271 0.0000 0.0000 1769.4114 -7494.5960 305.6671 -9264.0074 -7395.9863 301.4318 558.3206 566.5686 29075.6632 -158.2736 -108.6999
ENERGY: 1500000 2.0993 7.5454 3.6002 0.0000 -10585.5122 1460.2810 0.0000 0.0000 1725.9084 -7386.0779 298.1519 -9111.9863 -7396.6653 301.3165 120.4513 204.4939 30294.2436 -158.2008 -112.5742
TCL: Running FEP window   2: Lambda1 0.95   Lambda2 0.8999999999999999 [dLambda -0.050000000000000044]
TCL: Setting parameter firsttimestep to 0
TCL: Setting parameter alchLambda to 0.95
Info: NONBONDED TABLE R-SQUARED SPACING: 0.0625
Info: NONBONDED TABLE SIZE: 705 POINTS
TCL: Setting parameter alchLambda2 to 0.8999999999999999
Info: NONBONDED TABLE R-SQUARED SPACING: 0.0625
Info: NONBONDED TABLE SIZE: 705 POINTS
TCL: Running for 1500000 steps
ETITLE: TS BOND ANGLE DIHED IMPRP ELECT VDW BOUNDARY MISC KINETIC TOTAL TEMP POTENTIAL TOTALAVG TEMPAVG PRESSURE GPRESSURE VOLUME PRESSAVG GPRESSAVG
ENERGY: 0 2.0993 7.5454 3.6002 0.0000 -10584.7330 1460.4973 0.0000 0.0000 1725.0538 -7385.9369 298.0043 -9110.9907 -7385.9369 298.0043 115.8655 196.5522 30294.2436 115.8655 196.5522
ENERGY: 300000 1.3601 6.1612 1.7804 0.0000 -10614.4993 1513.6341 0.0000 0.0000 1759.4226 -7332.1409 303.9415 -9091.5635 -7399.5200 298.9392 893.7400 971.0451 30013.1666 326.3565 413.2817
ENERGY: 600000 2.2548 5.8634 3.2707 0.0000 -10542.8514 1430.6838 0.0000 0.0000 1727.0391 -7373.7395 298.3473 -9100.7787 -7408.4399 298.3277 0.1899 43.7144 30153.1814 287.7566 361.8626
ENERGY: 900000 3.2924 9.2502 0.8442 0.0000 -10608.4244 1441.3818 0.0000 0.0000 1696.6332 -7457.0225 293.0946 -9153.6557 -7410.5416 297.9529 14.6928 4.3219 30129.3677 155.7631 224.7885
ENERGY: 1200000 1.8034 6.1992 3.9274 0.0000 -10436.3486 1326.1286 0.0000 0.0000 1760.9797 -7337.3101 304.2105 -9098.2899 -7403.7124 297.5123 -555.7205 -484.3400 30164.7190 123.2846 190.7455
ENERGY: 1500000 1.4806 3.1907 1.5915 0.0000 -10613.5451 1480.1121 0.0000 0.0000 1726.5265 -7400.6438 298.2587 -9127.1703 -7399.0777 297.9105 302.6285 372.2180 30400.5004 92.1030 150.6612
TCL: Running FEP window   3: Lambda1 0.8999999999999999 Lambda2 0.8499999999999999 [dLambda -0.050000000000000044]
TCL: Setting parameter firsttimestep to 0
TCL: Setting parameter alchLambda to 0.8999999999999999
Info: NONBONDED TABLE R-SQUARED SPACING: 0.0625
Info: NONBONDED TABLE SIZE: 705 POINTS
TCL: Setting parameter alchLambda2 to 0.8499999999999999
Info: NONBONDED TABLE R-SQUARED SPACING: 0.0625
Info: NONBONDED TABLE SIZE: 705 POINTS
TCL: Running for 1500000 steps
ETITLE: TS BOND ANGLE DIHED IMPRP ELECT VDW BOUNDARY MISC KINETIC TOTAL TEMP POTENTIAL TOTALAVG TEMPAVG PRESSURE GPRESSURE VOLUME PRESSAVG GPRESSAVG
ENERGY: 0 1.4806 3.1907 1.5915 0.0000 -10612.7497 1480.2041 0.0000 0.0000 1725.6741 -7400.6088 298.1115 -9126.2829 -7400.6088 298.1115 279.6171 366.9120 30400.5004 279.6171 366.9120
ENERGY: 300000 1.8579 9.0836 3.1798 0.0000 -10672.5813 1529.0777 0.0000 0.0000 1745.7280 -7383.6544 301.5758 -9129.3824 -7395.2466 298.9427 939.5942 933.7351 29735.9561 291.9775 346.8927
ENERGY: 600000 2.7496 5.9247 0.9510 0.0000 -10660.9269 1500.6842 0.0000 0.0000 1768.6738 -7381.9436 305.5397 -9150.6173 -7380.7456 300.9633 623.5733 654.8954 29899.9812 190.2586 235.7867
ENERGY: 900000 4.5702 4.6965 1.3586 0.0000 -10566.1941 1432.0353 0.0000 0.0000 1715.9064 -7407.6271 296.4241 -9123.5335 -7382.5654 299.9568 0.1451 64.4202 29915.8864 115.9450 165.3743
ENERGY: 1200000 2.7119 7.8335 3.1640 0.0000 -10642.1921 1432.9109 0.0000 0.0000 1691.0322 -7504.5396 292.1271 -9195.5718 -7392.2012 299.9350 -136.9072 -102.6358 30048.0881 -23.7747 31.8115
ENERGY: 1500000 2.5308 5.2431 1.1982 0.0000 -10593.2114 1410.3238 0.0000 0.0000 1744.7528 -7429.1626 301.4073 -9173.9154 -7395.2564 300.3356 -484.5547 -404.7879 30414.5726 -143.4840 -82.7598
TCL: Running FEP window   4: Lambda1 0.8499999999999999 Lambda2 0.7999999999999998 [dLambda -0.050000000000000044]
TCL: Setting parameter firsttimestep to 0
TCL: Setting parameter alchLambda to 0.8499999999999999
Info: NONBONDED TABLE R-SQUARED SPACING: 0.0625
Info: NONBONDED TABLE SIZE: 705 POINTS
TCL: Setting parameter alchLambda2 to 0.7999999999999998
Info: NONBONDED TABLE R-SQUARED SPACING: 0.0625
Info: NONBONDED TABLE SIZE: 705 POINTS
TCL: Running for 1500000 steps
ETITLE: TS BOND ANGLE DIHED IMPRP ELECT VDW BOUNDARY MISC KINETIC TOTAL TEMP POTENTIAL TOTALAVG TEMPAVG PRESSURE GPRESSURE VOLUME PRESSAVG GPRESSAVG
ENERGY: 0 2.5308 5.2431 1.1982 0.0000 -10592.2109 1410.6798 0.0000 0.0000 1743.8547 -7428.7043 301.2522 -9172.5589 -7428.7043 301.2522 -491.2854 -409.9823 30414.5726 -491.2854 -409.9823
ENERGY: 300000 0.8811 4.7483 2.0897 0.0000 -10543.5418 1379.7405 0.0000 0.0000 1697.9586 -7458.1236 293.3236 -9156.0822 -7414.9502 299.5681 -354.4072 -298.2420 29995.8029 -210.6445 -153.1502
ENERGY: 600000 1.1337 5.0396 2.2087 0.0000 -10602.8431 1441.9281 0.0000 0.0000 1719.7181 -7432.8148 297.0826 -9152.5329 -7397.6675 298.9546 273.0888 249.9389 29785.6150 -23.1544 23.7745
ENERGY: 900000 1.0168 2.7905 4.0717 0.0000 -10532.0787 1397.6736 0.0000 0.0000 1708.5840 -7417.9421 295.1591 -9126.5261 -7402.5866 297.1353 -168.3320 -94.9554 29882.4541 28.0982 88.7576
ENERGY: 1200000 1.1998 4.4106 2.4830 0.0000 -10403.7588 1264.3732 0.0000 0.0000 1742.8789 -7388.4134 301.0836 -9131.2923 -7401.6045 297.0791 -1236.7596 -1208.2897 30041.7888 -44.7645 9.8529
ENERGY: 1500000 1.7924 6.5409 1.4300 0.0000 -10463.5360 1347.4335 0.0000 0.0000 1775.5429 -7330.7963 306.7263 -9106.3392 -7383.6430 298.5216 -706.0519 -670.6596 30424.7415 -67.0605 -17.3768
TCL: Running FEP window   5: Lambda1 0.7999999999999998 Lambda2 0.7499999999999998 [dLambda -0.050000000000000044]
TCL: Setting parameter firsttimestep to 0
TCL: Setting parameter alchLambda to 0.7999999999999998
Info: NONBONDED TABLE R-SQUARED SPACING: 0.0625
Info: NONBONDED TABLE SIZE: 705 POINTS
TCL: Setting parameter alchLambda2 to 0.7499999999999998
Info: NONBONDED TABLE R-SQUARED SPACING: 0.0625
Info: NONBONDED TABLE SIZE: 705 POINTS
TCL: Running for 1500000 steps
ETITLE: TS BOND ANGLE DIHED IMPRP ELECT VDW BOUNDARY MISC KINETIC TOTAL TEMP POTENTIAL TOTALAVG TEMPAVG PRESSURE GPRESSURE VOLUME PRESSAVG GPRESSAVG
ENERGY: 0 1.7924 6.5409 1.4300 0.0000 -10461.7403 1346.9188 0.0000 0.0000 1774.6915 -7330.3667 306.5793 -9105.0581 -7330.3667 306.5793 -772.5645 -681.5493 30424.7415 -772.5645 -681.5493
ENERGY: 300000 2.2336 6.6006 3.7587 0.0000 -10500.2341 1365.8149 0.0000 0.0000 1745.6635 -7376.1629 301.5647 -9121.8263 -7370.2640 300.6350 -527.5738 -497.3545 30016.8100 -365.3960 -313.4196
ENERGY: 600000 1.0125 7.0024 1.4555 0.0000 -10516.0853 1355.0624 0.0000 0.0000 1738.7659 -7412.7866 300.3731 -9151.5525 -7372.1449 299.9800 -567.0792 -500.6003 30036.1438 -290.6162 -227.9628
ENERGY: 900000 3.6283 5.5489 3.1660 0.0000 -10641.1178 1478.3000 0.0000 0.0000 1738.1617 -7412.3127 300.2687 -9150.4745 -7377.7270 300.3309 521.8525 590.2303 29961.6681 -141.7228 -74.2095
ENERGY: 1200000 2.6374 5.2226 1.0043 0.0000 -10520.7472 1395.9460 0.0000 0.0000 1690.1553 -7425.7817 291.9756 -9115.9370 -7385.3509 299.0607 -333.7565 -209.6900 30080.9351 -218.1523 -142.9122
ENERGY: 1500000 2.6773 3.7836 2.9670 0.0000 -10647.1578 1454.2764 0.0000 0.0000 1694.0930 -7489.3605 292.6558 -9183.4535 -7389.6155 298.8949 -47.1659 93.9147 30278.6696 -196.2141 -116.9114
TCL: Running FEP window   6: Lambda1 0.7499999999999998 Lambda2 0.6999999999999997 [dLambda -0.050000000000000044]
TCL: Setting parameter firsttimestep to 0
TCL: Setting parameter alchLambda to 0.7499999999999998
Info: NONBONDED TABLE R-SQUARED SPACING: 0.0625
Info: NONBONDED TABLE SIZE: 705 POINTS
TCL: Setting parameter alchLambda2 to 0.6999999999999997
Info: NONBONDED TABLE R-SQUARED SPACING: 0.0625
Info: NONBONDED TABLE SIZE: 705 POINTS
TCL: Running for 1500000 steps
ETITLE: TS BOND ANGLE DIHED IMPRP ELECT VDW BOUNDARY MISC KINETIC TOTAL TEMP POTENTIAL TOTALAVG TEMPAVG PRESSURE GPRESSURE VOLUME PRESSAVG GPRESSAVG
ENERGY: 0 2.6773 3.7836 2.9670 0.0000 -10646.3750 1454.4614 0.0000 0.0000 1693.2216 -7489.2642 292.5053 -9182.4857 -7489.2642 292.5053 8.0916 87.0020 30278.6696 8.0916 87.0020
ENERGY: 300000 2.3531 4.4760 2.1068 0.0000 -10564.1645 1401.0460 0.0000 0.0000 1709.9536 -7444.2290 295.3957 -9154.1826 -7459.9442 291.9303 -214.6903 -132.1664 29671.3769 -84.1561 1.6256
ENERGY: 600000 3.0674 4.2095 2.3802 0.0000 -10648.5533 1491.9261 0.0000 0.0000 1809.0242 -7337.9459 312.5103 -9146.9701 -7419.8976 298.2669 745.1669 821.9284 29616.9857 146.6918 226.4857
ENERGY: 900000 2.5351 5.0470 4.6547 0.0000 -10546.3614 1418.4615 0.0000 0.0000 1773.5066 -7342.1565 306.3746 -9115.6631 -7410.6815 298.1186 18.9156 132.3058 30011.4445 211.9330 299.9263
ENERGY: 1200000 2.6684 3.1797 2.1996 0.0000 -10614.4102 1428.4170 0.0000 0.0000 1760.4685 -7417.4769 304.1222 -9177.9454 -7410.0222 298.3659 -320.0237 -265.7958 29930.0382 33.1644 118.8492
ENERGY: 1500000 0.4670 5.3431 3.0180 0.0000 -10602.3965 1393.6778 0.0000 0.0000 1700.0924 -7499.7983 293.6922 -9199.8907 -7413.6341 297.8096 -353.7911 -299.8018 29875.4725 33.9866 119.9034
TCL: Running FEP window   7: Lambda1 0.6999999999999997 Lambda2 0.6499999999999997 [dLambda -0.050000000000000044]
TCL: Setting parameter firsttimestep to 0
TCL: Setting parameter alchLambda to 0.6999999999999997
Info: NONBONDED TABLE R-SQUARED SPACING: 0.0625
Info: NONBONDED TABLE SIZE: 705 POINTS
TCL: Setting parameter alchLambda2 to 0.6499999999999997
Info: NONBONDED TABLE R-SQUARED SPACING: 0.0625
Info: NONBONDED TABLE SIZE: 705 POINTS
TCL: Running for 1500000 steps
ETITLE: TS BOND ANGLE DIHED IMPRP ELECT VDW BOUNDARY MISC KINETIC TOTAL TEMP POTENTIAL TOTALAVG TEMPAVG PRESSURE GPRESSURE VOLUME PRESSAVG GPRESSAVG
ENERGY: 0 0.4670 5.3431 3.0180 0.0000 -10601.8234 1394.2601 0.0000 0.0000 1699.2307 -7499.5046 293.5434 -9198.7353 -7499.5046 293.5434 -384.4796 -297.6253 29875.4725 -384.4796 -297.6253
ENERGY: 300000 0.3874 7.9371 1.6386 0.0000 -10679.4298 1403.9171 0.0000 0.0000 1707.8591 -7557.6905 295.0339 -9265.5495 -7422.1886 298.0964 -545.3884 -462.6057 30043.9802 -91.6513 -1.2276
ENERGY: 600000 0.5381 6.2361 3.8668 0.0000 -10622.9281 1480.0801 0.0000 0.0000 1806.7399 -7325.4670 312.1156 -9132.2069 -7399.3218 299.8908 533.6775 522.6449 30066.6413 -58.6288 14.6764
ENERGY: 900000 1.6293 9.6228 1.4433 0.0000 -10572.6087 1426.2518 0.0000 0.0000 1768.7552 -7364.9062 305.5538 -9133.6615 -7393.0936 300.1268 73.6723 129.4890 29760.6588 -173.7184 -103.4999
ENERGY: 1200000 2.8897 4.5186 4.9177 0.0000 -10657.1850 1414.4667 0.0000 0.0000 1743.4791 -7486.9132 301.1873 -9230.3923 -7396.2837 300.4580 -65.2068 -50.4090 29304.1415 -169.0636 -101.3831
ENERGY: 1500000 3.9217 4.9967 2.7988 0.0000 -10577.1884 1458.6859 0.0000 0.0000 1737.7692 -7369.0160 300.2009 -9106.7852 -7394.4191 300.8855 628.5764 697.2882 29346.1279 -111.6863 -37.5310
TCL: Running FEP window   8: Lambda1 0.6499999999999997 Lambda2 0.5999999999999996 [dLambda -0.050000000000000044]
TCL: Setting parameter firsttimestep to 0
TCL: Setting parameter alchLambda to 0.6499999999999997
Info: NONBONDED TABLE R-SQUARED SPACING: 0.0625
Info: NONBONDED TABLE SIZE: 705 POINTS
TCL: Setting parameter alchLambda2 to 0.5999999999999996
Info: NONBONDED TABLE R-SQUARED SPACING: 0.0625
Info: NONBONDED TABLE SIZE: 705 POINTS
TCL: Running for 1500000 steps
ETITLE: TS BOND ANGLE DIHED IMPRP ELECT VDW BOUNDARY MISC KINETIC TOTAL TEMP POTENTIAL TOTALAVG TEMPAVG PRESSURE GPRESSURE VOLUME PRESSAVG GPRESSAVG
ENERGY: 0 3.9217 4.9967 2.7988 0.0000 -10576.3095 1458.3284 0.0000 0.0000 1736.9063 -7369.3576 300.0518 -9106.2639 -7369.3576 300.0518 597.7082 683.4511 29346.1279 597.7082 683.4511
ENERGY: 300000 1.2334 7.9206 3.5512 0.0000 -10570.5714 1409.8865 0.0000 0.0000 1710.9401 -7437.0397 295.5662 -9147.9798 -7378.8596 295.5361 224.1234 260.7423 29442.6059 -87.9684 -21.5910
ENERGY: 600000 2.2148 4.7953 4.5607 0.0000 -10688.0718 1523.0035 0.0000 0.0000 1788.8751 -7364.6224 309.0295 -9153.4975 -7364.9867 300.0466 899.1583 1031.8910 29481.4012 38.4665 128.6926
ENERGY: 900000 1.8699 6.0298 2.5332 0.0000 -10510.5133 1334.6446 0.0000 0.0000 1675.3522 -7490.0836 289.4183 -9165.4358 -7374.4730 299.2285 -795.6679 -732.4074 29947.3996 31.3731 103.6263
ENERGY: 1200000 2.8092 4.4346 1.4587 0.0000 -10589.6818 1502.5678 0.0000 0.0000 1726.5382 -7351.8732 298.2608 -9078.4114 -7366.7593 299.7641 823.8252 863.9667 29905.1878 -7.8160 62.2831
ENERGY: 1500000 2.4069 5.1061 2.8554 0.0000 -10458.6504 1420.9920 0.0000 0.0000 1738.3652 -7288.9249 300.3039 -9027.2901 -7363.8952 299.9854 258.6063 280.5904 29974.0580 27.7325 96.9776
TCL: Running FEP window   9: Lambda1 0.5999999999999996 Lambda2 0.5499999999999996 [dLambda -0.050000000000000044]
TCL: Setting parameter firsttimestep to 0
TCL: Setting parameter alchLambda to 0.5999999999999996
Info: NONBONDED TABLE R-SQUARED SPACING: 0.0625
Info: NONBONDED TABLE SIZE: 705 POINTS
TCL: Setting parameter alchLambda2 to 0.5499999999999996
Info: NONBONDED TABLE R-SQUARED SPACING: 0.0625
Info: NONBONDED TABLE SIZE: 705 POINTS
TCL: Running for 1500000 steps
ETITLE: TS BOND ANGLE DIHED IMPRP ELECT VDW BOUNDARY MISC KINETIC TOTAL TEMP POTENTIAL TOTALAVG TEMPAVG PRESSURE GPRESSURE VOLUME PRESSAVG GPRESSAVG
ENERGY: 0 2.4069 5.1061 2.8554 0.0000 -10458.3746 1421.3503 0.0000 0.0000 1737.5148 -7289.1410 300.1570 -9026.6558 -7289.1410 300.1570 189.8548 273.3765 29974.0580 189.8548 273.3765
ENERGY: 300000 2.2870 9.1174 3.2210 0.0000 -10466.8587 1393.0842 0.0000 0.0000 1683.5557 -7375.5935 290.8355 -9059.1492 -7351.7348 293.5939 -74.4319 -17.0342 30145.2039 -170.9037 -98.3327
ENERGY: 600000 4.1693 8.2876 2.5872 0.0000 -10582.9882 1413.4198 0.0000 0.0000 1772.1209 -7382.4034 306.1352 -9154.5243 -7388.4513 298.1062 -192.5260 -170.9125 30123.2897 -288.0189 -223.9246
ENERGY: 900000 1.8431 7.5302 3.5857 0.0000 -10681.3479 1487.1364 0.0000 0.0000 1725.6476 -7455.6049 298.1069 -9181.2525 -7386.9834 298.6245 584.5781 621.3465 29442.0222 -108.1703 -44.3499
ENERGY: 1200000 2.1404 3.2333 1.7333 0.0000 -10544.2136 1383.5448 0.0000 0.0000 1760.2119 -7393.3500 304.0779 -9153.5619 -7402.9675 298.7683 -353.2894 -327.8400 29936.1828 -134.6439 -79.4339
ENERGY: 1500000 1.7766 6.4300 2.9992 0.0000 -10535.9259 1380.9236 0.0000 0.0000 1711.8168 -7431.9797 295.7176 -9143.7965 -7396.0878 299.3901 -214.7954 -209.3056 29580.0266 -69.8722 -24.0120
TCL: Running FEP window  10: Lambda1 0.5499999999999996 Lambda2 0.4999999999999996 [dLambda -0.04999999999999999]
TCL: Setting parameter firsttimestep to 0
TCL: Setting parameter alchLambda to 0.5499999999999996
Info: NONBONDED TABLE R-SQUARED SPACING: 0.0625
Info: NONBONDED TABLE SIZE: 705 POINTS
TCL: Setting parameter alchLambda2 to 0.4999999999999996
Info: NONBONDED TABLE R-SQUARED SPACING: 0.0625
Info: NONBONDED TABLE SIZE: 705 POINTS
TCL: Running for 1500000 steps
ETITLE: TS BOND ANGLE DIHED IMPRP ELECT VDW BOUNDARY MISC KINETIC TOTAL TEMP POTENTIAL TOTALAVG TEMPAVG PRESSURE GPRESSURE VOLUME PRESSAVG GPRESSAVG
ENERGY: 0 1.7766 6.4300 2.9992 0.0000 -10535.8165 1381.2725 0.0000 0.0000 1710.9647 -7432.3735 295.5704 -9143.3382 -7432.3735 295.5704 -299.4200 -214.7032 29580.0266 -299.4200 -214.7032
ENERGY: 300000 1.9976 3.4046 3.2577 0.0000 -10610.3379 1421.6538 0.0000 0.0000 1704.5745 -7475.4498 294.4665 -9180.0242 -7467.6902 295.4187 -324.0465 -218.2418 30223.7149 -390.4896 -302.5365
ENERGY: 600000 3.8461 7.0314 1.9682 0.0000 -10469.4725 1398.8956 0.0000 0.0000 1798.8685 -7258.8628 310.7558 -9057.7313 -7392.1745 301.7499 45.6666 114.0783 30148.5862 -213.3645 -126.7766
ENERGY: 900000 1.5364 5.4402 1.7548 0.0000 -10744.5044 1504.3128 0.0000 0.0000 1679.5490 -7551.9112 290.1433 -9231.4602 -7399.5550 300.5924 552.9868 584.7271 29555.6829 -4.9204 70.2489
ENERGY: 1200000 0.9779 5.0387 3.8888 0.0000 -10526.0662 1401.3589 0.0000 0.0000 1722.1092 -7392.6927 297.4956 -9114.8019 -7387.2832 301.2287 231.2550 235.0923 29403.8551 -22.9565 37.9558
ENERGY: 1500000 2.8404 5.0497 3.9559 0.0000 -10642.8822 1515.8974 0.0000 0.0000 1758.8732 -7356.2657 303.8466 -9115.1389 -7384.6630 301.0355 931.7136 1047.3199 29493.9279 39.9349 103.3677
TCL: Running FEP window  11: Lambda1 0.4999999999999996 Lambda2 0.4499999999999996 [dLambda -0.04999999999999999]
TCL: Setting parameter firsttimestep to 0
TCL: Setting parameter alchLambda to 0.4999999999999996
Info: NONBONDED TABLE R-SQUARED SPACING: 0.0625
Info: NONBONDED TABLE SIZE: 705 POINTS
TCL: Setting parameter alchLambda2 to 0.4499999999999996
Info: NONBONDED TABLE R-SQUARED SPACING: 0.0625
Info: NONBONDED TABLE SIZE: 705 POINTS
TCL: Running for 1500000 steps
ETITLE: TS BOND ANGLE DIHED IMPRP ELECT VDW BOUNDARY MISC KINETIC TOTAL TEMP POTENTIAL TOTALAVG TEMPAVG PRESSURE GPRESSURE VOLUME PRESSAVG GPRESSAVG
ENERGY: 0 2.8404 5.0497 3.9559 0.0000 -10642.8934 1515.6987 0.0000 0.0000 1757.9913 -7357.3574 303.6943 -9115.3487 -7357.3574 303.6943 958.3802 1037.7084 29493.9279 958.3802 1037.7084
ENERGY: 300000 1.7592 8.9619 4.9945 0.0000 -10565.6152 1410.1047 0.0000 0.0000 1655.0782 -7484.7168 285.9160 -9139.7949 -7355.7328 298.6922 3.8297 54.4894 29706.3363 423.2782 470.7499
ENERGY: 600000 5.7114 4.9517 1.9281 0.0000 -10354.4316 1312.1936 0.0000 0.0000 1722.1370 -7307.5097 297.5004 -9029.6468 -7368.8759 298.5125 -428.8817 -378.9967 29738.5190 23.4730 68.2328
ENERGY: 900000 2.8622 4.3920 2.1333 0.0000 -10651.3543 1492.0518 0.0000 0.0000 1761.4405 -7388.4745 304.2901 -9149.9149 -7385.3640 299.7717 576.5748 651.7242 29577.3794 46.6488 96.1969
ENERGY: 1200000 1.3624 6.4190 4.0277 0.0000 -10648.5835 1492.9746 0.0000 0.0000 1751.7040 -7392.0958 302.6082 -9143.7998 -7383.3772 299.7507 521.2655 558.4815 29847.3365 60.5530 112.3371
ENERGY: 1500000 4.4354 5.1304 1.3769 0.0000 -10600.8890 1477.9950 0.0000 0.0000 1769.6857 -7342.2656 305.7145 -9111.9514 -7377.8734 300.4675 213.0200 325.6491 29781.4260 155.1277 206.0195
TCL: Running FEP window  12: Lambda1 0.4499999999999996 Lambda2 0.39999999999999963 [dLambda -0.04999999999999999]
TCL: Setting parameter firsttimestep to 0
TCL: Setting parameter alchLambda to 0.4499999999999996
Info: NONBONDED TABLE R-SQUARED SPACING: 0.0625
Info: NONBONDED TABLE SIZE: 705 POINTS
TCL: Setting parameter alchLambda2 to 0.39999999999999963
Info: NONBONDED TABLE R-SQUARED SPACING: 0.0625
Info: NONBONDED TABLE SIZE: 705 POINTS
TCL: Running for 1500000 steps
ETITLE: TS BOND ANGLE DIHED IMPRP ELECT VDW BOUNDARY MISC KINETIC TOTAL TEMP POTENTIAL TOTALAVG TEMPAVG PRESSURE GPRESSURE VOLUME PRESSAVG GPRESSAVG
ENERGY: 0 4.4354 5.1304 1.3769 0.0000 -10600.8883 1478.0421 0.0000 0.0000 1768.8445 -7343.0590 305.5692 -9111.9035 -7343.0590 305.5692 243.7122 314.7679 29781.4260 243.7122 314.7679
ENERGY: 300000 1.7536 6.4529 2.6257 0.0000 -10441.8275 1388.5678 0.0000 0.0000 1768.8963 -7273.5311 305.5781 -9042.4274 -7347.2312 301.4500 -4.2584 70.6145 30191.4136 33.0997 105.8575
ENERGY: 600000 4.5843 2.1156 1.2842 0.0000 -10594.9380 1450.8926 0.0000 0.0000 1803.9493 -7332.1119 311.6336 -9136.0613 -7345.5510 303.8158 74.5232 137.6793 29896.0984 -18.5222 46.7591
ENERGY: 900000 3.1333 5.4238 2.4118 0.0000 -10542.1666 1442.9981 0.0000 0.0000 1802.6245 -7285.5751 311.4047 -9088.1996 -7353.2583 303.3507 687.0746 720.1229 29287.5814 -31.0327 38.7462
ENERGY: 1200000 3.0568 4.5028 1.0041 0.0000 -10452.8398 1388.8979 0.0000 0.0000 1714.4325 -7340.9459 296.1695 -9055.3784 -7352.7341 303.2041 -246.5931 -234.5794 30149.6956 -39.9921 14.6995
ENERGY: 1500000 2.9241 3.9433 1.4758 0.0000 -10527.8810 1344.9005 0.0000 0.0000 1727.4438 -7447.1936 298.4172 -9174.6373 -7361.4624 303.2673 -796.0560 -756.9633 30024.5680 -6.7602 47.4829
TCL: Running FEP window  13: Lambda1 0.39999999999999963 Lambda2 0.34999999999999964 [dLambda -0.04999999999999999]
TCL: Setting parameter firsttimestep to 0
TCL: Setting parameter alchLambda to 0.39999999999999963
Info: NONBONDED TABLE R-SQUARED SPACING: 0.0625
Info: NONBONDED TABLE SIZE: 705 POINTS
TCL: Setting parameter alchLambda2 to 0.34999999999999964
Info: NONBONDED TABLE R-SQUARED SPACING: 0.0625
Info: NONBONDED TABLE SIZE: 705 POINTS
TCL: Running for 1500000 steps
ETITLE: TS BOND ANGLE DIHED IMPRP ELECT VDW BOUNDARY MISC KINETIC TOTAL TEMP POTENTIAL TOTALAVG TEMPAVG PRESSURE GPRESSURE VOLUME PRESSAVG GPRESSAVG
ENERGY: 0 2.9241 3.9433 1.4758 0.0000 -10527.8806 1345.3738 0.0000 0.0000 1726.5857 -7447.5780 298.2689 -9174.1636 -7447.5780 298.2689 -835.0090 -755.3782 30024.5680 -835.0090 -755.3782
ENERGY: 300000 2.1642 6.7546 1.7786 0.0000 -10634.7193 1446.0381 0.0000 0.0000 1734.1538 -7443.8302 299.5763 -9177.9840 -7407.7918 301.7751 89.1831 75.8868 29714.4437 -161.2790 -104.6893
ENERGY: 600000 2.5037 5.6298 2.2255 0.0000 -10579.7212 1466.0422 0.0000 0.0000 1723.9913 -7379.3287 297.8208 -9103.3200 -7394.0223 301.1072 324.8860 346.4059 29880.0560 -100.2193 -43.9517
ENERGY: 900000 0.8359 7.2431 3.3630 0.0000 -10557.8063 1483.2038 0.0000 0.0000 1780.4884 -7282.6722 307.5807 -9063.1606 -7379.1157 301.0355 562.0143 644.2080 30109.6699 -55.1032 -5.5450
ENERGY: 1200000 1.1285 4.3813 2.6731 0.0000 -10572.7878 1461.0531 0.0000 0.0000 1720.9584 -7382.5935 297.2968 -9103.5519 -7381.9652 300.0546 443.4209 470.5743 29419.1862 -78.6882 -27.7424
ENERGY: 1500000 1.7635 5.1574 0.3417 0.0000 -10593.5182 1506.0921 0.0000 0.0000 1735.5270 -7344.6364 299.8136 -9080.1634 -7376.2120 300.1214 436.9771 506.3085 30185.6394 18.9432 72.8483
TCL: Running FEP window  14: Lambda1 0.34999999999999964 Lambda2 0.29999999999999966 [dLambda -0.04999999999999999]
TCL: Setting parameter firsttimestep to 0
TCL: Setting parameter alchLambda to 0.34999999999999964
Info: NONBONDED TABLE R-SQUARED SPACING: 0.0625
Info: NONBONDED TABLE SIZE: 705 POINTS
TCL: Setting parameter alchLambda2 to 0.29999999999999966
Info: NONBONDED TABLE R-SQUARED SPACING: 0.0625
Info: NONBONDED TABLE SIZE: 705 POINTS
TCL: Running for 1500000 steps
ETITLE: TS BOND ANGLE DIHED IMPRP ELECT VDW BOUNDARY MISC KINETIC TOTAL TEMP POTENTIAL TOTALAVG TEMPAVG PRESSURE GPRESSURE VOLUME PRESSAVG GPRESSAVG
ENERGY: 0 1.7635 5.1574 0.3417 0.0000 -10593.5176 1506.2249 0.0000 0.0000 1734.6238 -7345.4063 299.6575 -9080.0301 -7345.4063 299.6575 421.2043 503.7072 30185.6394 421.2043 503.7072
ENERGY: 300000 4.2705 3.6998 0.8645 0.0000 -10502.5654 1410.7476 0.0000 0.0000 1770.3581 -7312.6249 305.8307 -9082.9830 -7326.5119 302.0711 -8.9632 49.9086 30079.7489 42.8270 92.2844
ENERGY: 600000 3.1449 4.4006 3.0279 0.0000 -10539.6811 1430.4155 0.0000 0.0000 1728.6122 -7370.0800 298.6190 -9098.6922 -7351.2265 299.9621 -159.8887 -18.7732 30483.9542 -44.0442 13.4542
ENERGY: 900000 3.9187 6.5256 2.3190 0.0000 -10548.6091 1426.3885 0.0000 0.0000 1696.1241 -7413.3332 293.0067 -9109.4572 -7362.7398 300.2365 -158.4530 -32.7422 30052.0574 -36.1590 25.8165
ENERGY: 1200000 0.4915 8.0119 2.1668 0.0000 -10572.2063 1400.5759 0.0000 0.0000 1749.6175 -7411.3428 302.2477 -9160.9603 -7369.4287 301.3315 -479.5276 -360.6660 30210.3507 -130.2999 -57.9268
ENERGY: 1500000 4.1673 8.0981 3.6726 0.0000 -10607.5627 1400.6239 0.0000 0.0000 1718.2457 -7472.7551 296.8282 -9191.0008 -7375.5238 301.4204 -429.5864 -374.2934 29711.4080 -134.3383 -59.7445
TCL: Running FEP window  15: Lambda1 0.29999999999999966 Lambda2 0.24999999999999967 [dLambda -0.04999999999999999]
TCL: Setting parameter firsttimestep to 0
TCL: Setting parameter alchLambda to 0.29999999999999966
Info: NONBONDED TABLE R-SQUARED SPACING: 0.0625
Info: NONBONDED TABLE SIZE: 705 POINTS
TCL: Setting parameter alchLambda2 to 0.24999999999999967
Info: NONBONDED TABLE R-SQUARED SPACING: 0.0625
Info: NONBONDED TABLE SIZE: 705 POINTS
TCL: Running for 1500000 steps
ETITLE: TS BOND ANGLE DIHED IMPRP ELECT VDW BOUNDARY MISC KINETIC TOTAL TEMP POTENTIAL TOTALAVG TEMPAVG PRESSURE GPRESSURE VOLUME PRESSAVG GPRESSAVG
ENERGY: 0 4.1673 8.0981 3.6726 0.0000 -10607.5633 1401.0593 0.0000 0.0000 1717.3708 -7473.1952 296.6771 -9190.5660 -7473.1952 296.6771 -451.3493 -377.5171 29711.4080 -451.3493 -377.5171
ENERGY: 300000 2.5500 9.1137 1.8597 0.0000 -10673.0184 1458.3931 0.0000 0.0000 1752.2955 -7448.8064 302.7103 -9201.1019 -7437.4297 297.3081 -118.8438 -65.5157 29922.1618 -277.4939 -226.7887
ENERGY: 600000 2.2054 7.3221 0.7521 0.0000 -10686.6511 1470.8269 0.0000 0.0000 1725.5286 -7480.0160 298.0863 -9205.5446 -7433.5487 297.2279 79.6484 148.3299 29703.0129 -272.1316 -222.9017
ENERGY: 900000 5.4414 6.4670 2.7960 0.0000 -10556.0777 1463.7820 0.0000 0.0000 1734.9970 -7342.5943 299.7220 -9077.5913 -7433.1734 295.8924 121.0659 176.7441 29861.6768 -341.6804 -293.6322
ENERGY: 1200000 2.4901 5.2584 2.1782 0.0000 -10660.8431 1544.3053 0.0000 0.0000 1784.7786 -7321.8325 308.3218 -9106.6111 -7419.5492 297.4027 1167.1367 1264.6334 29324.1799 -209.6476 -150.9079
ENERGY: 1500000 2.4815 7.8783 2.3822 0.0000 -10504.3108 1396.1260 0.0000 0.0000 1745.5027 -7349.9401 301.5369 -9095.4428 -7408.4880 298.3824 -255.5522 -152.4004 29888.2693 -198.1358 -141.7345
TCL: Running FEP window  16: Lambda1 0.24999999999999967 Lambda2 0.19999999999999968 [dLambda -0.04999999999999999]
TCL: Setting parameter firsttimestep to 0
TCL: Setting parameter alchLambda to 0.24999999999999967
Info: NONBONDED TABLE R-SQUARED SPACING: 0.0625
Info: NONBONDED TABLE SIZE: 705 POINTS
TCL: Setting parameter alchLambda2 to 0.19999999999999968
Info: NONBONDED TABLE R-SQUARED SPACING: 0.0625
Info: NONBONDED TABLE SIZE: 705 POINTS
TCL: Running for 1500000 steps
ETITLE: TS BOND ANGLE DIHED IMPRP ELECT VDW BOUNDARY MISC KINETIC TOTAL TEMP POTENTIAL TOTALAVG TEMPAVG PRESSURE GPRESSURE VOLUME PRESSAVG GPRESSAVG
ENERGY: 0 2.4815 7.8783 2.3822 0.0000 -10504.3126 1396.2208 0.0000 0.0000 1744.6281 -7350.7217 301.3858 -9095.3498 -7350.7217 301.3858 -240.5815 -155.3665 29888.2693 -240.5815 -155.3665
ENERGY: 300000 2.4141 7.6438 3.1598 0.0000 -10565.3793 1430.7704 0.0000 0.0000 1758.0189 -7363.3722 303.6991 -9121.3910 -7371.5594 303.7304 1.0250 68.6956 29771.6373 -347.1846 -270.2159
ENERGY: 600000 3.6400 2.4992 3.1515 0.0000 -10480.8211 1369.2329 0.0000 0.0000 1808.7805 -7293.5170 312.4682 -9102.2976 -7364.3451 305.4462 -472.9411 -393.0115 30322.1408 -324.5574 -245.8407
ENERGY: 900000 2.3920 5.9972 3.1273 0.0000 -10511.4242 1407.5479 0.0000 0.0000 1728.5846 -7363.7752 298.6143 -9092.3598 -7356.1220 303.0062 -364.9997 -285.8655 30130.5532 -298.0565 -222.8563
ENERGY: 1200000 1.9984 4.2991 1.6388 0.0000 -10669.8452 1449.4506 0.0000 0.0000 1764.7942 -7447.6641 304.8695 -9212.4583 -7372.5872 301.8123 117.4378 182.8736 29686.0135 -300.7041 -233.4809
ENERGY: 1500000 2.5761 4.0842 3.6408 0.0000 -10576.8605 1400.3335 0.0000 0.0000 1683.4850 -7482.7410 290.8233 -9166.2260 -7382.8591 300.2910 -510.2142 -398.9042 29654.8551 -257.4191 -187.9235
TCL: Running FEP window  17: Lambda1 0.19999999999999968 Lambda2 0.1499999999999997 [dLambda -0.04999999999999999]
TCL: Setting parameter firsttimestep to 0
TCL: Setting parameter alchLambda to 0.19999999999999968
Info: NONBONDED TABLE R-SQUARED SPACING: 0.0625
Info: NONBONDED TABLE SIZE: 705 POINTS
TCL: Setting parameter alchLambda2 to 0.1499999999999997
Info: NONBONDED TABLE R-SQUARED SPACING: 0.0625
Info: NONBONDED TABLE SIZE: 705 POINTS
TCL: Running for 1500000 steps
ETITLE: TS BOND ANGLE DIHED IMPRP ELECT VDW BOUNDARY MISC KINETIC TOTAL TEMP POTENTIAL TOTALAVG TEMPAVG PRESSURE GPRESSURE VOLUME PRESSAVG GPRESSAVG
ENERGY: 0 2.5761 4.0842 3.6408 0.0000 -10576.8619 1399.8823 0.0000 0.0000 1682.6011 -7484.0774 290.6706 -9166.6785 -7484.0774 290.6706 -485.2024 -405.7735 29654.8551 -485.2024 -405.7735
ENERGY: 300000 1.5964 4.4552 3.5650 0.0000 -10528.9516 1454.3653 0.0000 0.0000 1761.6985 -7303.2711 304.3347 -9064.9697 -7396.0098 298.1052 185.6494 322.9765 29994.2370 -179.6266 -88.8505
ENERGY: 600000 5.0161 7.6060 1.4922 0.0000 -10537.6025 1400.0186 0.0000 0.0000 1710.8311 -7412.6385 295.5473 -9123.4696 -7384.5101 298.2840 -297.5522 -223.6456 30061.9850 -51.5908 33.9933
ENERGY: 900000 3.0798 8.4946 1.7647 0.0000 -10473.7711 1357.4450 0.0000 0.0000 1715.8141 -7387.1729 296.4081 -9102.9870 -7381.7566 297.8005 -448.5147 -417.7379 29888.7697 -9.5004 59.0571
ENERGY: 1200000 0.5074 6.0433 2.2626 0.0000 -10615.7840 1460.1804 0.0000 0.0000 1733.0427 -7413.7477 299.3844 -9146.7904 -7385.3397 297.5210 321.8726 386.5919 29695.6054 -5.5188 62.3961
ENERGY: 1500000 3.6763 13.5689 5.1480 0.0000 -10581.8857 1384.0135 0.0000 0.0000 1751.8464 -7423.6326 302.6328 -9175.4791 -7381.6337 298.7444 -541.0999 -448.2345 29815.9482 -49.8391 16.3544
TCL: Running FEP window  18: Lambda1 0.1499999999999997 Lambda2 0.09999999999999969 [dLambda -0.05 ]
TCL: Setting parameter firsttimestep to 0
TCL: Setting parameter alchLambda to 0.1499999999999997
Info: NONBONDED TABLE R-SQUARED SPACING: 0.0625
Info: NONBONDED TABLE SIZE: 705 POINTS
TCL: Setting parameter alchLambda2 to 0.09999999999999969
Info: NONBONDED TABLE R-SQUARED SPACING: 0.0625
Info: NONBONDED TABLE SIZE: 705 POINTS
TCL: Running for 1500000 steps
ETITLE: TS BOND ANGLE DIHED IMPRP ELECT VDW BOUNDARY MISC KINETIC TOTAL TEMP POTENTIAL TOTALAVG TEMPAVG PRESSURE GPRESSURE VOLUME PRESSAVG GPRESSAVG
ENERGY: 0 3.6763 13.5689 5.1480 0.0000 -10581.8853 1384.1296 0.0000 0.0000 1751.0061 -7424.3565 302.4876 -9175.3626 -7424.3565 302.4876 -528.9301 -451.9885 29815.9482 -528.9301 -451.9885
ENERGY: 300000 1.4613 2.9418 0.9959 0.0000 -10536.8934 1378.4848 0.0000 0.0000 1767.0721 -7385.9374 305.2630 -9153.0095 -7407.4442 301.8586 -454.4137 -374.8614 29666.3257 -384.1243 -327.8664
ENERGY: 600000 2.7037 5.2446 2.5265 0.0000 -10491.8541 1344.4882 0.0000 0.0000 1686.9064 -7449.9849 291.4143 -9136.8913 -7419.7766 298.7664 -719.1232 -717.4818 29872.1323 -463.6178 -419.5316
ENERGY: 900000 5.3277 6.6855 5.4649 0.0000 -10526.1428 1394.2873 0.0000 0.0000 1723.4304 -7390.9471 297.7239 -9114.3774 -7414.7650 299.6765 -351.0785 -294.0768 30051.6326 -284.7391 -224.7264
ENERGY: 1200000 2.7800 5.6256 1.8673 0.0000 -10678.7503 1561.2225 0.0000 0.0000 1728.4013 -7378.8535 298.5826 -9107.2548 -7402.1120 299.3988 1069.9652 1162.2412 29645.2705 -191.6932 -118.9103
ENERGY: 1500000 5.4087 4.4152 2.0828 0.0000 -10599.2472 1463.9450 0.0000 0.0000 1749.7998 -7373.5957 302.2792 -9123.3956 -7399.5100 298.8813 38.8929 155.1792 30041.5559 -194.3190 -118.5575
TCL: Running FEP window  19: Lambda1 0.09999999999999969 Lambda2 0.049999999999999684 [dLambda -0.05 ]
TCL: Setting parameter firsttimestep to 0
TCL: Setting parameter alchLambda to 0.09999999999999969
Info: NONBONDED TABLE R-SQUARED SPACING: 0.0625
Info: NONBONDED TABLE SIZE: 705 POINTS
TCL: Setting parameter alchLambda2 to 0.049999999999999684
Info: NONBONDED TABLE R-SQUARED SPACING: 0.0625
Info: NONBONDED TABLE SIZE: 705 POINTS
TCL: Running for 1500000 steps
ETITLE: TS BOND ANGLE DIHED IMPRP ELECT VDW BOUNDARY MISC KINETIC TOTAL TEMP POTENTIAL TOTALAVG TEMPAVG PRESSURE GPRESSURE VOLUME PRESSAVG GPRESSAVG
ENERGY: 0 5.4087 4.4152 2.0828 0.0000 -10599.2472 1463.6400 0.0000 0.0000 1748.9447 -7374.7559 302.1315 -9123.7006 -7374.7559 302.1315 57.7141 151.9602 30041.5559 57.7141 151.9602
ENERGY: 300000 3.4949 4.2200 0.4906 0.0000 -10451.4113 1371.8483 0.0000 0.0000 1725.4137 -7345.9438 298.0665 -9071.3575 -7385.2692 298.9960 -254.4935 -200.8346 29587.8967 -176.8077 -110.6891
ENERGY: 600000 1.6093 5.7546 2.6500 0.0000 -10398.2937 1342.5533 0.0000 0.0000 1758.7169 -7287.0096 303.8196 -9045.7265 -7380.0468 300.8654 -473.5183 -337.2581 29915.4001 73.9075 144.0609
ENERGY: 900000 2.8925 5.0192 3.3808 0.0000 -10622.1573 1463.1534 0.0000 0.0000 1732.3291 -7415.3825 299.2611 -9147.7115 -7376.3722 301.1215 185.3932 248.3560 29831.9195 77.3760 141.0518
ENERGY: 1200000 5.0886 4.8912 1.3067 0.0000 -10493.2790 1383.9661 0.0000 0.0000 1740.0492 -7357.9771 300.5948 -9098.0263 -7364.5805 300.5396 -472.6881 -347.0752 29829.9553 0.3828 64.1345
ENERGY: 1500000 1.1822 5.7238 2.4356 0.0000 -10479.2561 1332.1476 0.0000 0.0000 1788.1518 -7349.6151 308.9045 -9137.7670 -7366.2426 301.1392 -687.2297 -587.3385 29478.9830 -50.7033 13.3506
TCL: Running FEP window  20: Lambda1 0.049999999999999684 Lambda2 0.0    [dLambda -0.049999999999999684]
TCL: Setting parameter firsttimestep to 0
TCL: Setting parameter alchLambda to 0.049999999999999684
Info: NONBONDED TABLE R-SQUARED SPACING: 0.0625
Info: NONBONDED TABLE SIZE: 705 POINTS
TCL: Setting parameter alchLambda2 to 0.0
Info: NONBONDED TABLE R-SQUARED SPACING: 0.0625
Info: NONBONDED TABLE SIZE: 705 POINTS
TCL: Running for 1500000 steps
ETITLE: TS BOND ANGLE DIHED IMPRP ELECT VDW BOUNDARY MISC KINETIC TOTAL TEMP POTENTIAL TOTALAVG TEMPAVG PRESSURE GPRESSURE VOLUME PRESSAVG GPRESSAVG
ENERGY: 0 1.1822 5.7238 2.4356 0.0000 -10479.2560 1331.6961 0.0000 0.0000 1787.2851 -7350.9332 308.7548 -9138.2183 -7350.9332 308.7548 -683.2137 -591.3751 29478.9830 -683.2137 -591.3751
ENERGY: 300000 3.4797 3.9975 2.0484 0.0000 -10584.7079 1402.3222 0.0000 0.0000 1726.2170 -7446.6432 298.2052 -9172.8601 -7370.0756 302.4298 -330.8730 -229.2713 29747.7342 -297.9683 -240.6880
ENERGY: 600000 2.1815 2.7371 1.3638 0.0000 -10578.7988 1444.2293 0.0000 0.0000 1799.1562 -7329.1308 310.8056 -9128.2871 -7358.3056 300.4429 236.7815 339.6531 29662.9121 -208.3322 -130.8940
ENERGY: 900000 3.5339 3.2554 1.2830 0.0000 -10670.7505 1449.6780 0.0000 0.0000 1749.3845 -7463.6157 302.2075 -9213.0002 -7373.3214 300.7346 365.4149 358.5043 29211.7739 -165.7465 -101.6301
ENERGY: 1200000 2.4931 8.7401 2.2961 0.0000 -10616.3735 1471.9372 0.0000 0.0000 1719.3383 -7411.5687 297.0169 -9130.9070 -7384.4028 299.6049 461.4027 469.7562 29791.5732 -163.3494 -112.3081
ENERGY: 1500000 1.6715 9.1395 1.7573 0.0000 -10438.5617 1366.4588 0.0000 0.0000 1773.1814 -7286.3533 306.3184 -9059.5347 -7387.8463 299.5792 -446.5915 -439.5593 30237.1969 -105.9261 -55.0059
TCL: Exiting due to exit command.
