Info: SIMULATION PARAMETERS:
Info: TIMESTEP               2
Info: NUMBER OF STEPS        0
Info: STEPS PER CYCLE        10
Info: PERIODIC CELL BASIS 1  30.889 0 0
Info: PERIODIC CELL BASIS 2  0 31.5675 0
Info: PERIODIC CELL BASIS 3  0 0 31.3354
Info: PERIODIC CELL CENTER   0 0 0
Info: WRAPPING WATERS AROUND PERIODIC BOUNDARIES ON OUTPUT.
Info: WRAPPING ALL CLUSTERS AROUND PERIODIC BOUNDARIES ON OUTPUT.
Info: FIRST LDB TIMESTEP     50
Info: LAST LDB TIMESTEP     -1
Info: HOM BACKGROUND SCALING 1
Info: PME BACKGROUND SCALING 1
Info: MIN ATOMS PER PATCH    40
Info: EMPTY PATCH LOAD       40 ATOMS
Info: VELOCITY FILE          mobley_7532833_equil.vel
Info: CENTER OF MASS MOVING INITIALLY? NO
Info: DIELECTRIC             1
Info: EXCLUDE                SCALED ONE-FOUR
Info: 1-4 ELECTROSTATICS SCALED BY 0.833333
Info: MODIFIED 1-4 VDW PARAMETERS WILL BE USED
Info: DCD FILENAME           mobley_7532833_prod.dcd
Info: DCD FREQUENCY          100000
Info: DCD FIRST STEP         100000
Info: DCD FILE WILL CONTAIN UNIT CELL DATA
Info: XST FILENAME           mobley_7532833_prod.xst
Info: XST FREQUENCY          100000
Info: NO VELOCITY DCD OUTPUT
Info: NO FORCE DCD OUTPUT
Info: OUTPUT FILENAME        mobley_7532833_prod
Info: BINARY OUTPUT FILES WILL BE USED
Info: RESTART FILENAME       mobley_7532833_prod.restart
Info: RESTART FREQUENCY      100000
Info: BINARY RESTART FILES WILL BE USED
Info: CUTOFF                 9
Info: PAIRLIST DISTANCE      11
Info: PAIRLIST SHRINK RATE   0.01
Info: PAIRLIST GROW RATE     0.01
Info: PAIRLIST TRIGGER       0.3
Info: PAIRLISTS PER CYCLE    2
Info: PAIRLISTS ENABLED
Info: MARGIN                 2
Info: HYDROGEN GROUP CUTOFF  2.5
Info: PATCH DIMENSION        15.5
Info: ENERGY OUTPUT STEPS    100000
Info: ENERGY EVALUATION STEPS    100000
Info: OUTPUT ENERGY PRECISION 4
Info: CROSSTERM ENERGY INCLUDED IN DIHEDRAL
Info: TIMING OUTPUT STEPS    1000000
Info: PRESSURE OUTPUT STEPS  100000
Info: ALCHEMICAL FEP ON
Info: FEP CURRENT LAMBDA VALUE     1
Info: FEP COMPARISON LAMBDA VALUE  0.95
Info: FEP INTRA-ALCHEMICAL NON-BONDED INTERACTIONS WILL BE RETAINED
Info: FEP INTRA-ALCHEMICAL BONDED INTERACTIONS WILL BE RETAINED
Info: FEP VDW SHIFTING COEFFICIENT 5
Info: FEP ELEC. ACTIVE FOR ANNIHILATED PARTICLES BETWEEN LAMBDA = 0 AND LAMBDA = 0.5
Info: FEP ELEC. ACTIVE FOR EXNIHILATED PARTICLES BETWEEN LAMBDA = 0.5 AND LAMBDA = 1
Info: FEP VDW ACTIVE FOR ANNIHILATED PARTICLES BETWEEN LAMBDA = 0 AND LAMBDA = 1
Info: FEP VDW ACTIVE FOR EXNIHILATED PARTICLES BETWEEN LAMBDA = 0 AND LAMBDA = 1
Info: FEP BOND ACTIVE FOR ANNIHILATED PARTICLES BETWEEN LAMBDA = 1 AND LAMBDA = 1
Info: FEP BOND ACTIVE FOR EXNIHILATED PARTICLES BETWEEN LAMBDA = 0 AND LAMBDA = 0
Info: LANGEVIN DYNAMICS ACTIVE
Info: LANGEVIN TEMPERATURE   300
Info: LANGEVIN USING BBK INTEGRATOR
Info: LANGEVIN DAMPING COEFFICIENT IS 1 INVERSE PS
Info: LANGEVIN DYNAMICS APPLIED TO HYDROGENS
Info: LANGEVIN PISTON PRESSURE CONTROL ACTIVE
Info:        TARGET PRESSURE IS 1.01325 BAR
Info:     OSCILLATION PERIOD IS 50 FS
Info:             DECAY TIME IS 25 FS
Info:     PISTON TEMPERATURE IS 300 K
Info:       PRESSURE CONTROL IS GROUP-BASED
Info:    INITIAL STRAIN RATE IS 0.000516786 0.000516786 0.000516786
Info:       CELL FLUCTUATION IS ISOTROPIC
Info: PARTICLE MESH EWALD (PME) ACTIVE
Info: PME TOLERANCE               1e-06
Info: PME EWALD COEFFICIENT       0.348832
Info: PME INTERPOLATION ORDER     4
Info: PME GRID DIMENSIONS         32 32 32
Info: PME MAXIMUM GRID SPACING    1
Info: PME CALCULATION WILL BE PERFORMED ON GPU
Info: FULL ELECTROSTATIC EVALUATION FREQUENCY      2
Info: USING VERLET I (r-RESPA) MTS SCHEME.
Info: C1 SPLITTING OF LONG RANGE ELECTROSTATICS
Info: PLACING ATOMS IN PATCHES BY HYDROGEN GROUPS
Info: RIGID BONDS TO HYDROGEN : ALL
Info:         ERROR TOLERANCE : 1e-08
Info:          MAX ITERATIONS : 100
Info: RIGID WATER USING SETTLE ALGORITHM
Info: RANDOM NUMBER SEED     1743489633
Info: USE HYDROGEN BONDS?    NO
Info: Using AMBER format force field!
Info: AMBER PARM FILE        mobley_7532833.prmtop
Info: COORDINATE PDB         mobley_7532833.pdb
Info: Exclusions will be read from PARM file!
Info: SCNB (VDW SCALING)     2
Info: USING ARITHMETIC MEAN TO COMBINE L-J SIGMA PARAMETERS
Info: BINARY COORDINATES     mobley_7532833_equil.coor
Info: SUMMARY OF PARAMETERS:
Info: 5 BONDS
Info: 3 ANGLES
Info:   3 HARMONIC
Info:   0 COSINE-BASED
Info: 1 DIHEDRAL
Info: 0 IMPROPER
Info: 0 CROSSTERM
Info: 0 VDW
Info: 21 VDW_PAIRS
Info: 0 NBTHOLE_PAIRS
Info: To read alchdata from file: mobley_7532833.pdb
Info: To read alchflag data from column: 5
Info: STRUCTURE SUMMARY:
Info: 2958 ATOMS
Info: 2957 BONDS
Info: 7 ANGLES
Info: 3 DIHEDRALS
Info: 0 IMPROPERS
Info: 0 CROSSTERMS
Info: 2967 EXCLUSIONS
Info: 2955 RIGID BONDS
Info: ALCH: 0 ATOMS TO DISAPPEAR IN FINAL STATE
Info: ALCH: 6 ATOMS TO APPEAR IN FINAL STATE
Info: 5919 DEGREES OF FREEDOM
Info: 987 HYDROGEN GROUPS
Info: 4 ATOMS IN LARGEST HYDROGEN GROUP
Info: 987 MIGRATION GROUPS
Info: 4 ATOMS IN LARGEST MIGRATION GROUP
Info: TOTAL MASS = 17768.8 amu
Info: TOTAL CHARGE = 0.000100002 e
Info: MASS DENSITY = 0.965693 g/cm^3
Info: ATOM DENSITY = 0.0968099 atoms/A^3
Info: ADDED 0 IMPLICIT EXCLUSIONS
Info: NONBONDED TABLE R-SQUARED SPACING: 0.0625
Info: NONBONDED TABLE SIZE: 705 POINTS
Info: REMOVING COM VELOCITY -0.208626 0.0517668 -0.0804482
Info: Use 3D box decompostion in PME FFT.
Info: Updated CUDA force table with 4096 elements.
Info: Updated CUDA LJ table with 6 x 6 elements.
Info: Found 8 unique exclusion lists needing 8 bytes
TCL: Running for 1500000 steps
ETITLE: TS BOND ANGLE DIHED IMPRP ELECT VDW BOUNDARY MISC KINETIC TOTAL TEMP POTENTIAL TOTALAVG TEMPAVG PRESSURE GPRESSURE VOLUME PRESSAVG GPRESSAVG
ENERGY: 0 1.5196 1.2841 0.0000 0.0000 -10702.3232 1400.0236 0.0000 0.0000 1755.0754 -7544.4204 298.4268 -9299.4958 -7544.4204 298.4268 -486.9208 -393.5805 30554.7171 -486.9208 -393.5805
ENERGY: 300000 1.9277 1.8620 0.0000 0.0000 -10657.7523 1327.1455 0.0000 0.0000 1818.5771 -7508.2400 309.2244 -9326.8171 -7533.9311 302.2418 -916.1956 -920.7321 30249.3732 -600.4791 -561.1695
ENERGY: 600000 0.0800 4.7256 0.0000 0.0000 -10874.4107 1528.6120 0.0000 0.0000 1692.2904 -7648.7026 287.7511 -9340.9931 -7550.5740 299.6943 582.5120 683.2471 30330.2555 -178.8715 -125.5815
ENERGY: 900000 1.6553 2.7658 0.0000 0.0000 -10687.4217 1362.5631 0.0000 0.0000 1717.7491 -7602.6883 292.0800 -9320.4374 -7559.8175 298.7644 -558.8170 -454.0593 30413.6041 -233.2757 -169.7881
ENERGY: 1200000 0.2714 3.2972 0.0000 0.0000 -10796.3838 1393.5051 0.0000 0.0000 1803.5691 -7595.7411 306.6725 -9399.3102 -7560.7631 300.2793 -370.0406 -323.0303 30050.4850 -152.1669 -86.5881
ENERGY: 1500000 0.3424 0.6099 0.0000 0.0000 -10702.7547 1363.5244 0.0000 0.0000 1798.9432 -7539.3348 305.8859 -9338.2780 -7559.3940 300.8036 -541.9257 -484.4057 30119.9548 -190.7397 -122.9706
TCL: Running FEP window   2: Lambda1 0.95   Lambda2 0.8999999999999999 [dLambda -0.050000000000000044]
TCL: Setting parameter firsttimestep to 0
TCL: Setting parameter alchLambda to 0.95
Info: NONBONDED TABLE R-SQUARED SPACING: 0.0625
Info: NONBONDED TABLE SIZE: 705 POINTS
TCL: Setting parameter alchLambda2 to 0.8999999999999999
Info: NONBONDED TABLE R-SQUARED SPACING: 0.0625
Info: NONBONDED TABLE SIZE: 705 POINTS
TCL: Running for 1500000 steps
ETITLE: TS BOND ANGLE DIHED IMPRP ELECT VDW BOUNDARY MISC KINETIC TOTAL TEMP POTENTIAL TOTALAVG TEMPAVG PRESSURE GPRESSURE VOLUME PRESSAVG GPRESSAVG
ENERGY: 0 0.3424 0.6099 0.0000 0.0000 -10701.6931 1363.0921 0.0000 0.0000 1798.0662 -7539.5825 305.7368 -9337.6487 -7539.5825 305.7368 -592.2459 -498.8680 30119.9548 -592.2459 -498.8680
ENERGY: 300000 0.1038 3.2103 0.0000 0.0000 -10647.9339 1455.4674 0.0000 0.0000 1808.3847 -7380.7677 307.4913 -9189.1524 -7517.2121 304.6068 482.3571 535.6462 30453.5405 -392.5120 -317.5846
ENERGY: 600000 1.2616 3.6119 0.0000 0.0000 -10872.1659 1480.5844 0.0000 0.0000 1743.1912 -7643.5169 296.4060 -9386.7080 -7545.5597 300.4641 191.4548 275.9693 30137.6493 -224.7292 -161.8654
ENERGY: 900000 0.3473 2.7662 0.0000 0.0000 -10602.1705 1322.2617 0.0000 0.0000 1777.8330 -7498.9623 302.2964 -9276.7952 -7552.8564 300.5770 -839.8849 -775.3401 30491.4342 -332.8694 -273.1140
ENERGY: 1200000 1.0135 2.2018 0.0000 0.0000 -10693.6453 1362.8918 0.0000 0.0000 1782.2190 -7545.3193 303.0422 -9327.5383 -7555.7880 300.2525 -483.9466 -406.2178 30271.8911 -337.1616 -273.9830
ENERGY: 1500000 0.9483 2.3330 0.0000 0.0000 -10676.4829 1392.1070 0.0000 0.0000 1772.8283 -7508.2662 301.4454 -9281.0946 -7543.6949 300.2897 -449.1494 -414.9674 30771.6611 -301.7564 -238.7300
TCL: Running FEP window   3: Lambda1 0.8999999999999999 Lambda2 0.8499999999999999 [dLambda -0.050000000000000044]
TCL: Setting parameter firsttimestep to 0
TCL: Setting parameter alchLambda to 0.8999999999999999
Info: NONBONDED TABLE R-SQUARED SPACING: 0.0625
Info: NONBONDED TABLE SIZE: 705 POINTS
TCL: Setting parameter alchLambda2 to 0.8499999999999999
Info: NONBONDED TABLE R-SQUARED SPACING: 0.0625
Info: NONBONDED TABLE SIZE: 705 POINTS
TCL: Running for 1500000 steps
ETITLE: TS BOND ANGLE DIHED IMPRP ELECT VDW BOUNDARY MISC KINETIC TOTAL TEMP POTENTIAL TOTALAVG TEMPAVG PRESSURE GPRESSURE VOLUME PRESSAVG GPRESSAVG
ENERGY: 0 0.9483 2.3330 0.0000 0.0000 -10676.0707 1392.0417 0.0000 0.0000 1771.9815 -7508.7662 301.3015 -9280.7478 -7508.7662 301.3015 -519.1488 -421.3878 30771.6611 -519.1488 -421.3878
ENERGY: 300000 0.0933 2.4782 0.0000 0.0000 -10732.0806 1452.2684 0.0000 0.0000 1790.1932 -7487.0475 304.3981 -9277.2407 -7532.0624 300.2658 -61.3008 3.7320 30803.9660 -286.0194 -222.4821
ENERGY: 600000 0.1578 2.9570 0.0000 0.0000 -10623.9009 1345.2407 0.0000 0.0000 1709.5434 -7566.0019 290.6847 -9275.5453 -7553.7103 298.1643 -848.3278 -806.3521 30893.9615 -211.0344 -147.4255
ENERGY: 900000 1.7668 2.2941 0.0000 0.0000 -10612.8187 1352.2618 0.0000 0.0000 1758.6964 -7497.7997 299.0425 -9256.4961 -7541.3488 299.2919 -821.8572 -656.9033 30676.0882 -148.8062 -70.1953
ENERGY: 1200000 0.4425 3.4564 0.0000 0.0000 -10757.2394 1379.5041 0.0000 0.0000 1762.6066 -7611.2298 299.7074 -9373.8364 -7538.6326 299.8317 -583.7586 -518.4901 30137.3622 -130.4345 -52.1547
ENERGY: 1500000 0.9174 0.6468 0.0000 0.0000 -10627.3777 1363.9017 0.0000 0.0000 1759.8389 -7502.0729 299.2368 -9261.9118 -7544.8549 299.2654 -536.0477 -439.3601 30275.3818 -181.2467 -103.9827
TCL: Running FEP window   4: Lambda1 0.8499999999999999 Lambda2 0.7999999999999998 [dLambda -0.050000000000000044]
TCL: Setting parameter firsttimestep to 0
TCL: Setting parameter alchLambda to 0.8499999999999999
Info: NONBONDED TABLE R-SQUARED SPACING: 0.0625
Info: NONBONDED TABLE SIZE: 705 POINTS
TCL: Setting parameter alchLambda2 to 0.7999999999999998
Info: NONBONDED TABLE R-SQUARED SPACING: 0.0625
Info: NONBONDED TABLE SIZE: 705 POINTS
TCL: Running for 1500000 steps
ETITLE: TS BOND ANGLE DIHED IMPRP ELECT VDW BOUNDARY MISC KINETIC TOTAL TEMP POTENTIAL TOTALAVG TEMPAVG PRESSURE GPRESSURE VOLUME PRESSAVG GPRESSAVG
ENERGY: 0 0.9174 0.6468 0.0000 0.0000 -10626.5562 1364.1052 0.0000 0.0000 1758.9570 -7501.9298 299.0868 -9260.8868 -7501.9298 299.0868 -515.5723 -440.2205 30275.3818 -515.5723 -440.2205
ENERGY: 300000 0.2855 0.4224 0.0000 0.0000 -10745.7341 1420.2566 0.0000 0.0000 1814.7737 -7509.9959 308.5777 -9324.7696 -7514.2775 302.7050 -470.1093 -337.0493 30718.5519 -224.6886 -133.0249
ENERGY: 600000 0.1029 2.1201 0.0000 0.0000 -10781.8796 1471.0381 0.0000 0.0000 1784.9706 -7523.6480 303.5101 -9308.6186 -7528.4305 301.2026 287.1004 389.5777 30497.3162 -313.3049 -228.1829
ENERGY: 900000 1.0862 1.6330 0.0000 0.0000 -10742.2608 1337.2076 0.0000 0.0000 1720.2339 -7682.1001 292.5025 -9402.3341 -7561.9838 299.1568 -1059.5766 -1027.3706 30177.0916 -386.4365 -314.5451
ENERGY: 1200000 1.0580 1.0803 0.0000 0.0000 -10819.5791 1486.6937 0.0000 0.0000 1798.3020 -7532.4450 305.7769 -9330.7471 -7548.2490 299.9416 183.8276 220.3035 30461.0675 -332.6145 -272.9546
ENERGY: 1500000 0.2318 1.8460 0.0000 0.0000 -10784.8072 1466.2267 0.0000 0.0000 1715.3358 -7601.1669 291.6696 -9316.5027 -7546.3144 299.4148 150.6716 216.6907 30263.2752 -314.0191 -252.3150
TCL: Running FEP window   5: Lambda1 0.7999999999999998 Lambda2 0.7499999999999998 [dLambda -0.050000000000000044]
TCL: Setting parameter firsttimestep to 0
TCL: Setting parameter alchLambda to 0.7999999999999998
Info: NONBONDED TABLE R-SQUARED SPACING: 0.0625
Info: NONBONDED TABLE SIZE: 705 POINTS
TCL: Setting parameter alchLambda2 to 0.7499999999999998
Info: NONBONDED TABLE R-SQUARED SPACING: 0.0625
Info: NONBONDED TABLE SIZE: 705 POINTS
TCL: Running for 1500000 steps
ETITLE: TS BOND ANGLE DIHED IMPRP ELECT VDW BOUNDARY MISC KINETIC TOTAL TEMP POTENTIAL TOTALAVG TEMPAVG PRESSURE GPRESSURE VOLUME PRESSAVG GPRESSAVG
ENERGY: 0 0.2318 1.8460 0.0000 0.0000 -10784.3755 1466.3539 0.0000 0.0000 1714.4573 -7601.4865 291.5202 -9315.9438 -7601.4865 291.5202 122.4426 208.5770 30263.2752 122.4426 208.5770
ENERGY: 300000 2.0242 0.5768 0.0000 0.0000 -10778.9428 1457.2537 0.0000 0.0000 1754.2998 -7564.7884 298.2949 -9319.0882 -7527.5164 298.3215 -175.1124 -89.5874 30828.1037 -317.0867 -260.9737
ENERGY: 600000 2.1511 2.2167 0.0000 0.0000 -10871.0123 1492.5468 0.0000 0.0000 1793.8634 -7580.2343 305.0222 -9374.0976 -7538.7101 299.0012 239.0465 279.3405 30479.7383 -89.3350 -36.4321
ENERGY: 900000 0.1025 0.3186 0.0000 0.0000 -10866.1795 1517.1120 0.0000 0.0000 1764.8609 -7583.7855 300.0907 -9348.6464 -7557.5623 298.6733 473.6557 646.1494 30263.7042 -188.0622 -125.5981
ENERGY: 1200000 0.3634 2.4593 0.0000 0.0000 -10691.5607 1393.6547 0.0000 0.0000 1822.6491 -7472.4342 309.9168 -9295.0833 -7545.0317 300.3287 -459.9345 -430.1728 30778.5435 -179.3093 -123.1517
ENERGY: 1500000 1.4684 2.0878 0.0000 0.0000 -10646.9600 1409.7747 0.0000 0.0000 1755.2475 -7478.3816 298.4561 -9233.6291 -7551.7491 299.2908 -211.0642 -6.7633 30565.0472 -207.3144 -141.6473
TCL: Running FEP window   6: Lambda1 0.7499999999999998 Lambda2 0.6999999999999997 [dLambda -0.050000000000000044]
TCL: Setting parameter firsttimestep to 0
TCL: Setting parameter alchLambda to 0.7499999999999998
Info: NONBONDED TABLE R-SQUARED SPACING: 0.0625
Info: NONBONDED TABLE SIZE: 705 POINTS
TCL: Setting parameter alchLambda2 to 0.6999999999999997
Info: NONBONDED TABLE R-SQUARED SPACING: 0.0625
Info: NONBONDED TABLE SIZE: 705 POINTS
TCL: Running for 1500000 steps
ETITLE: TS BOND ANGLE DIHED IMPRP ELECT VDW BOUNDARY MISC KINETIC TOTAL TEMP POTENTIAL TOTALAVG TEMPAVG PRESSURE GPRESSURE VOLUME PRESSAVG GPRESSAVG
ENERGY: 0 1.4684 2.0878 0.0000 0.0000 -10645.9868 1409.2587 0.0000 0.0000 1754.3747 -7478.7971 298.3077 -9233.1718 -7478.7971 298.3077 -111.2532 -17.8206 30565.0472 -111.2532 -17.8206
ENERGY: 300000 0.5905 1.8895 0.0000 0.0000 -10834.8978 1480.9999 0.0000 0.0000 1783.8854 -7567.5325 303.3256 -9351.4179 -7552.6600 299.1715 123.8288 254.1214 30414.0554 -77.5249 31.1829
ENERGY: 600000 0.1272 3.3434 0.0000 0.0000 -10762.9415 1461.8235 0.0000 0.0000 1755.6410 -7542.0064 298.5230 -9297.6474 -7535.5323 298.1103 129.5488 229.3238 30234.9757 53.9614 145.0589
ENERGY: 900000 0.3084 4.0464 0.0000 0.0000 -10636.1426 1377.4266 0.0000 0.0000 1727.5869 -7526.7744 293.7527 -9254.3612 -7549.9696 296.2698 -295.0310 -211.4441 30195.7524 -69.7422 17.2594
ENERGY: 1200000 0.3373 2.5607 0.0000 0.0000 -10817.2521 1531.5842 0.0000 0.0000 1756.0064 -7526.7636 298.5851 -9282.7699 -7546.2708 296.0600 599.8446 658.0879 30645.6573 -0.0548 79.4647
ENERGY: 1500000 0.2022 4.9742 0.0000 0.0000 -10731.2110 1439.0487 0.0000 0.0000 1683.3216 -7603.6642 286.2260 -9286.9858 -7543.8832 297.1795 209.5956 264.1935 30015.7023 37.9892 106.3951
TCL: Running FEP window   7: Lambda1 0.6999999999999997 Lambda2 0.6499999999999997 [dLambda -0.050000000000000044]
TCL: Setting parameter firsttimestep to 0
TCL: Setting parameter alchLambda to 0.6999999999999997
Info: NONBONDED TABLE R-SQUARED SPACING: 0.0625
Info: NONBONDED TABLE SIZE: 705 POINTS
TCL: Setting parameter alchLambda2 to 0.6499999999999997
Info: NONBONDED TABLE R-SQUARED SPACING: 0.0625
Info: NONBONDED TABLE SIZE: 705 POINTS
TCL: Running for 1500000 steps
ETITLE: TS BOND ANGLE DIHED IMPRP ELECT VDW BOUNDARY MISC KINETIC TOTAL TEMP POTENTIAL TOTALAVG TEMPAVG PRESSURE GPRESSURE VOLUME PRESSAVG GPRESSAVG
ENERGY: 0 0.2022 4.9742 0.0000 0.0000 -10731.0669 1439.2327 0.0000 0.0000 1682.4637 -7604.1940 286.0802 -9286.6577 -7604.1940 286.0802 179.4885 262.9465 30015.7023 179.4885 262.9465
ENERGY: 300000 0.9136 1.7052 0.0000 0.0000 -10723.6013 1414.4037 0.0000 0.0000 1769.6593 -7536.9195 300.9066 -9306.5789 -7554.4140 295.0175 -233.2003 -201.2266 30431.5099 -150.0300 -68.0157
ENERGY: 600000 0.0951 3.3281 0.0000 0.0000 -10755.5022 1457.9134 0.0000 0.0000 1767.4635 -7526.7020 300.5332 -9294.1655 -7542.7430 297.0485 156.2129 242.7700 30198.6130 -8.6900 70.0368
ENERGY: 900000 0.0570 2.3161 0.0000 0.0000 -10799.5443 1450.1161 0.0000 0.0000 1777.8090 -7569.2462 302.2923 -9347.0552 -7537.9870 298.0332 60.5846 121.8028 30048.1585 -28.8308 39.4984
ENERGY: 1200000 0.0637 0.4654 0.0000 0.0000 -10729.0885 1450.7414 0.0000 0.0000 1763.3823 -7514.4357 299.8393 -9277.8179 -7548.1038 298.2490 268.5661 342.6856 29970.9590 2.6593 69.2364
ENERGY: 1500000 0.6730 1.4965 0.0000 0.0000 -10642.4543 1394.3713 0.0000 0.0000 1744.1034 -7501.8100 296.5612 -9245.9134 -7553.3804 297.2410 -237.6041 -176.9890 30570.5883 48.7260 114.6633
TCL: Running FEP window   8: Lambda1 0.6499999999999997 Lambda2 0.5999999999999996 [dLambda -0.050000000000000044]
TCL: Setting parameter firsttimestep to 0
TCL: Setting parameter alchLambda to 0.6499999999999997
Info: NONBONDED TABLE R-SQUARED SPACING: 0.0625
Info: NONBONDED TABLE SIZE: 705 POINTS
TCL: Setting parameter alchLambda2 to 0.5999999999999996
Info: NONBONDED TABLE R-SQUARED SPACING: 0.0625
Info: NONBONDED TABLE SIZE: 705 POINTS
TCL: Running for 1500000 steps
ETITLE: TS BOND ANGLE DIHED IMPRP ELECT VDW BOUNDARY MISC KINETIC TOTAL TEMP POTENTIAL TOTALAVG TEMPAVG PRESSURE GPRESSURE VOLUME PRESSAVG GPRESSAVG
ENERGY: 0 0.6730 1.4965 0.0000 0.0000 -10642.0710 1394.3293 0.0000 0.0000 1743.2281 -7502.3440 296.4123 -9245.5721 -7502.3440 296.4123 -283.9546 -184.5768 30570.5883 -283.9546 -184.5768
ENERGY: 300000 1.7916 0.9355 0.0000 0.0000 -10657.8367 1411.7940 0.0000 0.0000 1811.8877 -7431.4278 308.0870 -9243.3156 -7527.4675 301.4799 -138.1960 -43.9660 30662.3434 53.6351 142.1955
ENERGY: 600000 0.1783 2.7741 0.0000 0.0000 -10776.6270 1462.4150 0.0000 0.0000 1740.8954 -7570.3641 296.0157 -9311.2595 -7526.6649 301.4158 26.4974 86.0809 30642.9491 -102.6909 -24.8179
ENERGY: 900000 0.2424 1.1973 0.0000 0.0000 -10848.7211 1536.8537 0.0000 0.0000 1758.1684 -7552.2593 298.9527 -9310.4277 -7536.6260 300.4978 743.1214 836.4693 30057.8557 50.3177 129.4480
ENERGY: 1200000 0.7969 1.1324 0.0000 0.0000 -10728.8899 1437.2916 0.0000 0.0000 1720.4642 -7569.2048 292.5416 -9289.6690 -7545.4951 299.3538 -276.0931 -226.7095 30826.9983 -19.0578 62.6602
ENERGY: 1500000 0.6235 2.0915 0.0000 0.0000 -10944.7088 1581.2697 0.0000 0.0000 1757.1782 -7603.5459 298.7844 -9360.7241 -7544.2233 299.6869 835.2464 906.1675 30521.4178 112.3082 190.1090
TCL: Running FEP window   9: Lambda1 0.5999999999999996 Lambda2 0.5499999999999996 [dLambda -0.050000000000000044]
TCL: Setting parameter firsttimestep to 0
TCL: Setting parameter alchLambda to 0.5999999999999996
Info: NONBONDED TABLE R-SQUARED SPACING: 0.0625
Info: NONBONDED TABLE SIZE: 705 POINTS
TCL: Setting parameter alchLambda2 to 0.5499999999999996
Info: NONBONDED TABLE R-SQUARED SPACING: 0.0625
Info: NONBONDED TABLE SIZE: 705 POINTS
TCL: Running for 1500000 steps
ETITLE: TS BOND ANGLE DIHED IMPRP ELECT VDW BOUNDARY MISC KINETIC TOTAL TEMP POTENTIAL TOTALAVG TEMPAVG PRESSURE GPRESSURE VOLUME PRESSAVG GPRESSAVG
ENERGY: 0 0.6235 2.0915 0.0000 0.0000 -10944.3692 1581.2600 0.0000 0.0000 1756.2903 -7604.1039 298.6334 -9360.3942 -7604.1039 298.6334 827.4920 902.8109 30521.4178 827.4920 902.8109
ENERGY: 300000 0.4378 1.3645 0.0000 0.0000 -10726.8211 1461.7135 0.0000 0.0000 1784.3353 -7478.9700 303.4021 -9263.3053 -7539.7836 300.2224 170.1005 253.9279 30558.5798 -30.1387 29.7690
ENERGY: 600000 0.0654 0.8910 0.0000 0.0000 -10626.9384 1413.9629 0.0000 0.0000 1721.0706 -7490.9486 292.6447 -9212.0192 -7530.9407 300.1560 56.1470 143.4590 30331.9246 -12.8213 51.7652
ENERGY: 900000 0.1152 1.9614 0.0000 0.0000 -10710.3808 1357.6375 0.0000 0.0000 1801.5719 -7549.0948 306.3329 -9350.6668 -7527.6109 301.2443 -679.7132 -684.1309 30444.8014 -120.8360 -68.5065
ENERGY: 1200000 0.0982 1.5168 0.0000 0.0000 -10720.7692 1471.5949 0.0000 0.0000 1749.8157 -7497.7437 297.5325 -9247.5594 -7516.8190 301.4025 418.0575 460.4106 30347.3504 -114.6209 -66.9235
ENERGY: 1500000 0.5928 0.3572 0.0000 0.0000 -10796.1135 1450.0789 0.0000 0.0000 1752.6608 -7592.4238 298.0162 -9345.0846 -7527.9601 300.5137 -173.6538 -115.9674 30404.7114 -179.8191 -132.3929
TCL: Running FEP window  10: Lambda1 0.5499999999999996 Lambda2 0.4999999999999996 [dLambda -0.04999999999999999]
TCL: Setting parameter firsttimestep to 0
TCL: Setting parameter alchLambda to 0.5499999999999996
Info: NONBONDED TABLE R-SQUARED SPACING: 0.0625
Info: NONBONDED TABLE SIZE: 705 POINTS
TCL: Setting parameter alchLambda2 to 0.4999999999999996
Info: NONBONDED TABLE R-SQUARED SPACING: 0.0625
Info: NONBONDED TABLE SIZE: 705 POINTS
TCL: Running for 1500000 steps
ETITLE: TS BOND ANGLE DIHED IMPRP ELECT VDW BOUNDARY MISC KINETIC TOTAL TEMP POTENTIAL TOTALAVG TEMPAVG PRESSURE GPRESSURE VOLUME PRESSAVG GPRESSAVG
ENERGY: 0 0.5928 0.3572 0.0000 0.0000 -10795.3824 1450.3513 0.0000 0.0000 1751.7595 -7592.3216 297.8630 -9344.0811 -7592.3216 297.8630 -204.3069 -114.7907 30404.7114 -204.3069 -114.7907
ENERGY: 300000 0.5735 1.2725 0.0000 0.0000 -10678.1840 1381.4993 0.0000 0.0000 1747.1143 -7547.7245 297.0731 -9294.8388 -7556.0579 301.0548 -604.7784 -554.9026 30628.6553 -224.2559 -169.4869
ENERGY: 600000 0.0459 0.8114 0.0000 0.0000 -10722.7219 1417.8382 0.0000 0.0000 1730.7321 -7573.2942 294.2876 -9304.0263 -7536.2303 300.5192 -170.0210 -137.5260 30321.9569 -346.1136 -304.3528
ENERGY: 900000 1.5818 5.1462 0.0000 0.0000 -10825.9193 1499.0173 0.0000 0.0000 1766.1256 -7554.0484 300.3057 -9320.1740 -7530.7599 299.2664 285.6580 455.3381 30391.7564 -230.9771 -188.0658
ENERGY: 1200000 3.1068 5.3801 0.0000 0.0000 -10685.0248 1369.2539 0.0000 0.0000 1719.7510 -7587.5330 292.4204 -9307.2840 -7533.3776 299.0319 -710.5988 -701.6733 31040.0121 -243.2832 -201.5993
ENERGY: 1500000 0.8551 1.5081 0.0000 0.0000 -10824.9042 1501.2575 0.0000 0.0000 1840.6645 -7480.6189 312.9801 -9321.2835 -7534.9010 299.9515 272.2063 369.9004 30495.7408 -182.5679 -131.3421
TCL: Running FEP window  11: Lambda1 0.4999999999999996 Lambda2 0.4499999999999996 [dLambda -0.04999999999999999]
TCL: Setting parameter firsttimestep to 0
TCL: Setting parameter alchLambda to 0.4999999999999996
Info: NONBONDED TABLE R-SQUARED SPACING: 0.0625
Info: NONBONDED TABLE SIZE: 705 POINTS
TCL: Setting parameter alchLambda2 to 0.4499999999999996
Info: NONBONDED TABLE R-SQUARED SPACING: 0.0625
Info: NONBONDED TABLE SIZE: 705 POINTS
TCL: Running for 1500000 steps
ETITLE: TS BOND ANGLE DIHED IMPRP ELECT VDW BOUNDARY MISC KINETIC TOTAL TEMP POTENTIAL TOTALAVG TEMPAVG PRESSURE GPRESSURE VOLUME PRESSAVG GPRESSAVG
ENERGY: 0 0.8551 1.5081 0.0000 0.0000 -10824.7109 1501.5228 0.0000 0.0000 1839.7644 -7481.0605 312.8270 -9320.8249 -7481.0605 312.8270 285.8550 372.1237 30495.7408 285.8550 372.1237
ENERGY: 300000 0.2631 1.2131 0.0000 0.0000 -10698.4505 1381.7990 0.0000 0.0000 1772.1726 -7543.0028 301.3339 -9315.1753 -7526.0879 304.7167 -499.7499 -398.4960 30301.3444 42.4381 120.6979
ENERGY: 600000 0.2835 1.0314 0.0000 0.0000 -10913.0662 1537.7366 0.0000 0.0000 1802.1833 -7571.8314 306.4369 -9374.0147 -7517.4879 304.3455 636.8257 718.8480 30114.2843 138.4260 210.0083
ENERGY: 900000 0.5130 1.3466 0.0000 0.0000 -10893.8127 1496.0773 0.0000 0.0000 1795.4535 -7600.4224 305.2925 -9395.8759 -7525.6434 304.2413 456.0407 475.2377 29821.9631 216.1607 279.4929
ENERGY: 1200000 0.0219 2.0833 0.0000 0.0000 -10717.8120 1432.5866 0.0000 0.0000 1754.0073 -7529.1129 298.2452 -9283.1202 -7528.7210 302.9430 -324.3324 -315.9288 30866.3877 121.5295 171.7887
ENERGY: 1500000 0.8579 2.1298 0.0000 0.0000 -10742.6383 1453.1658 0.0000 0.0000 1833.8964 -7452.5883 311.8292 -9286.4847 -7529.5462 303.4260 72.8005 72.3537 30734.5453 103.0405 150.3732
TCL: Running FEP window  12: Lambda1 0.4499999999999996 Lambda2 0.39999999999999963 [dLambda -0.04999999999999999]
TCL: Setting parameter firsttimestep to 0
TCL: Setting parameter alchLambda to 0.4499999999999996
Info: NONBONDED TABLE R-SQUARED SPACING: 0.0625
Info: NONBONDED TABLE SIZE: 705 POINTS
TCL: Setting parameter alchLambda2 to 0.39999999999999963
Info: NONBONDED TABLE R-SQUARED SPACING: 0.0625
Info: NONBONDED TABLE SIZE: 705 POINTS
TCL: Running for 1500000 steps
ETITLE: TS BOND ANGLE DIHED IMPRP ELECT VDW BOUNDARY MISC KINETIC TOTAL TEMP POTENTIAL TOTALAVG TEMPAVG PRESSURE GPRESSURE VOLUME PRESSAVG GPRESSAVG
ENERGY: 0 0.8579 2.1298 0.0000 0.0000 -10742.6382 1453.1983 0.0000 0.0000 1833.0383 -7453.4139 311.6833 -9286.4522 -7453.4139 311.6833 -17.5926 67.2234 30734.5453 -17.5926 67.2234
ENERGY: 300000 0.7081 2.4091 0.0000 0.0000 -10676.0993 1397.4098 0.0000 0.0000 1787.8602 -7487.7120 304.0014 -9275.5723 -7530.5414 303.8955 -454.6971 -366.7537 30660.7524 -300.7639 -220.3396
ENERGY: 600000 0.8817 0.9020 0.0000 0.0000 -10773.7952 1380.4108 0.0000 0.0000 1761.4501 -7630.1506 299.5107 -9391.6007 -7543.7566 302.3995 -774.9403 -744.5359 30407.6915 -59.9321 -6.2986
ENERGY: 900000 1.6749 4.4282 0.0000 0.0000 -10746.5803 1451.6164 0.0000 0.0000 1818.6965 -7470.1643 309.2447 -9288.8608 -7548.1654 302.8181 -31.8889 -54.5291 30729.4314 -63.0724 -12.0571
ENERGY: 1200000 0.9320 1.4201 0.0000 0.0000 -10897.1617 1490.8923 0.0000 0.0000 1792.5620 -7611.3551 304.8009 -9403.9172 -7540.2378 303.7684 469.8301 529.7116 29786.2780 -1.5705 57.7756
ENERGY: 1500000 1.6363 1.1999 0.0000 0.0000 -10731.0681 1433.7669 0.0000 0.0000 1777.4424 -7517.0225 302.2300 -9294.4649 -7536.2819 303.2339 -331.4735 -303.3873 31046.0794 -63.8620 -7.6611
TCL: Running FEP window  13: Lambda1 0.39999999999999963 Lambda2 0.34999999999999964 [dLambda -0.04999999999999999]
TCL: Setting parameter firsttimestep to 0
TCL: Setting parameter alchLambda to 0.39999999999999963
Info: NONBONDED TABLE R-SQUARED SPACING: 0.0625
Info: NONBONDED TABLE SIZE: 705 POINTS
TCL: Setting parameter alchLambda2 to 0.34999999999999964
Info: NONBONDED TABLE R-SQUARED SPACING: 0.0625
Info: NONBONDED TABLE SIZE: 705 POINTS
TCL: Running for 1500000 steps
ETITLE: TS BOND ANGLE DIHED IMPRP ELECT VDW BOUNDARY MISC KINETIC TOTAL TEMP POTENTIAL TOTALAVG TEMPAVG PRESSURE GPRESSURE VOLUME PRESSAVG GPRESSAVG
ENERGY: 0 1.6363 1.1999 0.0000 0.0000 -10731.0672 1433.9812 0.0000 0.0000 1776.5525 -7517.6972 302.0787 -9294.2497 -7517.6972 302.0787 -379.1178 -304.1395 31046.0794 -379.1178 -304.1395
ENERGY: 300000 0.2858 1.3253 0.0000 0.0000 -10796.9273 1475.5343 0.0000 0.0000 1718.9010 -7600.8809 292.2758 -9319.7819 -7513.8624 302.4405 -6.8150 73.8426 30592.2462 -255.6857 -176.5926
ENERGY: 600000 1.1053 1.3237 0.0000 0.0000 -10851.9828 1500.4994 0.0000 0.0000 1794.9551 -7554.0992 305.2078 -9349.0543 -7513.3549 305.2283 389.9707 473.4815 30143.2153 40.5295 122.2127
ENERGY: 900000 2.7418 2.4935 0.0000 0.0000 -10916.7450 1597.5691 0.0000 0.0000 1797.7893 -7516.1512 305.6897 -9313.9405 -7524.1644 303.0060 1237.5979 1325.1539 30301.5238 65.1417 137.9580
ENERGY: 1200000 0.4836 2.5800 0.0000 0.0000 -10862.0057 1538.9953 0.0000 0.0000 1767.8430 -7552.1038 300.5978 -9319.9468 -7525.7998 302.6155 829.8824 857.3505 30246.2741 104.7612 166.5613
ENERGY: 1500000 1.2904 1.3970 0.0000 0.0000 -10829.8046 1515.8208 0.0000 0.0000 1776.6127 -7534.6837 302.0889 -9311.2964 -7524.9307 302.2299 741.8015 755.6882 30097.5459 83.6936 143.4934
TCL: Running FEP window  14: Lambda1 0.34999999999999964 Lambda2 0.29999999999999966 [dLambda -0.04999999999999999]
TCL: Setting parameter firsttimestep to 0
TCL: Setting parameter alchLambda to 0.34999999999999964
Info: NONBONDED TABLE R-SQUARED SPACING: 0.0625
Info: NONBONDED TABLE SIZE: 705 POINTS
TCL: Setting parameter alchLambda2 to 0.29999999999999966
Info: NONBONDED TABLE R-SQUARED SPACING: 0.0625
Info: NONBONDED TABLE SIZE: 705 POINTS
TCL: Running for 1500000 steps
ETITLE: TS BOND ANGLE DIHED IMPRP ELECT VDW BOUNDARY MISC KINETIC TOTAL TEMP POTENTIAL TOTALAVG TEMPAVG PRESSURE GPRESSURE VOLUME PRESSAVG GPRESSAVG
ENERGY: 0 1.2905 1.3970 0.0000 0.0000 -10829.8049 1514.4295 0.0000 0.0000 1775.7062 -7536.9817 301.9348 -9312.6879 -7536.9817 301.9348 661.1089 742.1181 30097.5459 661.1089 742.1181
ENERGY: 300000 0.7267 2.6436 0.0000 0.0000 -10764.1288 1410.9488 0.0000 0.0000 1778.7085 -7571.1013 302.4453 -9349.8097 -7553.3048 302.6978 -204.5328 -111.5791 29928.6996 343.3888 401.0063
ENERGY: 600000 1.1728 1.7986 0.0000 0.0000 -10831.7060 1511.9724 0.0000 0.0000 1709.7510 -7607.0112 290.7200 -9316.7622 -7545.4309 300.5147 410.3856 480.0144 30374.0698 138.3472 201.7300
ENERGY: 900000 0.1107 2.7330 0.0000 0.0000 -10926.0264 1577.7581 0.0000 0.0000 1695.0050 -7650.4196 288.2126 -9345.4246 -7560.5905 299.5100 910.2675 996.9440 30106.4788 118.2063 182.0473
ENERGY: 1200000 0.0820 1.7566 0.0000 0.0000 -10746.8207 1454.8627 0.0000 0.0000 1721.0929 -7569.0265 292.6485 -9290.1195 -7556.2930 299.7018 145.9323 188.9018 30251.2642 75.4000 137.2944
ENERGY: 1500000 1.0428 1.9311 0.0000 0.0000 -10872.6978 1492.0977 0.0000 0.0000 1728.3319 -7649.2942 293.8794 -9377.6261 -7561.5527 299.2313 109.1866 192.8809 30300.5863 27.2997 96.8039
TCL: Running FEP window  15: Lambda1 0.29999999999999966 Lambda2 0.24999999999999967 [dLambda -0.04999999999999999]
TCL: Setting parameter firsttimestep to 0
TCL: Setting parameter alchLambda to 0.29999999999999966
Info: NONBONDED TABLE R-SQUARED SPACING: 0.0625
Info: NONBONDED TABLE SIZE: 705 POINTS
TCL: Setting parameter alchLambda2 to 0.24999999999999967
Info: NONBONDED TABLE R-SQUARED SPACING: 0.0625
Info: NONBONDED TABLE SIZE: 705 POINTS
TCL: Running for 1500000 steps
ETITLE: TS BOND ANGLE DIHED IMPRP ELECT VDW BOUNDARY MISC KINETIC TOTAL TEMP POTENTIAL TOTALAVG TEMPAVG PRESSURE GPRESSURE VOLUME PRESSAVG GPRESSAVG
ENERGY: 0 1.0428 1.9311 0.0000 0.0000 -10872.6968 1492.1273 0.0000 0.0000 1727.4414 -7650.1542 293.7280 -9377.5956 -7650.1542 293.7280 97.6050 191.4821 30300.5863 97.6050 191.4821
ENERGY: 300000 0.0449 1.2396 0.0000 0.0000 -10820.6228 1466.2673 0.0000 0.0000 1785.0694 -7568.0016 303.5269 -9353.0709 -7590.5521 297.5609 43.0918 117.3516 30616.1675 -7.2439 97.0578
ENERGY: 600000 0.2677 2.1766 0.0000 0.0000 -10707.3079 1420.7655 0.0000 0.0000 1742.6935 -7541.4045 296.3214 -9284.0981 -7567.3591 296.6328 -260.6889 -180.8035 30407.0603 145.9552 229.1917
ENERGY: 900000 0.2287 1.4514 0.0000 0.0000 -10913.8516 1487.2720 0.0000 0.0000 1750.2368 -7674.6628 297.6041 -9424.8996 -7561.7574 298.5013 -207.7029 -122.5783 30601.6142 88.1106 172.3676
ENERGY: 1200000 1.2861 1.2796 0.0000 0.0000 -10700.1988 1446.4486 0.0000 0.0000 1717.3132 -7533.8713 292.0059 -9251.1845 -7560.8673 297.8356 -140.3976 -139.5817 30954.3890 75.7948 142.5725
ENERGY: 1500000 0.6440 2.6960 0.0000 0.0000 -10636.0449 1367.6699 0.0000 0.0000 1770.9957 -7494.0394 301.1338 -9265.0351 -7550.2949 297.5812 -625.2227 -531.4720 30708.6302 -41.2100 29.2289
TCL: Running FEP window  16: Lambda1 0.24999999999999967 Lambda2 0.19999999999999968 [dLambda -0.04999999999999999]
TCL: Setting parameter firsttimestep to 0
TCL: Setting parameter alchLambda to 0.24999999999999967
Info: NONBONDED TABLE R-SQUARED SPACING: 0.0625
Info: NONBONDED TABLE SIZE: 705 POINTS
TCL: Setting parameter alchLambda2 to 0.19999999999999968
Info: NONBONDED TABLE R-SQUARED SPACING: 0.0625
Info: NONBONDED TABLE SIZE: 705 POINTS
TCL: Running for 1500000 steps
ETITLE: TS BOND ANGLE DIHED IMPRP ELECT VDW BOUNDARY MISC KINETIC TOTAL TEMP POTENTIAL TOTALAVG TEMPAVG PRESSURE GPRESSURE VOLUME PRESSAVG GPRESSAVG
ENERGY: 0 0.6440 2.6960 0.0000 0.0000 -10636.0448 1367.1330 0.0000 0.0000 1770.1146 -7495.4572 300.9840 -9265.5718 -7495.4572 300.9840 -634.1432 -538.4109 30708.6302 -634.1432 -538.4109
ENERGY: 300000 0.0974 1.8898 0.0000 0.0000 -10674.1535 1482.7878 0.0000 0.0000 1788.5804 -7400.7981 304.1239 -9189.3784 -7483.8382 304.8347 620.1827 680.2169 30315.3371 20.6233 91.8691
ENERGY: 600000 2.9772 1.6178 0.0000 0.0000 -10688.9721 1442.4689 0.0000 0.0000 1765.4693 -7476.4388 300.1942 -9241.9082 -7489.5749 304.3677 323.9394 354.3717 30024.8633 41.2671 110.1127
ENERGY: 900000 0.8675 2.7202 0.0000 0.0000 -10801.1666 1486.6902 0.0000 0.0000 1735.6578 -7575.2308 295.1251 -9310.8886 -7519.7639 302.4283 360.4199 443.9886 29988.9780 19.7002 84.3849
ENERGY: 1200000 0.5058 3.5823 0.0000 0.0000 -10834.3993 1484.9845 0.0000 0.0000 1804.5299 -7540.7968 306.8359 -9345.3267 -7529.4929 301.0725 599.9847 620.3255 29833.7145 141.3485 202.9397
ENERGY: 1500000 1.2697 1.3471 0.0000 0.0000 -10739.5354 1441.5801 0.0000 0.0000 1770.5912 -7524.7474 301.0651 -9295.3386 -7532.1119 300.3045 -75.2262 -64.8629 30486.6397 191.5210 250.2384
TCL: Running FEP window  17: Lambda1 0.19999999999999968 Lambda2 0.1499999999999997 [dLambda -0.04999999999999999]
TCL: Setting parameter firsttimestep to 0
TCL: Setting parameter alchLambda to 0.19999999999999968
Info: NONBONDED TABLE R-SQUARED SPACING: 0.0625
Info: NONBONDED TABLE SIZE: 705 POINTS
TCL: Setting parameter alchLambda2 to 0.1499999999999997
Info: NONBONDED TABLE R-SQUARED SPACING: 0.0625
Info: NONBONDED TABLE SIZE: 705 POINTS
TCL: Running for 1500000 steps
ETITLE: TS BOND ANGLE DIHED IMPRP ELECT VDW BOUNDARY MISC KINETIC TOTAL TEMP POTENTIAL TOTALAVG TEMPAVG PRESSURE GPRESSURE VOLUME PRESSAVG GPRESSAVG
ENERGY: 0 1.2697 1.3471 0.0000 0.0000 -10739.5344 1441.6886 0.0000 0.0000 1769.7439 -7525.4851 300.9210 -9295.2290 -7525.4851 300.9210 -152.9514 -64.4550 30486.6397 -152.9514 -64.4550
ENERGY: 300000 0.1040 2.6065 0.0000 0.0000 -10748.8570 1424.5790 0.0000 0.0000 1745.7837 -7575.7837 296.8469 -9321.5675 -7552.6156 298.5825 -94.1797 -46.4007 30531.5797 -495.6581 -431.1348
ENERGY: 600000 0.0594 0.9805 0.0000 0.0000 -10808.5145 1489.3698 0.0000 0.0000 1748.5570 -7569.5477 297.3184 -9318.1047 -7534.7721 298.9507 176.7465 231.9540 30425.3221 -146.5518 -95.1444
ENERGY: 900000 0.2858 0.6208 0.0000 0.0000 -10801.7799 1412.9834 0.0000 0.0000 1762.0592 -7625.8307 299.6143 -9387.8900 -7544.0132 298.5061 -339.6937 -353.8855 30210.9710 -240.6221 -194.2468
ENERGY: 1200000 0.3063 3.2982 0.0000 0.0000 -10612.4148 1354.5483 0.0000 0.0000 1772.5158 -7481.7462 301.3923 -9254.2620 -7538.8003 300.0198 -478.0538 -414.4537 30196.8568 -243.8869 -193.4415
ENERGY: 1500000 0.3039 1.5698 0.0000 0.0000 -10585.8282 1357.5940 0.0000 0.0000 1824.0942 -7402.2663 310.1625 -9226.3605 -7538.7967 300.3576 -767.3428 -655.8302 30923.3998 -236.9152 -185.4677
TCL: Running FEP window  18: Lambda1 0.1499999999999997 Lambda2 0.09999999999999969 [dLambda -0.05 ]
TCL: Setting parameter firsttimestep to 0
TCL: Setting parameter alchLambda to 0.1499999999999997
Info: NONBONDED TABLE R-SQUARED SPACING: 0.0625
Info: NONBONDED TABLE SIZE: 705 POINTS
TCL: Setting parameter alchLambda2 to 0.09999999999999969
Info: NONBONDED TABLE R-SQUARED SPACING: 0.0625
Info: NONBONDED TABLE SIZE: 705 POINTS
TCL: Running for 1500000 steps
ETITLE: TS BOND ANGLE DIHED IMPRP ELECT VDW BOUNDARY MISC KINETIC TOTAL TEMP POTENTIAL TOTALAVG TEMPAVG PRESSURE GPRESSURE VOLUME PRESSAVG GPRESSAVG
ENERGY: 0 0.3039 1.5698 0.0000 0.0000 -10585.8286 1357.4172 0.0000 0.0000 1823.2261 -7403.3117 310.0149 -9226.5377 -7403.3117 310.0149 -732.8919 -658.2982 30923.3998 -732.8919 -658.2982
ENERGY: 300000 3.7012 0.8836 0.0000 0.0000 -10639.5130 1417.2895 0.0000 0.0000 1816.4361 -7401.2025 308.8604 -9217.6386 -7487.8139 303.4123 -331.3572 -260.4920 30885.6836 -272.3106 -234.1623
ENERGY: 600000 0.0872 4.7108 0.0000 0.0000 -10707.1003 1403.6906 0.0000 0.0000 1764.6102 -7534.0016 300.0481 -9298.6118 -7502.5785 300.5368 -421.8143 -342.6215 30519.2136 -164.3031 -126.0025
ENERGY: 900000 3.3637 4.2665 0.0000 0.0000 -10869.8503 1500.2450 0.0000 0.0000 1700.3405 -7661.6347 289.1199 -9361.9752 -7523.7139 298.7239 458.5315 486.7034 30147.4723 -36.2982 8.5344
ENERGY: 1200000 0.4366 2.0406 0.0000 0.0000 -10913.0011 1553.8972 0.0000 0.0000 1770.8923 -7585.7343 301.1162 -9356.6266 -7535.4138 299.0242 797.4434 917.5239 29819.3301 -0.0692 56.9429
ENERGY: 1500000 0.5242 1.1932 0.0000 0.0000 -10690.5475 1413.8194 0.0000 0.0000 1803.5364 -7471.4742 306.6669 -9275.0106 -7531.1927 300.2982 -24.4177 18.4687 30370.7077 42.3230 98.8679
TCL: Running FEP window  19: Lambda1 0.09999999999999969 Lambda2 0.049999999999999684 [dLambda -0.05 ]
TCL: Setting parameter firsttimestep to 0
TCL: Setting parameter alchLambda to 0.09999999999999969
Info: NONBONDED TABLE R-SQUARED SPACING: 0.0625
Info: NONBONDED TABLE SIZE: 705 POINTS
TCL: Setting parameter alchLambda2 to 0.049999999999999684
Info: NONBONDED TABLE R-SQUARED SPACING: 0.0625
Info: NONBONDED TABLE SIZE: 705 POINTS
TCL: Running for 1500000 steps
ETITLE: TS BOND ANGLE DIHED IMPRP ELECT VDW BOUNDARY MISC KINETIC TOTAL TEMP POTENTIAL TOTALAVG TEMPAVG PRESSURE GPRESSURE VOLUME PRESSAVG GPRESSAVG
ENERGY: 0 0.5242 1.1932 0.0000 0.0000 -10690.5477 1413.6897 0.0000 0.0000 1802.6923 -7472.4482 306.5234 -9275.1405 -7472.4482 306.5234 -66.7665 11.9925 30370.7077 -66.7665 11.9925
ENERGY: 300000 0.2189 1.6248 0.0000 0.0000 -10733.0760 1432.7467 0.0000 0.0000 1761.2094 -7537.2763 299.4698 -9298.4857 -7538.0393 302.5150 -184.5916 -130.7641 30480.5863 -122.4842 -63.4628
ENERGY: 600000 0.3223 1.7524 0.0000 0.0000 -10831.5559 1465.4815 0.0000 0.0000 1757.7972 -7606.2025 298.8896 -9363.9997 -7547.6375 301.2190 244.8402 331.4855 29795.3559 -42.5661 18.8101
ENERGY: 900000 0.2295 2.8268 0.0000 0.0000 -10712.2525 1429.0420 0.0000 0.0000 1756.8716 -7523.2827 298.7322 -9280.1543 -7532.2460 301.0703 -319.6576 -258.9419 30806.3396 50.6582 106.5904
ENERGY: 1200000 0.7485 2.1127 0.0000 0.0000 -10668.8409 1388.4836 0.0000 0.0000 1761.9199 -7515.5762 299.5906 -9277.4961 -7547.6023 300.7010 -401.6788 -325.5983 30349.4542 54.0145 113.1586
ENERGY: 1500000 1.1674 1.0939 0.0000 0.0000 -10707.6767 1418.5879 0.0000 0.0000 1776.9533 -7509.8742 302.1468 -9286.8275 -7543.5110 300.9250 -64.6540 3.3045 30251.3751 -2.0438 55.0996
TCL: Running FEP window  20: Lambda1 0.049999999999999684 Lambda2 0.0    [dLambda -0.049999999999999684]
TCL: Setting parameter firsttimestep to 0
TCL: Setting parameter alchLambda to 0.049999999999999684
Info: NONBONDED TABLE R-SQUARED SPACING: 0.0625
Info: NONBONDED TABLE SIZE: 705 POINTS
TCL: Setting parameter alchLambda2 to 0.0
Info: NONBONDED TABLE R-SQUARED SPACING: 0.0625
Info: NONBONDED TABLE SIZE: 705 POINTS
TCL: Running for 1500000 steps
ETITLE: TS BOND ANGLE DIHED IMPRP ELECT VDW BOUNDARY MISC KINETIC TOTAL TEMP POTENTIAL TOTALAVG TEMPAVG PRESSURE GPRESSURE VOLUME PRESSAVG GPRESSAVG
ENERGY: 0 1.1674 1.0939 0.0000 0.0000 -10707.6779 1418.2106 0.0000 0.0000 1776.0490 -7511.1570 301.9931 -9287.2060 -7511.1570 301.9931 -78.6439 3.7475 30251.3751 -78.6439 3.7475
ENERGY: 300000 0.6807 2.5184 0.0000 0.0000 -10827.8130 1491.5484 0.0000 0.0000 1787.4513 -7545.6142 303.9319 -9333.0655 -7551.1410 301.6181 336.0052 390.5276 30392.3272 -126.3860 -57.1634
ENERGY: 600000 0.3378 1.3014 0.0000 0.0000 -10822.1605 1473.1366 0.0000 0.0000 1714.3098 -7633.0748 291.4952 -9347.3846 -7566.4351 299.9683 27.4392 49.5457 30255.4327 -214.0723 -149.8622
ENERGY: 900000 0.0336 2.8100 0.0000 0.0000 -10896.0025 1522.8842 0.0000 0.0000 1758.3932 -7611.8816 298.9909 -9370.2747 -7572.7747 300.3790 358.1733 414.1767 30232.5423 -132.1915 -63.8572
ENERGY: 1200000 0.0514 1.6817 0.0000 0.0000 -10710.0234 1467.2779 0.0000 0.0000 1775.8038 -7465.2085 301.9514 -9241.0124 -7548.7217 300.6928 68.8021 122.4893 30716.6896 -111.2248 -50.5204
ENERGY: 1500000 0.7118 0.7879 0.0000 0.0000 -10798.3566 1449.0648 0.0000 0.0000 1823.1568 -7524.6354 310.0031 -9347.7922 -7545.4491 302.1530 25.8177 66.1496 30277.7383 -90.0176 -28.9612
TCL: Exiting due to exit command.
