Info: SIMULATION PARAMETERS:
Info: TIMESTEP               2
Info: NUMBER OF STEPS        0
Info: STEPS PER CYCLE        10
Info: PERIODIC CELL BASIS 1  30.9213 0 0
Info: PERIODIC CELL BASIS 2  0 29.4436 0
Info: PERIODIC CELL BASIS 3  0 0 33.9202
Info: PERIODIC CELL CENTER   0 0 0
Info: WRAPPING WATERS AROUND PERIODIC BOUNDARIES ON OUTPUT.
Info: WRAPPING ALL CLUSTERS AROUND PERIODIC BOUNDARIES ON OUTPUT.
Info: FIRST LDB TIMESTEP     50
Info: LAST LDB TIMESTEP     -1
Info: HOM BACKGROUND SCALING 1
Info: PME BACKGROUND SCALING 1
Info: MIN ATOMS PER PATCH    40
Info: EMPTY PATCH LOAD       40 ATOMS
Info: VELOCITY FILE          mobley_4494568_equil.vel
Info: CENTER OF MASS MOVING INITIALLY? NO
Info: DIELECTRIC             1
Info: EXCLUDE                SCALED ONE-FOUR
Info: 1-4 ELECTROSTATICS SCALED BY 0.833333
Info: MODIFIED 1-4 VDW PARAMETERS WILL BE USED
Info: DCD FILENAME           mobley_4494568_prod.dcd
Info: DCD FREQUENCY          100000
Info: DCD FIRST STEP         100000
Info: DCD FILE WILL CONTAIN UNIT CELL DATA
Info: XST FILENAME           mobley_4494568_prod.xst
Info: XST FREQUENCY          100000
Info: NO VELOCITY DCD OUTPUT
Info: NO FORCE DCD OUTPUT
Info: OUTPUT FILENAME        mobley_4494568_prod
Info: BINARY OUTPUT FILES WILL BE USED
Info: RESTART FILENAME       mobley_4494568_prod.restart
Info: RESTART FREQUENCY      100000
Info: BINARY RESTART FILES WILL BE USED
Info: CUTOFF                 9
Info: PAIRLIST DISTANCE      11
Info: PAIRLIST SHRINK RATE   0.01
Info: PAIRLIST GROW RATE     0.01
Info: PAIRLIST TRIGGER       0.3
Info: PAIRLISTS PER CYCLE    2
Info: PAIRLISTS ENABLED
Info: MARGIN                 2
Info: HYDROGEN GROUP CUTOFF  2.5
Info: PATCH DIMENSION        15.5
Info: ENERGY OUTPUT STEPS    100000
Info: ENERGY EVALUATION STEPS    100000
Info: OUTPUT ENERGY PRECISION 4
Info: CROSSTERM ENERGY INCLUDED IN DIHEDRAL
Info: TIMING OUTPUT STEPS    1000000
Info: PRESSURE OUTPUT STEPS  100000
Info: ALCHEMICAL FEP ON
Info: FEP CURRENT LAMBDA VALUE     1
Info: FEP COMPARISON LAMBDA VALUE  0.95
Info: FEP INTRA-ALCHEMICAL NON-BONDED INTERACTIONS WILL BE RETAINED
Info: FEP INTRA-ALCHEMICAL BONDED INTERACTIONS WILL BE RETAINED
Info: FEP VDW SHIFTING COEFFICIENT 5
Info: FEP ELEC. ACTIVE FOR ANNIHILATED PARTICLES BETWEEN LAMBDA = 0 AND LAMBDA = 0.5
Info: FEP ELEC. ACTIVE FOR EXNIHILATED PARTICLES BETWEEN LAMBDA = 0.5 AND LAMBDA = 1
Info: FEP VDW ACTIVE FOR ANNIHILATED PARTICLES BETWEEN LAMBDA = 0 AND LAMBDA = 1
Info: FEP VDW ACTIVE FOR EXNIHILATED PARTICLES BETWEEN LAMBDA = 0 AND LAMBDA = 1
Info: FEP BOND ACTIVE FOR ANNIHILATED PARTICLES BETWEEN LAMBDA = 1 AND LAMBDA = 1
Info: FEP BOND ACTIVE FOR EXNIHILATED PARTICLES BETWEEN LAMBDA = 0 AND LAMBDA = 0
Info: LANGEVIN DYNAMICS ACTIVE
Info: LANGEVIN TEMPERATURE   300
Info: LANGEVIN USING BBK INTEGRATOR
Info: LANGEVIN DAMPING COEFFICIENT IS 1 INVERSE PS
Info: LANGEVIN DYNAMICS APPLIED TO HYDROGENS
Info: LANGEVIN PISTON PRESSURE CONTROL ACTIVE
Info:        TARGET PRESSURE IS 1.01325 BAR
Info:     OSCILLATION PERIOD IS 50 FS
Info:             DECAY TIME IS 25 FS
Info:     PISTON TEMPERATURE IS 300 K
Info:       PRESSURE CONTROL IS GROUP-BASED
Info:    INITIAL STRAIN RATE IS -0.000228707 -0.000228707 -0.000228707
Info:       CELL FLUCTUATION IS ISOTROPIC
Info: PARTICLE MESH EWALD (PME) ACTIVE
Info: PME TOLERANCE               1e-06
Info: PME EWALD COEFFICIENT       0.348832
Info: PME INTERPOLATION ORDER     4
Info: PME GRID DIMENSIONS         32 32 36
Info: PME MAXIMUM GRID SPACING    1
Info: PME CALCULATION WILL BE PERFORMED ON GPU
Info: FULL ELECTROSTATIC EVALUATION FREQUENCY      2
Info: USING VERLET I (r-RESPA) MTS SCHEME.
Info: C1 SPLITTING OF LONG RANGE ELECTROSTATICS
Info: PLACING ATOMS IN PATCHES BY HYDROGEN GROUPS
Info: RIGID BONDS TO HYDROGEN : ALL
Info:         ERROR TOLERANCE : 1e-08
Info:          MAX ITERATIONS : 100
Info: RIGID WATER USING SETTLE ALGORITHM
Info: RANDOM NUMBER SEED     1743588704
Info: USE HYDROGEN BONDS?    NO
Info: Using AMBER format force field!
Info: AMBER PARM FILE        mobley_4494568.prmtop
Info: COORDINATE PDB         mobley_4494568.pdb
Info: Exclusions will be read from PARM file!
Info: SCNB (VDW SCALING)     2
Info: USING ARITHMETIC MEAN TO COMBINE L-J SIGMA PARAMETERS
Info: BINARY COORDINATES     mobley_4494568_equil.coor
Info: SUMMARY OF PARAMETERS:
Info: 7 BONDS
Info: 6 ANGLES
Info:   6 HARMONIC
Info:   0 COSINE-BASED
Info: 3 DIHEDRAL
Info: 0 IMPROPER
Info: 0 CROSSTERM
Info: 0 VDW
Info: 28 VDW_PAIRS
Info: 0 NBTHOLE_PAIRS
Info: To read alchdata from file: mobley_4494568.pdb
Info: To read alchflag data from column: 5
Info: STRUCTURE SUMMARY:
Info: 2994 ATOMS
Info: 2994 BONDS
Info: 24 ANGLES
Info: 36 DIHEDRALS
Info: 0 IMPROPERS
Info: 0 CROSSTERMS
Info: 3045 EXCLUSIONS
Info: 2986 RIGID BONDS
Info: ALCH: 0 ATOMS TO DISAPPEAR IN FINAL STATE
Info: ALCH: 15 ATOMS TO APPEAR IN FINAL STATE
Info: 5996 DEGREES OF FREEDOM
Info: 1001 HYDROGEN GROUPS
Info: 4 ATOMS IN LARGEST HYDROGEN GROUP
Info: 1001 MIGRATION GROUPS
Info: 4 ATOMS IN LARGEST MIGRATION GROUP
Info: TOTAL MASS = 18060.9 amu
Info: TOTAL CHARGE = 0.000200011 e
Info: MASS DENSITY = 0.971162 g/cm^3
Info: ATOM DENSITY = 0.0969493 atoms/A^3
Info: ADDED 0 IMPLICIT EXCLUSIONS
Info: NONBONDED TABLE R-SQUARED SPACING: 0.0625
Info: NONBONDED TABLE SIZE: 705 POINTS
Info: REMOVING COM VELOCITY 0.0381333 -0.0826028 0.0714931
Info: Use 3D box decompostion in PME FFT.
Info: Updated CUDA force table with 4096 elements.
Info: Updated CUDA LJ table with 7 x 7 elements.
Info: Found 17 unique exclusion lists needing 40 bytes
TCL: Running for 1500000 steps
ETITLE: TS BOND ANGLE DIHED IMPRP ELECT VDW BOUNDARY MISC KINETIC TOTAL TEMP POTENTIAL TOTALAVG TEMPAVG PRESSURE GPRESSURE VOLUME PRESSAVG GPRESSAVG
ENERGY: 0 2.9063 4.0670 2.5597 0.0000 -10651.2976 1361.5458 0.0000 0.0000 1846.5318 -7433.6870 309.9457 -9280.2188 -7433.6870 309.9457 -428.8706 -339.1376 30882.1188 -428.8706 -339.1376
ENERGY: 300000 3.5452 6.9202 3.0580 0.0000 -10904.2624 1510.7877 0.0000 0.0000 1789.3984 -7590.5529 300.3557 -9379.9513 -7547.9220 304.4121 339.6599 452.9099 30630.3640 159.5724 261.6188
ENERGY: 600000 2.8097 2.7367 3.4370 0.0000 -10786.6372 1431.8146 0.0000 0.0000 1777.7621 -7568.0771 298.4025 -9345.8392 -7577.8675 300.5479 -221.2517 -217.8438 31164.5109 253.5843 321.2974
ENERGY: 900000 3.3015 1.8931 2.4999 0.0000 -10958.8020 1555.7898 0.0000 0.0000 1772.6589 -7622.6588 297.5459 -9395.3176 -7588.1141 298.9604 917.7146 1021.1273 30596.4769 271.0440 339.7068
ENERGY: 1200000 1.4911 6.9217 3.2339 0.0000 -10947.6835 1466.5297 0.0000 0.0000 1803.1085 -7666.3985 302.6569 -9469.5070 -7597.9891 298.8647 89.8029 148.6651 30525.5816 217.1166 278.8405
ENERGY: 1500000 0.9284 4.2820 1.2000 0.0000 -10717.1232 1425.3571 0.0000 0.0000 1776.0314 -7509.3243 298.1120 -9285.3557 -7592.4608 299.2659 -145.9188 -148.9991 31215.2579 75.8771 131.6654
TCL: Running FEP window   2: Lambda1 0.95   Lambda2 0.8999999999999999 [dLambda -0.050000000000000044]
TCL: Setting parameter firsttimestep to 0
TCL: Setting parameter alchLambda to 0.95
Info: NONBONDED TABLE R-SQUARED SPACING: 0.0625
Info: NONBONDED TABLE SIZE: 705 POINTS
TCL: Setting parameter alchLambda2 to 0.8999999999999999
Info: NONBONDED TABLE R-SQUARED SPACING: 0.0625
Info: NONBONDED TABLE SIZE: 705 POINTS
TCL: Running for 1500000 steps
ETITLE: TS BOND ANGLE DIHED IMPRP ELECT VDW BOUNDARY MISC KINETIC TOTAL TEMP POTENTIAL TOTALAVG TEMPAVG PRESSURE GPRESSURE VOLUME PRESSAVG GPRESSAVG
ENERGY: 0 0.9284 4.2820 1.2000 0.0000 -10716.5748 1425.8405 0.0000 0.0000 1775.1395 -7509.1843 297.9623 -9284.3238 -7509.1843 297.9623 -229.4642 -153.2823 31215.2579 -229.4642 -153.2823
ENERGY: 300000 4.1897 2.7294 1.1773 0.0000 -10834.0885 1392.4782 0.0000 0.0000 1850.1386 -7583.3753 310.5511 -9433.5139 -7630.2141 300.4843 -521.8287 -453.3608 30536.0495 -254.7942 -191.5383
ENERGY: 600000 0.7206 3.2030 2.3965 0.0000 -10749.1338 1444.0959 0.0000 0.0000 1745.1719 -7553.5458 292.9321 -9298.7178 -7603.9631 300.0710 7.6631 191.5050 30990.9851 -219.0747 -119.0971
ENERGY: 900000 2.6251 3.2431 4.0569 0.0000 -10813.6580 1382.8060 0.0000 0.0000 1753.6204 -7667.3066 294.3502 -9420.9270 -7615.8051 299.8132 -478.8077 -478.5939 30368.1453 -199.8855 -120.4741
ENERGY: 1200000 2.8984 5.1088 2.1529 0.0000 -10739.0568 1392.8897 0.0000 0.0000 1824.4597 -7511.5473 306.2408 -9336.0070 -7598.9328 300.5714 -537.2775 -529.4103 31319.0899 -211.2575 -134.1503
ENERGY: 1500000 2.7031 8.6269 2.9710 0.0000 -10903.4603 1474.2931 0.0000 0.0000 1819.8702 -7594.9960 305.4704 -9414.8663 -7593.9395 301.1493 544.5661 511.0367 30447.7488 -51.7128 13.9885
TCL: Running FEP window   3: Lambda1 0.8999999999999999 Lambda2 0.8499999999999999 [dLambda -0.050000000000000044]
TCL: Setting parameter firsttimestep to 0
TCL: Setting parameter alchLambda to 0.8999999999999999
Info: NONBONDED TABLE R-SQUARED SPACING: 0.0625
Info: NONBONDED TABLE SIZE: 705 POINTS
TCL: Setting parameter alchLambda2 to 0.8499999999999999
Info: NONBONDED TABLE R-SQUARED SPACING: 0.0625
Info: NONBONDED TABLE SIZE: 705 POINTS
TCL: Running for 1500000 steps
ETITLE: TS BOND ANGLE DIHED IMPRP ELECT VDW BOUNDARY MISC KINETIC TOTAL TEMP POTENTIAL TOTALAVG TEMPAVG PRESSURE GPRESSURE VOLUME PRESSAVG GPRESSAVG
ENERGY: 0 2.7031 8.6269 2.9710 0.0000 -10902.7519 1473.5701 0.0000 0.0000 1818.9674 -7595.9136 305.3189 -9414.8810 -7595.9136 305.3189 418.4972 487.3316 30447.7488 418.4972 487.3316
ENERGY: 300000 2.5850 7.9932 2.0116 0.0000 -10844.8503 1474.7277 0.0000 0.0000 1847.1174 -7510.4153 310.0440 -9357.5328 -7582.6136 304.3235 246.9747 288.4314 31213.8862 134.3963 218.9762
ENERGY: 600000 1.0394 4.6325 2.2752 0.0000 -10805.1787 1441.6548 0.0000 0.0000 1828.0290 -7527.5479 306.8399 -9355.5768 -7596.1991 302.1866 -92.9180 -39.9121 31195.5720 40.6575 100.7402
ENERGY: 900000 1.7282 5.3793 0.9766 0.0000 -10820.7157 1420.5246 0.0000 0.0000 1760.4041 -7631.7028 295.4889 -9392.1070 -7588.5398 300.7252 -162.3418 -165.1506 30959.7796 21.1782 83.6641
ENERGY: 1200000 2.4352 5.1797 5.0709 0.0000 -10939.8143 1497.6763 0.0000 0.0000 1825.7364 -7603.7158 306.4551 -9429.4522 -7596.1012 300.6774 68.3012 138.3410 31005.7387 54.6453 116.6837
ENERGY: 1500000 2.4171 4.0828 1.5796 0.0000 -10776.5067 1394.5277 0.0000 0.0000 1814.8324 -7559.0672 304.6248 -9373.8996 -7589.8864 300.6734 -448.0670 -365.4407 30787.3915 -22.6890 44.8866
TCL: Running FEP window   4: Lambda1 0.8499999999999999 Lambda2 0.7999999999999998 [dLambda -0.050000000000000044]
TCL: Setting parameter firsttimestep to 0
TCL: Setting parameter alchLambda to 0.8499999999999999
Info: NONBONDED TABLE R-SQUARED SPACING: 0.0625
Info: NONBONDED TABLE SIZE: 705 POINTS
TCL: Setting parameter alchLambda2 to 0.7999999999999998
Info: NONBONDED TABLE R-SQUARED SPACING: 0.0625
Info: NONBONDED TABLE SIZE: 705 POINTS
TCL: Running for 1500000 steps
ETITLE: TS BOND ANGLE DIHED IMPRP ELECT VDW BOUNDARY MISC KINETIC TOTAL TEMP POTENTIAL TOTALAVG TEMPAVG PRESSURE GPRESSURE VOLUME PRESSAVG GPRESSAVG
ENERGY: 0 2.4171 4.0828 1.5796 0.0000 -10775.9867 1394.4155 0.0000 0.0000 1813.9260 -7559.5657 304.4727 -9373.4917 -7559.5657 304.4727 -470.7309 -377.9942 30787.3915 -470.7309 -377.9942
ENERGY: 300000 2.6573 3.4627 2.7739 0.0000 -10726.6311 1443.8703 0.0000 0.0000 1777.3782 -7496.4887 298.3380 -9273.8669 -7580.9896 298.6460 -36.1490 42.6600 31419.0812 -9.0194 102.0730
ENERGY: 600000 1.9676 4.4838 3.9068 0.0000 -10774.1318 1382.4623 0.0000 0.0000 1812.8545 -7568.4568 304.2928 -9381.3113 -7590.9462 299.6468 -560.8788 -515.1667 30908.3352 -174.9662 -88.5261
ENERGY: 900000 2.6563 3.5960 3.8453 0.0000 -10793.2883 1407.2084 0.0000 0.0000 1849.6827 -7526.2995 310.4745 -9375.9823 -7581.2897 301.6253 -256.1579 -204.1174 30704.1032 -100.7520 -26.5940
ENERGY: 1200000 1.3334 3.7819 2.3980 0.0000 -10933.0740 1506.0190 0.0000 0.0000 1819.0441 -7600.4976 305.3318 -9419.5417 -7588.5665 301.2852 308.2545 386.5662 30613.9505 -124.3605 -47.2243
ENERGY: 1500000 6.0995 6.1007 1.6797 0.0000 -10841.6963 1405.6027 0.0000 0.0000 1819.8584 -7602.3554 305.4684 -9422.2138 -7584.3656 301.2671 -244.7009 -220.6695 30664.2185 -178.3571 -104.4007
TCL: Running FEP window   5: Lambda1 0.7999999999999998 Lambda2 0.7499999999999998 [dLambda -0.050000000000000044]
TCL: Setting parameter firsttimestep to 0
TCL: Setting parameter alchLambda to 0.7999999999999998
Info: NONBONDED TABLE R-SQUARED SPACING: 0.0625
Info: NONBONDED TABLE SIZE: 705 POINTS
TCL: Setting parameter alchLambda2 to 0.7499999999999998
Info: NONBONDED TABLE R-SQUARED SPACING: 0.0625
Info: NONBONDED TABLE SIZE: 705 POINTS
TCL: Running for 1500000 steps
ETITLE: TS BOND ANGLE DIHED IMPRP ELECT VDW BOUNDARY MISC KINETIC TOTAL TEMP POTENTIAL TOTALAVG TEMPAVG PRESSURE GPRESSURE VOLUME PRESSAVG GPRESSAVG
ENERGY: 0 6.0995 6.1007 1.6797 0.0000 -10841.7759 1406.2326 0.0000 0.0000 1818.9528 -7602.7106 305.3164 -9421.6635 -7602.7106 305.3164 -307.2853 -222.7343 30664.2185 -307.2853 -222.7343
ENERGY: 300000 4.0302 5.2717 2.0034 0.0000 -10894.3961 1495.4833 0.0000 0.0000 1839.0021 -7548.6054 308.6818 -9387.6074 -7612.4014 301.9686 467.5069 507.8488 30858.4434 272.3734 321.9764
ENERGY: 600000 5.6333 5.7338 2.1633 0.0000 -10751.7702 1424.8308 0.0000 0.0000 1841.7482 -7471.6609 309.1427 -9313.4090 -7575.0046 302.2876 -222.5815 -117.8226 31031.2825 106.3789 169.2665
ENERGY: 900000 4.5970 4.4830 3.9420 0.0000 -10828.7547 1429.7346 0.0000 0.0000 1858.3728 -7527.6253 311.9332 -9385.9981 -7568.1381 303.5451 -217.7125 -178.1764 30767.2581 118.8042 183.7620
ENERGY: 1200000 3.1723 5.6178 3.3833 0.0000 -10846.2400 1446.3012 0.0000 0.0000 1748.5870 -7639.1782 293.5053 -9387.7653 -7578.6097 301.8926 -71.1193 44.3089 30570.2990 60.5094 124.6037
ENERGY: 1500000 5.1158 7.6943 1.1546 0.0000 -10910.3146 1507.9632 0.0000 0.0000 1776.4364 -7611.9502 298.1799 -9388.3867 -7574.3433 302.1783 164.9474 234.0700 30855.2556 97.8945 156.8876
TCL: Running FEP window   6: Lambda1 0.7499999999999998 Lambda2 0.6999999999999997 [dLambda -0.050000000000000044]
TCL: Setting parameter firsttimestep to 0
TCL: Setting parameter alchLambda to 0.7499999999999998
Info: NONBONDED TABLE R-SQUARED SPACING: 0.0625
Info: NONBONDED TABLE SIZE: 705 POINTS
TCL: Setting parameter alchLambda2 to 0.6999999999999997
Info: NONBONDED TABLE R-SQUARED SPACING: 0.0625
Info: NONBONDED TABLE SIZE: 705 POINTS
TCL: Running for 1500000 steps
ETITLE: TS BOND ANGLE DIHED IMPRP ELECT VDW BOUNDARY MISC KINETIC TOTAL TEMP POTENTIAL TOTALAVG TEMPAVG PRESSURE GPRESSURE VOLUME PRESSAVG GPRESSAVG
ENERGY: 0 5.1158 7.6943 1.1546 0.0000 -10910.1621 1508.3829 0.0000 0.0000 1775.5314 -7612.2831 298.0280 -9387.8145 -7612.2831 298.0280 146.1704 230.6171 30855.2556 146.1704 230.6171
ENERGY: 300000 3.4504 7.9540 3.5479 0.0000 -10896.6179 1465.4534 0.0000 0.0000 1856.2337 -7559.9785 311.5741 -9416.2122 -7584.3189 303.0775 -243.9833 -183.1760 31086.9726 149.7742 229.3581
ENERGY: 600000 3.6463 1.9609 3.0062 0.0000 -10702.0231 1398.2527 0.0000 0.0000 1830.5854 -7464.5716 307.2690 -9295.1570 -7555.2445 303.9308 -399.0196 -341.3430 31146.1783 -104.0616 -32.4638
ENERGY: 900000 1.1782 3.8642 2.2760 0.0000 -10984.3130 1564.7013 0.0000 0.0000 1747.9155 -7664.3778 293.3926 -9412.2933 -7565.3350 302.5539 742.8682 825.2762 30746.7639 -20.4094 47.5679
ENERGY: 1200000 1.5406 1.2678 1.5754 0.0000 -10908.6426 1453.8711 0.0000 0.0000 1762.0485 -7688.3391 295.7649 -9450.3876 -7574.2602 302.6410 -416.3761 -317.9950 30823.8443 -14.6420 47.4163
ENERGY: 1500000 1.2089 3.3677 0.8848 0.0000 -10927.6458 1532.8533 0.0000 0.0000 1740.4448 -7648.8864 292.1386 -9389.3312 -7586.0017 301.7358 678.7128 749.8902 30570.2327 50.1885 114.4765
TCL: Running FEP window   7: Lambda1 0.6999999999999997 Lambda2 0.6499999999999997 [dLambda -0.050000000000000044]
TCL: Setting parameter firsttimestep to 0
TCL: Setting parameter alchLambda to 0.6999999999999997
Info: NONBONDED TABLE R-SQUARED SPACING: 0.0625
Info: NONBONDED TABLE SIZE: 705 POINTS
TCL: Setting parameter alchLambda2 to 0.6499999999999997
Info: NONBONDED TABLE R-SQUARED SPACING: 0.0625
Info: NONBONDED TABLE SIZE: 705 POINTS
TCL: Running for 1500000 steps
ETITLE: TS BOND ANGLE DIHED IMPRP ELECT VDW BOUNDARY MISC KINETIC TOTAL TEMP POTENTIAL TOTALAVG TEMPAVG PRESSURE GPRESSURE VOLUME PRESSAVG GPRESSAVG
ENERGY: 0 1.2089 3.3677 0.8848 0.0000 -10927.5203 1533.3204 0.0000 0.0000 1739.5520 -7649.1865 291.9888 -9388.7385 -7649.1865 291.9888 657.4922 746.8464 30570.2327 657.4922 746.8464
ENERGY: 300000 3.3509 2.0189 2.0712 0.0000 -10850.0119 1483.9175 0.0000 0.0000 1818.3638 -7540.2897 305.2176 -9358.6535 -7595.5140 299.2881 323.2144 435.9037 30833.0116 146.6727 243.6022
ENERGY: 600000 2.3026 7.7101 8.8705 0.0000 -10878.9360 1451.8339 0.0000 0.0000 1838.6315 -7569.5875 308.6196 -9408.2189 -7607.3234 300.5857 -392.4300 -296.7267 31097.4410 -133.1093 -49.8729
ENERGY: 900000 1.7074 3.9058 3.1704 0.0000 -10751.6426 1382.9108 0.0000 0.0000 1789.4114 -7570.5368 300.3578 -9359.9482 -7589.6110 300.4023 -417.5190 -321.4127 30713.4090 -139.7599 -61.8041
ENERGY: 1200000 5.1667 3.8179 3.4058 0.0000 -11068.6966 1593.6181 0.0000 0.0000 1769.1448 -7693.5433 296.9560 -9462.6881 -7592.3568 300.5510 806.6016 824.8279 30936.0813 -84.6793 -11.7808
ENERGY: 1500000 4.6320 5.2922 4.4405 0.0000 -10885.8753 1455.4568 0.0000 0.0000 1764.8203 -7651.2335 296.2302 -9416.0538 -7597.3792 300.2847 -165.8885 -98.7410 30501.6473 -74.2139 -8.1877
TCL: Running FEP window   8: Lambda1 0.6499999999999997 Lambda2 0.5999999999999996 [dLambda -0.050000000000000044]
TCL: Setting parameter firsttimestep to 0
TCL: Setting parameter alchLambda to 0.6499999999999997
Info: NONBONDED TABLE R-SQUARED SPACING: 0.0625
Info: NONBONDED TABLE SIZE: 705 POINTS
TCL: Setting parameter alchLambda2 to 0.5999999999999996
Info: NONBONDED TABLE R-SQUARED SPACING: 0.0625
Info: NONBONDED TABLE SIZE: 705 POINTS
TCL: Running for 1500000 steps
ETITLE: TS BOND ANGLE DIHED IMPRP ELECT VDW BOUNDARY MISC KINETIC TOTAL TEMP POTENTIAL TOTALAVG TEMPAVG PRESSURE GPRESSURE VOLUME PRESSAVG GPRESSAVG
ENERGY: 0 4.6320 5.2922 4.4405 0.0000 -10885.7385 1455.7951 0.0000 0.0000 1763.9381 -7651.6406 296.0821 -9415.5787 -7651.6406 296.0821 -171.9548 -105.8854 30501.6473 -171.9548 -105.8854
ENERGY: 300000 3.2620 5.6044 1.6502 0.0000 -10839.1980 1515.1368 0.0000 0.0000 1767.9842 -7545.5604 296.7612 -9313.5446 -7601.9006 299.0063 567.8551 580.9042 31193.7524 405.0805 453.2683
ENERGY: 600000 2.4079 3.5064 2.3834 0.0000 -10751.6984 1337.6269 0.0000 0.0000 1773.5277 -7632.2462 297.6917 -9405.7739 -7612.9059 297.6324 -1274.1405 -1219.7395 31385.4607 11.6593 43.5236
ENERGY: 900000 1.7872 4.2586 2.4983 0.0000 -10922.5780 1550.1667 0.0000 0.0000 1797.6511 -7566.2161 301.7409 -9363.8672 -7591.9454 299.1124 598.1787 686.5956 30919.8941 -46.1585 -3.0514
ENERGY: 1200000 3.2987 5.0700 3.1099 0.0000 -10838.9875 1488.3265 0.0000 0.0000 1809.5904 -7529.5919 303.7449 -9339.1823 -7579.0601 300.1121 153.3964 218.3929 31183.0552 5.4001 49.2261
ENERGY: 1500000 1.5724 4.4516 1.7121 0.0000 -10824.6387 1471.5078 0.0000 0.0000 1840.1472 -7505.2475 308.8740 -9345.3948 -7574.4770 301.0695 -29.1764 59.9886 31251.6007 -57.3008 -8.0422
TCL: Running FEP window   9: Lambda1 0.5999999999999996 Lambda2 0.5499999999999996 [dLambda -0.050000000000000044]
TCL: Setting parameter firsttimestep to 0
TCL: Setting parameter alchLambda to 0.5999999999999996
Info: NONBONDED TABLE R-SQUARED SPACING: 0.0625
Info: NONBONDED TABLE SIZE: 705 POINTS
TCL: Setting parameter alchLambda2 to 0.5499999999999996
Info: NONBONDED TABLE R-SQUARED SPACING: 0.0625
Info: NONBONDED TABLE SIZE: 705 POINTS
TCL: Running for 1500000 steps
ETITLE: TS BOND ANGLE DIHED IMPRP ELECT VDW BOUNDARY MISC KINETIC TOTAL TEMP POTENTIAL TOTALAVG TEMPAVG PRESSURE GPRESSURE VOLUME PRESSAVG GPRESSAVG
ENERGY: 0 1.5724 4.4516 1.7121 0.0000 -10824.6706 1472.0598 0.0000 0.0000 1839.2539 -7505.6208 308.7240 -9344.8747 -7505.6208 308.7240 -17.5516 55.7515 31251.6007 -17.5516 55.7515
ENERGY: 300000 3.2764 4.0548 2.9016 0.0000 -10779.0881 1430.0703 0.0000 0.0000 1793.5491 -7545.2358 301.0524 -9338.7850 -7568.7505 303.5347 40.7192 108.0455 30608.6647 160.3609 211.7990
ENERGY: 600000 0.6434 3.9146 3.6584 0.0000 -10866.1409 1472.4997 0.0000 0.0000 1745.8445 -7639.5803 293.0450 -9385.4249 -7586.0979 300.7480 172.0350 200.6928 30726.7485 32.9863 87.0259
ENERGY: 900000 1.7895 6.4350 2.2833 0.0000 -10882.3535 1430.6582 0.0000 0.0000 1826.3925 -7614.7951 306.5652 -9441.1875 -7590.0715 301.4841 -448.4023 -300.6211 30858.2686 -10.0467 56.4990
ENERGY: 1200000 2.6848 6.1270 1.0935 0.0000 -10665.0407 1361.9320 0.0000 0.0000 1759.1377 -7534.0657 295.2763 -9293.2035 -7584.8559 300.4982 -770.3926 -710.3712 31198.3891 -68.3188 -5.4191
ENERGY: 1500000 2.2560 2.7849 1.8105 0.0000 -10805.4966 1451.1378 0.0000 0.0000 1775.9684 -7571.5390 298.1014 -9347.5074 -7584.2024 300.3534 267.2111 310.7706 30431.7002 9.8005 71.4411
TCL: Running FEP window  10: Lambda1 0.5499999999999996 Lambda2 0.4999999999999996 [dLambda -0.04999999999999999]
TCL: Setting parameter firsttimestep to 0
TCL: Setting parameter alchLambda to 0.5499999999999996
Info: NONBONDED TABLE R-SQUARED SPACING: 0.0625
Info: NONBONDED TABLE SIZE: 705 POINTS
TCL: Setting parameter alchLambda2 to 0.4999999999999996
Info: NONBONDED TABLE R-SQUARED SPACING: 0.0625
Info: NONBONDED TABLE SIZE: 705 POINTS
TCL: Running for 1500000 steps
ETITLE: TS BOND ANGLE DIHED IMPRP ELECT VDW BOUNDARY MISC KINETIC TOTAL TEMP POTENTIAL TOTALAVG TEMPAVG PRESSURE GPRESSURE VOLUME PRESSAVG GPRESSAVG
ENERGY: 0 2.2560 2.7849 1.8105 0.0000 -10805.5086 1450.8784 0.0000 0.0000 1775.0631 -7572.7157 297.9494 -9347.7789 -7572.7157 297.9494 209.4463 298.4787 30431.7002 209.4463 298.4787
ENERGY: 300000 2.1376 5.9055 1.8464 0.0000 -10923.2454 1453.3370 0.0000 0.0000 1755.9358 -7704.0831 294.7388 -9460.0189 -7602.8485 300.6641 -158.6052 -124.2574 30398.3879 270.6995 351.1791
ENERGY: 600000 1.1686 4.0063 2.8868 0.0000 -10798.0567 1425.2816 0.0000 0.0000 1813.5690 -7551.1443 304.4127 -9364.7133 -7576.7177 301.5964 -143.3958 -124.4203 30753.4468 -105.3917 -34.8913
ENERGY: 900000 2.1953 7.9569 5.7102 0.0000 -10835.3954 1455.0498 0.0000 0.0000 1715.2013 -7649.2820 287.9014 -9364.4833 -7575.1650 300.6452 -259.9458 -191.8782 31216.3420 -197.5618 -136.9712
ENERGY: 1200000 4.4283 2.1138 1.3268 0.0000 -10903.8235 1471.8068 0.0000 0.0000 1744.5624 -7679.5854 292.8298 -9424.1478 -7584.1430 300.3801 -18.8259 1.6908 30748.4634 -201.5192 -135.8355
ENERGY: 1500000 3.0084 3.4139 1.8402 0.0000 -10928.5996 1488.7236 0.0000 0.0000 1754.4551 -7677.1584 294.4903 -9431.6135 -7598.8774 299.1063 49.4020 87.6027 30648.3681 -219.7019 -152.9081
TCL: Running FEP window  11: Lambda1 0.4999999999999996 Lambda2 0.4499999999999996 [dLambda -0.04999999999999999]
TCL: Setting parameter firsttimestep to 0
TCL: Setting parameter alchLambda to 0.4999999999999996
Info: NONBONDED TABLE R-SQUARED SPACING: 0.0625
Info: NONBONDED TABLE SIZE: 705 POINTS
TCL: Setting parameter alchLambda2 to 0.4499999999999996
Info: NONBONDED TABLE R-SQUARED SPACING: 0.0625
Info: NONBONDED TABLE SIZE: 705 POINTS
TCL: Running for 1500000 steps
ETITLE: TS BOND ANGLE DIHED IMPRP ELECT VDW BOUNDARY MISC KINETIC TOTAL TEMP POTENTIAL TOTALAVG TEMPAVG PRESSURE GPRESSURE VOLUME PRESSAVG GPRESSAVG
ENERGY: 0 3.0084 3.4139 1.8402 0.0000 -10928.9623 1488.9422 0.0000 0.0000 1753.5505 -7678.2071 294.3385 -9431.7576 -7678.2071 294.3385 -12.0362 81.9873 30648.3681 -12.0362 81.9873
ENERGY: 300000 2.5465 2.8248 1.7941 0.0000 -10975.3521 1565.8305 0.0000 0.0000 1749.4288 -7652.9273 293.6466 -9402.3561 -7663.6126 293.0443 974.5158 1041.6808 30194.8456 511.2482 584.6788
ENERGY: 600000 5.3354 4.8209 3.0174 0.0000 -10658.9154 1395.7127 0.0000 0.0000 1786.8052 -7463.2237 299.9204 -9250.0290 -7627.5841 295.0419 -584.7637 -479.9339 31266.6310 236.3994 311.0184
ENERGY: 900000 1.7628 7.1447 2.2356 0.0000 -10853.4818 1450.8573 0.0000 0.0000 1790.5019 -7600.9795 300.5409 -9391.4814 -7625.5170 297.1705 -233.9002 -139.8091 30993.3910 175.4299 242.9599
ENERGY: 1200000 1.9252 4.5886 3.9856 0.0000 -10927.1667 1510.8068 0.0000 0.0000 1770.4058 -7635.4547 297.1677 -9405.8605 -7617.4137 297.0954 60.8585 93.6373 31146.1446 142.4396 209.9631
ENERGY: 1500000 4.2775 5.2080 1.6862 0.0000 -10730.4759 1435.5344 0.0000 0.0000 1802.6155 -7481.1543 302.5742 -9283.7698 -7608.7991 297.6945 109.6397 152.8771 31078.8714 123.5839 192.3972
TCL: Running FEP window  12: Lambda1 0.4499999999999996 Lambda2 0.39999999999999963 [dLambda -0.04999999999999999]
TCL: Setting parameter firsttimestep to 0
TCL: Setting parameter alchLambda to 0.4499999999999996
Info: NONBONDED TABLE R-SQUARED SPACING: 0.0625
Info: NONBONDED TABLE SIZE: 705 POINTS
TCL: Setting parameter alchLambda2 to 0.39999999999999963
Info: NONBONDED TABLE R-SQUARED SPACING: 0.0625
Info: NONBONDED TABLE SIZE: 705 POINTS
TCL: Running for 1500000 steps
ETITLE: TS BOND ANGLE DIHED IMPRP ELECT VDW BOUNDARY MISC KINETIC TOTAL TEMP POTENTIAL TOTALAVG TEMPAVG PRESSURE GPRESSURE VOLUME PRESSAVG GPRESSAVG
ENERGY: 0 4.2776 5.2080 1.6862 0.0000 -10730.4756 1436.0281 0.0000 0.0000 1801.7681 -7481.5077 302.4319 -9283.2758 -7481.5077 302.4319 66.7005 150.4245 31078.8714 66.7005 150.4245
ENERGY: 300000 6.3695 4.7617 3.4793 0.0000 -10850.3006 1464.7591 0.0000 0.0000 1764.7026 -7606.2284 296.2104 -9370.9310 -7538.6813 300.3384 -150.7931 -131.6846 30830.7041 -169.3312 -102.2211
ENERGY: 600000 2.0427 3.5343 2.0925 0.0000 -10876.8722 1473.0612 0.0000 0.0000 1807.4058 -7588.7358 303.3782 -9396.1416 -7548.3644 302.4859 19.9152 77.7834 30882.6498 -122.2315 -63.8995
ENERGY: 900000 1.9437 3.4589 2.3361 0.0000 -10839.8357 1447.1926 0.0000 0.0000 1766.1780 -7618.7263 296.4580 -9384.9043 -7563.4643 301.4145 -207.0364 -108.3907 30958.7796 -129.5086 -75.9580
ENERGY: 1200000 1.4911 5.1738 4.7799 0.0000 -10710.4245 1432.2518 0.0000 0.0000 1788.2421 -7478.4857 300.1616 -9266.7278 -7563.9907 300.1248 -204.2121 -100.7950 31077.0572 -127.6599 -71.6355
ENERGY: 1500000 2.8942 8.4975 3.8121 0.0000 -10728.2700 1419.1264 0.0000 0.0000 1828.0499 -7465.8899 306.8434 -9293.9398 -7567.8881 300.1773 -511.3024 -434.4678 31432.1350 -171.7330 -110.6799
TCL: Running FEP window  13: Lambda1 0.39999999999999963 Lambda2 0.34999999999999964 [dLambda -0.04999999999999999]
TCL: Setting parameter firsttimestep to 0
TCL: Setting parameter alchLambda to 0.39999999999999963
Info: NONBONDED TABLE R-SQUARED SPACING: 0.0625
Info: NONBONDED TABLE SIZE: 705 POINTS
TCL: Setting parameter alchLambda2 to 0.34999999999999964
Info: NONBONDED TABLE R-SQUARED SPACING: 0.0625
Info: NONBONDED TABLE SIZE: 705 POINTS
TCL: Running for 1500000 steps
ETITLE: TS BOND ANGLE DIHED IMPRP ELECT VDW BOUNDARY MISC KINETIC TOTAL TEMP POTENTIAL TOTALAVG TEMPAVG PRESSURE GPRESSURE VOLUME PRESSAVG GPRESSAVG
ENERGY: 0 2.8942 8.4975 3.8121 0.0000 -10728.2705 1419.1848 0.0000 0.0000 1827.1738 -7466.7081 306.6964 -9293.8819 -7466.7081 306.6964 -537.2139 -441.3466 31432.1350 -537.2139 -441.3466
ENERGY: 300000 1.0273 4.6067 3.0968 0.0000 -10750.9391 1389.2921 0.0000 0.0000 1753.1102 -7599.8059 294.2646 -9352.9161 -7528.2459 301.4906 -559.4928 -531.3724 31065.1003 -338.4545 -274.9810
ENERGY: 600000 3.9352 5.1713 1.5991 0.0000 -10752.4488 1397.9393 0.0000 0.0000 1785.3961 -7558.4079 299.6839 -9343.8040 -7545.0419 302.1632 -713.5567 -608.9843 31008.0078 -311.1341 -252.1052
ENERGY: 900000 1.2970 2.0534 3.2484 0.0000 -10873.5656 1487.1016 0.0000 0.0000 1768.2531 -7611.6121 296.8063 -9379.8652 -7546.5934 302.0871 -176.4361 -81.8525 31258.1233 -284.6408 -224.4337
ENERGY: 1200000 1.3989 5.8118 1.9230 0.0000 -10807.0252 1528.7825 0.0000 0.0000 1794.4547 -7474.6543 301.2044 -9269.1090 -7549.1956 302.0573 594.1961 625.7121 31103.6237 -272.6105 -218.4151
ENERGY: 1500000 0.4151 3.7435 1.9032 0.0000 -10939.1132 1577.9396 0.0000 0.0000 1739.8523 -7615.2595 292.0392 -9355.1118 -7557.2069 301.0069 915.1234 964.7956 30787.4608 -275.3750 -219.8582
TCL: Running FEP window  14: Lambda1 0.34999999999999964 Lambda2 0.29999999999999966 [dLambda -0.04999999999999999]
TCL: Setting parameter firsttimestep to 0
TCL: Setting parameter alchLambda to 0.34999999999999964
Info: NONBONDED TABLE R-SQUARED SPACING: 0.0625
Info: NONBONDED TABLE SIZE: 705 POINTS
TCL: Setting parameter alchLambda2 to 0.29999999999999966
Info: NONBONDED TABLE R-SQUARED SPACING: 0.0625
Info: NONBONDED TABLE SIZE: 705 POINTS
TCL: Running for 1500000 steps
ETITLE: TS BOND ANGLE DIHED IMPRP ELECT VDW BOUNDARY MISC KINETIC TOTAL TEMP POTENTIAL TOTALAVG TEMPAVG PRESSURE GPRESSURE VOLUME PRESSAVG GPRESSAVG
ENERGY: 0 0.4151 3.7434 1.9032 0.0000 -10939.1131 1577.6113 0.0000 0.0000 1739.0065 -7616.4335 291.8972 -9355.4400 -7616.4335 291.8972 870.3527 956.4188 30787.4608 870.3527 956.4188
ENERGY: 300000 1.3621 2.3699 4.0019 0.0000 -10836.2620 1480.4940 0.0000 0.0000 1763.2456 -7584.7885 295.9658 -9348.0341 -7586.0011 295.5491 120.3266 181.7456 31157.8282 129.1721 192.8810
ENERGY: 600000 3.3152 3.4234 3.1561 0.0000 -10914.6852 1528.2637 0.0000 0.0000 1708.2388 -7668.2879 286.7328 -9376.5267 -7599.7071 295.1775 387.8319 440.0421 30944.1617 70.6256 130.4082
ENERGY: 900000 2.0139 3.8520 4.0787 0.0000 -10664.4450 1283.6905 0.0000 0.0000 1752.9030 -7617.9070 294.2298 -9370.8100 -7601.4582 296.6506 -1472.7799 -1469.6536 31135.0970 -17.6176 36.0474
ENERGY: 1200000 1.8444 2.5891 1.6503 0.0000 -10842.0774 1428.1150 0.0000 0.0000 1880.5215 -7527.3570 315.6509 -9407.8785 -7593.3930 298.6686 -343.8879 -274.6130 30836.8964 -163.1034 -107.0644
ENERGY: 1500000 2.0307 3.2900 3.3619 0.0000 -10812.7401 1426.6154 0.0000 0.0000 1807.1393 -7570.3028 303.3335 -9377.4421 -7600.4930 298.9780 -170.2518 -84.5185 30805.3778 -84.3172 -26.0419
TCL: Running FEP window  15: Lambda1 0.29999999999999966 Lambda2 0.24999999999999967 [dLambda -0.04999999999999999]
TCL: Setting parameter firsttimestep to 0
TCL: Setting parameter alchLambda to 0.29999999999999966
Info: NONBONDED TABLE R-SQUARED SPACING: 0.0625
Info: NONBONDED TABLE SIZE: 705 POINTS
TCL: Setting parameter alchLambda2 to 0.24999999999999967
Info: NONBONDED TABLE R-SQUARED SPACING: 0.0625
Info: NONBONDED TABLE SIZE: 705 POINTS
TCL: Running for 1500000 steps
ETITLE: TS BOND ANGLE DIHED IMPRP ELECT VDW BOUNDARY MISC KINETIC TOTAL TEMP POTENTIAL TOTALAVG TEMPAVG PRESSURE GPRESSURE VOLUME PRESSAVG GPRESSAVG
ENERGY: 0 2.0307 3.2900 3.3619 0.0000 -10812.7409 1426.9858 0.0000 0.0000 1806.2441 -7570.8284 303.1833 -9377.0725 -7570.8284 303.1833 -150.2152 -86.0521 30805.3778 -150.2152 -86.0521
ENERGY: 300000 1.8563 4.1241 3.2691 0.0000 -10839.7662 1454.0428 0.0000 0.0000 1801.4384 -7575.0356 302.3766 -9376.4739 -7602.7344 300.9943 -153.6078 -40.4613 30519.9009 -66.1096 16.9193
ENERGY: 600000 1.9572 3.0031 1.1122 0.0000 -10830.4988 1507.9069 0.0000 0.0000 1783.4808 -7533.0387 299.3624 -9316.5195 -7589.5984 299.8666 409.3934 508.8988 30867.9307 -29.8907 46.9773
ENERGY: 900000 4.1848 3.9187 1.7350 0.0000 -10739.9954 1392.9674 0.0000 0.0000 1771.4698 -7565.7197 297.3463 -9337.1896 -7589.7778 299.4427 -769.1627 -681.6572 31302.0324 -109.0996 -44.6007
ENERGY: 1200000 0.5338 2.4259 3.3496 0.0000 -10788.2541 1412.1064 0.0000 0.0000 1751.3937 -7618.4446 293.9765 -9369.8384 -7587.4385 299.6488 -351.2119 -253.0415 30783.9833 -114.0035 -46.0033
ENERGY: 1500000 1.4751 6.3617 2.1249 0.0000 -10820.1413 1432.1571 0.0000 0.0000 1794.5851 -7583.4375 301.2263 -9378.0226 -7591.8143 299.5687 -170.4238 -116.1761 30661.7018 -144.5208 -76.2329
TCL: Running FEP window  16: Lambda1 0.24999999999999967 Lambda2 0.19999999999999968 [dLambda -0.04999999999999999]
TCL: Setting parameter firsttimestep to 0
TCL: Setting parameter alchLambda to 0.24999999999999967
Info: NONBONDED TABLE R-SQUARED SPACING: 0.0625
Info: NONBONDED TABLE SIZE: 705 POINTS
TCL: Setting parameter alchLambda2 to 0.19999999999999968
Info: NONBONDED TABLE R-SQUARED SPACING: 0.0625
Info: NONBONDED TABLE SIZE: 705 POINTS
TCL: Running for 1500000 steps
ETITLE: TS BOND ANGLE DIHED IMPRP ELECT VDW BOUNDARY MISC KINETIC TOTAL TEMP POTENTIAL TOTALAVG TEMPAVG PRESSURE GPRESSURE VOLUME PRESSAVG GPRESSAVG
ENERGY: 0 1.4751 6.3617 2.1249 0.0000 -10820.1426 1431.5650 0.0000 0.0000 1793.7001 -7584.9159 301.0777 -9378.6160 -7584.9159 301.0777 -205.1616 -123.7503 30661.7018 -205.1616 -123.7503
ENERGY: 300000 4.7053 3.2566 1.6809 0.0000 -10932.4668 1475.6188 0.0000 0.0000 1837.2262 -7609.9790 308.3837 -9447.2052 -7620.5647 299.4671 122.6748 143.3018 30008.0272 -118.5729 -69.5195
ENERGY: 600000 1.6467 2.1586 5.2216 0.0000 -10844.3081 1451.2947 0.0000 0.0000 1798.6212 -7585.3654 301.9037 -9383.9866 -7627.0151 298.5428 -103.9903 -52.5771 30761.2599 -36.1097 2.6107
ENERGY: 900000 1.8915 6.3258 1.6883 0.0000 -10897.1086 1504.4754 0.0000 0.0000 1785.9948 -7596.7328 299.7843 -9382.7276 -7599.3528 299.8268 96.2129 260.9349 30848.1138 27.5460 79.5630
ENERGY: 1200000 2.0431 5.0928 1.8510 0.0000 -10893.1011 1526.0296 0.0000 0.0000 1774.9193 -7583.1653 297.9253 -9358.0846 -7595.2760 299.6779 324.1801 332.0634 31140.8861 117.9989 158.1812
ENERGY: 1500000 4.8047 2.7519 3.6021 0.0000 -10779.8209 1391.2348 0.0000 0.0000 1788.8746 -7588.5529 300.2677 -9377.4274 -7597.7363 299.8710 -765.6582 -768.6177 30931.0869 20.5085 61.9127
TCL: Running FEP window  17: Lambda1 0.19999999999999968 Lambda2 0.1499999999999997 [dLambda -0.04999999999999999]
TCL: Setting parameter firsttimestep to 0
TCL: Setting parameter alchLambda to 0.19999999999999968
Info: NONBONDED TABLE R-SQUARED SPACING: 0.0625
Info: NONBONDED TABLE SIZE: 705 POINTS
TCL: Setting parameter alchLambda2 to 0.1499999999999997
Info: NONBONDED TABLE R-SQUARED SPACING: 0.0625
Info: NONBONDED TABLE SIZE: 705 POINTS
TCL: Running for 1500000 steps
ETITLE: TS BOND ANGLE DIHED IMPRP ELECT VDW BOUNDARY MISC KINETIC TOTAL TEMP POTENTIAL TOTALAVG TEMPAVG PRESSURE GPRESSURE VOLUME PRESSAVG GPRESSAVG
ENERGY: 0 4.8047 2.7519 3.6021 0.0000 -10779.8203 1391.5536 0.0000 0.0000 1787.9925 -7589.1155 300.1197 -9377.1080 -7589.1155 300.1197 -851.7596 -773.6662 30931.0869 -851.7596 -773.6662
ENERGY: 300000 1.1361 3.9492 2.1184 0.0000 -10996.6508 1570.0742 0.0000 0.0000 1810.3470 -7609.0259 303.8719 -9419.3729 -7597.5616 299.8243 745.5003 799.8266 30609.5792 -140.5829 -98.7460
ENERGY: 600000 1.7539 4.4542 2.4732 0.0000 -10840.2756 1471.2993 0.0000 0.0000 1826.1025 -7534.1925 306.5165 -9360.2950 -7588.0922 300.4727 293.7526 287.7196 30442.5544 -65.1054 -21.7966
ENERGY: 900000 3.2042 6.7439 2.0152 0.0000 -11044.9949 1604.2139 0.0000 0.0000 1785.7170 -7643.1008 299.7377 -9428.8178 -7586.0439 300.2590 867.8378 887.7880 30614.8864 -16.8943 20.4475
ENERGY: 1200000 2.0920 4.4518 3.8714 0.0000 -10643.9546 1339.6412 0.0000 0.0000 1779.5437 -7514.3545 298.7015 -9293.8982 -7576.5553 300.1693 -835.5740 -755.3150 31067.2055 -10.2272 39.4718
ENERGY: 1500000 3.7087 4.8968 5.1044 0.0000 -10734.2182 1398.1825 0.0000 0.0000 1769.9238 -7552.4021 297.0868 -9322.3258 -7582.8357 299.9510 -601.3517 -556.6090 30949.2305 -9.7280 42.8919
TCL: Running FEP window  18: Lambda1 0.1499999999999997 Lambda2 0.09999999999999969 [dLambda -0.05 ]
TCL: Setting parameter firsttimestep to 0
TCL: Setting parameter alchLambda to 0.1499999999999997
Info: NONBONDED TABLE R-SQUARED SPACING: 0.0625
Info: NONBONDED TABLE SIZE: 705 POINTS
TCL: Setting parameter alchLambda2 to 0.09999999999999969
Info: NONBONDED TABLE R-SQUARED SPACING: 0.0625
Info: NONBONDED TABLE SIZE: 705 POINTS
TCL: Running for 1500000 steps
ETITLE: TS BOND ANGLE DIHED IMPRP ELECT VDW BOUNDARY MISC KINETIC TOTAL TEMP POTENTIAL TOTALAVG TEMPAVG PRESSURE GPRESSURE VOLUME PRESSAVG GPRESSAVG
ENERGY: 0 3.7087 4.8968 5.1044 0.0000 -10734.2180 1398.3079 0.0000 0.0000 1769.0208 -7553.1794 296.9352 -9322.2002 -7553.1794 296.9352 -650.4187 -560.3227 30949.2305 -650.4187 -560.3227
ENERGY: 300000 0.8667 2.5015 2.1460 0.0000 -10913.9673 1536.1335 0.0000 0.0000 1726.7627 -7645.5570 289.8421 -9372.3197 -7570.8677 298.8221 438.3355 521.5448 30758.4618 229.6936 287.0315
ENERGY: 600000 2.0061 4.9448 2.4864 0.0000 -10851.0544 1489.9438 0.0000 0.0000 1798.5547 -7553.1186 301.8926 -9351.6733 -7565.9106 300.7581 15.0658 92.2098 30942.9113 95.0798 163.4389
ENERGY: 900000 2.9543 2.6487 5.0120 0.0000 -10869.4481 1478.5124 0.0000 0.0000 1825.9954 -7554.3252 306.4986 -9380.3206 -7560.4269 301.1292 567.0703 570.0857 30325.0576 96.7889 156.0418
ENERGY: 1200000 5.5853 4.3391 2.9798 0.0000 -10775.6429 1506.3174 0.0000 0.0000 1772.5358 -7483.8855 297.5252 -9256.4213 -7556.7725 300.0872 294.6419 374.9133 31122.9853 105.1725 165.2515
ENERGY: 1500000 4.9537 2.5983 2.9924 0.0000 -10909.7339 1472.8706 0.0000 0.0000 1768.7140 -7657.6049 296.8837 -9426.3189 -7577.3879 299.1326 -180.2306 -125.5303 30611.1178 -9.7122 50.4714
TCL: Running FEP window  19: Lambda1 0.09999999999999969 Lambda2 0.049999999999999684 [dLambda -0.05 ]
TCL: Setting parameter firsttimestep to 0
TCL: Setting parameter alchLambda to 0.09999999999999969
Info: NONBONDED TABLE R-SQUARED SPACING: 0.0625
Info: NONBONDED TABLE SIZE: 705 POINTS
TCL: Setting parameter alchLambda2 to 0.049999999999999684
Info: NONBONDED TABLE R-SQUARED SPACING: 0.0625
Info: NONBONDED TABLE SIZE: 705 POINTS
TCL: Running for 1500000 steps
ETITLE: TS BOND ANGLE DIHED IMPRP ELECT VDW BOUNDARY MISC KINETIC TOTAL TEMP POTENTIAL TOTALAVG TEMPAVG PRESSURE GPRESSURE VOLUME PRESSAVG GPRESSAVG
ENERGY: 0 4.9537 2.5983 2.9924 0.0000 -10909.7339 1471.9222 0.0000 0.0000 1767.8307 -7659.4367 296.7354 -9427.2674 -7659.4367 296.7354 -205.6191 -132.4269 30611.1178 -205.6191 -132.4269
ENERGY: 300000 4.0194 5.1272 1.3616 0.0000 -11082.0809 1594.4290 0.0000 0.0000 1816.2771 -7660.8665 304.8673 -9477.1436 -7636.0222 302.3507 620.6464 684.8912 30748.9416 25.5301 85.5313
ENERGY: 600000 2.6988 6.0395 2.6577 0.0000 -10843.8383 1396.4702 0.0000 0.0000 1841.0061 -7594.9659 309.0182 -9435.9720 -7629.1658 303.8929 -567.1303 -525.2515 30697.0317 -130.6908 -75.8281
ENERGY: 900000 2.3312 4.3514 2.5921 0.0000 -10775.9478 1482.1482 0.0000 0.0000 1805.0678 -7479.4572 302.9858 -9284.5249 -7611.7505 302.0255 483.8996 506.0094 30723.8952 2.4444 50.6333
ENERGY: 1200000 2.2726 6.2667 2.8261 0.0000 -10917.1250 1470.8315 0.0000 0.0000 1785.5490 -7649.3791 299.7095 -9434.9281 -7614.6195 300.7647 -243.0652 -196.7706 31070.2141 -68.9213 -7.7910
ENERGY: 1500000 4.3388 4.2230 3.7422 0.0000 -10874.0669 1461.7285 0.0000 0.0000 1744.4504 -7655.5840 292.8110 -9400.0343 -7615.4939 299.5982 -119.6217 -73.9998 30788.9812 -50.2548 3.5959
TCL: Running FEP window  20: Lambda1 0.049999999999999684 Lambda2 0.0    [dLambda -0.049999999999999684]
TCL: Setting parameter firsttimestep to 0
TCL: Setting parameter alchLambda to 0.049999999999999684
Info: NONBONDED TABLE R-SQUARED SPACING: 0.0625
Info: NONBONDED TABLE SIZE: 705 POINTS
TCL: Setting parameter alchLambda2 to 0.0
Info: NONBONDED TABLE R-SQUARED SPACING: 0.0625
Info: NONBONDED TABLE SIZE: 705 POINTS
TCL: Running for 1500000 steps
ETITLE: TS BOND ANGLE DIHED IMPRP ELECT VDW BOUNDARY MISC KINETIC TOTAL TEMP POTENTIAL TOTALAVG TEMPAVG PRESSURE GPRESSURE VOLUME PRESSAVG GPRESSAVG
ENERGY: 0 4.3388 4.2230 3.7423 0.0000 -10874.0653 1462.0279 0.0000 0.0000 1743.5702 -7656.1633 292.6633 -9399.7334 -7656.1633 292.6633 -153.2428 -76.4302 30788.9812 -153.2428 -76.4302
ENERGY: 300000 4.1595 3.1328 1.2919 0.0000 -10803.0413 1403.6553 0.0000 0.0000 1742.9297 -7647.8721 292.5557 -9390.8018 -7619.7269 293.6703 -218.1582 -173.7044 30206.2370 -208.9760 -120.7481
ENERGY: 600000 3.5842 5.1812 2.5163 0.0000 -10980.9986 1486.6132 0.0000 0.0000 1786.9780 -7696.1257 299.9494 -9483.1036 -7638.6141 294.9282 50.7595 101.7575 30158.0629 -311.2741 -233.1235
ENERGY: 900000 1.5917 2.4222 2.3076 0.0000 -10880.9411 1416.3452 0.0000 0.0000 1809.2193 -7649.0551 303.6826 -9458.2744 -7619.0479 296.7859 -395.1548 -383.3534 30284.7837 -291.0194 -227.5681
ENERGY: 1200000 1.5018 7.6248 2.0364 0.0000 -10889.5375 1494.5086 0.0000 0.0000 1770.3245 -7613.5413 297.1540 -9383.8659 -7608.7358 297.6519 190.7907 221.4393 30482.8571 -167.2801 -105.8968
ENERGY: 1500000 1.2801 8.3036 2.4783 0.0000 -10907.3605 1455.3896 0.0000 0.0000 1737.1271 -7702.7819 291.5818 -9439.9090 -7617.7219 296.9337 -318.2940 -264.9520 30811.2734 -172.9781 -111.7162
TCL: Exiting due to exit command.
