Info: SIMULATION PARAMETERS:
Info: TIMESTEP               2
Info: NUMBER OF STEPS        0
Info: STEPS PER CYCLE        10
Info: PERIODIC CELL BASIS 1  31.5944 0 0
Info: PERIODIC CELL BASIS 2  0 30.1595 0
Info: PERIODIC CELL BASIS 3  0 0 31.6005
Info: PERIODIC CELL CENTER   0 0 0
Info: WRAPPING WATERS AROUND PERIODIC BOUNDARIES ON OUTPUT.
Info: WRAPPING ALL CLUSTERS AROUND PERIODIC BOUNDARIES ON OUTPUT.
Info: FIRST LDB TIMESTEP     50
Info: LAST LDB TIMESTEP     -1
Info: HOM BACKGROUND SCALING 1
Info: PME BACKGROUND SCALING 1
Info: MIN ATOMS PER PATCH    40
Info: EMPTY PATCH LOAD       40 ATOMS
Info: VELOCITY FILE          mobley_63712_equil.vel
Info: CENTER OF MASS MOVING INITIALLY? NO
Info: DIELECTRIC             1
Info: EXCLUDE                SCALED ONE-FOUR
Info: 1-4 ELECTROSTATICS SCALED BY 0.833333
Info: MODIFIED 1-4 VDW PARAMETERS WILL BE USED
Info: DCD FILENAME           mobley_63712_prod.dcd
Info: DCD FREQUENCY          100000
Info: DCD FIRST STEP         100000
Info: DCD FILE WILL CONTAIN UNIT CELL DATA
Info: XST FILENAME           mobley_63712_prod.xst
Info: XST FREQUENCY          100000
Info: NO VELOCITY DCD OUTPUT
Info: NO FORCE DCD OUTPUT
Info: OUTPUT FILENAME        mobley_63712_prod
Info: BINARY OUTPUT FILES WILL BE USED
Info: RESTART FILENAME       mobley_63712_prod.restart
Info: RESTART FREQUENCY      100000
Info: BINARY RESTART FILES WILL BE USED
Info: CUTOFF                 9
Info: PAIRLIST DISTANCE      11
Info: PAIRLIST SHRINK RATE   0.01
Info: PAIRLIST GROW RATE     0.01
Info: PAIRLIST TRIGGER       0.3
Info: PAIRLISTS PER CYCLE    2
Info: PAIRLISTS ENABLED
Info: MARGIN                 2
Info: HYDROGEN GROUP CUTOFF  2.5
Info: PATCH DIMENSION        15.5
Info: ENERGY OUTPUT STEPS    100000
Info: ENERGY EVALUATION STEPS    100000
Info: OUTPUT ENERGY PRECISION 4
Info: CROSSTERM ENERGY INCLUDED IN DIHEDRAL
Info: TIMING OUTPUT STEPS    1000000
Info: PRESSURE OUTPUT STEPS  100000
Info: ALCHEMICAL FEP ON
Info: FEP CURRENT LAMBDA VALUE     1
Info: FEP COMPARISON LAMBDA VALUE  0.95
Info: FEP INTRA-ALCHEMICAL NON-BONDED INTERACTIONS WILL BE RETAINED
Info: FEP INTRA-ALCHEMICAL BONDED INTERACTIONS WILL BE RETAINED
Info: FEP VDW SHIFTING COEFFICIENT 5
Info: FEP ELEC. ACTIVE FOR ANNIHILATED PARTICLES BETWEEN LAMBDA = 0 AND LAMBDA = 0.5
Info: FEP ELEC. ACTIVE FOR EXNIHILATED PARTICLES BETWEEN LAMBDA = 0.5 AND LAMBDA = 1
Info: FEP VDW ACTIVE FOR ANNIHILATED PARTICLES BETWEEN LAMBDA = 0 AND LAMBDA = 1
Info: FEP VDW ACTIVE FOR EXNIHILATED PARTICLES BETWEEN LAMBDA = 0 AND LAMBDA = 1
Info: FEP BOND ACTIVE FOR ANNIHILATED PARTICLES BETWEEN LAMBDA = 1 AND LAMBDA = 1
Info: FEP BOND ACTIVE FOR EXNIHILATED PARTICLES BETWEEN LAMBDA = 0 AND LAMBDA = 0
Info: LANGEVIN DYNAMICS ACTIVE
Info: LANGEVIN TEMPERATURE   300
Info: LANGEVIN USING BBK INTEGRATOR
Info: LANGEVIN DAMPING COEFFICIENT IS 1 INVERSE PS
Info: LANGEVIN DYNAMICS APPLIED TO HYDROGENS
Info: LANGEVIN PISTON PRESSURE CONTROL ACTIVE
Info:        TARGET PRESSURE IS 1.01325 BAR
Info:     OSCILLATION PERIOD IS 50 FS
Info:             DECAY TIME IS 25 FS
Info:     PISTON TEMPERATURE IS 300 K
Info:       PRESSURE CONTROL IS GROUP-BASED
Info:    INITIAL STRAIN RATE IS -0.000133983 -0.000133983 -0.000133983
Info:       CELL FLUCTUATION IS ISOTROPIC
Info: PARTICLE MESH EWALD (PME) ACTIVE
Info: PME TOLERANCE               1e-06
Info: PME EWALD COEFFICIENT       0.348832
Info: PME INTERPOLATION ORDER     4
Info: PME GRID DIMENSIONS         32 32 32
Info: PME MAXIMUM GRID SPACING    1
Info: PME CALCULATION WILL BE PERFORMED ON GPU
Info: FULL ELECTROSTATIC EVALUATION FREQUENCY      2
Info: USING VERLET I (r-RESPA) MTS SCHEME.
Info: C1 SPLITTING OF LONG RANGE ELECTROSTATICS
Info: PLACING ATOMS IN PATCHES BY HYDROGEN GROUPS
Info: RIGID BONDS TO HYDROGEN : ALL
Info:         ERROR TOLERANCE : 1e-08
Info:          MAX ITERATIONS : 100
Info: RIGID WATER USING SETTLE ALGORITHM
Info: RANDOM NUMBER SEED     1743635978
Info: USE HYDROGEN BONDS?    NO
Info: Using AMBER format force field!
Info: AMBER PARM FILE        mobley_63712.prmtop
Info: COORDINATE PDB         mobley_63712.pdb
Info: Exclusions will be read from PARM file!
Info: SCNB (VDW SCALING)     2
Info: USING ARITHMETIC MEAN TO COMBINE L-J SIGMA PARAMETERS
Info: BINARY COORDINATES     mobley_63712_equil.coor
Info: SUMMARY OF PARAMETERS:
Info: 6 BONDS
Info: 8 ANGLES
Info:   8 HARMONIC
Info:   0 COSINE-BASED
Info: 8 DIHEDRAL
Info: 0 IMPROPER
Info: 0 CROSSTERM
Info: 0 VDW
Info: 21 VDW_PAIRS
Info: 0 NBTHOLE_PAIRS
Info: To read alchdata from file: mobley_63712.pdb
Info: To read alchflag data from column: 5
Info: STRUCTURE SUMMARY:
Info: 2954 ATOMS
Info: 2954 BONDS
Info: 39 ANGLES
Info: 62 DIHEDRALS
Info: 0 IMPROPERS
Info: 0 CROSSTERMS
Info: 3044 EXCLUSIONS
Info: 2947 RIGID BONDS
Info: ALCH: 0 ATOMS TO DISAPPEAR IN FINAL STATE
Info: ALCH: 20 ATOMS TO APPEAR IN FINAL STATE
Info: 5915 DEGREES OF FREEDOM
Info: 985 HYDROGEN GROUPS
Info: 4 ATOMS IN LARGEST HYDROGEN GROUP
Info: 985 MIGRATION GROUPS
Info: 4 ATOMS IN LARGEST MIGRATION GROUP
Info: TOTAL MASS = 17718.8 amu
Info: TOTAL CHARGE = -1.11759e-08 e
Info: MASS DENSITY = 0.977161 g/cm^3
Info: ATOM DENSITY = 0.098103 atoms/A^3
Info: ADDED 0 IMPLICIT EXCLUSIONS
Info: NONBONDED TABLE R-SQUARED SPACING: 0.0625
Info: NONBONDED TABLE SIZE: 705 POINTS
Info: REMOVING COM VELOCITY 0.0500867 -0.0846575 0.157415
Info: Use 3D box decompostion in PME FFT.
Info: Updated CUDA force table with 4096 elements.
Info: Updated CUDA LJ table with 6 x 6 elements.
Info: Found 23 unique exclusion lists needing 64 bytes
TCL: Running for 1500000 steps
ETITLE: TS BOND ANGLE DIHED IMPRP ELECT VDW BOUNDARY MISC KINETIC TOTAL TEMP POTENTIAL TOTALAVG TEMPAVG PRESSURE GPRESSURE VOLUME PRESSAVG GPRESSAVG
ENERGY: 0 3.1544 7.1862 3.1351 0.0000 -10753.1780 1451.0471 0.0000 0.0000 1744.9382 -7543.7168 296.9038 -9288.6551 -7543.7168 296.9038 141.8084 228.8026 30111.1986 141.8084 228.8026
ENERGY: 300000 4.4769 8.5532 2.8080 0.0000 -10566.5920 1398.4856 0.0000 0.0000 1761.3382 -7390.9302 299.6942 -9152.2684 -7482.1028 299.3817 -314.7323 -258.3207 30787.7325 -23.4538 50.6912
ENERGY: 600000 1.8419 7.8337 2.8037 0.0000 -10603.2123 1348.7413 0.0000 0.0000 1787.6232 -7454.3684 304.1667 -9241.9916 -7475.9065 300.1186 -621.8971 -561.9684 30317.1538 -173.7576 -112.3717
ENERGY: 900000 1.7456 8.9923 5.6870 0.0000 -10659.2443 1386.6676 0.0000 0.0000 1765.1358 -7491.0159 300.3404 -9256.1517 -7478.9958 300.9276 -309.7300 -217.2988 30143.2337 -172.1823 -112.3740
ENERGY: 1200000 1.2260 11.1674 3.0312 0.0000 -10732.0511 1441.8396 0.0000 0.0000 1727.7407 -7547.0463 293.9776 -9274.7870 -7484.7446 300.4189 57.4168 80.5312 30171.1256 -212.6771 -154.1567
ENERGY: 1500000 0.6871 7.9282 4.2477 0.0000 -10620.4825 1402.1057 0.0000 0.0000 1737.4888 -7468.0250 295.6362 -9205.5138 -7483.4113 299.7402 -220.8419 -163.8366 30395.0240 -215.9533 -165.5905
TCL: Running FEP window   2: Lambda1 0.95   Lambda2 0.8999999999999999 [dLambda -0.050000000000000044]
TCL: Setting parameter firsttimestep to 0
TCL: Setting parameter alchLambda to 0.95
Info: NONBONDED TABLE R-SQUARED SPACING: 0.0625
Info: NONBONDED TABLE SIZE: 705 POINTS
TCL: Setting parameter alchLambda2 to 0.8999999999999999
Info: NONBONDED TABLE R-SQUARED SPACING: 0.0625
Info: NONBONDED TABLE SIZE: 705 POINTS
TCL: Running for 1500000 steps
ETITLE: TS BOND ANGLE DIHED IMPRP ELECT VDW BOUNDARY MISC KINETIC TOTAL TEMP POTENTIAL TOTALAVG TEMPAVG PRESSURE GPRESSURE VOLUME PRESSAVG GPRESSAVG
ENERGY: 0 0.6871 7.9282 4.2477 0.0000 -10619.8190 1402.5271 0.0000 0.0000 1736.6158 -7467.8131 295.4877 -9204.4289 -7467.8131 295.4877 -250.5783 -170.6463 30395.0240 -250.5783 -170.6463
ENERGY: 300000 4.4695 10.2823 3.3276 0.0000 -10584.1788 1380.2255 0.0000 0.0000 1782.1786 -7403.6953 303.2403 -9185.8739 -7457.4379 299.7303 -422.9975 -304.1734 30528.2376 -317.0958 -251.0629
ENERGY: 600000 0.9109 7.4658 3.6207 0.0000 -10804.4800 1513.4140 0.0000 0.0000 1772.7918 -7506.2768 301.6431 -9279.0686 -7482.2932 299.7047 512.9697 693.9144 30558.7826 -167.9058 -82.4663
ENERGY: 900000 2.2490 7.1897 3.0226 0.0000 -10655.9824 1458.1966 0.0000 0.0000 1720.7565 -7464.5680 292.7892 -9185.3245 -7475.2192 299.3517 260.6157 340.1281 30583.7459 -108.3079 -31.2017
ENERGY: 1200000 3.1380 10.8607 3.0432 0.0000 -10624.2458 1425.8774 0.0000 0.0000 1787.9982 -7393.3284 304.2305 -9181.3266 -7462.8503 300.3935 30.9694 65.7987 30592.7887 -81.1829 -10.7945
ENERGY: 1500000 1.3853 7.8283 3.9981 0.0000 -10681.8285 1442.5098 0.0000 0.0000 1789.9911 -7436.1159 304.5696 -9226.1070 -7462.3257 300.3428 250.4306 281.2366 30431.9126 -54.2371 15.1364
TCL: Running FEP window   3: Lambda1 0.8999999999999999 Lambda2 0.8499999999999999 [dLambda -0.050000000000000044]
TCL: Setting parameter firsttimestep to 0
TCL: Setting parameter alchLambda to 0.8999999999999999
Info: NONBONDED TABLE R-SQUARED SPACING: 0.0625
Info: NONBONDED TABLE SIZE: 705 POINTS
TCL: Setting parameter alchLambda2 to 0.8499999999999999
Info: NONBONDED TABLE R-SQUARED SPACING: 0.0625
Info: NONBONDED TABLE SIZE: 705 POINTS
TCL: Running for 1500000 steps
ETITLE: TS BOND ANGLE DIHED IMPRP ELECT VDW BOUNDARY MISC KINETIC TOTAL TEMP POTENTIAL TOTALAVG TEMPAVG PRESSURE GPRESSURE VOLUME PRESSAVG GPRESSAVG
ENERGY: 0 1.3853 7.8283 3.9981 0.0000 -10681.1280 1442.9795 0.0000 0.0000 1789.1265 -7435.8103 304.4225 -9224.9368 -7435.8103 304.4225 206.5391 278.7998 30431.9126 206.5391 278.7998
ENERGY: 300000 0.9977 9.4254 3.2324 0.0000 -10603.5335 1359.7754 0.0000 0.0000 1786.2999 -7443.8027 303.9415 -9230.1026 -7476.8726 299.7997 -613.5873 -540.1195 30652.2130 -9.7097 31.9384
ENERGY: 600000 1.2432 8.4949 3.6936 0.0000 -10776.4265 1457.8518 0.0000 0.0000 1776.3403 -7528.8027 302.2469 -9305.1429 -7486.4716 300.3758 119.9549 142.6636 30124.0310 1.6886 42.8563
ENERGY: 900000 1.4562 9.5365 3.3565 0.0000 -10719.7129 1443.9203 0.0000 0.0000 1786.9251 -7474.5183 304.0479 -9261.4434 -7486.2022 301.6368 228.1108 269.5306 30088.3387 -16.1695 24.5333
ENERGY: 1200000 1.8464 8.7051 3.1078 0.0000 -10678.7948 1417.5932 0.0000 0.0000 1755.8146 -7491.7277 298.7544 -9247.5423 -7480.3688 301.7954 -121.8874 -126.1019 30211.9240 -65.6365 -29.1583
ENERGY: 1500000 2.8978 11.4131 4.2114 0.0000 -10724.9218 1420.1431 0.0000 0.0000 1706.1969 -7580.0596 290.3119 -9286.2565 -7476.7398 300.1800 -249.5471 -171.8437 30076.2661 -28.5940 12.4633
TCL: Running FEP window   4: Lambda1 0.8499999999999999 Lambda2 0.7999999999999998 [dLambda -0.050000000000000044]
TCL: Setting parameter firsttimestep to 0
TCL: Setting parameter alchLambda to 0.8499999999999999
Info: NONBONDED TABLE R-SQUARED SPACING: 0.0625
Info: NONBONDED TABLE SIZE: 705 POINTS
TCL: Setting parameter alchLambda2 to 0.7999999999999998
Info: NONBONDED TABLE R-SQUARED SPACING: 0.0625
Info: NONBONDED TABLE SIZE: 705 POINTS
TCL: Running for 1500000 steps
ETITLE: TS BOND ANGLE DIHED IMPRP ELECT VDW BOUNDARY MISC KINETIC TOTAL TEMP POTENTIAL TOTALAVG TEMPAVG PRESSURE GPRESSURE VOLUME PRESSAVG GPRESSAVG
ENERGY: 0 2.8977 11.4131 4.2114 0.0000 -10723.9362 1420.1367 0.0000 0.0000 1705.3203 -7579.9569 290.1627 -9285.2772 -7579.9569 290.1627 -271.0483 -182.4611 30076.2661 -271.0483 -182.4611
ENERGY: 300000 1.9830 9.9102 3.6717 0.0000 -10644.0421 1416.5329 0.0000 0.0000 1755.4084 -7456.5358 298.6853 -9211.9442 -7491.9066 295.7588 -60.0537 90.2722 30133.3608 -394.3463 -329.5293
ENERGY: 600000 2.6446 10.8017 3.1997 0.0000 -10739.5650 1409.8603 0.0000 0.0000 1763.1193 -7549.9394 299.9973 -9313.0587 -7484.0990 299.2434 -596.8059 -490.9941 30395.4248 -345.7097 -251.4844
ENERGY: 900000 1.7158 11.7001 4.0201 0.0000 -10476.8941 1298.2121 0.0000 0.0000 1757.0741 -7404.1718 298.9687 -9161.2460 -7455.8491 300.6953 -881.7980 -840.2498 30508.5864 -374.0206 -290.5898
ENERGY: 1200000 1.3337 9.3931 3.1853 0.0000 -10751.6189 1540.6440 0.0000 0.0000 1735.7976 -7461.2652 295.3485 -9197.0628 -7455.2640 301.5651 1105.2649 1144.0928 30112.0228 -180.1513 -107.7712
ENERGY: 1500000 1.4317 8.4099 3.5994 0.0000 -10678.1778 1395.0957 0.0000 0.0000 1713.7652 -7555.8759 291.5996 -9269.6411 -7464.8323 301.1095 -255.4444 -189.1868 30011.3781 -142.5073 -74.9716
TCL: Running FEP window   5: Lambda1 0.7999999999999998 Lambda2 0.7499999999999998 [dLambda -0.050000000000000044]
TCL: Setting parameter firsttimestep to 0
TCL: Setting parameter alchLambda to 0.7999999999999998
Info: NONBONDED TABLE R-SQUARED SPACING: 0.0625
Info: NONBONDED TABLE SIZE: 705 POINTS
TCL: Setting parameter alchLambda2 to 0.7499999999999998
Info: NONBONDED TABLE R-SQUARED SPACING: 0.0625
Info: NONBONDED TABLE SIZE: 705 POINTS
TCL: Running for 1500000 steps
ETITLE: TS BOND ANGLE DIHED IMPRP ELECT VDW BOUNDARY MISC KINETIC TOTAL TEMP POTENTIAL TOTALAVG TEMPAVG PRESSURE GPRESSURE VOLUME PRESSAVG GPRESSAVG
ENERGY: 0 1.4317 8.4099 3.5994 0.0000 -10677.3306 1395.4457 0.0000 0.0000 1712.9003 -7555.5436 291.4525 -9268.4438 -7555.5436 291.4525 -284.6371 -196.4294 30011.3781 -284.6371 -196.4294
ENERGY: 300000 3.0317 10.2101 3.1576 0.0000 -10749.1318 1470.6041 0.0000 0.0000 1742.2359 -7519.8923 296.4440 -9262.1282 -7541.9599 296.0441 384.7428 428.8921 30042.3158 233.2873 291.7257
ENERGY: 600000 2.4325 11.9119 5.1814 0.0000 -10851.4765 1591.1991 0.0000 0.0000 1784.1145 -7456.6370 303.5697 -9240.7515 -7491.7295 299.5167 1124.8267 1147.4111 30529.5574 297.7954 354.4191
ENERGY: 900000 1.5090 10.0548 2.8965 0.0000 -10734.0140 1491.9424 0.0000 0.0000 1740.2548 -7487.3564 296.1069 -9227.6112 -7483.6801 299.0506 542.8605 629.6315 30113.4821 252.0396 321.3585
ENERGY: 1200000 2.5212 9.0053 3.6026 0.0000 -10673.3707 1479.6554 0.0000 0.0000 1769.8810 -7408.7052 301.1478 -9178.5862 -7482.0795 299.4206 316.5103 457.3608 30430.7619 162.7211 237.6114
ENERGY: 1500000 2.0310 8.3984 3.4490 0.0000 -10596.7913 1405.5596 0.0000 0.0000 1770.7702 -7406.5831 301.2991 -9177.3534 -7479.7381 299.8840 -305.6644 -263.2763 30672.8112 131.6363 202.1008
TCL: Running FEP window   6: Lambda1 0.7499999999999998 Lambda2 0.6999999999999997 [dLambda -0.050000000000000044]
TCL: Setting parameter firsttimestep to 0
TCL: Setting parameter alchLambda to 0.7499999999999998
Info: NONBONDED TABLE R-SQUARED SPACING: 0.0625
Info: NONBONDED TABLE SIZE: 705 POINTS
TCL: Setting parameter alchLambda2 to 0.6999999999999997
Info: NONBONDED TABLE R-SQUARED SPACING: 0.0625
Info: NONBONDED TABLE SIZE: 705 POINTS
TCL: Running for 1500000 steps
ETITLE: TS BOND ANGLE DIHED IMPRP ELECT VDW BOUNDARY MISC KINETIC TOTAL TEMP POTENTIAL TOTALAVG TEMPAVG PRESSURE GPRESSURE VOLUME PRESSAVG GPRESSAVG
ENERGY: 0 2.0310 8.3984 3.4490 0.0000 -10595.4062 1405.2188 0.0000 0.0000 1769.8957 -7406.4133 301.1503 -9176.3090 -7406.4133 301.1503 -349.6067 -275.6431 30672.8112 -349.6067 -275.6431
ENERGY: 300000 1.6015 12.6247 3.1617 0.0000 -10655.2156 1429.5131 0.0000 0.0000 1767.7033 -7440.6112 300.7773 -9208.3146 -7441.2659 304.0418 171.7464 221.6773 30041.3543 -336.4063 -277.3552
ENERGY: 600000 1.7063 7.6392 3.4812 0.0000 -10665.0879 1433.5373 0.0000 0.0000 1771.3704 -7447.3535 301.4012 -9218.7239 -7491.1340 300.7261 118.7168 204.6405 30260.6859 -114.2655 -60.6182
ENERGY: 900000 1.9672 8.8270 3.1281 0.0000 -10660.1510 1483.6673 0.0000 0.0000 1782.4456 -7380.1157 303.2857 -9162.5613 -7470.3306 301.3187 378.9552 412.4272 30548.4576 10.9564 72.8781
ENERGY: 1200000 1.5585 9.3979 3.5743 0.0000 -10666.9772 1424.3516 0.0000 0.0000 1755.4906 -7472.6043 298.6993 -9228.0949 -7479.2345 301.2452 -2.0726 49.4936 30090.4714 48.8566 107.7503
ENERGY: 1500000 1.3054 15.0995 3.3571 0.0000 -10631.2615 1450.9926 0.0000 0.0000 1764.0570 -7396.4499 300.1568 -9160.5069 -7479.5854 300.6879 154.0305 262.0990 30338.0777 74.8541 131.8435
TCL: Running FEP window   7: Lambda1 0.6999999999999997 Lambda2 0.6499999999999997 [dLambda -0.050000000000000044]
TCL: Setting parameter firsttimestep to 0
TCL: Setting parameter alchLambda to 0.6999999999999997
Info: NONBONDED TABLE R-SQUARED SPACING: 0.0625
Info: NONBONDED TABLE SIZE: 705 POINTS
TCL: Setting parameter alchLambda2 to 0.6499999999999997
Info: NONBONDED TABLE R-SQUARED SPACING: 0.0625
Info: NONBONDED TABLE SIZE: 705 POINTS
TCL: Running for 1500000 steps
ETITLE: TS BOND ANGLE DIHED IMPRP ELECT VDW BOUNDARY MISC KINETIC TOTAL TEMP POTENTIAL TOTALAVG TEMPAVG PRESSURE GPRESSURE VOLUME PRESSAVG GPRESSAVG
ENERGY: 0 1.3054 15.0994 3.3571 0.0000 -10630.8775 1451.1638 0.0000 0.0000 1763.1843 -7396.7675 300.0083 -9159.9517 -7396.7675 300.0083 182.3535 255.3507 30338.0777 182.3535 255.3507
ENERGY: 300000 3.4387 11.1788 4.6689 0.0000 -10663.9802 1450.0865 0.0000 0.0000 1769.6221 -7424.9851 301.1037 -9194.6072 -7444.3115 300.9708 195.1415 293.7046 30313.2594 141.6087 195.8409
ENERGY: 600000 3.0902 11.5645 4.8634 0.0000 -10666.8000 1426.5654 0.0000 0.0000 1722.1539 -7498.5625 293.0270 -9220.7164 -7450.2951 300.1105 274.0963 357.0123 29823.2806 -25.9258 17.3044
ENERGY: 900000 2.0400 8.5042 3.3480 0.0000 -10711.2249 1404.0021 0.0000 0.0000 1759.4919 -7533.8387 299.3801 -9293.3306 -7446.6062 300.2681 -571.8053 -476.1458 30470.6342 -26.3503 20.0507
ENERGY: 1200000 5.1244 12.6504 3.8098 0.0000 -10684.9573 1431.8640 0.0000 0.0000 1749.2369 -7482.2718 297.6352 -9231.5087 -7439.9414 300.7085 36.2088 90.4777 30281.4950 -54.4338 2.7432
ENERGY: 1500000 2.0577 11.8654 4.4864 0.0000 -10611.5164 1327.7141 0.0000 0.0000 1797.2049 -7468.1880 305.7970 -9265.3928 -7448.2918 300.4418 -949.3618 -879.6827 30412.9277 -86.3508 -30.1830
TCL: Running FEP window   8: Lambda1 0.6499999999999997 Lambda2 0.5999999999999996 [dLambda -0.050000000000000044]
TCL: Setting parameter firsttimestep to 0
TCL: Setting parameter alchLambda to 0.6499999999999997
Info: NONBONDED TABLE R-SQUARED SPACING: 0.0625
Info: NONBONDED TABLE SIZE: 705 POINTS
TCL: Setting parameter alchLambda2 to 0.5999999999999996
Info: NONBONDED TABLE R-SQUARED SPACING: 0.0625
Info: NONBONDED TABLE SIZE: 705 POINTS
TCL: Running for 1500000 steps
ETITLE: TS BOND ANGLE DIHED IMPRP ELECT VDW BOUNDARY MISC KINETIC TOTAL TEMP POTENTIAL TOTALAVG TEMPAVG PRESSURE GPRESSURE VOLUME PRESSAVG GPRESSAVG
ENERGY: 0 2.0577 11.8654 4.4864 0.0000 -10610.7468 1327.9234 0.0000 0.0000 1796.3315 -7468.0824 305.6484 -9264.4139 -7468.0824 305.6484 -963.5662 -882.8371 30412.9277 -963.5662 -882.8371
ENERGY: 300000 2.7457 10.3943 3.1683 0.0000 -10624.6169 1395.2085 0.0000 0.0000 1724.2731 -7488.8270 293.3876 -9213.1001 -7480.8510 299.6591 -392.9214 -322.9964 30442.5841 -499.0569 -400.7125
ENERGY: 600000 2.6502 9.4871 4.1480 0.0000 -10724.6680 1403.6274 0.0000 0.0000 1799.6666 -7505.0886 306.2159 -9304.7552 -7493.4566 300.7269 -546.9011 -470.5520 30434.1546 -513.0364 -433.6233
ENERGY: 900000 0.6729 8.1865 3.2488 0.0000 -10619.9353 1404.7051 0.0000 0.0000 1723.4718 -7479.6503 293.2512 -9203.1220 -7495.4094 301.4600 -142.9286 -88.1964 30132.5782 -304.5310 -241.2993
ENERGY: 1200000 2.7263 11.2676 3.7802 0.0000 -10634.4197 1384.4927 0.0000 0.0000 1701.8812 -7530.2718 289.5775 -9232.1530 -7505.9520 299.3981 -564.9700 -506.1272 30683.4420 -295.1900 -230.3390
ENERGY: 1500000 4.5484 8.4666 3.6468 0.0000 -10546.8379 1371.7288 0.0000 0.0000 1794.8028 -7363.6445 305.3883 -9158.4473 -7492.5954 300.2875 -502.2757 -502.4364 30752.7393 -264.3434 -203.9968
TCL: Running FEP window   9: Lambda1 0.5999999999999996 Lambda2 0.5499999999999996 [dLambda -0.050000000000000044]
TCL: Setting parameter firsttimestep to 0
TCL: Setting parameter alchLambda to 0.5999999999999996
Info: NONBONDED TABLE R-SQUARED SPACING: 0.0625
Info: NONBONDED TABLE SIZE: 705 POINTS
TCL: Setting parameter alchLambda2 to 0.5499999999999996
Info: NONBONDED TABLE R-SQUARED SPACING: 0.0625
Info: NONBONDED TABLE SIZE: 705 POINTS
TCL: Running for 1500000 steps
ETITLE: TS BOND ANGLE DIHED IMPRP ELECT VDW BOUNDARY MISC KINETIC TOTAL TEMP POTENTIAL TOTALAVG TEMPAVG PRESSURE GPRESSURE VOLUME PRESSAVG GPRESSAVG
ENERGY: 0 4.5484 8.4666 3.6468 0.0000 -10545.6232 1371.6207 0.0000 0.0000 1793.8644 -7363.4763 305.2286 -9157.3408 -7363.4763 305.2286 -583.2877 -509.4776 30752.7393 -583.2877 -509.4776
ENERGY: 300000 2.9789 6.2778 4.3594 0.0000 -10708.6991 1470.0276 0.0000 0.0000 1765.3574 -7459.6980 300.3781 -9225.0554 -7421.7666 300.2748 43.7543 140.5638 30504.0575 -569.5475 -474.5175
ENERGY: 600000 1.7603 7.0939 3.0650 0.0000 -10711.0986 1398.3630 0.0000 0.0000 1783.0284 -7517.7881 303.3849 -9300.8165 -7453.8820 299.3838 -413.0856 -339.9273 30265.7926 -454.0700 -366.3920
ENERGY: 900000 2.4134 7.2669 3.4038 0.0000 -10663.4510 1427.3405 0.0000 0.0000 1736.6116 -7486.4148 295.4870 -9223.0264 -7440.7861 300.9681 -137.8704 -40.4185 30097.9829 -406.9041 -318.3791
ENERGY: 1200000 2.2447 8.8580 3.5489 0.0000 -10744.8162 1514.2718 0.0000 0.0000 1705.1588 -7510.7340 290.1352 -9215.8928 -7448.0718 300.2403 725.3706 850.1287 30139.3813 -371.1763 -280.7968
ENERGY: 1500000 1.2143 11.3224 3.1672 0.0000 -10629.4645 1418.7455 0.0000 0.0000 1746.5857 -7448.4295 297.1841 -9195.0152 -7458.3478 300.5777 136.0156 185.2685 30265.2888 -290.9778 -211.6146
TCL: Running FEP window  10: Lambda1 0.5499999999999996 Lambda2 0.4999999999999996 [dLambda -0.04999999999999999]
TCL: Setting parameter firsttimestep to 0
TCL: Setting parameter alchLambda to 0.5499999999999996
Info: NONBONDED TABLE R-SQUARED SPACING: 0.0625
Info: NONBONDED TABLE SIZE: 705 POINTS
TCL: Setting parameter alchLambda2 to 0.4999999999999996
Info: NONBONDED TABLE R-SQUARED SPACING: 0.0625
Info: NONBONDED TABLE SIZE: 705 POINTS
TCL: Running for 1500000 steps
ETITLE: TS BOND ANGLE DIHED IMPRP ELECT VDW BOUNDARY MISC KINETIC TOTAL TEMP POTENTIAL TOTALAVG TEMPAVG PRESSURE GPRESSURE VOLUME PRESSAVG GPRESSAVG
ENERGY: 0 1.2143 11.3224 3.1672 0.0000 -10629.4722 1418.9014 0.0000 0.0000 1745.7436 -7449.1233 297.0408 -9194.8669 -7449.1233 297.0408 111.7692 180.9779 30265.2888 111.7692 180.9779
ENERGY: 300000 1.4769 11.2320 3.4298 0.0000 -10571.6345 1452.0932 0.0000 0.0000 1742.8235 -7360.5792 296.5439 -9103.4027 -7425.8979 297.8883 452.4433 465.1294 30441.5454 -3.7045 54.4946
ENERGY: 600000 1.8501 11.1471 3.5018 0.0000 -10603.8413 1381.9448 0.0000 0.0000 1768.4264 -7436.9711 300.9003 -9205.3975 -7423.6173 299.0678 -497.0746 -433.7866 30588.0854 -101.2417 -45.3090
ENERGY: 900000 4.3127 7.3965 5.4792 0.0000 -10567.6013 1305.9617 0.0000 0.0000 1768.2400 -7476.2113 300.8686 -9244.4512 -7440.5536 299.3149 -1110.1145 -1050.8362 30577.3212 -230.4014 -172.6068
ENERGY: 1200000 2.1852 8.7360 3.2286 0.0000 -10813.5815 1482.6175 0.0000 0.0000 1749.7010 -7567.1132 297.7141 -9316.8142 -7465.9001 298.6883 197.1893 213.9752 30006.4553 -144.4600 -89.8938
ENERGY: 1500000 1.1629 5.9886 3.5543 0.0000 -10420.2371 1268.3778 0.0000 0.0000 1780.0387 -7361.1149 302.8762 -9141.1536 -7457.5023 299.2879 -1149.3222 -1077.4782 30556.3351 -247.7497 -187.7579
TCL: Running FEP window  11: Lambda1 0.4999999999999996 Lambda2 0.4499999999999996 [dLambda -0.04999999999999999]
TCL: Setting parameter firsttimestep to 0
TCL: Setting parameter alchLambda to 0.4999999999999996
Info: NONBONDED TABLE R-SQUARED SPACING: 0.0625
Info: NONBONDED TABLE SIZE: 705 POINTS
TCL: Setting parameter alchLambda2 to 0.4499999999999996
Info: NONBONDED TABLE R-SQUARED SPACING: 0.0625
Info: NONBONDED TABLE SIZE: 705 POINTS
TCL: Running for 1500000 steps
ETITLE: TS BOND ANGLE DIHED IMPRP ELECT VDW BOUNDARY MISC KINETIC TOTAL TEMP POTENTIAL TOTALAVG TEMPAVG PRESSURE GPRESSURE VOLUME PRESSAVG GPRESSAVG
ENERGY: 0 1.1629 5.9886 3.5543 0.0000 -10420.0110 1268.6463 0.0000 0.0000 1779.1684 -7361.4906 302.7281 -9140.6590 -7361.4906 302.7281 -1164.8079 -1082.1971 30556.3351 -1164.8079 -1082.1971
ENERGY: 300000 3.0464 6.2021 3.5505 0.0000 -10539.0186 1386.5601 0.0000 0.0000 1814.4657 -7325.1938 308.7340 -9139.6595 -7391.8606 305.4409 -569.9732 -517.9286 31290.2922 -608.1970 -562.6823
ENERGY: 600000 3.8100 6.9340 4.2814 0.0000 -10610.0186 1372.5173 0.0000 0.0000 1799.5033 -7422.9727 306.1881 -9222.4759 -7415.2571 304.5346 -396.8522 -313.8505 30079.2901 -523.9655 -475.9708
ENERGY: 900000 3.0720 13.8844 4.0570 0.0000 -10773.1197 1484.9187 0.0000 0.0000 1761.0521 -7506.1355 299.6456 -9267.1876 -7439.4342 301.5419 82.8485 130.5595 30318.5757 -412.1105 -366.7362
ENERGY: 1200000 1.0772 8.1104 3.5938 0.0000 -10639.8489 1409.9602 0.0000 0.0000 1785.9371 -7431.1702 303.8798 -9217.1073 -7447.2610 300.8828 -463.1484 -316.1764 30780.9350 -328.6284 -269.5210
ENERGY: 1500000 3.0214 8.6510 3.7483 0.0000 -10630.1853 1485.4065 0.0000 0.0000 1780.5043 -7348.8537 302.9554 -9129.3580 -7450.2645 300.5010 555.5934 631.6179 30320.3100 -185.8171 -126.4029
TCL: Running FEP window  12: Lambda1 0.4499999999999996 Lambda2 0.39999999999999963 [dLambda -0.04999999999999999]
TCL: Setting parameter firsttimestep to 0
TCL: Setting parameter alchLambda to 0.4499999999999996
Info: NONBONDED TABLE R-SQUARED SPACING: 0.0625
Info: NONBONDED TABLE SIZE: 705 POINTS
TCL: Setting parameter alchLambda2 to 0.39999999999999963
Info: NONBONDED TABLE R-SQUARED SPACING: 0.0625
Info: NONBONDED TABLE SIZE: 705 POINTS
TCL: Running for 1500000 steps
ETITLE: TS BOND ANGLE DIHED IMPRP ELECT VDW BOUNDARY MISC KINETIC TOTAL TEMP POTENTIAL TOTALAVG TEMPAVG PRESSURE GPRESSURE VOLUME PRESSAVG GPRESSAVG
ENERGY: 0 3.0214 8.6510 3.7483 0.0000 -10630.1853 1485.9966 0.0000 0.0000 1779.6470 -7349.1210 302.8095 -9128.7680 -7349.1210 302.8095 543.6753 631.9490 30320.3100 543.6753 631.9490
ENERGY: 300000 1.5954 12.4582 4.5203 0.0000 -10682.7922 1424.8330 0.0000 0.0000 1819.8185 -7419.5669 309.6447 -9239.3853 -7448.7525 300.5311 -202.2828 -152.5483 30522.6343 344.9054 424.2423
ENERGY: 600000 4.0790 6.5901 3.2729 0.0000 -10570.7756 1380.5794 0.0000 0.0000 1772.9152 -7403.3389 301.6641 -9176.2541 -7461.5274 300.0101 -563.4284 -491.6769 30637.7423 124.8587 197.8822
ENERGY: 900000 1.7006 7.6242 2.7655 0.0000 -10522.6334 1356.2978 0.0000 0.0000 1755.3468 -7398.8986 298.6748 -9154.2453 -7429.0180 301.4432 -29.3811 16.0507 29691.4054 -41.5388 36.7154
ENERGY: 1200000 2.7805 7.8684 2.9635 0.0000 -10647.7163 1478.2705 0.0000 0.0000 1774.0926 -7381.7410 301.8644 -9155.8336 -7416.5601 301.1215 371.0871 371.6107 30489.3143 -133.6424 -61.9895
ENERGY: 1500000 0.7002 13.0001 3.6607 0.0000 -10537.7015 1360.3247 0.0000 0.0000 1827.0332 -7332.9826 310.8723 -9160.0158 -7414.2492 301.6549 -505.2266 -399.4999 30669.1804 -174.9016 -103.5958
TCL: Running FEP window  13: Lambda1 0.39999999999999963 Lambda2 0.34999999999999964 [dLambda -0.04999999999999999]
TCL: Setting parameter firsttimestep to 0
TCL: Setting parameter alchLambda to 0.39999999999999963
Info: NONBONDED TABLE R-SQUARED SPACING: 0.0625
Info: NONBONDED TABLE SIZE: 705 POINTS
TCL: Setting parameter alchLambda2 to 0.34999999999999964
Info: NONBONDED TABLE R-SQUARED SPACING: 0.0625
Info: NONBONDED TABLE SIZE: 705 POINTS
TCL: Running for 1500000 steps
ETITLE: TS BOND ANGLE DIHED IMPRP ELECT VDW BOUNDARY MISC KINETIC TOTAL TEMP POTENTIAL TOTALAVG TEMPAVG PRESSURE GPRESSURE VOLUME PRESSAVG GPRESSAVG
ENERGY: 0 0.7002 13.0001 3.6607 0.0000 -10537.6999 1360.4237 0.0000 0.0000 1826.1513 -7333.7638 310.7223 -9159.9151 -7333.7638 310.7223 -506.0457 -407.1595 30669.1804 -506.0457 -407.1595
ENERGY: 300000 3.1868 11.4824 3.4392 0.0000 -10652.0244 1390.0052 0.0000 0.0000 1770.1625 -7473.7484 301.1957 -9243.9109 -7410.1204 305.0371 -33.7420 -28.8293 29851.6921 -41.6811 28.3555
ENERGY: 600000 1.6722 10.2428 3.2997 0.0000 -10620.7916 1382.0386 0.0000 0.0000 1807.7832 -7415.7550 307.5969 -9223.5382 -7429.6354 304.2129 -293.5168 -193.5929 30361.5745 -49.1222 8.5620
ENERGY: 900000 1.9274 9.1713 3.8259 0.0000 -10691.4674 1438.9354 0.0000 0.0000 1799.8712 -7437.7361 306.2507 -9237.6073 -7441.7861 302.9701 -289.9096 -237.0115 30710.5119 -78.0381 -27.4125
ENERGY: 1200000 3.7993 10.7616 2.7596 0.0000 -10629.3128 1443.6525 0.0000 0.0000 1843.8027 -7324.5371 313.7257 -9168.3398 -7441.0590 302.9305 409.4787 513.2640 30060.1720 -8.3186 43.5909
ENERGY: 1500000 3.4958 6.2430 2.8470 0.0000 -10826.6119 1510.4754 0.0000 0.0000 1787.0875 -7516.4631 304.0755 -9303.5507 -7438.2340 303.5338 243.4688 337.7232 30027.0205 -75.5354 -17.4865
TCL: Running FEP window  14: Lambda1 0.34999999999999964 Lambda2 0.29999999999999966 [dLambda -0.04999999999999999]
TCL: Setting parameter firsttimestep to 0
TCL: Setting parameter alchLambda to 0.34999999999999964
Info: NONBONDED TABLE R-SQUARED SPACING: 0.0625
Info: NONBONDED TABLE SIZE: 705 POINTS
TCL: Setting parameter alchLambda2 to 0.29999999999999966
Info: NONBONDED TABLE R-SQUARED SPACING: 0.0625
Info: NONBONDED TABLE SIZE: 705 POINTS
TCL: Running for 1500000 steps
ETITLE: TS BOND ANGLE DIHED IMPRP ELECT VDW BOUNDARY MISC KINETIC TOTAL TEMP POTENTIAL TOTALAVG TEMPAVG PRESSURE GPRESSURE VOLUME PRESSAVG GPRESSAVG
ENERGY: 0 3.4958 6.2430 2.8470 0.0000 -10826.6118 1510.5187 0.0000 0.0000 1786.2678 -7517.2395 303.9360 -9303.5073 -7517.2395 303.9360 251.4426 332.7543 30027.0205 251.4426 332.7543
ENERGY: 300000 1.3004 13.9239 2.8963 0.0000 -10654.6430 1401.5750 0.0000 0.0000 1773.8307 -7461.1167 301.8198 -9234.9474 -7474.8005 301.1216 -345.6907 -221.3578 30283.5571 96.6753 180.4795
ENERGY: 600000 0.9597 8.0069 2.9007 0.0000 -10642.7837 1404.4032 0.0000 0.0000 1746.5388 -7479.9744 297.1761 -9226.5132 -7469.6210 300.5616 -428.1755 -357.0745 30604.5148 -27.2575 35.2339
ENERGY: 900000 2.3091 10.6275 3.7170 0.0000 -10733.0398 1419.2746 0.0000 0.0000 1762.7062 -7534.4054 299.9270 -9297.1116 -7467.3820 300.8685 -485.6278 -402.8112 30412.7676 -71.6594 -12.2705
ENERGY: 1200000 2.1319 8.8441 2.5919 0.0000 -10657.8534 1455.8665 0.0000 0.0000 1726.0117 -7462.4073 293.6834 -9188.4190 -7469.3918 299.5875 342.4935 427.8515 30069.0472 -96.7183 -30.8541
ENERGY: 1500000 2.4276 5.7622 2.9677 0.0000 -10640.6284 1431.5101 0.0000 0.0000 1797.1307 -7400.8300 305.7844 -9197.9607 -7469.1412 299.5905 267.8359 218.7039 30082.9063 -107.8222 -50.3289
TCL: Running FEP window  15: Lambda1 0.29999999999999966 Lambda2 0.24999999999999967 [dLambda -0.04999999999999999]
TCL: Setting parameter firsttimestep to 0
TCL: Setting parameter alchLambda to 0.29999999999999966
Info: NONBONDED TABLE R-SQUARED SPACING: 0.0625
Info: NONBONDED TABLE SIZE: 705 POINTS
TCL: Setting parameter alchLambda2 to 0.24999999999999967
Info: NONBONDED TABLE R-SQUARED SPACING: 0.0625
Info: NONBONDED TABLE SIZE: 705 POINTS
TCL: Running for 1500000 steps
ETITLE: TS BOND ANGLE DIHED IMPRP ELECT VDW BOUNDARY MISC KINETIC TOTAL TEMP POTENTIAL TOTALAVG TEMPAVG PRESSURE GPRESSURE VOLUME PRESSAVG GPRESSAVG
ENERGY: 0 2.4276 5.7622 2.9677 0.0000 -10640.6285 1432.1398 0.0000 0.0000 1796.2508 -7401.0804 305.6347 -9197.3312 -7401.0804 305.6347 131.1514 216.4190 30082.9063 131.1514 216.4190
ENERGY: 300000 2.3841 14.0866 3.2630 0.0000 -10697.1479 1418.8852 0.0000 0.0000 1781.5125 -7477.0165 303.1269 -9258.5290 -7460.2465 305.0591 -369.6858 -326.9639 30268.0064 2.0568 55.3816
ENERGY: 600000 2.1107 9.2981 4.5425 0.0000 -10666.4384 1429.6441 0.0000 0.0000 1756.9724 -7463.8706 298.9514 -9220.8430 -7483.9891 301.8638 -242.6059 -217.1152 30682.2734 10.7535 61.4516
ENERGY: 900000 2.1975 12.0048 3.3100 0.0000 -10634.4427 1446.4886 0.0000 0.0000 1768.7425 -7401.6992 300.9541 -9170.4417 -7456.9721 303.0924 168.9589 243.4788 30275.8627 58.1591 99.1068
ENERGY: 1200000 1.9663 11.6768 4.0649 0.0000 -10720.9954 1403.5678 0.0000 0.0000 1770.6381 -7529.0815 301.2766 -9299.7196 -7461.8527 302.1332 -383.7998 -338.6804 30176.4602 -7.9673 31.0887
ENERGY: 1500000 1.6218 12.5650 3.6657 0.0000 -10609.7748 1329.4690 0.0000 0.0000 1746.1332 -7516.3201 297.1071 -9262.4532 -7466.3824 300.7360 -738.3475 -801.7621 30372.8008 -43.9482 -10.9781
TCL: Running FEP window  16: Lambda1 0.24999999999999967 Lambda2 0.19999999999999968 [dLambda -0.04999999999999999]
TCL: Setting parameter firsttimestep to 0
TCL: Setting parameter alchLambda to 0.24999999999999967
Info: NONBONDED TABLE R-SQUARED SPACING: 0.0625
Info: NONBONDED TABLE SIZE: 705 POINTS
TCL: Setting parameter alchLambda2 to 0.19999999999999968
Info: NONBONDED TABLE R-SQUARED SPACING: 0.0625
Info: NONBONDED TABLE SIZE: 705 POINTS
TCL: Running for 1500000 steps
ETITLE: TS BOND ANGLE DIHED IMPRP ELECT VDW BOUNDARY MISC KINETIC TOTAL TEMP POTENTIAL TOTALAVG TEMPAVG PRESSURE GPRESSURE VOLUME PRESSAVG GPRESSAVG
ENERGY: 0 1.6218 12.5650 3.6657 0.0000 -10609.7748 1329.9188 0.0000 0.0000 1745.2221 -7516.7814 296.9520 -9262.0034 -7516.7814 296.9520 -877.2771 -800.6743 30372.8008 -877.2771 -800.6743
ENERGY: 300000 3.1982 8.5908 2.8603 0.0000 -10728.2706 1463.1545 0.0000 0.0000 1808.6329 -7441.8339 307.7415 -9250.4668 -7481.6351 299.3936 41.5311 113.8686 30275.1812 -473.2889 -398.1120
ENERGY: 600000 1.1252 9.1553 2.9197 0.0000 -10611.4813 1418.6856 0.0000 0.0000 1754.1148 -7425.4807 298.4652 -9179.5955 -7465.7350 299.0444 -254.8430 -196.5517 30535.2504 -272.7103 -218.6484
ENERGY: 900000 1.7005 10.0046 4.2366 0.0000 -10702.5879 1422.9052 0.0000 0.0000 1793.7034 -7470.0375 305.2012 -9263.7410 -7455.3119 301.3455 -68.0972 -56.7391 30041.0612 -119.4122 -65.2638
ENERGY: 1200000 1.9830 7.5088 3.7289 0.0000 -10711.9897 1509.2977 0.0000 0.0000 1755.8012 -7433.6700 298.7521 -9189.4712 -7446.1118 301.0184 437.9229 463.8735 30628.3643 -115.4386 -64.4709
ENERGY: 1500000 2.4032 12.9953 4.0583 0.0000 -10786.6786 1508.7993 0.0000 0.0000 1760.7481 -7497.6745 299.5938 -9258.4226 -7436.3197 301.3865 331.6027 427.7088 30283.7570 -45.3596 9.7681
TCL: Running FEP window  17: Lambda1 0.19999999999999968 Lambda2 0.1499999999999997 [dLambda -0.04999999999999999]
TCL: Setting parameter firsttimestep to 0
TCL: Setting parameter alchLambda to 0.19999999999999968
Info: NONBONDED TABLE R-SQUARED SPACING: 0.0625
Info: NONBONDED TABLE SIZE: 705 POINTS
TCL: Setting parameter alchLambda2 to 0.1499999999999997
Info: NONBONDED TABLE R-SQUARED SPACING: 0.0625
Info: NONBONDED TABLE SIZE: 705 POINTS
TCL: Running for 1500000 steps
ETITLE: TS BOND ANGLE DIHED IMPRP ELECT VDW BOUNDARY MISC KINETIC TOTAL TEMP POTENTIAL TOTALAVG TEMPAVG PRESSURE GPRESSURE VOLUME PRESSAVG GPRESSAVG
ENERGY: 0 2.4032 12.9953 4.0583 0.0000 -10786.6770 1508.8498 0.0000 0.0000 1759.8648 -7498.5056 299.4435 -9258.3704 -7498.5056 299.4435 336.9722 424.2426 30283.7570 336.9722 424.2426
ENERGY: 300000 3.1102 8.3619 4.8518 0.0000 -10640.3153 1425.7293 0.0000 0.0000 1776.5685 -7421.6934 302.2857 -9198.2620 -7441.4779 302.1501 -187.7252 -146.1314 30397.5189 145.6673 223.7324
ENERGY: 600000 2.2095 13.5674 6.7384 0.0000 -10531.8853 1375.7814 0.0000 0.0000 1710.4410 -7423.1476 291.0340 -9133.5885 -7442.8097 300.4488 -509.0477 -438.3166 30744.2421 -153.8232 -83.2234
ENERGY: 900000 4.1277 13.3914 7.5586 0.0000 -10631.2868 1411.0333 0.0000 0.0000 1719.7690 -7475.4067 292.6212 -9195.1758 -7463.3298 298.1613 -139.6878 -131.1971 30320.2814 -222.7604 -156.6728
ENERGY: 1200000 1.3764 7.0172 5.2252 0.0000 -10658.6376 1439.2383 0.0000 0.0000 1860.6424 -7345.1381 316.5910 -9205.7805 -7441.0091 299.9719 116.5747 165.2956 30354.0647 -158.5783 -95.9418
ENERGY: 1500000 2.4709 7.8711 5.6724 0.0000 -10769.2872 1496.9479 0.0000 0.0000 1789.6812 -7466.6437 304.5168 -9256.3249 -7442.5915 300.6848 357.3460 496.1041 30100.6760 -147.5882 -79.5131
TCL: Running FEP window  18: Lambda1 0.1499999999999997 Lambda2 0.09999999999999969 [dLambda -0.05 ]
TCL: Setting parameter firsttimestep to 0
TCL: Setting parameter alchLambda to 0.1499999999999997
Info: NONBONDED TABLE R-SQUARED SPACING: 0.0625
Info: NONBONDED TABLE SIZE: 705 POINTS
TCL: Setting parameter alchLambda2 to 0.09999999999999969
Info: NONBONDED TABLE R-SQUARED SPACING: 0.0625
Info: NONBONDED TABLE SIZE: 705 POINTS
TCL: Running for 1500000 steps
ETITLE: TS BOND ANGLE DIHED IMPRP ELECT VDW BOUNDARY MISC KINETIC TOTAL TEMP POTENTIAL TOTALAVG TEMPAVG PRESSURE GPRESSURE VOLUME PRESSAVG GPRESSAVG
ENERGY: 0 2.4709 7.8711 5.6724 0.0000 -10769.2869 1497.3714 0.0000 0.0000 1788.8097 -7467.0915 304.3686 -9255.9013 -7467.0915 304.3686 412.0957 496.9457 30100.6760 412.0957 496.9457
ENERGY: 300000 0.8840 8.3694 8.0551 0.0000 -10713.8723 1457.7726 0.0000 0.0000 1777.1007 -7461.6905 302.3763 -9238.7912 -7458.9777 300.8203 182.5867 234.7071 29978.9866 -63.3460 -37.6479
ENERGY: 600000 1.4439 10.2926 3.6038 0.0000 -10723.9629 1425.4983 0.0000 0.0000 1705.6161 -7577.5082 290.2130 -9283.1244 -7488.0079 299.0721 194.2746 203.1815 29289.3047 126.5979 155.5718
ENERGY: 900000 1.5235 10.9996 3.4742 0.0000 -10606.5848 1398.7702 0.0000 0.0000 1761.7251 -7430.0922 299.7601 -9191.8173 -7476.9299 299.7837 37.8646 61.6971 30035.3807 80.0996 106.1788
ENERGY: 1200000 1.1532 11.2022 3.8896 0.0000 -10656.4608 1394.6023 0.0000 0.0000 1746.2234 -7499.3900 297.1224 -9245.6134 -7476.1590 300.2015 -439.1502 -376.5502 30344.6832 11.2216 47.9847
ENERGY: 1500000 2.2671 9.6869 4.7284 0.0000 -10831.1705 1538.2126 0.0000 0.0000 1802.8616 -7473.4139 306.7595 -9276.2754 -7474.5242 301.2156 812.8693 898.2682 29814.2975 89.9797 135.4090
TCL: Running FEP window  19: Lambda1 0.09999999999999969 Lambda2 0.049999999999999684 [dLambda -0.05 ]
TCL: Setting parameter firsttimestep to 0
TCL: Setting parameter alchLambda to 0.09999999999999969
Info: NONBONDED TABLE R-SQUARED SPACING: 0.0625
Info: NONBONDED TABLE SIZE: 705 POINTS
TCL: Setting parameter alchLambda2 to 0.049999999999999684
Info: NONBONDED TABLE R-SQUARED SPACING: 0.0625
Info: NONBONDED TABLE SIZE: 705 POINTS
TCL: Running for 1500000 steps
ETITLE: TS BOND ANGLE DIHED IMPRP ELECT VDW BOUNDARY MISC KINETIC TOTAL TEMP POTENTIAL TOTALAVG TEMPAVG PRESSURE GPRESSURE VOLUME PRESSAVG GPRESSAVG
ENERGY: 0 2.2671 9.6869 4.7283 0.0000 -10831.1699 1538.0893 0.0000 0.0000 1801.9804 -7474.4177 306.6096 -9276.3981 -7474.4177 306.6096 803.0805 896.7379 29814.2975 803.0805 896.7379
ENERGY: 300000 0.8927 12.7441 3.5889 0.0000 -10570.4263 1418.1629 0.0000 0.0000 1769.9168 -7365.1211 301.1539 -9135.0379 -7440.4778 301.7159 123.1734 207.6049 30454.6588 226.5074 311.8464
ENERGY: 600000 5.7667 12.9172 3.4008 0.0000 -10611.2801 1429.1000 0.0000 0.0000 1742.9128 -7417.1827 296.5591 -9160.0954 -7456.0093 298.4761 -118.8140 -43.8822 30233.5661 139.5309 218.5647
ENERGY: 900000 2.3778 10.7513 3.1249 0.0000 -10649.1404 1404.2830 0.0000 0.0000 1879.1129 -7349.4905 319.7338 -9228.6034 -7438.3671 301.5180 -414.5960 -396.5657 30625.5983 -27.2080 52.2325
ENERGY: 1200000 1.5095 6.5769 4.7069 0.0000 -10678.4526 1412.1189 0.0000 0.0000 1788.0578 -7465.4826 304.2406 -9253.5404 -7442.0400 300.5898 -171.9027 -139.9376 30208.6889 43.2242 122.4207
ENERGY: 1500000 1.5985 11.0759 3.1847 0.0000 -10703.1326 1439.0209 0.0000 0.0000 1806.0095 -7442.2432 307.2951 -9248.2527 -7442.4209 300.6303 19.3994 73.0444 30213.5264 -37.0325 39.3993
TCL: Running FEP window  20: Lambda1 0.049999999999999684 Lambda2 0.0    [dLambda -0.049999999999999684]
TCL: Setting parameter firsttimestep to 0
TCL: Setting parameter alchLambda to 0.049999999999999684
Info: NONBONDED TABLE R-SQUARED SPACING: 0.0625
Info: NONBONDED TABLE SIZE: 705 POINTS
TCL: Setting parameter alchLambda2 to 0.0
Info: NONBONDED TABLE R-SQUARED SPACING: 0.0625
Info: NONBONDED TABLE SIZE: 705 POINTS
TCL: Running for 1500000 steps
ETITLE: TS BOND ANGLE DIHED IMPRP ELECT VDW BOUNDARY MISC KINETIC TOTAL TEMP POTENTIAL TOTALAVG TEMPAVG PRESSURE GPRESSURE VOLUME PRESSAVG GPRESSAVG
ENERGY: 0 1.5985 11.0759 3.1847 0.0000 -10703.1333 1439.3772 0.0000 0.0000 1805.1210 -7442.7761 307.1439 -9247.8971 -7442.7761 307.1439 -21.3758 71.9755 30213.5264 -21.3758 71.9755
ENERGY: 300000 2.7405 9.2057 4.1126 0.0000 -10650.2139 1444.7420 0.0000 0.0000 1802.9247 -7386.4884 306.7702 -9189.4131 -7449.2803 301.3470 230.2477 284.9339 30206.3333 -26.7254 42.7647
ENERGY: 600000 3.1298 10.4808 3.4820 0.0000 -10826.8211 1585.7557 0.0000 0.0000 1748.4511 -7475.5218 297.5015 -9223.9729 -7461.3529 300.3209 1208.5903 1251.9717 30104.8752 113.4563 178.5352
ENERGY: 900000 1.3687 9.2985 3.1653 0.0000 -10681.1573 1431.7117 0.0000 0.0000 1767.7056 -7467.9075 300.7777 -9235.6131 -7460.0069 300.0548 -367.2565 -208.1885 30581.3346 92.0715 165.9309
ENERGY: 1200000 2.1141 6.8192 4.3019 0.0000 -10735.0008 1523.6006 0.0000 0.0000 1798.6982 -7399.4668 306.0511 -9198.1650 -7457.6738 300.6457 616.3718 674.7263 30425.4798 102.1625 178.6604
ENERGY: 1500000 1.8355 10.6382 3.2433 0.0000 -10717.7952 1501.2558 0.0000 0.0000 1799.8903 -7400.9322 306.2539 -9200.8225 -7450.4193 301.3580 478.8175 583.3890 30370.4815 59.3504 137.9597
TCL: Exiting due to exit command.
