Info: SIMULATION PARAMETERS:
Info: TIMESTEP               2
Info: NUMBER OF STEPS        0
Info: STEPS PER CYCLE        10
Info: PERIODIC CELL BASIS 1  32.1006 0 0
Info: PERIODIC CELL BASIS 2  0 30.1709 0
Info: PERIODIC CELL BASIS 3  0 0 32.028
Info: PERIODIC CELL CENTER   0 0 0
Info: WRAPPING WATERS AROUND PERIODIC BOUNDARIES ON OUTPUT.
Info: WRAPPING ALL CLUSTERS AROUND PERIODIC BOUNDARIES ON OUTPUT.
Info: FIRST LDB TIMESTEP     50
Info: LAST LDB TIMESTEP     -1
Info: HOM BACKGROUND SCALING 1
Info: PME BACKGROUND SCALING 1
Info: MIN ATOMS PER PATCH    40
Info: EMPTY PATCH LOAD       40 ATOMS
Info: VELOCITY FILE          mobley_1855337_equil.vel
Info: CENTER OF MASS MOVING INITIALLY? NO
Info: DIELECTRIC             1
Info: EXCLUDE                SCALED ONE-FOUR
Info: 1-4 ELECTROSTATICS SCALED BY 0.833333
Info: MODIFIED 1-4 VDW PARAMETERS WILL BE USED
Info: DCD FILENAME           mobley_1855337_prod.dcd
Info: DCD FREQUENCY          100000
Info: DCD FIRST STEP         100000
Info: DCD FILE WILL CONTAIN UNIT CELL DATA
Info: XST FILENAME           mobley_1855337_prod.xst
Info: XST FREQUENCY          100000
Info: NO VELOCITY DCD OUTPUT
Info: NO FORCE DCD OUTPUT
Info: OUTPUT FILENAME        mobley_1855337_prod
Info: BINARY OUTPUT FILES WILL BE USED
Info: RESTART FILENAME       mobley_1855337_prod.restart
Info: RESTART FREQUENCY      100000
Info: BINARY RESTART FILES WILL BE USED
Info: CUTOFF                 9
Info: PAIRLIST DISTANCE      11
Info: PAIRLIST SHRINK RATE   0.01
Info: PAIRLIST GROW RATE     0.01
Info: PAIRLIST TRIGGER       0.3
Info: PAIRLISTS PER CYCLE    2
Info: PAIRLISTS ENABLED
Info: MARGIN                 2
Info: HYDROGEN GROUP CUTOFF  2.5
Info: PATCH DIMENSION        15.5
Info: ENERGY OUTPUT STEPS    100000
Info: ENERGY EVALUATION STEPS    100000
Info: OUTPUT ENERGY PRECISION 4
Info: CROSSTERM ENERGY INCLUDED IN DIHEDRAL
Info: TIMING OUTPUT STEPS    1000000
Info: PRESSURE OUTPUT STEPS  100000
Info: ALCHEMICAL FEP ON
Info: FEP CURRENT LAMBDA VALUE     1
Info: FEP COMPARISON LAMBDA VALUE  0.95
Info: FEP INTRA-ALCHEMICAL NON-BONDED INTERACTIONS WILL BE RETAINED
Info: FEP INTRA-ALCHEMICAL BONDED INTERACTIONS WILL BE RETAINED
Info: FEP VDW SHIFTING COEFFICIENT 5
Info: FEP ELEC. ACTIVE FOR ANNIHILATED PARTICLES BETWEEN LAMBDA = 0 AND LAMBDA = 0.5
Info: FEP ELEC. ACTIVE FOR EXNIHILATED PARTICLES BETWEEN LAMBDA = 0.5 AND LAMBDA = 1
Info: FEP VDW ACTIVE FOR ANNIHILATED PARTICLES BETWEEN LAMBDA = 0 AND LAMBDA = 1
Info: FEP VDW ACTIVE FOR EXNIHILATED PARTICLES BETWEEN LAMBDA = 0 AND LAMBDA = 1
Info: FEP BOND ACTIVE FOR ANNIHILATED PARTICLES BETWEEN LAMBDA = 1 AND LAMBDA = 1
Info: FEP BOND ACTIVE FOR EXNIHILATED PARTICLES BETWEEN LAMBDA = 0 AND LAMBDA = 0
Info: LANGEVIN DYNAMICS ACTIVE
Info: LANGEVIN TEMPERATURE   300
Info: LANGEVIN USING BBK INTEGRATOR
Info: LANGEVIN DAMPING COEFFICIENT IS 1 INVERSE PS
Info: LANGEVIN DYNAMICS APPLIED TO HYDROGENS
Info: LANGEVIN PISTON PRESSURE CONTROL ACTIVE
Info:        TARGET PRESSURE IS 1.01325 BAR
Info:     OSCILLATION PERIOD IS 50 FS
Info:             DECAY TIME IS 25 FS
Info:     PISTON TEMPERATURE IS 300 K
Info:       PRESSURE CONTROL IS GROUP-BASED
Info:    INITIAL STRAIN RATE IS -0.000169821 -0.000169821 -0.000169821
Info:       CELL FLUCTUATION IS ISOTROPIC
Info: PARTICLE MESH EWALD (PME) ACTIVE
Info: PME TOLERANCE               1e-06
Info: PME EWALD COEFFICIENT       0.348832
Info: PME INTERPOLATION ORDER     4
Info: PME GRID DIMENSIONS         36 32 36
Info: PME MAXIMUM GRID SPACING    1
Info: PME CALCULATION WILL BE PERFORMED ON GPU
Info: FULL ELECTROSTATIC EVALUATION FREQUENCY      2
Info: USING VERLET I (r-RESPA) MTS SCHEME.
Info: C1 SPLITTING OF LONG RANGE ELECTROSTATICS
Info: PLACING ATOMS IN PATCHES BY HYDROGEN GROUPS
Info: RIGID BONDS TO HYDROGEN : ALL
Info:         ERROR TOLERANCE : 1e-08
Info:          MAX ITERATIONS : 100
Info: RIGID WATER USING SETTLE ALGORITHM
Info: RANDOM NUMBER SEED     1743534587
Info: USE HYDROGEN BONDS?    NO
Info: Using AMBER format force field!
Info: AMBER PARM FILE        mobley_1855337.prmtop
Info: COORDINATE PDB         mobley_1855337.pdb
Info: Exclusions will be read from PARM file!
Info: SCNB (VDW SCALING)     2
Info: USING ARITHMETIC MEAN TO COMBINE L-J SIGMA PARAMETERS
Info: BINARY COORDINATES     mobley_1855337_equil.coor
Info: SUMMARY OF PARAMETERS:
Info: 5 BONDS
Info: 3 ANGLES
Info:   3 HARMONIC
Info:   0 COSINE-BASED
Info: 2 DIHEDRAL
Info: 0 IMPROPER
Info: 0 CROSSTERM
Info: 0 VDW
Info: 15 VDW_PAIRS
Info: 0 NBTHOLE_PAIRS
Info: To read alchdata from file: mobley_1855337.pdb
Info: To read alchflag data from column: 5
Info: STRUCTURE SUMMARY:
Info: 2982 ATOMS
Info: 2982 BONDS
Info: 18 ANGLES
Info: 30 DIHEDRALS
Info: 0 IMPROPERS
Info: 0 CROSSTERMS
Info: 3021 EXCLUSIONS
Info: 2972 RIGID BONDS
Info: ALCH: 0 ATOMS TO DISAPPEAR IN FINAL STATE
Info: ALCH: 12 ATOMS TO APPEAR IN FINAL STATE
Info: 5974 DEGREES OF FREEDOM
Info: 1000 HYDROGEN GROUPS
Info: 3 ATOMS IN LARGEST HYDROGEN GROUP
Info: 1000 MIGRATION GROUPS
Info: 3 ATOMS IN LARGEST MIGRATION GROUP
Info: TOTAL MASS = 18051.7 amu
Info: TOTAL CHARGE = 0.000199986 e
Info: MASS DENSITY = 0.966378 g/cm^3
Info: ATOM DENSITY = 0.096134 atoms/A^3
Info: ADDED 0 IMPLICIT EXCLUSIONS
Info: NONBONDED TABLE R-SQUARED SPACING: 0.0625
Info: NONBONDED TABLE SIZE: 705 POINTS
Info: REMOVING COM VELOCITY 0.0698244 -0.0128066 0.0366273
Info: Use 3D box decompostion in PME FFT.
Info: Updated CUDA force table with 4096 elements.
Info: Updated CUDA LJ table with 5 x 5 elements.
Info: Found 15 unique exclusion lists needing 28 bytes
TCL: Running for 1500000 steps
ETITLE: TS BOND ANGLE DIHED IMPRP ELECT VDW BOUNDARY MISC KINETIC TOTAL TEMP POTENTIAL TOTALAVG TEMPAVG PRESSURE GPRESSURE VOLUME PRESSAVG GPRESSAVG
ENERGY: 0 2.7237 2.8655 1.7940 0.0000 -10739.3716 1441.5744 0.0000 0.0000 1813.1203 -7477.2936 305.4582 -9290.4139 -7477.2936 305.4582 -165.1958 -83.6011 31019.2173 -165.1958 -83.6011
ENERGY: 300000 2.6093 2.8888 3.9974 0.0000 -10873.0069 1504.3116 0.0000 0.0000 1746.0749 -7613.1249 294.1630 -9359.1998 -7583.5299 302.2052 162.7989 241.7095 30858.9522 217.6594 315.9730
ENERGY: 600000 3.6976 4.4647 2.6103 0.0000 -10906.9843 1467.4166 0.0000 0.0000 1749.5061 -7679.2890 294.7411 -9428.7951 -7579.7178 300.3949 -283.3023 -206.5926 30958.9169 77.2928 169.0508
ENERGY: 900000 5.0540 3.3418 3.5795 0.0000 -10805.1411 1434.3846 0.0000 0.0000 1797.3043 -7561.4769 302.7937 -9358.7812 -7576.3523 301.1890 -196.9824 -102.9788 30711.6178 56.6867 140.7816
ENERGY: 1200000 4.1267 4.0863 7.5332 0.0000 -10837.5979 1506.9899 0.0000 0.0000 1800.2119 -7514.6500 303.2835 -9314.8619 -7555.9700 301.8605 757.8301 824.9351 30600.5017 75.3751 153.6303
ENERGY: 1500000 9.9786 4.4290 3.0997 0.0000 -10703.8982 1376.1496 0.0000 0.0000 1786.5481 -7523.6932 300.9816 -9310.2413 -7551.7152 301.0336 -820.4287 -660.6842 31090.8103 -38.4221 46.1459
TCL: Running FEP window   2: Lambda1 0.95   Lambda2 0.8999999999999999 [dLambda -0.050000000000000044]
TCL: Setting parameter firsttimestep to 0
TCL: Setting parameter alchLambda to 0.95
Info: NONBONDED TABLE R-SQUARED SPACING: 0.0625
Info: NONBONDED TABLE SIZE: 705 POINTS
TCL: Setting parameter alchLambda2 to 0.8999999999999999
Info: NONBONDED TABLE R-SQUARED SPACING: 0.0625
Info: NONBONDED TABLE SIZE: 705 POINTS
TCL: Running for 1500000 steps
ETITLE: TS BOND ANGLE DIHED IMPRP ELECT VDW BOUNDARY MISC KINETIC TOTAL TEMP POTENTIAL TOTALAVG TEMPAVG PRESSURE GPRESSURE VOLUME PRESSAVG GPRESSAVG
ENERGY: 0 9.9786 4.4290 3.0997 0.0000 -10703.9044 1376.1056 0.0000 0.0000 1785.6844 -7524.6071 300.8360 -9310.2915 -7524.6071 300.8360 -763.5852 -675.0173 31090.8103 -763.5852 -675.0173
ENERGY: 300000 2.4084 1.3084 0.9335 0.0000 -10757.0274 1454.8019 0.0000 0.0000 1757.7741 -7539.8011 296.1340 -9297.5751 -7558.3476 300.0391 294.0128 297.3794 30755.3604 112.9892 169.6822
ENERGY: 600000 4.3289 0.8270 3.5672 0.0000 -10966.2183 1538.0679 0.0000 0.0000 1827.7527 -7591.6746 307.9233 -9419.4273 -7580.2449 302.0375 590.2672 668.1312 30515.0694 190.3054 247.5191
ENERGY: 900000 4.5696 1.9591 2.3747 0.0000 -10610.6592 1336.5856 0.0000 0.0000 1806.9504 -7458.2198 304.4187 -9265.1702 -7541.5751 303.5016 -567.8096 -493.2221 31078.6131 88.9945 154.5212
ENERGY: 1200000 0.8035 2.4585 1.7913 0.0000 -10789.3261 1407.5125 0.0000 0.0000 1801.0751 -7575.6851 303.4289 -9376.7602 -7553.6041 303.1601 -539.6552 -350.0914 30799.7066 56.2282 136.1651
ENERGY: 1500000 2.2370 5.2785 6.1739 0.0000 -10761.3232 1400.0298 0.0000 0.0000 1791.9165 -7555.6875 301.8860 -9347.6041 -7566.8232 302.7211 -321.0205 -222.1592 30862.0438 43.9057 122.2102
TCL: Running FEP window   3: Lambda1 0.8999999999999999 Lambda2 0.8499999999999999 [dLambda -0.050000000000000044]
TCL: Setting parameter firsttimestep to 0
TCL: Setting parameter alchLambda to 0.8999999999999999
Info: NONBONDED TABLE R-SQUARED SPACING: 0.0625
Info: NONBONDED TABLE SIZE: 705 POINTS
TCL: Setting parameter alchLambda2 to 0.8499999999999999
Info: NONBONDED TABLE R-SQUARED SPACING: 0.0625
Info: NONBONDED TABLE SIZE: 705 POINTS
TCL: Running for 1500000 steps
ETITLE: TS BOND ANGLE DIHED IMPRP ELECT VDW BOUNDARY MISC KINETIC TOTAL TEMP POTENTIAL TOTALAVG TEMPAVG PRESSURE GPRESSURE VOLUME PRESSAVG GPRESSAVG
ENERGY: 0 2.2370 5.2785 6.1739 0.0000 -10761.1268 1400.3068 0.0000 0.0000 1791.0607 -7556.0699 301.7418 -9347.1306 -7556.0699 301.7418 -315.8303 -233.7934 30862.0438 -315.8303 -233.7934
ENERGY: 300000 2.5625 2.4177 2.8553 0.0000 -10861.9980 1482.2974 0.0000 0.0000 1770.3423 -7601.5229 298.2513 -9371.8652 -7579.1215 300.6302 419.0267 465.1269 30208.9865 -149.5337 -84.5705
ENERGY: 600000 4.1880 6.9826 4.2106 0.0000 -10952.3949 1578.6874 0.0000 0.0000 1775.0167 -7583.3096 299.0389 -9358.3264 -7590.2638 299.0845 1142.5485 1166.9718 30797.4006 130.1362 178.3415
ENERGY: 900000 4.6309 4.0355 3.3234 0.0000 -10697.1364 1313.5605 0.0000 0.0000 1803.6996 -7567.8864 303.8711 -9371.5860 -7570.9825 300.5955 -1235.5449 -1126.2109 30855.8482 -13.5826 33.7420
ENERGY: 1200000 2.5008 2.0579 0.7659 0.0000 -10881.0261 1490.0038 0.0000 0.0000 1775.3240 -7610.3737 299.0906 -9385.6977 -7579.2776 299.7436 159.3073 204.1275 30710.4924 20.6662 67.2414
ENERGY: 1500000 1.5399 2.8534 3.2489 0.0000 -10692.8489 1407.5425 0.0000 0.0000 1808.7799 -7468.8843 304.7270 -9277.6642 -7577.4428 299.5362 -265.9933 -221.5153 31224.7466 39.7453 91.0110
TCL: Running FEP window   4: Lambda1 0.8499999999999999 Lambda2 0.7999999999999998 [dLambda -0.050000000000000044]
TCL: Setting parameter firsttimestep to 0
TCL: Setting parameter alchLambda to 0.8499999999999999
Info: NONBONDED TABLE R-SQUARED SPACING: 0.0625
Info: NONBONDED TABLE SIZE: 705 POINTS
TCL: Setting parameter alchLambda2 to 0.7999999999999998
Info: NONBONDED TABLE R-SQUARED SPACING: 0.0625
Info: NONBONDED TABLE SIZE: 705 POINTS
TCL: Running for 1500000 steps
ETITLE: TS BOND ANGLE DIHED IMPRP ELECT VDW BOUNDARY MISC KINETIC TOTAL TEMP POTENTIAL TOTALAVG TEMPAVG PRESSURE GPRESSURE VOLUME PRESSAVG GPRESSAVG
ENERGY: 0 1.5399 2.8534 3.2489 0.0000 -10692.6242 1407.9368 0.0000 0.0000 1807.8364 -7469.2089 304.5680 -9277.0453 -7469.2089 304.5680 -301.2696 -228.9683 31224.7466 -301.2696 -228.9683
ENERGY: 300000 3.0958 4.5601 2.8442 0.0000 -10567.1257 1267.8157 0.0000 0.0000 1838.1088 -7450.7011 309.6680 -9288.8099 -7533.3283 301.9818 -1251.4116 -1193.9719 31094.3491 -413.2462 -349.3933
ENERGY: 600000 4.9873 2.8250 2.1366 0.0000 -10687.5020 1395.8435 0.0000 0.0000 1768.5516 -7513.1579 297.9497 -9281.7095 -7537.7787 300.8447 -297.7667 -176.7113 31364.8566 -330.2950 -260.9506
ENERGY: 900000 5.8112 3.4647 4.5434 0.0000 -10755.4350 1447.2875 0.0000 0.0000 1803.6464 -7490.6818 303.8621 -9294.3283 -7551.9737 301.1687 -30.0221 81.1981 30787.3067 -244.1443 -169.8981
ENERGY: 1200000 3.5984 2.9074 1.7864 0.0000 -10700.8618 1359.6717 0.0000 0.0000 1745.6492 -7587.2488 294.0913 -9332.8979 -7558.6296 300.3994 -535.9524 -498.7498 30741.5975 -237.0382 -175.5382
ENERGY: 1500000 2.9451 0.9083 0.7196 0.0000 -10713.6628 1348.8690 0.0000 0.0000 1759.9957 -7600.2252 296.5082 -9360.2209 -7558.9067 301.2457 -714.2347 -659.2869 30671.0327 -206.9073 -145.9167
TCL: Running FEP window   5: Lambda1 0.7999999999999998 Lambda2 0.7499999999999998 [dLambda -0.050000000000000044]
TCL: Setting parameter firsttimestep to 0
TCL: Setting parameter alchLambda to 0.7999999999999998
Info: NONBONDED TABLE R-SQUARED SPACING: 0.0625
Info: NONBONDED TABLE SIZE: 705 POINTS
TCL: Setting parameter alchLambda2 to 0.7499999999999998
Info: NONBONDED TABLE R-SQUARED SPACING: 0.0625
Info: NONBONDED TABLE SIZE: 705 POINTS
TCL: Running for 1500000 steps
ETITLE: TS BOND ANGLE DIHED IMPRP ELECT VDW BOUNDARY MISC KINETIC TOTAL TEMP POTENTIAL TOTALAVG TEMPAVG PRESSURE GPRESSURE VOLUME PRESSAVG GPRESSAVG
ENERGY: 0 2.9451 0.9083 0.7196 0.0000 -10713.4492 1348.9691 0.0000 0.0000 1759.1352 -7600.7720 296.3633 -9359.9072 -7600.7720 296.3633 -741.1120 -672.7458 30671.0327 -741.1120 -672.7458
ENERGY: 300000 1.7834 3.0883 2.7071 0.0000 -10798.1863 1395.3170 0.0000 0.0000 1821.0410 -7574.2496 306.7926 -9395.2905 -7587.8246 297.9684 -629.9560 -553.9170 31040.5381 -344.3743 -283.0514
ENERGY: 600000 4.1945 1.8066 2.4785 0.0000 -10828.3293 1411.4484 0.0000 0.0000 1890.8668 -7517.5345 318.5562 -9408.4013 -7563.0985 301.5624 -316.6449 -243.4521 30829.9184 -212.6958 -157.8254
ENERGY: 900000 3.8708 2.1272 7.6337 0.0000 -11046.0359 1561.4286 0.0000 0.0000 1800.2307 -7670.7449 303.2867 -9470.9756 -7577.6597 300.6303 497.5563 447.7232 30463.0855 -91.1387 -47.3352
ENERGY: 1200000 2.0350 2.2994 1.0160 0.0000 -10678.7460 1429.0658 0.0000 0.0000 1791.6604 -7452.6695 301.8428 -9244.3298 -7566.7062 300.3606 -96.8245 -90.4024 31498.7201 -110.5425 -63.4184
ENERGY: 1500000 5.1850 3.3426 3.7277 0.0000 -10781.6341 1483.4578 0.0000 0.0000 1781.5839 -7504.3370 300.1452 -9285.9210 -7558.8537 299.9914 394.0309 425.6516 30846.0054 -50.3732 -1.2567
TCL: Running FEP window   6: Lambda1 0.7499999999999998 Lambda2 0.6999999999999997 [dLambda -0.050000000000000044]
TCL: Setting parameter firsttimestep to 0
TCL: Setting parameter alchLambda to 0.7499999999999998
Info: NONBONDED TABLE R-SQUARED SPACING: 0.0625
Info: NONBONDED TABLE SIZE: 705 POINTS
TCL: Setting parameter alchLambda2 to 0.6999999999999997
Info: NONBONDED TABLE R-SQUARED SPACING: 0.0625
Info: NONBONDED TABLE SIZE: 705 POINTS
TCL: Running for 1500000 steps
ETITLE: TS BOND ANGLE DIHED IMPRP ELECT VDW BOUNDARY MISC KINETIC TOTAL TEMP POTENTIAL TOTALAVG TEMPAVG PRESSURE GPRESSURE VOLUME PRESSAVG GPRESSAVG
ENERGY: 0 5.1850 3.3426 3.7277 0.0000 -10781.3996 1483.8962 0.0000 0.0000 1780.7387 -7504.5094 300.0028 -9285.2481 -7504.5094 300.0028 333.8554 419.3485 30846.0054 333.8554 419.3485
ENERGY: 300000 3.9407 1.9598 1.1737 0.0000 -10750.7796 1351.5936 0.0000 0.0000 1838.6535 -7553.4582 309.7598 -9392.1117 -7533.6929 302.5006 -925.7682 -862.3887 31027.2424 -389.6165 -315.5342
ENERGY: 600000 3.7052 1.0997 2.7921 0.0000 -10598.4206 1326.6882 0.0000 0.0000 1756.8783 -7507.2571 295.9831 -9264.1354 -7549.0600 300.6301 -918.3222 -800.0497 31099.6333 -465.6168 -378.1798
ENERGY: 900000 1.5393 1.2566 1.2310 0.0000 -10840.0266 1443.8107 0.0000 0.0000 1751.9367 -7640.2524 295.1505 -9392.1891 -7557.7484 300.7946 -115.3882 -20.7725 30674.1605 -363.4830 -289.9980
ENERGY: 1200000 2.0518 1.8194 3.7139 0.0000 -10811.5022 1472.3686 0.0000 0.0000 1788.3813 -7543.1673 301.2904 -9331.5486 -7559.7575 301.3317 69.4513 98.8969 30683.3855 -315.5992 -254.5027
ENERGY: 1500000 2.9239 3.7073 3.1416 0.0000 -10832.9156 1433.6830 0.0000 0.0000 1773.9284 -7615.5314 298.8555 -9389.4598 -7567.3213 300.9485 -317.9323 -306.1353 30691.4590 -313.9384 -252.8835
TCL: Running FEP window   7: Lambda1 0.6999999999999997 Lambda2 0.6499999999999997 [dLambda -0.050000000000000044]
TCL: Setting parameter firsttimestep to 0
TCL: Setting parameter alchLambda to 0.6999999999999997
Info: NONBONDED TABLE R-SQUARED SPACING: 0.0625
Info: NONBONDED TABLE SIZE: 705 POINTS
TCL: Setting parameter alchLambda2 to 0.6499999999999997
Info: NONBONDED TABLE R-SQUARED SPACING: 0.0625
Info: NONBONDED TABLE SIZE: 705 POINTS
TCL: Running for 1500000 steps
ETITLE: TS BOND ANGLE DIHED IMPRP ELECT VDW BOUNDARY MISC KINETIC TOTAL TEMP POTENTIAL TOTALAVG TEMPAVG PRESSURE GPRESSURE VOLUME PRESSAVG GPRESSAVG
ENERGY: 0 2.9239 3.7073 3.1416 0.0000 -10832.7102 1434.2175 0.0000 0.0000 1773.0123 -7615.7076 298.7012 -9388.7199 -7615.7076 298.7012 -405.2243 -313.9560 30691.4590 -405.2243 -313.9560
ENERGY: 300000 3.2070 2.2065 4.7300 0.0000 -10932.4045 1517.4429 0.0000 0.0000 1787.0118 -7617.8062 301.0597 -9404.8180 -7621.3545 296.1044 505.9531 541.7477 30416.3302 -17.8144 57.7819
ENERGY: 600000 4.3145 2.5464 1.2158 0.0000 -10678.4496 1319.0752 0.0000 0.0000 1755.3625 -7595.9352 295.7277 -9351.2977 -7579.7404 298.7100 -1064.1933 -975.2430 30898.5018 -254.2374 -171.7337
ENERGY: 900000 6.2569 4.3785 3.0653 0.0000 -10822.3496 1497.0352 0.0000 0.0000 1772.7403 -7538.8735 298.6553 -9311.6138 -7575.6011 299.0354 338.8374 345.8618 31201.2047 -90.3636 -36.9024
ENERGY: 1200000 1.9091 1.9342 2.4424 0.0000 -10816.0923 1434.8928 0.0000 0.0000 1774.0114 -7600.9026 298.8695 -9374.9139 -7583.7940 298.5173 -227.9551 -244.5088 31115.0171 -152.5437 -98.3770
ENERGY: 1500000 4.4748 3.7595 4.4573 0.0000 -10878.0575 1430.0946 0.0000 0.0000 1743.8452 -7691.4260 293.7874 -9435.2712 -7584.6681 299.3098 -410.7115 -339.5037 30819.2821 -179.0079 -116.1250
TCL: Running FEP window   8: Lambda1 0.6499999999999997 Lambda2 0.5999999999999996 [dLambda -0.050000000000000044]
TCL: Setting parameter firsttimestep to 0
TCL: Setting parameter alchLambda to 0.6499999999999997
Info: NONBONDED TABLE R-SQUARED SPACING: 0.0625
Info: NONBONDED TABLE SIZE: 705 POINTS
TCL: Setting parameter alchLambda2 to 0.5999999999999996
Info: NONBONDED TABLE R-SQUARED SPACING: 0.0625
Info: NONBONDED TABLE SIZE: 705 POINTS
TCL: Running for 1500000 steps
ETITLE: TS BOND ANGLE DIHED IMPRP ELECT VDW BOUNDARY MISC KINETIC TOTAL TEMP POTENTIAL TOTALAVG TEMPAVG PRESSURE GPRESSURE VOLUME PRESSAVG GPRESSAVG
ENERGY: 0 4.4748 3.7595 4.4573 0.0000 -10878.0467 1430.3520 0.0000 0.0000 1742.9435 -7692.0596 293.6354 -9435.0030 -7692.0596 293.6354 -441.8950 -348.4066 30819.2821 -441.8950 -348.4066
ENERGY: 300000 6.5676 2.7074 3.5915 0.0000 -10805.1322 1440.9983 0.0000 0.0000 1826.6366 -7524.6308 307.7353 -9351.2674 -7598.4910 301.1427 -236.8193 -214.4309 31027.3453 -105.3173 -42.1461
ENERGY: 600000 2.3614 1.1865 6.0567 0.0000 -10954.6251 1563.1161 0.0000 0.0000 1819.9127 -7561.9916 306.6025 -9381.9043 -7607.2811 300.9612 882.6047 973.7611 30296.8631 91.0189 164.4973
ENERGY: 900000 1.2256 2.7022 4.2497 0.0000 -10866.0139 1519.5479 0.0000 0.0000 1737.2215 -7601.0671 292.6714 -9338.2885 -7600.6155 299.8431 742.4258 824.6046 30331.2880 182.8458 258.6176
ENERGY: 1200000 1.7386 5.1569 2.1742 0.0000 -10946.9235 1551.9884 0.0000 0.0000 1733.3103 -7652.5550 292.0125 -9385.8654 -7586.7210 299.8034 539.1875 557.2428 30746.4794 183.8795 252.0919
ENERGY: 1500000 4.1327 2.4254 3.2285 0.0000 -10812.2227 1522.2334 0.0000 0.0000 1850.7412 -7429.4615 311.7962 -9280.2027 -7576.5985 300.5490 715.1151 805.7354 30943.6392 167.7810 243.3424
TCL: Running FEP window   9: Lambda1 0.5999999999999996 Lambda2 0.5499999999999996 [dLambda -0.050000000000000044]
TCL: Setting parameter firsttimestep to 0
TCL: Setting parameter alchLambda to 0.5999999999999996
Info: NONBONDED TABLE R-SQUARED SPACING: 0.0625
Info: NONBONDED TABLE SIZE: 705 POINTS
TCL: Setting parameter alchLambda2 to 0.5499999999999996
Info: NONBONDED TABLE R-SQUARED SPACING: 0.0625
Info: NONBONDED TABLE SIZE: 705 POINTS
TCL: Running for 1500000 steps
ETITLE: TS BOND ANGLE DIHED IMPRP ELECT VDW BOUNDARY MISC KINETIC TOTAL TEMP POTENTIAL TOTALAVG TEMPAVG PRESSURE GPRESSURE VOLUME PRESSAVG GPRESSAVG
ENERGY: 0 4.1327 2.4254 3.2285 0.0000 -10812.2476 1522.9972 0.0000 0.0000 1849.8634 -7429.6004 311.6483 -9279.4638 -7429.6004 311.6483 722.2775 805.8045 30943.6392 722.2775 805.8045
ENERGY: 300000 2.4759 2.6589 2.4299 0.0000 -10851.5289 1473.2451 0.0000 0.0000 1751.7691 -7618.9500 295.1223 -9370.7191 -7505.9951 305.6034 -203.2835 -117.7517 31354.2694 170.3422 221.0865
ENERGY: 600000 1.4806 5.8990 2.1213 0.0000 -10772.7475 1480.8149 0.0000 0.0000 1805.6193 -7476.8123 304.1945 -9282.4316 -7527.9339 303.3241 456.1790 568.5034 30692.1579 345.7855 400.2174
ENERGY: 900000 2.5365 2.7932 1.7935 0.0000 -10829.6214 1412.5411 0.0000 0.0000 1743.5858 -7666.3713 293.7437 -9409.9572 -7550.6676 301.3896 -548.4171 -486.8922 30645.4900 207.4514 263.1700
ENERGY: 1200000 2.5944 2.4560 3.3382 0.0000 -10858.5086 1511.5745 0.0000 0.0000 1764.2178 -7574.3277 297.2196 -9338.5456 -7561.4316 299.9997 257.5967 241.5966 31182.1770 124.1269 179.2574
ENERGY: 1500000 3.0600 3.5337 1.8564 0.0000 -10801.8017 1454.2197 0.0000 0.0000 1775.4289 -7563.7030 299.1083 -9339.1319 -7558.7167 299.9971 -43.8313 88.6168 30857.7100 119.5425 174.3317
TCL: Running FEP window  10: Lambda1 0.5499999999999996 Lambda2 0.4999999999999996 [dLambda -0.04999999999999999]
TCL: Setting parameter firsttimestep to 0
TCL: Setting parameter alchLambda to 0.5499999999999996
Info: NONBONDED TABLE R-SQUARED SPACING: 0.0625
Info: NONBONDED TABLE SIZE: 705 POINTS
TCL: Setting parameter alchLambda2 to 0.4999999999999996
Info: NONBONDED TABLE R-SQUARED SPACING: 0.0625
Info: NONBONDED TABLE SIZE: 705 POINTS
TCL: Running for 1500000 steps
ETITLE: TS BOND ANGLE DIHED IMPRP ELECT VDW BOUNDARY MISC KINETIC TOTAL TEMP POTENTIAL TOTALAVG TEMPAVG PRESSURE GPRESSURE VOLUME PRESSAVG GPRESSAVG
ENERGY: 0 3.0600 3.5337 1.8564 0.0000 -10801.8970 1454.8688 0.0000 0.0000 1774.5825 -7563.9956 298.9657 -9338.5782 -7563.9956 298.9657 -2.8866 88.0635 30857.7100 -2.8866 88.0635
ENERGY: 300000 7.2696 3.8762 1.2851 0.0000 -10816.4074 1397.2198 0.0000 0.0000 1778.3656 -7628.3912 299.6030 -9406.7567 -7600.3822 298.7152 -871.7659 -761.6083 30954.4202 -80.3151 12.2937
ENERGY: 600000 9.2195 2.1869 3.1814 0.0000 -10764.2051 1421.9354 0.0000 0.0000 1701.9837 -7625.6983 286.7349 -9327.6820 -7587.4387 298.5555 -263.4638 -258.5153 30902.5629 40.1223 97.5300
ENERGY: 900000 2.5042 1.1712 4.2959 0.0000 -10983.8296 1531.9466 0.0000 0.0000 1755.6046 -7688.3070 295.7685 -9443.9117 -7605.5487 298.6380 188.4590 233.4729 30587.7703 75.1689 134.0169
ENERGY: 1200000 3.4171 3.7638 0.5334 0.0000 -10556.9927 1345.1378 0.0000 0.0000 1802.8829 -7401.2577 303.7335 -9204.1406 -7584.7396 299.2259 -713.1807 -599.5548 31320.9337 85.9435 140.6318
ENERGY: 1500000 7.1263 0.9702 1.3035 0.0000 -10862.1205 1448.5524 0.0000 0.0000 1821.3906 -7582.7776 306.8515 -9404.1681 -7587.4206 299.7250 -286.9216 -270.4671 30963.5178 61.1497 113.6591
TCL: Running FEP window  11: Lambda1 0.4999999999999996 Lambda2 0.4499999999999996 [dLambda -0.04999999999999999]
TCL: Setting parameter firsttimestep to 0
TCL: Setting parameter alchLambda to 0.4999999999999996
Info: NONBONDED TABLE R-SQUARED SPACING: 0.0625
Info: NONBONDED TABLE SIZE: 705 POINTS
TCL: Setting parameter alchLambda2 to 0.4499999999999996
Info: NONBONDED TABLE R-SQUARED SPACING: 0.0625
Info: NONBONDED TABLE SIZE: 705 POINTS
TCL: Running for 1500000 steps
ETITLE: TS BOND ANGLE DIHED IMPRP ELECT VDW BOUNDARY MISC KINETIC TOTAL TEMP POTENTIAL TOTALAVG TEMPAVG PRESSURE GPRESSURE VOLUME PRESSAVG GPRESSAVG
ENERGY: 0 7.1263 0.9702 1.3035 0.0000 -10861.9853 1449.1152 0.0000 0.0000 1820.5206 -7582.9495 306.7049 -9403.4701 -7582.9495 306.7049 -350.0784 -274.7155 30963.5178 -350.0784 -274.7155
ENERGY: 300000 4.1437 2.5132 4.2548 0.0000 -10759.4906 1464.7175 0.0000 0.0000 1751.9763 -7531.8851 295.1572 -9283.8614 -7549.1248 300.4789 410.6651 447.1743 30491.0811 77.4242 152.0169
ENERGY: 600000 4.3102 3.5092 3.6673 0.0000 -10745.4643 1461.9512 0.0000 0.0000 1730.8153 -7541.2112 291.5922 -9272.0265 -7552.0159 299.2836 240.4193 309.3372 30753.7009 43.6079 123.4944
ENERGY: 900000 5.5543 1.5494 4.6141 0.0000 -10918.1907 1469.3336 0.0000 0.0000 1781.1096 -7656.0297 300.0653 -9437.1393 -7552.9515 300.5873 -147.8758 -88.1723 30189.5590 -49.9343 30.9489
ENERGY: 1200000 2.4885 3.4567 2.5863 0.0000 -10779.1756 1423.8578 0.0000 0.0000 1778.3769 -7568.4093 299.6049 -9346.7862 -7556.0892 300.7580 -141.8779 -70.9238 30399.2378 -30.3002 42.8441
ENERGY: 1500000 5.7983 2.0257 3.3375 0.0000 -10761.4250 1348.8382 0.0000 0.0000 1747.1352 -7654.2901 294.3416 -9401.4253 -7562.5431 300.4681 -1001.2479 -933.2816 30528.1691 -171.4399 -102.2843
TCL: Running FEP window  12: Lambda1 0.4499999999999996 Lambda2 0.39999999999999963 [dLambda -0.04999999999999999]
TCL: Setting parameter firsttimestep to 0
TCL: Setting parameter alchLambda to 0.4499999999999996
Info: NONBONDED TABLE R-SQUARED SPACING: 0.0625
Info: NONBONDED TABLE SIZE: 705 POINTS
TCL: Setting parameter alchLambda2 to 0.39999999999999963
Info: NONBONDED TABLE R-SQUARED SPACING: 0.0625
Info: NONBONDED TABLE SIZE: 705 POINTS
TCL: Running for 1500000 steps
ETITLE: TS BOND ANGLE DIHED IMPRP ELECT VDW BOUNDARY MISC KINETIC TOTAL TEMP POTENTIAL TOTALAVG TEMPAVG PRESSURE GPRESSURE VOLUME PRESSAVG GPRESSAVG
ENERGY: 0 5.7983 2.0257 3.3375 0.0000 -10761.4265 1348.7095 0.0000 0.0000 1746.2632 -7655.2923 294.1947 -9401.5555 -7655.2923 294.1947 -1018.9380 -943.3253 30528.1691 -1018.9380 -943.3253
ENERGY: 300000 2.4335 2.8174 3.0475 0.0000 -10719.1287 1390.4465 0.0000 0.0000 1803.8011 -7516.5826 303.8882 -9320.3837 -7600.7811 294.9549 -510.9704 -447.8872 30750.7763 -532.0032 -457.7977
ENERGY: 600000 1.9295 1.6669 2.4927 0.0000 -10873.1291 1482.4865 0.0000 0.0000 1779.8309 -7604.7227 299.8499 -9384.5535 -7581.9003 297.6686 -41.8980 32.6684 30904.6228 -290.4754 -229.2472
ENERGY: 900000 0.8348 2.1691 1.1435 0.0000 -10731.0542 1422.9081 0.0000 0.0000 1750.9928 -7553.0059 294.9915 -9303.9987 -7575.5164 297.7370 235.3174 245.1114 30098.7776 -322.9810 -259.5758
ENERGY: 1200000 3.0564 2.3439 3.1466 0.0000 -10886.8624 1491.4802 0.0000 0.0000 1752.2739 -7634.5614 295.2074 -9386.8354 -7574.6360 297.7419 369.0702 426.6520 30454.7574 -215.8793 -150.9303
ENERGY: 1500000 2.1350 2.2044 3.7492 0.0000 -10876.3038 1444.2028 0.0000 0.0000 1719.9062 -7704.1061 289.7543 -9424.0123 -7580.3674 297.4986 -158.6558 -170.7708 30393.5621 -174.0699 -112.3889
TCL: Running FEP window  13: Lambda1 0.39999999999999963 Lambda2 0.34999999999999964 [dLambda -0.04999999999999999]
TCL: Setting parameter firsttimestep to 0
TCL: Setting parameter alchLambda to 0.39999999999999963
Info: NONBONDED TABLE R-SQUARED SPACING: 0.0625
Info: NONBONDED TABLE SIZE: 705 POINTS
TCL: Setting parameter alchLambda2 to 0.34999999999999964
Info: NONBONDED TABLE R-SQUARED SPACING: 0.0625
Info: NONBONDED TABLE SIZE: 705 POINTS
TCL: Running for 1500000 steps
ETITLE: TS BOND ANGLE DIHED IMPRP ELECT VDW BOUNDARY MISC KINETIC TOTAL TEMP POTENTIAL TOTALAVG TEMPAVG PRESSURE GPRESSURE VOLUME PRESSAVG GPRESSAVG
ENERGY: 0 2.1350 2.2044 3.7492 0.0000 -10876.3039 1444.6474 0.0000 0.0000 1718.9702 -7704.5977 289.5966 -9423.5678 -7704.5977 289.5966 -253.7483 -176.4341 30393.5621 -253.7483 -176.4341
ENERGY: 300000 6.0639 1.6330 1.8378 0.0000 -10875.1267 1483.3795 0.0000 0.0000 1778.1733 -7604.0392 299.5706 -9382.2125 -7631.4194 298.2434 105.8537 143.6116 30741.9788 -20.7936 33.7761
ENERGY: 600000 3.4509 2.1736 3.3328 0.0000 -10731.3703 1432.7593 0.0000 0.0000 1799.4965 -7490.1572 303.1630 -9289.6536 -7588.8856 299.0326 -170.3443 -173.6200 31052.3979 -126.6211 -81.4008
ENERGY: 900000 1.8217 2.8026 3.1271 0.0000 -10776.1708 1477.9858 0.0000 0.0000 1785.4351 -7504.9984 300.7940 -9290.4335 -7577.7132 299.7244 540.9439 575.9464 30575.6184 23.5001 73.9374
ENERGY: 1200000 2.6671 4.4806 1.5115 0.0000 -10766.3459 1459.9798 0.0000 0.0000 1714.3513 -7583.3557 288.8185 -9297.7071 -7585.9469 298.3716 134.2850 176.9819 31010.9025 -72.7028 -25.8357
ENERGY: 1500000 4.7617 2.3330 4.5479 0.0000 -10676.2611 1393.6219 0.0000 0.0000 1758.6604 -7512.3361 296.2833 -9270.9966 -7575.3807 297.9970 -642.7833 -595.5243 31147.3332 -146.3335 -98.9906
TCL: Running FEP window  14: Lambda1 0.34999999999999964 Lambda2 0.29999999999999966 [dLambda -0.04999999999999999]
TCL: Setting parameter firsttimestep to 0
TCL: Setting parameter alchLambda to 0.34999999999999964
Info: NONBONDED TABLE R-SQUARED SPACING: 0.0625
Info: NONBONDED TABLE SIZE: 705 POINTS
TCL: Setting parameter alchLambda2 to 0.29999999999999966
Info: NONBONDED TABLE R-SQUARED SPACING: 0.0625
Info: NONBONDED TABLE SIZE: 705 POINTS
TCL: Running for 1500000 steps
ETITLE: TS BOND ANGLE DIHED IMPRP ELECT VDW BOUNDARY MISC KINETIC TOTAL TEMP POTENTIAL TOTALAVG TEMPAVG PRESSURE GPRESSURE VOLUME PRESSAVG GPRESSAVG
ENERGY: 0 4.7617 2.3330 4.5479 0.0000 -10676.2609 1393.7284 0.0000 0.0000 1757.7881 -7513.1019 296.1363 -9270.8900 -7513.1019 296.1363 -661.1879 -601.2279 31147.3332 -661.1879 -601.2279
ENERGY: 300000 4.6817 3.2094 1.5127 0.0000 -10884.1793 1476.8667 0.0000 0.0000 1748.2761 -7649.6327 294.5338 -9397.9088 -7581.9298 294.6696 -107.2144 -60.1213 30804.8953 -311.2485 -262.0938
ENERGY: 600000 4.3300 2.2769 0.7769 0.0000 -10897.0275 1455.3845 0.0000 0.0000 1704.0964 -7730.1628 287.0908 -9434.2593 -7595.0575 295.4664 -464.9040 -433.6054 30880.7611 -218.5271 -163.1668
ENERGY: 900000 3.5686 4.4814 3.0475 0.0000 -10907.4200 1534.6817 0.0000 0.0000 1738.0085 -7623.6324 292.8040 -9361.6408 -7599.5317 295.0677 486.0944 591.9567 30712.5725 -104.7901 -43.4396
ENERGY: 1200000 2.9043 2.0340 3.0470 0.0000 -10679.7911 1367.5447 0.0000 0.0000 1802.2020 -7502.0591 303.6188 -9304.2611 -7588.4993 295.9828 -537.7328 -460.9887 30678.9387 -75.1881 -13.9641
ENERGY: 1500000 2.1699 2.8087 3.1166 0.0000 -10715.8620 1452.5883 0.0000 0.0000 1785.0996 -7470.0790 300.7375 -9255.1785 -7572.8431 297.1313 113.7173 172.4732 30915.1363 -115.8363 -58.7043
TCL: Running FEP window  15: Lambda1 0.29999999999999966 Lambda2 0.24999999999999967 [dLambda -0.04999999999999999]
TCL: Setting parameter firsttimestep to 0
TCL: Setting parameter alchLambda to 0.29999999999999966
Info: NONBONDED TABLE R-SQUARED SPACING: 0.0625
Info: NONBONDED TABLE SIZE: 705 POINTS
TCL: Setting parameter alchLambda2 to 0.24999999999999967
Info: NONBONDED TABLE R-SQUARED SPACING: 0.0625
Info: NONBONDED TABLE SIZE: 705 POINTS
TCL: Running for 1500000 steps
ETITLE: TS BOND ANGLE DIHED IMPRP ELECT VDW BOUNDARY MISC KINETIC TOTAL TEMP POTENTIAL TOTALAVG TEMPAVG PRESSURE GPRESSURE VOLUME PRESSAVG GPRESSAVG
ENERGY: 0 2.1699 2.8087 3.1166 0.0000 -10715.8617 1452.3536 0.0000 0.0000 1784.2177 -7471.1952 300.5890 -9255.4129 -7471.1952 300.5890 74.5449 166.1497 30915.1363 74.5449 166.1497
ENERGY: 300000 1.9527 4.3878 2.2749 0.0000 -10755.2808 1453.6970 0.0000 0.0000 1769.9422 -7523.0263 298.1839 -9292.9685 -7513.5104 301.6095 -254.5898 -238.8884 31562.9410 -118.3421 -47.3004
ENERGY: 600000 5.6758 3.3105 3.2004 0.0000 -10930.8950 1517.6553 0.0000 0.0000 1764.4752 -7636.5780 297.2629 -9401.0531 -7532.6433 302.1509 135.1644 170.6656 30483.1882 -140.7586 -77.0503
ENERGY: 900000 0.7271 2.9667 3.6541 0.0000 -10860.2547 1500.9185 0.0000 0.0000 1742.8937 -7609.0946 293.6270 -9351.9883 -7545.1054 301.1982 399.6922 487.5276 30223.9043 -100.2248 -34.4525
ENERGY: 1200000 3.2008 3.2655 2.4550 0.0000 -10686.0273 1348.8648 0.0000 0.0000 1837.3788 -7490.8624 309.5451 -9328.2412 -7542.8299 301.4115 -691.0215 -626.3858 30745.9705 -140.5819 -71.4417
ENERGY: 1500000 3.2360 3.0112 2.7618 0.0000 -10950.6111 1517.7273 0.0000 0.0000 1759.1308 -7664.7439 296.3625 -9423.8748 -7559.1034 300.3009 -50.2809 45.6829 31026.6616 -116.1003 -44.0589
TCL: Running FEP window  16: Lambda1 0.24999999999999967 Lambda2 0.19999999999999968 [dLambda -0.04999999999999999]
TCL: Setting parameter firsttimestep to 0
TCL: Setting parameter alchLambda to 0.24999999999999967
Info: NONBONDED TABLE R-SQUARED SPACING: 0.0625
Info: NONBONDED TABLE SIZE: 705 POINTS
TCL: Setting parameter alchLambda2 to 0.19999999999999968
Info: NONBONDED TABLE R-SQUARED SPACING: 0.0625
Info: NONBONDED TABLE SIZE: 705 POINTS
TCL: Running for 1500000 steps
ETITLE: TS BOND ANGLE DIHED IMPRP ELECT VDW BOUNDARY MISC KINETIC TOTAL TEMP POTENTIAL TOTALAVG TEMPAVG PRESSURE GPRESSURE VOLUME PRESSAVG GPRESSAVG
ENERGY: 0 3.2360 3.0112 2.7618 0.0000 -10950.6119 1518.2680 0.0000 0.0000 1758.2211 -7665.1138 296.2093 -9423.3349 -7665.1138 296.2093 -39.0910 43.8516 31026.6616 -39.0910 43.8516
ENERGY: 300000 2.9851 1.6924 1.4254 0.0000 -10863.7114 1527.1205 0.0000 0.0000 1756.5161 -7573.9718 295.9220 -9330.4879 -7571.6409 298.2522 551.4115 575.9391 30548.8405 182.4004 240.0796
ENERGY: 600000 1.8148 1.1486 0.6349 0.0000 -10729.6178 1379.6928 0.0000 0.0000 1738.2877 -7608.0390 292.8511 -9346.3267 -7575.0081 298.6304 -883.7716 -751.2936 31272.7617 -54.2934 27.7843
ENERGY: 900000 2.5569 2.0976 1.4506 0.0000 -10680.9814 1373.5394 0.0000 0.0000 1772.7481 -7528.5887 298.6567 -9301.3369 -7563.4365 299.2116 -722.7906 -628.6877 31003.7426 -66.9405 6.7465
ENERGY: 1200000 1.2541 3.0571 3.5888 0.0000 -10808.2986 1382.3263 0.0000 0.0000 1806.9809 -7611.0914 304.4239 -9418.0722 -7565.7659 300.0577 -755.0496 -729.7310 30718.0279 -11.6093 52.4279
ENERGY: 1500000 4.7339 1.6158 2.6761 0.0000 -10771.6769 1491.6779 0.0000 0.0000 1760.8466 -7510.1267 296.6516 -9270.9733 -7571.3881 299.5631 437.8041 491.3504 30819.2439 41.9308 103.2031
TCL: Running FEP window  17: Lambda1 0.19999999999999968 Lambda2 0.1499999999999997 [dLambda -0.04999999999999999]
TCL: Setting parameter firsttimestep to 0
TCL: Setting parameter alchLambda to 0.19999999999999968
Info: NONBONDED TABLE R-SQUARED SPACING: 0.0625
Info: NONBONDED TABLE SIZE: 705 POINTS
TCL: Setting parameter alchLambda2 to 0.1499999999999997
Info: NONBONDED TABLE R-SQUARED SPACING: 0.0625
Info: NONBONDED TABLE SIZE: 705 POINTS
TCL: Running for 1500000 steps
ETITLE: TS BOND ANGLE DIHED IMPRP ELECT VDW BOUNDARY MISC KINETIC TOTAL TEMP POTENTIAL TOTALAVG TEMPAVG PRESSURE GPRESSURE VOLUME PRESSAVG GPRESSAVG
ENERGY: 0 4.7339 1.6158 2.6761 0.0000 -10771.6774 1491.8770 0.0000 0.0000 1759.9657 -7510.8090 296.5032 -9270.7747 -7510.8090 296.5032 404.9372 488.6442 30819.2439 404.9372 488.6442
ENERGY: 300000 4.4844 4.2927 1.6049 0.0000 -10922.8044 1517.9124 0.0000 0.0000 1833.2827 -7561.2274 308.8550 -9394.5100 -7564.5885 301.5410 363.6626 430.7677 30433.1077 -92.0383 -32.9566
ENERGY: 600000 2.0093 2.7122 1.0650 0.0000 -10752.4209 1402.3400 0.0000 0.0000 1727.4323 -7616.8620 291.0222 -9344.2943 -7576.6104 300.1247 -660.1333 -530.2400 30804.7832 -202.7372 -136.4410
ENERGY: 900000 2.8887 2.4068 1.1926 0.0000 -10834.5966 1480.7104 0.0000 0.0000 1767.9345 -7579.4636 297.8457 -9347.3981 -7571.2803 298.7941 291.3218 297.5387 30409.9315 -137.9455 -81.8091
ENERGY: 1200000 2.1846 3.0464 5.1608 0.0000 -10833.0948 1464.8724 0.0000 0.0000 1785.6644 -7572.1662 300.8327 -9357.8306 -7557.5765 299.9878 8.7425 96.9649 30754.8193 -155.9206 -95.6032
ENERGY: 1500000 5.3981 9.1357 2.5792 0.0000 -10622.8663 1349.8715 0.0000 0.0000 1773.0745 -7482.8073 298.7116 -9255.8818 -7561.8639 299.2593 -854.6388 -823.8498 31059.3055 -147.1779 -89.8408
TCL: Running FEP window  18: Lambda1 0.1499999999999997 Lambda2 0.09999999999999969 [dLambda -0.05 ]
TCL: Setting parameter firsttimestep to 0
TCL: Setting parameter alchLambda to 0.1499999999999997
Info: NONBONDED TABLE R-SQUARED SPACING: 0.0625
Info: NONBONDED TABLE SIZE: 705 POINTS
TCL: Setting parameter alchLambda2 to 0.09999999999999969
Info: NONBONDED TABLE R-SQUARED SPACING: 0.0625
Info: NONBONDED TABLE SIZE: 705 POINTS
TCL: Running for 1500000 steps
ETITLE: TS BOND ANGLE DIHED IMPRP ELECT VDW BOUNDARY MISC KINETIC TOTAL TEMP POTENTIAL TOTALAVG TEMPAVG PRESSURE GPRESSURE VOLUME PRESSAVG GPRESSAVG
ENERGY: 0 5.3981 9.1357 2.5792 0.0000 -10622.8662 1349.8987 0.0000 0.0000 1772.1752 -7483.6792 298.5601 -9255.8544 -7483.6792 298.5601 -910.5009 -826.6248 31059.3055 -910.5009 -826.6248
ENERGY: 300000 1.3105 4.5258 1.7766 0.0000 -10805.9721 1426.8406 0.0000 0.0000 1743.2705 -7628.2481 293.6905 -9371.5186 -7548.2988 302.5018 -430.6622 -317.5489 30741.2784 101.0515 160.9746
ENERGY: 600000 1.6880 2.5837 1.4761 0.0000 -10902.8294 1513.0898 0.0000 0.0000 1815.2227 -7568.7690 305.8124 -9383.9918 -7576.0057 300.9082 560.5787 705.8381 30057.4235 15.4599 91.0052
ENERGY: 900000 2.1621 0.6957 1.5684 0.0000 -10706.5899 1372.3894 0.0000 0.0000 1775.0259 -7554.7484 299.0404 -9329.7743 -7581.0838 300.1733 -607.7821 -544.2214 30853.5601 94.5694 160.5237
ENERGY: 1200000 4.2060 0.7443 3.3057 0.0000 -11055.4793 1619.2459 0.0000 0.0000 1791.7272 -7636.2502 301.8541 -9427.9775 -7580.9360 300.2148 1112.2182 1222.1423 30010.3780 120.4768 197.6372
ENERGY: 1500000 3.7600 1.7665 3.7565 0.0000 -10665.1007 1358.6170 0.0000 0.0000 1811.9581 -7485.2427 305.2624 -9297.2008 -7579.9701 300.3645 -540.4127 -443.7116 30399.1766 78.7816 155.3430
TCL: Running FEP window  19: Lambda1 0.09999999999999969 Lambda2 0.049999999999999684 [dLambda -0.05 ]
TCL: Setting parameter firsttimestep to 0
TCL: Setting parameter alchLambda to 0.09999999999999969
Info: NONBONDED TABLE R-SQUARED SPACING: 0.0625
Info: NONBONDED TABLE SIZE: 705 POINTS
TCL: Setting parameter alchLambda2 to 0.049999999999999684
Info: NONBONDED TABLE R-SQUARED SPACING: 0.0625
Info: NONBONDED TABLE SIZE: 705 POINTS
TCL: Running for 1500000 steps
ETITLE: TS BOND ANGLE DIHED IMPRP ELECT VDW BOUNDARY MISC KINETIC TOTAL TEMP POTENTIAL TOTALAVG TEMPAVG PRESSURE GPRESSURE VOLUME PRESSAVG GPRESSAVG
ENERGY: 0 3.7600 1.7665 3.7565 0.0000 -10665.0995 1358.3198 0.0000 0.0000 1811.0509 -7486.4459 305.1096 -9297.4968 -7486.4459 305.1096 -534.3877 -447.3730 30399.1766 -534.3877 -447.3730
ENERGY: 300000 3.9603 4.7412 3.7998 0.0000 -10701.7056 1397.7062 0.0000 0.0000 1747.6733 -7543.8249 294.4323 -9291.4981 -7529.3529 301.3037 -301.4343 -200.7891 30460.7890 -81.5551 14.0096
ENERGY: 600000 1.5436 1.7423 2.5923 0.0000 -10857.1464 1438.7454 0.0000 0.0000 1765.0712 -7647.4516 297.3633 -9412.5228 -7545.7101 301.1595 -447.1978 -348.9096 30648.0714 -123.5190 -38.5813
ENERGY: 900000 1.4648 4.4085 1.6389 0.0000 -10867.6017 1522.1053 0.0000 0.0000 1757.7819 -7580.2023 296.1353 -9337.9842 -7551.5415 300.2027 566.0458 585.5179 30332.2785 -95.3378 -14.9727
ENERGY: 1200000 4.0009 0.3665 2.5859 0.0000 -10800.9613 1474.0847 0.0000 0.0000 1713.3151 -7606.6083 288.6439 -9319.9234 -7560.9769 298.4660 67.3535 180.4439 30443.0417 9.1945 89.1058
ENERGY: 1500000 4.8225 3.6246 6.4808 0.0000 -10706.3262 1388.5585 0.0000 0.0000 1766.0673 -7536.7725 297.5311 -9302.8398 -7560.2704 299.0075 -847.7499 -831.5616 31245.3231 -88.2110 -13.3862
TCL: Running FEP window  20: Lambda1 0.049999999999999684 Lambda2 0.0    [dLambda -0.049999999999999684]
TCL: Setting parameter firsttimestep to 0
TCL: Setting parameter alchLambda to 0.049999999999999684
Info: NONBONDED TABLE R-SQUARED SPACING: 0.0625
Info: NONBONDED TABLE SIZE: 705 POINTS
TCL: Setting parameter alchLambda2 to 0.0
Info: NONBONDED TABLE R-SQUARED SPACING: 0.0625
Info: NONBONDED TABLE SIZE: 705 POINTS
TCL: Running for 1500000 steps
ETITLE: TS BOND ANGLE DIHED IMPRP ELECT VDW BOUNDARY MISC KINETIC TOTAL TEMP POTENTIAL TOTALAVG TEMPAVG PRESSURE GPRESSURE VOLUME PRESSAVG GPRESSAVG
ENERGY: 0 4.8225 3.6246 6.4808 0.0000 -10706.3258 1388.8547 0.0000 0.0000 1765.1759 -7537.3673 297.3810 -9302.5432 -7537.3673 297.3810 -918.1523 -833.1869 31245.3231 -918.1523 -833.1869
ENERGY: 300000 2.3866 2.3867 2.9854 0.0000 -10739.5203 1447.5976 0.0000 0.0000 1796.2350 -7487.9292 302.6135 -9284.1641 -7552.6073 296.0574 59.0883 62.8858 30784.5315 -107.6559 -41.5375
ENERGY: 600000 3.7729 0.3218 2.2679 0.0000 -10845.3770 1504.6544 0.0000 0.0000 1832.5462 -7501.8138 308.7309 -9334.3600 -7552.4189 301.4239 311.5131 365.6066 30578.3342 -196.8742 -142.1704
ENERGY: 900000 1.2179 2.7203 2.3615 0.0000 -10860.0105 1537.5982 0.0000 0.0000 1805.9768 -7510.1358 304.2547 -9316.1126 -7542.3909 301.3690 619.8408 660.0016 30766.1585 -43.9499 7.7072
ENERGY: 1200000 5.3093 2.1148 1.7980 0.0000 -10652.3789 1433.6261 0.0000 0.0000 1792.9952 -7416.5354 302.0677 -9209.5306 -7535.0971 301.6790 162.7105 197.4148 30541.3706 49.5843 98.4384
ENERGY: 1500000 3.1765 3.9926 3.3378 0.0000 -10818.4474 1430.5510 0.0000 0.0000 1770.9624 -7606.4270 298.3558 -9377.3894 -7554.1249 300.3407 -143.5436 -106.7942 30687.4120 32.4825 80.8956
TCL: Exiting due to exit command.
