Info: SIMULATION PARAMETERS:
Info: TIMESTEP               2
Info: NUMBER OF STEPS        0
Info: STEPS PER CYCLE        10
Info: PERIODIC CELL BASIS 1  31.1031 0 0
Info: PERIODIC CELL BASIS 2  0 30.2947 0
Info: PERIODIC CELL BASIS 3  0 0 32.1595
Info: PERIODIC CELL CENTER   0 0 0
Info: WRAPPING WATERS AROUND PERIODIC BOUNDARIES ON OUTPUT.
Info: WRAPPING ALL CLUSTERS AROUND PERIODIC BOUNDARIES ON OUTPUT.
Info: FIRST LDB TIMESTEP     50
Info: LAST LDB TIMESTEP     -1
Info: HOM BACKGROUND SCALING 1
Info: PME BACKGROUND SCALING 1
Info: MIN ATOMS PER PATCH    40
Info: EMPTY PATCH LOAD       40 ATOMS
Info: VELOCITY FILE          mobley_7768165_equil.vel
Info: CENTER OF MASS MOVING INITIALLY? NO
Info: DIELECTRIC             1
Info: EXCLUDE                SCALED ONE-FOUR
Info: 1-4 ELECTROSTATICS SCALED BY 0.833333
Info: MODIFIED 1-4 VDW PARAMETERS WILL BE USED
Info: DCD FILENAME           mobley_7768165_prod.dcd
Info: DCD FREQUENCY          100000
Info: DCD FIRST STEP         100000
Info: DCD FILE WILL CONTAIN UNIT CELL DATA
Info: XST FILENAME           mobley_7768165_prod.xst
Info: XST FREQUENCY          100000
Info: NO VELOCITY DCD OUTPUT
Info: NO FORCE DCD OUTPUT
Info: OUTPUT FILENAME        mobley_7768165_prod
Info: BINARY OUTPUT FILES WILL BE USED
Info: RESTART FILENAME       mobley_7768165_prod.restart
Info: RESTART FREQUENCY      100000
Info: BINARY RESTART FILES WILL BE USED
Info: CUTOFF                 9
Info: PAIRLIST DISTANCE      11
Info: PAIRLIST SHRINK RATE   0.01
Info: PAIRLIST GROW RATE     0.01
Info: PAIRLIST TRIGGER       0.3
Info: PAIRLISTS PER CYCLE    2
Info: PAIRLISTS ENABLED
Info: MARGIN                 2
Info: HYDROGEN GROUP CUTOFF  2.5
Info: PATCH DIMENSION        15.5
Info: ENERGY OUTPUT STEPS    100000
Info: ENERGY EVALUATION STEPS    100000
Info: OUTPUT ENERGY PRECISION 4
Info: CROSSTERM ENERGY INCLUDED IN DIHEDRAL
Info: TIMING OUTPUT STEPS    1000000
Info: PRESSURE OUTPUT STEPS  100000
Info: ALCHEMICAL FEP ON
Info: FEP CURRENT LAMBDA VALUE     0
Info: FEP COMPARISON LAMBDA VALUE  0.05
Info: FEP INTRA-ALCHEMICAL NON-BONDED INTERACTIONS WILL BE RETAINED
Info: FEP INTRA-ALCHEMICAL BONDED INTERACTIONS WILL BE RETAINED
Info: FEP VDW SHIFTING COEFFICIENT 5
Info: FEP ELEC. ACTIVE FOR ANNIHILATED PARTICLES BETWEEN LAMBDA = 0 AND LAMBDA = 0.5
Info: FEP ELEC. ACTIVE FOR EXNIHILATED PARTICLES BETWEEN LAMBDA = 0.5 AND LAMBDA = 1
Info: FEP VDW ACTIVE FOR ANNIHILATED PARTICLES BETWEEN LAMBDA = 0 AND LAMBDA = 1
Info: FEP VDW ACTIVE FOR EXNIHILATED PARTICLES BETWEEN LAMBDA = 0 AND LAMBDA = 1
Info: FEP BOND ACTIVE FOR ANNIHILATED PARTICLES BETWEEN LAMBDA = 1 AND LAMBDA = 1
Info: FEP BOND ACTIVE FOR EXNIHILATED PARTICLES BETWEEN LAMBDA = 0 AND LAMBDA = 0
Info: LANGEVIN DYNAMICS ACTIVE
Info: LANGEVIN TEMPERATURE   300
Info: LANGEVIN USING BBK INTEGRATOR
Info: LANGEVIN DAMPING COEFFICIENT IS 1 INVERSE PS
Info: LANGEVIN DYNAMICS APPLIED TO HYDROGENS
Info: LANGEVIN PISTON PRESSURE CONTROL ACTIVE
Info:        TARGET PRESSURE IS 1.01325 BAR
Info:     OSCILLATION PERIOD IS 50 FS
Info:             DECAY TIME IS 25 FS
Info:     PISTON TEMPERATURE IS 300 K
Info:       PRESSURE CONTROL IS GROUP-BASED
Info:    INITIAL STRAIN RATE IS 0.000717074 0.000717074 0.000717074
Info:       CELL FLUCTUATION IS ISOTROPIC
Info: PARTICLE MESH EWALD (PME) ACTIVE
Info: PME TOLERANCE               1e-06
Info: PME EWALD COEFFICIENT       0.348832
Info: PME INTERPOLATION ORDER     4
Info: PME GRID DIMENSIONS         32 32 36
Info: PME MAXIMUM GRID SPACING    1
Info: PME CALCULATION WILL BE PERFORMED ON GPU
Info: FULL ELECTROSTATIC EVALUATION FREQUENCY      2
Info: USING VERLET I (r-RESPA) MTS SCHEME.
Info: C1 SPLITTING OF LONG RANGE ELECTROSTATICS
Info: PLACING ATOMS IN PATCHES BY HYDROGEN GROUPS
Info: RIGID BONDS TO HYDROGEN : ALL
Info:         ERROR TOLERANCE : 1e-08
Info:          MAX ITERATIONS : 100
Info: RIGID WATER USING SETTLE ALGORITHM
Info: RANDOM NUMBER SEED     1743672320
Info: USE HYDROGEN BONDS?    NO
Info: Using AMBER format force field!
Info: AMBER PARM FILE        mobley_7768165.prmtop
Info: COORDINATE PDB         mobley_7768165.pdb
Info: Exclusions will be read from PARM file!
Info: SCNB (VDW SCALING)     2
Info: USING ARITHMETIC MEAN TO COMBINE L-J SIGMA PARAMETERS
Info: BINARY COORDINATES     mobley_7768165_equil.coor
Info: SUMMARY OF PARAMETERS:
Info: 6 BONDS
Info: 6 ANGLES
Info:   6 HARMONIC
Info:   0 COSINE-BASED
Info: 4 DIHEDRAL
Info: 0 IMPROPER
Info: 0 CROSSTERM
Info: 0 VDW
Info: 21 VDW_PAIRS
Info: 0 NBTHOLE_PAIRS
Info: To read alchdata from file: mobley_7768165.pdb
Info: To read alchflag data from column: 5
Info: STRUCTURE SUMMARY:
Info: 2909 ATOMS
Info: 2908 BONDS
Info: 12 ANGLES
Info: 13 DIHEDRALS
Info: 0 IMPROPERS
Info: 0 CROSSTERMS
Info: 2929 EXCLUSIONS
Info: 2905 RIGID BONDS
Info: ALCH: 0 ATOMS TO DISAPPEAR IN FINAL STATE
Info: ALCH: 8 ATOMS TO APPEAR IN FINAL STATE
Info: 5822 DEGREES OF FREEDOM
Info: 971 HYDROGEN GROUPS
Info: 3 ATOMS IN LARGEST HYDROGEN GROUP
Info: 971 MIGRATION GROUPS
Info: 3 ATOMS IN LARGEST MIGRATION GROUP
Info: TOTAL MASS = 17564.9 amu
Info: TOTAL CHARGE = -0.000100011 e
Info: MASS DENSITY = 0.962554 g/cm^3
Info: ATOM DENSITY = 0.0959985 atoms/A^3
Info: ADDED 0 IMPLICIT EXCLUSIONS
Info: NONBONDED TABLE R-SQUARED SPACING: 0.0625
Info: NONBONDED TABLE SIZE: 705 POINTS
Info: REMOVING COM VELOCITY -0.182854 -0.1884 -0.169591
Info: Use 3D box decompostion in PME FFT.
Info: Updated CUDA force table with 4096 elements.
Info: Updated CUDA LJ table with 6 x 6 elements.
Info: Found 11 unique exclusion lists needing 16 bytes
TCL: Running for 1500000 steps
ETITLE: TS BOND ANGLE DIHED IMPRP ELECT VDW BOUNDARY MISC KINETIC TOTAL TEMP POTENTIAL TOTALAVG TEMPAVG PRESSURE GPRESSURE VOLUME PRESSAVG GPRESSAVG
ENERGY: 0 0.4972 2.7935 1.1838 0.0000 -10507.4751 1348.2103 0.0000 0.0000 1739.2917 -7415.4985 300.6703 -9154.7902 -7415.4985 300.6703 -793.5804 -708.7227 30302.5570 -793.5804 -708.7227
ENERGY: 300000 1.5918 3.0276 2.8714 0.0000 -10549.9294 1428.3608 0.0000 0.0000 1757.7192 -7356.3587 303.8559 -9114.0779 -7404.8398 300.2256 281.1182 318.9839 29569.8205 157.2464 242.0193
ENERGY: 600000 0.5737 3.9959 3.0196 0.0000 -10640.1047 1494.8236 0.0000 0.0000 1793.8462 -7343.8458 310.1012 -9137.6920 -7410.5812 300.4487 686.8421 745.9843 29742.3846 185.4167 265.6850
ENERGY: 900000 2.0622 4.3169 1.4695 0.0000 -10402.9074 1340.6392 0.0000 0.0000 1693.2981 -7361.1215 292.7195 -9054.4196 -7387.9539 300.0628 -793.8504 -759.3634 30531.5949 23.1798 102.7051
ENERGY: 1200000 0.5020 3.7287 1.4870 0.0000 -10647.8257 1433.5054 0.0000 0.0000 1736.2437 -7472.3589 300.1434 -9208.6026 -7397.3555 300.2634 -86.2780 -28.6343 29674.6557 43.8257 107.3954
ENERGY: 1500000 0.7092 4.2751 1.3843 0.0000 -10466.0311 1359.2828 0.0000 0.0000 1758.4147 -7341.9650 303.9761 -9100.3797 -7396.9036 299.4197 -591.3262 -572.8032 30183.1277 -35.6123 17.4652
TCL: Running FEP window   2: Lambda1 0.05   Lambda2 0.1    [dLambda 0.05  ]
TCL: Setting parameter firsttimestep to 0
TCL: Setting parameter alchLambda to 0.05
Info: NONBONDED TABLE R-SQUARED SPACING: 0.0625
Info: NONBONDED TABLE SIZE: 705 POINTS
TCL: Setting parameter alchLambda2 to 0.1
Info: NONBONDED TABLE R-SQUARED SPACING: 0.0625
Info: NONBONDED TABLE SIZE: 705 POINTS
TCL: Running for 1500000 steps
ETITLE: TS BOND ANGLE DIHED IMPRP ELECT VDW BOUNDARY MISC KINETIC TOTAL TEMP POTENTIAL TOTALAVG TEMPAVG PRESSURE GPRESSURE VOLUME PRESSAVG GPRESSAVG
ENERGY: 0 0.7092 4.2751 1.3843 0.0000 -10466.0299 1360.8578 0.0000 0.0000 1757.5490 -7341.2545 303.8265 -9098.8034 -7341.2545 303.8265 -642.9952 -565.0458 30183.1277 -642.9952 -565.0458
ENERGY: 300000 0.3709 4.9304 1.5132 0.0000 -10489.1023 1369.2633 0.0000 0.0000 1731.2463 -7381.7783 299.2795 -9113.0245 -7419.4246 297.9500 -474.5841 -481.7056 30325.5849 -162.0790 -137.8389
ENERGY: 600000 0.4969 1.6600 1.3342 0.0000 -10596.1039 1375.5082 0.0000 0.0000 1694.6080 -7522.4965 292.9459 -9217.1045 -7454.8522 298.1345 -689.2741 -597.6499 29817.2714 -131.6300 -92.9953
ENERGY: 900000 0.0321 1.0960 3.5168 0.0000 -10491.9992 1353.4032 0.0000 0.0000 1687.0264 -7446.9248 291.6353 -9133.9511 -7441.7480 296.7636 -541.6125 -539.6591 30231.6559 -132.1024 -96.1201
ENERGY: 1200000 3.7118 4.3671 2.7212 0.0000 -10678.5936 1492.3641 0.0000 0.0000 1695.7701 -7479.6591 293.1468 -9175.4293 -7439.8258 296.4209 163.5405 239.6299 30038.9383 -118.8724 -73.8919
ENERGY: 1500000 0.1527 2.9380 2.3732 0.0000 -10579.8519 1465.6531 0.0000 0.0000 1758.0381 -7350.6967 303.9110 -9108.7348 -7431.7213 296.8968 335.8501 468.5696 29739.9440 -62.8396 -8.3893
TCL: Running FEP window   3: Lambda1 0.1    Lambda2 0.15000000000000002 [dLambda 0.05000000000000002]
TCL: Setting parameter firsttimestep to 0
TCL: Setting parameter alchLambda to 0.1
Info: NONBONDED TABLE R-SQUARED SPACING: 0.0625
Info: NONBONDED TABLE SIZE: 705 POINTS
TCL: Setting parameter alchLambda2 to 0.15000000000000002
Info: NONBONDED TABLE R-SQUARED SPACING: 0.0625
Info: NONBONDED TABLE SIZE: 705 POINTS
TCL: Running for 1500000 steps
ETITLE: TS BOND ANGLE DIHED IMPRP ELECT VDW BOUNDARY MISC KINETIC TOTAL TEMP POTENTIAL TOTALAVG TEMPAVG PRESSURE GPRESSURE VOLUME PRESSAVG GPRESSAVG
ENERGY: 0 0.1527 2.9380 2.3732 0.0000 -10579.8508 1466.7678 0.0000 0.0000 1757.2003 -7350.4187 303.7662 -9107.6190 -7350.4187 303.7662 390.8976 473.7447 29739.9440 390.8976 473.7447
ENERGY: 300000 0.7954 4.5086 1.2757 0.0000 -10522.7654 1407.2830 0.0000 0.0000 1775.0634 -7333.8392 306.8542 -9108.9026 -7320.2799 305.3237 -163.6380 -100.1894 30160.3065 93.9254 164.9461
ENERGY: 600000 0.2755 5.9086 2.6918 0.0000 -10452.2677 1408.9923 0.0000 0.0000 1752.9671 -7281.4324 303.0344 -9034.3995 -7330.3851 304.3904 -19.8729 41.9436 30321.4523 -154.5517 -100.4664
ENERGY: 900000 0.2943 1.6452 2.0106 0.0000 -10542.4928 1451.9081 0.0000 0.0000 1743.7548 -7342.8798 301.4419 -9086.6346 -7348.6662 303.5615 99.6202 180.1006 30226.5926 38.6660 92.8340
ENERGY: 1200000 0.6501 1.0636 1.5572 0.0000 -10494.2332 1462.9280 0.0000 0.0000 1725.1400 -7302.8942 298.2240 -9028.0342 -7341.1163 303.2704 739.9826 751.0037 29780.5787 32.4148 79.8844
ENERGY: 1500000 1.1213 3.7517 2.5011 0.0000 -10571.4334 1442.6410 0.0000 0.0000 1719.2659 -7402.1524 297.2085 -9121.4183 -7339.2140 303.4892 234.9307 240.1505 29928.7021 -44.2016 1.3992
TCL: Running FEP window   4: Lambda1 0.15000000000000002 Lambda2 0.2    [dLambda 0.04999999999999999]
TCL: Setting parameter firsttimestep to 0
TCL: Setting parameter alchLambda to 0.15000000000000002
Info: NONBONDED TABLE R-SQUARED SPACING: 0.0625
Info: NONBONDED TABLE SIZE: 705 POINTS
TCL: Setting parameter alchLambda2 to 0.2
Info: NONBONDED TABLE R-SQUARED SPACING: 0.0625
Info: NONBONDED TABLE SIZE: 705 POINTS
TCL: Running for 1500000 steps
ETITLE: TS BOND ANGLE DIHED IMPRP ELECT VDW BOUNDARY MISC KINETIC TOTAL TEMP POTENTIAL TOTALAVG TEMPAVG PRESSURE GPRESSURE VOLUME PRESSAVG GPRESSAVG
ENERGY: 0 1.1213 3.7517 2.5011 0.0000 -10571.4334 1442.2461 0.0000 0.0000 1718.4398 -7403.3734 297.0657 -9121.8132 -7403.3734 297.0657 166.8284 240.0736 29928.7021 166.8284 240.0736
ENERGY: 300000 1.9516 4.2116 2.4211 0.0000 -10709.9434 1537.7156 0.0000 0.0000 1729.1222 -7434.5213 298.9123 -9163.6435 -7384.2963 302.2384 986.6959 1083.5285 29541.2179 419.3876 493.1533
ENERGY: 600000 0.3907 1.1881 2.3705 0.0000 -10503.9122 1390.4461 0.0000 0.0000 1710.6825 -7398.8342 295.7247 -9109.5168 -7392.6926 299.4830 -443.4274 -374.9535 30341.6578 272.6299 334.2443
ENERGY: 900000 0.5242 1.5306 2.5397 0.0000 -10573.6910 1420.6253 0.0000 0.0000 1720.7331 -7427.7380 297.4621 -9148.4711 -7383.6478 300.5268 -20.2855 30.3215 29696.3846 132.4723 201.0061
ENERGY: 1200000 1.9745 3.1607 2.8212 0.0000 -10434.3686 1354.9408 0.0000 0.0000 1786.7349 -7284.7365 308.8718 -9071.4714 -7369.6770 301.3259 -369.8365 -392.3125 30150.5886 87.3829 148.5883
ENERGY: 1500000 2.0835 3.4485 1.6875 0.0000 -10573.2251 1464.4369 0.0000 0.0000 1745.4475 -7356.1213 301.7345 -9101.5688 -7370.7837 301.3817 572.7810 602.0003 29766.6344 198.3307 256.5090
TCL: Running FEP window   5: Lambda1 0.2    Lambda2 0.25   [dLambda 0.04999999999999999]
TCL: Setting parameter firsttimestep to 0
TCL: Setting parameter alchLambda to 0.2
Info: NONBONDED TABLE R-SQUARED SPACING: 0.0625
Info: NONBONDED TABLE SIZE: 705 POINTS
TCL: Setting parameter alchLambda2 to 0.25
Info: NONBONDED TABLE R-SQUARED SPACING: 0.0625
Info: NONBONDED TABLE SIZE: 705 POINTS
TCL: Running for 1500000 steps
ETITLE: TS BOND ANGLE DIHED IMPRP ELECT VDW BOUNDARY MISC KINETIC TOTAL TEMP POTENTIAL TOTALAVG TEMPAVG PRESSURE GPRESSURE VOLUME PRESSAVG GPRESSAVG
ENERGY: 0 2.0835 3.4485 1.6875 0.0000 -10573.2248 1464.3209 0.0000 0.0000 1744.6034 -7357.0811 301.5886 -9101.6844 -7357.0811 301.5886 528.0679 601.6120 29766.6344 528.0679 601.6120
ENERGY: 300000 0.9755 6.0655 1.7432 0.0000 -10574.3592 1436.7315 0.0000 0.0000 1740.7647 -7388.0787 300.9250 -9128.8435 -7369.3385 300.0581 162.1238 126.3850 29904.9679 -148.6310 -110.4566
ENERGY: 600000 0.0189 3.5245 1.4473 0.0000 -10550.7234 1406.1774 0.0000 0.0000 1737.4259 -7402.1293 300.3478 -9139.5552 -7391.2571 299.6226 -99.5328 -47.1219 29818.1347 -348.9524 -308.9853
ENERGY: 900000 0.5872 1.2778 1.4613 0.0000 -10540.6770 1383.3937 0.0000 0.0000 1755.5657 -7398.3914 303.4836 -9153.9570 -7396.2387 299.3360 -389.3219 -261.4026 29933.0448 -302.4320 -252.7348
ENERGY: 1200000 1.1388 4.0605 1.3482 0.0000 -10590.8798 1454.3940 0.0000 0.0000 1756.7042 -7373.2341 303.6804 -9129.9383 -7391.4932 299.7709 423.7968 401.1162 29630.9323 -174.0992 -120.3077
ENERGY: 1500000 0.1012 2.4185 1.6992 0.0000 -10542.2355 1369.9666 0.0000 0.0000 1791.7450 -7376.3051 309.7379 -9168.0501 -7401.4990 299.4212 -580.5148 -573.1697 30147.5216 -210.7385 -157.4811
TCL: Running FEP window   6: Lambda1 0.25   Lambda2 0.3    [dLambda 0.04999999999999999]
TCL: Setting parameter firsttimestep to 0
TCL: Setting parameter alchLambda to 0.25
Info: NONBONDED TABLE R-SQUARED SPACING: 0.0625
Info: NONBONDED TABLE SIZE: 705 POINTS
TCL: Setting parameter alchLambda2 to 0.3
Info: NONBONDED TABLE R-SQUARED SPACING: 0.0625
Info: NONBONDED TABLE SIZE: 705 POINTS
TCL: Running for 1500000 steps
ETITLE: TS BOND ANGLE DIHED IMPRP ELECT VDW BOUNDARY MISC KINETIC TOTAL TEMP POTENTIAL TOTALAVG TEMPAVG PRESSURE GPRESSURE VOLUME PRESSAVG GPRESSAVG
ENERGY: 0 0.1012 2.4185 1.6992 0.0000 -10542.2335 1370.1546 0.0000 0.0000 1790.8774 -7376.9826 309.5879 -9167.8600 -7376.9826 309.5879 -635.2437 -567.6435 30147.5216 -635.2437 -567.6435
ENERGY: 300000 1.6468 2.2835 1.1562 0.0000 -10642.4087 1470.6458 0.0000 0.0000 1675.7960 -7490.8803 289.6939 -9166.6763 -7389.5593 300.1110 -125.7551 -38.7027 30085.3565 -363.4902 -295.2721
ENERGY: 600000 0.9133 2.6069 1.3632 0.0000 -10724.5216 1495.8302 0.0000 0.0000 1687.4257 -7536.3822 291.7043 -9223.8079 -7416.1192 298.2429 402.7992 487.6715 29547.4275 -240.5085 -166.4701
ENERGY: 900000 1.6870 2.5410 2.5035 0.0000 -10537.7679 1401.1270 0.0000 0.0000 1735.5529 -7394.3565 300.0240 -9129.9094 -7419.0887 298.8323 -407.7958 -312.4000 30049.9348 -209.7097 -136.4464
ENERGY: 1200000 0.4102 3.5845 2.5389 0.0000 -10677.3039 1463.0768 0.0000 0.0000 1741.8957 -7465.7979 301.1205 -9207.6936 -7423.9954 299.2965 333.0539 434.3296 29313.2612 -121.7204 -54.7169
ENERGY: 1500000 1.1525 4.7806 1.2166 0.0000 -10533.4792 1449.1636 0.0000 0.0000 1760.4504 -7316.7155 304.3280 -9077.1659 -7422.6497 299.3600 349.7158 347.4047 30016.1324 -68.4854 -2.6745
TCL: Running FEP window   7: Lambda1 0.3    Lambda2 0.35   [dLambda 0.04999999999999999]
TCL: Setting parameter firsttimestep to 0
TCL: Setting parameter alchLambda to 0.3
Info: NONBONDED TABLE R-SQUARED SPACING: 0.0625
Info: NONBONDED TABLE SIZE: 705 POINTS
TCL: Setting parameter alchLambda2 to 0.35
Info: NONBONDED TABLE R-SQUARED SPACING: 0.0625
Info: NONBONDED TABLE SIZE: 705 POINTS
TCL: Running for 1500000 steps
ETITLE: TS BOND ANGLE DIHED IMPRP ELECT VDW BOUNDARY MISC KINETIC TOTAL TEMP POTENTIAL TOTALAVG TEMPAVG PRESSURE GPRESSURE VOLUME PRESSAVG GPRESSAVG
ENERGY: 0 1.1525 4.7806 1.2166 0.0000 -10533.4797 1449.9620 0.0000 0.0000 1759.5721 -7316.7958 304.1762 -9076.3679 -7316.7958 304.1762 275.8426 358.2992 30016.1324 275.8426 358.2992
ENERGY: 300000 1.5912 2.1380 2.6452 0.0000 -10564.2843 1409.7997 0.0000 0.0000 1748.0840 -7400.0262 302.1903 -9148.1102 -7337.6880 304.0442 -28.9575 26.1781 29710.8905 -218.9736 -161.4568
ENERGY: 600000 1.3278 2.9386 1.1721 0.0000 -10461.8301 1379.6541 0.0000 0.0000 1790.0237 -7286.7139 309.4404 -9076.7376 -7350.2481 302.3203 -166.5892 -68.9634 30020.8534 -274.3775 -211.6266
ENERGY: 900000 0.7634 2.2797 1.3604 0.0000 -10533.4711 1450.6373 0.0000 0.0000 1745.9833 -7332.4470 301.8271 -9078.4303 -7364.2902 301.5190 119.7302 173.7354 30422.7928 -218.5156 -161.3369
ENERGY: 1200000 0.1161 2.7841 2.0037 0.0000 -10560.5818 1439.0167 0.0000 0.0000 1765.9149 -7350.7463 305.2727 -9116.6612 -7366.3942 302.2180 12.0670 62.0155 30312.1257 -212.7850 -155.3351
ENERGY: 1500000 0.8755 2.9144 2.3733 0.0000 -10526.2491 1364.3981 0.0000 0.0000 1656.3149 -7499.3730 286.3262 -9155.6879 -7378.1757 301.0264 -510.1410 -439.6876 29658.7607 -211.5740 -149.5501
TCL: Running FEP window   8: Lambda1 0.35   Lambda2 0.39999999999999997 [dLambda 0.04999999999999999]
TCL: Setting parameter firsttimestep to 0
TCL: Setting parameter alchLambda to 0.35
Info: NONBONDED TABLE R-SQUARED SPACING: 0.0625
Info: NONBONDED TABLE SIZE: 705 POINTS
TCL: Setting parameter alchLambda2 to 0.39999999999999997
Info: NONBONDED TABLE R-SQUARED SPACING: 0.0625
Info: NONBONDED TABLE SIZE: 705 POINTS
TCL: Running for 1500000 steps
ETITLE: TS BOND ANGLE DIHED IMPRP ELECT VDW BOUNDARY MISC KINETIC TOTAL TEMP POTENTIAL TOTALAVG TEMPAVG PRESSURE GPRESSURE VOLUME PRESSAVG GPRESSAVG
ENERGY: 0 0.8755 2.9144 2.3733 0.0000 -10526.2481 1364.6328 0.0000 0.0000 1655.4537 -7499.9984 286.1773 -9155.4522 -7499.9984 286.1773 -519.3713 -433.7326 29658.7607 -519.3713 -433.7326
ENERGY: 300000 0.8586 6.6841 2.6034 0.0000 -10616.2899 1421.6836 0.0000 0.0000 1745.2049 -7439.2553 301.6926 -9184.4602 -7426.0042 295.7808 -67.9336 -14.6768 29835.6288 -82.4632 -38.9266
ENERGY: 600000 1.2620 3.1648 2.0355 0.0000 -10468.3448 1391.0586 0.0000 0.0000 1737.4539 -7333.3698 300.3527 -9070.8238 -7409.0657 297.3930 -102.5559 -11.7675 30018.9251 -151.3235 -86.1064
ENERGY: 900000 0.0991 2.8341 1.5297 0.0000 -10533.9987 1449.2854 0.0000 0.0000 1744.3853 -7335.8651 301.5509 -9080.2505 -7407.4847 297.7887 83.8142 58.6220 30652.6945 -143.2353 -86.1963
ENERGY: 1200000 0.8859 3.4869 1.6300 0.0000 -10673.4191 1435.9277 0.0000 0.0000 1708.7633 -7522.7252 295.3929 -9231.4885 -7424.7476 296.8819 -172.3719 -150.5275 29829.9624 -95.4846 -34.8114
ENERGY: 1500000 0.3706 1.2385 2.3768 0.0000 -10561.3031 1433.1668 0.0000 0.0000 1672.8362 -7451.3143 289.1822 -9124.1504 -7425.8510 296.0798 397.9681 437.0257 29504.0358 -111.9148 -53.6329
TCL: Running FEP window   9: Lambda1 0.39999999999999997 Lambda2 0.44999999999999996 [dLambda 0.04999999999999999]
TCL: Setting parameter firsttimestep to 0
TCL: Setting parameter alchLambda to 0.39999999999999997
Info: NONBONDED TABLE R-SQUARED SPACING: 0.0625
Info: NONBONDED TABLE SIZE: 705 POINTS
TCL: Setting parameter alchLambda2 to 0.44999999999999996
Info: NONBONDED TABLE R-SQUARED SPACING: 0.0625
Info: NONBONDED TABLE SIZE: 705 POINTS
TCL: Running for 1500000 steps
ETITLE: TS BOND ANGLE DIHED IMPRP ELECT VDW BOUNDARY MISC KINETIC TOTAL TEMP POTENTIAL TOTALAVG TEMPAVG PRESSURE GPRESSURE VOLUME PRESSAVG GPRESSAVG
ENERGY: 0 0.3706 1.2385 2.3768 0.0000 -10561.3018 1432.8600 0.0000 0.0000 1671.9618 -7452.4941 289.0311 -9124.4559 -7452.4941 289.0311 357.7373 439.8633 29504.0358 357.7373 439.8633
ENERGY: 300000 0.8873 3.5097 2.7999 0.0000 -10690.9869 1521.2059 0.0000 0.0000 1703.7933 -7458.7907 294.5338 -9162.5840 -7456.2381 298.4277 450.7603 469.6331 30403.9183 311.6609 374.2009
ENERGY: 600000 0.1178 1.3700 2.7745 0.0000 -10587.0132 1453.3079 0.0000 0.0000 1749.3496 -7380.0934 302.4091 -9129.4431 -7410.0853 301.6988 203.5120 289.3472 30023.1956 200.0572 265.2482
ENERGY: 900000 0.7381 1.4710 1.5501 0.0000 -10524.5326 1375.3617 0.0000 0.0000 1712.1211 -7433.2906 295.9734 -9145.4117 -7405.6086 301.6776 -594.3110 -502.4127 30430.8726 118.0572 189.9987
ENERGY: 1200000 0.4113 2.5346 3.4759 0.0000 -10446.1493 1373.5970 0.0000 0.0000 1704.0725 -7362.0581 294.5820 -9066.1305 -7404.3000 301.5227 -79.9034 -10.0321 29643.3639 1.7245 73.9524
ENERGY: 1500000 1.9930 3.0936 2.0386 0.0000 -10528.9290 1400.5286 0.0000 0.0000 1721.9843 -7399.2909 297.6784 -9121.2752 -7414.6583 300.7118 149.4782 193.9931 29320.8389 -26.2476 38.0419
TCL: Running FEP window  10: Lambda1 0.44999999999999996 Lambda2 0.49999999999999994 [dLambda 0.04999999999999999]
TCL: Setting parameter firsttimestep to 0
TCL: Setting parameter alchLambda to 0.44999999999999996
Info: NONBONDED TABLE R-SQUARED SPACING: 0.0625
Info: NONBONDED TABLE SIZE: 705 POINTS
TCL: Setting parameter alchLambda2 to 0.49999999999999994
Info: NONBONDED TABLE R-SQUARED SPACING: 0.0625
Info: NONBONDED TABLE SIZE: 705 POINTS
TCL: Running for 1500000 steps
ETITLE: TS BOND ANGLE DIHED IMPRP ELECT VDW BOUNDARY MISC KINETIC TOTAL TEMP POTENTIAL TOTALAVG TEMPAVG PRESSURE GPRESSURE VOLUME PRESSAVG GPRESSAVG
ENERGY: 0 1.9930 3.0936 2.0386 0.0000 -10528.9288 1400.7726 0.0000 0.0000 1721.1284 -7399.9026 297.5305 -9121.0310 -7399.9026 297.5305 97.9195 198.4887 29320.8389 97.9195 198.4887
ENERGY: 300000 1.3713 2.9413 1.3590 0.0000 -10541.7405 1355.7119 0.0000 0.0000 1653.9959 -7526.3611 285.9253 -9180.3570 -7407.1667 297.9052 -802.1460 -711.7191 30048.0384 -432.0220 -348.0270
ENERGY: 600000 0.5210 4.1195 2.4121 0.0000 -10382.0907 1348.6243 0.0000 0.0000 1743.4468 -7282.9671 301.3886 -9026.4139 -7368.6574 300.5030 -153.3630 -82.0312 29798.5161 -298.5735 -223.4112
ENERGY: 900000 1.8049 4.2085 2.5123 0.0000 -10546.7528 1428.4379 0.0000 0.0000 1784.2258 -7325.5634 308.4381 -9109.7892 -7372.2418 301.3623 -77.8029 -38.2685 30435.3466 -208.5801 -147.7957
ENERGY: 1200000 0.0660 2.7961 2.9229 0.0000 -10679.0968 1469.0566 0.0000 0.0000 1720.0374 -7484.2178 297.3419 -9204.2552 -7376.3676 301.9895 76.0215 83.3572 30226.9176 -209.8678 -147.7950
ENERGY: 1500000 0.7393 3.2215 1.3066 0.0000 -10740.8105 1480.5828 0.0000 0.0000 1755.4726 -7499.4876 303.4675 -9254.9602 -7383.6194 301.7160 270.7950 272.1850 29676.2232 -211.6129 -159.6182
TCL: Running FEP window  11: Lambda1 0.49999999999999994 Lambda2 0.5499999999999999 [dLambda 0.04999999999999999]
TCL: Setting parameter firsttimestep to 0
TCL: Setting parameter alchLambda to 0.49999999999999994
Info: NONBONDED TABLE R-SQUARED SPACING: 0.0625
Info: NONBONDED TABLE SIZE: 705 POINTS
TCL: Setting parameter alchLambda2 to 0.5499999999999999
Info: NONBONDED TABLE R-SQUARED SPACING: 0.0625
Info: NONBONDED TABLE SIZE: 705 POINTS
TCL: Running for 1500000 steps
ETITLE: TS BOND ANGLE DIHED IMPRP ELECT VDW BOUNDARY MISC KINETIC TOTAL TEMP POTENTIAL TOTALAVG TEMPAVG PRESSURE GPRESSURE VOLUME PRESSAVG GPRESSAVG
ENERGY: 0 0.7393 3.2215 1.3066 0.0000 -10740.8102 1481.4665 0.0000 0.0000 1754.6497 -7499.4265 303.3253 -9254.0762 -7499.4265 303.3253 210.5812 289.2357 29676.2232 210.5812 289.2357
ENERGY: 300000 0.9063 2.1169 2.8581 0.0000 -10506.3840 1341.9253 0.0000 0.0000 1713.8556 -7444.7218 296.2732 -9158.5774 -7419.9769 300.7623 -789.7207 -758.4226 30213.7225 19.7774 81.7083
ENERGY: 600000 2.3087 2.4794 3.0877 0.0000 -10512.5679 1362.0207 0.0000 0.0000 1753.2642 -7389.4072 303.0858 -9142.6714 -7396.6913 301.3932 -660.6219 -655.0998 30224.4528 -101.1711 -50.1881
ENERGY: 900000 0.6370 4.4282 1.2898 0.0000 -10482.5724 1383.8642 0.0000 0.0000 1729.4259 -7362.9274 298.9649 -9092.3533 -7379.5149 302.4285 -179.6971 -120.4372 29847.5369 -27.4230 20.7558
ENERGY: 1200000 0.3514 5.1670 2.5231 0.0000 -10550.6200 1370.3512 0.0000 0.0000 1734.6579 -7437.5693 299.8693 -9172.2273 -7388.7284 301.5331 -607.3938 -468.4267 30206.3198 -145.4232 -88.3063
ENERGY: 1500000 1.8898 1.1070 2.5300 0.0000 -10487.9740 1327.2133 0.0000 0.0000 1742.9722 -7412.2616 301.3066 -9155.2338 -7391.9522 301.5107 -939.2461 -856.7583 30201.0026 -231.9180 -175.2157
TCL: Running FEP window  12: Lambda1 0.5499999999999999 Lambda2 0.6    [dLambda 0.050000000000000044]
TCL: Setting parameter firsttimestep to 0
TCL: Setting parameter alchLambda to 0.5499999999999999
Info: NONBONDED TABLE R-SQUARED SPACING: 0.0625
Info: NONBONDED TABLE SIZE: 705 POINTS
TCL: Setting parameter alchLambda2 to 0.6
Info: NONBONDED TABLE R-SQUARED SPACING: 0.0625
Info: NONBONDED TABLE SIZE: 705 POINTS
TCL: Running for 1500000 steps
ETITLE: TS BOND ANGLE DIHED IMPRP ELECT VDW BOUNDARY MISC KINETIC TOTAL TEMP POTENTIAL TOTALAVG TEMPAVG PRESSURE GPRESSURE VOLUME PRESSAVG GPRESSAVG
ENERGY: 0 1.8899 1.1070 2.5300 0.0000 -10488.0942 1327.9899 0.0000 0.0000 1742.1244 -7412.4531 301.1600 -9154.5774 -7412.4531 301.1600 -921.9940 -845.8312 30201.0026 -921.9940 -845.8312
ENERGY: 300000 0.3726 2.0384 2.4090 0.0000 -10604.4480 1425.8351 0.0000 0.0000 1771.0925 -7402.7003 306.1677 -9173.7928 -7375.8707 303.0187 -184.9588 -90.8646 30164.5039 -373.3674 -294.6507
ENERGY: 600000 0.9307 2.4255 2.5500 0.0000 -10544.3747 1353.4468 0.0000 0.0000 1695.3661 -7489.6558 293.0770 -9185.0219 -7376.0224 299.9977 -757.4347 -742.7099 30076.6335 -283.7897 -220.8813
ENERGY: 900000 1.0156 2.1752 1.3833 0.0000 -10647.0773 1451.9026 0.0000 0.0000 1723.7509 -7466.8497 297.9838 -9190.6007 -7380.3872 301.5605 100.4847 220.6350 29977.1311 -95.4710 -30.9127
ENERGY: 1200000 0.2170 4.5029 1.1626 0.0000 -10550.8171 1382.0508 0.0000 0.0000 1706.8139 -7456.0699 295.0559 -9162.8838 -7388.1170 301.1931 -380.0600 -315.5533 29846.0877 -179.4371 -112.3443
ENERGY: 1500000 2.6036 3.0188 1.2973 0.0000 -10590.0168 1417.2626 0.0000 0.0000 1853.2323 -7312.6021 320.3672 -9165.8345 -7387.0082 302.3967 125.5491 94.0899 29776.1772 -102.0268 -43.8835
TCL: Running FEP window  13: Lambda1 0.6    Lambda2 0.65   [dLambda 0.050000000000000044]
TCL: Setting parameter firsttimestep to 0
TCL: Setting parameter alchLambda to 0.6
Info: NONBONDED TABLE R-SQUARED SPACING: 0.0625
Info: NONBONDED TABLE SIZE: 705 POINTS
TCL: Setting parameter alchLambda2 to 0.65
Info: NONBONDED TABLE R-SQUARED SPACING: 0.0625
Info: NONBONDED TABLE SIZE: 705 POINTS
TCL: Running for 1500000 steps
ETITLE: TS BOND ANGLE DIHED IMPRP ELECT VDW BOUNDARY MISC KINETIC TOTAL TEMP POTENTIAL TOTALAVG TEMPAVG PRESSURE GPRESSURE VOLUME PRESSAVG GPRESSAVG
ENERGY: 0 2.6037 3.0188 1.2973 0.0000 -10590.1267 1417.4939 0.0000 0.0000 1852.3617 -7313.3514 320.2167 -9165.7131 -7313.3514 320.2167 32.0592 102.3402 29776.1772 32.0592 102.3402
ENERGY: 300000 0.4648 2.2895 2.7041 0.0000 -10442.3809 1369.3551 0.0000 0.0000 1726.8294 -7340.7380 298.5160 -9067.5674 -7348.4328 306.8420 3.6657 82.8125 29790.1449 55.0795 127.1548
ENERGY: 600000 0.7248 2.0858 2.4386 0.0000 -10602.0261 1449.6092 0.0000 0.0000 1771.9915 -7375.1763 306.3231 -9147.1677 -7370.1237 304.2294 491.3610 516.0814 29622.5133 28.4690 81.5780
ENERGY: 900000 1.3886 3.6836 1.2254 0.0000 -10538.8115 1408.6994 0.0000 0.0000 1736.7397 -7387.0748 300.2292 -9123.8146 -7379.9381 302.4115 -95.3928 -47.6894 30000.6834 94.1415 147.4720
ENERGY: 1200000 0.6423 2.5225 2.6564 0.0000 -10464.5949 1368.6501 0.0000 0.0000 1759.2124 -7330.9111 304.1140 -9090.1235 -7382.5502 301.8974 -368.7771 -379.5273 30350.3186 42.7035 100.8024
ENERGY: 1500000 2.2762 4.7932 2.6642 0.0000 -10552.2334 1466.4376 0.0000 0.0000 1779.1088 -7296.9535 307.5535 -9076.0623 -7373.7296 302.3051 837.5565 924.9011 29520.2803 108.0052 162.0456
TCL: Running FEP window  14: Lambda1 0.65   Lambda2 0.7000000000000001 [dLambda 0.050000000000000044]
TCL: Setting parameter firsttimestep to 0
TCL: Setting parameter alchLambda to 0.65
Info: NONBONDED TABLE R-SQUARED SPACING: 0.0625
Info: NONBONDED TABLE SIZE: 705 POINTS
TCL: Setting parameter alchLambda2 to 0.7000000000000001
Info: NONBONDED TABLE R-SQUARED SPACING: 0.0625
Info: NONBONDED TABLE SIZE: 705 POINTS
TCL: Running for 1500000 steps
ETITLE: TS BOND ANGLE DIHED IMPRP ELECT VDW BOUNDARY MISC KINETIC TOTAL TEMP POTENTIAL TOTALAVG TEMPAVG PRESSURE GPRESSURE VOLUME PRESSAVG GPRESSAVG
ENERGY: 0 2.2762 4.7932 2.6642 0.0000 -10552.3665 1465.9470 0.0000 0.0000 1778.2591 -7298.4268 307.4066 -9076.6859 -7298.4268 307.4066 841.6054 928.3109 29520.2803 841.6054 928.3109
ENERGY: 300000 1.0797 1.7136 1.2469 0.0000 -10360.9707 1310.3959 0.0000 0.0000 1758.1552 -7288.3794 303.9313 -9046.5346 -7346.1941 302.5649 -758.5942 -671.4275 30430.2440 -179.5869 -94.9545
ENERGY: 600000 0.5669 5.7090 1.3183 0.0000 -10691.5444 1489.5201 0.0000 0.0000 1754.1007 -7440.3293 303.2304 -9194.4300 -7369.3776 301.3185 266.1163 348.2694 29890.2579 -49.9804 30.8094
ENERGY: 900000 0.6426 2.9292 1.5037 0.0000 -10564.0596 1397.8225 0.0000 0.0000 1716.4383 -7444.7234 296.7197 -9161.1617 -7375.5872 300.8640 -260.5769 -233.6055 29855.1683 -144.3846 -77.2619
ENERGY: 1200000 0.5256 2.4794 2.4150 0.0000 -10581.9289 1409.4194 0.0000 0.0000 1745.0639 -7422.0256 301.6682 -9167.0894 -7387.8327 301.0269 -131.5364 -25.0571 29712.4362 -33.9794 25.7038
ENERGY: 1500000 0.7113 3.7360 1.1995 0.0000 -10429.5084 1342.3894 0.0000 0.0000 1744.3104 -7337.1616 301.5379 -9081.4721 -7387.3894 300.6506 -738.5855 -665.2144 30567.9108 -100.6185 -37.0943
TCL: Running FEP window  15: Lambda1 0.7000000000000001 Lambda2 0.7500000000000001 [dLambda 0.050000000000000044]
TCL: Setting parameter firsttimestep to 0
TCL: Setting parameter alchLambda to 0.7000000000000001
Info: NONBONDED TABLE R-SQUARED SPACING: 0.0625
Info: NONBONDED TABLE SIZE: 705 POINTS
TCL: Setting parameter alchLambda2 to 0.7500000000000001
Info: NONBONDED TABLE R-SQUARED SPACING: 0.0625
Info: NONBONDED TABLE SIZE: 705 POINTS
TCL: Running for 1500000 steps
ETITLE: TS BOND ANGLE DIHED IMPRP ELECT VDW BOUNDARY MISC KINETIC TOTAL TEMP POTENTIAL TOTALAVG TEMPAVG PRESSURE GPRESSURE VOLUME PRESSAVG GPRESSAVG
ENERGY: 0 0.7113 3.7360 1.1995 0.0000 -10429.5750 1342.7875 0.0000 0.0000 1743.4441 -7337.6966 301.3882 -9081.1407 -7337.6966 301.3882 -728.8156 -651.9956 30567.9108 -728.8156 -651.9956
ENERGY: 300000 1.9562 2.9030 1.2734 0.0000 -10668.4468 1433.1232 0.0000 0.0000 1735.9069 -7493.2842 300.0852 -9229.1911 -7391.4026 303.5922 -89.5153 -66.8309 29782.5979 -513.4443 -442.8191
ENERGY: 600000 0.9668 5.9988 2.5488 0.0000 -10527.6415 1395.4159 0.0000 0.0000 1725.7197 -7396.9916 298.3242 -9122.7112 -7398.5864 300.4478 -308.6181 -286.6971 30242.8979 -299.5528 -233.6290
ENERGY: 900000 0.2815 4.3988 2.5303 0.0000 -10583.8545 1389.6724 0.0000 0.0000 1732.4924 -7454.4790 299.4950 -9186.9715 -7391.1039 300.7064 -575.7153 -553.1554 30031.9659 -212.1291 -147.5083
ENERGY: 1200000 0.5313 6.6323 2.1458 0.0000 -10526.0302 1453.4777 0.0000 0.0000 1744.3113 -7318.9318 301.5381 -9063.2431 -7377.3090 302.2045 330.2420 346.1300 30165.3406 -60.7864 -4.3127
ENERGY: 1500000 1.1886 3.9778 3.3282 0.0000 -10488.5415 1377.3121 0.0000 0.0000 1745.1187 -7357.6162 301.6777 -9102.7349 -7382.4153 301.7473 -114.8152 -74.7127 29834.6837 -92.6300 -37.0945
TCL: Running FEP window  16: Lambda1 0.7500000000000001 Lambda2 0.8000000000000002 [dLambda 0.050000000000000044]
TCL: Setting parameter firsttimestep to 0
TCL: Setting parameter alchLambda to 0.7500000000000001
Info: NONBONDED TABLE R-SQUARED SPACING: 0.0625
Info: NONBONDED TABLE SIZE: 705 POINTS
TCL: Setting parameter alchLambda2 to 0.8000000000000002
Info: NONBONDED TABLE R-SQUARED SPACING: 0.0625
Info: NONBONDED TABLE SIZE: 705 POINTS
TCL: Running for 1500000 steps
ETITLE: TS BOND ANGLE DIHED IMPRP ELECT VDW BOUNDARY MISC KINETIC TOTAL TEMP POTENTIAL TOTALAVG TEMPAVG PRESSURE GPRESSURE VOLUME PRESSAVG GPRESSAVG
ENERGY: 0 1.1886 3.9778 3.3282 0.0000 -10488.8446 1378.2771 0.0000 0.0000 1744.2705 -7357.8024 301.5310 -9102.0729 -7357.8024 301.5310 -142.0628 -56.2512 29834.6837 -142.0628 -56.2512
ENERGY: 300000 0.7506 4.0897 3.3783 0.0000 -10636.6265 1452.1666 0.0000 0.0000 1694.9491 -7481.2922 293.0049 -9176.2412 -7439.8736 295.8213 236.5879 256.5921 29723.8559 88.5938 138.5541
ENERGY: 600000 0.6307 5.1459 1.3837 0.0000 -10612.0446 1445.8347 0.0000 0.0000 1718.5804 -7440.4692 297.0900 -9159.0496 -7448.9120 296.1040 -87.3605 1.2352 30195.2945 -45.7012 12.4410
ENERGY: 900000 0.2930 3.3453 2.5905 0.0000 -10608.5524 1392.9719 0.0000 0.0000 1739.4479 -7469.9038 300.6974 -9209.3517 -7422.2305 297.6179 -377.4684 -309.2601 29920.1121 -189.6753 -118.3052
ENERGY: 1200000 0.6542 1.5150 1.1737 0.0000 -10632.2307 1434.0376 0.0000 0.0000 1734.2732 -7460.5769 299.8028 -9194.8501 -7420.2952 298.9150 -78.8958 9.4897 29857.6971 -209.6938 -134.4440
ENERGY: 1500000 1.9288 1.1239 1.2503 0.0000 -10444.4243 1369.8272 0.0000 0.0000 1737.0724 -7333.2217 300.2867 -9070.2941 -7413.0740 298.4041 -282.4954 -293.1497 30128.5912 -232.1965 -161.9712
TCL: Running FEP window  17: Lambda1 0.8000000000000002 Lambda2 0.8500000000000002 [dLambda 0.050000000000000044]
TCL: Setting parameter firsttimestep to 0
TCL: Setting parameter alchLambda to 0.8000000000000002
Info: NONBONDED TABLE R-SQUARED SPACING: 0.0625
Info: NONBONDED TABLE SIZE: 705 POINTS
TCL: Setting parameter alchLambda2 to 0.8500000000000002
Info: NONBONDED TABLE R-SQUARED SPACING: 0.0625
Info: NONBONDED TABLE SIZE: 705 POINTS
TCL: Running for 1500000 steps
ETITLE: TS BOND ANGLE DIHED IMPRP ELECT VDW BOUNDARY MISC KINETIC TOTAL TEMP POTENTIAL TOTALAVG TEMPAVG PRESSURE GPRESSURE VOLUME PRESSAVG GPRESSAVG
ENERGY: 0 1.9288 1.1239 1.2503 0.0000 -10444.6900 1369.5128 0.0000 0.0000 1736.1739 -7334.7003 300.1314 -9070.8743 -7334.7003 300.1314 -379.8753 -291.2797 30128.5912 -379.8753 -291.2797
ENERGY: 300000 0.1016 1.6744 1.2512 0.0000 -10539.8702 1411.5650 0.0000 0.0000 1736.2804 -7388.9975 300.1498 -9125.2780 -7373.2151 296.4043 32.3716 144.5922 29949.2213 66.5520 144.5283
ENERGY: 600000 0.3962 1.3558 2.4104 0.0000 -10525.9178 1421.4258 0.0000 0.0000 1716.7847 -7383.5449 296.7796 -9100.3296 -7382.2128 297.6684 -166.6503 -68.9040 30461.5527 97.8944 171.3603
ENERGY: 900000 2.2092 3.8913 1.3867 0.0000 -10511.8328 1410.9559 0.0000 0.0000 1747.4199 -7345.9699 302.0755 -9093.3898 -7366.8228 298.8378 -72.9761 -4.7057 30163.6097 54.9885 128.0371
ENERGY: 1200000 0.3683 4.5458 1.3059 0.0000 -10525.6816 1412.2072 0.0000 0.0000 1691.4584 -7415.7960 292.4014 -9107.2544 -7367.3377 298.4397 177.1416 207.1896 29746.2203 53.8560 127.7162
ENERGY: 1500000 0.4058 2.1694 1.6226 0.0000 -10535.5919 1437.1856 0.0000 0.0000 1735.4933 -7358.7151 300.0137 -9094.2084 -7368.4049 297.8928 362.9874 436.0345 29790.4130 47.6435 117.8810
TCL: Running FEP window  18: Lambda1 0.8500000000000002 Lambda2 0.9000000000000002 [dLambda 0.050000000000000044]
TCL: Setting parameter firsttimestep to 0
TCL: Setting parameter alchLambda to 0.8500000000000002
Info: NONBONDED TABLE R-SQUARED SPACING: 0.0625
Info: NONBONDED TABLE SIZE: 705 POINTS
TCL: Setting parameter alchLambda2 to 0.9000000000000002
Info: NONBONDED TABLE R-SQUARED SPACING: 0.0625
Info: NONBONDED TABLE SIZE: 705 POINTS
TCL: Running for 1500000 steps
ETITLE: TS BOND ANGLE DIHED IMPRP ELECT VDW BOUNDARY MISC KINETIC TOTAL TEMP POTENTIAL TOTALAVG TEMPAVG PRESSURE GPRESSURE VOLUME PRESSAVG GPRESSAVG
ENERGY: 0 0.4058 2.1694 1.6226 0.0000 -10535.8368 1436.6787 0.0000 0.0000 1734.6284 -7360.3319 299.8642 -9094.9602 -7360.3319 299.8642 354.5240 440.1328 29790.4130 354.5240 440.1328
ENERGY: 300000 1.5583 5.3313 2.0059 0.0000 -10433.5255 1413.9361 0.0000 0.0000 1736.4251 -7274.2688 300.1748 -9010.6939 -7387.4475 295.3122 158.2709 261.1845 29988.5363 563.9892 646.6031
ENERGY: 600000 0.3922 3.9019 2.4443 0.0000 -10508.7766 1385.5255 0.0000 0.0000 1752.4888 -7364.0239 302.9517 -9116.5128 -7397.0826 297.1573 -79.1025 -88.4164 29844.1076 269.3931 316.5930
ENERGY: 900000 1.9438 4.7208 1.1497 0.0000 -10487.0865 1390.4818 0.0000 0.0000 1796.5584 -7292.2321 310.5700 -9088.7904 -7378.8885 300.0691 203.9538 238.0252 29726.1311 218.3971 261.7696
ENERGY: 1200000 0.9971 2.2439 1.1866 0.0000 -10682.0883 1508.9460 0.0000 0.0000 1738.6695 -7430.0451 300.5628 -9168.7147 -7380.2226 300.1270 396.1655 468.8307 30282.2568 172.5780 222.5610
ENERGY: 1500000 0.0698 3.4590 2.3711 0.0000 -10476.1993 1334.9094 0.0000 0.0000 1728.4913 -7406.8987 298.8033 -9135.3900 -7377.4317 300.3013 -789.4508 -797.1029 30386.9650 23.8840 74.6709
TCL: Running FEP window  19: Lambda1 0.9000000000000002 Lambda2 0.9500000000000003 [dLambda 0.050000000000000044]
TCL: Setting parameter firsttimestep to 0
TCL: Setting parameter alchLambda to 0.9000000000000002
Info: NONBONDED TABLE R-SQUARED SPACING: 0.0625
Info: NONBONDED TABLE SIZE: 705 POINTS
TCL: Setting parameter alchLambda2 to 0.9500000000000003
Info: NONBONDED TABLE R-SQUARED SPACING: 0.0625
Info: NONBONDED TABLE SIZE: 705 POINTS
TCL: Running for 1500000 steps
ETITLE: TS BOND ANGLE DIHED IMPRP ELECT VDW BOUNDARY MISC KINETIC TOTAL TEMP POTENTIAL TOTALAVG TEMPAVG PRESSURE GPRESSURE VOLUME PRESSAVG GPRESSAVG
ENERGY: 0 0.0698 3.4590 2.3711 0.0000 -10476.3725 1334.9030 0.0000 0.0000 1727.6097 -7407.9599 298.6509 -9135.5696 -7407.9599 298.6509 -867.2819 -790.5118 30386.9650 -867.2819 -790.5118
ENERGY: 300000 0.4751 3.3364 1.4257 0.0000 -10606.6510 1435.7217 0.0000 0.0000 1764.8031 -7400.8890 305.0805 -9165.6921 -7367.5287 300.3316 385.2296 382.7775 29512.8839 -210.9253 -150.7357
ENERGY: 600000 0.4974 7.8798 1.5668 0.0000 -10552.4710 1412.9347 0.0000 0.0000 1697.3493 -7432.2431 293.4198 -9129.5924 -7391.4680 298.9193 -58.8883 -53.8146 29970.1931 -180.2461 -123.7923
ENERGY: 900000 0.2867 4.3396 1.2391 0.0000 -10550.6802 1421.9210 0.0000 0.0000 1760.1041 -7362.7896 304.2682 -9122.8938 -7386.1953 299.6267 77.2387 207.9749 29777.1708 -158.6390 -96.5507
ENERGY: 1200000 2.4854 1.6326 2.0926 0.0000 -10539.4237 1383.9902 0.0000 0.0000 1719.4192 -7429.8037 297.2350 -9149.2229 -7394.3716 299.0809 -243.8834 -135.7319 29757.6831 -91.5516 -28.4425
ENERGY: 1500000 1.6692 4.0040 2.3653 0.0000 -10523.6546 1378.7002 0.0000 0.0000 1770.2318 -7366.6840 306.0190 -9136.9158 -7389.0691 300.1609 -172.2432 -118.6588 29946.4612 -107.9416 -53.1847
TCL: Running FEP window  20: Lambda1 0.9500000000000003 Lambda2 1.0    [dLambda 0.04999999999999971]
TCL: Setting parameter firsttimestep to 0
TCL: Setting parameter alchLambda to 0.9500000000000003
Info: NONBONDED TABLE R-SQUARED SPACING: 0.0625
Info: NONBONDED TABLE SIZE: 705 POINTS
TCL: Setting parameter alchLambda2 to 1.0
Info: NONBONDED TABLE R-SQUARED SPACING: 0.0625
Info: NONBONDED TABLE SIZE: 705 POINTS
TCL: Running for 1500000 steps
ETITLE: TS BOND ANGLE DIHED IMPRP ELECT VDW BOUNDARY MISC KINETIC TOTAL TEMP POTENTIAL TOTALAVG TEMPAVG PRESSURE GPRESSURE VOLUME PRESSAVG GPRESSAVG
ENERGY: 0 1.6692 4.0040 2.3653 0.0000 -10523.8876 1378.2244 0.0000 0.0000 1769.3600 -7368.2645 305.8683 -9137.6246 -7368.2645 305.8683 -202.9780 -117.3652 29946.4612 -202.9780 -117.3652
ENERGY: 300000 0.0902 2.7068 1.4324 0.0000 -10548.8711 1384.5993 0.0000 0.0000 1753.5721 -7406.4702 303.1390 -9160.0424 -7427.9987 298.9849 -325.2326 -258.3058 29948.2113 -87.7111 -27.7281
ENERGY: 600000 2.4912 3.1579 1.3584 0.0000 -10603.2604 1415.3542 0.0000 0.0000 1793.3592 -7387.5395 310.0170 -9180.8987 -7406.3394 302.7943 55.1427 96.3357 29801.2299 80.9508 139.4545
ENERGY: 900000 0.0236 4.1459 1.2305 0.0000 -10531.3723 1365.8068 0.0000 0.0000 1779.2491 -7380.9164 307.5778 -9160.1655 -7396.0357 301.9044 -426.7350 -378.0845 29831.4845 -91.2169 -41.6108
ENERGY: 1200000 1.0694 1.5974 1.4565 0.0000 -10537.4783 1391.1260 0.0000 0.0000 1730.3835 -7411.8456 299.1304 -9142.2291 -7405.3769 301.0562 -287.1162 -231.6479 29821.5941 -84.4419 -34.7614
ENERGY: 1500000 2.5670 2.6043 1.1669 0.0000 -10461.3982 1415.3122 0.0000 0.0000 1712.8071 -7326.9407 296.0920 -9039.7478 -7396.7399 299.9652 154.6600 167.7999 30398.9499 -103.0042 -55.9893
TCL: Exiting due to exit command.
