Info: SIMULATION PARAMETERS:
Info: TIMESTEP               2
Info: NUMBER OF STEPS        0
Info: STEPS PER CYCLE        10
Info: PERIODIC CELL BASIS 1  31.3548 0 0
Info: PERIODIC CELL BASIS 2  0 29.6789 0
Info: PERIODIC CELL BASIS 3  0 0 32.2856
Info: PERIODIC CELL CENTER   0 0 0
Info: WRAPPING WATERS AROUND PERIODIC BOUNDARIES ON OUTPUT.
Info: WRAPPING ALL CLUSTERS AROUND PERIODIC BOUNDARIES ON OUTPUT.
Info: FIRST LDB TIMESTEP     50
Info: LAST LDB TIMESTEP     -1
Info: HOM BACKGROUND SCALING 1
Info: PME BACKGROUND SCALING 1
Info: MIN ATOMS PER PATCH    40
Info: EMPTY PATCH LOAD       40 ATOMS
Info: VELOCITY FILE          mobley_1760914_equil.vel
Info: CENTER OF MASS MOVING INITIALLY? NO
Info: DIELECTRIC             1
Info: EXCLUDE                SCALED ONE-FOUR
Info: 1-4 ELECTROSTATICS SCALED BY 0.833333
Info: MODIFIED 1-4 VDW PARAMETERS WILL BE USED
Info: DCD FILENAME           mobley_1760914_prod.dcd
Info: DCD FREQUENCY          100000
Info: DCD FIRST STEP         100000
Info: DCD FILE WILL CONTAIN UNIT CELL DATA
Info: XST FILENAME           mobley_1760914_prod.xst
Info: XST FREQUENCY          100000
Info: NO VELOCITY DCD OUTPUT
Info: NO FORCE DCD OUTPUT
Info: OUTPUT FILENAME        mobley_1760914_prod
Info: BINARY OUTPUT FILES WILL BE USED
Info: RESTART FILENAME       mobley_1760914_prod.restart
Info: RESTART FREQUENCY      100000
Info: BINARY RESTART FILES WILL BE USED
Info: CUTOFF                 9
Info: PAIRLIST DISTANCE      11
Info: PAIRLIST SHRINK RATE   0.01
Info: PAIRLIST GROW RATE     0.01
Info: PAIRLIST TRIGGER       0.3
Info: PAIRLISTS PER CYCLE    2
Info: PAIRLISTS ENABLED
Info: MARGIN                 2
Info: HYDROGEN GROUP CUTOFF  2.5
Info: PATCH DIMENSION        15.5
Info: ENERGY OUTPUT STEPS    100000
Info: ENERGY EVALUATION STEPS    100000
Info: OUTPUT ENERGY PRECISION 4
Info: CROSSTERM ENERGY INCLUDED IN DIHEDRAL
Info: TIMING OUTPUT STEPS    1000000
Info: PRESSURE OUTPUT STEPS  100000
Info: ALCHEMICAL FEP ON
Info: FEP CURRENT LAMBDA VALUE     0
Info: FEP COMPARISON LAMBDA VALUE  0.05
Info: FEP INTRA-ALCHEMICAL NON-BONDED INTERACTIONS WILL BE RETAINED
Info: FEP INTRA-ALCHEMICAL BONDED INTERACTIONS WILL BE RETAINED
Info: FEP VDW SHIFTING COEFFICIENT 5
Info: FEP ELEC. ACTIVE FOR ANNIHILATED PARTICLES BETWEEN LAMBDA = 0 AND LAMBDA = 0.5
Info: FEP ELEC. ACTIVE FOR EXNIHILATED PARTICLES BETWEEN LAMBDA = 0.5 AND LAMBDA = 1
Info: FEP VDW ACTIVE FOR ANNIHILATED PARTICLES BETWEEN LAMBDA = 0 AND LAMBDA = 1
Info: FEP VDW ACTIVE FOR EXNIHILATED PARTICLES BETWEEN LAMBDA = 0 AND LAMBDA = 1
Info: FEP BOND ACTIVE FOR ANNIHILATED PARTICLES BETWEEN LAMBDA = 1 AND LAMBDA = 1
Info: FEP BOND ACTIVE FOR EXNIHILATED PARTICLES BETWEEN LAMBDA = 0 AND LAMBDA = 0
Info: LANGEVIN DYNAMICS ACTIVE
Info: LANGEVIN TEMPERATURE   300
Info: LANGEVIN USING BBK INTEGRATOR
Info: LANGEVIN DAMPING COEFFICIENT IS 1 INVERSE PS
Info: LANGEVIN DYNAMICS APPLIED TO HYDROGENS
Info: LANGEVIN PISTON PRESSURE CONTROL ACTIVE
Info:        TARGET PRESSURE IS 1.01325 BAR
Info:     OSCILLATION PERIOD IS 50 FS
Info:             DECAY TIME IS 25 FS
Info:     PISTON TEMPERATURE IS 300 K
Info:       PRESSURE CONTROL IS GROUP-BASED
Info:    INITIAL STRAIN RATE IS -5.43806e-05 -5.43806e-05 -5.43806e-05
Info:       CELL FLUCTUATION IS ISOTROPIC
Info: PARTICLE MESH EWALD (PME) ACTIVE
Info: PME TOLERANCE               1e-06
Info: PME EWALD COEFFICIENT       0.348832
Info: PME INTERPOLATION ORDER     4
Info: PME GRID DIMENSIONS         32 32 36
Info: PME MAXIMUM GRID SPACING    1
Info: PME CALCULATION WILL BE PERFORMED ON GPU
Info: FULL ELECTROSTATIC EVALUATION FREQUENCY      2
Info: USING VERLET I (r-RESPA) MTS SCHEME.
Info: C1 SPLITTING OF LONG RANGE ELECTROSTATICS
Info: PLACING ATOMS IN PATCHES BY HYDROGEN GROUPS
Info: RIGID BONDS TO HYDROGEN : ALL
Info:         ERROR TOLERANCE : 1e-08
Info:          MAX ITERATIONS : 100
Info: RIGID WATER USING SETTLE ALGORITHM
Info: RANDOM NUMBER SEED     1743571186
Info: USE HYDROGEN BONDS?    NO
Info: Using AMBER format force field!
Info: AMBER PARM FILE        mobley_1760914.prmtop
Info: COORDINATE PDB         mobley_1760914.pdb
Info: Exclusions will be read from PARM file!
Info: SCNB (VDW SCALING)     2
Info: USING ARITHMETIC MEAN TO COMBINE L-J SIGMA PARAMETERS
Info: BINARY COORDINATES     mobley_1760914_equil.coor
Info: SUMMARY OF PARAMETERS:
Info: 7 BONDS
Info: 6 ANGLES
Info:   6 HARMONIC
Info:   0 COSINE-BASED
Info: 3 DIHEDRAL
Info: 0 IMPROPER
Info: 0 CROSSTERM
Info: 0 VDW
Info: 28 VDW_PAIRS
Info: 0 NBTHOLE_PAIRS
Info: To read alchdata from file: mobley_1760914.pdb
Info: To read alchflag data from column: 5
Info: STRUCTURE SUMMARY:
Info: 2922 ATOMS
Info: 2922 BONDS
Info: 24 ANGLES
Info: 36 DIHEDRALS
Info: 0 IMPROPERS
Info: 0 CROSSTERMS
Info: 2973 EXCLUSIONS
Info: 2914 RIGID BONDS
Info: ALCH: 0 ATOMS TO DISAPPEAR IN FINAL STATE
Info: ALCH: 15 ATOMS TO APPEAR IN FINAL STATE
Info: 5852 DEGREES OF FREEDOM
Info: 977 HYDROGEN GROUPS
Info: 4 ATOMS IN LARGEST HYDROGEN GROUP
Info: 977 MIGRATION GROUPS
Info: 4 ATOMS IN LARGEST MIGRATION GROUP
Info: TOTAL MASS = 17584.1 amu
Info: TOTAL CHARGE = 1.49012e-08 e
Info: MASS DENSITY = 0.971891 g/cm^3
Info: ATOM DENSITY = 0.0972565 atoms/A^3
Info: ADDED 0 IMPLICIT EXCLUSIONS
Info: NONBONDED TABLE R-SQUARED SPACING: 0.0625
Info: NONBONDED TABLE SIZE: 705 POINTS
Info: REMOVING COM VELOCITY -0.0351367 -0.195116 0.140744
Info: Use 3D box decompostion in PME FFT.
Info: Updated CUDA force table with 4096 elements.
Info: Updated CUDA LJ table with 7 x 7 elements.
Info: Found 14 unique exclusion lists needing 28 bytes
TCL: Running for 1500000 steps
ETITLE: TS BOND ANGLE DIHED IMPRP ELECT VDW BOUNDARY MISC KINETIC TOTAL TEMP POTENTIAL TOTALAVG TEMPAVG PRESSURE GPRESSURE VOLUME PRESSAVG GPRESSAVG
ENERGY: 0 0.7641 7.3812 3.1503 0.0000 -10533.1883 1484.7010 0.0000 0.0000 1737.8218 -7299.3698 298.8762 -9037.1917 -7299.3698 298.8762 739.3907 832.4474 30044.2563 739.3907 832.4474
ENERGY: 300000 1.5363 7.4803 0.7682 0.0000 -10656.4762 1497.4033 0.0000 0.0000 1697.6512 -7451.6370 291.9675 -9149.2881 -7402.9883 296.6538 751.8914 756.0353 29621.7652 207.9350 252.0445
ENERGY: 600000 5.7983 6.6292 4.3037 0.0000 -10700.6157 1419.0993 0.0000 0.0000 1789.9913 -7474.7938 307.8485 -9264.7851 -7420.5556 299.1491 -430.5869 -378.5102 29627.0661 62.9034 99.6543
ENERGY: 900000 2.6802 4.0148 1.9478 0.0000 -10621.8827 1439.8555 0.0000 0.0000 1778.7444 -7394.6400 305.9142 -9173.3844 -7424.2128 299.5191 -228.0225 -132.4407 30209.5687 142.1975 190.8347
ENERGY: 1200000 4.1044 3.8885 3.2222 0.0000 -10571.2709 1395.9324 0.0000 0.0000 1791.6209 -7372.5026 308.1287 -9164.1235 -7423.4637 300.2816 -180.0526 -132.7914 29682.6169 127.8518 178.3739
ENERGY: 1500000 2.9992 3.3236 1.6436 0.0000 -10521.2562 1346.0274 0.0000 0.0000 1760.4193 -7406.8432 302.7626 -9167.2625 -7423.6300 299.7033 -704.1390 -621.6262 29895.2121 -4.7247 55.7720
TCL: Running FEP window   2: Lambda1 0.05   Lambda2 0.1    [dLambda 0.05  ]
TCL: Setting parameter firsttimestep to 0
TCL: Setting parameter alchLambda to 0.05
Info: NONBONDED TABLE R-SQUARED SPACING: 0.0625
Info: NONBONDED TABLE SIZE: 705 POINTS
TCL: Setting parameter alchLambda2 to 0.1
Info: NONBONDED TABLE R-SQUARED SPACING: 0.0625
Info: NONBONDED TABLE SIZE: 705 POINTS
TCL: Running for 1500000 steps
ETITLE: TS BOND ANGLE DIHED IMPRP ELECT VDW BOUNDARY MISC KINETIC TOTAL TEMP POTENTIAL TOTALAVG TEMPAVG PRESSURE GPRESSURE VOLUME PRESSAVG GPRESSAVG
ENERGY: 0 2.9992 3.3236 1.6436 0.0000 -10521.2558 1347.1616 0.0000 0.0000 1759.5261 -7406.6017 302.6090 -9166.1278 -7406.6017 302.6090 -717.0988 -617.2260 29895.2121 -717.0988 -617.2260
ENERGY: 300000 2.9151 1.5501 2.5705 0.0000 -10659.9745 1481.5843 0.0000 0.0000 1743.5977 -7427.7569 299.8695 -9171.3546 -7402.0388 297.4753 34.6215 50.3599 30376.1861 -308.0740 -228.2230
ENERGY: 600000 1.3030 5.9696 3.2920 0.0000 -10633.0868 1487.6264 0.0000 0.0000 1739.6896 -7395.2063 299.1974 -9134.8959 -7382.2381 298.6657 550.2121 615.0972 29754.8495 -160.8465 -82.7908
ENERGY: 900000 2.2645 2.2456 1.0676 0.0000 -10601.9888 1421.5340 0.0000 0.0000 1730.7973 -7444.0799 297.6681 -9174.8772 -7390.7237 298.9156 -268.3144 -233.8493 29874.3493 -187.1241 -128.0168
ENERGY: 1200000 1.0253 3.4293 1.5897 0.0000 -10534.1916 1344.2287 0.0000 0.0000 1702.1316 -7481.7870 292.7381 -9183.9187 -7396.8779 298.2757 -1066.1312 -1035.5524 30513.4110 -287.0008 -231.0934
ENERGY: 1500000 1.5168 5.3575 2.6371 0.0000 -10664.3490 1439.0282 0.0000 0.0000 1779.9229 -7435.8865 306.1169 -9215.8094 -7400.2216 298.6867 103.5939 94.2390 29675.8312 -218.0100 -173.8561
TCL: Running FEP window   3: Lambda1 0.1    Lambda2 0.15000000000000002 [dLambda 0.05000000000000002]
TCL: Setting parameter firsttimestep to 0
TCL: Setting parameter alchLambda to 0.1
Info: NONBONDED TABLE R-SQUARED SPACING: 0.0625
Info: NONBONDED TABLE SIZE: 705 POINTS
TCL: Setting parameter alchLambda2 to 0.15000000000000002
Info: NONBONDED TABLE R-SQUARED SPACING: 0.0625
Info: NONBONDED TABLE SIZE: 705 POINTS
TCL: Running for 1500000 steps
ETITLE: TS BOND ANGLE DIHED IMPRP ELECT VDW BOUNDARY MISC KINETIC TOTAL TEMP POTENTIAL TOTALAVG TEMPAVG PRESSURE GPRESSURE VOLUME PRESSAVG GPRESSAVG
ENERGY: 0 1.5168 5.3575 2.6371 0.0000 -10664.3504 1441.3740 0.0000 0.0000 1779.0579 -7434.4071 305.9681 -9213.4650 -7434.4071 305.9681 7.7415 102.9354 29675.8312 7.7415 102.9354
ENERGY: 300000 4.5263 3.9015 1.9963 0.0000 -10623.0939 1421.6268 0.0000 0.0000 1760.6094 -7430.4336 302.7953 -9191.0431 -7421.7324 300.8511 -206.5004 -144.4404 29748.5364 -259.0015 -187.5121
ENERGY: 600000 3.4785 1.8846 3.8959 0.0000 -10306.8411 1293.6384 0.0000 0.0000 1811.2560 -7192.6876 311.5056 -9003.9436 -7391.3577 301.4858 -971.4794 -917.8858 30816.2922 -225.4655 -176.2031
ENERGY: 900000 0.4157 4.5588 2.1058 0.0000 -10543.7786 1505.6366 0.0000 0.0000 1740.3122 -7290.7494 299.3045 -9031.0616 -7374.3274 301.8844 1025.4889 1058.1600 29859.0562 -88.7062 -35.1374
ENERGY: 1200000 1.0538 2.5000 1.7138 0.0000 -10633.7941 1458.7771 0.0000 0.0000 1744.5388 -7425.2107 300.0314 -9169.7494 -7377.1496 301.3380 177.7363 238.1636 29896.9899 -62.7985 -16.3558
ENERGY: 1500000 3.7073 1.1212 1.1608 0.0000 -10620.3083 1457.8882 0.0000 0.0000 1774.7236 -7381.7073 305.2227 -9156.4308 -7379.1552 301.4392 87.8483 180.6548 29747.6016 -8.1716 42.6845
TCL: Running FEP window   4: Lambda1 0.15000000000000002 Lambda2 0.2    [dLambda 0.04999999999999999]
TCL: Setting parameter firsttimestep to 0
TCL: Setting parameter alchLambda to 0.15000000000000002
Info: NONBONDED TABLE R-SQUARED SPACING: 0.0625
Info: NONBONDED TABLE SIZE: 705 POINTS
TCL: Setting parameter alchLambda2 to 0.2
Info: NONBONDED TABLE R-SQUARED SPACING: 0.0625
Info: NONBONDED TABLE SIZE: 705 POINTS
TCL: Running for 1500000 steps
ETITLE: TS BOND ANGLE DIHED IMPRP ELECT VDW BOUNDARY MISC KINETIC TOTAL TEMP POTENTIAL TOTALAVG TEMPAVG PRESSURE GPRESSURE VOLUME PRESSAVG GPRESSAVG
ENERGY: 0 3.7073 1.1212 1.1608 0.0000 -10620.3073 1459.4094 0.0000 0.0000 1773.8605 -7381.0481 305.0742 -9154.9086 -7381.0481 305.0742 92.0665 192.0652 29747.6016 92.0665 192.0652
ENERGY: 300000 1.2178 3.1458 1.9665 0.0000 -10633.1267 1460.5726 0.0000 0.0000 1715.9846 -7450.2394 295.1205 -9166.2239 -7365.2926 302.2725 85.8092 167.7001 29841.2298 77.4426 160.7537
ENERGY: 600000 2.0268 2.3501 0.9178 0.0000 -10532.0057 1388.3186 0.0000 0.0000 1732.8359 -7405.5564 298.0187 -9138.3923 -7373.9444 302.8052 -354.8980 -267.8894 29978.4715 5.8526 85.0256
ENERGY: 900000 3.4127 4.6882 4.4071 0.0000 -10604.2904 1457.9706 0.0000 0.0000 1741.1696 -7392.6422 299.4520 -9133.8118 -7390.2094 301.7617 28.7965 143.3851 30169.7801 170.3638 255.8579
ENERGY: 1200000 2.5539 4.4003 2.2589 0.0000 -10516.5929 1401.3279 0.0000 0.0000 1757.8508 -7348.2010 302.3208 -9106.0518 -7381.8291 301.0905 -112.9734 -132.3691 30410.4931 132.9822 202.5123
ENERGY: 1500000 1.9940 5.7589 2.3720 0.0000 -10583.0493 1402.1514 0.0000 0.0000 1719.6437 -7451.1294 295.7498 -9170.7730 -7387.3389 300.3999 -133.9643 -108.8460 29659.5936 12.8610 80.6814
TCL: Running FEP window   5: Lambda1 0.2    Lambda2 0.25   [dLambda 0.04999999999999999]
TCL: Setting parameter firsttimestep to 0
TCL: Setting parameter alchLambda to 0.2
Info: NONBONDED TABLE R-SQUARED SPACING: 0.0625
Info: NONBONDED TABLE SIZE: 705 POINTS
TCL: Setting parameter alchLambda2 to 0.25
Info: NONBONDED TABLE R-SQUARED SPACING: 0.0625
Info: NONBONDED TABLE SIZE: 705 POINTS
TCL: Running for 1500000 steps
ETITLE: TS BOND ANGLE DIHED IMPRP ELECT VDW BOUNDARY MISC KINETIC TOTAL TEMP POTENTIAL TOTALAVG TEMPAVG PRESSURE GPRESSURE VOLUME PRESSAVG GPRESSAVG
ENERGY: 0 1.9940 5.7589 2.3720 0.0000 -10583.0480 1403.0052 0.0000 0.0000 1718.7733 -7451.1446 295.6002 -9169.9179 -7451.1446 295.6002 -181.0012 -101.0255 29659.5936 -181.0012 -101.0255
ENERGY: 300000 0.9638 6.7750 1.1257 0.0000 -10600.5218 1370.0350 0.0000 0.0000 1706.0100 -7515.6124 293.4051 -9221.6223 -7470.6023 294.2436 -711.4561 -691.1112 29989.2991 -459.5932 -388.4883
ENERGY: 600000 7.8613 1.5342 2.0136 0.0000 -10755.6781 1506.8815 0.0000 0.0000 1760.5964 -7476.7911 302.7930 -9237.3875 -7448.7114 295.0031 410.1170 474.5349 29301.4004 -386.1580 -321.5522
ENERGY: 900000 0.7893 5.1893 6.1138 0.0000 -10606.4938 1441.1254 0.0000 0.0000 1743.6410 -7409.6350 299.8770 -9153.2760 -7441.1510 297.2989 -14.6227 17.7951 30022.5475 -233.0785 -180.1506
ENERGY: 1200000 1.1169 5.4096 2.6250 0.0000 -10535.1991 1389.4092 0.0000 0.0000 1787.2664 -7349.3721 307.3798 -9136.6385 -7433.5790 297.9974 -415.2219 -340.6990 30276.4338 -264.8943 -208.7250
ENERGY: 1500000 1.9887 5.6339 2.2819 0.0000 -10590.0053 1413.3135 0.0000 0.0000 1763.0031 -7403.7842 303.2069 -9166.7873 -7429.6245 298.4079 -242.3357 -144.7340 29867.4401 -317.1507 -249.8326
TCL: Running FEP window   6: Lambda1 0.25   Lambda2 0.3    [dLambda 0.04999999999999999]
TCL: Setting parameter firsttimestep to 0
TCL: Setting parameter alchLambda to 0.25
Info: NONBONDED TABLE R-SQUARED SPACING: 0.0625
Info: NONBONDED TABLE SIZE: 705 POINTS
TCL: Setting parameter alchLambda2 to 0.3
Info: NONBONDED TABLE R-SQUARED SPACING: 0.0625
Info: NONBONDED TABLE SIZE: 705 POINTS
TCL: Running for 1500000 steps
ETITLE: TS BOND ANGLE DIHED IMPRP ELECT VDW BOUNDARY MISC KINETIC TOTAL TEMP POTENTIAL TOTALAVG TEMPAVG PRESSURE GPRESSURE VOLUME PRESSAVG GPRESSAVG
ENERGY: 0 1.9887 5.6339 2.2819 0.0000 -10590.0050 1412.8974 0.0000 0.0000 1762.1680 -7405.0349 303.0633 -9167.2030 -7405.0349 303.0633 -222.0603 -144.0004 29867.4401 -222.0603 -144.0004
ENERGY: 300000 2.2377 3.1856 1.0183 0.0000 -10666.5637 1453.2955 0.0000 0.0000 1745.9427 -7460.8840 300.2728 -9206.8266 -7481.9703 295.4898 361.1908 454.9584 29344.7919 30.9296 101.6723
ENERGY: 600000 1.6525 5.2335 1.8588 0.0000 -10509.8185 1339.2123 0.0000 0.0000 1704.9778 -7456.8836 293.2276 -9161.8614 -7451.4617 297.6272 -800.3029 -781.3429 30129.3632 -199.9257 -159.2013
ENERGY: 900000 1.7878 6.1420 6.9307 0.0000 -10604.0793 1417.1415 0.0000 0.0000 1702.2627 -7469.8146 292.7606 -9172.0773 -7456.9522 296.8211 -322.5873 -252.3233 30199.5537 -171.8038 -129.3346
ENERGY: 1200000 2.0736 4.0490 2.5276 0.0000 -10631.8729 1492.0962 0.0000 0.0000 1758.4202 -7372.7063 302.4188 -9131.1265 -7451.3152 297.4672 528.2742 587.8581 29775.3536 -140.4825 -89.8068
ENERGY: 1500000 2.1696 5.2124 2.0700 0.0000 -10564.2628 1468.2007 0.0000 0.0000 1755.5020 -7331.1082 301.9169 -9086.6102 -7434.3304 297.9206 469.6417 638.2095 29845.6921 -57.8894 4.2464
TCL: Running FEP window   7: Lambda1 0.3    Lambda2 0.35   [dLambda 0.04999999999999999]
TCL: Setting parameter firsttimestep to 0
TCL: Setting parameter alchLambda to 0.3
Info: NONBONDED TABLE R-SQUARED SPACING: 0.0625
Info: NONBONDED TABLE SIZE: 705 POINTS
TCL: Setting parameter alchLambda2 to 0.35
Info: NONBONDED TABLE R-SQUARED SPACING: 0.0625
Info: NONBONDED TABLE SIZE: 705 POINTS
TCL: Running for 1500000 steps
ETITLE: TS BOND ANGLE DIHED IMPRP ELECT VDW BOUNDARY MISC KINETIC TOTAL TEMP POTENTIAL TOTALAVG TEMPAVG PRESSURE GPRESSURE VOLUME PRESSAVG GPRESSAVG
ENERGY: 0 2.1696 5.2124 2.0700 0.0000 -10564.2633 1468.1431 0.0000 0.0000 1754.6428 -7332.0254 301.7691 -9086.6683 -7332.0254 301.7691 554.4542 642.7128 29845.6921 554.4542 642.7128
ENERGY: 300000 1.5288 5.5087 5.8462 0.0000 -10438.7112 1347.1346 0.0000 0.0000 1775.6793 -7303.0135 305.3870 -9078.6928 -7350.2820 302.2576 -379.0959 -308.2571 29889.7738 337.0062 411.3189
ENERGY: 600000 3.4498 4.5768 2.8900 0.0000 -10638.5376 1500.9227 0.0000 0.0000 1724.7799 -7401.9184 296.6332 -9126.6983 -7396.8773 299.2634 550.4002 686.8207 29893.5742 150.6601 221.6960
ENERGY: 900000 1.2561 4.5962 3.0481 0.0000 -10573.0897 1424.9903 0.0000 0.0000 1740.5967 -7398.6024 299.3534 -9139.1990 -7392.7875 300.0294 61.2373 136.1783 30067.5180 143.0340 210.7054
ENERGY: 1200000 4.3934 3.9525 4.0664 0.0000 -10522.9211 1420.5667 0.0000 0.0000 1709.2117 -7380.7304 293.9557 -9089.9421 -7397.7885 299.9796 -65.1681 -10.2322 30121.7314 3.1044 67.2325
ENERGY: 1500000 4.4041 5.9062 0.8293 0.0000 -10489.2297 1434.5555 0.0000 0.0000 1740.3423 -7303.1923 299.3097 -9043.5345 -7389.2551 300.2590 280.9084 344.3885 30101.9983 5.3931 69.0025
TCL: Running FEP window   8: Lambda1 0.35   Lambda2 0.39999999999999997 [dLambda 0.04999999999999999]
TCL: Setting parameter firsttimestep to 0
TCL: Setting parameter alchLambda to 0.35
Info: NONBONDED TABLE R-SQUARED SPACING: 0.0625
Info: NONBONDED TABLE SIZE: 705 POINTS
TCL: Setting parameter alchLambda2 to 0.39999999999999997
Info: NONBONDED TABLE R-SQUARED SPACING: 0.0625
Info: NONBONDED TABLE SIZE: 705 POINTS
TCL: Running for 1500000 steps
ETITLE: TS BOND ANGLE DIHED IMPRP ELECT VDW BOUNDARY MISC KINETIC TOTAL TEMP POTENTIAL TOTALAVG TEMPAVG PRESSURE GPRESSURE VOLUME PRESSAVG GPRESSAVG
ENERGY: 0 4.4041 5.9062 0.8293 0.0000 -10489.2303 1434.4904 0.0000 0.0000 1739.4090 -7304.1913 299.1491 -9043.6003 -7304.1913 299.1491 265.9983 348.7635 30101.9983 265.9983 348.7635
ENERGY: 300000 1.3951 2.2133 1.6930 0.0000 -10562.7836 1398.2568 0.0000 0.0000 1746.1507 -7413.0747 300.3086 -9159.2254 -7369.8313 297.5146 -146.6863 -84.1806 30159.2084 -22.3845 44.7476
ENERGY: 600000 1.4902 5.6550 3.3128 0.0000 -10556.4882 1397.6061 0.0000 0.0000 1773.0179 -7375.4061 304.9293 -9148.4240 -7401.5158 297.9224 -174.2288 -159.3950 30131.8020 78.8279 138.4195
ENERGY: 900000 2.5616 5.7056 0.8803 0.0000 -10547.0404 1395.2243 0.0000 0.0000 1747.1128 -7395.5558 300.4741 -9142.6685 -7391.4838 298.1119 -327.3517 -318.0877 30209.3304 -64.4862 -16.0109
ENERGY: 1200000 1.3986 2.3350 2.1126 0.0000 -10582.3781 1448.3969 0.0000 0.0000 1740.1021 -7388.0328 299.2684 -9128.1349 -7383.5984 298.7862 410.7633 425.8236 29805.5005 -107.9831 -58.5986
ENERGY: 1500000 3.9111 4.4191 5.6600 0.0000 -10617.5132 1453.7398 0.0000 0.0000 1744.9061 -7404.8771 300.0946 -9149.7832 -7384.9843 299.5979 13.9696 107.5890 29931.3272 -10.4726 32.4240
TCL: Running FEP window   9: Lambda1 0.39999999999999997 Lambda2 0.44999999999999996 [dLambda 0.04999999999999999]
TCL: Setting parameter firsttimestep to 0
TCL: Setting parameter alchLambda to 0.39999999999999997
Info: NONBONDED TABLE R-SQUARED SPACING: 0.0625
Info: NONBONDED TABLE SIZE: 705 POINTS
TCL: Setting parameter alchLambda2 to 0.44999999999999996
Info: NONBONDED TABLE R-SQUARED SPACING: 0.0625
Info: NONBONDED TABLE SIZE: 705 POINTS
TCL: Running for 1500000 steps
ETITLE: TS BOND ANGLE DIHED IMPRP ELECT VDW BOUNDARY MISC KINETIC TOTAL TEMP POTENTIAL TOTALAVG TEMPAVG PRESSURE GPRESSURE VOLUME PRESSAVG GPRESSAVG
ENERGY: 0 3.9111 4.4191 5.6600 0.0000 -10617.5129 1454.1810 0.0000 0.0000 1744.0605 -7405.2813 299.9491 -9149.3418 -7405.2813 299.9491 6.4506 115.4296 29931.3272 6.4506 115.4296
ENERGY: 300000 1.3423 5.2719 3.4706 0.0000 -10735.3742 1504.5324 0.0000 0.0000 1757.6207 -7463.1363 302.2813 -9220.7570 -7427.4596 302.1243 659.3481 742.0892 29581.9817 -179.3640 -103.2419
ENERGY: 600000 3.2862 1.4841 1.4375 0.0000 -10444.5603 1383.6373 0.0000 0.0000 1738.4971 -7316.2180 298.9923 -9054.7152 -7404.8898 300.5624 -38.3633 2.7749 29809.2000 -155.8047 -99.3125
ENERGY: 900000 2.9455 3.0665 0.9982 0.0000 -10569.3470 1478.1433 0.0000 0.0000 1752.6570 -7331.5364 301.4276 -9084.1934 -7385.6527 300.4067 933.7858 973.0848 29471.7787 -9.9714 46.5084
ENERGY: 1200000 2.5651 5.3207 1.8813 0.0000 -10593.8307 1383.9895 0.0000 0.0000 1754.4327 -7445.6414 301.7330 -9200.0741 -7388.5871 299.8752 -338.8113 -331.0133 29965.5169 -164.0286 -108.1408
ENERGY: 1500000 4.1906 5.3627 2.4201 0.0000 -10648.1407 1494.4208 0.0000 0.0000 1719.0818 -7422.6646 295.6532 -9141.7464 -7388.0180 300.4195 625.0496 664.5684 29781.0504 -123.2656 -70.1811
TCL: Running FEP window  10: Lambda1 0.44999999999999996 Lambda2 0.49999999999999994 [dLambda 0.04999999999999999]
TCL: Setting parameter firsttimestep to 0
TCL: Setting parameter alchLambda to 0.44999999999999996
Info: NONBONDED TABLE R-SQUARED SPACING: 0.0625
Info: NONBONDED TABLE SIZE: 705 POINTS
TCL: Setting parameter alchLambda2 to 0.49999999999999994
Info: NONBONDED TABLE R-SQUARED SPACING: 0.0625
Info: NONBONDED TABLE SIZE: 705 POINTS
TCL: Running for 1500000 steps
ETITLE: TS BOND ANGLE DIHED IMPRP ELECT VDW BOUNDARY MISC KINETIC TOTAL TEMP POTENTIAL TOTALAVG TEMPAVG PRESSURE GPRESSURE VOLUME PRESSAVG GPRESSAVG
ENERGY: 0 4.1906 5.3627 2.4201 0.0000 -10648.1411 1494.2594 0.0000 0.0000 1718.1915 -7423.7167 295.5001 -9141.9082 -7423.7167 295.5001 607.9708 669.5792 29781.0504 607.9708 669.5792
ENERGY: 300000 3.5981 2.6407 2.9060 0.0000 -10534.8538 1434.0132 0.0000 0.0000 1747.4521 -7344.2437 300.5324 -9091.6958 -7323.6163 303.0751 -228.2119 -173.8719 30294.0047 219.3586 306.4314
ENERGY: 600000 5.0502 4.6859 2.0152 0.0000 -10586.4037 1491.8928 0.0000 0.0000 1767.0452 -7315.7143 303.9021 -9082.7596 -7322.5736 302.9909 737.4826 725.8738 29770.8632 73.5593 139.5044
ENERGY: 900000 1.6828 4.4202 4.8128 0.0000 -10426.4759 1322.2098 0.0000 0.0000 1763.6655 -7329.6848 303.3209 -9093.3503 -7336.2768 303.0137 -960.1069 -929.6810 30694.8473 -62.1748 -3.0208
ENERGY: 1200000 1.5860 7.7108 5.6857 0.0000 -10482.1254 1402.0609 0.0000 0.0000 1776.1730 -7288.9089 305.4720 -9065.0819 -7347.7804 301.5948 342.0449 389.3947 29927.8684 -12.0803 53.2590
ENERGY: 1500000 1.6179 6.0191 3.6775 0.0000 -10358.3688 1281.7448 0.0000 0.0000 1707.2429 -7358.0667 293.6171 -9065.3097 -7359.4802 301.0246 -1106.3862 -1034.6924 30265.8568 -55.2137 1.6736
TCL: Running FEP window  11: Lambda1 0.49999999999999994 Lambda2 0.5499999999999999 [dLambda 0.04999999999999999]
TCL: Setting parameter firsttimestep to 0
TCL: Setting parameter alchLambda to 0.49999999999999994
Info: NONBONDED TABLE R-SQUARED SPACING: 0.0625
Info: NONBONDED TABLE SIZE: 705 POINTS
TCL: Setting parameter alchLambda2 to 0.5499999999999999
Info: NONBONDED TABLE R-SQUARED SPACING: 0.0625
Info: NONBONDED TABLE SIZE: 705 POINTS
TCL: Running for 1500000 steps
ETITLE: TS BOND ANGLE DIHED IMPRP ELECT VDW BOUNDARY MISC KINETIC TOTAL TEMP POTENTIAL TOTALAVG TEMPAVG PRESSURE GPRESSURE VOLUME PRESSAVG GPRESSAVG
ENERGY: 0 1.6179 6.0191 3.6775 0.0000 -10358.3708 1282.2166 0.0000 0.0000 1706.3695 -7358.4704 293.4669 -9064.8398 -7358.4704 293.4669 -1100.4029 -1025.1496 30265.8568 -1100.4029 -1025.1496
ENERGY: 300000 1.2967 4.2113 2.1972 0.0000 -10685.1135 1524.5204 0.0000 0.0000 1769.2173 -7383.6707 304.2757 -9152.8881 -7366.4896 298.3592 856.4666 956.4458 29856.9649 -250.5036 -150.9031
ENERGY: 600000 2.8106 2.2855 2.6072 0.0000 -10411.2278 1355.9498 0.0000 0.0000 1727.9846 -7319.5901 297.1844 -9047.5747 -7367.2645 297.5352 -373.9785 -359.9134 30069.8451 -376.8511 -289.8553
ENERGY: 900000 2.4818 3.5476 2.6254 0.0000 -10491.1128 1387.8662 0.0000 0.0000 1795.9476 -7298.6441 308.8729 -9094.5917 -7369.6327 299.4572 -645.5479 -578.1209 30605.4178 -428.2618 -349.0003
ENERGY: 1200000 2.3700 4.7622 2.1505 0.0000 -10586.0347 1505.3978 0.0000 0.0000 1719.9057 -7351.4485 295.7949 -9071.3542 -7373.8670 299.5298 706.8011 737.8273 30063.7400 -350.0422 -269.4779
ENERGY: 1500000 0.7751 4.3619 2.5876 0.0000 -10508.0795 1406.7211 0.0000 0.0000 1763.4167 -7330.2171 303.2781 -9093.6338 -7368.4182 299.8945 52.4123 85.1016 30246.1067 -235.1537 -164.9716
TCL: Running FEP window  12: Lambda1 0.5499999999999999 Lambda2 0.6    [dLambda 0.050000000000000044]
TCL: Setting parameter firsttimestep to 0
TCL: Setting parameter alchLambda to 0.5499999999999999
Info: NONBONDED TABLE R-SQUARED SPACING: 0.0625
Info: NONBONDED TABLE SIZE: 705 POINTS
TCL: Setting parameter alchLambda2 to 0.6
Info: NONBONDED TABLE R-SQUARED SPACING: 0.0625
Info: NONBONDED TABLE SIZE: 705 POINTS
TCL: Running for 1500000 steps
ETITLE: TS BOND ANGLE DIHED IMPRP ELECT VDW BOUNDARY MISC KINETIC TOTAL TEMP POTENTIAL TOTALAVG TEMPAVG PRESSURE GPRESSURE VOLUME PRESSAVG GPRESSAVG
ENERGY: 0 0.7751 4.3619 2.5876 0.0000 -10508.4183 1406.4951 0.0000 0.0000 1762.5280 -7331.6706 303.1252 -9094.1986 -7331.6706 303.1252 2.1848 88.4513 30246.1067 2.1848 88.4513
ENERGY: 300000 2.0719 3.7165 1.1471 0.0000 -10614.6050 1485.0077 0.0000 0.0000 1705.7513 -7416.9105 293.3606 -9122.6617 -7376.6469 299.1823 660.7204 631.9456 29901.7407 2.4386 41.8897
ENERGY: 600000 5.8000 5.5258 2.0152 0.0000 -10608.6333 1467.4091 0.0000 0.0000 1765.8841 -7361.9991 303.7024 -9127.8832 -7372.7319 299.5577 228.4112 268.9978 30259.8788 58.7626 98.5465
ENERGY: 900000 1.3041 4.0914 1.7503 0.0000 -10501.1667 1324.8846 0.0000 0.0000 1760.3956 -7408.7407 302.7585 -9169.1364 -7394.4728 299.8659 -733.0027 -693.7108 29972.6631 -57.2192 -15.9479
ENERGY: 1200000 1.7114 5.7066 5.0276 0.0000 -10712.6800 1488.2993 0.0000 0.0000 1732.6849 -7479.2502 297.9927 -9211.9351 -7398.5567 299.6015 369.9092 400.1671 29893.2099 50.5070 89.0552
ENERGY: 1500000 1.7821 4.5579 1.7221 0.0000 -10604.6144 1456.8129 0.0000 0.0000 1774.8852 -7364.8542 305.2505 -9139.7394 -7394.3383 300.3885 290.9479 400.7101 29981.1465 82.7675 126.1964
TCL: Running FEP window  13: Lambda1 0.6    Lambda2 0.65   [dLambda 0.050000000000000044]
TCL: Setting parameter firsttimestep to 0
TCL: Setting parameter alchLambda to 0.6
Info: NONBONDED TABLE R-SQUARED SPACING: 0.0625
Info: NONBONDED TABLE SIZE: 705 POINTS
TCL: Setting parameter alchLambda2 to 0.65
Info: NONBONDED TABLE R-SQUARED SPACING: 0.0625
Info: NONBONDED TABLE SIZE: 705 POINTS
TCL: Running for 1500000 steps
ETITLE: TS BOND ANGLE DIHED IMPRP ELECT VDW BOUNDARY MISC KINETIC TOTAL TEMP POTENTIAL TOTALAVG TEMPAVG PRESSURE GPRESSURE VOLUME PRESSAVG GPRESSAVG
ENERGY: 0 1.7821 4.5579 1.7221 0.0000 -10604.4478 1456.7768 0.0000 0.0000 1774.0029 -7365.6060 305.0987 -9139.6089 -7365.6060 305.0987 327.7216 409.8700 29981.1465 327.7216 409.8700
ENERGY: 300000 1.7829 3.5606 2.9408 0.0000 -10542.0339 1397.8887 0.0000 0.0000 1747.7334 -7388.1275 300.5808 -9135.8609 -7421.1725 297.3454 -55.5403 -76.7186 30248.9851 -288.8191 -253.9874
ENERGY: 600000 1.0808 5.5720 2.6988 0.0000 -10579.0167 1471.5222 0.0000 0.0000 1771.7740 -7326.3689 304.7154 -9098.1428 -7399.2618 298.8423 565.9756 597.5994 30107.3258 -71.3113 -31.6176
ENERGY: 900000 3.2780 6.2994 2.6153 0.0000 -10567.8935 1375.9459 0.0000 0.0000 1753.6809 -7426.0739 301.6037 -9179.7547 -7402.1413 299.9264 -631.6446 -593.8946 30234.8480 -144.7843 -110.6615
ENERGY: 1200000 1.4822 5.5161 2.7448 0.0000 -10431.0188 1360.0315 0.0000 0.0000 1737.1519 -7324.0923 298.7610 -9061.2441 -7405.2323 299.7264 -388.1781 -350.0587 30684.0133 -75.8737 -32.3979
ENERGY: 1500000 5.0925 6.5995 2.4775 0.0000 -10461.9049 1370.5149 0.0000 0.0000 1754.7829 -7322.4375 301.7932 -9077.2203 -7391.4518 300.7900 -558.9876 -464.7221 30573.4563 -59.0577 -15.3565
TCL: Running FEP window  14: Lambda1 0.65   Lambda2 0.7000000000000001 [dLambda 0.050000000000000044]
TCL: Setting parameter firsttimestep to 0
TCL: Setting parameter alchLambda to 0.65
Info: NONBONDED TABLE R-SQUARED SPACING: 0.0625
Info: NONBONDED TABLE SIZE: 705 POINTS
TCL: Setting parameter alchLambda2 to 0.7000000000000001
Info: NONBONDED TABLE R-SQUARED SPACING: 0.0625
Info: NONBONDED TABLE SIZE: 705 POINTS
TCL: Running for 1500000 steps
ETITLE: TS BOND ANGLE DIHED IMPRP ELECT VDW BOUNDARY MISC KINETIC TOTAL TEMP POTENTIAL TOTALAVG TEMPAVG PRESSURE GPRESSURE VOLUME PRESSAVG GPRESSAVG
ENERGY: 0 5.0925 6.5995 2.4775 0.0000 -10462.1121 1370.4300 0.0000 0.0000 1753.8739 -7323.6387 301.6369 -9077.5126 -7323.6387 301.6369 -549.3663 -457.0495 30573.4563 -549.3663 -457.0495
ENERGY: 300000 5.2934 6.2550 2.5380 0.0000 -10570.7585 1387.5412 0.0000 0.0000 1797.2649 -7371.8660 309.0994 -9169.1310 -7351.1971 300.3113 -398.7553 -254.0499 30052.3483 -138.1669 -41.6817
ENERGY: 600000 4.4947 2.9320 1.4856 0.0000 -10740.8122 1557.6904 0.0000 0.0000 1714.6597 -7459.5498 294.8927 -9174.2095 -7385.7214 298.9098 923.4241 1021.4068 29777.6373 -15.1433 68.1869
ENERGY: 900000 2.5012 4.5848 1.6621 0.0000 -10646.9980 1477.8468 0.0000 0.0000 1753.0999 -7407.3031 301.5038 -9160.4030 -7397.8023 298.4404 8.0843 105.9289 30609.1659 19.7581 104.0327
ENERGY: 1200000 3.5664 3.5043 4.1559 0.0000 -10423.8725 1327.1184 0.0000 0.0000 1707.9471 -7377.5804 293.7382 -9085.5275 -7400.5838 298.7056 -395.1562 -349.0493 29937.5866 28.1866 104.2189
ENERGY: 1500000 2.2292 3.0822 1.9734 0.0000 -10620.4184 1399.7038 0.0000 0.0000 1678.5132 -7534.9165 288.6761 -9213.4298 -7407.5416 298.2889 -647.1199 -590.2505 30346.9684 -28.2763 47.5236
TCL: Running FEP window  15: Lambda1 0.7000000000000001 Lambda2 0.7500000000000001 [dLambda 0.050000000000000044]
TCL: Setting parameter firsttimestep to 0
TCL: Setting parameter alchLambda to 0.7000000000000001
Info: NONBONDED TABLE R-SQUARED SPACING: 0.0625
Info: NONBONDED TABLE SIZE: 705 POINTS
TCL: Setting parameter alchLambda2 to 0.7500000000000001
Info: NONBONDED TABLE R-SQUARED SPACING: 0.0625
Info: NONBONDED TABLE SIZE: 705 POINTS
TCL: Running for 1500000 steps
ETITLE: TS BOND ANGLE DIHED IMPRP ELECT VDW BOUNDARY MISC KINETIC TOTAL TEMP POTENTIAL TOTALAVG TEMPAVG PRESSURE GPRESSURE VOLUME PRESSAVG GPRESSAVG
ENERGY: 0 2.2292 3.0822 1.9734 0.0000 -10620.4135 1400.5546 0.0000 0.0000 1677.6450 -7534.9289 288.5268 -9212.5740 -7534.9289 288.5268 -657.7186 -572.8020 30346.9684 -657.7186 -572.8020
ENERGY: 300000 2.2272 2.1096 4.6284 0.0000 -10642.3869 1464.9704 0.0000 0.0000 1709.4334 -7459.0179 293.9939 -9168.4514 -7488.7497 293.8606 157.8499 208.1955 29913.2826 -84.9509 -44.8402
ENERGY: 600000 3.0241 2.8599 1.7699 0.0000 -10431.3658 1324.8228 0.0000 0.0000 1751.0098 -7347.8794 301.1443 -9098.8892 -7443.0382 295.9315 -650.6184 -606.3844 30293.1470 105.8573 139.8856
ENERGY: 900000 3.1708 6.3029 3.6704 0.0000 -10687.0636 1528.3307 0.0000 0.0000 1758.9284 -7386.6604 302.5062 -9145.5888 -7425.7385 298.4385 791.2617 842.8328 30046.9522 165.2187 210.5274
ENERGY: 1200000 4.5405 6.2244 4.4857 0.0000 -10619.1082 1470.9872 0.0000 0.0000 1786.9835 -7345.8869 307.3312 -9132.8704 -7421.9795 299.1761 174.5459 217.2296 30232.5946 106.5668 154.3889
ENERGY: 1500000 2.1556 2.6707 3.6696 0.0000 -10542.0854 1415.7352 0.0000 0.0000 1731.6195 -7386.2349 297.8095 -9117.8544 -7416.1736 298.7152 -10.3527 90.1471 29962.3189 103.7335 152.9572
TCL: Running FEP window  16: Lambda1 0.7500000000000001 Lambda2 0.8000000000000002 [dLambda 0.050000000000000044]
TCL: Setting parameter firsttimestep to 0
TCL: Setting parameter alchLambda to 0.7500000000000001
Info: NONBONDED TABLE R-SQUARED SPACING: 0.0625
Info: NONBONDED TABLE SIZE: 705 POINTS
TCL: Setting parameter alchLambda2 to 0.8000000000000002
Info: NONBONDED TABLE R-SQUARED SPACING: 0.0625
Info: NONBONDED TABLE SIZE: 705 POINTS
TCL: Running for 1500000 steps
ETITLE: TS BOND ANGLE DIHED IMPRP ELECT VDW BOUNDARY MISC KINETIC TOTAL TEMP POTENTIAL TOTALAVG TEMPAVG PRESSURE GPRESSURE VOLUME PRESSAVG GPRESSAVG
ENERGY: 0 2.1556 2.6707 3.6696 0.0000 -10542.3068 1415.2497 0.0000 0.0000 1730.7577 -7387.8035 297.6613 -9118.5612 -7387.8035 297.6613 3.4990 90.2086 29962.3189 3.4990 90.2086
ENERGY: 300000 1.7455 3.7940 1.7898 0.0000 -10571.0719 1446.1747 0.0000 0.0000 1725.9211 -7391.6469 296.8295 -9117.5679 -7404.1599 296.6270 355.2091 417.3322 30193.8591 -47.3006 34.2627
ENERGY: 600000 1.9525 4.7879 2.6816 0.0000 -10525.5806 1356.8474 0.0000 0.0000 1767.1326 -7392.1787 303.9171 -9159.3113 -7400.2109 299.5021 -514.5293 -480.1290 30130.1217 -51.0011 4.6192
ENERGY: 900000 2.8337 2.1616 2.9041 0.0000 -10379.4471 1269.5266 0.0000 0.0000 1761.7403 -7340.2807 302.9898 -9102.0210 -7391.1054 300.4132 -1390.2189 -1368.2011 31017.2661 -297.6604 -247.8822
ENERGY: 1200000 0.8924 4.0478 2.2349 0.0000 -10582.5272 1411.8272 0.0000 0.0000 1777.6080 -7385.9169 305.7187 -9163.5249 -7395.9005 299.8354 134.3097 156.1669 29697.8243 -186.3902 -141.1646
ENERGY: 1500000 1.9013 2.7210 3.9493 0.0000 -10709.9027 1512.6121 0.0000 0.0000 1773.2736 -7415.4454 304.9733 -9188.7190 -7403.0048 300.1481 530.3920 587.4214 30365.9659 -101.6693 -52.9032
TCL: Running FEP window  17: Lambda1 0.8000000000000002 Lambda2 0.8500000000000002 [dLambda 0.050000000000000044]
TCL: Setting parameter firsttimestep to 0
TCL: Setting parameter alchLambda to 0.8000000000000002
Info: NONBONDED TABLE R-SQUARED SPACING: 0.0625
Info: NONBONDED TABLE SIZE: 705 POINTS
TCL: Setting parameter alchLambda2 to 0.8500000000000002
Info: NONBONDED TABLE R-SQUARED SPACING: 0.0625
Info: NONBONDED TABLE SIZE: 705 POINTS
TCL: Running for 1500000 steps
ETITLE: TS BOND ANGLE DIHED IMPRP ELECT VDW BOUNDARY MISC KINETIC TOTAL TEMP POTENTIAL TOTALAVG TEMPAVG PRESSURE GPRESSURE VOLUME PRESSAVG GPRESSAVG
ENERGY: 0 1.9013 2.7210 3.9493 0.0000 -10710.4812 1512.8188 0.0000 0.0000 1772.3944 -7416.6965 304.8221 -9189.0909 -7416.6965 304.8221 517.9377 598.2452 30365.9659 517.9377 598.2452
ENERGY: 300000 1.9038 4.6347 3.2259 0.0000 -10618.1659 1489.8122 0.0000 0.0000 1765.6393 -7352.9500 303.6603 -9118.5893 -7404.4324 301.5461 1011.8268 1023.0516 29471.7461 424.5993 442.2816
ENERGY: 600000 2.4405 5.3301 1.1213 0.0000 -10516.4480 1394.6102 0.0000 0.0000 1786.4300 -7326.5158 307.2360 -9112.9458 -7400.4987 300.1926 -166.8677 -109.6209 30324.6336 211.4625 237.8105
ENERGY: 900000 3.6477 4.4369 2.1465 0.0000 -10444.5305 1355.8982 0.0000 0.0000 1771.3665 -7307.0346 304.6453 -9078.4011 -7372.6374 301.0019 -594.3184 -446.7766 30576.6307 -38.9947 4.6210
ENERGY: 1200000 2.3654 5.1587 1.8228 0.0000 -10606.7945 1377.8368 0.0000 0.0000 1720.9405 -7498.6702 295.9729 -9219.6107 -7392.8475 300.5658 -539.8100 -518.3051 30008.2528 -43.0768 -4.0899
ENERGY: 1500000 2.5945 2.7515 0.5014 0.0000 -10685.2343 1555.9162 0.0000 0.0000 1759.6069 -7363.8637 302.6229 -9123.4707 -7398.9141 300.0094 1132.6113 1138.9726 30143.2188 27.8647 64.4137
TCL: Running FEP window  18: Lambda1 0.8500000000000002 Lambda2 0.9000000000000002 [dLambda 0.050000000000000044]
TCL: Setting parameter firsttimestep to 0
TCL: Setting parameter alchLambda to 0.8500000000000002
Info: NONBONDED TABLE R-SQUARED SPACING: 0.0625
Info: NONBONDED TABLE SIZE: 705 POINTS
TCL: Setting parameter alchLambda2 to 0.9000000000000002
Info: NONBONDED TABLE R-SQUARED SPACING: 0.0625
Info: NONBONDED TABLE SIZE: 705 POINTS
TCL: Running for 1500000 steps
ETITLE: TS BOND ANGLE DIHED IMPRP ELECT VDW BOUNDARY MISC KINETIC TOTAL TEMP POTENTIAL TOTALAVG TEMPAVG PRESSURE GPRESSURE VOLUME PRESSAVG GPRESSAVG
ENERGY: 0 2.5945 2.7515 0.5014 0.0000 -10685.3184 1555.5539 0.0000 0.0000 1758.7359 -7365.1811 302.4731 -9123.9170 -7365.1811 302.4731 1068.2233 1145.4576 30143.2188 1068.2233 1145.4576
ENERGY: 300000 1.9209 6.0769 1.5126 0.0000 -10620.5195 1427.7277 0.0000 0.0000 1744.6410 -7438.6404 300.0490 -9183.2814 -7410.0338 301.9548 142.2091 220.5608 29852.8932 298.3140 374.6123
ENERGY: 600000 3.6694 2.3551 2.8239 0.0000 -10684.1182 1463.8032 0.0000 0.0000 1767.2512 -7444.2154 303.9375 -9211.4666 -7402.8358 301.0309 177.7948 254.1229 29976.6415 182.1820 242.4355
ENERGY: 900000 2.6288 5.8113 3.7498 0.0000 -10645.8960 1454.4882 0.0000 0.0000 1756.1727 -7423.0454 302.0322 -9179.2180 -7395.2937 301.4560 -12.5583 81.0012 30007.7124 138.5918 206.8036
ENERGY: 1200000 3.7555 3.4129 1.5225 0.0000 -10614.4334 1425.7306 0.0000 0.0000 1753.1421 -7426.8699 301.5110 -9180.0120 -7396.9173 301.0624 -337.5729 -223.3590 30149.6766 86.2629 153.7439
ENERGY: 1500000 2.5647 3.1604 2.1298 0.0000 -10661.4824 1427.0362 0.0000 0.0000 1801.1178 -7425.4735 309.7620 -9226.5913 -7398.4521 301.6917 154.2519 169.0455 29779.8886 149.7213 204.5569
TCL: Running FEP window  19: Lambda1 0.9000000000000002 Lambda2 0.9500000000000003 [dLambda 0.050000000000000044]
TCL: Setting parameter firsttimestep to 0
TCL: Setting parameter alchLambda to 0.9000000000000002
Info: NONBONDED TABLE R-SQUARED SPACING: 0.0625
Info: NONBONDED TABLE SIZE: 705 POINTS
TCL: Setting parameter alchLambda2 to 0.9500000000000003
Info: NONBONDED TABLE R-SQUARED SPACING: 0.0625
Info: NONBONDED TABLE SIZE: 705 POINTS
TCL: Running for 1500000 steps
ETITLE: TS BOND ANGLE DIHED IMPRP ELECT VDW BOUNDARY MISC KINETIC TOTAL TEMP POTENTIAL TOTALAVG TEMPAVG PRESSURE GPRESSURE VOLUME PRESSAVG GPRESSAVG
ENERGY: 0 2.5647 3.1604 2.1298 0.0000 -10662.3605 1427.7112 0.0000 0.0000 1800.2310 -7426.5634 309.6095 -9226.7944 -7426.5634 309.6095 102.7537 188.9929 29779.8886 102.7537 188.9929
ENERGY: 300000 2.1156 7.8079 3.8518 0.0000 -10538.2903 1352.4500 0.0000 0.0000 1707.3119 -7464.7532 293.6290 -9172.0651 -7427.6773 300.8847 -460.8579 -408.1178 30072.4741 -373.1041 -286.9953
ENERGY: 600000 1.5691 6.3139 3.4081 0.0000 -10583.0355 1391.6153 0.0000 0.0000 1806.9108 -7373.2183 310.7583 -9180.1291 -7407.0356 303.1203 -309.2418 -261.6484 30369.3274 -284.0640 -217.0448
ENERGY: 900000 3.7959 6.4671 1.7884 0.0000 -10627.5688 1463.6785 0.0000 0.0000 1731.9656 -7419.8733 297.8690 -9151.8389 -7413.7400 301.8947 378.7357 384.2327 29833.7277 -164.9524 -106.7039
ENERGY: 1200000 4.6155 6.6650 3.8924 0.0000 -10557.5685 1355.1416 0.0000 0.0000 1796.4101 -7390.8439 308.9524 -9187.2540 -7404.4383 302.8459 -620.3496 -588.8980 30325.2425 -251.2548 -193.4378
ENERGY: 1500000 1.1917 4.9183 2.5236 0.0000 -10661.9303 1414.4569 0.0000 0.0000 1753.3139 -7485.5258 301.5406 -9238.8397 -7411.7363 302.6360 -316.4514 -252.7677 30014.1677 -204.3504 -155.0845
TCL: Running FEP window  20: Lambda1 0.9500000000000003 Lambda2 1.0    [dLambda 0.04999999999999971]
TCL: Setting parameter firsttimestep to 0
TCL: Setting parameter alchLambda to 0.9500000000000003
Info: NONBONDED TABLE R-SQUARED SPACING: 0.0625
Info: NONBONDED TABLE SIZE: 705 POINTS
TCL: Setting parameter alchLambda2 to 1.0
Info: NONBONDED TABLE R-SQUARED SPACING: 0.0625
Info: NONBONDED TABLE SIZE: 705 POINTS
TCL: Running for 1500000 steps
ETITLE: TS BOND ANGLE DIHED IMPRP ELECT VDW BOUNDARY MISC KINETIC TOTAL TEMP POTENTIAL TOTALAVG TEMPAVG PRESSURE GPRESSURE VOLUME PRESSAVG GPRESSAVG
ENERGY: 0 1.1917 4.9183 2.5236 0.0000 -10662.5175 1414.5536 0.0000 0.0000 1752.4494 -7486.8808 301.3919 -9239.3303 -7486.8808 301.3919 -332.7494 -241.9708 30014.1677 -332.7494 -241.9708
ENERGY: 300000 1.8338 2.1109 1.1182 0.0000 -10573.6429 1406.8955 0.0000 0.0000 1785.8319 -7375.8527 307.1331 -9161.6846 -7449.7083 299.4783 98.1842 83.4206 29998.6009 -124.9560 -88.8511
ENERGY: 600000 3.2149 3.5816 2.2059 0.0000 -10545.7244 1467.0724 0.0000 0.0000 1749.6610 -7319.9887 300.9123 -9069.6497 -7404.6501 301.4050 548.5399 600.5028 30133.4502 -9.5368 32.7014
ENERGY: 900000 0.6924 2.4906 3.7411 0.0000 -10679.2932 1460.9744 0.0000 0.0000 1723.3154 -7488.0793 296.3813 -9211.3947 -7400.3368 301.0677 204.4713 244.6430 29800.7858 7.2411 49.8383
ENERGY: 1200000 3.3993 4.1282 4.6039 0.0000 -10598.3197 1444.7713 0.0000 0.0000 1790.4135 -7351.0035 307.9211 -9141.4170 -7382.6189 302.7954 154.4590 258.6537 30150.0159 37.9705 92.2506
ENERGY: 1500000 2.8877 6.8832 0.9629 0.0000 -10482.9312 1391.4377 0.0000 0.0000 1705.5680 -7375.1916 293.3291 -9080.7597 -7386.1041 301.5244 113.3133 115.7759 30141.0933 51.0668 93.9796
TCL: Exiting due to exit command.
