Info: SIMULATION PARAMETERS:
Info: TIMESTEP               2
Info: NUMBER OF STEPS        0
Info: STEPS PER CYCLE        10
Info: PERIODIC CELL BASIS 1  33.2218 0 0
Info: PERIODIC CELL BASIS 2  0 33.5422 0
Info: PERIODIC CELL BASIS 3  0 0 27.8208
Info: PERIODIC CELL CENTER   0 0 0
Info: WRAPPING WATERS AROUND PERIODIC BOUNDARIES ON OUTPUT.
Info: WRAPPING ALL CLUSTERS AROUND PERIODIC BOUNDARIES ON OUTPUT.
Info: FIRST LDB TIMESTEP     50
Info: LAST LDB TIMESTEP     -1
Info: HOM BACKGROUND SCALING 1
Info: PME BACKGROUND SCALING 1
Info: MIN ATOMS PER PATCH    40
Info: EMPTY PATCH LOAD       40 ATOMS
Info: VELOCITY FILE          mobley_9821936_equil.vel
Info: CENTER OF MASS MOVING INITIALLY? NO
Info: DIELECTRIC             1
Info: EXCLUDE                SCALED ONE-FOUR
Info: 1-4 ELECTROSTATICS SCALED BY 0.833333
Info: MODIFIED 1-4 VDW PARAMETERS WILL BE USED
Info: DCD FILENAME           mobley_9821936_prod.dcd
Info: DCD FREQUENCY          100000
Info: DCD FIRST STEP         100000
Info: DCD FILE WILL CONTAIN UNIT CELL DATA
Info: XST FILENAME           mobley_9821936_prod.xst
Info: XST FREQUENCY          100000
Info: NO VELOCITY DCD OUTPUT
Info: NO FORCE DCD OUTPUT
Info: OUTPUT FILENAME        mobley_9821936_prod
Info: BINARY OUTPUT FILES WILL BE USED
Info: RESTART FILENAME       mobley_9821936_prod.restart
Info: RESTART FREQUENCY      100000
Info: BINARY RESTART FILES WILL BE USED
Info: CUTOFF                 9
Info: PAIRLIST DISTANCE      11
Info: PAIRLIST SHRINK RATE   0.01
Info: PAIRLIST GROW RATE     0.01
Info: PAIRLIST TRIGGER       0.3
Info: PAIRLISTS PER CYCLE    2
Info: PAIRLISTS ENABLED
Info: MARGIN                 2
Info: HYDROGEN GROUP CUTOFF  2.5
Info: PATCH DIMENSION        15.5
Info: ENERGY OUTPUT STEPS    100000
Info: ENERGY EVALUATION STEPS    100000
Info: OUTPUT ENERGY PRECISION 4
Info: CROSSTERM ENERGY INCLUDED IN DIHEDRAL
Info: TIMING OUTPUT STEPS    1000000
Info: PRESSURE OUTPUT STEPS  100000
Info: ALCHEMICAL FEP ON
Info: FEP CURRENT LAMBDA VALUE     0
Info: FEP COMPARISON LAMBDA VALUE  0.05
Info: FEP INTRA-ALCHEMICAL NON-BONDED INTERACTIONS WILL BE RETAINED
Info: FEP INTRA-ALCHEMICAL BONDED INTERACTIONS WILL BE RETAINED
Info: FEP VDW SHIFTING COEFFICIENT 5
Info: FEP ELEC. ACTIVE FOR ANNIHILATED PARTICLES BETWEEN LAMBDA = 0 AND LAMBDA = 0.5
Info: FEP ELEC. ACTIVE FOR EXNIHILATED PARTICLES BETWEEN LAMBDA = 0.5 AND LAMBDA = 1
Info: FEP VDW ACTIVE FOR ANNIHILATED PARTICLES BETWEEN LAMBDA = 0 AND LAMBDA = 1
Info: FEP VDW ACTIVE FOR EXNIHILATED PARTICLES BETWEEN LAMBDA = 0 AND LAMBDA = 1
Info: FEP BOND ACTIVE FOR ANNIHILATED PARTICLES BETWEEN LAMBDA = 1 AND LAMBDA = 1
Info: FEP BOND ACTIVE FOR EXNIHILATED PARTICLES BETWEEN LAMBDA = 0 AND LAMBDA = 0
Info: LANGEVIN DYNAMICS ACTIVE
Info: LANGEVIN TEMPERATURE   300
Info: LANGEVIN USING BBK INTEGRATOR
Info: LANGEVIN DAMPING COEFFICIENT IS 1 INVERSE PS
Info: LANGEVIN DYNAMICS APPLIED TO HYDROGENS
Info: LANGEVIN PISTON PRESSURE CONTROL ACTIVE
Info:        TARGET PRESSURE IS 1.01325 BAR
Info:     OSCILLATION PERIOD IS 50 FS
Info:             DECAY TIME IS 25 FS
Info:     PISTON TEMPERATURE IS 300 K
Info:       PRESSURE CONTROL IS GROUP-BASED
Info:    INITIAL STRAIN RATE IS 9.67142e-05 9.67142e-05 9.67142e-05
Info:       CELL FLUCTUATION IS ISOTROPIC
Info: PARTICLE MESH EWALD (PME) ACTIVE
Info: PME TOLERANCE               1e-06
Info: PME EWALD COEFFICIENT       0.348832
Info: PME INTERPOLATION ORDER     4
Info: PME GRID DIMENSIONS         36 36 28
Info: PME MAXIMUM GRID SPACING    1
Info: PME CALCULATION WILL BE PERFORMED ON GPU
Info: FULL ELECTROSTATIC EVALUATION FREQUENCY      2
Info: USING VERLET I (r-RESPA) MTS SCHEME.
Info: C1 SPLITTING OF LONG RANGE ELECTROSTATICS
Info: PLACING ATOMS IN PATCHES BY HYDROGEN GROUPS
Info: RIGID BONDS TO HYDROGEN : ALL
Info:         ERROR TOLERANCE : 1e-08
Info:          MAX ITERATIONS : 100
Info: RIGID WATER USING SETTLE ALGORITHM
Info: RANDOM NUMBER SEED     1743638445
Info: USE HYDROGEN BONDS?    NO
Info: Using AMBER format force field!
Info: AMBER PARM FILE        mobley_9821936.prmtop
Info: COORDINATE PDB         mobley_9821936.pdb
Info: Exclusions will be read from PARM file!
Info: SCNB (VDW SCALING)     2
Info: USING ARITHMETIC MEAN TO COMBINE L-J SIGMA PARAMETERS
Info: BINARY COORDINATES     mobley_9821936_equil.coor
Info: SUMMARY OF PARAMETERS:
Info: 5 BONDS
Info: 4 ANGLES
Info:   4 HARMONIC
Info:   0 COSINE-BASED
Info: 3 DIHEDRAL
Info: 0 IMPROPER
Info: 0 CROSSTERM
Info: 0 VDW
Info: 15 VDW_PAIRS
Info: 0 NBTHOLE_PAIRS
Info: To read alchdata from file: mobley_9821936.pdb
Info: To read alchflag data from column: 5
Info: STRUCTURE SUMMARY:
Info: 2947 ATOMS
Info: 2949 BONDS
Info: 38 ANGLES
Info: 68 DIHEDRALS
Info: 0 IMPROPERS
Info: 0 CROSSTERMS
Info: 3034 EXCLUSIONS
Info: 2925 RIGID BONDS
Info: ALCH: 0 ATOMS TO DISAPPEAR IN FINAL STATE
Info: ALCH: 22 ATOMS TO APPEAR IN FINAL STATE
Info: 5916 DEGREES OF FREEDOM
Info: 997 HYDROGEN GROUPS
Info: 3 ATOMS IN LARGEST HYDROGEN GROUP
Info: 997 MIGRATION GROUPS
Info: 3 ATOMS IN LARGEST MIGRATION GROUP
Info: TOTAL MASS = 18025.3 amu
Info: TOTAL CHARGE = 9.9998e-05 e
Info: MASS DENSITY = 0.965515 g/cm^3
Info: ATOM DENSITY = 0.0950598 atoms/A^3
Info: ADDED 0 IMPLICIT EXCLUSIONS
Info: NONBONDED TABLE R-SQUARED SPACING: 0.0625
Info: NONBONDED TABLE SIZE: 705 POINTS
Info: REDUCING NUMBER OF PATCHES TO IMPROVE LOAD BALANCE
Info: REMOVING COM VELOCITY 0.111363 0.0305584 0.0102819
Info: Use 3D box decompostion in PME FFT.
Info: Updated CUDA force table with 4096 elements.
Info: Updated CUDA LJ table with 5 x 5 elements.
Info: Found 18 unique exclusion lists needing 44 bytes
TCL: Running for 1500000 steps
ETITLE: TS BOND ANGLE DIHED IMPRP ELECT VDW BOUNDARY MISC KINETIC TOTAL TEMP POTENTIAL TOTALAVG TEMPAVG PRESSURE GPRESSURE VOLUME PRESSAVG GPRESSAVG
ENERGY: 0 15.1558 4.8782 4.4477 0.0000 -10468.8666 1349.6283 0.0000 0.0000 1737.9654 -7356.7913 295.6673 -9094.7566 -7356.7913 295.6673 -957.4693 -872.4980 31001.5270 -957.4693 -872.4980
ENERGY: 300000 6.7811 4.9450 7.0494 0.0000 -10570.9318 1351.5497 0.0000 0.0000 1755.3875 -7445.2191 298.6312 -9200.6066 -7396.2307 298.3692 -877.5138 -814.3537 30428.5455 -530.4377 -452.9786
ENERGY: 600000 8.8438 10.6715 5.2415 0.0000 -10742.3780 1474.6020 0.0000 0.0000 1783.5458 -7459.4735 303.4216 -9243.0193 -7402.9678 299.8207 61.5451 155.5891 30083.1145 -482.4695 -415.2813
ENERGY: 900000 7.9948 4.3503 5.1891 0.0000 -10671.8929 1432.7858 0.0000 0.0000 1757.5478 -7464.0252 298.9987 -9221.5730 -7408.9393 299.1040 -160.1772 -76.2251 30080.6020 -585.1743 -514.5118
ENERGY: 1200000 8.0941 4.8150 4.9371 0.0000 -10667.7516 1430.4274 0.0000 0.0000 1768.5371 -7450.9409 300.8683 -9219.4780 -7413.1561 299.6504 -281.0420 -203.5764 30485.6724 -495.2950 -424.8799
ENERGY: 1500000 8.6811 2.9931 5.1556 0.0000 -10603.2512 1372.8785 0.0000 0.0000 1721.4804 -7492.0626 292.8629 -9213.5430 -7421.5759 299.3050 -967.8547 -929.9165 30614.9038 -549.2143 -482.7307
TCL: Running FEP window   2: Lambda1 0.05   Lambda2 0.1    [dLambda 0.05  ]
TCL: Setting parameter firsttimestep to 0
TCL: Setting parameter alchLambda to 0.05
Info: NONBONDED TABLE R-SQUARED SPACING: 0.0625
Info: NONBONDED TABLE SIZE: 705 POINTS
TCL: Setting parameter alchLambda2 to 0.1
Info: NONBONDED TABLE R-SQUARED SPACING: 0.0625
Info: NONBONDED TABLE SIZE: 705 POINTS
TCL: Running for 1500000 steps
ETITLE: TS BOND ANGLE DIHED IMPRP ELECT VDW BOUNDARY MISC KINETIC TOTAL TEMP POTENTIAL TOTALAVG TEMPAVG PRESSURE GPRESSURE VOLUME PRESSAVG GPRESSAVG
ENERGY: 0 8.6811 2.9931 5.1556 0.0000 -10603.2511 1385.1295 0.0000 0.0000 1720.6030 -7480.6889 292.7136 -9201.2919 -7480.6889 292.7136 -980.9766 -902.6700 30614.9038 -980.9766 -902.6700
ENERGY: 300000 10.1318 3.6999 4.7602 0.0000 -10685.4759 1439.6771 0.0000 0.0000 1707.3406 -7519.8662 290.4574 -9227.2067 -7461.8384 293.2930 -297.7895 -232.7938 30030.9019 -531.9856 -459.6168
ENERGY: 600000 9.6038 4.5244 6.2014 0.0000 -10470.4030 1377.3913 0.0000 0.0000 1788.6088 -7284.0733 304.2829 -9072.6821 -7443.8331 296.6026 -624.0172 -593.8149 30838.3710 -545.3094 -483.0851
ENERGY: 900000 7.0479 5.1098 7.3703 0.0000 -10595.6184 1412.2890 0.0000 0.0000 1813.0269 -7350.7745 308.4370 -9163.8014 -7430.9676 299.2702 -194.7702 -166.4149 30335.6283 -472.7854 -413.8712
ENERGY: 1200000 7.1559 7.9348 9.5709 0.0000 -10661.9638 1464.8650 0.0000 0.0000 1747.2156 -7425.2216 297.2410 -9172.4372 -7424.1882 299.5815 293.9239 283.5493 30147.9033 -351.4323 -301.6416
ENERGY: 1500000 6.3999 6.3258 5.4764 0.0000 -10568.3382 1354.1599 0.0000 0.0000 1740.8578 -7455.1184 296.1594 -9195.9762 -7423.8049 299.5229 -1111.7135 -1030.3643 30569.5933 -433.5655 -384.7887
TCL: Running FEP window   3: Lambda1 0.1    Lambda2 0.15000000000000002 [dLambda 0.05000000000000002]
TCL: Setting parameter firsttimestep to 0
TCL: Setting parameter alchLambda to 0.1
Info: NONBONDED TABLE R-SQUARED SPACING: 0.0625
Info: NONBONDED TABLE SIZE: 705 POINTS
TCL: Setting parameter alchLambda2 to 0.15000000000000002
Info: NONBONDED TABLE R-SQUARED SPACING: 0.0625
Info: NONBONDED TABLE SIZE: 705 POINTS
TCL: Running for 1500000 steps
ETITLE: TS BOND ANGLE DIHED IMPRP ELECT VDW BOUNDARY MISC KINETIC TOTAL TEMP POTENTIAL TOTALAVG TEMPAVG PRESSURE GPRESSURE VOLUME PRESSAVG GPRESSAVG
ENERGY: 0 6.3999 6.3258 5.4764 0.0000 -10568.3363 1359.7868 0.0000 0.0000 1739.9573 -7450.3902 296.0062 -9190.3475 -7450.3902 296.0062 -1096.9643 -1004.7569 30569.5933 -1096.9643 -1004.7569
ENERGY: 300000 9.7882 3.5283 4.3678 0.0000 -10737.8336 1538.2087 0.0000 0.0000 1715.5947 -7466.3459 291.8616 -9181.9406 -7442.1999 295.2651 963.6779 1065.5545 29849.8269 -258.7483 -181.4843
ENERGY: 600000 10.0936 4.7175 7.1072 0.0000 -10685.0390 1462.3517 0.0000 0.0000 1767.2443 -7433.5246 300.6483 -9200.7689 -7440.1381 297.1375 -296.3754 -217.0004 30550.3252 -107.9597 -31.9419
ENERGY: 900000 6.5525 6.0255 3.7459 0.0000 -10477.3907 1318.7013 0.0000 0.0000 1820.8398 -7321.5257 309.7661 -9142.3655 -7433.9825 298.5196 -958.8711 -925.4559 30591.3602 -295.5807 -220.5084
ENERGY: 1200000 7.9259 3.4849 3.8271 0.0000 -10609.1305 1379.9973 0.0000 0.0000 1775.8392 -7438.0563 302.1105 -9213.8954 -7438.9279 298.6437 -394.0199 -338.0665 29955.7277 -247.1369 -177.6361
ENERGY: 1500000 15.0026 4.6450 7.5696 0.0000 -10527.6339 1288.3919 0.0000 0.0000 1811.1328 -7400.8920 308.1148 -9212.0248 -7427.8498 299.9447 -1557.4970 -1470.9465 30330.7064 -386.0384 -317.3514
TCL: Running FEP window   4: Lambda1 0.15000000000000002 Lambda2 0.2    [dLambda 0.04999999999999999]
TCL: Setting parameter firsttimestep to 0
TCL: Setting parameter alchLambda to 0.15000000000000002
Info: NONBONDED TABLE R-SQUARED SPACING: 0.0625
Info: NONBONDED TABLE SIZE: 705 POINTS
TCL: Setting parameter alchLambda2 to 0.2
Info: NONBONDED TABLE R-SQUARED SPACING: 0.0625
Info: NONBONDED TABLE SIZE: 705 POINTS
TCL: Running for 1500000 steps
ETITLE: TS BOND ANGLE DIHED IMPRP ELECT VDW BOUNDARY MISC KINETIC TOTAL TEMP POTENTIAL TOTALAVG TEMPAVG PRESSURE GPRESSURE VOLUME PRESSAVG GPRESSAVG
ENERGY: 0 15.0026 4.6450 7.5696 0.0000 -10527.6338 1290.5817 0.0000 0.0000 1810.2514 -7399.5836 307.9648 -9209.8350 -7399.5836 307.9648 -1544.9959 -1454.3132 30330.7064 -1544.9959 -1454.3132
ENERGY: 300000 6.5986 4.2420 4.2871 0.0000 -10630.6425 1467.1912 0.0000 0.0000 1769.7877 -7378.5359 301.0810 -9148.3236 -7355.3591 307.5468 355.4824 482.8609 30180.6027 -21.4561 87.8646
ENERGY: 600000 8.2284 2.8199 5.2555 0.0000 -10714.4783 1471.5406 0.0000 0.0000 1775.7937 -7450.8402 302.1028 -9226.6339 -7398.2521 305.4434 -117.1884 -30.0900 30628.0549 -65.7399 44.5185
ENERGY: 900000 9.5704 5.2045 4.2557 0.0000 -10766.4902 1506.3238 0.0000 0.0000 1767.3426 -7473.7931 300.6651 -9241.1358 -7424.4175 302.6147 130.5877 146.5301 30082.3125 109.7151 201.6196
ENERGY: 1200000 6.6321 4.3614 6.0039 0.0000 -10779.9041 1463.1558 0.0000 0.0000 1731.9542 -7567.7967 294.6447 -9299.7509 -7426.0548 301.0552 -89.8145 26.5743 29698.2611 163.4628 251.1288
ENERGY: 1500000 8.6377 4.3859 4.6167 0.0000 -10544.8811 1358.5982 0.0000 0.0000 1750.6656 -7417.9770 297.8279 -9168.6426 -7419.2225 300.8734 -1001.9442 -998.6840 30791.9129 100.4308 173.2742
TCL: Running FEP window   5: Lambda1 0.2    Lambda2 0.25   [dLambda 0.04999999999999999]
TCL: Setting parameter firsttimestep to 0
TCL: Setting parameter alchLambda to 0.2
Info: NONBONDED TABLE R-SQUARED SPACING: 0.0625
Info: NONBONDED TABLE SIZE: 705 POINTS
TCL: Setting parameter alchLambda2 to 0.25
Info: NONBONDED TABLE R-SQUARED SPACING: 0.0625
Info: NONBONDED TABLE SIZE: 705 POINTS
TCL: Running for 1500000 steps
ETITLE: TS BOND ANGLE DIHED IMPRP ELECT VDW BOUNDARY MISC KINETIC TOTAL TEMP POTENTIAL TOTALAVG TEMPAVG PRESSURE GPRESSURE VOLUME PRESSAVG GPRESSAVG
ENERGY: 0 8.6377 4.3859 4.6167 0.0000 -10544.8819 1360.6992 0.0000 0.0000 1749.7821 -7416.7602 297.6776 -9166.5424 -7416.7602 297.6776 -1057.3026 -982.5922 30791.9129 -1057.3026 -982.5922
ENERGY: 300000 5.7961 3.4126 5.3693 0.0000 -10684.2582 1450.0106 0.0000 0.0000 1762.1545 -7457.5151 299.7825 -9219.6697 -7408.9399 300.9613 352.2443 427.0271 29690.4003 24.9829 88.4351
ENERGY: 600000 7.9871 5.9334 3.8877 0.0000 -10572.6900 1432.6037 0.0000 0.0000 1718.8794 -7403.3987 292.4204 -9122.2781 -7410.7957 297.8159 -158.1302 -106.1056 30662.7958 73.4101 129.8120
ENERGY: 900000 8.9367 3.2472 5.8435 0.0000 -10652.7306 1445.7845 0.0000 0.0000 1796.9950 -7391.9237 305.7096 -9188.9187 -7402.2203 298.3942 -271.6326 -207.7078 30884.8093 33.9525 90.6516
ENERGY: 1200000 10.1908 7.3719 4.8668 0.0000 -10739.4449 1514.8526 0.0000 0.0000 1752.5205 -7449.6424 298.1435 -9202.1629 -7407.4571 298.9108 -114.6429 -5.2400 30623.4273 10.2208 71.1912
ENERGY: 1500000 8.3531 3.5954 3.7182 0.0000 -10721.6149 1430.4555 0.0000 0.0000 1753.1029 -7522.3898 298.2426 -9275.4927 -7425.2056 298.3524 -228.0164 -188.5437 30109.4372 38.0566 100.4934
TCL: Running FEP window   6: Lambda1 0.25   Lambda2 0.3    [dLambda 0.04999999999999999]
TCL: Setting parameter firsttimestep to 0
TCL: Setting parameter alchLambda to 0.25
Info: NONBONDED TABLE R-SQUARED SPACING: 0.0625
Info: NONBONDED TABLE SIZE: 705 POINTS
TCL: Setting parameter alchLambda2 to 0.3
Info: NONBONDED TABLE R-SQUARED SPACING: 0.0625
Info: NONBONDED TABLE SIZE: 705 POINTS
TCL: Running for 1500000 steps
ETITLE: TS BOND ANGLE DIHED IMPRP ELECT VDW BOUNDARY MISC KINETIC TOTAL TEMP POTENTIAL TOTALAVG TEMPAVG PRESSURE GPRESSURE VOLUME PRESSAVG GPRESSAVG
ENERGY: 0 8.3532 3.5954 3.7182 0.0000 -10721.6151 1429.9893 0.0000 0.0000 1752.2492 -7523.7098 298.0973 -9275.9591 -7523.7098 298.0973 -261.2782 -183.4400 30109.4372 -261.2782 -183.4400
ENERGY: 300000 13.9840 2.9450 7.5233 0.0000 -10624.0839 1401.0815 0.0000 0.0000 1781.4055 -7417.1446 303.0575 -9198.5500 -7429.5032 303.4976 -447.4226 -350.7605 30034.7991 29.1147 107.3286
ENERGY: 600000 13.5845 5.0129 7.8442 0.0000 -10663.2419 1532.5811 0.0000 0.0000 1756.7728 -7347.4463 298.8669 -9104.2192 -7428.3811 299.4210 769.3294 830.7080 30508.4241 123.9333 191.3471
ENERGY: 900000 5.9873 5.4704 4.0514 0.0000 -10522.4369 1363.3298 0.0000 0.0000 1810.5877 -7333.0104 308.0220 -9143.5980 -7411.6126 300.7874 -376.1836 -330.4036 30444.1440 93.2337 154.8583
ENERGY: 1200000 7.3511 4.0089 5.1455 0.0000 -10723.8606 1441.8644 0.0000 0.0000 1738.5373 -7526.9533 295.7646 -9265.4906 -7416.4055 299.6531 -253.0617 -219.2027 30028.3047 -24.1651 35.6823
ENERGY: 1500000 8.4177 3.4488 4.6660 0.0000 -10715.5014 1469.1872 0.0000 0.0000 1745.8527 -7483.9290 297.0091 -9229.7817 -7407.5566 299.8624 -95.6448 73.7407 30590.5730 -52.4536 11.0875
TCL: Running FEP window   7: Lambda1 0.3    Lambda2 0.35   [dLambda 0.04999999999999999]
TCL: Setting parameter firsttimestep to 0
TCL: Setting parameter alchLambda to 0.3
Info: NONBONDED TABLE R-SQUARED SPACING: 0.0625
Info: NONBONDED TABLE SIZE: 705 POINTS
TCL: Setting parameter alchLambda2 to 0.35
Info: NONBONDED TABLE R-SQUARED SPACING: 0.0625
Info: NONBONDED TABLE SIZE: 705 POINTS
TCL: Running for 1500000 steps
ETITLE: TS BOND ANGLE DIHED IMPRP ELECT VDW BOUNDARY MISC KINETIC TOTAL TEMP POTENTIAL TOTALAVG TEMPAVG PRESSURE GPRESSURE VOLUME PRESSAVG GPRESSAVG
ENERGY: 0 8.4177 3.4488 4.6660 0.0000 -10715.5014 1471.2998 0.0000 0.0000 1744.9707 -7482.6985 296.8591 -9227.6692 -7482.6985 296.8591 4.6078 94.6578 30590.5730 4.6078 94.6578
ENERGY: 300000 10.3690 7.7338 4.8650 0.0000 -10685.4366 1479.5118 0.0000 0.0000 1776.0207 -7406.9363 302.1414 -9182.9570 -7444.7730 296.6192 347.7246 369.9890 30205.2359 202.4264 287.8116
ENERGY: 600000 4.6327 4.0807 8.0946 0.0000 -10572.4877 1450.9348 0.0000 0.0000 1844.2549 -7260.4899 313.7496 -9104.7448 -7417.0469 299.7785 415.5209 457.3218 30237.3545 310.9610 381.4213
ENERGY: 900000 3.8269 7.4043 2.4176 0.0000 -10663.8918 1464.2793 0.0000 0.0000 1767.4391 -7418.5246 300.6815 -9185.9638 -7417.4855 300.2743 62.3830 153.5197 30597.1957 195.4826 270.1761
ENERGY: 1200000 8.7186 1.8374 7.5030 0.0000 -10686.5420 1458.9342 0.0000 0.0000 1740.4726 -7469.0762 296.0939 -9209.5488 -7416.3653 300.0753 -172.7003 -139.4711 30670.6176 238.3025 307.9403
ENERGY: 1500000 5.9488 4.5080 4.6562 0.0000 -10623.4196 1425.8946 0.0000 0.0000 1707.8191 -7474.5929 290.5388 -9182.4120 -7412.5975 299.6473 23.5240 31.9199 30198.6182 231.9661 298.1987
TCL: Running FEP window   8: Lambda1 0.35   Lambda2 0.39999999999999997 [dLambda 0.04999999999999999]
TCL: Setting parameter firsttimestep to 0
TCL: Setting parameter alchLambda to 0.35
Info: NONBONDED TABLE R-SQUARED SPACING: 0.0625
Info: NONBONDED TABLE SIZE: 705 POINTS
TCL: Setting parameter alchLambda2 to 0.39999999999999997
Info: NONBONDED TABLE R-SQUARED SPACING: 0.0625
Info: NONBONDED TABLE SIZE: 705 POINTS
TCL: Running for 1500000 steps
ETITLE: TS BOND ANGLE DIHED IMPRP ELECT VDW BOUNDARY MISC KINETIC TOTAL TEMP POTENTIAL TOTALAVG TEMPAVG PRESSURE GPRESSURE VOLUME PRESSAVG GPRESSAVG
ENERGY: 0 5.9488 4.5080 4.6562 0.0000 -10623.4212 1425.6308 0.0000 0.0000 1706.9431 -7475.7344 290.3897 -9182.6775 -7475.7344 290.3897 -24.5297 41.7299 30198.6182 -24.5297 41.7299
ENERGY: 300000 7.0189 4.5692 4.2689 0.0000 -10525.9982 1429.4166 0.0000 0.0000 1772.9477 -7307.7769 301.6186 -9080.7246 -7401.9324 296.1211 33.8720 138.5249 30833.5674 349.9047 414.3360
ENERGY: 600000 9.5956 2.2942 4.9677 0.0000 -10706.3553 1453.2542 0.0000 0.0000 1794.4841 -7441.7594 305.2824 -9236.2435 -7403.2958 298.4591 135.7126 159.6167 30319.7560 269.6433 330.1320
ENERGY: 900000 7.0005 8.9898 4.5324 0.0000 -10754.4689 1501.6761 0.0000 0.0000 1774.3821 -7457.8880 301.8626 -9232.2700 -7399.2234 298.5088 448.4459 519.0639 30094.2933 218.3610 276.7877
ENERGY: 1200000 5.8166 3.5936 3.2706 0.0000 -10718.6515 1493.4355 0.0000 0.0000 1721.0851 -7491.4500 292.7956 -9212.5351 -7401.4868 298.3263 216.1199 315.9287 30431.7748 185.5689 247.9342
ENERGY: 1500000 5.6594 5.2204 5.2937 0.0000 -10646.3884 1415.9774 0.0000 0.0000 1746.0037 -7468.2338 297.0348 -9214.2375 -7395.7869 299.1435 -459.1519 -445.7573 30666.2937 65.0591 127.7961
TCL: Running FEP window   9: Lambda1 0.39999999999999997 Lambda2 0.44999999999999996 [dLambda 0.04999999999999999]
TCL: Setting parameter firsttimestep to 0
TCL: Setting parameter alchLambda to 0.39999999999999997
Info: NONBONDED TABLE R-SQUARED SPACING: 0.0625
Info: NONBONDED TABLE SIZE: 705 POINTS
TCL: Setting parameter alchLambda2 to 0.44999999999999996
Info: NONBONDED TABLE R-SQUARED SPACING: 0.0625
Info: NONBONDED TABLE SIZE: 705 POINTS
TCL: Running for 1500000 steps
ETITLE: TS BOND ANGLE DIHED IMPRP ELECT VDW BOUNDARY MISC KINETIC TOTAL TEMP POTENTIAL TOTALAVG TEMPAVG PRESSURE GPRESSURE VOLUME PRESSAVG GPRESSAVG
ENERGY: 0 5.6594 5.2204 5.2937 0.0000 -10646.3892 1415.3923 0.0000 0.0000 1745.1141 -7469.7094 296.8835 -9214.8234 -7469.7094 296.8835 -501.7512 -438.3002 30666.2937 -501.7512 -438.3002
ENERGY: 300000 12.8589 6.2970 10.2665 0.0000 -10649.9514 1516.4687 0.0000 0.0000 1765.5311 -7338.5292 300.3569 -9104.0603 -7415.3229 299.1678 695.1346 735.2954 30488.2865 -33.4701 21.7392
ENERGY: 600000 7.3176 7.2180 6.2009 0.0000 -10699.8321 1470.1231 0.0000 0.0000 1744.5799 -7464.3925 296.7926 -9208.9725 -7422.8196 297.4258 647.0728 727.7914 29664.3105 -0.0863 75.5581
ENERGY: 900000 9.3710 2.7835 5.3190 0.0000 -10767.6433 1512.3767 0.0000 0.0000 1719.4235 -7518.3696 292.5129 -9237.7931 -7411.6168 298.2630 123.4662 140.4747 30315.9575 -81.7883 -21.5297
ENERGY: 1200000 7.8182 3.8258 7.5661 0.0000 -10658.1259 1389.6743 0.0000 0.0000 1771.5622 -7477.6793 301.3829 -9249.2414 -7422.7437 298.5982 -511.2738 -436.4147 30551.5646 -132.9353 -69.1939
ENERGY: 1500000 8.4281 6.1426 8.3557 0.0000 -10781.4553 1531.0754 0.0000 0.0000 1755.6708 -7471.7827 298.6794 -9227.4535 -7418.8792 299.5377 799.2900 792.2993 30207.4060 -112.1752 -57.5070
TCL: Running FEP window  10: Lambda1 0.44999999999999996 Lambda2 0.49999999999999994 [dLambda 0.04999999999999999]
TCL: Setting parameter firsttimestep to 0
TCL: Setting parameter alchLambda to 0.44999999999999996
Info: NONBONDED TABLE R-SQUARED SPACING: 0.0625
Info: NONBONDED TABLE SIZE: 705 POINTS
TCL: Setting parameter alchLambda2 to 0.49999999999999994
Info: NONBONDED TABLE R-SQUARED SPACING: 0.0625
Info: NONBONDED TABLE SIZE: 705 POINTS
TCL: Running for 1500000 steps
ETITLE: TS BOND ANGLE DIHED IMPRP ELECT VDW BOUNDARY MISC KINETIC TOTAL TEMP POTENTIAL TOTALAVG TEMPAVG PRESSURE GPRESSURE VOLUME PRESSAVG GPRESSAVG
ENERGY: 0 8.4281 6.1426 8.3557 0.0000 -10781.4558 1532.6614 0.0000 0.0000 1754.8164 -7471.0517 298.5341 -9225.8681 -7471.0517 298.5341 737.9677 818.6724 30207.4060 737.9677 818.6724
ENERGY: 300000 8.0449 2.7744 6.8963 0.0000 -10570.8535 1384.1130 0.0000 0.0000 1790.2998 -7378.7251 304.5706 -9169.0249 -7414.5156 300.8156 -545.3450 -477.9165 30563.4721 -23.1300 59.3118
ENERGY: 600000 6.7339 3.7962 6.0967 0.0000 -10520.7483 1450.8783 0.0000 0.0000 1741.2893 -7311.9539 296.2328 -9053.2432 -7403.8799 300.3023 427.1918 444.1909 30634.1258 26.9563 92.6792
ENERGY: 900000 12.2593 4.0044 8.8431 0.0000 -10618.5641 1404.4699 0.0000 0.0000 1727.5111 -7461.4762 293.8888 -9188.9873 -7409.7122 299.9263 -594.4560 -564.4710 30447.7175 -117.5487 -53.7270
ENERGY: 1200000 10.6934 6.8674 4.9262 0.0000 -10599.1837 1375.4349 0.0000 0.0000 1743.6272 -7457.6345 296.6305 -9201.2617 -7412.1159 299.7228 -447.3214 -375.5949 29822.7032 -45.1097 15.3433
ENERGY: 1500000 9.0837 3.8884 8.3971 0.0000 -10581.7373 1400.3517 0.0000 0.0000 1738.5023 -7421.5141 295.7587 -9160.0164 -7410.9492 299.6392 -542.6782 -468.3802 30493.9722 -103.3512 -35.6426
TCL: Running FEP window  11: Lambda1 0.49999999999999994 Lambda2 0.5499999999999999 [dLambda 0.04999999999999999]
TCL: Setting parameter firsttimestep to 0
TCL: Setting parameter alchLambda to 0.49999999999999994
Info: NONBONDED TABLE R-SQUARED SPACING: 0.0625
Info: NONBONDED TABLE SIZE: 705 POINTS
TCL: Setting parameter alchLambda2 to 0.5499999999999999
Info: NONBONDED TABLE R-SQUARED SPACING: 0.0625
Info: NONBONDED TABLE SIZE: 705 POINTS
TCL: Running for 1500000 steps
ETITLE: TS BOND ANGLE DIHED IMPRP ELECT VDW BOUNDARY MISC KINETIC TOTAL TEMP POTENTIAL TOTALAVG TEMPAVG PRESSURE GPRESSURE VOLUME PRESSAVG GPRESSAVG
ENERGY: 0 9.0837 3.8884 8.3971 0.0000 -10581.7372 1399.8563 0.0000 0.0000 1737.6100 -7422.9018 295.6069 -9160.5118 -7422.9018 295.6069 -533.9217 -460.2445 30493.9722 -533.9217 -460.2445
ENERGY: 300000 7.5906 3.4042 4.0612 0.0000 -10639.0441 1417.7016 0.0000 0.0000 1793.4858 -7412.8007 305.1126 -9206.2866 -7384.2489 305.1300 -459.7402 -386.2593 30624.0601 -265.6285 -190.6317
ENERGY: 600000 5.3503 8.7894 7.4670 0.0000 -10602.1175 1394.7196 0.0000 0.0000 1762.4281 -7423.3630 299.8290 -9185.7911 -7409.9092 302.3949 -217.7419 -175.0129 30163.7007 -278.0809 -207.4289
ENERGY: 900000 6.4989 4.7587 5.2597 0.0000 -10645.8914 1495.8920 0.0000 0.0000 1832.6592 -7300.8230 311.7769 -9133.4822 -7407.6943 301.7405 944.7779 1036.7539 30224.7065 -31.1061 47.9320
ENERGY: 1200000 7.7594 4.2933 8.3174 0.0000 -10571.2267 1315.4586 0.0000 0.0000 1738.6007 -7496.7972 295.7754 -9235.3979 -7408.5411 301.2723 -1202.7391 -1149.4612 30414.9060 -123.2903 -46.5490
ENERGY: 1500000 11.3932 6.7639 10.3230 0.0000 -10903.4730 1583.7159 0.0000 0.0000 1754.6923 -7536.5847 298.5130 -9291.2771 -7414.5914 301.2926 1009.5573 1101.1593 30194.3029 -71.0176 3.4345
TCL: Running FEP window  12: Lambda1 0.5499999999999999 Lambda2 0.6    [dLambda 0.050000000000000044]
TCL: Setting parameter firsttimestep to 0
TCL: Setting parameter alchLambda to 0.5499999999999999
Info: NONBONDED TABLE R-SQUARED SPACING: 0.0625
Info: NONBONDED TABLE SIZE: 705 POINTS
TCL: Setting parameter alchLambda2 to 0.6
Info: NONBONDED TABLE R-SQUARED SPACING: 0.0625
Info: NONBONDED TABLE SIZE: 705 POINTS
TCL: Running for 1500000 steps
ETITLE: TS BOND ANGLE DIHED IMPRP ELECT VDW BOUNDARY MISC KINETIC TOTAL TEMP POTENTIAL TOTALAVG TEMPAVG PRESSURE GPRESSURE VOLUME PRESSAVG GPRESSAVG
ENERGY: 0 11.3931 6.7639 10.3230 0.0000 -10903.4496 1583.6138 0.0000 0.0000 1753.8344 -7537.5214 298.3670 -9291.3558 -7537.5214 298.3670 1017.3423 1116.0743 30194.3029 1017.3423 1116.0743
ENERGY: 300000 6.6745 5.9846 7.5236 0.0000 -10554.1011 1438.1064 0.0000 0.0000 1761.8534 -7333.9586 299.7312 -9095.8120 -7456.0186 299.0791 245.0630 323.5233 30582.4579 337.9834 428.9638
ENERGY: 600000 13.2018 7.1887 2.2357 0.0000 -10666.3578 1452.2744 0.0000 0.0000 1807.7599 -7383.6974 307.5410 -9191.4573 -7440.8362 300.2098 140.1346 184.5843 30608.6132 328.4094 399.3068
ENERGY: 900000 6.8394 5.5229 3.6444 0.0000 -10555.6735 1427.0521 0.0000 0.0000 1765.0380 -7347.5767 300.2730 -9112.6147 -7417.7848 301.2408 46.5164 161.4439 30110.9056 153.5857 234.5445
ENERGY: 1200000 10.6059 4.5133 5.9989 0.0000 -10625.3396 1367.2123 0.0000 0.0000 1791.5871 -7445.4221 304.7896 -9237.0092 -7416.0283 301.6824 -1100.7200 -972.6145 30954.7957 45.9670 134.9900
ENERGY: 1500000 6.1112 2.9722 4.4431 0.0000 -10665.1293 1480.6185 0.0000 0.0000 1779.6881 -7391.2962 302.7653 -9170.9843 -7424.9847 300.6042 506.3045 596.9879 30332.1826 86.2720 170.3886
TCL: Running FEP window  13: Lambda1 0.6    Lambda2 0.65   [dLambda 0.050000000000000044]
TCL: Setting parameter firsttimestep to 0
TCL: Setting parameter alchLambda to 0.6
Info: NONBONDED TABLE R-SQUARED SPACING: 0.0625
Info: NONBONDED TABLE SIZE: 705 POINTS
TCL: Setting parameter alchLambda2 to 0.65
Info: NONBONDED TABLE R-SQUARED SPACING: 0.0625
Info: NONBONDED TABLE SIZE: 705 POINTS
TCL: Running for 1500000 steps
ETITLE: TS BOND ANGLE DIHED IMPRP ELECT VDW BOUNDARY MISC KINETIC TOTAL TEMP POTENTIAL TOTALAVG TEMPAVG PRESSURE GPRESSURE VOLUME PRESSAVG GPRESSAVG
ENERGY: 0 6.1112 2.9722 4.4431 0.0000 -10665.2686 1480.3981 0.0000 0.0000 1778.8353 -7392.5087 302.6202 -9171.3440 -7392.5087 302.6202 508.0690 607.0584 30332.1826 508.0690 607.0584
ENERGY: 300000 8.7825 4.0987 4.4645 0.0000 -10738.9089 1496.3482 0.0000 0.0000 1790.3097 -7434.9053 304.5723 -9225.2150 -7435.9668 299.8483 170.1870 223.8664 30552.7767 17.0082 97.1883
ENERGY: 600000 9.6277 7.1207 4.7739 0.0000 -10582.8271 1377.7656 0.0000 0.0000 1721.8431 -7461.6961 292.9246 -9183.5392 -7438.8054 299.4113 -603.2207 -583.7302 30985.2109 -112.7043 -66.3457
ENERGY: 900000 6.5697 3.6955 5.6143 0.0000 -10549.5271 1440.7677 0.0000 0.0000 1856.3749 -7236.5050 315.8115 -9092.8800 -7428.4414 300.2063 187.2664 283.7857 30936.0928 -1.5965 49.8672
ENERGY: 1200000 12.5184 5.4785 4.9222 0.0000 -10586.2248 1442.4499 0.0000 0.0000 1713.2637 -7407.5920 291.4650 -9120.8558 -7418.2716 299.9954 203.6755 245.2910 30722.6367 -15.0223 44.6862
ENERGY: 1500000 6.8970 7.9712 6.6070 0.0000 -10541.9718 1344.0229 0.0000 0.0000 1751.1635 -7425.3102 297.9126 -9176.4737 -7413.4537 300.5790 -686.8441 -665.6064 30450.3879 -86.9520 -30.7666
TCL: Running FEP window  14: Lambda1 0.65   Lambda2 0.7000000000000001 [dLambda 0.050000000000000044]
TCL: Setting parameter firsttimestep to 0
TCL: Setting parameter alchLambda to 0.65
Info: NONBONDED TABLE R-SQUARED SPACING: 0.0625
Info: NONBONDED TABLE SIZE: 705 POINTS
TCL: Setting parameter alchLambda2 to 0.7000000000000001
Info: NONBONDED TABLE R-SQUARED SPACING: 0.0625
Info: NONBONDED TABLE SIZE: 705 POINTS
TCL: Running for 1500000 steps
ETITLE: TS BOND ANGLE DIHED IMPRP ELECT VDW BOUNDARY MISC KINETIC TOTAL TEMP POTENTIAL TOTALAVG TEMPAVG PRESSURE GPRESSURE VOLUME PRESSAVG GPRESSAVG
ENERGY: 0 6.8970 7.9712 6.6070 0.0000 -10542.0650 1343.4183 0.0000 0.0000 1750.2769 -7426.8945 297.7618 -9177.1714 -7426.8945 297.7618 -735.8960 -657.0497 30450.3879 -735.8960 -657.0497
ENERGY: 300000 9.6321 6.3215 4.0276 0.0000 -10637.3454 1454.6250 0.0000 0.0000 1710.8409 -7451.8983 291.0528 -9162.7392 -7446.0789 296.7860 114.0043 179.0592 30745.4180 -178.4174 -132.5292
ENERGY: 600000 7.8313 3.1242 7.3518 0.0000 -10692.9225 1464.8454 0.0000 0.0000 1678.4321 -7531.3378 285.5394 -9209.7699 -7456.7047 296.5487 122.6235 278.1454 30188.9981 130.3701 190.9696
ENERGY: 900000 7.7963 3.5457 4.7791 0.0000 -10592.9715 1446.3165 0.0000 0.0000 1734.0917 -7396.4422 295.0083 -9130.5339 -7445.9706 297.3072 -114.6218 -56.8183 30830.7847 106.2015 161.5096
ENERGY: 1200000 10.0308 5.0602 5.7572 0.0000 -10579.8221 1380.2901 0.0000 0.0000 1790.2304 -7388.4534 304.5588 -9178.6838 -7429.9085 298.2936 -487.9123 -383.5960 30311.4716 85.3651 149.9741
ENERGY: 1500000 5.0402 5.1875 4.8478 0.0000 -10591.9565 1409.3466 0.0000 0.0000 1797.5722 -7369.9622 305.8078 -9167.5344 -7426.0634 299.6212 -156.8984 -102.2448 30500.7616 93.9227 158.0647
TCL: Running FEP window  15: Lambda1 0.7000000000000001 Lambda2 0.7500000000000001 [dLambda 0.050000000000000044]
TCL: Setting parameter firsttimestep to 0
TCL: Setting parameter alchLambda to 0.7000000000000001
Info: NONBONDED TABLE R-SQUARED SPACING: 0.0625
Info: NONBONDED TABLE SIZE: 705 POINTS
TCL: Setting parameter alchLambda2 to 0.7500000000000001
Info: NONBONDED TABLE R-SQUARED SPACING: 0.0625
Info: NONBONDED TABLE SIZE: 705 POINTS
TCL: Running for 1500000 steps
ETITLE: TS BOND ANGLE DIHED IMPRP ELECT VDW BOUNDARY MISC KINETIC TOTAL TEMP POTENTIAL TOTALAVG TEMPAVG PRESSURE GPRESSURE VOLUME PRESSAVG GPRESSAVG
ENERGY: 0 5.0402 5.1875 4.8478 0.0000 -10591.9828 1410.1245 0.0000 0.0000 1796.7410 -7370.0418 305.6664 -9166.7827 -7370.0418 305.6664 -168.6328 -78.2663 30500.7616 -168.6328 -78.2663
ENERGY: 300000 7.1379 4.1784 5.8246 0.0000 -10617.7952 1395.3049 0.0000 0.0000 1772.3417 -7433.0076 301.5155 -9205.3493 -7432.4962 299.5797 -425.8216 -365.3297 30369.4855 369.7753 457.2279
ENERGY: 600000 9.6383 5.9121 5.0309 0.0000 -10622.7314 1412.6678 0.0000 0.0000 1754.2221 -7435.2602 298.4330 -9189.4823 -7420.5908 301.2465 314.9865 405.8063 29782.0652 243.4477 331.3177
ENERGY: 900000 7.3002 4.0117 6.2263 0.0000 -10720.7237 1444.9213 0.0000 0.0000 1839.3524 -7418.9118 312.9156 -9258.2642 -7416.8828 302.6084 76.2261 108.9347 30092.4994 121.4815 196.6910
ENERGY: 1200000 11.4355 1.8183 6.8207 0.0000 -10559.0746 1445.8534 0.0000 0.0000 1757.9073 -7335.2394 299.0599 -9093.1467 -7413.0986 301.7857 46.9559 211.8802 30617.1438 212.5240 293.8809
ENERGY: 1500000 5.7981 3.0896 4.1843 0.0000 -10684.6328 1454.0087 0.0000 0.0000 1730.5953 -7486.9568 294.4135 -9217.5521 -7417.4950 301.3222 309.4120 352.1757 30366.6065 254.5547 334.0794
TCL: Running FEP window  16: Lambda1 0.7500000000000001 Lambda2 0.8000000000000002 [dLambda 0.050000000000000044]
TCL: Setting parameter firsttimestep to 0
TCL: Setting parameter alchLambda to 0.7500000000000001
Info: NONBONDED TABLE R-SQUARED SPACING: 0.0625
Info: NONBONDED TABLE SIZE: 705 POINTS
TCL: Setting parameter alchLambda2 to 0.8000000000000002
Info: NONBONDED TABLE R-SQUARED SPACING: 0.0625
Info: NONBONDED TABLE SIZE: 705 POINTS
TCL: Running for 1500000 steps
ETITLE: TS BOND ANGLE DIHED IMPRP ELECT VDW BOUNDARY MISC KINETIC TOTAL TEMP POTENTIAL TOTALAVG TEMPAVG PRESSURE GPRESSURE VOLUME PRESSAVG GPRESSAVG
ENERGY: 0 5.7981 3.0896 4.1843 0.0000 -10684.7481 1454.4603 0.0000 0.0000 1729.7089 -7487.5069 294.2627 -9217.2158 -7487.5069 294.2627 297.6461 372.0811 30366.6065 297.6461 372.0811
ENERGY: 300000 7.9998 4.1580 6.1521 0.0000 -10634.5662 1486.8005 0.0000 0.0000 1744.5589 -7384.8968 296.7890 -9129.4557 -7452.4379 295.5409 645.5020 718.4346 30557.7928 386.7384 428.7621
ENERGY: 600000 9.7036 2.3356 5.9634 0.0000 -10781.6806 1496.6805 0.0000 0.0000 1743.9867 -7523.0108 296.6917 -9266.9975 -7469.6053 298.2307 221.1838 341.4134 30151.3650 161.4372 219.6846
ENERGY: 900000 10.6936 4.3918 5.7823 0.0000 -10552.0654 1265.1281 0.0000 0.0000 1729.3782 -7536.6913 294.2065 -9266.0695 -7470.1665 298.1094 -1769.0872 -1715.8243 30678.1054 -67.4066 -7.6495
ENERGY: 1200000 3.9461 5.6950 3.8607 0.0000 -10645.2228 1432.2212 0.0000 0.0000 1703.4647 -7496.0351 289.7980 -9199.4998 -7454.9385 298.7094 514.3415 636.6794 29867.0318 -92.7629 -28.7678
ENERGY: 1500000 11.5889 2.6123 8.2008 0.0000 -10684.5479 1461.2626 0.0000 0.0000 1752.1819 -7448.7014 298.0859 -9200.8833 -7435.9459 299.9069 193.3647 245.2555 30431.1319 -42.5952 29.8876
TCL: Running FEP window  17: Lambda1 0.8000000000000002 Lambda2 0.8500000000000002 [dLambda 0.050000000000000044]
TCL: Setting parameter firsttimestep to 0
TCL: Setting parameter alchLambda to 0.8000000000000002
Info: NONBONDED TABLE R-SQUARED SPACING: 0.0625
Info: NONBONDED TABLE SIZE: 705 POINTS
TCL: Setting parameter alchLambda2 to 0.8500000000000002
Info: NONBONDED TABLE R-SQUARED SPACING: 0.0625
Info: NONBONDED TABLE SIZE: 705 POINTS
TCL: Running for 1500000 steps
ETITLE: TS BOND ANGLE DIHED IMPRP ELECT VDW BOUNDARY MISC KINETIC TOTAL TEMP POTENTIAL TOTALAVG TEMPAVG PRESSURE GPRESSURE VOLUME PRESSAVG GPRESSAVG
ENERGY: 0 11.5889 2.6123 8.2008 0.0000 -10684.7008 1461.6180 0.0000 0.0000 1751.3164 -7449.3644 297.9386 -9200.6808 -7449.3644 297.9386 182.4261 270.5773 30431.1319 182.4261 270.5773
ENERGY: 300000 6.6007 3.0614 6.6588 0.0000 -10613.0979 1444.9929 0.0000 0.0000 1814.1369 -7337.6472 308.6258 -9151.7841 -7378.2076 302.9719 197.2560 286.3642 30458.3638 44.3424 115.0593
ENERGY: 600000 6.2249 3.9340 9.0147 0.0000 -10667.1449 1429.0368 0.0000 0.0000 1790.0733 -7428.8612 304.5321 -9218.9345 -7393.6028 303.2006 195.0911 200.3749 30172.8755 1.8085 66.5246
ENERGY: 900000 5.6269 4.6714 3.9368 0.0000 -10581.9016 1393.0706 0.0000 0.0000 1784.7645 -7389.8313 303.6289 -9174.5958 -7405.9531 302.1954 -81.8185 -48.3536 30101.3636 -182.7182 -120.6887
ENERGY: 1200000 6.8836 6.0534 4.7492 0.0000 -10614.0710 1438.0688 0.0000 0.0000 1783.3572 -7374.9588 303.3895 -9158.3160 -7406.7273 302.1660 674.1599 652.7099 30092.8766 -123.5463 -64.6662
ENERGY: 1500000 5.8151 3.5757 5.0496 0.0000 -10652.8369 1435.3762 0.0000 0.0000 1744.0305 -7458.9898 296.6992 -9203.0204 -7402.8806 301.8569 61.9088 155.0160 30610.4448 -108.2179 -48.6872
TCL: Running FEP window  18: Lambda1 0.8500000000000002 Lambda2 0.9000000000000002 [dLambda 0.050000000000000044]
TCL: Setting parameter firsttimestep to 0
TCL: Setting parameter alchLambda to 0.8500000000000002
Info: NONBONDED TABLE R-SQUARED SPACING: 0.0625
Info: NONBONDED TABLE SIZE: 705 POINTS
TCL: Setting parameter alchLambda2 to 0.9000000000000002
Info: NONBONDED TABLE R-SQUARED SPACING: 0.0625
Info: NONBONDED TABLE SIZE: 705 POINTS
TCL: Running for 1500000 steps
ETITLE: TS BOND ANGLE DIHED IMPRP ELECT VDW BOUNDARY MISC KINETIC TOTAL TEMP POTENTIAL TOTALAVG TEMPAVG PRESSURE GPRESSURE VOLUME PRESSAVG GPRESSAVG
ENERGY: 0 5.8151 3.5757 5.0496 0.0000 -10652.9555 1434.4503 0.0000 0.0000 1743.1772 -7460.8877 296.5540 -9204.0648 -7460.8877 296.5540 84.6113 168.7832 30610.4448 84.6113 168.7832
ENERGY: 300000 7.9886 5.3305 3.5103 0.0000 -10541.0538 1366.4461 0.0000 0.0000 1788.8821 -7368.8962 304.3294 -9157.7783 -7423.7506 298.5279 -158.8714 -143.6533 30338.8590 -69.7178 -21.9603
ENERGY: 600000 5.9905 4.7478 10.5943 0.0000 -10790.2541 1499.0641 0.0000 0.0000 1684.9803 -7584.8771 286.6534 -9269.8574 -7442.3143 297.8203 452.4793 448.6367 30092.7524 64.9221 102.8442
ENERGY: 900000 8.4085 5.3071 5.5138 0.0000 -10614.2937 1415.1368 0.0000 0.0000 1768.7606 -7411.1669 300.9063 -9179.9275 -7438.2544 298.1446 -131.4180 -51.1217 30527.2870 144.6262 189.7257
ENERGY: 1200000 7.6705 2.7296 8.0337 0.0000 -10591.1259 1336.8820 0.0000 0.0000 1762.0716 -7473.7385 299.7683 -9235.8102 -7438.3547 298.7610 -891.8827 -834.6222 30399.6792 20.1468 76.0036
ENERGY: 1500000 8.4722 5.3105 4.9342 0.0000 -10787.4651 1517.3928 0.0000 0.0000 1817.0559 -7434.2996 309.1224 -9251.3555 -7440.9656 299.7851 896.3681 920.3516 30055.3990 104.4680 161.2329
TCL: Running FEP window  19: Lambda1 0.9000000000000002 Lambda2 0.9500000000000003 [dLambda 0.050000000000000044]
TCL: Setting parameter firsttimestep to 0
TCL: Setting parameter alchLambda to 0.9000000000000002
Info: NONBONDED TABLE R-SQUARED SPACING: 0.0625
Info: NONBONDED TABLE SIZE: 705 POINTS
TCL: Setting parameter alchLambda2 to 0.9500000000000003
Info: NONBONDED TABLE R-SQUARED SPACING: 0.0625
Info: NONBONDED TABLE SIZE: 705 POINTS
TCL: Running for 1500000 steps
ETITLE: TS BOND ANGLE DIHED IMPRP ELECT VDW BOUNDARY MISC KINETIC TOTAL TEMP POTENTIAL TOTALAVG TEMPAVG PRESSURE GPRESSURE VOLUME PRESSAVG GPRESSAVG
ENERGY: 0 8.4722 5.3105 4.9342 0.0000 -10787.5027 1516.5420 0.0000 0.0000 1816.1887 -7436.0551 308.9749 -9252.2438 -7436.0551 308.9749 845.4250 934.2998 30055.3990 845.4250 934.2998
ENERGY: 300000 12.1730 4.4891 5.7909 0.0000 -10595.4852 1358.2239 0.0000 0.0000 1755.5509 -7459.2574 298.6590 -9214.8083 -7414.2723 303.9662 -747.9684 -675.2411 30909.5032 -87.3759 -3.5173
ENERGY: 600000 10.6920 5.5381 5.7443 0.0000 -10686.3055 1439.2709 0.0000 0.0000 1824.6117 -7400.4485 310.4078 -9225.0602 -7421.9703 302.1683 -95.4302 9.9171 30297.1750 -143.6428 -76.4706
ENERGY: 900000 7.6515 6.0642 4.3447 0.0000 -10610.3011 1401.2814 0.0000 0.0000 1755.5223 -7435.4370 298.6542 -9190.9593 -7431.6891 301.8040 -136.9477 -60.2405 30431.6381 -102.8681 -33.2855
ENERGY: 1200000 8.2575 5.3129 4.7577 0.0000 -10577.7209 1418.9954 0.0000 0.0000 1764.6479 -7375.7495 300.2066 -9140.3974 -7428.5683 301.1461 255.2538 314.8536 30484.8364 -60.1533 -3.4303
ENERGY: 1500000 8.9591 5.4869 4.4628 0.0000 -10646.0505 1401.6512 0.0000 0.0000 1736.7433 -7488.7472 295.4594 -9225.4905 -7428.1806 300.9661 -460.1629 -365.1715 30424.6021 -30.3139 22.4107
TCL: Running FEP window  20: Lambda1 0.9500000000000003 Lambda2 1.0    [dLambda 0.04999999999999971]
TCL: Setting parameter firsttimestep to 0
TCL: Setting parameter alchLambda to 0.9500000000000003
Info: NONBONDED TABLE R-SQUARED SPACING: 0.0625
Info: NONBONDED TABLE SIZE: 705 POINTS
TCL: Setting parameter alchLambda2 to 1.0
Info: NONBONDED TABLE R-SQUARED SPACING: 0.0625
Info: NONBONDED TABLE SIZE: 705 POINTS
TCL: Running for 1500000 steps
ETITLE: TS BOND ANGLE DIHED IMPRP ELECT VDW BOUNDARY MISC KINETIC TOTAL TEMP POTENTIAL TOTALAVG TEMPAVG PRESSURE GPRESSURE VOLUME PRESSAVG GPRESSAVG
ENERGY: 0 8.9591 5.4869 4.4628 0.0000 -10646.1435 1401.3879 0.0000 0.0000 1735.9052 -7489.9417 295.3168 -9225.8469 -7489.9417 295.3168 -436.6128 -344.8160 30424.6021 -436.6128 -344.8160
ENERGY: 300000 9.6298 4.0759 11.1056 0.0000 -10462.3977 1284.4238 0.0000 0.0000 1797.2215 -7355.9411 305.7481 -9153.1626 -7415.6327 301.8070 -931.6312 -879.4229 30399.6899 -667.1721 -606.3263
ENERGY: 600000 7.8893 5.1233 5.7836 0.0000 -10565.5573 1378.9409 0.0000 0.0000 1720.9795 -7446.8407 292.7776 -9167.8202 -7448.2656 299.2631 -530.1861 -452.5913 30534.3092 -616.0000 -550.0604
ENERGY: 900000 9.3331 4.0994 8.9056 0.0000 -10554.0912 1316.9380 0.0000 0.0000 1826.0232 -7388.7918 310.6480 -9214.8150 -7443.9485 300.1220 -857.6875 -774.5763 30482.3935 -496.6919 -425.4486
ENERGY: 1200000 8.8829 3.7574 2.9802 0.0000 -10631.3182 1441.1372 0.0000 0.0000 1723.6774 -7450.8831 293.2366 -9174.5605 -7443.9310 299.6904 61.0038 118.8672 31015.5485 -246.4644 -172.6688
ENERGY: 1500000 10.0483 6.2842 3.3532 0.0000 -10679.6960 1440.5113 0.0000 0.0000 1806.2879 -7413.2110 307.2905 -9219.4989 -7431.5334 300.6350 42.7144 96.1714 30523.1059 -102.3886 -32.7980
TCL: Exiting due to exit command.
