Info: SIMULATION PARAMETERS:
Info: TIMESTEP               2
Info: NUMBER OF STEPS        0
Info: STEPS PER CYCLE        10
Info: PERIODIC CELL BASIS 1  32.7843 0 0
Info: PERIODIC CELL BASIS 2  0 33.1516 0
Info: PERIODIC CELL BASIS 3  0 0 27.6777
Info: PERIODIC CELL CENTER   0 0 0
Info: WRAPPING WATERS AROUND PERIODIC BOUNDARIES ON OUTPUT.
Info: WRAPPING ALL CLUSTERS AROUND PERIODIC BOUNDARIES ON OUTPUT.
Info: FIRST LDB TIMESTEP     50
Info: LAST LDB TIMESTEP     -1
Info: HOM BACKGROUND SCALING 1
Info: PME BACKGROUND SCALING 1
Info: MIN ATOMS PER PATCH    40
Info: EMPTY PATCH LOAD       40 ATOMS
Info: VELOCITY FILE          mobley_172879_equil.vel
Info: CENTER OF MASS MOVING INITIALLY? NO
Info: DIELECTRIC             1
Info: EXCLUDE                SCALED ONE-FOUR
Info: 1-4 ELECTROSTATICS SCALED BY 0.833333
Info: MODIFIED 1-4 VDW PARAMETERS WILL BE USED
Info: DCD FILENAME           mobley_172879_prod.dcd
Info: DCD FREQUENCY          100000
Info: DCD FIRST STEP         100000
Info: DCD FILE WILL CONTAIN UNIT CELL DATA
Info: XST FILENAME           mobley_172879_prod.xst
Info: XST FREQUENCY          100000
Info: NO VELOCITY DCD OUTPUT
Info: NO FORCE DCD OUTPUT
Info: OUTPUT FILENAME        mobley_172879_prod
Info: BINARY OUTPUT FILES WILL BE USED
Info: RESTART FILENAME       mobley_172879_prod.restart
Info: RESTART FREQUENCY      100000
Info: BINARY RESTART FILES WILL BE USED
Info: CUTOFF                 9
Info: PAIRLIST DISTANCE      11
Info: PAIRLIST SHRINK RATE   0.01
Info: PAIRLIST GROW RATE     0.01
Info: PAIRLIST TRIGGER       0.3
Info: PAIRLISTS PER CYCLE    2
Info: PAIRLISTS ENABLED
Info: MARGIN                 2
Info: HYDROGEN GROUP CUTOFF  2.5
Info: PATCH DIMENSION        15.5
Info: ENERGY OUTPUT STEPS    100000
Info: ENERGY EVALUATION STEPS    100000
Info: OUTPUT ENERGY PRECISION 4
Info: CROSSTERM ENERGY INCLUDED IN DIHEDRAL
Info: TIMING OUTPUT STEPS    1000000
Info: PRESSURE OUTPUT STEPS  100000
Info: ALCHEMICAL FEP ON
Info: FEP CURRENT LAMBDA VALUE     0
Info: FEP COMPARISON LAMBDA VALUE  0.05
Info: FEP INTRA-ALCHEMICAL NON-BONDED INTERACTIONS WILL BE RETAINED
Info: FEP INTRA-ALCHEMICAL BONDED INTERACTIONS WILL BE RETAINED
Info: FEP VDW SHIFTING COEFFICIENT 5
Info: FEP ELEC. ACTIVE FOR ANNIHILATED PARTICLES BETWEEN LAMBDA = 0 AND LAMBDA = 0.5
Info: FEP ELEC. ACTIVE FOR EXNIHILATED PARTICLES BETWEEN LAMBDA = 0.5 AND LAMBDA = 1
Info: FEP VDW ACTIVE FOR ANNIHILATED PARTICLES BETWEEN LAMBDA = 0 AND LAMBDA = 1
Info: FEP VDW ACTIVE FOR EXNIHILATED PARTICLES BETWEEN LAMBDA = 0 AND LAMBDA = 1
Info: FEP BOND ACTIVE FOR ANNIHILATED PARTICLES BETWEEN LAMBDA = 1 AND LAMBDA = 1
Info: FEP BOND ACTIVE FOR EXNIHILATED PARTICLES BETWEEN LAMBDA = 0 AND LAMBDA = 0
Info: LANGEVIN DYNAMICS ACTIVE
Info: LANGEVIN TEMPERATURE   300
Info: LANGEVIN USING BBK INTEGRATOR
Info: LANGEVIN DAMPING COEFFICIENT IS 1 INVERSE PS
Info: LANGEVIN DYNAMICS APPLIED TO HYDROGENS
Info: LANGEVIN PISTON PRESSURE CONTROL ACTIVE
Info:        TARGET PRESSURE IS 1.01325 BAR
Info:     OSCILLATION PERIOD IS 50 FS
Info:             DECAY TIME IS 25 FS
Info:     PISTON TEMPERATURE IS 300 K
Info:       PRESSURE CONTROL IS GROUP-BASED
Info:    INITIAL STRAIN RATE IS -0.000122665 -0.000122665 -0.000122665
Info:       CELL FLUCTUATION IS ISOTROPIC
Info: PARTICLE MESH EWALD (PME) ACTIVE
Info: PME TOLERANCE               1e-06
Info: PME EWALD COEFFICIENT       0.348832
Info: PME INTERPOLATION ORDER     4
Info: PME GRID DIMENSIONS         36 36 28
Info: PME MAXIMUM GRID SPACING    1
Info: PME CALCULATION WILL BE PERFORMED ON GPU
Info: FULL ELECTROSTATIC EVALUATION FREQUENCY      2
Info: USING VERLET I (r-RESPA) MTS SCHEME.
Info: C1 SPLITTING OF LONG RANGE ELECTROSTATICS
Info: PLACING ATOMS IN PATCHES BY HYDROGEN GROUPS
Info: RIGID BONDS TO HYDROGEN : ALL
Info:         ERROR TOLERANCE : 1e-08
Info:          MAX ITERATIONS : 100
Info: RIGID WATER USING SETTLE ALGORITHM
Info: RANDOM NUMBER SEED     1743628007
Info: USE HYDROGEN BONDS?    NO
Info: Using AMBER format force field!
Info: AMBER PARM FILE        mobley_172879.prmtop
Info: COORDINATE PDB         mobley_172879.pdb
Info: Exclusions will be read from PARM file!
Info: SCNB (VDW SCALING)     2
Info: USING ARITHMETIC MEAN TO COMBINE L-J SIGMA PARAMETERS
Info: BINARY COORDINATES     mobley_172879_equil.coor
Info: SUMMARY OF PARAMETERS:
Info: 5 BONDS
Info: 4 ANGLES
Info:   4 HARMONIC
Info:   0 COSINE-BASED
Info: 3 DIHEDRAL
Info: 0 IMPROPER
Info: 0 CROSSTERM
Info: 0 VDW
Info: 15 VDW_PAIRS
Info: 0 NBTHOLE_PAIRS
Info: To read alchdata from file: mobley_172879.pdb
Info: To read alchflag data from column: 5
Info: STRUCTURE SUMMARY:
Info: 2917 ATOMS
Info: 2919 BONDS
Info: 38 ANGLES
Info: 68 DIHEDRALS
Info: 0 IMPROPERS
Info: 0 CROSSTERMS
Info: 3004 EXCLUSIONS
Info: 2903 RIGID BONDS
Info: ALCH: 0 ATOMS TO DISAPPEAR IN FINAL STATE
Info: ALCH: 22 ATOMS TO APPEAR IN FINAL STATE
Info: 5848 DEGREES OF FREEDOM
Info: 979 HYDROGEN GROUPS
Info: 3 ATOMS IN LARGEST HYDROGEN GROUP
Info: 979 MIGRATION GROUPS
Info: 3 ATOMS IN LARGEST MIGRATION GROUP
Info: TOTAL MASS = 17569.6 amu
Info: TOTAL CHARGE = 2.98023e-08 e
Info: MASS DENSITY = 0.969887 g/cm^3
Info: ATOM DENSITY = 0.0969696 atoms/A^3
Info: ADDED 0 IMPLICIT EXCLUSIONS
Info: NONBONDED TABLE R-SQUARED SPACING: 0.0625
Info: NONBONDED TABLE SIZE: 705 POINTS
Info: REDUCING NUMBER OF PATCHES TO IMPROVE LOAD BALANCE
Info: REMOVING COM VELOCITY -0.0271158 0.0960831 -0.0444643
Info: Use 3D box decompostion in PME FFT.
Info: Updated CUDA force table with 4096 elements.
Info: Updated CUDA LJ table with 5 x 5 elements.
Info: Found 20 unique exclusion lists needing 60 bytes
TCL: Running for 1500000 steps
ETITLE: TS BOND ANGLE DIHED IMPRP ELECT VDW BOUNDARY MISC KINETIC TOTAL TEMP POTENTIAL TOTALAVG TEMPAVG PRESSURE GPRESSURE VOLUME PRESSAVG GPRESSAVG
ENERGY: 0 5.0849 2.9014 7.0907 0.0000 -10468.8035 1400.1773 0.0000 0.0000 1777.1695 -7276.3797 305.8524 -9053.5492 -7276.3797 305.8524 -42.7198 28.5270 30081.5845 -42.7198 28.5270
ENERGY: 300000 8.3057 4.1142 5.7156 0.0000 -10436.9759 1368.5110 0.0000 0.0000 1790.8407 -7259.4887 308.2052 -9050.3294 -7332.2204 304.2817 -590.0074 -522.5171 30108.8096 -287.4736 -183.3371
ENERGY: 600000 5.9875 5.5604 5.5947 0.0000 -10566.5564 1473.7489 0.0000 0.0000 1721.8455 -7353.8194 296.3311 -9075.6649 -7318.1881 303.9210 337.6238 380.0286 30062.2451 -253.0398 -166.6860
ENERGY: 900000 3.8777 3.2683 8.4101 0.0000 -10624.0106 1467.4072 0.0000 0.0000 1767.9688 -7373.0785 304.2689 -9141.0473 -7327.1218 304.1430 254.4855 277.2210 29331.4315 -125.9761 -41.3458
ENERGY: 1200000 3.6117 9.6912 7.2993 0.0000 -10442.4079 1353.9401 0.0000 0.0000 1737.0172 -7330.8483 298.9421 -9067.8655 -7331.4591 303.7413 -438.4750 -403.7114 29886.5319 -129.8305 -54.0859
ENERGY: 1500000 4.4946 5.4544 3.5059 0.0000 -10483.8300 1341.5834 0.0000 0.0000 1771.3623 -7357.4294 304.8530 -9128.7917 -7341.5672 303.3128 -602.3907 -535.0866 29424.0589 -118.2805 -50.3180
TCL: Running FEP window   2: Lambda1 0.05   Lambda2 0.1    [dLambda 0.05  ]
TCL: Setting parameter firsttimestep to 0
TCL: Setting parameter alchLambda to 0.05
Info: NONBONDED TABLE R-SQUARED SPACING: 0.0625
Info: NONBONDED TABLE SIZE: 705 POINTS
TCL: Setting parameter alchLambda2 to 0.1
Info: NONBONDED TABLE R-SQUARED SPACING: 0.0625
Info: NONBONDED TABLE SIZE: 705 POINTS
TCL: Running for 1500000 steps
ETITLE: TS BOND ANGLE DIHED IMPRP ELECT VDW BOUNDARY MISC KINETIC TOTAL TEMP POTENTIAL TOTALAVG TEMPAVG PRESSURE GPRESSURE VOLUME PRESSAVG GPRESSAVG
ENERGY: 0 4.4946 5.4544 3.5059 0.0000 -10483.8282 1345.3287 0.0000 0.0000 1770.4708 -7354.5739 304.6995 -9125.0446 -7354.5739 304.6995 -611.4807 -525.0412 29424.0589 -611.4807 -525.0412
ENERGY: 300000 3.3192 4.3218 7.1943 0.0000 -10430.8310 1359.1322 0.0000 0.0000 1770.6019 -7286.2616 304.7221 -9056.8635 -7329.6717 301.7768 -481.8308 -419.1293 29939.8831 -116.7384 -39.3661
ENERGY: 600000 5.9288 4.9855 5.7164 0.0000 -10589.1341 1405.1415 0.0000 0.0000 1768.4198 -7398.9420 304.3466 -9167.3619 -7353.1815 300.9184 -325.4300 -245.4947 29511.8095 -110.7068 -37.9728
ENERGY: 900000 4.1109 3.0764 4.9453 0.0000 -10380.1245 1313.3901 0.0000 0.0000 1773.5121 -7281.0898 305.2229 -9054.6019 -7330.9892 302.7369 -582.5717 -591.9010 30090.6102 -0.7534 72.5516
ENERGY: 1200000 2.8861 5.1617 4.2186 0.0000 -10527.3768 1450.3724 0.0000 0.0000 1683.8645 -7380.8735 289.7945 -9064.7380 -7331.8801 301.2451 24.5582 146.2189 30216.7763 -43.1395 31.1027
ENERGY: 1500000 6.5297 5.7127 3.4287 0.0000 -10524.1476 1406.9971 0.0000 0.0000 1773.0993 -7328.3801 305.1519 -9101.4794 -7324.0797 301.0083 -320.0865 -180.7154 29973.8339 -95.9015 -19.9413
TCL: Running FEP window   3: Lambda1 0.1    Lambda2 0.15000000000000002 [dLambda 0.05000000000000002]
TCL: Setting parameter firsttimestep to 0
TCL: Setting parameter alchLambda to 0.1
Info: NONBONDED TABLE R-SQUARED SPACING: 0.0625
Info: NONBONDED TABLE SIZE: 705 POINTS
TCL: Setting parameter alchLambda2 to 0.15000000000000002
Info: NONBONDED TABLE R-SQUARED SPACING: 0.0625
Info: NONBONDED TABLE SIZE: 705 POINTS
TCL: Running for 1500000 steps
ETITLE: TS BOND ANGLE DIHED IMPRP ELECT VDW BOUNDARY MISC KINETIC TOTAL TEMP POTENTIAL TOTALAVG TEMPAVG PRESSURE GPRESSURE VOLUME PRESSAVG GPRESSAVG
ENERGY: 0 6.5297 5.7127 3.4287 0.0000 -10524.1463 1408.7037 0.0000 0.0000 1772.2455 -7327.5260 305.0050 -9099.7715 -7327.5260 305.0050 -254.2338 -173.2393 29973.8339 -254.2338 -173.2393
ENERGY: 300000 7.2193 5.0655 6.1500 0.0000 -10543.4134 1392.2932 0.0000 0.0000 1760.3049 -7372.3806 302.9500 -9132.6855 -7330.4444 303.1817 -574.2106 -481.6092 29817.8369 -176.4990 -103.7302
ENERGY: 600000 4.1589 9.7556 4.4785 0.0000 -10384.3590 1304.7042 0.0000 0.0000 1750.1504 -7311.1113 301.2024 -9061.2617 -7318.5965 304.1511 -899.5870 -795.3540 29891.5076 -164.0077 -91.4164
ENERGY: 900000 3.7388 4.0459 5.8298 0.0000 -10518.2879 1380.3781 0.0000 0.0000 1787.0402 -7337.2551 307.5511 -9124.2953 -7312.7020 304.6641 -725.1484 -633.2959 30167.1797 -94.4637 -19.4097
ENERGY: 1200000 4.3094 3.1141 7.0496 0.0000 -10516.6451 1402.7491 0.0000 0.0000 1776.2409 -7323.1820 305.6926 -9099.4229 -7318.9694 303.5509 -273.5063 -135.0653 29968.0280 -139.5347 -62.5768
ENERGY: 1500000 4.1043 4.8117 7.8110 0.0000 -10547.1690 1405.8490 0.0000 0.0000 1773.9518 -7350.6412 305.2986 -9124.5930 -7309.1844 303.5372 -106.6380 -17.4606 29393.1201 -184.8647 -112.5000
TCL: Running FEP window   4: Lambda1 0.15000000000000002 Lambda2 0.2    [dLambda 0.04999999999999999]
TCL: Setting parameter firsttimestep to 0
TCL: Setting parameter alchLambda to 0.15000000000000002
Info: NONBONDED TABLE R-SQUARED SPACING: 0.0625
Info: NONBONDED TABLE SIZE: 705 POINTS
TCL: Setting parameter alchLambda2 to 0.2
Info: NONBONDED TABLE R-SQUARED SPACING: 0.0625
Info: NONBONDED TABLE SIZE: 705 POINTS
TCL: Running for 1500000 steps
ETITLE: TS BOND ANGLE DIHED IMPRP ELECT VDW BOUNDARY MISC KINETIC TOTAL TEMP POTENTIAL TOTALAVG TEMPAVG PRESSURE GPRESSURE VOLUME PRESSAVG GPRESSAVG
ENERGY: 0 4.1043 4.8117 7.8110 0.0000 -10547.1685 1405.3287 0.0000 0.0000 1773.0777 -7352.0350 305.1482 -9125.1128 -7352.0350 305.1482 -104.9392 -16.0685 29393.1201 -104.9392 -16.0685
ENERGY: 300000 6.6271 7.6882 4.4682 0.0000 -10495.7318 1390.4958 0.0000 0.0000 1758.3666 -7328.0859 302.6164 -9086.4525 -7346.8987 303.2575 -405.4864 -365.5588 29856.1796 -478.8855 -428.2840
ENERGY: 600000 1.5734 5.5248 8.6902 0.0000 -10444.0156 1348.6321 0.0000 0.0000 1743.7619 -7335.8332 300.1029 -9079.5951 -7339.8699 300.6329 -376.9569 -302.7569 29860.3856 -168.3229 -118.4726
ENERGY: 900000 7.0358 4.3671 5.6332 0.0000 -10421.6217 1356.2704 0.0000 0.0000 1765.1005 -7283.2147 303.7753 -9048.3152 -7329.8107 302.2998 -371.6061 -351.1646 29659.2906 -3.2104 39.5059
ENERGY: 1200000 5.2563 7.5065 7.8342 0.0000 -10526.2712 1421.7830 0.0000 0.0000 1760.6301 -7323.2611 303.0059 -9083.8912 -7330.9793 301.9447 -266.1968 -149.8643 30148.9883 -12.3824 41.9758
ENERGY: 1500000 4.1548 3.2665 5.8704 0.0000 -10504.8104 1402.9547 0.0000 0.0000 1758.1496 -7330.4143 302.5790 -9088.5639 -7329.8933 302.1106 -284.5919 -208.2102 30091.0533 81.9319 138.3070
TCL: Running FEP window   5: Lambda1 0.2    Lambda2 0.25   [dLambda 0.04999999999999999]
TCL: Setting parameter firsttimestep to 0
TCL: Setting parameter alchLambda to 0.2
Info: NONBONDED TABLE R-SQUARED SPACING: 0.0625
Info: NONBONDED TABLE SIZE: 705 POINTS
TCL: Setting parameter alchLambda2 to 0.25
Info: NONBONDED TABLE R-SQUARED SPACING: 0.0625
Info: NONBONDED TABLE SIZE: 705 POINTS
TCL: Running for 1500000 steps
ETITLE: TS BOND ANGLE DIHED IMPRP ELECT VDW BOUNDARY MISC KINETIC TOTAL TEMP POTENTIAL TOTALAVG TEMPAVG PRESSURE GPRESSURE VOLUME PRESSAVG GPRESSAVG
ENERGY: 0 4.1548 3.2665 5.8704 0.0000 -10504.8111 1404.0071 0.0000 0.0000 1757.3015 -7330.2107 302.4331 -9087.5122 -7330.2107 302.4331 -267.6238 -199.6423 30091.0533 -267.6238 -199.6423
ENERGY: 300000 2.6523 4.7980 5.5547 0.0000 -10368.3886 1294.9589 0.0000 0.0000 1764.9849 -7295.4398 303.7554 -9060.4247 -7329.4175 301.2050 -1071.2221 -974.5969 30341.5225 -519.4542 -427.2336
ENERGY: 600000 4.4768 5.0072 4.0036 0.0000 -10403.4852 1363.7547 0.0000 0.0000 1770.4065 -7255.8364 304.6885 -9026.2429 -7331.1106 301.9160 -250.7213 -262.4109 30173.7377 -411.8469 -336.4316
ENERGY: 900000 3.8608 5.5753 3.4650 0.0000 -10627.3047 1498.6737 0.0000 0.0000 1748.5145 -7367.2152 300.9208 -9115.7298 -7336.7462 301.5957 480.4281 455.0888 29932.6276 -338.2064 -269.7362
ENERGY: 1200000 5.4568 3.6416 4.8000 0.0000 -10562.5945 1424.9243 0.0000 0.0000 1722.2199 -7401.5519 296.3955 -9123.7718 -7343.1963 301.1064 -248.1520 -147.7799 30125.5773 -274.4302 -198.8965
ENERGY: 1500000 5.1897 4.7945 3.7303 0.0000 -10571.2369 1475.1438 0.0000 0.0000 1791.7008 -7290.6779 308.3532 -9082.3787 -7343.1834 300.9148 329.7778 372.2972 29927.3837 -245.1397 -177.0463
TCL: Running FEP window   6: Lambda1 0.25   Lambda2 0.3    [dLambda 0.04999999999999999]
TCL: Setting parameter firsttimestep to 0
TCL: Setting parameter alchLambda to 0.25
Info: NONBONDED TABLE R-SQUARED SPACING: 0.0625
Info: NONBONDED TABLE SIZE: 705 POINTS
TCL: Setting parameter alchLambda2 to 0.3
Info: NONBONDED TABLE R-SQUARED SPACING: 0.0625
Info: NONBONDED TABLE SIZE: 705 POINTS
TCL: Running for 1500000 steps
ETITLE: TS BOND ANGLE DIHED IMPRP ELECT VDW BOUNDARY MISC KINETIC TOTAL TEMP POTENTIAL TOTALAVG TEMPAVG PRESSURE GPRESSURE VOLUME PRESSAVG GPRESSAVG
ENERGY: 0 5.1897 4.7945 3.7303 0.0000 -10571.2350 1474.7394 0.0000 0.0000 1790.8083 -7291.9729 308.1996 -9082.7811 -7291.9729 308.1996 299.6839 374.9776 29927.3837 299.6839 374.9776
ENERGY: 300000 5.8339 5.0534 6.1426 0.0000 -10553.9839 1464.6702 0.0000 0.0000 1755.6788 -7316.6050 302.1538 -9072.2838 -7334.5979 303.1123 44.6139 142.0654 30426.3352 83.9428 182.6360
ENERGY: 600000 9.5676 6.4936 4.2241 0.0000 -10523.5993 1484.2993 0.0000 0.0000 1689.7871 -7329.2275 290.8138 -9019.0146 -7339.0465 301.7480 313.0240 359.5754 30112.0880 194.5601 270.5509
ENERGY: 900000 2.0863 3.3620 4.0571 0.0000 -10617.5993 1441.7192 0.0000 0.0000 1705.8035 -7460.5713 293.5702 -9166.3748 -7344.8164 301.9459 -50.5582 44.4756 29787.8511 91.5579 162.1085
ENERGY: 1200000 7.6648 6.1526 7.0430 0.0000 -10558.1910 1459.0051 0.0000 0.0000 1701.5143 -7376.8112 292.8321 -9078.3255 -7354.3945 300.9131 -216.1401 -113.7492 30318.8302 18.1465 89.4574
ENERGY: 1500000 6.0757 4.1685 9.5475 0.0000 -10508.8590 1367.0662 0.0000 0.0000 1717.1445 -7404.8566 295.5220 -9122.0011 -7348.1780 300.6424 -653.9504 -577.6584 29748.9377 -65.0059 5.7939
TCL: Running FEP window   7: Lambda1 0.3    Lambda2 0.35   [dLambda 0.04999999999999999]
TCL: Setting parameter firsttimestep to 0
TCL: Setting parameter alchLambda to 0.3
Info: NONBONDED TABLE R-SQUARED SPACING: 0.0625
Info: NONBONDED TABLE SIZE: 705 POINTS
TCL: Setting parameter alchLambda2 to 0.35
Info: NONBONDED TABLE R-SQUARED SPACING: 0.0625
Info: NONBONDED TABLE SIZE: 705 POINTS
TCL: Running for 1500000 steps
ETITLE: TS BOND ANGLE DIHED IMPRP ELECT VDW BOUNDARY MISC KINETIC TOTAL TEMP POTENTIAL TOTALAVG TEMPAVG PRESSURE GPRESSURE VOLUME PRESSAVG GPRESSAVG
ENERGY: 0 6.0757 4.1685 9.5475 0.0000 -10508.8585 1366.9929 0.0000 0.0000 1716.2762 -7405.7977 295.3726 -9122.0740 -7405.7977 295.3726 -652.1808 -572.0000 29748.9377 -652.1808 -572.0000
ENERGY: 300000 5.4217 6.7335 6.2141 0.0000 -10596.2369 1394.5838 0.0000 0.0000 1687.8763 -7495.4074 290.4849 -9183.2837 -7431.2761 293.4070 -728.3073 -641.8875 29722.0399 -406.9342 -326.1128
ENERGY: 600000 4.8181 4.6424 5.9085 0.0000 -10717.0334 1550.8577 0.0000 0.0000 1696.2754 -7454.5313 291.9304 -9150.8067 -7407.1091 295.0927 818.3702 891.0106 29450.4156 -353.3484 -269.1202
ENERGY: 900000 5.3375 3.9998 4.9122 0.0000 -10387.3299 1350.5688 0.0000 0.0000 1701.0459 -7321.4656 292.7514 -9022.5115 -7384.1247 295.8909 -360.7221 -313.7365 29879.7040 -208.2071 -139.6691
ENERGY: 1200000 6.9847 4.7685 7.5886 0.0000 -10492.9365 1412.1288 0.0000 0.0000 1753.8929 -7307.5729 301.8465 -9061.4658 -7373.8572 297.3958 -156.3970 -145.6364 29806.1686 -211.6539 -148.8690
ENERGY: 1500000 5.7788 7.7412 6.5246 0.0000 -10561.4856 1447.0319 0.0000 0.0000 1765.4698 -7328.9393 303.8389 -9094.4091 -7376.1442 297.9137 105.8933 125.7030 30075.4812 -144.5557 -82.8291
TCL: Running FEP window   8: Lambda1 0.35   Lambda2 0.39999999999999997 [dLambda 0.04999999999999999]
TCL: Setting parameter firsttimestep to 0
TCL: Setting parameter alchLambda to 0.35
Info: NONBONDED TABLE R-SQUARED SPACING: 0.0625
Info: NONBONDED TABLE SIZE: 705 POINTS
TCL: Setting parameter alchLambda2 to 0.39999999999999997
Info: NONBONDED TABLE R-SQUARED SPACING: 0.0625
Info: NONBONDED TABLE SIZE: 705 POINTS
TCL: Running for 1500000 steps
ETITLE: TS BOND ANGLE DIHED IMPRP ELECT VDW BOUNDARY MISC KINETIC TOTAL TEMP POTENTIAL TOTALAVG TEMPAVG PRESSURE GPRESSURE VOLUME PRESSAVG GPRESSAVG
ENERGY: 0 5.7788 7.7412 6.5246 0.0000 -10561.4853 1447.2224 0.0000 0.0000 1764.5916 -7329.6267 303.6877 -9094.2184 -7329.6267 303.6877 45.2254 134.4516 30075.4812 45.2254 134.4516
ENERGY: 300000 1.9683 5.3489 8.9095 0.0000 -10564.9210 1476.8599 0.0000 0.0000 1744.5010 -7327.3334 300.2301 -9071.8343 -7381.4008 298.1231 716.6865 737.2883 30127.6298 90.4169 138.2757
ENERGY: 600000 5.5907 3.6984 7.9040 0.0000 -10603.0928 1446.1365 0.0000 0.0000 1778.8642 -7360.8991 306.1440 -9139.7632 -7370.1392 298.9419 -108.4437 -17.0167 29980.5004 64.0612 122.4362
ENERGY: 900000 5.1404 1.8451 4.6386 0.0000 -10514.3100 1459.1649 0.0000 0.0000 1756.1270 -7287.3940 302.2310 -9043.5210 -7337.1947 300.8376 486.3837 555.7954 29936.4813 -73.4001 -21.1522
ENERGY: 1200000 4.7546 7.6100 6.1051 0.0000 -10533.9555 1422.7066 0.0000 0.0000 1767.8501 -7324.9291 304.2485 -9092.7792 -7347.5776 300.8886 232.6279 311.5374 29683.0253 -72.0689 -8.1204
ENERGY: 1500000 4.5913 3.0092 5.1218 0.0000 -10449.7579 1408.5811 0.0000 0.0000 1715.7939 -7312.6606 295.2896 -9028.4545 -7352.4568 300.1330 136.0746 195.4313 29900.6257 -99.6222 -36.0633
TCL: Running FEP window   9: Lambda1 0.39999999999999997 Lambda2 0.44999999999999996 [dLambda 0.04999999999999999]
TCL: Setting parameter firsttimestep to 0
TCL: Setting parameter alchLambda to 0.39999999999999997
Info: NONBONDED TABLE R-SQUARED SPACING: 0.0625
Info: NONBONDED TABLE SIZE: 705 POINTS
TCL: Setting parameter alchLambda2 to 0.44999999999999996
Info: NONBONDED TABLE R-SQUARED SPACING: 0.0625
Info: NONBONDED TABLE SIZE: 705 POINTS
TCL: Running for 1500000 steps
ETITLE: TS BOND ANGLE DIHED IMPRP ELECT VDW BOUNDARY MISC KINETIC TOTAL TEMP POTENTIAL TOTALAVG TEMPAVG PRESSURE GPRESSURE VOLUME PRESSAVG GPRESSAVG
ENERGY: 0 4.5913 3.0092 5.1218 0.0000 -10449.7588 1408.5276 0.0000 0.0000 1714.8832 -7313.6256 295.1329 -9028.5088 -7313.6256 295.1329 120.9000 202.1240 29900.6257 120.9000 202.1240
ENERGY: 300000 3.8171 4.1577 10.0605 0.0000 -10582.1105 1420.4433 0.0000 0.0000 1695.2120 -7448.4198 291.7474 -9143.6318 -7362.5691 296.2607 61.7196 141.6565 29312.7272 -384.1278 -318.0691
ENERGY: 600000 8.8510 5.4417 5.0847 0.0000 -10619.3264 1508.0684 0.0000 0.0000 1707.0553 -7384.8253 293.7857 -9091.8805 -7343.5124 299.2502 363.2385 439.6702 29780.4163 -28.4496 36.8452
ENERGY: 900000 4.6319 7.2825 4.4468 0.0000 -10651.2176 1552.2941 0.0000 0.0000 1720.7649 -7361.7973 296.1451 -9082.5623 -7340.7714 299.7880 976.0820 1055.5807 30106.9269 135.6632 202.9238
ENERGY: 1200000 9.2583 7.9760 5.2828 0.0000 -10629.5195 1517.9406 0.0000 0.0000 1766.8876 -7322.1742 304.0829 -9089.0618 -7335.0005 301.2282 469.5241 600.2408 30037.4274 159.5983 236.3592
ENERGY: 1500000 6.5475 5.3350 4.0570 0.0000 -10451.7938 1376.4403 0.0000 0.0000 1699.3876 -7360.0264 292.4661 -9059.4140 -7338.4250 299.9635 -334.0757 -337.5148 30298.0339 94.7575 165.0982
TCL: Running FEP window  10: Lambda1 0.44999999999999996 Lambda2 0.49999999999999994 [dLambda 0.04999999999999999]
TCL: Setting parameter firsttimestep to 0
TCL: Setting parameter alchLambda to 0.44999999999999996
Info: NONBONDED TABLE R-SQUARED SPACING: 0.0625
Info: NONBONDED TABLE SIZE: 705 POINTS
TCL: Setting parameter alchLambda2 to 0.49999999999999994
Info: NONBONDED TABLE R-SQUARED SPACING: 0.0625
Info: NONBONDED TABLE SIZE: 705 POINTS
TCL: Running for 1500000 steps
ETITLE: TS BOND ANGLE DIHED IMPRP ELECT VDW BOUNDARY MISC KINETIC TOTAL TEMP POTENTIAL TOTALAVG TEMPAVG PRESSURE GPRESSURE VOLUME PRESSAVG GPRESSAVG
ENERGY: 0 6.5475 5.3350 4.0570 0.0000 -10451.7935 1376.2471 0.0000 0.0000 1698.5230 -7361.0840 292.3172 -9059.6070 -7361.0840 292.3172 -415.4621 -332.9546 30298.0339 -415.4621 -332.9546
ENERGY: 300000 6.3589 5.4796 7.2612 0.0000 -10330.8135 1330.4243 0.0000 0.0000 1779.6268 -7201.6627 306.2753 -8981.2895 -7318.4364 299.3252 -754.1176 -691.6206 30617.1615 -64.0518 -15.0891
ENERGY: 600000 5.0306 5.8778 5.0880 0.0000 -10410.1935 1360.0779 0.0000 0.0000 1753.5033 -7280.6159 301.7794 -9034.1192 -7305.0201 301.3851 -465.1324 -417.6936 30207.5290 -107.7776 -53.9285
ENERGY: 900000 4.8190 4.3169 6.6500 0.0000 -10483.6529 1425.6527 0.0000 0.0000 1759.5608 -7282.6535 302.8219 -9042.2143 -7316.3794 301.2896 271.1142 337.5822 29877.3417 89.7131 151.7864
ENERGY: 1200000 5.9971 6.3679 10.4832 0.0000 -10644.6966 1501.0885 0.0000 0.0000 1786.7028 -7334.0571 307.4931 -9120.7599 -7332.1344 301.2493 547.5707 600.3228 29763.6602 96.5325 161.7502
ENERGY: 1500000 6.8732 6.8705 5.8185 0.0000 -10605.1119 1455.3920 0.0000 0.0000 1773.4559 -7356.7016 305.2133 -9130.1575 -7333.6981 301.2978 64.6227 96.5818 30083.6200 112.5728 176.7917
TCL: Running FEP window  11: Lambda1 0.49999999999999994 Lambda2 0.5499999999999999 [dLambda 0.04999999999999999]
TCL: Setting parameter firsttimestep to 0
TCL: Setting parameter alchLambda to 0.49999999999999994
Info: NONBONDED TABLE R-SQUARED SPACING: 0.0625
Info: NONBONDED TABLE SIZE: 705 POINTS
TCL: Setting parameter alchLambda2 to 0.5499999999999999
Info: NONBONDED TABLE R-SQUARED SPACING: 0.0625
Info: NONBONDED TABLE SIZE: 705 POINTS
TCL: Running for 1500000 steps
ETITLE: TS BOND ANGLE DIHED IMPRP ELECT VDW BOUNDARY MISC KINETIC TOTAL TEMP POTENTIAL TOTALAVG TEMPAVG PRESSURE GPRESSURE VOLUME PRESSAVG GPRESSAVG
ENERGY: 0 6.8732 6.8705 5.8185 0.0000 -10605.1109 1454.8475 0.0000 0.0000 1772.6285 -7358.0726 305.0709 -9130.7012 -7358.0726 305.0709 28.3261 103.0763 30083.6200 28.3261 103.0763
ENERGY: 300000 4.6013 8.6327 7.6131 0.0000 -10420.4574 1370.6569 0.0000 0.0000 1769.1569 -7259.7966 304.4734 -9028.9535 -7339.8644 300.3164 -308.1204 -240.3615 30597.0291 -488.9861 -380.8166
ENERGY: 600000 7.7219 2.2930 5.4695 0.0000 -10681.4622 1458.6565 0.0000 0.0000 1758.5555 -7448.7658 302.6489 -9207.3212 -7361.8907 301.2422 449.2623 508.0479 29582.0486 -170.5475 -81.5993
ENERGY: 900000 7.3987 5.1922 4.2519 0.0000 -10557.2571 1417.3160 0.0000 0.0000 1733.5248 -7389.5735 298.3411 -9123.0983 -7363.8534 301.3241 -186.5127 -118.7261 30041.7546 -192.5339 -112.6780
ENERGY: 1200000 4.3283 6.4100 3.7828 0.0000 -10529.3332 1443.7779 0.0000 0.0000 1774.6476 -7296.3868 305.4184 -9071.0344 -7352.4684 302.6975 265.4256 323.2769 30060.4330 -84.5781 0.6286
ENERGY: 1500000 4.8775 4.4920 5.2150 0.0000 -10508.6031 1415.8497 0.0000 0.0000 1769.6750 -7308.4938 304.5626 -9078.1688 -7350.1493 301.7929 -296.8537 -204.8413 30372.3296 -118.9723 -29.9710
TCL: Running FEP window  12: Lambda1 0.5499999999999999 Lambda2 0.6    [dLambda 0.050000000000000044]
TCL: Setting parameter firsttimestep to 0
TCL: Setting parameter alchLambda to 0.5499999999999999
Info: NONBONDED TABLE R-SQUARED SPACING: 0.0625
Info: NONBONDED TABLE SIZE: 705 POINTS
TCL: Setting parameter alchLambda2 to 0.6
Info: NONBONDED TABLE R-SQUARED SPACING: 0.0625
Info: NONBONDED TABLE SIZE: 705 POINTS
TCL: Running for 1500000 steps
ETITLE: TS BOND ANGLE DIHED IMPRP ELECT VDW BOUNDARY MISC KINETIC TOTAL TEMP POTENTIAL TOTALAVG TEMPAVG PRESSURE GPRESSURE VOLUME PRESSAVG GPRESSAVG
ENERGY: 0 4.8775 4.4920 5.2150 0.0000 -10508.6892 1415.7017 0.0000 0.0000 1768.8247 -7309.5783 304.4162 -9078.4029 -7309.5783 304.4162 -284.5762 -196.3176 30372.3296 -284.5762 -196.3176
ENERGY: 300000 5.2706 3.4288 8.9518 0.0000 -10504.7168 1435.1458 0.0000 0.0000 1756.1063 -7295.8135 302.2274 -9051.9198 -7337.0929 300.8413 148.1925 178.5065 30399.1524 -32.1201 44.9624
ENERGY: 600000 2.6452 2.8324 5.5362 0.0000 -10618.6086 1457.2329 0.0000 0.0000 1754.7022 -7395.6596 301.9858 -9150.3619 -7369.4571 299.0146 166.9829 232.1936 30074.3910 33.3745 112.5104
ENERGY: 900000 3.8295 5.4398 5.3152 0.0000 -10489.3163 1461.2346 0.0000 0.0000 1714.3836 -7299.1136 295.0469 -9013.4972 -7367.8682 298.1094 505.6958 584.8909 29983.4963 164.7666 249.2809
ENERGY: 1200000 6.3659 3.6179 3.5260 0.0000 -10613.5100 1458.9097 0.0000 0.0000 1749.7312 -7391.3593 301.1302 -9141.0905 -7369.4713 298.2822 -212.7957 -148.5938 30472.7594 234.5511 309.6279
ENERGY: 1500000 5.7719 4.9918 4.3996 0.0000 -10543.4268 1467.6939 0.0000 0.0000 1736.9472 -7323.6224 298.9301 -9060.5697 -7368.0861 298.1833 484.5678 525.3754 30013.5001 285.6353 355.6162
TCL: Running FEP window  13: Lambda1 0.6    Lambda2 0.65   [dLambda 0.050000000000000044]
TCL: Setting parameter firsttimestep to 0
TCL: Setting parameter alchLambda to 0.6
Info: NONBONDED TABLE R-SQUARED SPACING: 0.0625
Info: NONBONDED TABLE SIZE: 705 POINTS
TCL: Setting parameter alchLambda2 to 0.65
Info: NONBONDED TABLE R-SQUARED SPACING: 0.0625
Info: NONBONDED TABLE SIZE: 705 POINTS
TCL: Running for 1500000 steps
ETITLE: TS BOND ANGLE DIHED IMPRP ELECT VDW BOUNDARY MISC KINETIC TOTAL TEMP POTENTIAL TOTALAVG TEMPAVG PRESSURE GPRESSURE VOLUME PRESSAVG GPRESSAVG
ENERGY: 0 5.7719 4.9918 4.3996 0.0000 -10543.6686 1467.6573 0.0000 0.0000 1736.0518 -7324.7963 298.7760 -9060.8481 -7324.7963 298.7760 453.3363 532.7386 30013.5001 453.3363 532.7386
ENERGY: 300000 5.0999 4.0956 6.1357 0.0000 -10567.9643 1415.5017 0.0000 0.0000 1672.0403 -7465.0911 287.7596 -9137.1314 -7351.8544 296.7544 237.9594 275.9251 29423.6852 -21.0032 53.8022
ENERGY: 600000 6.7433 4.6562 4.9507 0.0000 -10528.8568 1424.7192 0.0000 0.0000 1800.4394 -7287.3481 309.8572 -9087.7875 -7349.1493 299.9988 488.7333 551.1838 29209.4919 12.2458 90.3344
ENERGY: 900000 4.3309 6.8764 8.2006 0.0000 -10492.9456 1395.2910 0.0000 0.0000 1812.4954 -7265.7512 311.9320 -9078.2466 -7333.2043 301.1238 -0.9339 161.5489 29475.9134 108.8847 198.0577
ENERGY: 1200000 6.6704 4.6789 7.4953 0.0000 -10544.5081 1431.5927 0.0000 0.0000 1757.8741 -7336.1967 302.5316 -9094.0708 -7347.8141 300.2024 203.6177 240.6782 29666.5078 128.6074 208.7431
ENERGY: 1500000 3.8256 4.2824 8.3675 0.0000 -10705.2431 1531.5820 0.0000 0.0000 1735.8115 -7421.3742 298.7346 -9157.1857 -7353.5083 300.3089 745.1398 845.1371 29934.5339 45.7146 119.1598
TCL: Running FEP window  14: Lambda1 0.65   Lambda2 0.7000000000000001 [dLambda 0.050000000000000044]
TCL: Setting parameter firsttimestep to 0
TCL: Setting parameter alchLambda to 0.65
Info: NONBONDED TABLE R-SQUARED SPACING: 0.0625
Info: NONBONDED TABLE SIZE: 705 POINTS
TCL: Setting parameter alchLambda2 to 0.7000000000000001
Info: NONBONDED TABLE R-SQUARED SPACING: 0.0625
Info: NONBONDED TABLE SIZE: 705 POINTS
TCL: Running for 1500000 steps
ETITLE: TS BOND ANGLE DIHED IMPRP ELECT VDW BOUNDARY MISC KINETIC TOTAL TEMP POTENTIAL TOTALAVG TEMPAVG PRESSURE GPRESSURE VOLUME PRESSAVG GPRESSAVG
ENERGY: 0 3.8256 4.2824 8.3675 0.0000 -10705.2672 1532.6902 0.0000 0.0000 1734.9488 -7421.1527 298.5862 -9156.1016 -7421.1527 298.5862 778.5928 866.7377 29934.5339 778.5928 866.7377
ENERGY: 300000 6.7973 4.9698 4.4555 0.0000 -10544.6962 1455.4978 0.0000 0.0000 1797.4665 -7275.5094 309.3455 -9072.9759 -7354.9887 300.0902 318.6274 344.5542 30093.7965 214.9586 284.9450
ENERGY: 600000 7.2524 4.6087 4.1668 0.0000 -10553.8225 1483.6284 0.0000 0.0000 1752.1903 -7301.9759 301.5534 -9054.1662 -7340.7297 298.6348 444.2239 495.7510 30133.4011 21.5340 78.8992
ENERGY: 900000 4.6830 6.1046 5.8721 0.0000 -10453.3333 1370.5647 0.0000 0.0000 1695.1055 -7371.0035 291.7291 -9066.1090 -7361.8441 296.1993 -401.8637 -383.2470 30306.8742 -26.6235 25.5095
ENERGY: 1200000 5.6848 3.2053 5.9613 0.0000 -10548.2855 1381.7423 0.0000 0.0000 1739.7954 -7411.8964 299.4203 -9151.6918 -7366.7256 297.5211 -272.5906 -164.8844 29368.0474 -53.4633 6.0196
ENERGY: 1500000 2.9805 6.2128 5.8273 0.0000 -10627.3924 1550.1143 0.0000 0.0000 1770.6543 -7291.6032 304.7311 -9062.2576 -7356.7656 298.3991 1025.6569 1189.5265 30046.8725 -31.0783 32.3755
TCL: Running FEP window  15: Lambda1 0.7000000000000001 Lambda2 0.7500000000000001 [dLambda 0.050000000000000044]
TCL: Setting parameter firsttimestep to 0
TCL: Setting parameter alchLambda to 0.7000000000000001
Info: NONBONDED TABLE R-SQUARED SPACING: 0.0625
Info: NONBONDED TABLE SIZE: 705 POINTS
TCL: Setting parameter alchLambda2 to 0.7500000000000001
Info: NONBONDED TABLE R-SQUARED SPACING: 0.0625
Info: NONBONDED TABLE SIZE: 705 POINTS
TCL: Running for 1500000 steps
ETITLE: TS BOND ANGLE DIHED IMPRP ELECT VDW BOUNDARY MISC KINETIC TOTAL TEMP POTENTIAL TOTALAVG TEMPAVG PRESSURE GPRESSURE VOLUME PRESSAVG GPRESSAVG
ENERGY: 0 2.9805 6.2128 5.8273 0.0000 -10628.2591 1550.3457 0.0000 0.0000 1769.8074 -7293.0854 304.5854 -9062.8928 -7293.0854 304.5854 1111.3976 1200.1300 30046.8725 1111.3976 1200.1300
ENERGY: 300000 6.7612 2.1802 5.7398 0.0000 -10597.5288 1444.6901 0.0000 0.0000 1750.0070 -7388.1505 301.1777 -9138.1575 -7345.7150 301.7159 -273.6245 -220.6292 30462.4169 201.7980 251.9011
ENERGY: 600000 3.5849 2.8350 6.4066 0.0000 -10537.1752 1403.7299 0.0000 0.0000 1734.5507 -7386.0681 298.5177 -9120.6188 -7349.6688 300.7086 35.5301 65.3059 29925.3395 105.4534 163.9701
ENERGY: 900000 5.8319 3.7917 5.3417 0.0000 -10535.4313 1402.9285 0.0000 0.0000 1780.3943 -7337.1432 306.4074 -9117.5375 -7350.4583 300.3322 -269.4050 -169.6662 29774.6380 20.1563 83.6762
ENERGY: 1200000 4.9646 3.8374 6.9604 0.0000 -10433.9555 1346.5463 0.0000 0.0000 1822.9220 -7248.7248 313.7264 -9071.6468 -7328.3985 301.1078 -174.0493 -116.1216 29836.4081 -26.2023 35.7220
ENERGY: 1500000 3.4788 6.6395 13.7333 0.0000 -10577.4144 1470.8378 0.0000 0.0000 1732.7221 -7350.0028 298.2030 -9082.7249 -7335.2468 300.9337 292.5926 411.8818 30266.4804 41.9258 105.5427
TCL: Running FEP window  16: Lambda1 0.7500000000000001 Lambda2 0.8000000000000002 [dLambda 0.050000000000000044]
TCL: Setting parameter firsttimestep to 0
TCL: Setting parameter alchLambda to 0.7500000000000001
Info: NONBONDED TABLE R-SQUARED SPACING: 0.0625
Info: NONBONDED TABLE SIZE: 705 POINTS
TCL: Setting parameter alchLambda2 to 0.8000000000000002
Info: NONBONDED TABLE R-SQUARED SPACING: 0.0625
Info: NONBONDED TABLE SIZE: 705 POINTS
TCL: Running for 1500000 steps
ETITLE: TS BOND ANGLE DIHED IMPRP ELECT VDW BOUNDARY MISC KINETIC TOTAL TEMP POTENTIAL TOTALAVG TEMPAVG PRESSURE GPRESSURE VOLUME PRESSAVG GPRESSAVG
ENERGY: 0 3.4788 6.6395 13.7333 0.0000 -10578.3704 1471.1154 0.0000 0.0000 1731.8841 -7351.5192 298.0587 -9083.4033 -7351.5192 298.0587 354.1299 429.5866 30266.4804 354.1299 429.5866
ENERGY: 300000 4.6437 5.2679 6.2727 0.0000 -10549.8780 1455.9872 0.0000 0.0000 1734.9749 -7342.7316 298.5907 -9077.7065 -7308.1195 300.9238 106.6822 165.8383 30440.1588 89.4737 136.3859
ENERGY: 600000 3.3739 5.1337 7.2072 0.0000 -10357.2000 1352.2372 0.0000 0.0000 1803.4134 -7185.8346 310.3690 -8989.2479 -7298.4110 301.6839 -35.4029 13.0700 29972.5281 27.7267 79.9648
ENERGY: 900000 5.8177 5.1630 2.9162 0.0000 -10708.5445 1492.6399 0.0000 0.0000 1706.7101 -7495.2977 293.7263 -9202.0077 -7340.5031 300.1295 152.1613 245.6114 30090.1268 182.9755 232.4388
ENERGY: 1200000 6.1408 4.5126 5.6626 0.0000 -10473.1354 1299.4649 0.0000 0.0000 1711.5912 -7445.7634 294.5663 -9157.3545 -7341.6033 299.9340 -1034.2415 -1005.8494 29551.6196 76.8321 125.7252
ENERGY: 1500000 6.7882 2.5545 7.9425 0.0000 -10574.5776 1413.3853 0.0000 0.0000 1722.4175 -7421.4895 296.4295 -9143.9070 -7349.9106 299.5032 -255.3736 -267.7998 29913.8328 78.3796 130.7273
TCL: Running FEP window  17: Lambda1 0.8000000000000002 Lambda2 0.8500000000000002 [dLambda 0.050000000000000044]
TCL: Setting parameter firsttimestep to 0
TCL: Setting parameter alchLambda to 0.8000000000000002
Info: NONBONDED TABLE R-SQUARED SPACING: 0.0625
Info: NONBONDED TABLE SIZE: 705 POINTS
TCL: Setting parameter alchLambda2 to 0.8500000000000002
Info: NONBONDED TABLE R-SQUARED SPACING: 0.0625
Info: NONBONDED TABLE SIZE: 705 POINTS
TCL: Running for 1500000 steps
ETITLE: TS BOND ANGLE DIHED IMPRP ELECT VDW BOUNDARY MISC KINETIC TOTAL TEMP POTENTIAL TOTALAVG TEMPAVG PRESSURE GPRESSURE VOLUME PRESSAVG GPRESSAVG
ENERGY: 0 6.7882 2.5545 7.9425 0.0000 -10575.5546 1413.3645 0.0000 0.0000 1721.5371 -7423.3677 296.2780 -9144.9049 -7423.3677 296.2780 -332.7365 -253.6128 29913.8328 -332.7365 -253.6128
ENERGY: 300000 4.0185 3.8484 5.2618 0.0000 -10605.0562 1384.4964 0.0000 0.0000 1784.2234 -7423.2077 307.0664 -9207.4311 -7347.9356 304.8036 -433.5728 -437.4290 29909.5954 -187.8590 -137.8479
ENERGY: 600000 2.2222 2.9542 7.6393 0.0000 -10513.7742 1419.6116 0.0000 0.0000 1799.8642 -7281.4828 309.7582 -9081.3470 -7354.6084 302.8406 160.8742 250.9842 29935.8736 -264.0714 -214.6881
ENERGY: 900000 8.5583 5.9648 10.3701 0.0000 -10619.9663 1503.1642 0.0000 0.0000 1780.5251 -7311.3838 306.4299 -9091.9089 -7348.9653 302.7512 849.0694 873.9470 30149.1494 -45.4041 9.9176
ENERGY: 1200000 4.2381 3.6002 6.7386 0.0000 -10661.8599 1530.2122 0.0000 0.0000 1745.8993 -7371.1715 300.4708 -9117.0708 -7348.3142 302.7102 1096.3630 1093.8658 29719.8880 32.6305 87.3310
ENERGY: 1500000 4.4308 5.3238 6.8065 0.0000 -10513.3817 1395.3565 0.0000 0.0000 1705.4112 -7396.0530 293.5027 -9101.4643 -7352.4386 301.4471 -424.7279 -314.2840 30120.0475 -11.8492 47.2073
TCL: Running FEP window  18: Lambda1 0.8500000000000002 Lambda2 0.9000000000000002 [dLambda 0.050000000000000044]
TCL: Setting parameter firsttimestep to 0
TCL: Setting parameter alchLambda to 0.8500000000000002
Info: NONBONDED TABLE R-SQUARED SPACING: 0.0625
Info: NONBONDED TABLE SIZE: 705 POINTS
TCL: Setting parameter alchLambda2 to 0.9000000000000002
Info: NONBONDED TABLE R-SQUARED SPACING: 0.0625
Info: NONBONDED TABLE SIZE: 705 POINTS
TCL: Running for 1500000 steps
ETITLE: TS BOND ANGLE DIHED IMPRP ELECT VDW BOUNDARY MISC KINETIC TOTAL TEMP POTENTIAL TOTALAVG TEMPAVG PRESSURE GPRESSURE VOLUME PRESSAVG GPRESSAVG
ENERGY: 0 4.4308 5.3238 6.8065 0.0000 -10514.0743 1394.9961 0.0000 0.0000 1704.5444 -7397.9729 293.3535 -9102.5172 -7397.9729 293.3535 -395.7302 -302.8772 30120.0475 -395.7302 -302.8772
ENERGY: 300000 6.4418 7.7030 5.3855 0.0000 -10491.2254 1383.9188 0.0000 0.0000 1709.1093 -7378.6670 294.1392 -9087.7764 -7351.9685 299.7810 -824.3017 -744.0162 30759.8084 -295.0735 -230.3180
ENERGY: 600000 4.9335 3.9576 8.3032 0.0000 -10646.9455 1483.6843 0.0000 0.0000 1718.0428 -7428.0241 295.6766 -9146.0668 -7363.3281 298.6301 -5.1765 94.9427 30222.2291 -291.3331 -204.7413
ENERGY: 900000 5.9872 4.3389 5.4938 0.0000 -10716.5099 1532.0696 0.0000 0.0000 1756.0629 -7412.5574 302.2199 -9168.6203 -7373.0161 299.4164 1037.7348 1068.2974 29674.2684 -37.0555 47.8031
ENERGY: 1200000 8.8011 6.4728 4.7342 0.0000 -10525.0942 1363.2118 0.0000 0.0000 1741.0021 -7400.8721 299.6279 -9141.8742 -7365.8268 300.1297 -641.1863 -514.9592 29819.6994 -37.0612 52.2368
ENERGY: 1500000 4.6723 6.2985 6.1205 0.0000 -10663.4466 1448.4725 0.0000 0.0000 1773.2521 -7424.6308 305.1782 -9197.8828 -7366.4818 300.1027 65.4978 147.4386 29737.2728 -70.2259 14.3745
TCL: Running FEP window  19: Lambda1 0.9000000000000002 Lambda2 0.9500000000000003 [dLambda 0.050000000000000044]
TCL: Setting parameter firsttimestep to 0
TCL: Setting parameter alchLambda to 0.9000000000000002
Info: NONBONDED TABLE R-SQUARED SPACING: 0.0625
Info: NONBONDED TABLE SIZE: 705 POINTS
TCL: Setting parameter alchLambda2 to 0.9500000000000003
Info: NONBONDED TABLE R-SQUARED SPACING: 0.0625
Info: NONBONDED TABLE SIZE: 705 POINTS
TCL: Running for 1500000 steps
ETITLE: TS BOND ANGLE DIHED IMPRP ELECT VDW BOUNDARY MISC KINETIC TOTAL TEMP POTENTIAL TOTALAVG TEMPAVG PRESSURE GPRESSURE VOLUME PRESSAVG GPRESSAVG
ENERGY: 0 4.6723 6.2985 6.1205 0.0000 -10664.2757 1448.0826 0.0000 0.0000 1772.3567 -7426.7451 305.0241 -9199.1018 -7426.7451 305.0241 65.3659 156.9732 29737.2728 65.3659 156.9732
ENERGY: 300000 3.4897 3.8217 10.1618 0.0000 -10586.5886 1447.1706 0.0000 0.0000 1699.6560 -7422.2889 292.5122 -9121.9449 -7377.2793 299.1831 -117.1685 10.4746 30331.6356 -389.9505 -304.1167
ENERGY: 600000 5.4887 5.3107 4.2871 0.0000 -10560.3795 1454.5572 0.0000 0.0000 1707.6694 -7383.0664 293.8914 -9090.7358 -7371.2958 297.0164 294.1397 350.3148 30090.5342 -288.9869 -215.2708
ENERGY: 900000 6.8317 3.6690 8.3850 0.0000 -10589.8919 1439.2563 0.0000 0.0000 1724.8720 -7406.8779 296.8519 -9131.7499 -7370.2470 297.9129 -269.0460 -211.1936 30421.1884 -148.0839 -77.2625
ENERGY: 1200000 3.3463 4.8080 7.1741 0.0000 -10484.2938 1372.9745 0.0000 0.0000 1773.1499 -7322.8410 305.1606 -9095.9909 -7363.9113 299.4210 -104.8864 -102.8956 30372.9628 -111.7546 -49.8808
ENERGY: 1500000 7.0390 4.6469 6.3171 0.0000 -10654.8502 1565.1539 0.0000 0.0000 1779.9859 -7291.7075 306.3371 -9071.6934 -7356.5458 300.2776 1406.4060 1514.9453 29768.6952 -28.6081 32.8539
TCL: Running FEP window  20: Lambda1 0.9500000000000003 Lambda2 1.0    [dLambda 0.04999999999999971]
TCL: Setting parameter firsttimestep to 0
TCL: Setting parameter alchLambda to 0.9500000000000003
Info: NONBONDED TABLE R-SQUARED SPACING: 0.0625
Info: NONBONDED TABLE SIZE: 705 POINTS
TCL: Setting parameter alchLambda2 to 1.0
Info: NONBONDED TABLE R-SQUARED SPACING: 0.0625
Info: NONBONDED TABLE SIZE: 705 POINTS
TCL: Running for 1500000 steps
ETITLE: TS BOND ANGLE DIHED IMPRP ELECT VDW BOUNDARY MISC KINETIC TOTAL TEMP POTENTIAL TOTALAVG TEMPAVG PRESSURE GPRESSURE VOLUME PRESSAVG GPRESSAVG
ENERGY: 0 7.0390 4.6469 6.3171 0.0000 -10655.9202 1565.2982 0.0000 0.0000 1779.1408 -7293.4781 306.1917 -9072.6189 -7293.4781 306.1917 1434.3610 1533.0413 29768.6952 1434.3610 1533.0413
ENERGY: 300000 6.5073 9.1426 6.3087 0.0000 -10481.7986 1378.8953 0.0000 0.0000 1712.4895 -7368.4550 294.7209 -9080.9446 -7401.4710 295.7224 -336.5051 -270.3885 29886.3087 -28.5780 41.7811
ENERGY: 600000 5.5814 5.8193 8.4076 0.0000 -10500.9048 1338.9309 0.0000 0.0000 1721.5986 -7420.5669 296.2886 -9142.1656 -7390.8351 298.8956 -641.3492 -637.8650 30079.1749 -20.3137 39.0167
ENERGY: 900000 5.1482 2.5212 5.3881 0.0000 -10521.8680 1390.1880 0.0000 0.0000 1727.4059 -7391.2166 297.2880 -9118.6225 -7397.3736 298.8536 -271.6001 -187.4230 30309.2917 9.7946 76.5845
ENERGY: 1200000 5.7121 4.7657 5.4171 0.0000 -10534.0878 1402.3127 0.0000 0.0000 1685.0779 -7430.8023 290.0033 -9115.8802 -7394.8927 298.6378 -18.4918 -0.2062 29816.8844 36.4244 102.4998
ENERGY: 1500000 6.7785 5.0075 6.2212 0.0000 -10525.5330 1420.3328 0.0000 0.0000 1709.8771 -7377.3159 294.2713 -9087.1930 -7389.0502 298.5684 232.7141 310.7536 29936.3226 -61.8861 5.8619
TCL: Exiting due to exit command.
