Info: SIMULATION PARAMETERS:
Info: TIMESTEP               2
Info: NUMBER OF STEPS        0
Info: STEPS PER CYCLE        10
Info: PERIODIC CELL BASIS 1  31.8035 0 0
Info: PERIODIC CELL BASIS 2  0 30.1208 0
Info: PERIODIC CELL BASIS 3  0 0 32.2301
Info: PERIODIC CELL CENTER   0 0 0
Info: WRAPPING WATERS AROUND PERIODIC BOUNDARIES ON OUTPUT.
Info: WRAPPING ALL CLUSTERS AROUND PERIODIC BOUNDARIES ON OUTPUT.
Info: FIRST LDB TIMESTEP     50
Info: LAST LDB TIMESTEP     -1
Info: HOM BACKGROUND SCALING 1
Info: PME BACKGROUND SCALING 1
Info: MIN ATOMS PER PATCH    40
Info: EMPTY PATCH LOAD       40 ATOMS
Info: VELOCITY FILE          mobley_5571660_equil.vel
Info: CENTER OF MASS MOVING INITIALLY? NO
Info: DIELECTRIC             1
Info: EXCLUDE                SCALED ONE-FOUR
Info: 1-4 ELECTROSTATICS SCALED BY 0.833333
Info: MODIFIED 1-4 VDW PARAMETERS WILL BE USED
Info: DCD FILENAME           mobley_5571660_prod.dcd
Info: DCD FREQUENCY          100000
Info: DCD FIRST STEP         100000
Info: DCD FILE WILL CONTAIN UNIT CELL DATA
Info: XST FILENAME           mobley_5571660_prod.xst
Info: XST FREQUENCY          100000
Info: NO VELOCITY DCD OUTPUT
Info: NO FORCE DCD OUTPUT
Info: OUTPUT FILENAME        mobley_5571660_prod
Info: BINARY OUTPUT FILES WILL BE USED
Info: RESTART FILENAME       mobley_5571660_prod.restart
Info: RESTART FREQUENCY      100000
Info: BINARY RESTART FILES WILL BE USED
Info: CUTOFF                 9
Info: PAIRLIST DISTANCE      11
Info: PAIRLIST SHRINK RATE   0.01
Info: PAIRLIST GROW RATE     0.01
Info: PAIRLIST TRIGGER       0.3
Info: PAIRLISTS PER CYCLE    2
Info: PAIRLISTS ENABLED
Info: MARGIN                 2
Info: HYDROGEN GROUP CUTOFF  2.5
Info: PATCH DIMENSION        15.5
Info: ENERGY OUTPUT STEPS    100000
Info: ENERGY EVALUATION STEPS    100000
Info: OUTPUT ENERGY PRECISION 4
Info: CROSSTERM ENERGY INCLUDED IN DIHEDRAL
Info: TIMING OUTPUT STEPS    1000000
Info: PRESSURE OUTPUT STEPS  100000
Info: ALCHEMICAL FEP ON
Info: FEP CURRENT LAMBDA VALUE     1
Info: FEP COMPARISON LAMBDA VALUE  0.95
Info: FEP INTRA-ALCHEMICAL NON-BONDED INTERACTIONS WILL BE RETAINED
Info: FEP INTRA-ALCHEMICAL BONDED INTERACTIONS WILL BE RETAINED
Info: FEP VDW SHIFTING COEFFICIENT 5
Info: FEP ELEC. ACTIVE FOR ANNIHILATED PARTICLES BETWEEN LAMBDA = 0 AND LAMBDA = 0.5
Info: FEP ELEC. ACTIVE FOR EXNIHILATED PARTICLES BETWEEN LAMBDA = 0.5 AND LAMBDA = 1
Info: FEP VDW ACTIVE FOR ANNIHILATED PARTICLES BETWEEN LAMBDA = 0 AND LAMBDA = 1
Info: FEP VDW ACTIVE FOR EXNIHILATED PARTICLES BETWEEN LAMBDA = 0 AND LAMBDA = 1
Info: FEP BOND ACTIVE FOR ANNIHILATED PARTICLES BETWEEN LAMBDA = 1 AND LAMBDA = 1
Info: FEP BOND ACTIVE FOR EXNIHILATED PARTICLES BETWEEN LAMBDA = 0 AND LAMBDA = 0
Info: LANGEVIN DYNAMICS ACTIVE
Info: LANGEVIN TEMPERATURE   300
Info: LANGEVIN USING BBK INTEGRATOR
Info: LANGEVIN DAMPING COEFFICIENT IS 1 INVERSE PS
Info: LANGEVIN DYNAMICS APPLIED TO HYDROGENS
Info: LANGEVIN PISTON PRESSURE CONTROL ACTIVE
Info:        TARGET PRESSURE IS 1.01325 BAR
Info:     OSCILLATION PERIOD IS 50 FS
Info:             DECAY TIME IS 25 FS
Info:     PISTON TEMPERATURE IS 300 K
Info:       PRESSURE CONTROL IS GROUP-BASED
Info:    INITIAL STRAIN RATE IS 5.57757e-05 5.57757e-05 5.57757e-05
Info:       CELL FLUCTUATION IS ISOTROPIC
Info: PARTICLE MESH EWALD (PME) ACTIVE
Info: PME TOLERANCE               1e-06
Info: PME EWALD COEFFICIENT       0.348832
Info: PME INTERPOLATION ORDER     4
Info: PME GRID DIMENSIONS         32 32 36
Info: PME MAXIMUM GRID SPACING    1
Info: PME CALCULATION WILL BE PERFORMED ON GPU
Info: FULL ELECTROSTATIC EVALUATION FREQUENCY      2
Info: USING VERLET I (r-RESPA) MTS SCHEME.
Info: C1 SPLITTING OF LONG RANGE ELECTROSTATICS
Info: PLACING ATOMS IN PATCHES BY HYDROGEN GROUPS
Info: RIGID BONDS TO HYDROGEN : ALL
Info:         ERROR TOLERANCE : 1e-08
Info:          MAX ITERATIONS : 100
Info: RIGID WATER USING SETTLE ALGORITHM
Info: RANDOM NUMBER SEED     1743634084
Info: USE HYDROGEN BONDS?    NO
Info: Using AMBER format force field!
Info: AMBER PARM FILE        mobley_5571660.prmtop
Info: COORDINATE PDB         mobley_5571660.pdb
Info: Exclusions will be read from PARM file!
Info: SCNB (VDW SCALING)     2
Info: USING ARITHMETIC MEAN TO COMBINE L-J SIGMA PARAMETERS
Info: BINARY COORDINATES     mobley_5571660_equil.coor
Info: SUMMARY OF PARAMETERS:
Info: 8 BONDS
Info: 8 ANGLES
Info:   8 HARMONIC
Info:   0 COSINE-BASED
Info: 4 DIHEDRAL
Info: 0 IMPROPER
Info: 0 CROSSTERM
Info: 0 VDW
Info: 36 VDW_PAIRS
Info: 0 NBTHOLE_PAIRS
Info: To read alchdata from file: mobley_5571660.pdb
Info: To read alchflag data from column: 5
Info: STRUCTURE SUMMARY:
Info: 2987 ATOMS
Info: 2987 BONDS
Info: 33 ANGLES
Info: 47 DIHEDRALS
Info: 0 IMPROPERS
Info: 0 CROSSTERMS
Info: 3057 EXCLUSIONS
Info: 2978 RIGID BONDS
Info: ALCH: 0 ATOMS TO DISAPPEAR IN FINAL STATE
Info: ALCH: 20 ATOMS TO APPEAR IN FINAL STATE
Info: 5983 DEGREES OF FREEDOM
Info: 998 HYDROGEN GROUPS
Info: 4 ATOMS IN LARGEST HYDROGEN GROUP
Info: 998 MIGRATION GROUPS
Info: 4 ATOMS IN LARGEST MIGRATION GROUP
Info: TOTAL MASS = 17939 amu
Info: TOTAL CHARGE = -9.99719e-05 e
Info: MASS DENSITY = 0.964839 g/cm^3
Info: ATOM DENSITY = 0.0967459 atoms/A^3
Info: ADDED 0 IMPLICIT EXCLUSIONS
Info: NONBONDED TABLE R-SQUARED SPACING: 0.0625
Info: NONBONDED TABLE SIZE: 705 POINTS
Info: REMOVING COM VELOCITY -0.0895152 0.0187335 0.0194338
Info: Use 3D box decompostion in PME FFT.
Info: Updated CUDA force table with 4096 elements.
Info: Updated CUDA LJ table with 8 x 8 elements.
Info: Found 21 unique exclusion lists needing 56 bytes
TCL: Running for 1500000 steps
ETITLE: TS BOND ANGLE DIHED IMPRP ELECT VDW BOUNDARY MISC KINETIC TOTAL TEMP POTENTIAL TOTALAVG TEMPAVG PRESSURE GPRESSURE VOLUME PRESSAVG GPRESSAVG
ENERGY: 0 5.2782 8.2435 6.2338 0.0000 -10728.2820 1386.1361 0.0000 0.0000 1779.6925 -7542.6979 299.3756 -9322.3905 -7542.6979 299.3756 -467.2302 -394.8018 30874.6826 -467.2302 -394.8018
ENERGY: 300000 5.3479 6.7415 5.9891 0.0000 -10724.5775 1417.0152 0.0000 0.0000 1788.9360 -7500.5477 300.9305 -9289.4837 -7539.3490 302.7179 -153.5943 -76.6333 31218.3615 -235.4235 -158.6837
ENERGY: 600000 3.7356 12.1137 3.9094 0.0000 -10762.7381 1394.8691 0.0000 0.0000 1836.6438 -7511.4666 308.9558 -9348.1103 -7526.8900 303.7546 -393.6570 -358.2277 30734.5298 -58.5586 10.1676
ENERGY: 900000 2.0432 6.5373 5.7253 0.0000 -10769.6001 1392.5222 0.0000 0.0000 1796.1268 -7566.6453 302.1401 -9362.7721 -7540.4480 303.5038 -392.4067 -335.4437 30879.6404 -137.4121 -68.5381
ENERGY: 1200000 4.1914 4.9277 3.0985 0.0000 -10892.2499 1490.5261 0.0000 0.0000 1794.3787 -7595.1276 301.8460 -9389.5063 -7547.5288 302.3881 289.5126 357.6190 30681.3609 -100.4971 -33.1879
ENERGY: 1500000 1.5901 5.5484 3.6047 0.0000 -10862.4638 1482.7816 0.0000 0.0000 1792.9325 -7576.0064 301.6028 -9368.9390 -7550.5538 301.5946 210.6528 275.4988 30738.9624 -76.1798 -9.3018
TCL: Running FEP window   2: Lambda1 0.95   Lambda2 0.8999999999999999 [dLambda -0.050000000000000044]
TCL: Setting parameter firsttimestep to 0
TCL: Setting parameter alchLambda to 0.95
Info: NONBONDED TABLE R-SQUARED SPACING: 0.0625
Info: NONBONDED TABLE SIZE: 705 POINTS
TCL: Setting parameter alchLambda2 to 0.8999999999999999
Info: NONBONDED TABLE R-SQUARED SPACING: 0.0625
Info: NONBONDED TABLE SIZE: 705 POINTS
TCL: Running for 1500000 steps
ETITLE: TS BOND ANGLE DIHED IMPRP ELECT VDW BOUNDARY MISC KINETIC TOTAL TEMP POTENTIAL TOTALAVG TEMPAVG PRESSURE GPRESSURE VOLUME PRESSAVG GPRESSAVG
ENERGY: 0 1.5901 5.5484 3.6047 0.0000 -10860.6719 1482.4113 0.0000 0.0000 1792.0338 -7575.4835 301.4516 -9367.5173 -7575.4835 301.4516 186.0265 261.6620 30738.9624 186.0265 261.6620
ENERGY: 300000 4.5426 8.9733 4.5179 0.0000 -10895.0350 1468.5317 0.0000 0.0000 1811.0640 -7597.4055 304.6528 -9408.4695 -7541.6794 303.2920 -162.0394 -35.5902 30854.2534 -72.5055 -15.7745
ENERGY: 600000 1.8570 6.6004 4.4524 0.0000 -10812.7119 1418.7790 0.0000 0.0000 1765.9720 -7615.0512 297.0675 -9381.0232 -7570.2562 301.5688 -300.2700 -275.1707 30697.0677 -99.5758 -43.3302
ENERGY: 900000 2.0001 6.9483 4.2003 0.0000 -10669.9608 1372.9739 0.0000 0.0000 1774.4337 -7509.4046 298.4909 -9283.8384 -7557.9472 301.4553 -585.3182 -530.4886 31471.6308 -182.3721 -123.9146
ENERGY: 1200000 2.7080 4.2698 5.2089 0.0000 -10752.3001 1448.5447 0.0000 0.0000 1827.8410 -7463.7277 307.4750 -9291.5687 -7558.2557 300.9184 381.7275 441.3801 30448.4633 -162.0776 -98.0272
ENERGY: 1500000 3.5610 4.2021 5.1247 0.0000 -10848.1425 1467.1626 0.0000 0.0000 1812.3453 -7555.7467 304.8683 -9368.0921 -7562.1173 301.1873 409.2235 473.1312 30290.4118 -91.5041 -28.4844
TCL: Running FEP window   3: Lambda1 0.8999999999999999 Lambda2 0.8499999999999999 [dLambda -0.050000000000000044]
TCL: Setting parameter firsttimestep to 0
TCL: Setting parameter alchLambda to 0.8999999999999999
Info: NONBONDED TABLE R-SQUARED SPACING: 0.0625
Info: NONBONDED TABLE SIZE: 705 POINTS
TCL: Setting parameter alchLambda2 to 0.8499999999999999
Info: NONBONDED TABLE R-SQUARED SPACING: 0.0625
Info: NONBONDED TABLE SIZE: 705 POINTS
TCL: Running for 1500000 steps
ETITLE: TS BOND ANGLE DIHED IMPRP ELECT VDW BOUNDARY MISC KINETIC TOTAL TEMP POTENTIAL TOTALAVG TEMPAVG PRESSURE GPRESSURE VOLUME PRESSAVG GPRESSAVG
ENERGY: 0 3.5610 4.2021 5.1247 0.0000 -10846.0327 1465.1958 0.0000 0.0000 1811.4973 -7556.4518 304.7257 -9367.9491 -7556.4518 304.7257 358.9700 437.4842 30290.4118 358.9700 437.4842
ENERGY: 300000 4.0745 9.4718 2.8960 0.0000 -10749.9839 1343.4063 0.0000 0.0000 1780.0049 -7610.1305 299.4281 -9390.1354 -7592.8888 299.9837 -1012.2799 -917.0719 30546.5596 -344.0592 -297.4138
ENERGY: 600000 2.0930 3.5283 5.8610 0.0000 -10750.2990 1403.2106 0.0000 0.0000 1828.9488 -7506.6574 307.6613 -9335.6062 -7570.3701 301.9904 -375.4921 -314.0756 30811.9010 -127.0235 -80.3419
ENERGY: 900000 3.5842 8.0331 7.5721 0.0000 -10905.2126 1502.6967 0.0000 0.0000 1792.7928 -7590.5336 301.5793 -9383.3264 -7578.7921 301.4746 451.1285 490.8071 30745.6287 -58.3575 -3.4565
ENERGY: 1200000 3.5295 4.6695 3.0929 0.0000 -10786.8679 1406.2736 0.0000 0.0000 1703.1282 -7666.1743 286.4961 -9369.3025 -7585.0509 300.1969 -230.2395 -184.4171 30317.5378 -100.2135 -38.2175
ENERGY: 1500000 4.0706 9.0092 4.9930 0.0000 -10920.8495 1444.0201 0.0000 0.0000 1745.0480 -7713.7087 293.5477 -9458.7566 -7598.4871 299.7576 -88.9941 -75.3152 30211.9500 -164.0037 -111.7842
TCL: Running FEP window   4: Lambda1 0.8499999999999999 Lambda2 0.7999999999999998 [dLambda -0.050000000000000044]
TCL: Setting parameter firsttimestep to 0
TCL: Setting parameter alchLambda to 0.8499999999999999
Info: NONBONDED TABLE R-SQUARED SPACING: 0.0625
Info: NONBONDED TABLE SIZE: 705 POINTS
TCL: Setting parameter alchLambda2 to 0.7999999999999998
Info: NONBONDED TABLE R-SQUARED SPACING: 0.0625
Info: NONBONDED TABLE SIZE: 705 POINTS
TCL: Running for 1500000 steps
ETITLE: TS BOND ANGLE DIHED IMPRP ELECT VDW BOUNDARY MISC KINETIC TOTAL TEMP POTENTIAL TOTALAVG TEMPAVG PRESSURE GPRESSURE VOLUME PRESSAVG GPRESSAVG
ENERGY: 0 4.0706 9.0092 4.9930 0.0000 -10919.1502 1443.8531 0.0000 0.0000 1744.1764 -7713.0478 293.4011 -9457.2243 -7713.0478 293.4011 -173.0601 -84.3721 30211.9500 -173.0601 -84.3721
ENERGY: 300000 1.8671 5.3006 1.9055 0.0000 -10870.9595 1457.3551 0.0000 0.0000 1762.8979 -7641.6333 296.5504 -9404.5312 -7662.5693 298.1456 -137.6714 -77.8281 30852.2060 -139.5425 -62.6600
ENERGY: 600000 1.9728 7.7617 5.2987 0.0000 -10877.5361 1420.0044 0.0000 0.0000 1754.6079 -7687.8907 295.1559 -9442.4986 -7654.8151 297.9507 -548.0968 -484.8630 30751.1429 -216.1202 -147.5921
ENERGY: 900000 3.5701 7.9035 3.9882 0.0000 -10897.1023 1480.3340 0.0000 0.0000 1777.5695 -7623.7369 299.0184 -9401.3064 -7635.2369 298.9582 155.2053 209.3561 30559.1618 -254.1210 -177.1466
ENERGY: 1200000 3.8519 7.0756 3.0143 0.0000 -10975.6313 1516.0564 0.0000 0.0000 1791.1614 -7654.4717 301.3048 -9445.6331 -7619.9837 298.5883 166.1231 194.0744 30497.8256 -249.0348 -174.3912
ENERGY: 1500000 2.6575 5.6906 4.5813 0.0000 -10702.4431 1339.8937 0.0000 0.0000 1752.4156 -7597.2044 294.7871 -9349.6200 -7607.8963 298.3364 -1132.7260 -1061.1649 30912.5410 -320.0858 -244.9290
TCL: Running FEP window   5: Lambda1 0.7999999999999998 Lambda2 0.7499999999999998 [dLambda -0.050000000000000044]
TCL: Setting parameter firsttimestep to 0
TCL: Setting parameter alchLambda to 0.7999999999999998
Info: NONBONDED TABLE R-SQUARED SPACING: 0.0625
Info: NONBONDED TABLE SIZE: 705 POINTS
TCL: Setting parameter alchLambda2 to 0.7499999999999998
Info: NONBONDED TABLE R-SQUARED SPACING: 0.0625
Info: NONBONDED TABLE SIZE: 705 POINTS
TCL: Running for 1500000 steps
ETITLE: TS BOND ANGLE DIHED IMPRP ELECT VDW BOUNDARY MISC KINETIC TOTAL TEMP POTENTIAL TOTALAVG TEMPAVG PRESSURE GPRESSURE VOLUME PRESSAVG GPRESSAVG
ENERGY: 0 2.6575 5.6906 4.5813 0.0000 -10700.2870 1339.3311 0.0000 0.0000 1751.5710 -7596.4555 294.6450 -9348.0265 -7596.4555 294.6450 -1150.0183 -1072.0616 30912.5410 -1150.0183 -1072.0616
ENERGY: 300000 1.6459 5.4736 5.4184 0.0000 -10819.2975 1487.3489 0.0000 0.0000 1785.7446 -7533.6662 300.3936 -9319.4108 -7581.0208 301.5351 387.5519 417.2162 30771.1424 -142.1034 -79.3019
ENERGY: 600000 0.9573 12.8465 3.3941 0.0000 -10918.5080 1515.3858 0.0000 0.0000 1777.8780 -7608.0463 299.0703 -9385.9243 -7586.9172 299.8082 228.1010 348.6519 30976.9471 2.8467 73.4499
ENERGY: 900000 2.8178 6.2276 1.9674 0.0000 -10824.4513 1450.8357 0.0000 0.0000 1777.9789 -7584.6239 299.0873 -9362.6028 -7595.0068 299.1811 -196.5966 -124.2552 30784.0647 -28.0853 45.6620
ENERGY: 1200000 2.9560 9.4731 1.3863 0.0000 -10755.4731 1386.9253 0.0000 0.0000 1816.2901 -7538.4423 305.5319 -9354.7324 -7598.6689 298.2998 -764.4381 -710.8405 30954.4378 8.7722 82.9147
ENERGY: 1500000 3.3683 11.6812 1.3741 0.0000 -10935.5062 1537.3922 0.0000 0.0000 1762.1834 -7619.5069 296.4302 -9381.6904 -7599.0710 298.1242 388.1054 443.6480 30678.2601 54.5455 125.1953
TCL: Running FEP window   6: Lambda1 0.7499999999999998 Lambda2 0.6999999999999997 [dLambda -0.050000000000000044]
TCL: Setting parameter firsttimestep to 0
TCL: Setting parameter alchLambda to 0.7499999999999998
Info: NONBONDED TABLE R-SQUARED SPACING: 0.0625
Info: NONBONDED TABLE SIZE: 705 POINTS
TCL: Setting parameter alchLambda2 to 0.6999999999999997
Info: NONBONDED TABLE R-SQUARED SPACING: 0.0625
Info: NONBONDED TABLE SIZE: 705 POINTS
TCL: Running for 1500000 steps
ETITLE: TS BOND ANGLE DIHED IMPRP ELECT VDW BOUNDARY MISC KINETIC TOTAL TEMP POTENTIAL TOTALAVG TEMPAVG PRESSURE GPRESSURE VOLUME PRESSAVG GPRESSAVG
ENERGY: 0 3.3683 11.6812 1.3741 0.0000 -10934.2388 1537.7648 0.0000 0.0000 1761.3098 -7618.7406 296.2833 -9380.0504 -7618.7406 296.2833 362.0926 439.8578 30678.2601 362.0926 439.8578
ENERGY: 300000 2.9644 5.5039 3.9202 0.0000 -10940.6887 1483.2138 0.0000 0.0000 1846.2199 -7598.8665 310.5666 -9445.0864 -7576.7824 304.1326 -10.0294 82.2269 30594.8709 187.0315 246.1813
ENERGY: 600000 1.9750 3.2158 2.3389 0.0000 -10719.0343 1403.4876 0.0000 0.0000 1771.2919 -7536.7253 297.9624 -9308.0171 -7580.9983 301.7706 -269.6800 -229.2203 30984.5474 52.1411 110.5048
ENERGY: 900000 1.9042 2.9404 3.4084 0.0000 -10765.0557 1460.3720 0.0000 0.0000 1779.9338 -7516.4970 299.4162 -9296.4308 -7587.0448 301.5290 67.7288 73.7743 30809.4651 33.9106 93.9081
ENERGY: 1200000 3.1082 8.3807 3.9549 0.0000 -10769.1903 1345.8345 0.0000 0.0000 1762.5733 -7645.3387 296.4958 -9407.9119 -7597.4783 300.3917 -976.4762 -941.6925 30562.0063 -80.4798 -22.4804
ENERGY: 1500000 2.1412 4.0728 3.9548 0.0000 -10887.2113 1416.2028 0.0000 0.0000 1758.6671 -7702.1725 295.8387 -9460.8396 -7594.8438 300.3703 -625.4436 -548.4862 30584.1807 -131.3049 -72.2870
TCL: Running FEP window   7: Lambda1 0.6999999999999997 Lambda2 0.6499999999999997 [dLambda -0.050000000000000044]
TCL: Setting parameter firsttimestep to 0
TCL: Setting parameter alchLambda to 0.6999999999999997
Info: NONBONDED TABLE R-SQUARED SPACING: 0.0625
Info: NONBONDED TABLE SIZE: 705 POINTS
TCL: Setting parameter alchLambda2 to 0.6499999999999997
Info: NONBONDED TABLE R-SQUARED SPACING: 0.0625
Info: NONBONDED TABLE SIZE: 705 POINTS
TCL: Running for 1500000 steps
ETITLE: TS BOND ANGLE DIHED IMPRP ELECT VDW BOUNDARY MISC KINETIC TOTAL TEMP POTENTIAL TOTALAVG TEMPAVG PRESSURE GPRESSURE VOLUME PRESSAVG GPRESSAVG
ENERGY: 0 2.1412 4.0728 3.9548 0.0000 -10886.6247 1416.0784 0.0000 0.0000 1757.7914 -7702.5860 295.6914 -9460.3774 -7702.5860 295.6914 -636.9568 -557.6807 30584.1807 -636.9568 -557.6807
ENERGY: 300000 2.9752 6.3708 2.1172 0.0000 -10775.9321 1475.3282 0.0000 0.0000 1762.3863 -7526.7544 296.4644 -9289.1407 -7562.7374 301.5440 339.6602 409.4627 30602.1327 6.4280 57.6033
ENERGY: 600000 2.6401 7.1191 5.1022 0.0000 -10730.6302 1379.7278 0.0000 0.0000 1793.9451 -7542.0959 301.7731 -9336.0410 -7550.1553 300.7597 -403.0432 -356.0867 30643.4299 128.6871 193.8295
ENERGY: 900000 1.7395 6.5147 5.4660 0.0000 -10598.8167 1353.2815 0.0000 0.0000 1768.5385 -7463.2764 297.4993 -9231.8149 -7549.9353 300.1592 -715.6852 -641.1614 31376.2138 119.5258 185.9981
ENERGY: 1200000 5.8285 5.5200 2.9175 0.0000 -10787.0580 1463.6673 0.0000 0.0000 1824.1871 -7484.9377 306.8603 -9309.1248 -7554.4040 300.4950 153.2122 164.6890 30733.7180 88.0485 148.6508
ENERGY: 1500000 2.0564 6.1842 5.0517 0.0000 -10905.9426 1494.8863 0.0000 0.0000 1775.2441 -7622.5199 298.6273 -9397.7640 -7557.5579 300.2830 485.3271 520.7121 30108.1335 46.8684 105.9860
TCL: Running FEP window   8: Lambda1 0.6499999999999997 Lambda2 0.5999999999999996 [dLambda -0.050000000000000044]
TCL: Setting parameter firsttimestep to 0
TCL: Setting parameter alchLambda to 0.6499999999999997
Info: NONBONDED TABLE R-SQUARED SPACING: 0.0625
Info: NONBONDED TABLE SIZE: 705 POINTS
TCL: Setting parameter alchLambda2 to 0.5999999999999996
Info: NONBONDED TABLE R-SQUARED SPACING: 0.0625
Info: NONBONDED TABLE SIZE: 705 POINTS
TCL: Running for 1500000 steps
ETITLE: TS BOND ANGLE DIHED IMPRP ELECT VDW BOUNDARY MISC KINETIC TOTAL TEMP POTENTIAL TOTALAVG TEMPAVG PRESSURE GPRESSURE VOLUME PRESSAVG GPRESSAVG
ENERGY: 0 2.0564 6.1842 5.0517 0.0000 -10905.2161 1495.4537 0.0000 0.0000 1774.3564 -7622.1136 298.4779 -9396.4700 -7622.1136 298.4779 432.8982 521.9936 30108.1335 432.8982 521.9936
ENERGY: 300000 2.2781 7.2381 3.4831 0.0000 -10696.8739 1341.8647 0.0000 0.0000 1794.0079 -7548.0020 301.7837 -9342.0098 -7628.1047 300.2050 -971.2174 -865.2871 30907.9125 -499.9459 -411.0988
ENERGY: 600000 0.9412 10.5213 2.9802 0.0000 -10753.3866 1419.1826 0.0000 0.0000 1778.1332 -7541.6282 299.1133 -9319.7614 -7601.2672 297.9960 -244.6659 -171.7019 30891.2778 -313.8247 -233.1092
ENERGY: 900000 6.6880 7.8729 4.1360 0.0000 -10759.3615 1395.7021 0.0000 0.0000 1766.8261 -7578.1364 297.2112 -9344.9625 -7592.0072 299.7115 -400.5060 -344.6269 30996.1246 -254.4858 -191.5113
ENERGY: 1200000 3.9360 5.9989 3.3083 0.0000 -10876.8563 1501.5579 0.0000 0.0000 1785.0433 -7577.0118 300.2757 -9362.0551 -7588.0512 299.5419 727.2690 763.5036 30028.7800 -147.0711 -89.0029
ENERGY: 1500000 4.3706 6.0839 3.5637 0.0000 -10793.0932 1438.7162 0.0000 0.0000 1756.2649 -7584.0939 295.4346 -9340.3588 -7587.9065 299.3729 -375.8809 -335.2040 31112.6953 -157.8558 -102.6039
TCL: Running FEP window   9: Lambda1 0.5999999999999996 Lambda2 0.5499999999999996 [dLambda -0.050000000000000044]
TCL: Setting parameter firsttimestep to 0
TCL: Setting parameter alchLambda to 0.5999999999999996
Info: NONBONDED TABLE R-SQUARED SPACING: 0.0625
Info: NONBONDED TABLE SIZE: 705 POINTS
TCL: Setting parameter alchLambda2 to 0.5499999999999996
Info: NONBONDED TABLE R-SQUARED SPACING: 0.0625
Info: NONBONDED TABLE SIZE: 705 POINTS
TCL: Running for 1500000 steps
ETITLE: TS BOND ANGLE DIHED IMPRP ELECT VDW BOUNDARY MISC KINETIC TOTAL TEMP POTENTIAL TOTALAVG TEMPAVG PRESSURE GPRESSURE VOLUME PRESSAVG GPRESSAVG
ENERGY: 0 4.3706 6.0839 3.5637 0.0000 -10792.8229 1438.7189 0.0000 0.0000 1755.4045 -7584.6813 295.2899 -9340.0858 -7584.6813 295.2899 -422.3224 -342.6963 31112.6953 -422.3224 -342.6963
ENERGY: 300000 2.6912 5.6915 2.1326 0.0000 -10825.6880 1454.7584 0.0000 0.0000 1776.8513 -7583.5630 298.8976 -9360.4144 -7584.1823 298.5208 40.6326 113.8358 30361.5289 -243.2701 -144.6864
ENERGY: 600000 0.7039 5.8030 4.5898 0.0000 -10817.5563 1497.6663 0.0000 0.0000 1828.1428 -7480.6505 307.5258 -9308.7933 -7575.2614 300.1161 523.1869 609.9555 30644.4300 -103.9627 -15.0297
ENERGY: 900000 3.8099 3.6766 3.6134 0.0000 -10753.9621 1467.5444 0.0000 0.0000 1822.8294 -7452.4884 306.6320 -9275.3178 -7551.7484 302.1681 414.5634 453.8042 30722.2603 -126.2071 -42.9094
ENERGY: 1200000 1.4996 8.0243 4.1772 0.0000 -10763.9508 1368.2272 0.0000 0.0000 1787.4634 -7594.5591 300.6828 -9382.0225 -7549.1678 302.2491 -852.3682 -792.0335 31461.1522 -132.0543 -52.9293
ENERGY: 1500000 3.1332 4.3018 3.2094 0.0000 -10789.2074 1420.4016 0.0000 0.0000 1810.8092 -7547.3522 304.6099 -9358.1614 -7549.4885 301.5129 -588.4978 -487.1021 31307.5967 -200.7277 -127.8932
TCL: Running FEP window  10: Lambda1 0.5499999999999996 Lambda2 0.4999999999999996 [dLambda -0.04999999999999999]
TCL: Setting parameter firsttimestep to 0
TCL: Setting parameter alchLambda to 0.5499999999999996
Info: NONBONDED TABLE R-SQUARED SPACING: 0.0625
Info: NONBONDED TABLE SIZE: 705 POINTS
TCL: Setting parameter alchLambda2 to 0.4999999999999996
Info: NONBONDED TABLE R-SQUARED SPACING: 0.0625
Info: NONBONDED TABLE SIZE: 705 POINTS
TCL: Running for 1500000 steps
ETITLE: TS BOND ANGLE DIHED IMPRP ELECT VDW BOUNDARY MISC KINETIC TOTAL TEMP POTENTIAL TOTALAVG TEMPAVG PRESSURE GPRESSURE VOLUME PRESSAVG GPRESSAVG
ENERGY: 0 3.1332 4.3018 3.2094 0.0000 -10788.1940 1420.7943 0.0000 0.0000 1809.9098 -7546.8454 304.4587 -9356.7552 -7546.8454 304.4587 -561.8557 -488.8319 31307.5967 -561.8557 -488.8319
ENERGY: 300000 3.1309 4.8652 2.4069 0.0000 -10898.2588 1472.0397 0.0000 0.0000 1823.1959 -7592.6201 306.6936 -9415.8160 -7599.0775 302.1069 34.8959 99.4287 30532.1281 -333.3228 -271.0000
ENERGY: 600000 3.2934 6.3422 2.6053 0.0000 -10865.1370 1442.3335 0.0000 0.0000 1811.2917 -7599.2710 304.6911 -9410.5627 -7596.9927 302.2512 -509.8319 -445.0324 31006.0072 -380.4568 -327.0388
ENERGY: 900000 3.7201 3.8188 2.7877 0.0000 -10773.1691 1363.9444 0.0000 0.0000 1801.1442 -7597.7540 302.9841 -9398.8982 -7610.1199 300.5630 -446.8098 -371.3788 30223.1392 -332.5969 -270.8839
ENERGY: 1200000 3.9453 5.6231 2.2369 0.0000 -10738.4744 1391.5712 0.0000 0.0000 1890.4171 -7444.6810 318.0014 -9335.0980 -7596.6775 301.9445 -507.9318 -358.0725 30755.7568 -309.2023 -246.7052
ENERGY: 1500000 2.3154 6.2919 5.3181 0.0000 -10807.8054 1414.2719 0.0000 0.0000 1853.5491 -7526.0592 311.7995 -9379.6082 -7589.4349 302.0184 -344.2977 -234.3876 30828.9890 -229.2571 -172.8199
TCL: Running FEP window  11: Lambda1 0.4999999999999996 Lambda2 0.4499999999999996 [dLambda -0.04999999999999999]
TCL: Setting parameter firsttimestep to 0
TCL: Setting parameter alchLambda to 0.4999999999999996
Info: NONBONDED TABLE R-SQUARED SPACING: 0.0625
Info: NONBONDED TABLE SIZE: 705 POINTS
TCL: Setting parameter alchLambda2 to 0.4499999999999996
Info: NONBONDED TABLE R-SQUARED SPACING: 0.0625
Info: NONBONDED TABLE SIZE: 705 POINTS
TCL: Running for 1500000 steps
ETITLE: TS BOND ANGLE DIHED IMPRP ELECT VDW BOUNDARY MISC KINETIC TOTAL TEMP POTENTIAL TOTALAVG TEMPAVG PRESSURE GPRESSURE VOLUME PRESSAVG GPRESSAVG
ENERGY: 0 2.3154 6.2919 5.3181 0.0000 -10807.5100 1414.7459 0.0000 0.0000 1852.6497 -7526.1892 311.6482 -9378.8388 -7526.1892 311.6482 -308.0418 -236.0754 30828.9890 -308.0418 -236.0754
ENERGY: 300000 1.1001 3.6655 4.2179 0.0000 -10815.6102 1408.5102 0.0000 0.0000 1774.1250 -7623.9916 298.4390 -9398.1166 -7593.7411 304.6236 -821.7305 -716.5056 31025.5194 -289.2949 -229.9082
ENERGY: 600000 5.2776 6.5798 4.0883 0.0000 -10937.1075 1542.8538 0.0000 0.0000 1815.7084 -7562.5997 305.4341 -9378.3080 -7579.7866 303.8861 558.1704 653.5016 30656.1139 -84.7668 -19.2946
ENERGY: 900000 3.6660 3.4692 2.0850 0.0000 -10678.9128 1339.2299 0.0000 0.0000 1816.1338 -7514.3288 305.5056 -9330.4626 -7564.4032 303.2355 -967.4947 -930.5797 31332.4154 -217.9048 -145.8618
ENERGY: 1200000 6.1922 4.3365 1.8720 0.0000 -10906.2568 1472.9131 0.0000 0.0000 1822.9788 -7597.9643 306.6571 -9420.9431 -7581.8499 302.1051 -354.3095 -234.7961 31089.2007 -252.2547 -184.1538
ENERGY: 1500000 3.4666 9.4615 6.3677 0.0000 -10976.1156 1552.7849 0.0000 0.0000 1812.2820 -7591.7529 304.8577 -9404.0350 -7587.9061 302.0956 918.5706 888.2494 30095.9010 -200.0103 -140.3665
TCL: Running FEP window  12: Lambda1 0.4499999999999996 Lambda2 0.39999999999999963 [dLambda -0.04999999999999999]
TCL: Setting parameter firsttimestep to 0
TCL: Setting parameter alchLambda to 0.4499999999999996
Info: NONBONDED TABLE R-SQUARED SPACING: 0.0625
Info: NONBONDED TABLE SIZE: 705 POINTS
TCL: Setting parameter alchLambda2 to 0.39999999999999963
Info: NONBONDED TABLE R-SQUARED SPACING: 0.0625
Info: NONBONDED TABLE SIZE: 705 POINTS
TCL: Running for 1500000 steps
ETITLE: TS BOND ANGLE DIHED IMPRP ELECT VDW BOUNDARY MISC KINETIC TOTAL TEMP POTENTIAL TOTALAVG TEMPAVG PRESSURE GPRESSURE VOLUME PRESSAVG GPRESSAVG
ENERGY: 0 3.4666 9.4615 6.3677 0.0000 -10976.1163 1551.7110 0.0000 0.0000 1811.4067 -7593.7027 304.7105 -9405.1094 -7593.7027 304.7105 788.9377 874.4872 30095.9010 788.9377 874.4872
ENERGY: 300000 5.1278 8.9650 2.1789 0.0000 -10689.6096 1333.2994 0.0000 0.0000 1744.6980 -7595.3405 293.4889 -9340.0385 -7607.6255 297.6994 -981.0011 -973.0073 30864.0151 -25.5951 35.6571
ENERGY: 600000 4.0305 8.2726 2.7046 0.0000 -10871.9200 1560.6474 0.0000 0.0000 1742.9032 -7553.3616 293.1870 -9296.2648 -7598.0796 297.4681 1170.9520 1139.4426 30467.2243 110.8835 156.6169
ENERGY: 900000 2.1677 8.2434 3.0362 0.0000 -10754.6974 1401.4236 0.0000 0.0000 1785.5846 -7554.2420 300.3667 -9339.8265 -7581.8850 298.3636 -252.5253 -193.9409 30395.6705 105.1485 154.8516
ENERGY: 1200000 4.3387 6.9214 2.7712 0.0000 -10744.7551 1406.2433 0.0000 0.0000 1768.5954 -7555.8851 297.5088 -9324.4805 -7583.9981 298.0222 -547.1075 -473.7704 31329.2356 16.5142 77.8810
ENERGY: 1500000 5.5329 6.5294 4.5356 0.0000 -10644.3090 1356.0030 0.0000 0.0000 1768.5300 -7503.1780 297.4978 -9271.7080 -7568.5358 298.1084 -770.8073 -726.5639 31072.9654 -93.4991 -35.7257
TCL: Running FEP window  13: Lambda1 0.39999999999999963 Lambda2 0.34999999999999964 [dLambda -0.04999999999999999]
TCL: Setting parameter firsttimestep to 0
TCL: Setting parameter alchLambda to 0.39999999999999963
Info: NONBONDED TABLE R-SQUARED SPACING: 0.0625
Info: NONBONDED TABLE SIZE: 705 POINTS
TCL: Setting parameter alchLambda2 to 0.34999999999999964
Info: NONBONDED TABLE R-SQUARED SPACING: 0.0625
Info: NONBONDED TABLE SIZE: 705 POINTS
TCL: Running for 1500000 steps
ETITLE: TS BOND ANGLE DIHED IMPRP ELECT VDW BOUNDARY MISC KINETIC TOTAL TEMP POTENTIAL TOTALAVG TEMPAVG PRESSURE GPRESSURE VOLUME PRESSAVG GPRESSAVG
ENERGY: 0 5.5329 6.5294 4.5356 0.0000 -10644.3082 1356.3996 0.0000 0.0000 1767.6173 -7503.6933 297.3443 -9271.3105 -7503.6933 297.3443 -807.4676 -729.3973 31072.9654 -807.4676 -729.3973
ENERGY: 300000 1.2314 4.2951 3.1573 0.0000 -10838.3380 1480.0456 0.0000 0.0000 1740.4624 -7609.1463 292.7764 -9349.6087 -7554.4166 299.2935 360.1074 431.8532 30370.5389 23.3555 76.6100
ENERGY: 600000 5.1747 7.5172 5.5129 0.0000 -10781.7448 1410.8017 0.0000 0.0000 1797.4940 -7555.2443 302.3701 -9352.7383 -7546.5906 300.5591 -565.3251 -441.9502 30554.4064 -231.3066 -173.2829
ENERGY: 900000 3.9006 6.8578 3.5761 0.0000 -10818.3005 1452.1613 0.0000 0.0000 1784.5766 -7567.2280 300.1972 -9351.8047 -7548.9044 301.1133 -178.0053 -153.8052 30712.7514 -191.0086 -127.6092
ENERGY: 1200000 7.5115 2.5413 5.4447 0.0000 -10686.8012 1344.8738 0.0000 0.0000 1784.2162 -7542.2137 300.1365 -9326.4299 -7538.1516 301.6701 -1395.9913 -1324.1601 31557.7646 -311.1667 -243.1447
ENERGY: 1500000 3.6688 4.7062 3.4873 0.0000 -10718.4108 1363.6907 0.0000 0.0000 1789.4600 -7553.3978 301.0186 -9342.8578 -7544.2168 301.0245 -695.8374 -666.1210 30644.3900 -290.9818 -228.4042
TCL: Running FEP window  14: Lambda1 0.34999999999999964 Lambda2 0.29999999999999966 [dLambda -0.04999999999999999]
TCL: Setting parameter firsttimestep to 0
TCL: Setting parameter alchLambda to 0.34999999999999964
Info: NONBONDED TABLE R-SQUARED SPACING: 0.0625
Info: NONBONDED TABLE SIZE: 705 POINTS
TCL: Setting parameter alchLambda2 to 0.29999999999999966
Info: NONBONDED TABLE R-SQUARED SPACING: 0.0625
Info: NONBONDED TABLE SIZE: 705 POINTS
TCL: Running for 1500000 steps
ETITLE: TS BOND ANGLE DIHED IMPRP ELECT VDW BOUNDARY MISC KINETIC TOTAL TEMP POTENTIAL TOTALAVG TEMPAVG PRESSURE GPRESSURE VOLUME PRESSAVG GPRESSAVG
ENERGY: 0 3.6688 4.7062 3.4873 0.0000 -10718.4110 1363.8372 0.0000 0.0000 1788.5881 -7554.1234 300.8720 -9342.7115 -7554.1234 300.8720 -757.6164 -671.8332 30644.3900 -757.6164 -671.8332
ENERGY: 300000 3.0625 6.8942 5.2038 0.0000 -10936.9564 1540.5510 0.0000 0.0000 1764.4699 -7616.7750 296.8149 -9381.2449 -7559.1183 299.7844 488.2992 552.9612 30640.6326 -176.2483 -99.0862
ENERGY: 600000 3.0039 5.8953 3.7139 0.0000 -10780.1567 1412.8975 0.0000 0.0000 1775.7010 -7578.9450 298.7041 -9354.6460 -7580.2920 298.6102 -661.6651 -549.9946 30972.7780 -210.8507 -143.9060
ENERGY: 900000 3.3676 5.8538 6.1072 0.0000 -10882.0712 1502.5791 0.0000 0.0000 1716.7974 -7647.3660 288.7955 -9364.1635 -7591.2198 297.6959 237.5529 269.0421 30741.9605 -123.4725 -54.2901
ENERGY: 1200000 2.9146 6.0007 1.9324 0.0000 -10775.0175 1465.6409 0.0000 0.0000 1771.8743 -7526.6547 298.0604 -9298.5289 -7576.5962 297.2556 197.6675 238.6812 30680.4867 -2.9112 63.1300
ENERGY: 1500000 1.7783 4.4158 4.3522 0.0000 -10838.9802 1492.8471 0.0000 0.0000 1828.2637 -7507.3231 307.5461 -9335.5868 -7570.8040 298.4360 741.6441 803.6434 30101.7582 143.9324 203.4307
TCL: Running FEP window  15: Lambda1 0.29999999999999966 Lambda2 0.24999999999999967 [dLambda -0.04999999999999999]
TCL: Setting parameter firsttimestep to 0
TCL: Setting parameter alchLambda to 0.29999999999999966
Info: NONBONDED TABLE R-SQUARED SPACING: 0.0625
Info: NONBONDED TABLE SIZE: 705 POINTS
TCL: Setting parameter alchLambda2 to 0.24999999999999967
Info: NONBONDED TABLE R-SQUARED SPACING: 0.0625
Info: NONBONDED TABLE SIZE: 705 POINTS
TCL: Running for 1500000 steps
ETITLE: TS BOND ANGLE DIHED IMPRP ELECT VDW BOUNDARY MISC KINETIC TOTAL TEMP POTENTIAL TOTALAVG TEMPAVG PRESSURE GPRESSURE VOLUME PRESSAVG GPRESSAVG
ENERGY: 0 1.7783 4.4158 4.3522 0.0000 -10838.9806 1492.4325 0.0000 0.0000 1827.3543 -7508.6475 307.3931 -9336.0018 -7508.6475 307.3931 696.5264 794.3438 30101.7582 696.5264 794.3438
ENERGY: 300000 2.3340 6.1128 2.7021 0.0000 -10535.6254 1291.5934 0.0000 0.0000 1797.2504 -7435.6328 302.3291 -9232.8832 -7521.1180 303.6851 -947.8052 -872.0651 30947.8916 -342.3425 -257.1149
ENERGY: 600000 5.1228 4.8617 3.6693 0.0000 -10762.7520 1419.7736 0.0000 0.0000 1789.6784 -7539.6461 301.0554 -9329.3245 -7535.9959 301.3199 -174.0240 -27.3575 30692.2544 -151.0100 -72.9941
ENERGY: 900000 2.5626 6.4733 3.1237 0.0000 -10663.3963 1346.4125 0.0000 0.0000 1774.0254 -7530.7988 298.4223 -9304.8242 -7536.2217 301.2498 -815.6563 -832.6581 30844.7146 -154.5380 -89.8438
ENERGY: 1200000 2.3320 7.2813 5.3566 0.0000 -10966.1399 1525.0594 0.0000 0.0000 1788.8709 -7637.2397 300.9195 -9426.1106 -7543.2122 301.7726 429.3437 452.9252 30498.4504 -104.4359 -41.9649
ENERGY: 1500000 4.1914 7.2423 1.9276 0.0000 -10704.3302 1424.5098 0.0000 0.0000 1817.5666 -7448.8926 305.7467 -9266.4592 -7535.6728 301.8190 81.9138 112.7320 30490.7645 -41.0825 15.2673
TCL: Running FEP window  16: Lambda1 0.24999999999999967 Lambda2 0.19999999999999968 [dLambda -0.04999999999999999]
TCL: Setting parameter firsttimestep to 0
TCL: Setting parameter alchLambda to 0.24999999999999967
Info: NONBONDED TABLE R-SQUARED SPACING: 0.0625
Info: NONBONDED TABLE SIZE: 705 POINTS
TCL: Setting parameter alchLambda2 to 0.19999999999999968
Info: NONBONDED TABLE R-SQUARED SPACING: 0.0625
Info: NONBONDED TABLE SIZE: 705 POINTS
TCL: Running for 1500000 steps
ETITLE: TS BOND ANGLE DIHED IMPRP ELECT VDW BOUNDARY MISC KINETIC TOTAL TEMP POTENTIAL TOTALAVG TEMPAVG PRESSURE GPRESSURE VOLUME PRESSAVG GPRESSAVG
ENERGY: 0 4.1914 7.2423 1.9276 0.0000 -10704.3314 1424.5754 0.0000 0.0000 1816.6678 -7449.7270 305.5955 -9266.3948 -7449.7270 305.5955 22.8151 110.4536 30490.7645 22.8151 110.4536
ENERGY: 300000 2.2906 5.2952 5.6415 0.0000 -10845.3993 1401.5189 0.0000 0.0000 1828.3194 -7602.3337 307.5555 -9430.6530 -7521.4821 304.5378 -545.4775 -488.1578 30623.2901 -90.3252 -27.3965
ENERGY: 600000 3.7227 14.1686 2.4039 0.0000 -10603.6959 1300.7228 0.0000 0.0000 1824.5968 -7458.0810 306.9293 -9282.6778 -7532.6036 302.2300 -1239.8881 -1216.8786 31331.2904 -364.1340 -315.5032
ENERGY: 900000 2.2525 14.3740 3.1110 0.0000 -10772.1233 1449.3500 0.0000 0.0000 1758.7675 -7544.2684 295.8556 -9303.0359 -7542.4985 301.6944 254.5560 302.9111 30361.0104 -206.1479 -160.1269
ENERGY: 1200000 3.8488 10.7636 6.6785 0.0000 -10777.8320 1418.5596 0.0000 0.0000 1764.3090 -7573.6725 296.7878 -9337.9815 -7551.6379 301.9478 -379.4432 -354.4172 30765.6660 -272.5209 -220.7911
ENERGY: 1500000 2.9177 7.7812 5.1017 0.0000 -11018.9757 1597.2177 0.0000 0.0000 1789.8381 -7616.1193 301.0822 -9405.9574 -7558.4658 302.3712 935.1269 1015.1896 30255.7738 -148.0901 -87.1472
TCL: Running FEP window  17: Lambda1 0.19999999999999968 Lambda2 0.1499999999999997 [dLambda -0.04999999999999999]
TCL: Setting parameter firsttimestep to 0
TCL: Setting parameter alchLambda to 0.19999999999999968
Info: NONBONDED TABLE R-SQUARED SPACING: 0.0625
Info: NONBONDED TABLE SIZE: 705 POINTS
TCL: Setting parameter alchLambda2 to 0.1499999999999997
Info: NONBONDED TABLE R-SQUARED SPACING: 0.0625
Info: NONBONDED TABLE SIZE: 705 POINTS
TCL: Running for 1500000 steps
ETITLE: TS BOND ANGLE DIHED IMPRP ELECT VDW BOUNDARY MISC KINETIC TOTAL TEMP POTENTIAL TOTALAVG TEMPAVG PRESSURE GPRESSURE VOLUME PRESSAVG GPRESSAVG
ENERGY: 0 2.9177 7.7812 5.1017 0.0000 -11018.9766 1597.1876 0.0000 0.0000 1788.9315 -7617.0569 300.9297 -9405.9883 -7617.0569 300.9297 931.1547 1011.5902 30255.7738 931.1547 1011.5902
ENERGY: 300000 3.6085 9.3696 3.2188 0.0000 -10873.5375 1436.9365 0.0000 0.0000 1779.2063 -7641.1977 299.2938 -9420.4040 -7612.7175 299.7548 -446.5325 -374.8478 30506.3075 174.4066 252.1324
ENERGY: 600000 1.7322 4.2341 3.6578 0.0000 -10898.0292 1516.1213 0.0000 0.0000 1770.7841 -7601.4998 297.8770 -9372.2839 -7611.1249 297.7458 295.2348 419.6251 30615.7275 92.9300 167.0946
ENERGY: 900000 4.2472 11.6773 2.5182 0.0000 -10816.0345 1395.1828 0.0000 0.0000 1798.3433 -7604.0656 302.5130 -9402.4089 -7594.7762 298.6023 -262.5357 -213.5601 29883.3968 15.7477 74.9419
ENERGY: 1200000 1.7383 5.7636 5.1596 0.0000 -10941.0053 1537.9245 0.0000 0.0000 1787.7474 -7602.6719 300.7305 -9390.4193 -7585.7264 299.5366 726.5913 818.1942 30007.6818 50.4534 111.7679
ENERGY: 1500000 1.8585 4.1099 6.7202 0.0000 -10720.9329 1392.4491 0.0000 0.0000 1834.4482 -7481.3471 308.5864 -9315.7953 -7577.5306 299.9273 -52.8699 21.0408 30197.4876 51.8179 118.9230
TCL: Running FEP window  18: Lambda1 0.1499999999999997 Lambda2 0.09999999999999969 [dLambda -0.05 ]
TCL: Setting parameter firsttimestep to 0
TCL: Setting parameter alchLambda to 0.1499999999999997
Info: NONBONDED TABLE R-SQUARED SPACING: 0.0625
Info: NONBONDED TABLE SIZE: 705 POINTS
TCL: Setting parameter alchLambda2 to 0.09999999999999969
Info: NONBONDED TABLE R-SQUARED SPACING: 0.0625
Info: NONBONDED TABLE SIZE: 705 POINTS
TCL: Running for 1500000 steps
ETITLE: TS BOND ANGLE DIHED IMPRP ELECT VDW BOUNDARY MISC KINETIC TOTAL TEMP POTENTIAL TOTALAVG TEMPAVG PRESSURE GPRESSURE VOLUME PRESSAVG GPRESSAVG
ENERGY: 0 1.8585 4.1099 6.7202 0.0000 -10720.9332 1392.1189 0.0000 0.0000 1833.5754 -7482.5504 308.4396 -9316.1258 -7482.5504 308.4396 -69.2903 12.9673 30197.4876 -69.2903 12.9673
ENERGY: 300000 3.9182 11.8127 3.3463 0.0000 -10809.8250 1472.5464 0.0000 0.0000 1740.5434 -7577.6580 292.7900 -9318.2014 -7507.2182 303.6175 122.0893 167.0682 30808.7811 -106.0674 -67.2955
ENERGY: 600000 4.2799 6.0528 3.8123 0.0000 -10809.5341 1460.5715 0.0000 0.0000 1795.7534 -7539.0641 302.0773 -9334.8175 -7524.8801 301.4069 -35.7367 24.2914 30630.2695 97.8170 137.4730
ENERGY: 900000 4.0815 10.6828 4.2891 0.0000 -10720.5226 1345.1481 0.0000 0.0000 1839.4601 -7516.8610 309.4295 -9356.3211 -7532.2952 301.9921 -972.1290 -880.6276 30753.1705 -29.8885 23.6343
ENERGY: 1200000 5.3550 8.7758 4.4958 0.0000 -10821.2118 1458.1304 0.0000 0.0000 1791.4677 -7552.9872 301.3564 -9344.4549 -7551.1248 301.3463 44.6484 123.4251 30393.5315 2.2541 66.9037
ENERGY: 1500000 4.5289 7.9928 1.5484 0.0000 -10788.5862 1392.6812 0.0000 0.0000 1780.4808 -7601.3542 299.5082 -9381.8350 -7550.2989 300.9727 -716.1583 -692.2236 30656.5121 -46.4445 18.7765
TCL: Running FEP window  19: Lambda1 0.09999999999999969 Lambda2 0.049999999999999684 [dLambda -0.05 ]
TCL: Setting parameter firsttimestep to 0
TCL: Setting parameter alchLambda to 0.09999999999999969
Info: NONBONDED TABLE R-SQUARED SPACING: 0.0625
Info: NONBONDED TABLE SIZE: 705 POINTS
TCL: Setting parameter alchLambda2 to 0.049999999999999684
Info: NONBONDED TABLE R-SQUARED SPACING: 0.0625
Info: NONBONDED TABLE SIZE: 705 POINTS
TCL: Running for 1500000 steps
ETITLE: TS BOND ANGLE DIHED IMPRP ELECT VDW BOUNDARY MISC KINETIC TOTAL TEMP POTENTIAL TOTALAVG TEMPAVG PRESSURE GPRESSURE VOLUME PRESSAVG GPRESSAVG
ENERGY: 0 4.5289 7.9928 1.5484 0.0000 -10788.5856 1392.1241 0.0000 0.0000 1779.5792 -7602.8124 299.3565 -9382.3915 -7602.8124 299.3565 -782.0003 -697.8682 30656.5121 -782.0003 -697.8682
ENERGY: 300000 3.5354 9.6056 4.0698 0.0000 -10928.2969 1541.0742 0.0000 0.0000 1779.0098 -7591.0021 299.2607 -9370.0119 -7584.7907 300.0371 186.8624 270.4184 31017.8322 43.6610 96.9475
ENERGY: 600000 1.4247 5.7690 1.6991 0.0000 -10790.4819 1478.3078 0.0000 0.0000 1783.5520 -7519.7292 300.0248 -9303.2812 -7587.6161 297.3492 119.6112 207.6001 30926.6850 -155.2529 -98.9447
ENERGY: 900000 1.5887 5.5664 3.8302 0.0000 -10823.1427 1477.0157 0.0000 0.0000 1720.3238 -7614.8178 289.3887 -9335.1416 -7583.4255 296.6469 31.7907 49.6483 30531.0480 -134.9967 -79.4260
ENERGY: 1200000 2.4147 6.8953 1.8984 0.0000 -10861.4625 1453.9199 0.0000 0.0000 1777.0133 -7619.3208 298.9249 -9396.3342 -7585.3577 297.3147 -63.0728 -1.0818 30291.2255 -114.5435 -54.1095
ENERGY: 1500000 3.2899 5.5905 6.3207 0.0000 -10842.2142 1430.2031 0.0000 0.0000 1863.9627 -7532.8474 313.5513 -9396.8100 -7573.2538 298.8505 -261.1591 -236.4787 30698.4934 -156.6821 -94.0770
TCL: Running FEP window  20: Lambda1 0.049999999999999684 Lambda2 0.0    [dLambda -0.049999999999999684]
TCL: Setting parameter firsttimestep to 0
TCL: Setting parameter alchLambda to 0.049999999999999684
Info: NONBONDED TABLE R-SQUARED SPACING: 0.0625
Info: NONBONDED TABLE SIZE: 705 POINTS
TCL: Setting parameter alchLambda2 to 0.0
Info: NONBONDED TABLE R-SQUARED SPACING: 0.0625
Info: NONBONDED TABLE SIZE: 705 POINTS
TCL: Running for 1500000 steps
ETITLE: TS BOND ANGLE DIHED IMPRP ELECT VDW BOUNDARY MISC KINETIC TOTAL TEMP POTENTIAL TOTALAVG TEMPAVG PRESSURE GPRESSURE VOLUME PRESSAVG GPRESSAVG
ENERGY: 0 3.2899 5.5905 6.3207 0.0000 -10842.2153 1429.6866 0.0000 0.0000 1863.0655 -7534.2620 313.4004 -9397.3275 -7534.2620 313.4004 -311.9686 -240.7539 30698.4934 -311.9686 -240.7539
ENERGY: 300000 4.6466 10.1342 4.5891 0.0000 -10845.3416 1531.0159 0.0000 0.0000 1796.3662 -7498.5896 302.1804 -9294.9558 -7541.8408 303.9359 880.7029 971.7859 30254.9398 210.6585 252.2371
ENERGY: 600000 1.8082 7.1634 2.3210 0.0000 -10766.1887 1383.8424 0.0000 0.0000 1749.3849 -7621.6688 294.2773 -9371.0537 -7572.4107 300.9850 -796.2355 -717.0220 30874.4014 -127.3321 -73.3645
ENERGY: 900000 3.0311 8.3195 4.1435 0.0000 -10877.1506 1476.2595 0.0000 0.0000 1825.5371 -7559.8599 307.0874 -9385.3970 -7578.6088 300.0613 202.9520 222.8032 30484.9990 -93.8394 -48.1690
ENERGY: 1200000 2.4293 8.5251 2.4571 0.0000 -10891.1194 1439.6333 0.0000 0.0000 1743.6738 -7694.4009 293.3166 -9438.0747 -7581.6297 300.5149 -454.6470 -335.8372 30623.2181 -124.9331 -74.9752
ENERGY: 1500000 4.9502 8.1000 6.0535 0.0000 -10751.2553 1433.3360 0.0000 0.0000 1795.2134 -7503.6021 301.9865 -9298.8155 -7580.4875 300.6896 -74.2195 -26.8013 30784.2133 -85.3445 -32.6459
TCL: Exiting due to exit command.
