Info: SIMULATION PARAMETERS:
Info: TIMESTEP               2
Info: NUMBER OF STEPS        0
Info: STEPS PER CYCLE        10
Info: PERIODIC CELL BASIS 1  32.2154 0 0
Info: PERIODIC CELL BASIS 2  0 33.2754 0
Info: PERIODIC CELL BASIS 3  0 0 27.5995
Info: PERIODIC CELL CENTER   0 0 0
Info: WRAPPING WATERS AROUND PERIODIC BOUNDARIES ON OUTPUT.
Info: WRAPPING ALL CLUSTERS AROUND PERIODIC BOUNDARIES ON OUTPUT.
Info: FIRST LDB TIMESTEP     50
Info: LAST LDB TIMESTEP     -1
Info: HOM BACKGROUND SCALING 1
Info: PME BACKGROUND SCALING 1
Info: MIN ATOMS PER PATCH    40
Info: EMPTY PATCH LOAD       40 ATOMS
Info: VELOCITY FILE          mobley_8827942_equil.vel
Info: CENTER OF MASS MOVING INITIALLY? NO
Info: DIELECTRIC             1
Info: EXCLUDE                SCALED ONE-FOUR
Info: 1-4 ELECTROSTATICS SCALED BY 0.833333
Info: MODIFIED 1-4 VDW PARAMETERS WILL BE USED
Info: DCD FILENAME           mobley_8827942_prod.dcd
Info: DCD FREQUENCY          100000
Info: DCD FIRST STEP         100000
Info: DCD FILE WILL CONTAIN UNIT CELL DATA
Info: XST FILENAME           mobley_8827942_prod.xst
Info: XST FREQUENCY          100000
Info: NO VELOCITY DCD OUTPUT
Info: NO FORCE DCD OUTPUT
Info: OUTPUT FILENAME        mobley_8827942_prod
Info: BINARY OUTPUT FILES WILL BE USED
Info: RESTART FILENAME       mobley_8827942_prod.restart
Info: RESTART FREQUENCY      100000
Info: BINARY RESTART FILES WILL BE USED
Info: CUTOFF                 9
Info: PAIRLIST DISTANCE      11
Info: PAIRLIST SHRINK RATE   0.01
Info: PAIRLIST GROW RATE     0.01
Info: PAIRLIST TRIGGER       0.3
Info: PAIRLISTS PER CYCLE    2
Info: PAIRLISTS ENABLED
Info: MARGIN                 2
Info: HYDROGEN GROUP CUTOFF  2.5
Info: PATCH DIMENSION        15.5
Info: ENERGY OUTPUT STEPS    100000
Info: ENERGY EVALUATION STEPS    100000
Info: OUTPUT ENERGY PRECISION 4
Info: CROSSTERM ENERGY INCLUDED IN DIHEDRAL
Info: TIMING OUTPUT STEPS    1000000
Info: PRESSURE OUTPUT STEPS  100000
Info: ALCHEMICAL FEP ON
Info: FEP CURRENT LAMBDA VALUE     0
Info: FEP COMPARISON LAMBDA VALUE  0.05
Info: FEP INTRA-ALCHEMICAL NON-BONDED INTERACTIONS WILL BE RETAINED
Info: FEP INTRA-ALCHEMICAL BONDED INTERACTIONS WILL BE RETAINED
Info: FEP VDW SHIFTING COEFFICIENT 5
Info: FEP ELEC. ACTIVE FOR ANNIHILATED PARTICLES BETWEEN LAMBDA = 0 AND LAMBDA = 0.5
Info: FEP ELEC. ACTIVE FOR EXNIHILATED PARTICLES BETWEEN LAMBDA = 0.5 AND LAMBDA = 1
Info: FEP VDW ACTIVE FOR ANNIHILATED PARTICLES BETWEEN LAMBDA = 0 AND LAMBDA = 1
Info: FEP VDW ACTIVE FOR EXNIHILATED PARTICLES BETWEEN LAMBDA = 0 AND LAMBDA = 1
Info: FEP BOND ACTIVE FOR ANNIHILATED PARTICLES BETWEEN LAMBDA = 1 AND LAMBDA = 1
Info: FEP BOND ACTIVE FOR EXNIHILATED PARTICLES BETWEEN LAMBDA = 0 AND LAMBDA = 0
Info: LANGEVIN DYNAMICS ACTIVE
Info: LANGEVIN TEMPERATURE   300
Info: LANGEVIN USING BBK INTEGRATOR
Info: LANGEVIN DAMPING COEFFICIENT IS 1 INVERSE PS
Info: LANGEVIN DYNAMICS APPLIED TO HYDROGENS
Info: LANGEVIN PISTON PRESSURE CONTROL ACTIVE
Info:        TARGET PRESSURE IS 1.01325 BAR
Info:     OSCILLATION PERIOD IS 50 FS
Info:             DECAY TIME IS 25 FS
Info:     PISTON TEMPERATURE IS 300 K
Info:       PRESSURE CONTROL IS GROUP-BASED
Info:    INITIAL STRAIN RATE IS 0.00041435 0.00041435 0.00041435
Info:       CELL FLUCTUATION IS ISOTROPIC
Info: PARTICLE MESH EWALD (PME) ACTIVE
Info: PME TOLERANCE               1e-06
Info: PME EWALD COEFFICIENT       0.348832
Info: PME INTERPOLATION ORDER     4
Info: PME GRID DIMENSIONS         36 36 28
Info: PME MAXIMUM GRID SPACING    1
Info: PME CALCULATION WILL BE PERFORMED ON GPU
Info: FULL ELECTROSTATIC EVALUATION FREQUENCY      2
Info: USING VERLET I (r-RESPA) MTS SCHEME.
Info: C1 SPLITTING OF LONG RANGE ELECTROSTATICS
Info: PLACING ATOMS IN PATCHES BY HYDROGEN GROUPS
Info: RIGID BONDS TO HYDROGEN : ALL
Info:         ERROR TOLERANCE : 1e-08
Info:          MAX ITERATIONS : 100
Info: RIGID WATER USING SETTLE ALGORITHM
Info: RANDOM NUMBER SEED     1743637740
Info: USE HYDROGEN BONDS?    NO
Info: Using AMBER format force field!
Info: AMBER PARM FILE        mobley_8827942.prmtop
Info: COORDINATE PDB         mobley_8827942.pdb
Info: Exclusions will be read from PARM file!
Info: SCNB (VDW SCALING)     2
Info: USING ARITHMETIC MEAN TO COMBINE L-J SIGMA PARAMETERS
Info: BINARY COORDINATES     mobley_8827942_equil.coor
Info: SUMMARY OF PARAMETERS:
Info: 6 BONDS
Info: 5 ANGLES
Info:   5 HARMONIC
Info:   0 COSINE-BASED
Info: 3 DIHEDRAL
Info: 0 IMPROPER
Info: 0 CROSSTERM
Info: 0 VDW
Info: 21 VDW_PAIRS
Info: 0 NBTHOLE_PAIRS
Info: To read alchdata from file: mobley_8827942.pdb
Info: To read alchflag data from column: 5
Info: STRUCTURE SUMMARY:
Info: 2908 ATOMS
Info: 2910 BONDS
Info: 38 ANGLES
Info: 68 DIHEDRALS
Info: 0 IMPROPERS
Info: 0 CROSSTERMS
Info: 2995 EXCLUSIONS
Info: 2891 RIGID BONDS
Info: ALCH: 0 ATOMS TO DISAPPEAR IN FINAL STATE
Info: ALCH: 22 ATOMS TO APPEAR IN FINAL STATE
Info: 5833 DEGREES OF FREEDOM
Info: 979 HYDROGEN GROUPS
Info: 3 ATOMS IN LARGEST HYDROGEN GROUP
Info: 979 MIGRATION GROUPS
Info: 3 ATOMS IN LARGEST MIGRATION GROUP
Info: TOTAL MASS = 17618.9 amu
Info: TOTAL CHARGE = 0.000100013 e
Info: MASS DENSITY = 0.988891 g/cm^3
Info: ATOM DENSITY = 0.0982889 atoms/A^3
Info: ADDED 0 IMPLICIT EXCLUSIONS
Info: NONBONDED TABLE R-SQUARED SPACING: 0.0625
Info: NONBONDED TABLE SIZE: 705 POINTS
Info: REDUCING NUMBER OF PATCHES TO IMPROVE LOAD BALANCE
Info: REMOVING COM VELOCITY 0.0947135 0.0243012 0.0749203
Info: Use 3D box decompostion in PME FFT.
Info: Updated CUDA force table with 4096 elements.
Info: Updated CUDA LJ table with 6 x 6 elements.
Info: Found 24 unique exclusion lists needing 72 bytes
TCL: Running for 1500000 steps
ETITLE: TS BOND ANGLE DIHED IMPRP ELECT VDW BOUNDARY MISC KINETIC TOTAL TEMP POTENTIAL TOTALAVG TEMPAVG PRESSURE GPRESSURE VOLUME PRESSAVG GPRESSAVG
ENERGY: 0 10.2067 3.4496 7.3332 0.0000 -10591.9498 1423.3474 0.0000 0.0000 1697.3930 -7450.2199 292.8740 -9147.6129 -7450.2199 292.8740 -344.8874 -256.2808 29586.2380 -344.8874 -256.2808
ENERGY: 300000 8.5949 3.4499 5.0406 0.0000 -10378.4611 1321.9506 0.0000 0.0000 1721.7573 -7317.6677 297.0779 -9039.4251 -7328.6831 298.2925 -913.4435 -811.1603 29778.4762 -500.8189 -411.4821
ENERGY: 600000 6.2897 5.7257 5.5578 0.0000 -10480.7164 1389.4420 0.0000 0.0000 1748.6829 -7325.0184 301.7237 -9073.7012 -7327.1945 299.6094 -382.5949 -303.1560 29755.9279 -191.1137 -108.5323
ENERGY: 900000 6.5384 5.8289 4.8045 0.0000 -10445.7381 1391.2038 0.0000 0.0000 1735.5954 -7301.7672 299.4656 -9037.3625 -7325.4148 300.4710 -410.5709 -263.3377 29453.8118 -174.6241 -103.3376
ENERGY: 1200000 10.3839 3.6473 7.2139 0.0000 -10649.5068 1476.8746 0.0000 0.0000 1722.6757 -7428.7114 297.2364 -9151.3871 -7332.5011 300.5680 -259.1072 -234.2445 29672.3104 -187.0234 -122.8634
ENERGY: 1500000 8.1989 5.7149 5.2034 0.0000 -10519.8365 1421.7604 0.0000 0.0000 1737.5754 -7341.3835 299.8072 -9078.9589 -7325.5624 300.9700 -357.5005 -290.1143 29743.0461 -281.1371 -214.2496
TCL: Running FEP window   2: Lambda1 0.05   Lambda2 0.1    [dLambda 0.05  ]
TCL: Setting parameter firsttimestep to 0
TCL: Setting parameter alchLambda to 0.05
Info: NONBONDED TABLE R-SQUARED SPACING: 0.0625
Info: NONBONDED TABLE SIZE: 705 POINTS
TCL: Setting parameter alchLambda2 to 0.1
Info: NONBONDED TABLE R-SQUARED SPACING: 0.0625
Info: NONBONDED TABLE SIZE: 705 POINTS
TCL: Running for 1500000 steps
ETITLE: TS BOND ANGLE DIHED IMPRP ELECT VDW BOUNDARY MISC KINETIC TOTAL TEMP POTENTIAL TOTALAVG TEMPAVG PRESSURE GPRESSURE VOLUME PRESSAVG GPRESSAVG
ENERGY: 0 8.1989 5.7149 5.2034 0.0000 -10519.8363 1431.5678 0.0000 0.0000 1736.7066 -7332.4447 299.6573 -9069.1513 -7332.4447 299.6573 -346.7778 -273.0978 29743.0461 -346.7778 -273.0978
ENERGY: 300000 6.8702 7.9555 8.7794 0.0000 -10408.6788 1372.1384 0.0000 0.0000 1705.7622 -7307.1730 294.3180 -9012.9352 -7310.5012 299.1083 -480.3192 -454.7550 30358.7929 -444.0904 -402.9310
ENERGY: 600000 5.3709 5.3116 6.5022 0.0000 -10450.8230 1375.8315 0.0000 0.0000 1711.4640 -7346.3427 295.3019 -9057.8068 -7331.0110 299.2721 -406.1192 -304.8457 29593.7118 -368.1178 -317.3317
ENERGY: 900000 5.6442 4.9891 3.7192 0.0000 -10527.8293 1458.8656 0.0000 0.0000 1722.5704 -7332.0408 297.2182 -9054.6112 -7329.3508 298.8196 109.2681 204.6947 29930.5194 -210.5722 -149.2216
ENERGY: 1200000 5.1765 4.2612 5.9550 0.0000 -10649.1924 1488.0105 0.0000 0.0000 1669.7492 -7476.0400 288.1042 -9145.7892 -7334.1325 299.3836 237.4718 295.6873 29279.7161 -94.3880 -33.8896
ENERGY: 1500000 4.2923 6.5907 6.0887 0.0000 -10449.4021 1421.1615 0.0000 0.0000 1780.2335 -7231.0354 307.1676 -9011.2690 -7331.2014 299.7531 -62.4518 9.9111 30293.2420 -61.6958 -2.0983
TCL: Running FEP window   3: Lambda1 0.1    Lambda2 0.15000000000000002 [dLambda 0.05000000000000002]
TCL: Setting parameter firsttimestep to 0
TCL: Setting parameter alchLambda to 0.1
Info: NONBONDED TABLE R-SQUARED SPACING: 0.0625
Info: NONBONDED TABLE SIZE: 705 POINTS
TCL: Setting parameter alchLambda2 to 0.15000000000000002
Info: NONBONDED TABLE R-SQUARED SPACING: 0.0625
Info: NONBONDED TABLE SIZE: 705 POINTS
TCL: Running for 1500000 steps
ETITLE: TS BOND ANGLE DIHED IMPRP ELECT VDW BOUNDARY MISC KINETIC TOTAL TEMP POTENTIAL TOTALAVG TEMPAVG PRESSURE GPRESSURE VOLUME PRESSAVG GPRESSAVG
ENERGY: 0 4.2923 6.5907 6.0887 0.0000 -10449.4022 1422.9287 0.0000 0.0000 1779.3612 -7230.1406 307.0171 -9009.5018 -7230.1406 307.0171 -52.3330 20.9732 30293.2420 -52.3330 20.9732
ENERGY: 300000 3.6980 6.4112 7.3599 0.0000 -10458.4356 1444.1352 0.0000 0.0000 1749.0736 -7247.7577 301.7912 -8996.8314 -7273.2424 301.4692 692.5459 669.3104 29506.7350 284.2554 336.0087
ENERGY: 600000 7.8522 4.2057 8.2489 0.0000 -10345.9947 1375.8580 0.0000 0.0000 1775.2123 -7174.6175 306.3012 -8949.8298 -7259.0824 303.7092 -190.5535 -137.3697 29738.8613 281.3006 320.9042
ENERGY: 900000 7.0073 4.5241 5.6441 0.0000 -10476.8214 1417.4617 0.0000 0.0000 1766.5608 -7275.6233 304.8085 -9042.1842 -7275.3262 302.1117 58.4522 70.1512 29634.4665 92.2207 131.5667
ENERGY: 1200000 5.1530 3.7593 4.9964 0.0000 -10616.2893 1401.1814 0.0000 0.0000 1707.1200 -7494.0791 294.5523 -9201.1992 -7299.2112 302.0249 -517.0342 -477.5377 29559.8302 -47.3714 -5.6127
ENERGY: 1500000 6.3865 4.2040 5.8663 0.0000 -10569.0050 1484.9143 0.0000 0.0000 1741.1125 -7326.5213 300.4175 -9067.6338 -7304.0631 301.7328 324.3249 391.0722 30119.6629 -133.0452 -81.4799
TCL: Running FEP window   4: Lambda1 0.15000000000000002 Lambda2 0.2    [dLambda 0.04999999999999999]
TCL: Setting parameter firsttimestep to 0
TCL: Setting parameter alchLambda to 0.15000000000000002
Info: NONBONDED TABLE R-SQUARED SPACING: 0.0625
Info: NONBONDED TABLE SIZE: 705 POINTS
TCL: Setting parameter alchLambda2 to 0.2
Info: NONBONDED TABLE R-SQUARED SPACING: 0.0625
Info: NONBONDED TABLE SIZE: 705 POINTS
TCL: Running for 1500000 steps
ETITLE: TS BOND ANGLE DIHED IMPRP ELECT VDW BOUNDARY MISC KINETIC TOTAL TEMP POTENTIAL TOTALAVG TEMPAVG PRESSURE GPRESSURE VOLUME PRESSAVG GPRESSAVG
ENERGY: 0 6.3865 4.2040 5.8663 0.0000 -10569.0051 1484.9144 0.0000 0.0000 1740.2719 -7327.3619 300.2725 -9067.6339 -7327.3619 300.2725 308.0452 396.7681 30119.6629 308.0452 396.7681
ENERGY: 300000 5.2415 6.1579 2.9282 0.0000 -10407.6898 1351.6340 0.0000 0.0000 1763.1043 -7278.6240 304.2120 -9041.7283 -7277.5865 301.9911 -476.9163 -464.2849 30468.5455 -176.9218 -107.3693
ENERGY: 600000 6.3564 7.0493 4.0608 0.0000 -10474.2329 1379.9250 0.0000 0.0000 1691.6050 -7385.2366 291.8753 -9076.8415 -7305.2695 298.7619 -656.6270 -561.8826 29923.6770 -293.9550 -211.2282
ENERGY: 900000 4.5049 5.9588 7.2657 0.0000 -10711.6361 1511.4527 0.0000 0.0000 1699.0892 -7483.3649 293.1667 -9182.4540 -7325.0374 298.7726 468.8944 512.0319 29658.3788 -197.8591 -123.6351
ENERGY: 1200000 8.9407 5.7368 7.0050 0.0000 -10497.3421 1407.1736 0.0000 0.0000 1705.1690 -7363.3170 294.2157 -9068.4860 -7327.2863 298.4048 -453.3177 -421.6168 30160.9124 -44.4714 19.9420
ENERGY: 1500000 2.5469 5.4151 5.1210 0.0000 -10412.9899 1395.8335 0.0000 0.0000 1778.6227 -7225.4507 306.8896 -9004.0734 -7329.1904 298.1999 -32.3419 9.9881 30133.2177 -30.0489 36.4030
TCL: Running FEP window   5: Lambda1 0.2    Lambda2 0.25   [dLambda 0.04999999999999999]
TCL: Setting parameter firsttimestep to 0
TCL: Setting parameter alchLambda to 0.2
Info: NONBONDED TABLE R-SQUARED SPACING: 0.0625
Info: NONBONDED TABLE SIZE: 705 POINTS
TCL: Setting parameter alchLambda2 to 0.25
Info: NONBONDED TABLE R-SQUARED SPACING: 0.0625
Info: NONBONDED TABLE SIZE: 705 POINTS
TCL: Running for 1500000 steps
ETITLE: TS BOND ANGLE DIHED IMPRP ELECT VDW BOUNDARY MISC KINETIC TOTAL TEMP POTENTIAL TOTALAVG TEMPAVG PRESSURE GPRESSURE VOLUME PRESSAVG GPRESSAVG
ENERGY: 0 2.5469 5.4151 5.1210 0.0000 -10412.9888 1396.1834 0.0000 0.0000 1777.7540 -7225.9684 306.7398 -9003.7224 -7225.9684 306.7398 -76.8355 16.8359 30133.2177 -76.8355 16.8359
ENERGY: 300000 8.1156 2.9193 6.2959 0.0000 -10570.0348 1373.0956 0.0000 0.0000 1779.3077 -7400.3009 307.0078 -9179.6085 -7346.6174 299.5782 -853.4976 -866.4696 29995.7124 -240.5586 -185.2278
ENERGY: 600000 5.0982 8.3918 3.5777 0.0000 -10508.7712 1458.5733 0.0000 0.0000 1683.4600 -7349.6702 290.4699 -9033.1302 -7344.2325 297.9541 406.5771 456.5359 30070.9932 1.9299 58.8619
ENERGY: 900000 5.4930 6.7016 8.6764 0.0000 -10601.6794 1507.6501 0.0000 0.0000 1804.0064 -7269.1518 311.2694 -9073.1582 -7333.4237 300.9987 1193.4009 1253.3474 29208.8048 -17.1474 58.5367
ENERGY: 1200000 6.2938 4.7794 11.1443 0.0000 -10452.7729 1446.4200 0.0000 0.0000 1768.8384 -7215.2970 305.2014 -8984.1354 -7315.7169 301.4319 655.9425 728.5592 29560.4168 64.1937 140.9532
ENERGY: 1500000 8.2435 5.8889 3.3525 0.0000 -10542.9717 1456.1205 0.0000 0.0000 1735.0175 -7334.3489 299.3659 -9069.3663 -7308.3470 301.3920 -57.5670 -0.5432 30075.5819 -1.7020 67.9525
TCL: Running FEP window   6: Lambda1 0.25   Lambda2 0.3    [dLambda 0.04999999999999999]
TCL: Setting parameter firsttimestep to 0
TCL: Setting parameter alchLambda to 0.25
Info: NONBONDED TABLE R-SQUARED SPACING: 0.0625
Info: NONBONDED TABLE SIZE: 705 POINTS
TCL: Setting parameter alchLambda2 to 0.3
Info: NONBONDED TABLE R-SQUARED SPACING: 0.0625
Info: NONBONDED TABLE SIZE: 705 POINTS
TCL: Running for 1500000 steps
ETITLE: TS BOND ANGLE DIHED IMPRP ELECT VDW BOUNDARY MISC KINETIC TOTAL TEMP POTENTIAL TOTALAVG TEMPAVG PRESSURE GPRESSURE VOLUME PRESSAVG GPRESSAVG
ENERGY: 0 8.2435 5.8889 3.3525 0.0000 -10542.9717 1455.3198 0.0000 0.0000 1734.1311 -7336.0360 299.2129 -9070.1671 -7336.0360 299.2129 -70.5563 1.8062 30075.5819 -70.5563 1.8062
ENERGY: 300000 8.6034 4.7492 4.9038 0.0000 -10602.3188 1496.7517 0.0000 0.0000 1649.1327 -7438.1780 284.5470 -9087.3107 -7340.3392 300.0791 389.7935 477.9664 29530.6854 146.7857 229.0023
ENERGY: 600000 10.8967 5.7576 7.3186 0.0000 -10220.1814 1195.7648 0.0000 0.0000 1700.9905 -7299.4532 293.4947 -9000.4437 -7331.9756 297.3708 -2290.6368 -2257.3929 30762.2707 -23.2008 39.6598
ENERGY: 900000 7.9790 5.9923 3.5674 0.0000 -10566.1532 1462.7528 0.0000 0.0000 1827.1767 -7258.6850 315.2673 -9085.8617 -7316.8191 300.0348 296.6783 415.8727 29807.9603 -99.0198 -29.1581
ENERGY: 1200000 5.5503 3.7692 5.0925 0.0000 -10439.3820 1370.5977 0.0000 0.0000 1778.1502 -7276.2221 306.8081 -9054.3723 -7306.6906 301.0054 -139.8344 -70.8600 29633.6956 -73.9033 -6.9004
ENERGY: 1500000 5.5766 3.6373 7.1925 0.0000 -10480.3464 1462.1074 0.0000 0.0000 1756.7333 -7245.0993 303.1128 -9001.8326 -7299.4664 300.7496 452.8974 573.8010 29740.1568 10.3801 79.7140
TCL: Running FEP window   7: Lambda1 0.3    Lambda2 0.35   [dLambda 0.04999999999999999]
TCL: Setting parameter firsttimestep to 0
TCL: Setting parameter alchLambda to 0.3
Info: NONBONDED TABLE R-SQUARED SPACING: 0.0625
Info: NONBONDED TABLE SIZE: 705 POINTS
TCL: Setting parameter alchLambda2 to 0.35
Info: NONBONDED TABLE R-SQUARED SPACING: 0.0625
Info: NONBONDED TABLE SIZE: 705 POINTS
TCL: Running for 1500000 steps
ETITLE: TS BOND ANGLE DIHED IMPRP ELECT VDW BOUNDARY MISC KINETIC TOTAL TEMP POTENTIAL TOTALAVG TEMPAVG PRESSURE GPRESSURE VOLUME PRESSAVG GPRESSAVG
ENERGY: 0 5.5766 3.6373 7.1925 0.0000 -10480.3464 1462.0993 0.0000 0.0000 1755.8658 -7245.9749 302.9631 -9001.8407 -7245.9749 302.9631 498.4540 581.6053 29740.1568 498.4540 581.6053
ENERGY: 300000 6.8798 3.8113 5.7148 0.0000 -10424.5470 1384.2081 0.0000 0.0000 1733.3091 -7290.6239 299.0711 -9023.9329 -7292.7814 300.6082 -122.9748 -26.1360 30163.6802 -5.5590 48.0172
ENERGY: 600000 4.7020 5.8089 9.0071 0.0000 -10546.4446 1452.5380 0.0000 0.0000 1681.7287 -7392.6599 290.1712 -9074.3886 -7322.6381 298.5207 197.0316 211.9738 29706.4132 -104.8310 -54.7701
ENERGY: 900000 7.8504 3.0865 4.2520 0.0000 -10448.6276 1327.8020 0.0000 0.0000 1721.3426 -7384.2941 297.0064 -9105.6367 -7329.4140 299.0845 -970.6982 -928.2534 30102.9726 -74.4024 -26.6360
ENERGY: 1200000 6.0437 5.4142 3.5701 0.0000 -10450.5310 1365.6872 0.0000 0.0000 1677.0457 -7392.7701 289.3632 -9069.8158 -7335.0226 298.0332 -761.4624 -715.4485 29876.1275 -64.6315 -5.7368
ENERGY: 1500000 7.1808 5.5924 6.1741 0.0000 -10519.5036 1394.2403 0.0000 0.0000 1736.4038 -7369.9122 299.6051 -9106.3160 -7334.6622 298.3112 -222.9664 -145.4055 29351.7778 -19.8738 42.6718
TCL: Running FEP window   8: Lambda1 0.35   Lambda2 0.39999999999999997 [dLambda 0.04999999999999999]
TCL: Setting parameter firsttimestep to 0
TCL: Setting parameter alchLambda to 0.35
Info: NONBONDED TABLE R-SQUARED SPACING: 0.0625
Info: NONBONDED TABLE SIZE: 705 POINTS
TCL: Setting parameter alchLambda2 to 0.39999999999999997
Info: NONBONDED TABLE R-SQUARED SPACING: 0.0625
Info: NONBONDED TABLE SIZE: 705 POINTS
TCL: Running for 1500000 steps
ETITLE: TS BOND ANGLE DIHED IMPRP ELECT VDW BOUNDARY MISC KINETIC TOTAL TEMP POTENTIAL TOTALAVG TEMPAVG PRESSURE GPRESSURE VOLUME PRESSAVG GPRESSAVG
ENERGY: 0 7.1808 5.5924 6.1741 0.0000 -10519.5045 1393.7574 0.0000 0.0000 1735.5528 -7371.2470 299.4582 -9106.7998 -7371.2470 299.4582 -212.1459 -140.9199 29351.7778 -212.1459 -140.9199
ENERGY: 300000 11.6655 6.9454 8.7902 0.0000 -10595.2537 1412.8457 0.0000 0.0000 1768.9485 -7386.0585 305.2204 -9155.0070 -7367.3245 302.3160 -395.3473 -330.4733 29863.6070 115.8611 160.0327
ENERGY: 600000 4.3714 6.3525 6.1396 0.0000 -10535.7138 1479.7881 0.0000 0.0000 1727.0320 -7312.0302 297.9880 -9039.0622 -7357.0170 300.9391 400.1893 453.3134 29801.8792 176.1617 228.2111
ENERGY: 900000 8.6424 3.6998 9.0166 0.0000 -10596.5016 1430.1095 0.0000 0.0000 1726.7064 -7418.3270 297.9318 -9145.0334 -7370.7000 299.7787 -142.6913 -95.4257 29852.7780 -54.5342 7.1017
ENERGY: 1200000 12.4311 8.1730 7.3989 0.0000 -10463.9645 1379.1394 0.0000 0.0000 1751.0155 -7305.8067 302.1262 -9056.8221 -7366.4477 299.3682 -410.6700 -310.1859 30160.1507 -55.1791 9.0438
ENERGY: 1500000 7.4605 4.3423 5.5858 0.0000 -10398.8080 1345.8328 0.0000 0.0000 1765.2045 -7270.3823 304.5744 -9035.5867 -7351.1407 300.6040 -324.3831 -252.8213 29795.7453 -39.1720 20.5695
TCL: Running FEP window   9: Lambda1 0.39999999999999997 Lambda2 0.44999999999999996 [dLambda 0.04999999999999999]
TCL: Setting parameter firsttimestep to 0
TCL: Setting parameter alchLambda to 0.39999999999999997
Info: NONBONDED TABLE R-SQUARED SPACING: 0.0625
Info: NONBONDED TABLE SIZE: 705 POINTS
TCL: Setting parameter alchLambda2 to 0.44999999999999996
Info: NONBONDED TABLE R-SQUARED SPACING: 0.0625
Info: NONBONDED TABLE SIZE: 705 POINTS
TCL: Running for 1500000 steps
ETITLE: TS BOND ANGLE DIHED IMPRP ELECT VDW BOUNDARY MISC KINETIC TOTAL TEMP POTENTIAL TOTALAVG TEMPAVG PRESSURE GPRESSURE VOLUME PRESSAVG GPRESSAVG
ENERGY: 0 7.4605 4.3423 5.5858 0.0000 -10398.8092 1346.2990 0.0000 0.0000 1764.3498 -7270.7719 304.4269 -9035.1217 -7270.7719 304.4269 -341.7347 -237.9000 29795.7453 -341.7347 -237.9000
ENERGY: 300000 3.2951 2.9845 7.7529 0.0000 -10719.5585 1566.1445 0.0000 0.0000 1734.5179 -7404.8636 299.2797 -9139.3815 -7323.8140 302.6733 1028.7845 1062.7209 29728.8345 362.5683 411.1960
ENERGY: 600000 7.6531 4.0670 6.9310 0.0000 -10448.1332 1399.4989 0.0000 0.0000 1748.8022 -7281.1811 301.7443 -9029.9833 -7324.2729 300.6898 -133.1625 -54.3768 29868.6638 193.5692 250.4699
ENERGY: 900000 5.4695 7.5555 6.2158 0.0000 -10416.8177 1352.4119 0.0000 0.0000 1790.2944 -7254.8706 308.9035 -9045.1650 -7315.7055 300.7254 -539.3796 -486.4547 30434.4387 34.5478 84.3633
ENERGY: 1200000 6.0883 5.0416 7.8020 0.0000 -10354.6815 1296.3030 0.0000 0.0000 1747.7560 -7291.6906 301.5638 -9039.4466 -7304.5277 300.8937 -919.9374 -872.8997 29774.5966 62.4996 113.7400
ENERGY: 1500000 8.3070 11.6007 5.8691 0.0000 -10308.5790 1342.6436 0.0000 0.0000 1735.5380 -7204.6206 299.4557 -8940.1586 -7305.3417 300.6894 -293.2639 -246.7740 30017.9778 75.5435 129.4330
TCL: Running FEP window  10: Lambda1 0.44999999999999996 Lambda2 0.49999999999999994 [dLambda 0.04999999999999999]
TCL: Setting parameter firsttimestep to 0
TCL: Setting parameter alchLambda to 0.44999999999999996
Info: NONBONDED TABLE R-SQUARED SPACING: 0.0625
Info: NONBONDED TABLE SIZE: 705 POINTS
TCL: Setting parameter alchLambda2 to 0.49999999999999994
Info: NONBONDED TABLE R-SQUARED SPACING: 0.0625
Info: NONBONDED TABLE SIZE: 705 POINTS
TCL: Running for 1500000 steps
ETITLE: TS BOND ANGLE DIHED IMPRP ELECT VDW BOUNDARY MISC KINETIC TOTAL TEMP POTENTIAL TOTALAVG TEMPAVG PRESSURE GPRESSURE VOLUME PRESSAVG GPRESSAVG
ENERGY: 0 8.3070 11.6007 5.8691 0.0000 -10308.5795 1342.0804 0.0000 0.0000 1734.6902 -7206.0322 299.3094 -8940.7224 -7206.0322 299.3094 -306.8918 -242.8274 30017.9778 -306.8918 -242.8274
ENERGY: 300000 5.7517 4.4537 3.3050 0.0000 -10579.6532 1418.0284 0.0000 0.0000 1759.8555 -7388.2590 303.6515 -9148.1145 -7289.7024 303.7978 -281.2449 -251.2943 29806.6959 -272.1912 -210.8967
ENERGY: 600000 4.0809 11.2200 6.2640 0.0000 -10536.4619 1412.9422 0.0000 0.0000 1738.3846 -7363.5703 299.9468 -9101.9549 -7310.5813 303.0068 29.5998 97.2035 29428.8310 -256.0289 -199.7540
ENERGY: 900000 6.8748 5.9982 7.3445 0.0000 -10530.5728 1459.9203 0.0000 0.0000 1687.7793 -7362.6557 291.2152 -9050.4350 -7312.9237 302.1619 143.0982 246.7684 29928.5473 -303.7423 -234.3490
ENERGY: 1200000 9.1807 4.2424 8.3739 0.0000 -10496.3256 1421.7094 0.0000 0.0000 1743.5915 -7309.2278 300.8453 -9052.8193 -7316.6625 301.8214 85.2069 189.9965 29720.4020 -305.9384 -230.8660
ENERGY: 1500000 7.6291 5.0935 4.5275 0.0000 -10403.5081 1404.2125 0.0000 0.0000 1791.9800 -7190.0656 309.1944 -8982.0455 -7313.3565 302.1840 -531.1483 -376.5100 31012.0549 -295.6323 -212.9954
TCL: Running FEP window  11: Lambda1 0.49999999999999994 Lambda2 0.5499999999999999 [dLambda 0.04999999999999999]
TCL: Setting parameter firsttimestep to 0
TCL: Setting parameter alchLambda to 0.49999999999999994
Info: NONBONDED TABLE R-SQUARED SPACING: 0.0625
Info: NONBONDED TABLE SIZE: 705 POINTS
TCL: Setting parameter alchLambda2 to 0.5499999999999999
Info: NONBONDED TABLE R-SQUARED SPACING: 0.0625
Info: NONBONDED TABLE SIZE: 705 POINTS
TCL: Running for 1500000 steps
ETITLE: TS BOND ANGLE DIHED IMPRP ELECT VDW BOUNDARY MISC KINETIC TOTAL TEMP POTENTIAL TOTALAVG TEMPAVG PRESSURE GPRESSURE VOLUME PRESSAVG GPRESSAVG
ENERGY: 0 7.6291 5.0935 4.5276 0.0000 -10403.5098 1404.9648 0.0000 0.0000 1791.1121 -7190.1828 309.0446 -8981.2949 -7190.1828 309.0446 -435.7160 -358.4233 31012.0549 -435.7160 -358.4233
ENERGY: 300000 3.5381 5.8309 4.8033 0.0000 -10613.6940 1543.3900 0.0000 0.0000 1767.9441 -7288.1876 305.0471 -9056.1317 -7232.5586 304.0489 938.2783 987.0612 30151.6776 -132.4476 -57.9749
ENERGY: 600000 9.4695 6.1149 6.2277 0.0000 -10485.5517 1429.1469 0.0000 0.0000 1777.2624 -7257.3303 306.6549 -9034.5927 -7262.1779 303.9690 1.7620 61.9435 29755.9352 43.0869 108.9687
ENERGY: 900000 6.0539 4.5081 6.6510 0.0000 -10451.4355 1445.2752 0.0000 0.0000 1778.7290 -7210.2183 306.9080 -8988.9474 -7268.2984 303.2298 469.7441 561.7044 29898.3058 13.9555 85.8677
ENERGY: 1200000 11.2504 2.0912 9.6335 0.0000 -10455.5011 1396.3766 0.0000 0.0000 1738.6214 -7297.5279 299.9877 -9036.1494 -7262.3425 303.2471 34.4395 53.1019 29882.3266 34.3695 95.2284
ENERGY: 1500000 9.7577 5.6978 2.4250 0.0000 -10550.2580 1469.0761 0.0000 0.0000 1726.6680 -7336.6334 297.9252 -9063.3014 -7274.6586 302.5670 152.9084 205.3236 30167.1858 18.6022 78.2258
TCL: Running FEP window  12: Lambda1 0.5499999999999999 Lambda2 0.6    [dLambda 0.050000000000000044]
TCL: Setting parameter firsttimestep to 0
TCL: Setting parameter alchLambda to 0.5499999999999999
Info: NONBONDED TABLE R-SQUARED SPACING: 0.0625
Info: NONBONDED TABLE SIZE: 705 POINTS
TCL: Setting parameter alchLambda2 to 0.6
Info: NONBONDED TABLE R-SQUARED SPACING: 0.0625
Info: NONBONDED TABLE SIZE: 705 POINTS
TCL: Running for 1500000 steps
ETITLE: TS BOND ANGLE DIHED IMPRP ELECT VDW BOUNDARY MISC KINETIC TOTAL TEMP POTENTIAL TOTALAVG TEMPAVG PRESSURE GPRESSURE VOLUME PRESSAVG GPRESSAVG
ENERGY: 0 9.7577 5.6978 2.4250 0.0000 -10549.9958 1469.4913 0.0000 0.0000 1725.7981 -7336.8259 297.7751 -9062.6240 -7336.8259 297.7751 131.8162 220.2799 30167.1858 131.8162 220.2799
ENERGY: 300000 6.2049 2.8275 3.0085 0.0000 -10529.2357 1444.8832 0.0000 0.0000 1780.2402 -7292.0715 307.1687 -9072.3117 -7344.2773 300.5754 320.0645 364.1041 29877.2942 230.2089 322.2667
ENERGY: 600000 5.3470 4.4304 5.8248 0.0000 -10544.3339 1444.2871 0.0000 0.0000 1773.6742 -7310.7704 306.0358 -9084.4446 -7318.8601 303.8239 360.0389 469.5996 29640.4096 197.7490 276.3009
ENERGY: 900000 5.8496 5.1200 4.8259 0.0000 -10475.3751 1388.0282 0.0000 0.0000 1696.4672 -7375.0842 292.7143 -9071.5514 -7319.5151 302.6295 -343.5091 -247.2699 29979.0260 146.7729 221.9468
ENERGY: 1200000 7.1762 3.3629 3.4055 0.0000 -10673.8386 1454.8090 0.0000 0.0000 1787.9587 -7417.1263 308.5005 -9205.0850 -7338.8366 301.6306 102.1452 184.5209 29359.0594 179.9016 253.2357
ENERGY: 1500000 5.7134 6.4002 8.2016 0.0000 -10490.3000 1358.8110 0.0000 0.0000 1734.9102 -7376.2637 299.3473 -9111.1739 -7335.4677 301.9407 -622.2712 -530.6680 30031.9632 15.7203 88.5187
TCL: Running FEP window  13: Lambda1 0.6    Lambda2 0.65   [dLambda 0.050000000000000044]
TCL: Setting parameter firsttimestep to 0
TCL: Setting parameter alchLambda to 0.6
Info: NONBONDED TABLE R-SQUARED SPACING: 0.0625
Info: NONBONDED TABLE SIZE: 705 POINTS
TCL: Setting parameter alchLambda2 to 0.65
Info: NONBONDED TABLE R-SQUARED SPACING: 0.0625
Info: NONBONDED TABLE SIZE: 705 POINTS
TCL: Running for 1500000 steps
ETITLE: TS BOND ANGLE DIHED IMPRP ELECT VDW BOUNDARY MISC KINETIC TOTAL TEMP POTENTIAL TOTALAVG TEMPAVG PRESSURE GPRESSURE VOLUME PRESSAVG GPRESSAVG
ENERGY: 0 5.7134 6.4002 8.2016 0.0000 -10490.4569 1359.1936 0.0000 0.0000 1734.0958 -7376.8523 299.2068 -9110.9481 -7376.8523 299.2068 -609.6443 -513.1693 30031.9632 -609.6443 -513.1693
ENERGY: 300000 6.6255 6.5215 3.4768 0.0000 -10611.8907 1505.2201 0.0000 0.0000 1697.6693 -7392.3775 292.9217 -9090.0468 -7366.0279 296.8751 513.9519 631.4886 29517.2323 -72.4006 32.9311
ENERGY: 600000 2.9149 3.5536 6.7501 0.0000 -10566.4137 1434.4296 0.0000 0.0000 1742.1447 -7376.6207 300.5956 -9118.7654 -7369.1804 297.6642 190.3918 249.4523 29356.8892 -156.9928 -63.1694
ENERGY: 900000 8.2852 4.3628 4.5607 0.0000 -10582.9629 1504.7226 0.0000 0.0000 1773.4884 -7287.5431 306.0038 -9061.0315 -7365.4862 297.9218 827.7246 929.5498 29619.8650 144.2293 225.2126
ENERGY: 1200000 7.7707 6.6592 2.8560 0.0000 -10504.9434 1430.3963 0.0000 0.0000 1698.2932 -7358.9680 293.0293 -9057.2611 -7353.0475 299.2051 328.7440 330.4591 29571.0704 130.7973 197.9911
ENERGY: 1500000 7.4279 4.8822 6.2407 0.0000 -10482.6385 1409.4728 0.0000 0.0000 1720.8971 -7333.7178 296.9295 -9054.6149 -7345.4967 299.5913 -416.4240 -309.8000 30176.8001 163.0187 232.1482
TCL: Running FEP window  14: Lambda1 0.65   Lambda2 0.7000000000000001 [dLambda 0.050000000000000044]
TCL: Setting parameter firsttimestep to 0
TCL: Setting parameter alchLambda to 0.65
Info: NONBONDED TABLE R-SQUARED SPACING: 0.0625
Info: NONBONDED TABLE SIZE: 705 POINTS
TCL: Setting parameter alchLambda2 to 0.7000000000000001
Info: NONBONDED TABLE R-SQUARED SPACING: 0.0625
Info: NONBONDED TABLE SIZE: 705 POINTS
TCL: Running for 1500000 steps
ETITLE: TS BOND ANGLE DIHED IMPRP ELECT VDW BOUNDARY MISC KINETIC TOTAL TEMP POTENTIAL TOTALAVG TEMPAVG PRESSURE GPRESSURE VOLUME PRESSAVG GPRESSAVG
ENERGY: 0 7.4279 4.8822 6.2407 0.0000 -10482.9938 1410.0563 0.0000 0.0000 1720.0558 -7334.3309 296.7843 -9054.3867 -7334.3309 296.7843 -370.0144 -292.4671 30176.8001 -370.0144 -292.4671
ENERGY: 300000 4.6500 4.4910 5.3126 0.0000 -10479.6854 1421.0885 0.0000 0.0000 1688.4836 -7355.6596 291.3367 -9044.1433 -7285.9593 298.3121 78.9302 188.0322 30245.9751 -228.5112 -150.7089
ENERGY: 600000 3.6482 4.0286 3.7115 0.0000 -10483.1706 1376.6081 0.0000 0.0000 1756.6709 -7338.5033 303.1020 -9095.1742 -7306.6122 299.7442 -511.2461 -437.4235 30337.0240 -187.4478 -126.6063
ENERGY: 900000 5.6786 2.8048 6.4330 0.0000 -10629.8075 1469.6530 0.0000 0.0000 1715.3657 -7429.8725 295.9751 -9145.2381 -7305.0901 300.2349 219.7584 282.7541 29927.3543 -92.5673 -39.6483
ENERGY: 1200000 5.9479 4.8266 4.2742 0.0000 -10482.7863 1391.8095 0.0000 0.0000 1805.5516 -7270.3764 311.5361 -9075.9281 -7315.0025 300.3569 -310.9415 -257.2035 29986.6702 -78.0085 -26.2409
ENERGY: 1500000 3.2466 7.0853 8.4916 0.0000 -10423.7965 1372.8337 0.0000 0.0000 1741.4057 -7290.7336 300.4681 -9032.1393 -7323.9904 299.9847 -36.1304 -26.2503 29886.4752 -120.2963 -70.5065
TCL: Running FEP window  15: Lambda1 0.7000000000000001 Lambda2 0.7500000000000001 [dLambda 0.050000000000000044]
TCL: Setting parameter firsttimestep to 0
TCL: Setting parameter alchLambda to 0.7000000000000001
Info: NONBONDED TABLE R-SQUARED SPACING: 0.0625
Info: NONBONDED TABLE SIZE: 705 POINTS
TCL: Setting parameter alchLambda2 to 0.7500000000000001
Info: NONBONDED TABLE R-SQUARED SPACING: 0.0625
Info: NONBONDED TABLE SIZE: 705 POINTS
TCL: Running for 1500000 steps
ETITLE: TS BOND ANGLE DIHED IMPRP ELECT VDW BOUNDARY MISC KINETIC TOTAL TEMP POTENTIAL TOTALAVG TEMPAVG PRESSURE GPRESSURE VOLUME PRESSAVG GPRESSAVG
ENERGY: 0 3.2466 7.0853 8.4916 0.0000 -10424.0202 1372.1231 0.0000 0.0000 1740.5661 -7292.5075 300.3232 -9033.0735 -7292.5075 300.3232 -104.5874 -19.8137 29886.4752 -104.5874 -19.8137
ENERGY: 300000 5.3746 6.2092 3.0231 0.0000 -10485.9892 1424.3527 0.0000 0.0000 1744.1465 -7302.8830 300.9410 -9047.0296 -7280.9875 303.3935 418.1996 443.9070 29510.1328 21.5781 76.3757
ENERGY: 600000 9.9489 4.2316 4.2617 0.0000 -10503.0729 1484.3989 0.0000 0.0000 1694.4350 -7305.7969 292.3636 -9000.2319 -7303.0548 300.3682 740.1526 791.2821 30205.2325 106.1285 165.0324
ENERGY: 900000 6.1205 4.1129 4.2420 0.0000 -10452.1754 1336.7322 0.0000 0.0000 1743.7107 -7357.2571 300.8658 -9100.9677 -7323.2749 299.4015 -481.2442 -386.3712 29808.6338 54.5014 116.6545
ENERGY: 1200000 6.9889 6.2544 5.5211 0.0000 -10496.0808 1344.4638 0.0000 0.0000 1715.8442 -7417.0084 296.0576 -9132.8526 -7333.6152 299.3504 -726.9180 -672.2878 29839.8044 21.9670 81.5124
ENERGY: 1500000 4.1945 5.9148 3.9716 0.0000 -10549.6436 1430.7595 0.0000 0.0000 1782.2992 -7322.5040 307.5240 -9104.8032 -7334.0529 300.0547 257.8604 248.4432 29929.2635 55.6538 114.2670
TCL: Running FEP window  16: Lambda1 0.7500000000000001 Lambda2 0.8000000000000002 [dLambda 0.050000000000000044]
TCL: Setting parameter firsttimestep to 0
TCL: Setting parameter alchLambda to 0.7500000000000001
Info: NONBONDED TABLE R-SQUARED SPACING: 0.0625
Info: NONBONDED TABLE SIZE: 705 POINTS
TCL: Setting parameter alchLambda2 to 0.8000000000000002
Info: NONBONDED TABLE R-SQUARED SPACING: 0.0625
Info: NONBONDED TABLE SIZE: 705 POINTS
TCL: Running for 1500000 steps
ETITLE: TS BOND ANGLE DIHED IMPRP ELECT VDW BOUNDARY MISC KINETIC TOTAL TEMP POTENTIAL TOTALAVG TEMPAVG PRESSURE GPRESSURE VOLUME PRESSAVG GPRESSAVG
ENERGY: 0 4.1945 5.9148 3.9716 0.0000 -10549.8384 1430.7595 0.0000 0.0000 1781.4367 -7323.5614 307.3752 -9104.9980 -7323.5614 307.3752 190.2351 266.0522 29929.2635 190.2351 266.0522
ENERGY: 300000 10.3942 4.6743 7.8354 0.0000 -10587.7581 1451.4664 0.0000 0.0000 1740.8511 -7372.5367 300.3724 -9113.3878 -7351.2368 304.2733 293.8726 299.0195 29684.7189 39.1127 80.3046
ENERGY: 600000 3.3160 7.3834 2.3221 0.0000 -10500.0230 1426.3539 0.0000 0.0000 1733.7430 -7326.9046 299.1460 -9060.6477 -7328.8812 302.4216 293.2457 452.6896 29690.4975 219.7515 277.7571
ENERGY: 900000 3.7365 5.4324 6.0984 0.0000 -10481.4213 1382.5519 0.0000 0.0000 1739.6172 -7343.9849 300.1595 -9083.6022 -7348.2779 301.5311 -238.1583 -184.4807 29913.4190 255.2007 315.4830
ENERGY: 1200000 6.2545 4.4369 8.2029 0.0000 -10362.3712 1282.9535 0.0000 0.0000 1679.1892 -7381.3343 289.7331 -9060.5235 -7347.7906 300.6127 -1119.7677 -1032.6707 29747.9193 99.1034 154.6686
ENERGY: 1500000 9.3419 8.7468 5.1722 0.0000 -10435.3345 1357.1136 0.0000 0.0000 1752.5114 -7302.4485 302.3843 -9054.9599 -7338.9016 301.5490 -256.3245 -226.3381 29772.1574 58.1767 110.6311
TCL: Running FEP window  17: Lambda1 0.8000000000000002 Lambda2 0.8500000000000002 [dLambda 0.050000000000000044]
TCL: Setting parameter firsttimestep to 0
TCL: Setting parameter alchLambda to 0.8000000000000002
Info: NONBONDED TABLE R-SQUARED SPACING: 0.0625
Info: NONBONDED TABLE SIZE: 705 POINTS
TCL: Setting parameter alchLambda2 to 0.8500000000000002
Info: NONBONDED TABLE R-SQUARED SPACING: 0.0625
Info: NONBONDED TABLE SIZE: 705 POINTS
TCL: Running for 1500000 steps
ETITLE: TS BOND ANGLE DIHED IMPRP ELECT VDW BOUNDARY MISC KINETIC TOTAL TEMP POTENTIAL TOTALAVG TEMPAVG PRESSURE GPRESSURE VOLUME PRESSAVG GPRESSAVG
ENERGY: 0 9.3419 8.7468 5.1722 0.0000 -10435.5553 1357.0402 0.0000 0.0000 1751.6480 -7303.6062 302.2353 -9055.2542 -7303.6062 302.2353 -285.8416 -210.1560 29772.1574 -285.8416 -210.1560
ENERGY: 300000 4.6640 4.0425 5.2355 0.0000 -10571.8632 1470.5444 0.0000 0.0000 1775.3054 -7312.0714 306.3173 -9087.3768 -7319.1242 303.0264 753.8655 798.3673 29868.0966 70.9319 112.5432
ENERGY: 600000 7.5862 5.9537 7.3300 0.0000 -10261.1676 1304.9535 0.0000 0.0000 1714.0559 -7221.2883 295.7491 -8935.3442 -7300.7852 301.8671 -669.8825 -671.2812 30257.3012 -86.7115 -42.5787
ENERGY: 900000 5.0697 3.7745 5.3685 0.0000 -10543.1194 1495.9701 0.0000 0.0000 1751.0496 -7281.8870 302.1321 -9032.9366 -7314.1477 300.4291 689.0281 795.2275 29757.6798 130.7667 190.7850
ENERGY: 1200000 5.8442 4.7131 6.7016 0.0000 -10509.8875 1410.4509 0.0000 0.0000 1766.1333 -7316.0445 304.7347 -9082.1778 -7311.8767 301.0440 -32.9691 62.6194 29931.6999 60.3812 119.6701
ENERGY: 1500000 8.2835 5.3230 7.6310 0.0000 -10479.9995 1420.4422 0.0000 0.0000 1725.0286 -7313.2913 297.6423 -9038.3199 -7315.5951 300.4645 -53.7737 -42.5026 30477.0389 43.3768 94.8041
TCL: Running FEP window  18: Lambda1 0.8500000000000002 Lambda2 0.9000000000000002 [dLambda 0.050000000000000044]
TCL: Setting parameter firsttimestep to 0
TCL: Setting parameter alchLambda to 0.8500000000000002
Info: NONBONDED TABLE R-SQUARED SPACING: 0.0625
Info: NONBONDED TABLE SIZE: 705 POINTS
TCL: Setting parameter alchLambda2 to 0.9000000000000002
Info: NONBONDED TABLE R-SQUARED SPACING: 0.0625
Info: NONBONDED TABLE SIZE: 705 POINTS
TCL: Running for 1500000 steps
ETITLE: TS BOND ANGLE DIHED IMPRP ELECT VDW BOUNDARY MISC KINETIC TOTAL TEMP POTENTIAL TOTALAVG TEMPAVG PRESSURE GPRESSURE VOLUME PRESSAVG GPRESSAVG
ENERGY: 0 8.2835 5.3230 7.6310 0.0000 -10480.7651 1420.1707 0.0000 0.0000 1724.1376 -7315.2193 297.4886 -9039.3569 -7315.2193 297.4886 -99.4253 -28.3491 30477.0389 -99.4253 -28.3491
ENERGY: 300000 5.1147 3.0773 9.8358 0.0000 -10389.0712 1325.3351 0.0000 0.0000 1728.5090 -7317.1992 298.2429 -9045.7082 -7310.8482 300.0720 -758.6044 -720.4408 30110.7061 -32.5114 19.0861
ENERGY: 600000 8.0383 7.2417 7.0446 0.0000 -10488.1296 1412.9656 0.0000 0.0000 1752.3248 -7300.5145 302.3521 -9052.8394 -7294.7346 300.8884 14.4111 19.8473 30315.6570 139.9584 200.2832
ENERGY: 900000 7.4552 4.6355 4.9195 0.0000 -10585.8016 1439.9620 0.0000 0.0000 1719.9867 -7408.8426 296.7724 -9128.8294 -7305.3134 300.7067 309.5082 425.5270 29609.0006 10.8234 76.4300
ENERGY: 1200000 7.8670 7.2349 5.4444 0.0000 -10304.0550 1336.5725 0.0000 0.0000 1722.4885 -7224.4475 297.2041 -8946.9360 -7306.9536 300.4303 -451.3400 -325.0857 30515.4776 -102.9501 -27.7385
ENERGY: 1500000 3.6898 6.9842 5.9059 0.0000 -10550.5157 1390.4742 0.0000 0.0000 1749.7368 -7393.7247 301.9056 -9143.4615 -7316.1621 301.0419 -243.2121 -198.0412 29945.8829 -32.1331 40.1484
TCL: Running FEP window  19: Lambda1 0.9000000000000002 Lambda2 0.9500000000000003 [dLambda 0.050000000000000044]
TCL: Setting parameter firsttimestep to 0
TCL: Setting parameter alchLambda to 0.9000000000000002
Info: NONBONDED TABLE R-SQUARED SPACING: 0.0625
Info: NONBONDED TABLE SIZE: 705 POINTS
TCL: Setting parameter alchLambda2 to 0.9500000000000003
Info: NONBONDED TABLE R-SQUARED SPACING: 0.0625
Info: NONBONDED TABLE SIZE: 705 POINTS
TCL: Running for 1500000 steps
ETITLE: TS BOND ANGLE DIHED IMPRP ELECT VDW BOUNDARY MISC KINETIC TOTAL TEMP POTENTIAL TOTALAVG TEMPAVG PRESSURE GPRESSURE VOLUME PRESSAVG GPRESSAVG
ENERGY: 0 3.6898 6.9842 5.9059 0.0000 -10551.1221 1390.4761 0.0000 0.0000 1748.8382 -7395.2279 301.7505 -9144.0661 -7395.2279 301.7505 -254.3235 -176.7498 29945.8829 -254.3235 -176.7498
ENERGY: 300000 4.3789 4.5626 4.2751 0.0000 -10523.6148 1487.0012 0.0000 0.0000 1770.2802 -7253.1169 305.4502 -9023.3970 -7344.3597 302.8352 496.0409 583.8174 30291.5450 -197.0894 -130.2710
ENERGY: 600000 4.2085 3.3243 7.3999 0.0000 -10355.3765 1316.9521 0.0000 0.0000 1749.7379 -7273.7537 301.9058 -9023.4916 -7333.6518 302.8086 -652.2080 -606.4324 30235.6859 -296.3825 -240.1274
ENERGY: 900000 3.6625 4.4481 6.5534 0.0000 -10413.5500 1369.5417 0.0000 0.0000 1693.5255 -7335.8188 292.2067 -9029.3443 -7346.5576 300.3655 -58.2786 6.3479 29812.4336 -102.0777 -53.5223
ENERGY: 1200000 6.4308 7.0216 4.3335 0.0000 -10553.1712 1462.6815 0.0000 0.0000 1734.3191 -7338.3847 299.2454 -9072.7038 -7345.3908 299.8683 558.2963 612.4888 30072.4199 -23.1268 25.7298
ENERGY: 1500000 11.2971 7.9971 7.1345 0.0000 -10459.9730 1368.4220 0.0000 0.0000 1732.3279 -7332.7944 298.9018 -9065.1223 -7341.2340 300.2154 -499.3998 -416.8657 30289.4701 -10.0238 46.5394
TCL: Running FEP window  20: Lambda1 0.9500000000000003 Lambda2 1.0    [dLambda 0.04999999999999971]
TCL: Setting parameter firsttimestep to 0
TCL: Setting parameter alchLambda to 0.9500000000000003
Info: NONBONDED TABLE R-SQUARED SPACING: 0.0625
Info: NONBONDED TABLE SIZE: 705 POINTS
TCL: Setting parameter alchLambda2 to 1.0
Info: NONBONDED TABLE R-SQUARED SPACING: 0.0625
Info: NONBONDED TABLE SIZE: 705 POINTS
TCL: Running for 1500000 steps
ETITLE: TS BOND ANGLE DIHED IMPRP ELECT VDW BOUNDARY MISC KINETIC TOTAL TEMP POTENTIAL TOTALAVG TEMPAVG PRESSURE GPRESSURE VOLUME PRESSAVG GPRESSAVG
ENERGY: 0 11.2971 7.9971 7.1345 0.0000 -10460.9348 1369.2009 0.0000 0.0000 1731.4915 -7333.8137 298.7575 -9065.3052 -7333.8137 298.7575 -461.1378 -384.9954 30289.4701 -461.1378 -384.9954
ENERGY: 300000 7.9448 5.8970 7.4394 0.0000 -10420.1274 1348.1704 0.0000 0.0000 1793.6479 -7257.0279 309.4821 -9050.6758 -7310.5060 300.7083 -526.2620 -465.8192 29945.1087 -354.9394 -299.0964
ENERGY: 600000 3.2204 6.1742 6.3506 0.0000 -10567.6007 1468.3698 0.0000 0.0000 1760.9467 -7322.5389 303.8398 -9083.4857 -7320.4952 301.8447 144.4002 244.2638 30239.2317 -219.1237 -158.3948
ENERGY: 900000 4.5251 5.3939 6.5526 0.0000 -10551.9039 1458.4728 0.0000 0.0000 1669.4202 -7407.5392 288.0475 -9076.9594 -7328.1162 301.0893 228.5279 299.4530 30004.6609 -181.0468 -127.1592
ENERGY: 1200000 7.4616 6.4203 7.9616 0.0000 -10535.9033 1423.0672 0.0000 0.0000 1711.2045 -7379.7881 295.2571 -9090.9926 -7334.7288 300.4666 -41.1779 6.9501 29859.3854 -153.4113 -98.7747
ENERGY: 1500000 8.5923 3.5527 7.9897 0.0000 -10451.9992 1368.0412 0.0000 0.0000 1715.5903 -7348.2330 296.0138 -9063.8233 -7341.2566 299.9284 -660.9111 -594.4333 30668.1580 -108.8132 -52.2778
TCL: Exiting due to exit command.
