Info: SIMULATION PARAMETERS:
Info: TIMESTEP               2
Info: NUMBER OF STEPS        0
Info: STEPS PER CYCLE        10
Info: PERIODIC CELL BASIS 1  32.7756 0 0
Info: PERIODIC CELL BASIS 2  0 32.4481 0
Info: PERIODIC CELL BASIS 3  0 0 28.117
Info: PERIODIC CELL CENTER   0 0 0
Info: WRAPPING WATERS AROUND PERIODIC BOUNDARIES ON OUTPUT.
Info: WRAPPING ALL CLUSTERS AROUND PERIODIC BOUNDARIES ON OUTPUT.
Info: FIRST LDB TIMESTEP     50
Info: LAST LDB TIMESTEP     -1
Info: HOM BACKGROUND SCALING 1
Info: PME BACKGROUND SCALING 1
Info: MIN ATOMS PER PATCH    40
Info: EMPTY PATCH LOAD       40 ATOMS
Info: VELOCITY FILE          mobley_547634_equil.vel
Info: CENTER OF MASS MOVING INITIALLY? NO
Info: DIELECTRIC             1
Info: EXCLUDE                SCALED ONE-FOUR
Info: 1-4 ELECTROSTATICS SCALED BY 0.833333
Info: MODIFIED 1-4 VDW PARAMETERS WILL BE USED
Info: DCD FILENAME           mobley_547634_prod.dcd
Info: DCD FREQUENCY          100000
Info: DCD FIRST STEP         100000
Info: DCD FILE WILL CONTAIN UNIT CELL DATA
Info: XST FILENAME           mobley_547634_prod.xst
Info: XST FREQUENCY          100000
Info: NO VELOCITY DCD OUTPUT
Info: NO FORCE DCD OUTPUT
Info: OUTPUT FILENAME        mobley_547634_prod
Info: BINARY OUTPUT FILES WILL BE USED
Info: RESTART FILENAME       mobley_547634_prod.restart
Info: RESTART FREQUENCY      100000
Info: BINARY RESTART FILES WILL BE USED
Info: CUTOFF                 9
Info: PAIRLIST DISTANCE      11
Info: PAIRLIST SHRINK RATE   0.01
Info: PAIRLIST GROW RATE     0.01
Info: PAIRLIST TRIGGER       0.3
Info: PAIRLISTS PER CYCLE    2
Info: PAIRLISTS ENABLED
Info: MARGIN                 2
Info: HYDROGEN GROUP CUTOFF  2.5
Info: PATCH DIMENSION        15.5
Info: ENERGY OUTPUT STEPS    100000
Info: ENERGY EVALUATION STEPS    100000
Info: OUTPUT ENERGY PRECISION 4
Info: CROSSTERM ENERGY INCLUDED IN DIHEDRAL
Info: TIMING OUTPUT STEPS    1000000
Info: PRESSURE OUTPUT STEPS  100000
Info: ALCHEMICAL FEP ON
Info: FEP CURRENT LAMBDA VALUE     0
Info: FEP COMPARISON LAMBDA VALUE  0.05
Info: FEP INTRA-ALCHEMICAL NON-BONDED INTERACTIONS WILL BE RETAINED
Info: FEP INTRA-ALCHEMICAL BONDED INTERACTIONS WILL BE RETAINED
Info: FEP VDW SHIFTING COEFFICIENT 5
Info: FEP ELEC. ACTIVE FOR ANNIHILATED PARTICLES BETWEEN LAMBDA = 0 AND LAMBDA = 0.5
Info: FEP ELEC. ACTIVE FOR EXNIHILATED PARTICLES BETWEEN LAMBDA = 0.5 AND LAMBDA = 1
Info: FEP VDW ACTIVE FOR ANNIHILATED PARTICLES BETWEEN LAMBDA = 0 AND LAMBDA = 1
Info: FEP VDW ACTIVE FOR EXNIHILATED PARTICLES BETWEEN LAMBDA = 0 AND LAMBDA = 1
Info: FEP BOND ACTIVE FOR ANNIHILATED PARTICLES BETWEEN LAMBDA = 1 AND LAMBDA = 1
Info: FEP BOND ACTIVE FOR EXNIHILATED PARTICLES BETWEEN LAMBDA = 0 AND LAMBDA = 0
Info: LANGEVIN DYNAMICS ACTIVE
Info: LANGEVIN TEMPERATURE   300
Info: LANGEVIN USING BBK INTEGRATOR
Info: LANGEVIN DAMPING COEFFICIENT IS 1 INVERSE PS
Info: LANGEVIN DYNAMICS APPLIED TO HYDROGENS
Info: LANGEVIN PISTON PRESSURE CONTROL ACTIVE
Info:        TARGET PRESSURE IS 1.01325 BAR
Info:     OSCILLATION PERIOD IS 50 FS
Info:             DECAY TIME IS 25 FS
Info:     PISTON TEMPERATURE IS 300 K
Info:       PRESSURE CONTROL IS GROUP-BASED
Info:    INITIAL STRAIN RATE IS 0.0005563 0.0005563 0.0005563
Info:       CELL FLUCTUATION IS ISOTROPIC
Info: PARTICLE MESH EWALD (PME) ACTIVE
Info: PME TOLERANCE               1e-06
Info: PME EWALD COEFFICIENT       0.348832
Info: PME INTERPOLATION ORDER     4
Info: PME GRID DIMENSIONS         36 36 32
Info: PME MAXIMUM GRID SPACING    1
Info: PME CALCULATION WILL BE PERFORMED ON GPU
Info: FULL ELECTROSTATIC EVALUATION FREQUENCY      2
Info: USING VERLET I (r-RESPA) MTS SCHEME.
Info: C1 SPLITTING OF LONG RANGE ELECTROSTATICS
Info: PLACING ATOMS IN PATCHES BY HYDROGEN GROUPS
Info: RIGID BONDS TO HYDROGEN : ALL
Info:         ERROR TOLERANCE : 1e-08
Info:          MAX ITERATIONS : 100
Info: RIGID WATER USING SETTLE ALGORITHM
Info: RANDOM NUMBER SEED     1743642937
Info: USE HYDROGEN BONDS?    NO
Info: Using AMBER format force field!
Info: AMBER PARM FILE        mobley_547634.prmtop
Info: COORDINATE PDB         mobley_547634.pdb
Info: Exclusions will be read from PARM file!
Info: SCNB (VDW SCALING)     2
Info: USING ARITHMETIC MEAN TO COMBINE L-J SIGMA PARAMETERS
Info: BINARY COORDINATES     mobley_547634_equil.coor
Info: SUMMARY OF PARAMETERS:
Info: 6 BONDS
Info: 5 ANGLES
Info:   5 HARMONIC
Info:   0 COSINE-BASED
Info: 3 DIHEDRAL
Info: 0 IMPROPER
Info: 0 CROSSTERM
Info: 0 VDW
Info: 21 VDW_PAIRS
Info: 0 NBTHOLE_PAIRS
Info: To read alchdata from file: mobley_547634.pdb
Info: To read alchflag data from column: 5
Info: STRUCTURE SUMMARY:
Info: 2949 ATOMS
Info: 2950 BONDS
Info: 42 ANGLES
Info: 66 DIHEDRALS
Info: 0 IMPROPERS
Info: 0 CROSSTERMS
Info: 3042 EXCLUSIONS
Info: 2937 RIGID BONDS
Info: ALCH: 0 ATOMS TO DISAPPEAR IN FINAL STATE
Info: ALCH: 24 ATOMS TO APPEAR IN FINAL STATE
Info: 5910 DEGREES OF FREEDOM
Info: 987 HYDROGEN GROUPS
Info: 4 ATOMS IN LARGEST HYDROGEN GROUP
Info: 987 MIGRATION GROUPS
Info: 4 ATOMS IN LARGEST MIGRATION GROUP
Info: TOTAL MASS = 17721.8 amu
Info: TOTAL CHARGE = -0.000100054 e
Info: MASS DENSITY = 0.984143 g/cm^3
Info: ATOM DENSITY = 0.0986201 atoms/A^3
Info: ADDED 0 IMPLICIT EXCLUSIONS
Info: NONBONDED TABLE R-SQUARED SPACING: 0.0625
Info: NONBONDED TABLE SIZE: 705 POINTS
Info: REDUCING NUMBER OF PATCHES TO IMPROVE LOAD BALANCE
Info: REMOVING COM VELOCITY -0.109051 -0.276926 -0.0213257
Info: Use 3D box decompostion in PME FFT.
Info: Updated CUDA force table with 4096 elements.
Info: Updated CUDA LJ table with 6 x 6 elements.
Info: Found 23 unique exclusion lists needing 68 bytes
TCL: Running for 1500000 steps
ETITLE: TS BOND ANGLE DIHED IMPRP ELECT VDW BOUNDARY MISC KINETIC TOTAL TEMP POTENTIAL TOTALAVG TEMPAVG PRESSURE GPRESSURE VOLUME PRESSAVG GPRESSAVG
ENERGY: 0 3.5023 4.7852 5.6046 0.0000 -10674.6366 1387.1048 0.0000 0.0000 1752.6102 -7521.0294 298.4615 -9273.6397 -7521.0294 298.4615 -383.0813 -296.9626 29902.6151 -383.0813 -296.9626
ENERGY: 300000 3.2668 6.1165 5.3255 0.0000 -10634.5126 1400.0610 0.0000 0.0000 1720.1624 -7499.5805 292.9357 -9219.7429 -7463.9602 297.2402 -503.4195 -410.3765 30256.3717 -291.3997 -197.2061
ENERGY: 600000 5.5037 6.2183 3.2466 0.0000 -10646.6351 1374.7729 0.0000 0.0000 1786.5873 -7470.3063 304.2476 -9256.8936 -7493.9056 296.6575 -614.6974 -570.9203 30072.2860 -233.1315 -156.9531
ENERGY: 900000 3.2250 7.1855 2.9205 0.0000 -10686.9398 1420.2551 0.0000 0.0000 1726.3812 -7526.9725 293.9948 -9253.3537 -7487.5532 296.9100 -540.4167 -424.2655 30156.4826 -282.1578 -201.0348
ENERGY: 1200000 5.0815 11.0387 6.3383 0.0000 -10716.8756 1510.0137 0.0000 0.0000 1761.7934 -7422.6100 300.0253 -9184.4034 -7478.5880 297.0459 715.5458 796.6881 29796.5030 -205.8808 -122.3353
ENERGY: 1500000 10.4984 6.8125 3.7920 0.0000 -10533.4523 1393.9160 0.0000 0.0000 1707.9708 -7410.4625 290.8596 -9118.4333 -7466.6054 297.6129 -501.5866 -407.2420 30196.1124 -111.4469 -32.2582
TCL: Running FEP window   2: Lambda1 0.05   Lambda2 0.1    [dLambda 0.05  ]
TCL: Setting parameter firsttimestep to 0
TCL: Setting parameter alchLambda to 0.05
Info: NONBONDED TABLE R-SQUARED SPACING: 0.0625
Info: NONBONDED TABLE SIZE: 705 POINTS
TCL: Setting parameter alchLambda2 to 0.1
Info: NONBONDED TABLE R-SQUARED SPACING: 0.0625
Info: NONBONDED TABLE SIZE: 705 POINTS
TCL: Running for 1500000 steps
ETITLE: TS BOND ANGLE DIHED IMPRP ELECT VDW BOUNDARY MISC KINETIC TOTAL TEMP POTENTIAL TOTALAVG TEMPAVG PRESSURE GPRESSURE VOLUME PRESSAVG GPRESSAVG
ENERGY: 0 10.4984 6.8125 3.7920 0.0000 -10533.4527 1398.3536 0.0000 0.0000 1707.1012 -7406.8949 290.7115 -9113.9962 -7406.8949 290.7115 -489.9687 -398.4383 30196.1124 -489.9687 -398.4383
ENERGY: 300000 3.2394 5.6758 4.2264 0.0000 -10692.3032 1474.5041 0.0000 0.0000 1815.5877 -7389.0698 309.1862 -9204.6575 -7423.1181 301.4383 278.4574 342.1529 30173.4194 78.3796 151.9569
ENERGY: 600000 2.9834 10.9325 3.9923 0.0000 -10583.3689 1411.5005 0.0000 0.0000 1756.8935 -7397.0667 299.1909 -9153.9602 -7416.3813 300.4613 -170.4982 -154.5734 30683.9943 -52.2688 15.7424
ENERGY: 900000 5.3097 4.2669 5.8270 0.0000 -10483.7729 1387.5680 0.0000 0.0000 1752.5997 -7328.2016 298.4597 -9080.8013 -7419.8624 299.8665 -76.2363 -32.3371 30127.4541 80.6459 146.6829
ENERGY: 1200000 4.6878 8.3738 4.6749 0.0000 -10763.3892 1540.7183 0.0000 0.0000 1779.4171 -7425.5173 303.0265 -9204.9345 -7427.4707 300.0464 881.3146 896.8406 30149.7291 184.8696 245.7984
ENERGY: 1500000 2.7553 4.9339 4.5023 0.0000 -10573.6245 1426.8042 0.0000 0.0000 1731.0837 -7403.5450 294.7956 -9134.6287 -7421.8892 300.1378 158.3768 185.9758 30357.2249 149.0189 211.7265
TCL: Running FEP window   3: Lambda1 0.1    Lambda2 0.15000000000000002 [dLambda 0.05000000000000002]
TCL: Setting parameter firsttimestep to 0
TCL: Setting parameter alchLambda to 0.1
Info: NONBONDED TABLE R-SQUARED SPACING: 0.0625
Info: NONBONDED TABLE SIZE: 705 POINTS
TCL: Setting parameter alchLambda2 to 0.15000000000000002
Info: NONBONDED TABLE R-SQUARED SPACING: 0.0625
Info: NONBONDED TABLE SIZE: 705 POINTS
TCL: Running for 1500000 steps
ETITLE: TS BOND ANGLE DIHED IMPRP ELECT VDW BOUNDARY MISC KINETIC TOTAL TEMP POTENTIAL TOTALAVG TEMPAVG PRESSURE GPRESSURE VOLUME PRESSAVG GPRESSAVG
ENERGY: 0 2.7553 4.9339 4.5023 0.0000 -10573.6233 1429.2980 0.0000 0.0000 1730.1930 -7401.9409 294.6439 -9132.1338 -7401.9409 294.6439 138.3358 198.0986 30357.2249 138.3358 198.0986
ENERGY: 300000 2.4643 6.7083 5.3256 0.0000 -10753.4662 1471.0661 0.0000 0.0000 1802.6572 -7465.2447 306.9842 -9267.9019 -7428.3777 299.9319 227.5646 232.8036 29774.6851 40.6260 77.4210
ENERGY: 600000 4.1539 7.3280 4.8844 0.0000 -10688.3416 1449.7116 0.0000 0.0000 1765.6688 -7456.5949 300.6853 -9222.2637 -7425.2814 299.0970 -206.8743 -115.6474 30097.6509 -184.6341 -125.5453
ENERGY: 900000 3.4631 8.9034 3.0849 0.0000 -10687.1717 1408.3967 0.0000 0.0000 1767.9282 -7495.3954 301.0700 -9263.3236 -7426.9801 299.9688 -609.7146 -496.4431 30413.1218 -183.9067 -106.7336
ENERGY: 1200000 2.9090 10.3805 3.2638 0.0000 -10704.1441 1494.2576 0.0000 0.0000 1694.1786 -7499.1546 288.5108 -9193.3333 -7431.2638 298.4341 345.9929 414.8216 29804.4206 -166.5882 -94.1453
ENERGY: 1500000 3.2961 6.6872 6.7605 0.0000 -10621.8151 1364.8045 0.0000 0.0000 1755.5936 -7484.6733 298.9695 -9240.2669 -7434.4892 299.4644 -767.2772 -687.5850 29893.5842 -196.3898 -123.4560
TCL: Running FEP window   4: Lambda1 0.15000000000000002 Lambda2 0.2    [dLambda 0.04999999999999999]
TCL: Setting parameter firsttimestep to 0
TCL: Setting parameter alchLambda to 0.15000000000000002
Info: NONBONDED TABLE R-SQUARED SPACING: 0.0625
Info: NONBONDED TABLE SIZE: 705 POINTS
TCL: Setting parameter alchLambda2 to 0.2
Info: NONBONDED TABLE R-SQUARED SPACING: 0.0625
Info: NONBONDED TABLE SIZE: 705 POINTS
TCL: Running for 1500000 steps
ETITLE: TS BOND ANGLE DIHED IMPRP ELECT VDW BOUNDARY MISC KINETIC TOTAL TEMP POTENTIAL TOTALAVG TEMPAVG PRESSURE GPRESSURE VOLUME PRESSAVG GPRESSAVG
ENERGY: 0 3.2961 6.6872 6.7605 0.0000 -10621.8149 1365.9172 0.0000 0.0000 1754.7141 -7484.4398 298.8197 -9239.1539 -7484.4398 298.8197 -752.1982 -679.2419 29893.5842 -752.1982 -679.2419
ENERGY: 300000 4.3973 9.0160 5.1493 0.0000 -10657.0571 1375.0608 0.0000 0.0000 1780.0051 -7483.4286 303.1267 -9263.4338 -7442.2517 301.0445 -898.2281 -819.3246 30032.6048 -449.5571 -393.7184
ENERGY: 600000 2.5525 6.3633 4.7971 0.0000 -10684.7758 1453.4931 0.0000 0.0000 1742.4409 -7475.1289 296.7297 -9217.5698 -7423.9914 300.4465 358.5858 351.9124 29677.9665 -350.1052 -303.6022
ENERGY: 900000 3.1247 12.6943 5.0863 0.0000 -10701.0325 1466.6054 0.0000 0.0000 1786.1804 -7427.3415 304.1783 -9213.5218 -7421.1809 300.9806 156.6254 198.1926 30190.0972 -230.7847 -177.6422
ENERGY: 1200000 4.3823 8.9316 4.9589 0.0000 -10629.0203 1351.0961 0.0000 0.0000 1784.1925 -7475.4588 303.8398 -9259.6514 -7419.8691 301.2583 -894.8446 -810.8499 30188.4506 -292.3516 -226.4041
ENERGY: 1500000 5.9613 7.6975 3.1889 0.0000 -10561.2773 1394.9650 0.0000 0.0000 1776.8829 -7372.5817 302.5950 -9149.4646 -7422.6692 300.6893 -348.3915 -243.1886 30170.3552 -262.5404 -196.9430
TCL: Running FEP window   5: Lambda1 0.2    Lambda2 0.25   [dLambda 0.04999999999999999]
TCL: Setting parameter firsttimestep to 0
TCL: Setting parameter alchLambda to 0.2
Info: NONBONDED TABLE R-SQUARED SPACING: 0.0625
Info: NONBONDED TABLE SIZE: 705 POINTS
TCL: Setting parameter alchLambda2 to 0.25
Info: NONBONDED TABLE R-SQUARED SPACING: 0.0625
Info: NONBONDED TABLE SIZE: 705 POINTS
TCL: Running for 1500000 steps
ETITLE: TS BOND ANGLE DIHED IMPRP ELECT VDW BOUNDARY MISC KINETIC TOTAL TEMP POTENTIAL TOTALAVG TEMPAVG PRESSURE GPRESSURE VOLUME PRESSAVG GPRESSAVG
ENERGY: 0 5.9613 7.6975 3.1889 0.0000 -10561.2765 1396.2634 0.0000 0.0000 1775.9866 -7372.1789 302.4423 -9148.1655 -7372.1789 302.4423 -309.0658 -230.6839 30170.3552 -309.0658 -230.6839
ENERGY: 300000 2.6859 7.0385 3.9740 0.0000 -10625.3705 1379.3649 0.0000 0.0000 1760.9423 -7471.3649 299.8804 -9232.3072 -7446.9294 299.0711 -506.5848 -428.8361 30016.2777 -336.5346 -291.4780
ENERGY: 600000 7.5018 8.6805 3.1658 0.0000 -10580.2285 1384.8381 0.0000 0.0000 1791.4479 -7384.5944 305.0753 -9176.0423 -7438.3975 301.6602 -668.3469 -563.4980 30566.3593 -219.6893 -173.1325
ENERGY: 900000 7.9304 7.6399 3.7376 0.0000 -10710.4719 1496.0021 0.0000 0.0000 1777.7365 -7417.4253 302.7403 -9195.1618 -7423.9242 303.0531 389.8773 404.1651 30440.3407 109.2222 162.9299
ENERGY: 1200000 5.4352 10.6225 4.7446 0.0000 -10807.5982 1543.4102 0.0000 0.0000 1769.4820 -7473.9037 301.3346 -9243.3858 -7426.4219 302.2344 539.9897 669.5976 30179.1373 -10.4637 50.3530
ENERGY: 1500000 1.8498 8.0984 3.8832 0.0000 -10624.3891 1392.7576 0.0000 0.0000 1741.0832 -7476.7168 296.4985 -9217.8000 -7435.5456 301.1235 -354.4120 -264.1579 30287.1596 -50.7753 9.0681
TCL: Running FEP window   6: Lambda1 0.25   Lambda2 0.3    [dLambda 0.04999999999999999]
TCL: Setting parameter firsttimestep to 0
TCL: Setting parameter alchLambda to 0.25
Info: NONBONDED TABLE R-SQUARED SPACING: 0.0625
Info: NONBONDED TABLE SIZE: 705 POINTS
TCL: Setting parameter alchLambda2 to 0.3
Info: NONBONDED TABLE R-SQUARED SPACING: 0.0625
Info: NONBONDED TABLE SIZE: 705 POINTS
TCL: Running for 1500000 steps
ETITLE: TS BOND ANGLE DIHED IMPRP ELECT VDW BOUNDARY MISC KINETIC TOTAL TEMP POTENTIAL TOTALAVG TEMPAVG PRESSURE GPRESSURE VOLUME PRESSAVG GPRESSAVG
ENERGY: 0 1.8498 8.0984 3.8832 0.0000 -10624.3895 1392.2031 0.0000 0.0000 1740.2222 -7478.1327 296.3518 -9218.3550 -7478.1327 296.3518 -347.3332 -262.7981 30287.1596 -347.3332 -262.7981
ENERGY: 300000 4.3408 10.2228 5.3502 0.0000 -10590.7392 1397.1346 0.0000 0.0000 1689.1567 -7484.5342 287.6556 -9173.6908 -7449.1652 294.6806 -742.0487 -740.1972 30700.3090 -565.1202 -507.6042
ENERGY: 600000 4.3304 7.2465 4.9201 0.0000 -10621.2070 1401.3752 0.0000 0.0000 1748.7339 -7454.6010 297.8013 -9203.3349 -7415.5285 300.7001 -333.7317 -241.7685 30002.6832 -170.1747 -121.3797
ENERGY: 900000 4.2508 6.5712 3.1556 0.0000 -10656.8979 1409.7537 0.0000 0.0000 1694.6134 -7538.5532 288.5849 -9233.1666 -7431.4086 299.8819 -502.9511 -503.0544 30512.0799 -158.3621 -119.5366
ENERGY: 1200000 4.5849 8.9580 4.4138 0.0000 -10695.5395 1467.9766 0.0000 0.0000 1743.0861 -7466.5201 296.8395 -9209.6062 -7429.1338 299.8153 147.6228 229.0783 29987.3171 -167.6050 -120.0962
ENERGY: 1500000 2.6205 5.7708 4.5620 0.0000 -10533.1552 1358.2330 0.0000 0.0000 1790.2427 -7371.7262 304.8701 -9161.9688 -7428.9599 299.5079 -710.4870 -647.3619 30791.2869 -199.2702 -155.3561
TCL: Running FEP window   7: Lambda1 0.3    Lambda2 0.35   [dLambda 0.04999999999999999]
TCL: Setting parameter firsttimestep to 0
TCL: Setting parameter alchLambda to 0.3
Info: NONBONDED TABLE R-SQUARED SPACING: 0.0625
Info: NONBONDED TABLE SIZE: 705 POINTS
TCL: Setting parameter alchLambda2 to 0.35
Info: NONBONDED TABLE R-SQUARED SPACING: 0.0625
Info: NONBONDED TABLE SIZE: 705 POINTS
TCL: Running for 1500000 steps
ETITLE: TS BOND ANGLE DIHED IMPRP ELECT VDW BOUNDARY MISC KINETIC TOTAL TEMP POTENTIAL TOTALAVG TEMPAVG PRESSURE GPRESSURE VOLUME PRESSAVG GPRESSAVG
ENERGY: 0 2.6205 5.7708 4.5620 0.0000 -10533.1571 1358.5606 0.0000 0.0000 1789.3891 -7372.2541 304.7247 -9161.6432 -7372.2541 304.7247 -703.4313 -638.8829 30791.2869 -703.4313 -638.8829
ENERGY: 300000 5.3919 7.3244 4.2359 0.0000 -10729.5008 1484.1884 0.0000 0.0000 1773.1631 -7455.1972 301.9615 -9228.3602 -7420.5158 300.8741 331.7032 380.9826 30344.7550 63.6940 105.9359
ENERGY: 600000 5.0113 10.1876 3.9823 0.0000 -10656.5988 1450.3192 0.0000 0.0000 1803.7570 -7383.3414 307.1715 -9187.0984 -7417.3156 301.4615 312.8129 337.2816 29864.9652 -95.9969 -58.8433
ENERGY: 900000 5.6430 9.4669 3.9589 0.0000 -10601.8998 1452.8633 0.0000 0.0000 1761.8802 -7368.0875 300.0401 -9129.9677 -7430.8120 299.8176 91.5746 196.0569 30324.9964 -29.0318 15.4891
ENERGY: 1200000 4.9968 6.7558 3.3987 0.0000 -10782.4600 1552.8648 0.0000 0.0000 1758.6725 -7455.7713 299.4938 -9214.4439 -7439.4792 299.8417 768.2957 812.5148 30134.3108 21.9946 67.8546
ENERGY: 1500000 5.2552 11.0913 6.5750 0.0000 -10615.8410 1359.6041 0.0000 0.0000 1764.8616 -7468.4538 300.5478 -9233.3154 -7432.7597 300.4860 -711.8099 -707.1054 30045.3358 -69.8828 -26.3641
TCL: Running FEP window   8: Lambda1 0.35   Lambda2 0.39999999999999997 [dLambda 0.04999999999999999]
TCL: Setting parameter firsttimestep to 0
TCL: Setting parameter alchLambda to 0.35
Info: NONBONDED TABLE R-SQUARED SPACING: 0.0625
Info: NONBONDED TABLE SIZE: 705 POINTS
TCL: Setting parameter alchLambda2 to 0.39999999999999997
Info: NONBONDED TABLE R-SQUARED SPACING: 0.0625
Info: NONBONDED TABLE SIZE: 705 POINTS
TCL: Running for 1500000 steps
ETITLE: TS BOND ANGLE DIHED IMPRP ELECT VDW BOUNDARY MISC KINETIC TOTAL TEMP POTENTIAL TOTALAVG TEMPAVG PRESSURE GPRESSURE VOLUME PRESSAVG GPRESSAVG
ENERGY: 0 5.2552 11.0913 6.5750 0.0000 -10615.8404 1360.0900 0.0000 0.0000 1763.9659 -7468.8630 300.3953 -9232.8289 -7468.8630 300.3953 -770.8395 -695.6718 30045.3358 -770.8395 -695.6718
ENERGY: 300000 3.6034 7.8136 5.8988 0.0000 -10715.6053 1452.7888 0.0000 0.0000 1769.2778 -7476.2229 301.2999 -9245.5007 -7458.8883 298.5667 -358.9587 -237.9118 30498.4478 -501.3586 -404.0555
ENERGY: 600000 6.3521 9.5262 2.4448 0.0000 -10651.7783 1453.1403 0.0000 0.0000 1761.0271 -7419.2878 299.8948 -9180.3149 -7454.5743 296.7225 167.2088 280.3729 30119.9601 -168.4438 -80.5842
ENERGY: 900000 3.4821 7.6149 5.4128 0.0000 -10630.7461 1440.0287 0.0000 0.0000 1793.5382 -7380.6694 305.4313 -9174.2076 -7434.8787 299.0003 16.2977 42.6963 30683.8791 -200.4431 -123.8722
ENERGY: 1200000 5.5459 8.9837 1.8323 0.0000 -10516.7052 1359.2758 0.0000 0.0000 1791.9004 -7349.1671 305.1524 -9141.0675 -7430.9016 299.9245 -531.1980 -450.7809 30599.1799 -227.8136 -158.8619
ENERGY: 1500000 4.1951 6.8499 3.0580 0.0000 -10722.3742 1458.7836 0.0000 0.0000 1789.4050 -7460.0826 304.7274 -9249.4876 -7429.4288 300.2476 -188.1853 -139.3891 30412.7238 -258.3682 -192.1385
TCL: Running FEP window   9: Lambda1 0.39999999999999997 Lambda2 0.44999999999999996 [dLambda 0.04999999999999999]
TCL: Setting parameter firsttimestep to 0
TCL: Setting parameter alchLambda to 0.39999999999999997
Info: NONBONDED TABLE R-SQUARED SPACING: 0.0625
Info: NONBONDED TABLE SIZE: 705 POINTS
TCL: Setting parameter alchLambda2 to 0.44999999999999996
Info: NONBONDED TABLE R-SQUARED SPACING: 0.0625
Info: NONBONDED TABLE SIZE: 705 POINTS
TCL: Running for 1500000 steps
ETITLE: TS BOND ANGLE DIHED IMPRP ELECT VDW BOUNDARY MISC KINETIC TOTAL TEMP POTENTIAL TOTALAVG TEMPAVG PRESSURE GPRESSURE VOLUME PRESSAVG GPRESSAVG
ENERGY: 0 4.1951 6.8499 3.0580 0.0000 -10722.3732 1459.0405 0.0000 0.0000 1788.5679 -7460.6618 304.5849 -9249.2297 -7460.6618 304.5849 -210.9227 -128.2690 30412.7238 -210.9227 -128.2690
ENERGY: 300000 3.4161 10.3195 7.3752 0.0000 -10652.9287 1453.2289 0.0000 0.0000 1779.1845 -7399.4044 302.9869 -9178.5890 -7428.3172 302.4314 48.6983 96.8248 30424.6931 -25.8111 33.3297
ENERGY: 600000 5.5653 8.6649 5.0888 0.0000 -10523.1682 1358.4488 0.0000 0.0000 1830.9049 -7314.4955 311.7947 -9145.4004 -7429.9813 304.3824 -804.0526 -746.1780 30518.7311 -271.9334 -209.5363
ENERGY: 900000 10.1961 6.2918 6.7919 0.0000 -10557.8638 1335.8707 0.0000 0.0000 1759.1651 -7439.5481 299.5777 -9198.7132 -7436.5894 302.9311 -946.0705 -871.1379 30095.4196 -389.7969 -325.4249
ENERGY: 1200000 4.2869 6.6356 2.9226 0.0000 -10711.1423 1432.8453 0.0000 0.0000 1808.6658 -7455.7861 308.0075 -9264.4519 -7433.0433 302.6323 -384.6456 -355.2078 30608.7429 -312.5956 -259.8328
ENERGY: 1500000 1.9584 7.3540 2.7367 0.0000 -10568.0946 1342.3207 0.0000 0.0000 1698.7411 -7514.9838 289.2878 -9213.7249 -7447.6109 300.6750 -726.8725 -690.2595 30352.5714 -248.2934 -193.2669
TCL: Running FEP window  10: Lambda1 0.44999999999999996 Lambda2 0.49999999999999994 [dLambda 0.04999999999999999]
TCL: Setting parameter firsttimestep to 0
TCL: Setting parameter alchLambda to 0.44999999999999996
Info: NONBONDED TABLE R-SQUARED SPACING: 0.0625
Info: NONBONDED TABLE SIZE: 705 POINTS
TCL: Setting parameter alchLambda2 to 0.49999999999999994
Info: NONBONDED TABLE R-SQUARED SPACING: 0.0625
Info: NONBONDED TABLE SIZE: 705 POINTS
TCL: Running for 1500000 steps
ETITLE: TS BOND ANGLE DIHED IMPRP ELECT VDW BOUNDARY MISC KINETIC TOTAL TEMP POTENTIAL TOTALAVG TEMPAVG PRESSURE GPRESSURE VOLUME PRESSAVG GPRESSAVG
ENERGY: 0 1.9584 7.3540 2.7367 0.0000 -10568.0953 1342.2808 0.0000 0.0000 1697.8765 -7515.8889 289.1406 -9213.7655 -7515.8889 289.1406 -760.1971 -684.1870 30352.5714 -760.1971 -684.1870
ENERGY: 300000 6.0083 7.7453 4.2990 0.0000 -10681.7444 1391.8799 0.0000 0.0000 1758.0267 -7513.7852 299.3838 -9271.8119 -7499.9678 297.2620 -457.6838 -417.0610 29936.2041 -291.7839 -228.4064
ENERGY: 600000 5.3169 5.6192 3.3321 0.0000 -10607.8456 1428.5750 0.0000 0.0000 1680.7287 -7484.2737 286.2204 -9165.0024 -7470.2905 294.6717 -173.1959 -38.6669 30294.6508 -266.7787 -188.0784
ENERGY: 900000 3.7664 6.8094 7.7626 0.0000 -10530.5769 1341.5202 0.0000 0.0000 1749.2114 -7421.5070 297.8826 -9170.7184 -7446.5017 295.6658 -814.8002 -781.4757 30483.5346 -187.4415 -114.2031
ENERGY: 1200000 4.2704 10.5991 3.6330 0.0000 -10722.4741 1508.6644 0.0000 0.0000 1729.2515 -7466.0558 294.4836 -9195.3072 -7443.7382 296.2281 706.0737 760.5179 29994.5663 -49.3273 23.3040
ENERGY: 1500000 4.9451 7.1699 3.2872 0.0000 -10732.2967 1540.0641 0.0000 0.0000 1729.0521 -7447.7782 294.4496 -9176.8303 -7443.1648 296.9036 834.4954 881.6720 30072.8412 54.0217 124.0406
TCL: Running FEP window  11: Lambda1 0.49999999999999994 Lambda2 0.5499999999999999 [dLambda 0.04999999999999999]
TCL: Setting parameter firsttimestep to 0
TCL: Setting parameter alchLambda to 0.49999999999999994
Info: NONBONDED TABLE R-SQUARED SPACING: 0.0625
Info: NONBONDED TABLE SIZE: 705 POINTS
TCL: Setting parameter alchLambda2 to 0.5499999999999999
Info: NONBONDED TABLE R-SQUARED SPACING: 0.0625
Info: NONBONDED TABLE SIZE: 705 POINTS
TCL: Running for 1500000 steps
ETITLE: TS BOND ANGLE DIHED IMPRP ELECT VDW BOUNDARY MISC KINETIC TOTAL TEMP POTENTIAL TOTALAVG TEMPAVG PRESSURE GPRESSURE VOLUME PRESSAVG GPRESSAVG
ENERGY: 0 4.9451 7.1699 3.2872 0.0000 -10732.2965 1539.4804 0.0000 0.0000 1728.1232 -7449.2907 294.2914 -9177.4139 -7449.2907 294.2914 807.8877 887.5673 30072.8412 807.8877 887.5673
ENERGY: 300000 0.9782 8.1350 5.0718 0.0000 -10615.3909 1376.8263 0.0000 0.0000 1783.3094 -7441.0702 303.6894 -9224.3796 -7416.7050 299.0779 -346.1911 -278.8305 29850.2291 94.4431 166.1334
ENERGY: 600000 3.7727 5.6544 3.1595 0.0000 -10625.5125 1411.9050 0.0000 0.0000 1732.3143 -7468.7067 295.0051 -9201.0210 -7439.4070 296.8635 -33.1916 41.2335 30099.0149 -146.9058 -80.2207
ENERGY: 900000 5.0395 5.5143 4.2503 0.0000 -10548.6921 1376.4113 0.0000 0.0000 1727.9998 -7429.4769 294.2704 -9157.4767 -7448.7715 295.9864 -212.3716 -275.0201 30171.5837 -28.7404 33.1905
ENERGY: 1200000 4.1182 9.2723 3.9150 0.0000 -10629.5372 1433.5352 0.0000 0.0000 1813.7875 -7364.9091 308.8797 -9178.6966 -7444.1945 297.1697 15.2239 85.4872 30452.3957 -21.6869 41.4158
ENERGY: 1500000 6.6306 9.1307 4.3466 0.0000 -10793.1029 1509.5448 0.0000 0.0000 1777.5266 -7485.9236 302.7046 -9263.4502 -7443.4247 297.9209 474.9274 598.9170 29803.1732 -17.4107 50.0207
TCL: Running FEP window  12: Lambda1 0.5499999999999999 Lambda2 0.6    [dLambda 0.050000000000000044]
TCL: Setting parameter firsttimestep to 0
TCL: Setting parameter alchLambda to 0.5499999999999999
Info: NONBONDED TABLE R-SQUARED SPACING: 0.0625
Info: NONBONDED TABLE SIZE: 705 POINTS
TCL: Setting parameter alchLambda2 to 0.6
Info: NONBONDED TABLE R-SQUARED SPACING: 0.0625
Info: NONBONDED TABLE SIZE: 705 POINTS
TCL: Running for 1500000 steps
ETITLE: TS BOND ANGLE DIHED IMPRP ELECT VDW BOUNDARY MISC KINETIC TOTAL TEMP POTENTIAL TOTALAVG TEMPAVG PRESSURE GPRESSURE VOLUME PRESSAVG GPRESSAVG
ENERGY: 0 6.6306 9.1307 4.3466 0.0000 -10793.4962 1510.1365 0.0000 0.0000 1776.6615 -7486.5903 302.5573 -9263.2518 -7486.5903 302.5573 529.6819 614.3092 29803.1732 529.6819 614.3092
ENERGY: 300000 5.4436 8.2629 4.2898 0.0000 -10621.8476 1415.6788 0.0000 0.0000 1792.7755 -7395.3970 305.3014 -9188.1725 -7476.0075 295.9125 -189.4297 -152.8073 30159.5116 -105.8158 -45.0327
ENERGY: 600000 7.5712 7.5717 3.5578 0.0000 -10617.6700 1368.8364 0.0000 0.0000 1686.3052 -7543.8276 287.1700 -9230.1328 -7468.7234 295.8240 -1034.4108 -970.0784 30415.6528 41.3188 107.4131
ENERGY: 900000 1.6750 6.5968 6.4831 0.0000 -10666.0270 1427.4609 0.0000 0.0000 1727.6910 -7496.1203 294.2178 -9223.8113 -7463.5125 295.4403 -345.9769 -295.2904 30558.4109 -124.7271 -60.7531
ENERGY: 1200000 4.5682 5.0780 5.0334 0.0000 -10597.0727 1442.8795 0.0000 0.0000 1841.2698 -7298.2439 313.5598 -9139.5137 -7450.4504 297.2720 128.0199 191.2546 30317.7939 -81.5685 -23.3818
ENERGY: 1500000 4.8647 4.0415 4.2324 0.0000 -10577.3051 1429.0540 0.0000 0.0000 1744.0572 -7391.0553 297.0049 -9135.1125 -7445.2325 297.3819 130.3715 213.8871 30456.2434 -50.7309 6.5884
TCL: Running FEP window  13: Lambda1 0.6    Lambda2 0.65   [dLambda 0.050000000000000044]
TCL: Setting parameter firsttimestep to 0
TCL: Setting parameter alchLambda to 0.6
Info: NONBONDED TABLE R-SQUARED SPACING: 0.0625
Info: NONBONDED TABLE SIZE: 705 POINTS
TCL: Setting parameter alchLambda2 to 0.65
Info: NONBONDED TABLE R-SQUARED SPACING: 0.0625
Info: NONBONDED TABLE SIZE: 705 POINTS
TCL: Running for 1500000 steps
ETITLE: TS BOND ANGLE DIHED IMPRP ELECT VDW BOUNDARY MISC KINETIC TOTAL TEMP POTENTIAL TOTALAVG TEMPAVG PRESSURE GPRESSURE VOLUME PRESSAVG GPRESSAVG
ENERGY: 0 4.8647 4.0415 4.2324 0.0000 -10578.4138 1429.2440 0.0000 0.0000 1743.1921 -7392.8391 296.8576 -9136.0312 -7392.8391 296.8576 130.1993 223.9440 30456.2434 130.1993 223.9440
ENERGY: 300000 6.3148 9.2163 3.7213 0.0000 -10574.0684 1396.6888 0.0000 0.0000 1770.6437 -7387.4836 301.5325 -9158.1272 -7415.7565 298.9246 2.8973 82.1337 30084.9358 -65.6253 -15.4397
ENERGY: 600000 6.9391 8.4661 5.7561 0.0000 -10595.1302 1437.5151 0.0000 0.0000 1777.9097 -7358.5440 302.7698 -9136.4537 -7418.5977 299.8354 116.7750 219.5824 30142.4219 -47.5371 9.1093
ENERGY: 900000 3.2475 6.9605 2.1618 0.0000 -10773.8098 1546.1749 0.0000 0.0000 1772.9667 -7442.2984 301.9281 -9215.2651 -7414.3415 299.1969 770.2136 864.0073 30149.3209 47.8640 111.3330
ENERGY: 1200000 2.7046 7.1489 3.1327 0.0000 -10764.3669 1502.6171 0.0000 0.0000 1776.4903 -7472.2734 302.5281 -9248.7637 -7430.4084 299.1996 307.6532 490.7992 30024.2840 -60.6461 4.0735
ENERGY: 1500000 3.4068 6.2470 4.3987 0.0000 -10586.8924 1430.4179 0.0000 0.0000 1805.7838 -7336.6382 307.5167 -9142.4220 -7425.5760 299.8576 469.3912 483.8890 29992.0505 -43.1536 23.2867
TCL: Running FEP window  14: Lambda1 0.65   Lambda2 0.7000000000000001 [dLambda 0.050000000000000044]
TCL: Setting parameter firsttimestep to 0
TCL: Setting parameter alchLambda to 0.65
Info: NONBONDED TABLE R-SQUARED SPACING: 0.0625
Info: NONBONDED TABLE SIZE: 705 POINTS
TCL: Setting parameter alchLambda2 to 0.7000000000000001
Info: NONBONDED TABLE R-SQUARED SPACING: 0.0625
Info: NONBONDED TABLE SIZE: 705 POINTS
TCL: Running for 1500000 steps
ETITLE: TS BOND ANGLE DIHED IMPRP ELECT VDW BOUNDARY MISC KINETIC TOTAL TEMP POTENTIAL TOTALAVG TEMPAVG PRESSURE GPRESSURE VOLUME PRESSAVG GPRESSAVG
ENERGY: 0 3.4068 6.2470 4.3987 0.0000 -10587.0736 1430.2959 0.0000 0.0000 1804.9168 -7337.8084 307.3690 -9142.7252 -7337.8084 307.3690 400.6630 493.0369 29992.0505 400.6630 493.0369
ENERGY: 300000 4.8904 6.9352 4.7146 0.0000 -10602.4576 1399.4899 0.0000 0.0000 1754.9992 -7431.4284 298.8683 -9186.4276 -7430.8982 301.8611 -390.7766 -305.1349 30568.7674 -57.9930 -1.1399
ENERGY: 600000 7.4259 7.1542 8.5552 0.0000 -10653.9560 1380.8027 0.0000 0.0000 1776.1175 -7473.9006 302.4646 -9250.0181 -7448.3378 299.4471 -603.9815 -569.6372 30336.5812 -127.5853 -71.5702
ENERGY: 900000 3.1667 7.8567 3.2495 0.0000 -10502.4646 1363.3219 0.0000 0.0000 1778.5753 -7346.2945 302.8832 -9124.8698 -7441.9800 299.1112 -262.2871 -246.5084 30456.0056 -27.4444 25.3481
ENERGY: 1200000 2.9661 8.8264 10.1096 0.0000 -10732.9706 1446.5043 0.0000 0.0000 1745.3827 -7519.1816 297.2306 -9264.5643 -7444.0261 299.9802 51.4588 112.7660 30122.2921 -11.7708 41.8777
ENERGY: 1500000 2.5160 7.8039 3.9533 0.0000 -10726.0276 1544.5615 0.0000 0.0000 1760.4172 -7406.7756 299.7909 -9167.1928 -7439.9569 300.1203 1179.5074 1274.0998 29978.0422 49.3998 107.2332
TCL: Running FEP window  15: Lambda1 0.7000000000000001 Lambda2 0.7500000000000001 [dLambda 0.050000000000000044]
TCL: Setting parameter firsttimestep to 0
TCL: Setting parameter alchLambda to 0.7000000000000001
Info: NONBONDED TABLE R-SQUARED SPACING: 0.0625
Info: NONBONDED TABLE SIZE: 705 POINTS
TCL: Setting parameter alchLambda2 to 0.7500000000000001
Info: NONBONDED TABLE R-SQUARED SPACING: 0.0625
Info: NONBONDED TABLE SIZE: 705 POINTS
TCL: Running for 1500000 steps
ETITLE: TS BOND ANGLE DIHED IMPRP ELECT VDW BOUNDARY MISC KINETIC TOTAL TEMP POTENTIAL TOTALAVG TEMPAVG PRESSURE GPRESSURE VOLUME PRESSAVG GPRESSAVG
ENERGY: 0 2.5161 7.8039 3.9533 0.0000 -10726.4235 1544.7331 0.0000 0.0000 1759.5290 -7407.8880 299.6397 -9167.4170 -7407.8880 299.6397 1192.6217 1288.7877 29978.0422 1192.6217 1288.7877
ENERGY: 300000 2.0701 10.2629 4.4349 0.0000 -10611.8338 1438.3995 0.0000 0.0000 1782.1018 -7374.5646 303.4837 -9156.6665 -7391.2601 304.5575 132.0777 219.5763 30341.7945 118.9543 200.9687
ENERGY: 600000 4.0404 6.6294 3.2083 0.0000 -10726.1276 1483.8284 0.0000 0.0000 1847.2503 -7381.1708 314.5782 -9228.4211 -7399.9388 304.3089 431.6265 473.1280 30167.5347 89.7881 165.2444
ENERGY: 900000 5.7303 8.6614 3.1448 0.0000 -10690.4468 1495.9751 0.0000 0.0000 1823.1480 -7353.7872 310.4737 -9176.9353 -7403.7725 304.1365 619.1086 689.4351 29966.9879 147.0124 223.6877
ENERGY: 1200000 7.1578 7.9414 4.0711 0.0000 -10532.2952 1376.6203 0.0000 0.0000 1750.0846 -7386.4199 298.0314 -9136.5046 -7407.1282 304.1306 -590.7649 -511.1978 31078.3326 20.0438 97.6498
ENERGY: 1500000 2.7343 8.8526 5.8006 0.0000 -10602.5352 1486.2478 0.0000 0.0000 1797.7628 -7301.1372 306.1507 -9098.9000 -7409.1327 303.2788 626.5730 730.5922 30463.4368 -13.6413 66.1420
TCL: Running FEP window  16: Lambda1 0.7500000000000001 Lambda2 0.8000000000000002 [dLambda 0.050000000000000044]
TCL: Setting parameter firsttimestep to 0
TCL: Setting parameter alchLambda to 0.7500000000000001
Info: NONBONDED TABLE R-SQUARED SPACING: 0.0625
Info: NONBONDED TABLE SIZE: 705 POINTS
TCL: Setting parameter alchLambda2 to 0.8000000000000002
Info: NONBONDED TABLE R-SQUARED SPACING: 0.0625
Info: NONBONDED TABLE SIZE: 705 POINTS
TCL: Running for 1500000 steps
ETITLE: TS BOND ANGLE DIHED IMPRP ELECT VDW BOUNDARY MISC KINETIC TOTAL TEMP POTENTIAL TOTALAVG TEMPAVG PRESSURE GPRESSURE VOLUME PRESSAVG GPRESSAVG
ENERGY: 0 2.7343 8.8526 5.8006 0.0000 -10603.0402 1486.6101 0.0000 0.0000 1796.8944 -7302.1482 306.0028 -9099.0426 -7302.1482 306.0028 666.3074 746.8836 30463.4368 666.3074 746.8836
ENERGY: 300000 2.0937 6.9056 3.7836 0.0000 -10545.8579 1369.6079 0.0000 0.0000 1745.7110 -7417.7560 297.2865 -9163.4670 -7412.5942 299.1779 -274.3166 -199.9966 30694.1319 -81.2568 -9.7892
ENERGY: 600000 4.3132 5.6630 3.9600 0.0000 -10688.6923 1416.0517 0.0000 0.0000 1805.1929 -7453.5114 307.4160 -9258.7043 -7434.6035 299.5181 -557.1367 -441.8014 30594.0116 -188.9916 -113.7785
ENERGY: 900000 6.7384 7.8198 6.0757 0.0000 -10697.7752 1446.9022 0.0000 0.0000 1728.3117 -7501.9273 294.3235 -9230.2390 -7439.7945 298.1110 -370.9290 -305.2738 30460.5134 -258.1896 -186.5290
ENERGY: 1200000 3.0175 10.7196 6.8976 0.0000 -10638.3880 1458.0711 0.0000 0.0000 1737.8772 -7421.8050 295.9525 -9159.6822 -7431.3013 299.4592 634.2410 680.0304 30166.6467 -174.7240 -104.6888
ENERGY: 1500000 3.1388 7.6043 4.5486 0.0000 -10626.3911 1387.8558 0.0000 0.0000 1825.9558 -7397.2879 310.9519 -9223.2437 -7434.2836 299.4001 -158.4987 -186.5344 30161.1619 -197.4360 -138.0814
TCL: Running FEP window  17: Lambda1 0.8000000000000002 Lambda2 0.8500000000000002 [dLambda 0.050000000000000044]
TCL: Setting parameter firsttimestep to 0
TCL: Setting parameter alchLambda to 0.8000000000000002
Info: NONBONDED TABLE R-SQUARED SPACING: 0.0625
Info: NONBONDED TABLE SIZE: 705 POINTS
TCL: Setting parameter alchLambda2 to 0.8500000000000002
Info: NONBONDED TABLE R-SQUARED SPACING: 0.0625
Info: NONBONDED TABLE SIZE: 705 POINTS
TCL: Running for 1500000 steps
ETITLE: TS BOND ANGLE DIHED IMPRP ELECT VDW BOUNDARY MISC KINETIC TOTAL TEMP POTENTIAL TOTALAVG TEMPAVG PRESSURE GPRESSURE VOLUME PRESSAVG GPRESSAVG
ENERGY: 0 3.1388 7.6043 4.5486 0.0000 -10626.7026 1387.2784 0.0000 0.0000 1825.1064 -7399.0262 310.8072 -9224.1325 -7399.0262 310.8072 -253.6594 -178.1032 30161.1619 -253.6594 -178.1032
ENERGY: 300000 4.8151 8.8634 7.0809 0.0000 -10630.1682 1385.4785 0.0000 0.0000 1775.7848 -7448.1455 302.4080 -9223.9303 -7438.9805 305.2864 -254.6747 -217.0258 30029.9691 -457.4590 -410.9813
ENERGY: 600000 2.3183 6.4914 3.7005 0.0000 -10748.2119 1509.7860 0.0000 0.0000 1775.2480 -7450.6677 302.3166 -9225.9157 -7438.6519 303.6300 527.9497 566.8908 30249.5944 -93.8457 -46.3216
ENERGY: 900000 4.3243 7.2891 2.8741 0.0000 -10751.1323 1488.9178 0.0000 0.0000 1783.0505 -7464.6764 303.6453 -9247.7269 -7453.1550 302.3088 237.6931 339.6317 30518.7439 -18.9595 33.2636
ENERGY: 1200000 2.7633 5.5086 3.4170 0.0000 -10622.8134 1370.4632 0.0000 0.0000 1693.0415 -7547.6197 288.3172 -9240.6612 -7460.5762 301.4937 -717.4199 -590.0969 30673.4178 -107.3455 -52.1816
ENERGY: 1500000 2.1302 5.7959 4.6927 0.0000 -10576.4791 1394.8970 0.0000 0.0000 1754.6235 -7414.3397 298.8043 -9168.9632 -7464.3438 301.4545 -80.8314 -54.7860 30477.6038 -72.3120 -18.8277
TCL: Running FEP window  18: Lambda1 0.8500000000000002 Lambda2 0.9000000000000002 [dLambda 0.050000000000000044]
TCL: Setting parameter firsttimestep to 0
TCL: Setting parameter alchLambda to 0.8500000000000002
Info: NONBONDED TABLE R-SQUARED SPACING: 0.0625
Info: NONBONDED TABLE SIZE: 705 POINTS
TCL: Setting parameter alchLambda2 to 0.9000000000000002
Info: NONBONDED TABLE R-SQUARED SPACING: 0.0625
Info: NONBONDED TABLE SIZE: 705 POINTS
TCL: Running for 1500000 steps
ETITLE: TS BOND ANGLE DIHED IMPRP ELECT VDW BOUNDARY MISC KINETIC TOTAL TEMP POTENTIAL TOTALAVG TEMPAVG PRESSURE GPRESSURE VOLUME PRESSAVG GPRESSAVG
ENERGY: 0 2.1302 5.7959 4.6927 0.0000 -10577.6129 1396.4322 0.0000 0.0000 1753.7644 -7414.7974 298.6580 -9168.5618 -7414.7974 298.6580 -103.5781 -26.6952 30477.6038 -103.5781 -26.6952
ENERGY: 300000 3.9192 7.8343 5.9285 0.0000 -10611.5114 1400.2186 0.0000 0.0000 1775.7147 -7417.8959 302.3960 -9193.6107 -7460.0123 300.0058 -299.9278 -237.4993 30521.7083 -396.4017 -329.4093
ENERGY: 600000 5.6819 6.4472 3.3169 0.0000 -10666.3924 1524.6899 0.0000 0.0000 1770.7357 -7355.5208 301.5481 -9126.2564 -7446.3799 299.3769 871.0454 909.9999 30470.0938 -124.4320 -54.6997
ENERGY: 900000 4.2599 8.0655 5.8476 0.0000 -10503.1404 1348.9844 0.0000 0.0000 1803.7796 -7332.2033 307.1754 -9135.9829 -7439.5091 298.7727 -684.1244 -683.2722 30773.8377 -165.9569 -117.2273
ENERGY: 1200000 7.0692 8.4898 4.8425 0.0000 -10637.7304 1444.4124 0.0000 0.0000 1755.4297 -7417.4868 298.9416 -9172.9165 -7442.3089 299.6359 -112.5718 -78.6105 30569.8917 -212.7742 -156.6953
ENERGY: 1500000 4.1394 10.9669 2.7913 0.0000 -10608.7448 1326.2700 0.0000 0.0000 1746.3361 -7518.2410 297.3930 -9264.5772 -7443.0143 299.3002 -828.9013 -806.0901 30052.8089 -247.5232 -190.4438
TCL: Running FEP window  19: Lambda1 0.9000000000000002 Lambda2 0.9500000000000003 [dLambda 0.050000000000000044]
TCL: Setting parameter firsttimestep to 0
TCL: Setting parameter alchLambda to 0.9000000000000002
Info: NONBONDED TABLE R-SQUARED SPACING: 0.0625
Info: NONBONDED TABLE SIZE: 705 POINTS
TCL: Setting parameter alchLambda2 to 0.9500000000000003
Info: NONBONDED TABLE R-SQUARED SPACING: 0.0625
Info: NONBONDED TABLE SIZE: 705 POINTS
TCL: Running for 1500000 steps
ETITLE: TS BOND ANGLE DIHED IMPRP ELECT VDW BOUNDARY MISC KINETIC TOTAL TEMP POTENTIAL TOTALAVG TEMPAVG PRESSURE GPRESSURE VOLUME PRESSAVG GPRESSAVG
ENERGY: 0 4.1394 10.9669 2.7913 0.0000 -10609.4070 1325.8539 0.0000 0.0000 1745.4522 -7520.2033 297.2425 -9265.6554 -7520.2033 297.2425 -891.9579 -801.5961 30052.8089 -891.9579 -801.5961
ENERGY: 300000 1.0218 11.9118 3.8510 0.0000 -10642.6368 1394.6902 0.0000 0.0000 1725.6062 -7505.5560 293.8628 -9231.1621 -7433.0017 299.9052 -261.0584 -273.9029 30657.4368 -586.8883 -533.2762
ENERGY: 600000 4.5608 10.9789 6.4787 0.0000 -10561.2717 1428.3705 0.0000 0.0000 1766.7020 -7344.1808 300.8612 -9110.8828 -7422.8508 301.4996 420.7542 543.6115 29966.0860 -332.6014 -265.1641
ENERGY: 900000 2.0716 6.6124 4.4778 0.0000 -10655.6016 1403.5644 0.0000 0.0000 1830.1151 -7408.7603 311.6602 -9238.8753 -7428.7111 302.0203 -155.3225 -119.0002 30225.2650 -157.6915 -96.3501
ENERGY: 1200000 1.9328 7.4647 2.3519 0.0000 -10661.8612 1460.1514 0.0000 0.0000 1770.2027 -7419.7576 301.4574 -9189.9604 -7429.8864 301.3078 156.2322 266.7120 30305.5170 -130.5544 -68.6687
ENERGY: 1500000 3.8268 7.9030 4.3750 0.0000 -10754.5380 1468.2260 0.0000 0.0000 1728.2840 -7541.9232 294.3188 -9270.2072 -7431.7256 301.0354 104.0252 216.5472 30110.0280 -114.5708 -47.0113
TCL: Running FEP window  20: Lambda1 0.9500000000000003 Lambda2 1.0    [dLambda 0.04999999999999971]
TCL: Setting parameter firsttimestep to 0
TCL: Setting parameter alchLambda to 0.9500000000000003
Info: NONBONDED TABLE R-SQUARED SPACING: 0.0625
Info: NONBONDED TABLE SIZE: 705 POINTS
TCL: Setting parameter alchLambda2 to 1.0
Info: NONBONDED TABLE R-SQUARED SPACING: 0.0625
Info: NONBONDED TABLE SIZE: 705 POINTS
TCL: Running for 1500000 steps
ETITLE: TS BOND ANGLE DIHED IMPRP ELECT VDW BOUNDARY MISC KINETIC TOTAL TEMP POTENTIAL TOTALAVG TEMPAVG PRESSURE GPRESSURE VOLUME PRESSAVG GPRESSAVG
ENERGY: 0 3.8268 7.9030 4.3750 0.0000 -10755.1056 1467.5465 0.0000 0.0000 1727.4145 -7544.0398 294.1707 -9271.4543 -7544.0398 294.1707 150.7657 223.6827 30110.0280 150.7657 223.6827
ENERGY: 300000 4.3392 11.8775 2.5464 0.0000 -10632.7221 1462.2783 0.0000 0.0000 1786.5895 -7365.0912 304.2480 -9151.6807 -7437.8034 297.5705 576.2625 686.5033 30436.1611 -106.0726 -34.8778
ENERGY: 600000 2.6757 5.2530 5.3205 0.0000 -10541.7704 1345.2046 0.0000 0.0000 1794.4628 -7388.8537 305.5887 -9183.3165 -7429.4511 299.6693 -615.9943 -477.3690 30417.0588 -177.6111 -111.8437
ENERGY: 900000 2.0684 4.7444 6.1709 0.0000 -10691.5339 1425.9582 0.0000 0.0000 1757.3816 -7495.2106 299.2740 -9252.5921 -7434.2194 300.0485 -168.8019 -129.5566 30500.2569 -117.5776 -52.2399
ENERGY: 1200000 5.4639 9.9030 3.6133 0.0000 -10591.3076 1446.6523 0.0000 0.0000 1758.9921 -7366.6829 299.5483 -9125.6751 -7437.8616 300.0681 287.1760 282.1551 30165.9226 -83.6785 -25.0012
ENERGY: 1500000 2.6426 10.1506 3.6036 0.0000 -10566.4007 1365.0462 0.0000 0.0000 1765.5672 -7419.3904 300.6680 -9184.9576 -7443.8894 300.1521 -319.4018 -285.9544 30531.9298 -59.6320 -2.2068
TCL: Exiting due to exit command.
