Info: SIMULATION PARAMETERS:
Info: TIMESTEP               2
Info: NUMBER OF STEPS        0
Info: STEPS PER CYCLE        10
Info: PERIODIC CELL BASIS 1  32.1379 0 0
Info: PERIODIC CELL BASIS 2  0 29.9493 0
Info: PERIODIC CELL BASIS 3  0 0 31.3747
Info: PERIODIC CELL CENTER   0 0 0
Info: WRAPPING WATERS AROUND PERIODIC BOUNDARIES ON OUTPUT.
Info: WRAPPING ALL CLUSTERS AROUND PERIODIC BOUNDARIES ON OUTPUT.
Info: FIRST LDB TIMESTEP     50
Info: LAST LDB TIMESTEP     -1
Info: HOM BACKGROUND SCALING 1
Info: PME BACKGROUND SCALING 1
Info: MIN ATOMS PER PATCH    40
Info: EMPTY PATCH LOAD       40 ATOMS
Info: VELOCITY FILE          mobley_3105103_equil.vel
Info: CENTER OF MASS MOVING INITIALLY? NO
Info: DIELECTRIC             1
Info: EXCLUDE                SCALED ONE-FOUR
Info: 1-4 ELECTROSTATICS SCALED BY 0.833333
Info: MODIFIED 1-4 VDW PARAMETERS WILL BE USED
Info: DCD FILENAME           mobley_3105103_prod.dcd
Info: DCD FREQUENCY          100000
Info: DCD FIRST STEP         100000
Info: DCD FILE WILL CONTAIN UNIT CELL DATA
Info: XST FILENAME           mobley_3105103_prod.xst
Info: XST FREQUENCY          100000
Info: NO VELOCITY DCD OUTPUT
Info: NO FORCE DCD OUTPUT
Info: OUTPUT FILENAME        mobley_3105103_prod
Info: BINARY OUTPUT FILES WILL BE USED
Info: RESTART FILENAME       mobley_3105103_prod.restart
Info: RESTART FREQUENCY      100000
Info: BINARY RESTART FILES WILL BE USED
Info: CUTOFF                 9
Info: PAIRLIST DISTANCE      11
Info: PAIRLIST SHRINK RATE   0.01
Info: PAIRLIST GROW RATE     0.01
Info: PAIRLIST TRIGGER       0.3
Info: PAIRLISTS PER CYCLE    2
Info: PAIRLISTS ENABLED
Info: MARGIN                 2
Info: HYDROGEN GROUP CUTOFF  2.5
Info: PATCH DIMENSION        15.5
Info: ENERGY OUTPUT STEPS    100000
Info: ENERGY EVALUATION STEPS    100000
Info: OUTPUT ENERGY PRECISION 4
Info: CROSSTERM ENERGY INCLUDED IN DIHEDRAL
Info: TIMING OUTPUT STEPS    1000000
Info: PRESSURE OUTPUT STEPS  100000
Info: ALCHEMICAL FEP ON
Info: FEP CURRENT LAMBDA VALUE     1
Info: FEP COMPARISON LAMBDA VALUE  0.95
Info: FEP INTRA-ALCHEMICAL NON-BONDED INTERACTIONS WILL BE RETAINED
Info: FEP INTRA-ALCHEMICAL BONDED INTERACTIONS WILL BE RETAINED
Info: FEP VDW SHIFTING COEFFICIENT 5
Info: FEP ELEC. ACTIVE FOR ANNIHILATED PARTICLES BETWEEN LAMBDA = 0 AND LAMBDA = 0.5
Info: FEP ELEC. ACTIVE FOR EXNIHILATED PARTICLES BETWEEN LAMBDA = 0.5 AND LAMBDA = 1
Info: FEP VDW ACTIVE FOR ANNIHILATED PARTICLES BETWEEN LAMBDA = 0 AND LAMBDA = 1
Info: FEP VDW ACTIVE FOR EXNIHILATED PARTICLES BETWEEN LAMBDA = 0 AND LAMBDA = 1
Info: FEP BOND ACTIVE FOR ANNIHILATED PARTICLES BETWEEN LAMBDA = 1 AND LAMBDA = 1
Info: FEP BOND ACTIVE FOR EXNIHILATED PARTICLES BETWEEN LAMBDA = 0 AND LAMBDA = 0
Info: LANGEVIN DYNAMICS ACTIVE
Info: LANGEVIN TEMPERATURE   300
Info: LANGEVIN USING BBK INTEGRATOR
Info: LANGEVIN DAMPING COEFFICIENT IS 1 INVERSE PS
Info: LANGEVIN DYNAMICS APPLIED TO HYDROGENS
Info: LANGEVIN PISTON PRESSURE CONTROL ACTIVE
Info:        TARGET PRESSURE IS 1.01325 BAR
Info:     OSCILLATION PERIOD IS 50 FS
Info:             DECAY TIME IS 25 FS
Info:     PISTON TEMPERATURE IS 300 K
Info:       PRESSURE CONTROL IS GROUP-BASED
Info:    INITIAL STRAIN RATE IS -1.81446e-05 -1.81446e-05 -1.81446e-05
Info:       CELL FLUCTUATION IS ISOTROPIC
Info: PARTICLE MESH EWALD (PME) ACTIVE
Info: PME TOLERANCE               1e-06
Info: PME EWALD COEFFICIENT       0.348832
Info: PME INTERPOLATION ORDER     4
Info: PME GRID DIMENSIONS         36 32 32
Info: PME MAXIMUM GRID SPACING    1
Info: PME CALCULATION WILL BE PERFORMED ON GPU
Info: FULL ELECTROSTATIC EVALUATION FREQUENCY      2
Info: USING VERLET I (r-RESPA) MTS SCHEME.
Info: C1 SPLITTING OF LONG RANGE ELECTROSTATICS
Info: PLACING ATOMS IN PATCHES BY HYDROGEN GROUPS
Info: RIGID BONDS TO HYDROGEN : ALL
Info:         ERROR TOLERANCE : 1e-08
Info:          MAX ITERATIONS : 100
Info: RIGID WATER USING SETTLE ALGORITHM
Info: RANDOM NUMBER SEED     1743664554
Info: USE HYDROGEN BONDS?    NO
Info: Using AMBER format force field!
Info: AMBER PARM FILE        mobley_3105103.prmtop
Info: COORDINATE PDB         mobley_3105103.pdb
Info: Exclusions will be read from PARM file!
Info: SCNB (VDW SCALING)     2
Info: USING ARITHMETIC MEAN TO COMBINE L-J SIGMA PARAMETERS
Info: BINARY COORDINATES     mobley_3105103_equil.coor
Info: SUMMARY OF PARAMETERS:
Info: 13 BONDS
Info: 20 ANGLES
Info:   20 HARMONIC
Info:   0 COSINE-BASED
Info: 14 DIHEDRAL
Info: 0 IMPROPER
Info: 0 CROSSTERM
Info: 0 VDW
Info: 45 VDW_PAIRS
Info: 0 NBTHOLE_PAIRS
Info: To read alchdata from file: mobley_3105103.pdb
Info: To read alchflag data from column: 5
Info: STRUCTURE SUMMARY:
Info: 2943 ATOMS
Info: 2943 BONDS
Info: 48 ANGLES
Info: 88 DIHEDRALS
Info: 0 IMPROPERS
Info: 0 CROSSTERMS
Info: 3051 EXCLUSIONS
Info: 2929 RIGID BONDS
Info: ALCH: 0 ATOMS TO DISAPPEAR IN FINAL STATE
Info: ALCH: 27 ATOMS TO APPEAR IN FINAL STATE
Info: 5900 DEGREES OF FREEDOM
Info: 986 HYDROGEN GROUPS
Info: 4 ATOMS IN LARGEST HYDROGEN GROUP
Info: 986 MIGRATION GROUPS
Info: 4 ATOMS IN LARGEST MIGRATION GROUP
Info: TOTAL MASS = 17728.2 amu
Info: TOTAL CHARGE = 2.6077e-08 e
Info: MASS DENSITY = 0.974856 g/cm^3
Info: ATOM DENSITY = 0.0974555 atoms/A^3
Info: ADDED 0 IMPLICIT EXCLUSIONS
Info: NONBONDED TABLE R-SQUARED SPACING: 0.0625
Info: NONBONDED TABLE SIZE: 705 POINTS
Info: REMOVING COM VELOCITY -0.306359 -0.0599676 -0.0893828
Info: Use 3D box decompostion in PME FFT.
Info: Updated CUDA force table with 4096 elements.
Info: Updated CUDA LJ table with 9 x 9 elements.
Info: Found 29 unique exclusion lists needing 88 bytes
TCL: Running for 1500000 steps
ETITLE: TS BOND ANGLE DIHED IMPRP ELECT VDW BOUNDARY MISC KINETIC TOTAL TEMP POTENTIAL TOTALAVG TEMPAVG PRESSURE GPRESSURE VOLUME PRESSAVG GPRESSAVG
ENERGY: 0 9.5889 22.6810 13.9629 0.0000 -10829.4786 1462.0173 0.0000 0.0000 1786.2132 -7535.0153 304.6995 -9321.2285 -7535.0153 304.6995 165.6656 250.0749 30198.3947 165.6656 250.0749
ENERGY: 300000 6.1641 20.0258 16.7342 0.0000 -10641.1995 1328.2382 0.0000 0.0000 1804.5656 -7465.4716 307.8301 -9270.0372 -7548.8712 299.8251 -774.9661 -672.9221 30293.7227 -389.2918 -315.8952
ENERGY: 600000 8.4744 13.0789 15.3686 0.0000 -10796.3931 1445.9338 0.0000 0.0000 1770.7562 -7542.7811 302.0627 -9313.5373 -7539.0230 298.6593 120.0027 98.9682 30340.9266 -250.3574 -197.3954
ENERGY: 900000 4.1430 18.0996 15.2436 0.0000 -10829.8686 1419.9464 0.0000 0.0000 1758.6931 -7613.7429 300.0050 -9372.4360 -7549.4353 297.6831 -276.5519 -182.2257 30083.5107 -66.0667 3.1558
ENERGY: 1200000 8.3488 14.4461 15.5803 0.0000 -10685.7258 1361.4913 0.0000 0.0000 1787.7149 -7498.1444 304.9556 -9285.8593 -7544.2374 298.2792 -413.8663 -485.1349 30431.1495 -132.0477 -71.7936
ENERGY: 1500000 7.2080 12.1894 22.0168 0.0000 -10743.5217 1384.8423 0.0000 0.0000 1785.3531 -7531.9121 304.5527 -9317.2652 -7544.9203 298.9060 -489.4720 -370.0093 30388.8207 -218.3464 -150.5090
TCL: Running FEP window   2: Lambda1 0.95   Lambda2 0.8999999999999999 [dLambda -0.050000000000000044]
TCL: Setting parameter firsttimestep to 0
TCL: Setting parameter alchLambda to 0.95
Info: NONBONDED TABLE R-SQUARED SPACING: 0.0625
Info: NONBONDED TABLE SIZE: 705 POINTS
TCL: Setting parameter alchLambda2 to 0.8999999999999999
Info: NONBONDED TABLE R-SQUARED SPACING: 0.0625
Info: NONBONDED TABLE SIZE: 705 POINTS
TCL: Running for 1500000 steps
ETITLE: TS BOND ANGLE DIHED IMPRP ELECT VDW BOUNDARY MISC KINETIC TOTAL TEMP POTENTIAL TOTALAVG TEMPAVG PRESSURE GPRESSURE VOLUME PRESSAVG GPRESSAVG
ENERGY: 0 7.2080 12.1894 22.0168 0.0000 -10739.8685 1384.4856 0.0000 0.0000 1784.4803 -7529.4884 304.4038 -9313.9687 -7529.4884 304.4038 -478.7730 -386.4689 30388.8207 -478.7730 -386.4689
ENERGY: 300000 5.5794 22.7948 13.6285 0.0000 -10776.6885 1401.5939 0.0000 0.0000 1759.2404 -7573.8515 300.0983 -9333.0920 -7569.3616 299.2353 -266.3613 -257.1684 30680.9191 116.5075 131.7872
ENERGY: 600000 7.0138 15.2319 14.6753 0.0000 -10841.6736 1514.0060 0.0000 0.0000 1751.3702 -7539.3764 298.7558 -9290.7466 -7560.4318 300.1622 764.8460 845.0449 30177.9755 326.3241 353.4724
ENERGY: 900000 15.8072 15.7853 12.9165 0.0000 -10611.4861 1299.5141 0.0000 0.0000 1741.9898 -7525.4733 297.1556 -9267.4630 -7548.1489 299.5837 -1223.2209 -1177.5941 30604.6482 66.8910 98.1192
ENERGY: 1200000 2.9771 16.9529 20.5601 0.0000 -10798.4829 1431.9618 0.0000 0.0000 1758.3074 -7567.7236 299.9392 -9326.0310 -7531.0790 300.7726 221.2698 290.7422 29911.2958 12.5432 48.1812
ENERGY: 1500000 8.6848 21.8833 15.4909 0.0000 -10813.4912 1472.0992 0.0000 0.0000 1714.1627 -7581.1704 292.4088 -9295.3331 -7534.1014 299.9030 244.9566 337.4729 30111.8543 15.3861 56.9792
TCL: Running FEP window   3: Lambda1 0.8999999999999999 Lambda2 0.8499999999999999 [dLambda -0.050000000000000044]
TCL: Setting parameter firsttimestep to 0
TCL: Setting parameter alchLambda to 0.8999999999999999
Info: NONBONDED TABLE R-SQUARED SPACING: 0.0625
Info: NONBONDED TABLE SIZE: 705 POINTS
TCL: Setting parameter alchLambda2 to 0.8499999999999999
Info: NONBONDED TABLE R-SQUARED SPACING: 0.0625
Info: NONBONDED TABLE SIZE: 705 POINTS
TCL: Running for 1500000 steps
ETITLE: TS BOND ANGLE DIHED IMPRP ELECT VDW BOUNDARY MISC KINETIC TOTAL TEMP POTENTIAL TOTALAVG TEMPAVG PRESSURE GPRESSURE VOLUME PRESSAVG GPRESSAVG
ENERGY: 0 8.6848 21.8833 15.4909 0.0000 -10809.8119 1471.3835 0.0000 0.0000 1713.2830 -7579.0864 292.2587 -9292.3694 -7579.0864 292.2587 228.8508 318.7193 30111.8543 228.8508 318.7193
ENERGY: 300000 5.7834 18.5456 15.2874 0.0000 -10723.9813 1345.9900 0.0000 0.0000 1727.5823 -7610.7927 294.6979 -9338.3750 -7569.3283 295.0385 -822.1055 -773.1676 30831.2542 -45.9822 -2.0281
ENERGY: 600000 5.1225 14.0673 18.4654 0.0000 -10897.3400 1512.8145 0.0000 0.0000 1740.8631 -7606.0072 296.9634 -9346.8703 -7574.0573 296.6631 486.2788 569.4680 30316.6227 122.4340 188.1807
ENERGY: 900000 7.1523 20.8455 14.0454 0.0000 -10876.1372 1462.7305 0.0000 0.0000 1758.9931 -7612.3704 300.0561 -9371.3634 -7559.7760 299.4009 34.6276 52.1426 30407.3124 51.1624 114.7453
ENERGY: 1200000 9.5215 14.0537 14.7211 0.0000 -10805.6483 1474.6919 0.0000 0.0000 1707.3145 -7585.3456 291.2406 -9292.6601 -7564.4982 298.1947 206.6193 256.6316 30323.3774 73.0624 129.6780
ENERGY: 1500000 12.3174 11.2478 21.8360 0.0000 -10822.1137 1499.4442 0.0000 0.0000 1738.0170 -7539.2512 296.4779 -9277.2682 -7561.5657 298.0820 253.4321 346.5278 30308.3210 87.9017 150.3711
TCL: Running FEP window   4: Lambda1 0.8499999999999999 Lambda2 0.7999999999999998 [dLambda -0.050000000000000044]
TCL: Setting parameter firsttimestep to 0
TCL: Setting parameter alchLambda to 0.8499999999999999
Info: NONBONDED TABLE R-SQUARED SPACING: 0.0625
Info: NONBONDED TABLE SIZE: 705 POINTS
TCL: Setting parameter alchLambda2 to 0.7999999999999998
Info: NONBONDED TABLE R-SQUARED SPACING: 0.0625
Info: NONBONDED TABLE SIZE: 705 POINTS
TCL: Running for 1500000 steps
ETITLE: TS BOND ANGLE DIHED IMPRP ELECT VDW BOUNDARY MISC KINETIC TOTAL TEMP POTENTIAL TOTALAVG TEMPAVG PRESSURE GPRESSURE VOLUME PRESSAVG GPRESSAVG
ENERGY: 0 12.3174 11.2478 21.8360 0.0000 -10819.1725 1497.5091 0.0000 0.0000 1737.1545 -7539.1076 296.3308 -9276.2621 -7539.1076 296.3308 229.9558 314.4451 30308.3210 229.9558 314.4451
ENERGY: 300000 5.1341 19.7994 12.2340 0.0000 -10884.1364 1468.4842 0.0000 0.0000 1744.9653 -7633.5193 297.6632 -9378.4846 -7582.3088 298.9660 384.6265 426.9303 29616.2688 145.6939 219.3313
ENERGY: 600000 5.7611 17.8375 12.6965 0.0000 -10746.7766 1422.1042 0.0000 0.0000 1695.5667 -7592.8106 289.2366 -9288.3773 -7598.3443 295.8093 -39.5364 32.7139 30344.8290 130.9074 207.3015
ENERGY: 900000 6.9640 17.5493 14.5395 0.0000 -10789.3023 1430.5196 0.0000 0.0000 1821.3752 -7498.3546 310.6975 -9319.7298 -7586.2511 296.7965 176.8316 207.6253 30072.6046 106.0382 179.0791
ENERGY: 1200000 4.8702 24.6915 16.9651 0.0000 -10640.7311 1282.8354 0.0000 0.0000 1757.8825 -7553.4864 299.8667 -9311.3689 -7573.7553 297.8870 -1353.5181 -1265.4114 30529.7715 -17.2874 56.9409
ENERGY: 1500000 8.7159 15.5338 13.8606 0.0000 -10834.3521 1399.8039 0.0000 0.0000 1760.9828 -7635.4551 300.3955 -9396.4380 -7577.5133 298.2944 -323.8968 -227.7117 29869.6233 -62.1269 18.7384
TCL: Running FEP window   5: Lambda1 0.7999999999999998 Lambda2 0.7499999999999998 [dLambda -0.050000000000000044]
TCL: Setting parameter firsttimestep to 0
TCL: Setting parameter alchLambda to 0.7999999999999998
Info: NONBONDED TABLE R-SQUARED SPACING: 0.0625
Info: NONBONDED TABLE SIZE: 705 POINTS
TCL: Setting parameter alchLambda2 to 0.7499999999999998
Info: NONBONDED TABLE R-SQUARED SPACING: 0.0625
Info: NONBONDED TABLE SIZE: 705 POINTS
TCL: Running for 1500000 steps
ETITLE: TS BOND ANGLE DIHED IMPRP ELECT VDW BOUNDARY MISC KINETIC TOTAL TEMP POTENTIAL TOTALAVG TEMPAVG PRESSURE GPRESSURE VOLUME PRESSAVG GPRESSAVG
ENERGY: 0 8.7159 15.5338 13.8606 0.0000 -10831.3904 1400.1179 0.0000 0.0000 1760.1026 -7633.0595 300.2454 -9393.1622 -7633.0595 300.2454 -326.5413 -236.3273 29869.6233 -326.5413 -236.3273
ENERGY: 300000 9.0251 14.4997 14.8596 0.0000 -10716.7070 1411.1106 0.0000 0.0000 1736.3000 -7530.9119 296.1851 -9267.2120 -7538.0613 303.1797 -20.0484 85.9517 30137.5395 -153.8535 -80.1689
ENERGY: 600000 7.6299 14.7766 16.3772 0.0000 -10789.3773 1483.7383 0.0000 0.0000 1790.1100 -7476.7453 305.3642 -9266.8553 -7529.1949 301.5276 383.1094 446.3969 30460.9106 -203.9641 -128.9941
ENERGY: 900000 14.2198 18.1543 17.5083 0.0000 -10738.6257 1358.5001 0.0000 0.0000 1785.1766 -7545.0665 304.5226 -9330.2431 -7527.2916 301.7012 -681.5034 -641.5566 30594.0289 -171.2873 -100.1672
ENERGY: 1200000 7.9963 18.1311 17.4329 0.0000 -10686.0614 1374.3969 0.0000 0.0000 1742.3108 -7525.7933 297.2104 -9268.1042 -7531.8584 301.8064 -465.7307 -415.0303 30533.4452 -154.2386 -96.4187
ENERGY: 1500000 7.6506 23.1863 15.6804 0.0000 -10837.4965 1467.4342 0.0000 0.0000 1783.1992 -7540.3458 304.1853 -9323.5450 -7524.3746 302.5644 -22.5367 22.8544 30826.8394 -151.3362 -98.8066
TCL: Running FEP window   6: Lambda1 0.7499999999999998 Lambda2 0.6999999999999997 [dLambda -0.050000000000000044]
TCL: Setting parameter firsttimestep to 0
TCL: Setting parameter alchLambda to 0.7499999999999998
Info: NONBONDED TABLE R-SQUARED SPACING: 0.0625
Info: NONBONDED TABLE SIZE: 705 POINTS
TCL: Setting parameter alchLambda2 to 0.6999999999999997
Info: NONBONDED TABLE R-SQUARED SPACING: 0.0625
Info: NONBONDED TABLE SIZE: 705 POINTS
TCL: Running for 1500000 steps
ETITLE: TS BOND ANGLE DIHED IMPRP ELECT VDW BOUNDARY MISC KINETIC TOTAL TEMP POTENTIAL TOTALAVG TEMPAVG PRESSURE GPRESSURE VOLUME PRESSAVG GPRESSAVG
ENERGY: 0 7.6506 23.1863 15.6804 0.0000 -10836.1127 1467.1790 0.0000 0.0000 1782.2868 -7540.1296 304.0297 -9322.4164 -7540.1296 304.0297 -63.0463 8.4447 30826.8394 -63.0463 8.4447
ENERGY: 300000 5.1696 20.6897 16.6560 0.0000 -10875.2894 1480.9812 0.0000 0.0000 1761.6641 -7590.1289 300.5118 -9351.7930 -7538.6725 304.2178 189.7181 317.4705 30141.7753 -155.0428 -83.2566
ENERGY: 600000 4.9159 18.1938 15.8349 0.0000 -10734.9038 1424.7850 0.0000 0.0000 1727.9287 -7543.2455 294.7570 -9271.1742 -7544.1134 300.7282 146.2279 278.2118 30039.4010 -104.3658 -29.2711
ENERGY: 900000 6.5244 18.8626 17.1413 0.0000 -10697.5490 1413.9041 0.0000 0.0000 1741.8588 -7499.2577 297.1333 -9241.1165 -7550.7967 299.4823 -256.1985 -262.3080 30793.7884 -43.8100 15.2086
ENERGY: 1200000 6.3335 21.1278 15.4046 0.0000 -10881.2096 1517.5541 0.0000 0.0000 1721.1925 -7599.5970 293.6080 -9320.7895 -7554.4217 298.6382 735.9269 844.7054 29785.2298 24.0324 90.9012
ENERGY: 1500000 5.1141 24.8724 15.4972 0.0000 -10628.0047 1350.6755 0.0000 0.0000 1734.3667 -7497.4788 295.8553 -9231.8455 -7541.4850 298.7844 -365.9291 -381.2805 30338.8571 27.8286 87.9270
TCL: Running FEP window   7: Lambda1 0.6999999999999997 Lambda2 0.6499999999999997 [dLambda -0.050000000000000044]
TCL: Setting parameter firsttimestep to 0
TCL: Setting parameter alchLambda to 0.6999999999999997
Info: NONBONDED TABLE R-SQUARED SPACING: 0.0625
Info: NONBONDED TABLE SIZE: 705 POINTS
TCL: Setting parameter alchLambda2 to 0.6499999999999997
Info: NONBONDED TABLE R-SQUARED SPACING: 0.0625
Info: NONBONDED TABLE SIZE: 705 POINTS
TCL: Running for 1500000 steps
ETITLE: TS BOND ANGLE DIHED IMPRP ELECT VDW BOUNDARY MISC KINETIC TOTAL TEMP POTENTIAL TOTALAVG TEMPAVG PRESSURE GPRESSURE VOLUME PRESSAVG GPRESSAVG
ENERGY: 0 5.1141 24.8724 15.4972 0.0000 -10624.4764 1348.8890 0.0000 0.0000 1733.4521 -7496.6516 295.6992 -9230.1036 -7496.6516 295.6992 -477.7023 -406.6272 30338.8571 -477.7023 -406.6272
ENERGY: 300000 9.7626 23.0223 16.2477 0.0000 -10719.5960 1369.9928 0.0000 0.0000 1725.0338 -7575.5368 294.2632 -9300.5706 -7509.6375 300.3117 -868.4020 -782.8944 30590.8599 -380.8124 -305.7994
ENERGY: 600000 7.4122 22.3885 13.4687 0.0000 -10695.3826 1336.5335 0.0000 0.0000 1753.7244 -7561.8553 299.1574 -9315.5797 -7512.3326 301.2722 -842.2775 -787.9066 30338.2176 -332.4368 -267.8556
ENERGY: 900000 8.1535 22.5760 17.3997 0.0000 -10801.1476 1435.6921 0.0000 0.0000 1767.5524 -7549.7738 301.5162 -9317.3263 -7522.5394 301.5308 -154.3698 -85.1525 30471.0577 -192.7904 -129.7358
ENERGY: 1200000 5.2208 12.4235 15.6943 0.0000 -10971.3623 1523.6753 0.0000 0.0000 1780.2370 -7634.1115 303.6800 -9414.3485 -7537.1540 300.9147 375.7520 405.3575 30207.3669 -120.0216 -63.0144
ENERGY: 1500000 7.9317 20.9407 13.5659 0.0000 -10663.3656 1406.8806 0.0000 0.0000 1700.3236 -7513.7229 290.0481 -9214.0466 -7538.4535 299.5783 167.9766 173.8334 30209.4729 -56.1181 -3.3108
TCL: Running FEP window   8: Lambda1 0.6499999999999997 Lambda2 0.5999999999999996 [dLambda -0.050000000000000044]
TCL: Setting parameter firsttimestep to 0
TCL: Setting parameter alchLambda to 0.6499999999999997
Info: NONBONDED TABLE R-SQUARED SPACING: 0.0625
Info: NONBONDED TABLE SIZE: 705 POINTS
TCL: Setting parameter alchLambda2 to 0.5999999999999996
Info: NONBONDED TABLE R-SQUARED SPACING: 0.0625
Info: NONBONDED TABLE SIZE: 705 POINTS
TCL: Running for 1500000 steps
ETITLE: TS BOND ANGLE DIHED IMPRP ELECT VDW BOUNDARY MISC KINETIC TOTAL TEMP POTENTIAL TOTALAVG TEMPAVG PRESSURE GPRESSURE VOLUME PRESSAVG GPRESSAVG
ENERGY: 0 7.9317 20.9407 13.5659 0.0000 -10661.5517 1407.1160 0.0000 0.0000 1699.4668 -7512.5305 289.9019 -9211.9973 -7512.5305 289.9019 76.9235 171.0058 30209.4729 76.9235 171.0058
ENERGY: 300000 4.6079 26.7036 13.1922 0.0000 -10552.2090 1332.8742 0.0000 0.0000 1755.8452 -7418.9859 299.5191 -9174.8311 -7499.6316 296.1816 -634.5613 -504.5212 30705.0866 -3.9111 62.9920
ENERGY: 600000 9.0392 15.7971 17.2980 0.0000 -10781.1500 1494.5423 0.0000 0.0000 1787.4165 -7457.0568 304.9047 -9244.4733 -7516.1976 298.3138 625.2356 666.6128 30497.5603 285.0603 350.5973
ENERGY: 900000 6.8196 16.5252 12.6249 0.0000 -10707.1414 1452.8777 0.0000 0.0000 1741.6267 -7476.6674 297.0937 -9218.2941 -7514.5661 297.5213 -8.5228 62.0962 30842.4399 252.0126 317.6733
ENERGY: 1200000 8.9264 17.6712 16.9176 0.0000 -10854.0324 1506.1811 0.0000 0.0000 1786.0194 -7518.3169 304.6664 -9304.3363 -7524.0538 298.9146 403.9409 490.8782 30067.3453 113.7200 183.5582
ENERGY: 1500000 3.6307 22.3998 14.2002 0.0000 -10812.7374 1486.6766 0.0000 0.0000 1750.6524 -7535.1777 298.6334 -9285.8302 -7528.1125 298.7154 323.1658 415.9115 30125.8582 182.2065 250.7435
TCL: Running FEP window   9: Lambda1 0.5999999999999996 Lambda2 0.5499999999999996 [dLambda -0.050000000000000044]
TCL: Setting parameter firsttimestep to 0
TCL: Setting parameter alchLambda to 0.5999999999999996
Info: NONBONDED TABLE R-SQUARED SPACING: 0.0625
Info: NONBONDED TABLE SIZE: 705 POINTS
TCL: Setting parameter alchLambda2 to 0.5499999999999996
Info: NONBONDED TABLE R-SQUARED SPACING: 0.0625
Info: NONBONDED TABLE SIZE: 705 POINTS
TCL: Running for 1500000 steps
ETITLE: TS BOND ANGLE DIHED IMPRP ELECT VDW BOUNDARY MISC KINETIC TOTAL TEMP POTENTIAL TOTALAVG TEMPAVG PRESSURE GPRESSURE VOLUME PRESSAVG GPRESSAVG
ENERGY: 0 3.6307 22.3998 14.2002 0.0000 -10811.4768 1486.2587 0.0000 0.0000 1749.7558 -7535.2317 298.4804 -9284.9875 -7535.2317 298.4804 321.3388 401.7657 30125.8582 321.3388 401.7657
ENERGY: 300000 4.4861 21.5120 14.2992 0.0000 -10761.3582 1466.9599 0.0000 0.0000 1743.8858 -7510.2153 297.4791 -9254.1011 -7523.8131 298.0833 220.5383 323.3447 30150.2271 185.3095 262.8136
ENERGY: 600000 8.1817 21.9062 15.1637 0.0000 -10765.9106 1416.4798 0.0000 0.0000 1781.1649 -7523.0144 303.8383 -9304.1792 -7520.6454 298.5459 275.9884 268.6848 29612.2575 -78.7310 -19.8285
ENERGY: 900000 6.2339 21.0822 16.8500 0.0000 -10700.8346 1352.3515 0.0000 0.0000 1776.1828 -7528.1342 302.9884 -9304.3171 -7534.0572 298.3794 -596.1195 -507.1870 30344.9459 -96.1503 -27.3600
ENERGY: 1200000 7.3482 15.5906 14.7213 0.0000 -10807.0178 1501.4790 0.0000 0.0000 1755.3085 -7512.5702 299.4276 -9267.8787 -7536.8897 298.6261 477.5046 532.4020 30408.1461 -40.2159 22.0339
ENERGY: 1500000 7.6838 17.4162 16.9152 0.0000 -10714.8665 1391.4069 0.0000 0.0000 1697.3220 -7584.1223 289.5360 -9281.4443 -7541.2726 297.7436 -306.7493 -230.2354 30291.0196 -69.2601 -4.7030
TCL: Running FEP window  10: Lambda1 0.5499999999999996 Lambda2 0.4999999999999996 [dLambda -0.04999999999999999]
TCL: Setting parameter firsttimestep to 0
TCL: Setting parameter alchLambda to 0.5499999999999996
Info: NONBONDED TABLE R-SQUARED SPACING: 0.0625
Info: NONBONDED TABLE SIZE: 705 POINTS
TCL: Setting parameter alchLambda2 to 0.4999999999999996
Info: NONBONDED TABLE R-SQUARED SPACING: 0.0625
Info: NONBONDED TABLE SIZE: 705 POINTS
TCL: Running for 1500000 steps
ETITLE: TS BOND ANGLE DIHED IMPRP ELECT VDW BOUNDARY MISC KINETIC TOTAL TEMP POTENTIAL TOTALAVG TEMPAVG PRESSURE GPRESSURE VOLUME PRESSAVG GPRESSAVG
ENERGY: 0 7.6838 17.4162 16.9152 0.0000 -10713.2806 1391.3255 0.0000 0.0000 1696.4093 -7583.5305 289.3803 -9279.9398 -7583.5305 289.3803 -320.2959 -238.0436 30291.0196 -320.2959 -238.0436
ENERGY: 300000 4.9600 21.3514 14.2889 0.0000 -10805.8710 1454.7164 0.0000 0.0000 1730.7124 -7579.8419 295.2319 -9310.5543 -7534.2082 295.7296 203.1097 279.8727 29933.9067 40.9222 114.8353
ENERGY: 600000 7.6914 16.4651 12.5271 0.0000 -10648.7625 1429.2120 0.0000 0.0000 1782.7599 -7400.1070 304.1104 -9182.8668 -7523.2221 297.5615 268.2756 328.1476 30319.3021 -11.5280 40.6603
ENERGY: 900000 3.9588 19.1811 15.4532 0.0000 -10984.1430 1560.2718 0.0000 0.0000 1757.4797 -7627.7984 299.7980 -9385.2781 -7517.0545 299.4592 940.8260 1036.4253 29674.9110 48.9192 97.2551
ENERGY: 1200000 8.1649 19.4336 14.5214 0.0000 -10956.0380 1522.3991 0.0000 0.0000 1753.5140 -7638.0050 299.1215 -9391.5190 -7529.8104 299.7580 115.0775 174.1357 29929.5410 85.8820 137.1349
ENERGY: 1500000 5.6008 10.9984 18.8755 0.0000 -10744.2185 1450.5904 0.0000 0.0000 1716.5033 -7541.6501 292.8080 -9258.1534 -7523.4009 299.3339 155.3904 152.8190 30397.0118 35.9851 86.0077
TCL: Running FEP window  11: Lambda1 0.4999999999999996 Lambda2 0.4499999999999996 [dLambda -0.04999999999999999]
TCL: Setting parameter firsttimestep to 0
TCL: Setting parameter alchLambda to 0.4999999999999996
Info: NONBONDED TABLE R-SQUARED SPACING: 0.0625
Info: NONBONDED TABLE SIZE: 705 POINTS
TCL: Setting parameter alchLambda2 to 0.4499999999999996
Info: NONBONDED TABLE R-SQUARED SPACING: 0.0625
Info: NONBONDED TABLE SIZE: 705 POINTS
TCL: Running for 1500000 steps
ETITLE: TS BOND ANGLE DIHED IMPRP ELECT VDW BOUNDARY MISC KINETIC TOTAL TEMP POTENTIAL TOTALAVG TEMPAVG PRESSURE GPRESSURE VOLUME PRESSAVG GPRESSAVG
ENERGY: 0 5.6008 10.9984 18.8755 0.0000 -10743.3996 1451.0987 0.0000 0.0000 1715.5821 -7541.2441 292.6509 -9256.8262 -7541.2441 292.6509 52.8534 147.8954 30397.0118 52.8534 147.8954
ENERGY: 300000 7.5297 14.6933 14.6035 0.0000 -10769.5609 1405.2191 0.0000 0.0000 1728.9941 -7598.5212 294.9388 -9327.5152 -7550.9278 298.0911 -776.9235 -661.7973 30506.4383 -3.7115 69.8719
ENERGY: 600000 3.2515 13.3246 21.3771 0.0000 -10780.0167 1467.2444 0.0000 0.0000 1760.1957 -7514.6234 300.2613 -9274.8191 -7548.7148 299.2284 313.9046 371.1815 30100.5962 -92.6455 -17.1533
ENERGY: 900000 4.1474 17.5351 16.9879 0.0000 -10924.7400 1526.6389 0.0000 0.0000 1721.5927 -7637.8380 293.6762 -9359.4307 -7558.0810 297.2873 568.9712 673.9208 29933.3781 64.7191 140.8249
ENERGY: 1200000 5.7115 20.3811 14.0932 0.0000 -10622.9381 1371.3604 0.0000 0.0000 1739.1934 -7472.1985 296.6786 -9211.3920 -7544.9191 297.8991 -452.5669 -406.5296 31072.3319 35.2471 109.2880
ENERGY: 1500000 5.9660 19.2620 12.2217 0.0000 -10785.1972 1402.2498 0.0000 0.0000 1740.5811 -7604.9166 296.9153 -9345.4977 -7551.3066 298.4394 -388.3351 -276.0796 29636.4755 33.5326 104.8844
TCL: Running FEP window  12: Lambda1 0.4499999999999996 Lambda2 0.39999999999999963 [dLambda -0.04999999999999999]
TCL: Setting parameter firsttimestep to 0
TCL: Setting parameter alchLambda to 0.4499999999999996
Info: NONBONDED TABLE R-SQUARED SPACING: 0.0625
Info: NONBONDED TABLE SIZE: 705 POINTS
TCL: Setting parameter alchLambda2 to 0.39999999999999963
Info: NONBONDED TABLE R-SQUARED SPACING: 0.0625
Info: NONBONDED TABLE SIZE: 705 POINTS
TCL: Running for 1500000 steps
ETITLE: TS BOND ANGLE DIHED IMPRP ELECT VDW BOUNDARY MISC KINETIC TOTAL TEMP POTENTIAL TOTALAVG TEMPAVG PRESSURE GPRESSURE VOLUME PRESSAVG GPRESSAVG
ENERGY: 0 5.9660 19.2620 12.2217 0.0000 -10785.1979 1402.6648 0.0000 0.0000 1739.7459 -7605.3375 296.7729 -9345.0834 -7605.3375 296.7729 -379.1734 -288.0885 29636.4755 -379.1734 -288.0885
ENERGY: 300000 5.7594 17.9019 17.9821 0.0000 -10605.9587 1355.2271 0.0000 0.0000 1728.5716 -7480.5166 294.8667 -9209.0882 -7518.3959 299.3909 -611.6242 -573.0950 30431.2717 -389.1389 -310.2766
ENERGY: 600000 3.8668 23.0936 16.2354 0.0000 -10715.2866 1380.8417 0.0000 0.0000 1728.3254 -7562.9237 294.8247 -9291.2490 -7475.2097 302.1623 -370.8895 -294.4165 30037.9729 -351.2646 -277.4052
ENERGY: 900000 7.5490 21.8090 14.8122 0.0000 -10784.7540 1430.5362 0.0000 0.0000 1768.2368 -7541.8108 301.6330 -9310.0476 -7488.9243 302.0644 -8.1120 40.6130 29969.8831 -263.0764 -189.4677
ENERGY: 1200000 4.5978 18.9361 13.1285 0.0000 -10804.4537 1436.1296 0.0000 0.0000 1776.9249 -7554.7368 303.1150 -9331.6617 -7508.4144 301.1829 -67.1056 -24.3380 30687.1663 -219.0278 -144.0898
ENERGY: 1500000 8.2293 26.1776 14.9517 0.0000 -10630.8583 1355.1781 0.0000 0.0000 1809.4285 -7416.8930 308.6596 -9226.3215 -7500.2087 301.7070 -501.1942 -478.3857 30446.1710 -239.4953 -169.9775
TCL: Running FEP window  13: Lambda1 0.39999999999999963 Lambda2 0.34999999999999964 [dLambda -0.04999999999999999]
TCL: Setting parameter firsttimestep to 0
TCL: Setting parameter alchLambda to 0.39999999999999963
Info: NONBONDED TABLE R-SQUARED SPACING: 0.0625
Info: NONBONDED TABLE SIZE: 705 POINTS
TCL: Setting parameter alchLambda2 to 0.34999999999999964
Info: NONBONDED TABLE R-SQUARED SPACING: 0.0625
Info: NONBONDED TABLE SIZE: 705 POINTS
TCL: Running for 1500000 steps
ETITLE: TS BOND ANGLE DIHED IMPRP ELECT VDW BOUNDARY MISC KINETIC TOTAL TEMP POTENTIAL TOTALAVG TEMPAVG PRESSURE GPRESSURE VOLUME PRESSAVG GPRESSAVG
ENERGY: 0 8.2293 26.1776 14.9517 0.0000 -10630.8583 1354.9207 0.0000 0.0000 1808.5714 -7418.0075 308.5134 -9226.5790 -7418.0075 308.5134 -573.3859 -489.5076 30446.1710 -573.3859 -489.5076
ENERGY: 300000 9.4991 18.6258 16.1971 0.0000 -10663.0814 1380.1723 0.0000 0.0000 1771.7505 -7466.8366 302.2323 -9238.5871 -7451.7488 303.4345 -556.4641 -449.9858 30461.8525 -246.8540 -159.8876
ENERGY: 600000 10.1076 20.8463 14.5454 0.0000 -10751.0345 1459.3800 0.0000 0.0000 1821.4601 -7424.6951 310.7120 -9246.1552 -7458.9574 303.5027 59.8978 170.5393 30400.8992 -312.4693 -238.5052
ENERGY: 900000 3.7797 14.3575 13.2710 0.0000 -10697.5706 1358.0737 0.0000 0.0000 1748.5145 -7559.5741 298.2687 -9308.0886 -7480.4249 301.8709 -748.7501 -571.4860 29777.1246 -332.1817 -242.4268
ENERGY: 1200000 7.6543 19.2987 20.3384 0.0000 -10698.0979 1462.1909 0.0000 0.0000 1815.1680 -7373.4476 309.6387 -9188.6156 -7469.8697 303.2334 405.5179 520.6524 30495.3998 -124.8774 -36.3009
ENERGY: 1500000 5.6525 17.8488 18.2394 0.0000 -10744.6971 1393.3477 0.0000 0.0000 1707.8775 -7601.7313 291.3366 -9309.6087 -7484.8186 301.9694 -472.3811 -402.9274 30282.9093 -118.3828 -35.1049
TCL: Running FEP window  14: Lambda1 0.34999999999999964 Lambda2 0.29999999999999966 [dLambda -0.04999999999999999]
TCL: Setting parameter firsttimestep to 0
TCL: Setting parameter alchLambda to 0.34999999999999964
Info: NONBONDED TABLE R-SQUARED SPACING: 0.0625
Info: NONBONDED TABLE SIZE: 705 POINTS
TCL: Setting parameter alchLambda2 to 0.29999999999999966
Info: NONBONDED TABLE R-SQUARED SPACING: 0.0625
Info: NONBONDED TABLE SIZE: 705 POINTS
TCL: Running for 1500000 steps
ETITLE: TS BOND ANGLE DIHED IMPRP ELECT VDW BOUNDARY MISC KINETIC TOTAL TEMP POTENTIAL TOTALAVG TEMPAVG PRESSURE GPRESSURE VOLUME PRESSAVG GPRESSAVG
ENERGY: 0 5.6525 17.8488 18.2394 0.0000 -10744.6964 1393.6140 0.0000 0.0000 1707.0339 -7602.3078 291.1927 -9309.3417 -7602.3078 291.1927 -484.1879 -409.5769 30282.9093 -484.1879 -409.5769
ENERGY: 300000 6.6079 21.2893 15.6083 0.0000 -10838.6363 1516.5995 0.0000 0.0000 1753.3819 -7525.1494 299.0990 -9278.5313 -7538.6578 298.0621 176.9119 286.7820 30862.0898 -519.5745 -443.1022
ENERGY: 600000 5.1289 19.2519 18.1148 0.0000 -10804.7745 1419.9047 0.0000 0.0000 1743.4099 -7598.9643 297.3979 -9342.3742 -7542.9874 298.4229 -253.2739 -245.6832 30169.0301 -325.4709 -259.0902
ENERGY: 900000 7.3747 22.8244 20.2720 0.0000 -10646.6928 1328.6922 0.0000 0.0000 1720.0398 -7547.4898 293.4113 -9267.5296 -7539.5286 298.5931 -825.8247 -777.5813 30275.1232 -363.8334 -297.0368
ENERGY: 1200000 7.2154 21.0302 14.6484 0.0000 -10758.4856 1397.1762 0.0000 0.0000 1765.2567 -7553.1586 301.1246 -9318.4153 -7545.8150 299.1320 -316.8884 -206.6800 29892.6200 -287.1586 -215.9108
ENERGY: 1500000 7.3919 18.5445 14.3123 0.0000 -10665.8864 1365.5028 0.0000 0.0000 1754.1460 -7505.9891 299.2293 -9260.1350 -7539.8825 299.3301 -564.7191 -476.8617 29968.6712 -266.1977 -190.9855
TCL: Running FEP window  15: Lambda1 0.29999999999999966 Lambda2 0.24999999999999967 [dLambda -0.04999999999999999]
TCL: Setting parameter firsttimestep to 0
TCL: Setting parameter alchLambda to 0.29999999999999966
Info: NONBONDED TABLE R-SQUARED SPACING: 0.0625
Info: NONBONDED TABLE SIZE: 705 POINTS
TCL: Setting parameter alchLambda2 to 0.24999999999999967
Info: NONBONDED TABLE R-SQUARED SPACING: 0.0625
Info: NONBONDED TABLE SIZE: 705 POINTS
TCL: Running for 1500000 steps
ETITLE: TS BOND ANGLE DIHED IMPRP ELECT VDW BOUNDARY MISC KINETIC TOTAL TEMP POTENTIAL TOTALAVG TEMPAVG PRESSURE GPRESSURE VOLUME PRESSAVG GPRESSAVG
ENERGY: 0 7.3919 18.5445 14.3123 0.0000 -10665.8867 1365.9349 0.0000 0.0000 1753.2364 -7506.4667 299.0741 -9259.7031 -7506.4667 299.0741 -574.4287 -479.8218 29968.6712 -574.4287 -479.8218
ENERGY: 300000 7.0281 14.5682 12.4094 0.0000 -10782.7412 1447.2209 0.0000 0.0000 1688.0683 -7613.4462 287.9575 -9301.5145 -7546.9629 295.7544 118.6919 198.3027 29831.9865 -154.2174 -66.3192
ENERGY: 600000 6.5858 14.4804 18.8032 0.0000 -10853.8638 1510.8134 0.0000 0.0000 1708.7357 -7594.4452 291.4830 -9303.1809 -7544.4907 297.6164 836.0192 909.1923 29700.6990 13.0726 87.8743
ENERGY: 900000 6.1513 14.7234 17.5494 0.0000 -10614.1313 1426.2935 0.0000 0.0000 1714.7412 -7434.6724 292.5075 -9149.4137 -7528.2777 297.3673 -121.2565 21.9353 30657.1857 -78.3796 5.0502
ENERGY: 1200000 8.3855 18.2794 13.0291 0.0000 -10763.6961 1490.0783 0.0000 0.0000 1818.0069 -7415.9169 310.1229 -9233.9237 -7520.7696 299.2592 698.8663 753.4251 29906.6413 -122.9863 -45.3310
ENERGY: 1500000 4.9607 17.5869 13.9912 0.0000 -10903.2198 1542.1273 0.0000 0.0000 1725.0039 -7599.5498 294.2581 -9324.5537 -7523.6832 299.4156 561.4581 598.9395 30440.7618 -122.2394 -52.4298
TCL: Running FEP window  16: Lambda1 0.24999999999999967 Lambda2 0.19999999999999968 [dLambda -0.04999999999999999]
TCL: Setting parameter firsttimestep to 0
TCL: Setting parameter alchLambda to 0.24999999999999967
Info: NONBONDED TABLE R-SQUARED SPACING: 0.0625
Info: NONBONDED TABLE SIZE: 705 POINTS
TCL: Setting parameter alchLambda2 to 0.19999999999999968
Info: NONBONDED TABLE R-SQUARED SPACING: 0.0625
Info: NONBONDED TABLE SIZE: 705 POINTS
TCL: Running for 1500000 steps
ETITLE: TS BOND ANGLE DIHED IMPRP ELECT VDW BOUNDARY MISC KINETIC TOTAL TEMP POTENTIAL TOTALAVG TEMPAVG PRESSURE GPRESSURE VOLUME PRESSAVG GPRESSAVG
ENERGY: 0 4.9607 17.5869 13.9912 0.0000 -10903.2197 1542.7723 0.0000 0.0000 1724.1189 -7599.7897 294.1071 -9323.9086 -7599.7897 294.1071 515.9074 598.9797 30440.7618 515.9074 598.9797
ENERGY: 300000 6.8048 21.6253 16.7070 0.0000 -10721.7665 1425.0272 0.0000 0.0000 1768.7465 -7482.8558 301.7199 -9251.6023 -7518.3911 300.7223 21.1568 62.3012 30026.0609 -26.1927 31.0658
ENERGY: 600000 6.2536 16.1386 14.8643 0.0000 -10646.7758 1407.1748 0.0000 0.0000 1748.4844 -7453.8600 298.2635 -9202.3445 -7514.1703 300.0903 -40.8918 11.3080 30415.4645 -70.0486 -15.0674
ENERGY: 900000 5.8008 15.5554 13.6870 0.0000 -10800.7321 1498.7744 0.0000 0.0000 1768.5477 -7498.3667 301.6860 -9266.9144 -7503.8649 300.1559 333.8835 407.5665 30363.9208 -20.4998 27.7285
ENERGY: 1200000 6.1365 18.9868 17.3615 0.0000 -10776.7006 1438.0289 0.0000 0.0000 1816.1082 -7480.0787 309.7991 -9296.1869 -7508.8748 300.7713 -41.8333 -83.8597 30220.4572 86.8777 119.7397
ENERGY: 1500000 7.2240 16.3885 16.4020 0.0000 -10709.6060 1457.6972 0.0000 0.0000 1795.5514 -7416.3429 306.2924 -9211.8943 -7504.8684 301.2202 426.2771 509.2060 30053.9144 121.3911 158.5352
TCL: Running FEP window  17: Lambda1 0.19999999999999968 Lambda2 0.1499999999999997 [dLambda -0.04999999999999999]
TCL: Setting parameter firsttimestep to 0
TCL: Setting parameter alchLambda to 0.19999999999999968
Info: NONBONDED TABLE R-SQUARED SPACING: 0.0625
Info: NONBONDED TABLE SIZE: 705 POINTS
TCL: Setting parameter alchLambda2 to 0.1499999999999997
Info: NONBONDED TABLE R-SQUARED SPACING: 0.0625
Info: NONBONDED TABLE SIZE: 705 POINTS
TCL: Running for 1500000 steps
ETITLE: TS BOND ANGLE DIHED IMPRP ELECT VDW BOUNDARY MISC KINETIC TOTAL TEMP POTENTIAL TOTALAVG TEMPAVG PRESSURE GPRESSURE VOLUME PRESSAVG GPRESSAVG
ENERGY: 0 7.2240 16.3885 16.4020 0.0000 -10709.6064 1458.2656 0.0000 0.0000 1794.6641 -7416.6622 306.1410 -9211.3262 -7416.6622 306.1410 413.8946 507.6147 30053.9144 413.8946 507.6147
ENERGY: 300000 8.3605 16.4865 15.9906 0.0000 -10771.0471 1482.5769 0.0000 0.0000 1780.7298 -7466.9027 303.7641 -9247.6325 -7461.0804 303.1010 498.6707 617.2068 30049.7867 272.7629 337.7323
ENERGY: 600000 6.1805 23.4764 15.7541 0.0000 -10774.5840 1408.1616 0.0000 0.0000 1731.6577 -7589.3537 295.3932 -9321.0114 -7487.8021 300.6768 -369.5596 -303.4312 30314.0413 -38.7550 30.8407
ENERGY: 900000 5.4566 21.3905 15.8214 0.0000 -10737.9156 1457.1489 0.0000 0.0000 1741.4698 -7496.6284 297.0669 -9238.0982 -7486.6801 300.6844 226.3837 244.8256 30324.1836 -68.8456 -0.2155
ENERGY: 1200000 7.9333 15.7273 11.9892 0.0000 -10800.2912 1427.7123 0.0000 0.0000 1808.7611 -7528.1680 308.5458 -9336.9291 -7496.6401 300.7055 -589.7251 -514.1215 30129.8843 -96.5081 -26.4296
ENERGY: 1500000 5.4358 24.2099 15.4614 0.0000 -10692.3053 1417.2934 0.0000 0.0000 1737.2721 -7492.6327 296.3509 -9229.9048 -7493.2455 300.9271 -256.7544 -173.8751 30535.8420 -34.6553 35.3659
TCL: Running FEP window  18: Lambda1 0.1499999999999997 Lambda2 0.09999999999999969 [dLambda -0.05 ]
TCL: Setting parameter firsttimestep to 0
TCL: Setting parameter alchLambda to 0.1499999999999997
Info: NONBONDED TABLE R-SQUARED SPACING: 0.0625
Info: NONBONDED TABLE SIZE: 705 POINTS
TCL: Setting parameter alchLambda2 to 0.09999999999999969
Info: NONBONDED TABLE R-SQUARED SPACING: 0.0625
Info: NONBONDED TABLE SIZE: 705 POINTS
TCL: Running for 1500000 steps
ETITLE: TS BOND ANGLE DIHED IMPRP ELECT VDW BOUNDARY MISC KINETIC TOTAL TEMP POTENTIAL TOTALAVG TEMPAVG PRESSURE GPRESSURE VOLUME PRESSAVG GPRESSAVG
ENERGY: 0 5.4358 24.2099 15.4614 0.0000 -10692.3039 1416.8713 0.0000 0.0000 1736.3770 -7493.9485 296.1982 -9230.3255 -7493.9485 296.1982 -265.6602 -184.5954 30535.8420 -265.6602 -184.5954
ENERGY: 300000 4.8834 15.1747 18.4921 0.0000 -10591.6541 1300.3314 0.0000 0.0000 1713.8088 -7538.9637 292.3484 -9252.7725 -7536.8399 296.2697 -1190.0858 -1110.7007 30665.3790 -496.6885 -417.3637
ENERGY: 600000 3.6624 15.7144 16.7710 0.0000 -10822.1861 1460.3112 0.0000 0.0000 1767.0357 -7558.6913 301.4281 -9325.7270 -7542.8789 297.1986 239.8402 242.6044 29949.4210 -193.7805 -125.7646
ENERGY: 900000 5.9893 15.1423 18.1098 0.0000 -10710.0342 1417.9313 0.0000 0.0000 1809.0886 -7443.7730 308.6016 -9252.8615 -7533.4625 299.5667 -232.1075 -162.2733 30344.6488 -216.5799 -156.7777
ENERGY: 1200000 7.5301 16.8805 17.6121 0.0000 -10646.8854 1374.1240 0.0000 0.0000 1747.7186 -7483.0201 298.1329 -9230.7387 -7528.4094 299.9287 -871.9667 -819.5795 30823.4448 -154.9399 -97.0540
ENERGY: 1500000 10.2108 20.3717 14.4128 0.0000 -10758.9873 1445.9057 0.0000 0.0000 1734.9643 -7533.1221 295.9572 -9268.0864 -7530.6871 299.0882 -246.5247 -147.6876 30321.7755 -172.0227 -106.6351
TCL: Running FEP window  19: Lambda1 0.09999999999999969 Lambda2 0.049999999999999684 [dLambda -0.05 ]
TCL: Setting parameter firsttimestep to 0
TCL: Setting parameter alchLambda to 0.09999999999999969
Info: NONBONDED TABLE R-SQUARED SPACING: 0.0625
Info: NONBONDED TABLE SIZE: 705 POINTS
TCL: Setting parameter alchLambda2 to 0.049999999999999684
Info: NONBONDED TABLE R-SQUARED SPACING: 0.0625
Info: NONBONDED TABLE SIZE: 705 POINTS
TCL: Running for 1500000 steps
ETITLE: TS BOND ANGLE DIHED IMPRP ELECT VDW BOUNDARY MISC KINETIC TOTAL TEMP POTENTIAL TOTALAVG TEMPAVG PRESSURE GPRESSURE VOLUME PRESSAVG GPRESSAVG
ENERGY: 0 10.2108 20.3717 14.4128 0.0000 -10758.9895 1445.8789 0.0000 0.0000 1734.1105 -7534.0048 295.8116 -9268.1152 -7534.0048 295.8116 -238.1586 -150.7522 30321.7755 -238.1586 -150.7522
ENERGY: 300000 8.7875 17.1515 19.4848 0.0000 -10756.5109 1411.8234 0.0000 0.0000 1814.3014 -7484.9622 309.4909 -9299.2637 -7482.3409 304.9485 -281.6194 -238.6999 29971.8472 -164.5357 -98.2875
ENERGY: 600000 9.2131 15.7428 23.9937 0.0000 -10751.6065 1468.6780 0.0000 0.0000 1744.5619 -7489.4170 297.5944 -9233.9789 -7497.1498 301.7472 50.6315 134.3455 30472.5932 -224.2589 -154.0725
ENERGY: 900000 7.7994 17.8292 13.3641 0.0000 -10733.2162 1415.6007 0.0000 0.0000 1774.8310 -7503.7919 302.7578 -9278.6228 -7514.3968 299.7280 -331.4667 -260.9903 30154.1162 -250.8838 -186.0304
ENERGY: 1200000 5.7210 19.1684 16.0074 0.0000 -10669.5265 1376.1248 0.0000 0.0000 1711.9775 -7540.5275 292.0360 -9252.5050 -7519.0956 298.8105 -678.9711 -595.2492 30247.3163 -140.6992 -80.6954
ENERGY: 1500000 4.2847 18.3615 15.5004 0.0000 -10827.8057 1477.6232 0.0000 0.0000 1778.1407 -7533.8953 303.3224 -9312.0359 -7513.6083 299.8856 462.0795 550.7059 29885.1619 -106.3197 -38.2644
TCL: Running FEP window  20: Lambda1 0.049999999999999684 Lambda2 0.0    [dLambda -0.049999999999999684]
TCL: Setting parameter firsttimestep to 0
TCL: Setting parameter alchLambda to 0.049999999999999684
Info: NONBONDED TABLE R-SQUARED SPACING: 0.0625
Info: NONBONDED TABLE SIZE: 705 POINTS
TCL: Setting parameter alchLambda2 to 0.0
Info: NONBONDED TABLE R-SQUARED SPACING: 0.0625
Info: NONBONDED TABLE SIZE: 705 POINTS
TCL: Running for 1500000 steps
ETITLE: TS BOND ANGLE DIHED IMPRP ELECT VDW BOUNDARY MISC KINETIC TOTAL TEMP POTENTIAL TOTALAVG TEMPAVG PRESSURE GPRESSURE VOLUME PRESSAVG GPRESSAVG
ENERGY: 0 4.2847 18.3615 15.5004 0.0000 -10827.8054 1477.1011 0.0000 0.0000 1777.2835 -7535.2741 303.1762 -9312.5577 -7535.2741 303.1762 462.6037 544.5395 29885.1619 462.6037 544.5395
ENERGY: 300000 10.4613 20.0969 14.2807 0.0000 -10724.1133 1343.0347 0.0000 0.0000 1723.2497 -7612.9901 293.9589 -9336.2398 -7547.2232 299.3470 -791.6856 -778.4871 29516.5391 -247.8831 -182.1386
ENERGY: 600000 7.0268 18.7528 14.6780 0.0000 -10649.3090 1384.1000 0.0000 0.0000 1702.6641 -7522.0872 290.4473 -9224.7513 -7539.3188 297.8298 -735.3087 -710.5899 30532.7470 -88.5190 -19.7192
ENERGY: 900000 7.7918 19.8759 15.7567 0.0000 -10739.0669 1412.4099 0.0000 0.0000 1771.9216 -7511.3110 302.2615 -9283.2326 -7536.1088 299.0733 -366.0591 -284.2394 30149.2694 -78.8630 -5.8370
ENERGY: 1200000 4.0960 17.4801 15.0438 0.0000 -10731.1678 1473.0179 0.0000 0.0000 1752.6082 -7468.9218 298.9670 -9221.5300 -7522.6584 299.8558 290.7628 365.9133 30291.7429 -53.4750 11.1677
ENERGY: 1500000 6.8945 21.6079 15.1780 0.0000 -10888.4860 1501.7680 0.0000 0.0000 1789.4598 -7553.5777 305.2533 -9343.0376 -7523.4680 299.9174 396.6424 509.6590 29661.3776 -99.7601 -36.1868
TCL: Exiting due to exit command.
