Info: SIMULATION PARAMETERS:
Info: TIMESTEP               2
Info: NUMBER OF STEPS        0
Info: STEPS PER CYCLE        10
Info: PERIODIC CELL BASIS 1  30.7044 0 0
Info: PERIODIC CELL BASIS 2  0 30.951 0
Info: PERIODIC CELL BASIS 3  0 0 31.4679
Info: PERIODIC CELL CENTER   0 0 0
Info: WRAPPING WATERS AROUND PERIODIC BOUNDARIES ON OUTPUT.
Info: WRAPPING ALL CLUSTERS AROUND PERIODIC BOUNDARIES ON OUTPUT.
Info: FIRST LDB TIMESTEP     50
Info: LAST LDB TIMESTEP     -1
Info: HOM BACKGROUND SCALING 1
Info: PME BACKGROUND SCALING 1
Info: MIN ATOMS PER PATCH    40
Info: EMPTY PATCH LOAD       40 ATOMS
Info: VELOCITY FILE          mobley_8861672_equil.vel
Info: CENTER OF MASS MOVING INITIALLY? NO
Info: DIELECTRIC             1
Info: EXCLUDE                SCALED ONE-FOUR
Info: 1-4 ELECTROSTATICS SCALED BY 0.833333
Info: MODIFIED 1-4 VDW PARAMETERS WILL BE USED
Info: DCD FILENAME           mobley_8861672_prod.dcd
Info: DCD FREQUENCY          100000
Info: DCD FIRST STEP         100000
Info: DCD FILE WILL CONTAIN UNIT CELL DATA
Info: XST FILENAME           mobley_8861672_prod.xst
Info: XST FREQUENCY          100000
Info: NO VELOCITY DCD OUTPUT
Info: NO FORCE DCD OUTPUT
Info: OUTPUT FILENAME        mobley_8861672_prod
Info: BINARY OUTPUT FILES WILL BE USED
Info: RESTART FILENAME       mobley_8861672_prod.restart
Info: RESTART FREQUENCY      100000
Info: BINARY RESTART FILES WILL BE USED
Info: CUTOFF                 9
Info: PAIRLIST DISTANCE      11
Info: PAIRLIST SHRINK RATE   0.01
Info: PAIRLIST GROW RATE     0.01
Info: PAIRLIST TRIGGER       0.3
Info: PAIRLISTS PER CYCLE    2
Info: PAIRLISTS ENABLED
Info: MARGIN                 2
Info: HYDROGEN GROUP CUTOFF  2.5
Info: PATCH DIMENSION        15.5
Info: ENERGY OUTPUT STEPS    100000
Info: ENERGY EVALUATION STEPS    100000
Info: OUTPUT ENERGY PRECISION 4
Info: CROSSTERM ENERGY INCLUDED IN DIHEDRAL
Info: TIMING OUTPUT STEPS    1000000
Info: PRESSURE OUTPUT STEPS  100000
Info: ALCHEMICAL FEP ON
Info: FEP CURRENT LAMBDA VALUE     0
Info: FEP COMPARISON LAMBDA VALUE  0.05
Info: FEP INTRA-ALCHEMICAL NON-BONDED INTERACTIONS WILL BE RETAINED
Info: FEP INTRA-ALCHEMICAL BONDED INTERACTIONS WILL BE RETAINED
Info: FEP VDW SHIFTING COEFFICIENT 5
Info: FEP ELEC. ACTIVE FOR ANNIHILATED PARTICLES BETWEEN LAMBDA = 0 AND LAMBDA = 0.5
Info: FEP ELEC. ACTIVE FOR EXNIHILATED PARTICLES BETWEEN LAMBDA = 0.5 AND LAMBDA = 1
Info: FEP VDW ACTIVE FOR ANNIHILATED PARTICLES BETWEEN LAMBDA = 0 AND LAMBDA = 1
Info: FEP VDW ACTIVE FOR EXNIHILATED PARTICLES BETWEEN LAMBDA = 0 AND LAMBDA = 1
Info: FEP BOND ACTIVE FOR ANNIHILATED PARTICLES BETWEEN LAMBDA = 1 AND LAMBDA = 1
Info: FEP BOND ACTIVE FOR EXNIHILATED PARTICLES BETWEEN LAMBDA = 0 AND LAMBDA = 0
Info: LANGEVIN DYNAMICS ACTIVE
Info: LANGEVIN TEMPERATURE   300
Info: LANGEVIN USING BBK INTEGRATOR
Info: LANGEVIN DAMPING COEFFICIENT IS 1 INVERSE PS
Info: LANGEVIN DYNAMICS APPLIED TO HYDROGENS
Info: LANGEVIN PISTON PRESSURE CONTROL ACTIVE
Info:        TARGET PRESSURE IS 1.01325 BAR
Info:     OSCILLATION PERIOD IS 50 FS
Info:             DECAY TIME IS 25 FS
Info:     PISTON TEMPERATURE IS 300 K
Info:       PRESSURE CONTROL IS GROUP-BASED
Info:    INITIAL STRAIN RATE IS -8.94394e-05 -8.94394e-05 -8.94394e-05
Info:       CELL FLUCTUATION IS ISOTROPIC
Info: PARTICLE MESH EWALD (PME) ACTIVE
Info: PME TOLERANCE               1e-06
Info: PME EWALD COEFFICIENT       0.348832
Info: PME INTERPOLATION ORDER     4
Info: PME GRID DIMENSIONS         32 32 32
Info: PME MAXIMUM GRID SPACING    1
Info: PME CALCULATION WILL BE PERFORMED ON GPU
Info: FULL ELECTROSTATIC EVALUATION FREQUENCY      2
Info: USING VERLET I (r-RESPA) MTS SCHEME.
Info: C1 SPLITTING OF LONG RANGE ELECTROSTATICS
Info: PLACING ATOMS IN PATCHES BY HYDROGEN GROUPS
Info: RIGID BONDS TO HYDROGEN : ALL
Info:         ERROR TOLERANCE : 1e-08
Info:          MAX ITERATIONS : 100
Info: RIGID WATER USING SETTLE ALGORITHM
Info: RANDOM NUMBER SEED     1743595762
Info: USE HYDROGEN BONDS?    NO
Info: Using AMBER format force field!
Info: AMBER PARM FILE        mobley_8861672.prmtop
Info: COORDINATE PDB         mobley_8861672.pdb
Info: Exclusions will be read from PARM file!
Info: SCNB (VDW SCALING)     2
Info: USING ARITHMETIC MEAN TO COMBINE L-J SIGMA PARAMETERS
Info: BINARY COORDINATES     mobley_8861672_equil.coor
Info: SUMMARY OF PARAMETERS:
Info: 8 BONDS
Info: 10 ANGLES
Info:   10 HARMONIC
Info:   0 COSINE-BASED
Info: 4 DIHEDRAL
Info: 0 IMPROPER
Info: 0 CROSSTERM
Info: 0 VDW
Info: 36 VDW_PAIRS
Info: 0 NBTHOLE_PAIRS
Info: To read alchdata from file: mobley_8861672.pdb
Info: To read alchflag data from column: 5
Info: STRUCTURE SUMMARY:
Info: 2939 ATOMS
Info: 2939 BONDS
Info: 28 ANGLES
Info: 37 DIHEDRALS
Info: 0 IMPROPERS
Info: 0 CROSSTERMS
Info: 2996 EXCLUSIONS
Info: 2931 RIGID BONDS
Info: ALCH: 0 ATOMS TO DISAPPEAR IN FINAL STATE
Info: ALCH: 17 ATOMS TO APPEAR IN FINAL STATE
Info: 5886 DEGREES OF FREEDOM
Info: 982 HYDROGEN GROUPS
Info: 4 ATOMS IN LARGEST HYDROGEN GROUP
Info: 982 MIGRATION GROUPS
Info: 4 ATOMS IN LARGEST MIGRATION GROUP
Info: TOTAL MASS = 17654.7 amu
Info: TOTAL CHARGE = -9.99793e-05 e
Info: MASS DENSITY = 0.980344 g/cm^3
Info: ATOM DENSITY = 0.0982783 atoms/A^3
Info: ADDED 0 IMPLICIT EXCLUSIONS
Info: NONBONDED TABLE R-SQUARED SPACING: 0.0625
Info: NONBONDED TABLE SIZE: 705 POINTS
Info: REMOVING COM VELOCITY -0.129372 0.0220262 -0.0760939
Info: Use 3D box decompostion in PME FFT.
Info: Updated CUDA force table with 4096 elements.
Info: Updated CUDA LJ table with 8 x 8 elements.
Info: Found 19 unique exclusion lists needing 44 bytes
TCL: Running for 1500000 steps
ETITLE: TS BOND ANGLE DIHED IMPRP ELECT VDW BOUNDARY MISC KINETIC TOTAL TEMP POTENTIAL TOTALAVG TEMPAVG PRESSURE GPRESSURE VOLUME PRESSAVG GPRESSAVG
ENERGY: 0 4.3219 4.1011 1.3363 0.0000 -10718.8651 1458.3964 0.0000 0.0000 1809.6503 -7441.0592 309.4317 -9250.7095 -7441.0592 309.4317 445.6026 520.2715 29904.8630 445.6026 520.2715
ENERGY: 300000 2.2760 4.5050 0.9675 0.0000 -10696.5208 1439.8653 0.0000 0.0000 1667.7852 -7581.1218 285.1742 -9248.9070 -7487.7171 300.1531 -125.6672 -113.7245 30140.3440 223.8077 287.8687
ENERGY: 600000 2.2292 5.6869 2.9726 0.0000 -10699.3328 1415.0537 0.0000 0.0000 1718.1158 -7555.2747 293.7802 -9273.3905 -7511.3482 297.9467 -163.7893 -66.6868 29673.1540 35.1931 91.1423
ENERGY: 900000 2.0261 6.9295 2.1466 0.0000 -10896.9937 1554.7113 0.0000 0.0000 1718.2255 -7612.9548 293.7990 -9331.1803 -7507.8286 299.2353 706.5902 812.9910 29948.1273 104.4360 162.9484
ENERGY: 1200000 1.8659 7.4139 5.5238 0.0000 -10726.6880 1431.4541 0.0000 0.0000 1743.1306 -7537.2998 298.0575 -9280.4303 -7508.0187 298.9986 -114.8032 -86.1476 29632.4573 2.0772 56.3075
ENERGY: 1500000 0.3969 5.8729 2.6744 0.0000 -10639.5808 1408.0123 0.0000 0.0000 1711.3982 -7511.2260 292.6316 -9222.6243 -7499.7642 299.6769 -149.9506 -87.3598 30020.3116 -16.3026 31.6156
TCL: Running FEP window   2: Lambda1 0.05   Lambda2 0.1    [dLambda 0.05  ]
TCL: Setting parameter firsttimestep to 0
TCL: Setting parameter alchLambda to 0.05
Info: NONBONDED TABLE R-SQUARED SPACING: 0.0625
Info: NONBONDED TABLE SIZE: 705 POINTS
TCL: Setting parameter alchLambda2 to 0.1
Info: NONBONDED TABLE R-SQUARED SPACING: 0.0625
Info: NONBONDED TABLE SIZE: 705 POINTS
TCL: Running for 1500000 steps
ETITLE: TS BOND ANGLE DIHED IMPRP ELECT VDW BOUNDARY MISC KINETIC TOTAL TEMP POTENTIAL TOTALAVG TEMPAVG PRESSURE GPRESSURE VOLUME PRESSAVG GPRESSAVG
ENERGY: 0 0.3969 5.8729 2.6744 0.0000 -10639.5799 1409.7218 0.0000 0.0000 1710.5615 -7510.3524 292.4885 -9220.9139 -7510.3524 292.4885 -174.6981 -82.1942 30020.3116 -174.6981 -82.1942
ENERGY: 300000 3.5970 3.9001 2.3486 0.0000 -10635.0396 1450.4124 0.0000 0.0000 1757.1731 -7417.6085 300.4586 -9174.7815 -7461.5493 299.8080 -261.3474 -172.4853 30827.1146 214.4445 292.2235
ENERGY: 600000 1.1431 9.0059 1.8470 0.0000 -10724.4018 1465.3129 0.0000 0.0000 1755.8374 -7491.2554 300.2302 -9247.0928 -7494.9986 297.9197 208.4469 277.0471 30267.4976 178.8018 245.5506
ENERGY: 900000 3.2152 6.9007 2.6715 0.0000 -10644.6732 1409.8819 0.0000 0.0000 1733.2533 -7488.7506 296.3686 -9222.0039 -7501.2705 298.6127 -357.1798 -311.9111 30173.5992 227.2462 299.4970
ENERGY: 1200000 4.7175 8.9697 2.5068 0.0000 -10718.8004 1416.9930 0.0000 0.0000 1749.4627 -7536.1509 299.1402 -9285.6135 -7502.9731 298.4800 -344.5192 -276.1112 29756.2655 278.7204 340.0329
ENERGY: 1500000 4.9604 3.9952 1.6470 0.0000 -10723.2964 1415.7739 0.0000 0.0000 1743.6584 -7553.2614 298.1477 -9296.9198 -7502.7444 297.9585 -499.4895 -425.3724 29995.5934 119.7765 185.6843
TCL: Running FEP window   3: Lambda1 0.1    Lambda2 0.15000000000000002 [dLambda 0.05000000000000002]
TCL: Setting parameter firsttimestep to 0
TCL: Setting parameter alchLambda to 0.1
Info: NONBONDED TABLE R-SQUARED SPACING: 0.0625
Info: NONBONDED TABLE SIZE: 705 POINTS
TCL: Setting parameter alchLambda2 to 0.15000000000000002
Info: NONBONDED TABLE R-SQUARED SPACING: 0.0625
Info: NONBONDED TABLE SIZE: 705 POINTS
TCL: Running for 1500000 steps
ETITLE: TS BOND ANGLE DIHED IMPRP ELECT VDW BOUNDARY MISC KINETIC TOTAL TEMP POTENTIAL TOTALAVG TEMPAVG PRESSURE GPRESSURE VOLUME PRESSAVG GPRESSAVG
ENERGY: 0 4.9604 3.9952 1.6470 0.0000 -10723.2961 1415.7960 0.0000 0.0000 1742.8152 -7554.0823 298.0036 -9296.8975 -7554.0823 298.0036 -504.3086 -419.9831 29995.5934 -504.3086 -419.9831
ENERGY: 300000 2.8641 6.8893 5.2717 0.0000 -10621.1604 1345.9029 0.0000 0.0000 1749.9964 -7510.2360 299.2315 -9260.2323 -7467.4578 300.6740 -742.8736 -709.5621 29915.1613 -494.8268 -459.3629
ENERGY: 600000 2.0255 9.1406 1.1477 0.0000 -10711.0538 1425.4755 0.0000 0.0000 1715.7996 -7557.4649 293.3842 -9273.2645 -7479.8396 299.0887 -375.0933 -369.0063 30438.9333 -381.2064 -333.0575
ENERGY: 900000 1.7441 6.4338 3.7096 0.0000 -10641.1844 1483.6383 0.0000 0.0000 1701.0926 -7444.5659 290.8694 -9145.6586 -7481.0642 299.1458 443.4737 478.3408 30186.1886 -170.4334 -111.6567
ENERGY: 1200000 2.1028 4.6475 4.2803 0.0000 -10670.8116 1388.3997 0.0000 0.0000 1727.5639 -7543.8175 295.3957 -9271.3814 -7479.5294 298.3476 -549.2174 -467.7300 30014.2167 -112.7317 -44.3516
ENERGY: 1500000 0.9052 7.7006 1.1710 0.0000 -10663.7948 1456.1192 0.0000 0.0000 1784.1139 -7413.7849 305.0652 -9197.8988 -7472.0694 299.3456 373.0153 368.4409 30088.1647 -96.2657 -34.1971
TCL: Running FEP window   4: Lambda1 0.15000000000000002 Lambda2 0.2    [dLambda 0.04999999999999999]
TCL: Setting parameter firsttimestep to 0
TCL: Setting parameter alchLambda to 0.15000000000000002
Info: NONBONDED TABLE R-SQUARED SPACING: 0.0625
Info: NONBONDED TABLE SIZE: 705 POINTS
TCL: Setting parameter alchLambda2 to 0.2
Info: NONBONDED TABLE R-SQUARED SPACING: 0.0625
Info: NONBONDED TABLE SIZE: 705 POINTS
TCL: Running for 1500000 steps
ETITLE: TS BOND ANGLE DIHED IMPRP ELECT VDW BOUNDARY MISC KINETIC TOTAL TEMP POTENTIAL TOTALAVG TEMPAVG PRESSURE GPRESSURE VOLUME PRESSAVG GPRESSAVG
ENERGY: 0 0.9052 7.7006 1.1710 0.0000 -10663.7957 1457.6969 0.0000 0.0000 1783.2643 -7413.0577 304.9199 -9196.3219 -7413.0577 304.9199 282.6494 374.4722 30088.1647 282.6494 374.4722
ENERGY: 300000 4.4453 9.4848 1.2307 0.0000 -10569.9156 1365.1521 0.0000 0.0000 1767.2774 -7422.3254 302.1864 -9189.6028 -7437.1480 303.0433 -710.4884 -622.6744 30719.6068 -310.2329 -226.0947
ENERGY: 600000 1.3181 5.2915 2.1276 0.0000 -10661.7039 1440.1548 0.0000 0.0000 1744.6771 -7468.1348 298.3219 -9212.8118 -7439.5662 301.7986 -40.3758 12.5445 30293.4875 -179.1901 -89.6629
ENERGY: 900000 2.2946 6.1033 5.3169 0.0000 -10598.1738 1385.1620 0.0000 0.0000 1731.5155 -7467.7815 296.0714 -9199.2970 -7457.1349 300.8961 -278.0701 -228.9999 30145.2138 -136.8848 -56.3898
ENERGY: 1200000 1.1051 5.7409 3.0233 0.0000 -10628.8830 1422.5158 0.0000 0.0000 1755.7290 -7440.7690 300.2117 -9196.4979 -7461.1910 300.7976 73.3802 114.2958 29934.8104 -208.3043 -130.3957
ENERGY: 1500000 2.2295 3.6262 1.6475 0.0000 -10675.6371 1441.5587 0.0000 0.0000 1738.8643 -7487.7111 297.3280 -9226.5753 -7461.6007 300.8493 -103.3373 -42.5870 30226.5748 -143.8769 -77.0603
TCL: Running FEP window   5: Lambda1 0.2    Lambda2 0.25   [dLambda 0.04999999999999999]
TCL: Setting parameter firsttimestep to 0
TCL: Setting parameter alchLambda to 0.2
Info: NONBONDED TABLE R-SQUARED SPACING: 0.0625
Info: NONBONDED TABLE SIZE: 705 POINTS
TCL: Setting parameter alchLambda2 to 0.25
Info: NONBONDED TABLE R-SQUARED SPACING: 0.0625
Info: NONBONDED TABLE SIZE: 705 POINTS
TCL: Running for 1500000 steps
ETITLE: TS BOND ANGLE DIHED IMPRP ELECT VDW BOUNDARY MISC KINETIC TOTAL TEMP POTENTIAL TOTALAVG TEMPAVG PRESSURE GPRESSURE VOLUME PRESSAVG GPRESSAVG
ENERGY: 0 2.2295 3.6262 1.6475 0.0000 -10675.6360 1441.1494 0.0000 0.0000 1737.9530 -7489.0306 297.1722 -9226.9836 -7489.0306 297.1722 -122.9963 -43.4047 30226.5748 -122.9963 -43.4047
ENERGY: 300000 4.3390 4.1310 1.5675 0.0000 -10544.0522 1355.2069 0.0000 0.0000 1719.1474 -7459.6605 293.9566 -9178.8079 -7476.9995 297.5899 -390.7282 -393.3864 30048.4974 -256.5060 -197.3719
ENERGY: 600000 1.3242 5.6714 0.7879 0.0000 -10896.8171 1562.7471 0.0000 0.0000 1844.5811 -7481.7055 315.4045 -9326.2866 -7471.3180 303.4090 780.4403 822.1718 30071.3059 -49.1370 12.5593
ENERGY: 900000 2.2205 5.9472 1.9647 0.0000 -10604.4602 1360.1264 0.0000 0.0000 1670.4819 -7563.7195 285.6353 -9234.2015 -7479.4132 300.5299 -432.3858 -367.3794 29695.2776 15.0864 84.4601
ENERGY: 1200000 1.4151 4.9683 1.9608 0.0000 -10720.8865 1466.2658 0.0000 0.0000 1671.0374 -7575.2392 285.7303 -9246.2765 -7480.7556 300.7388 190.4441 208.4213 29833.9584 90.0411 153.2563
ENERGY: 1500000 1.6795 5.2544 2.6299 0.0000 -10572.2583 1328.1542 0.0000 0.0000 1715.3637 -7519.1765 293.3096 -9234.5403 -7483.8022 300.6187 -696.3284 -658.3989 29776.8694 25.7543 76.2115
TCL: Running FEP window   6: Lambda1 0.25   Lambda2 0.3    [dLambda 0.04999999999999999]
TCL: Setting parameter firsttimestep to 0
TCL: Setting parameter alchLambda to 0.25
Info: NONBONDED TABLE R-SQUARED SPACING: 0.0625
Info: NONBONDED TABLE SIZE: 705 POINTS
TCL: Setting parameter alchLambda2 to 0.3
Info: NONBONDED TABLE R-SQUARED SPACING: 0.0625
Info: NONBONDED TABLE SIZE: 705 POINTS
TCL: Running for 1500000 steps
ETITLE: TS BOND ANGLE DIHED IMPRP ELECT VDW BOUNDARY MISC KINETIC TOTAL TEMP POTENTIAL TOTALAVG TEMPAVG PRESSURE GPRESSURE VOLUME PRESSAVG GPRESSAVG
ENERGY: 0 1.6795 5.2544 2.6299 0.0000 -10572.2574 1329.1705 0.0000 0.0000 1714.5103 -7519.0128 293.1637 -9233.5231 -7519.0128 293.1637 -716.2311 -648.1906 29776.8694 -716.2311 -648.1906
ENERGY: 300000 1.4838 5.2708 2.8571 0.0000 -10469.4396 1285.1184 0.0000 0.0000 1707.3630 -7467.3465 291.9416 -9174.7095 -7469.5226 295.3758 -1233.9932 -1132.1703 30716.3077 -755.1287 -667.6647
ENERGY: 600000 1.6610 5.2827 2.2501 0.0000 -10882.2364 1512.4981 0.0000 0.0000 1781.3475 -7579.1970 304.5922 -9360.5444 -7483.8149 297.0203 416.5767 463.8494 29944.3256 -625.8903 -557.9864
ENERGY: 900000 1.3369 4.2915 1.9876 0.0000 -10637.2146 1366.2946 0.0000 0.0000 1675.2884 -7588.0157 286.4572 -9263.3041 -7472.2750 297.8259 -688.5618 -672.7418 30355.5120 -585.7755 -529.0064
ENERGY: 1200000 1.2054 8.6325 3.2037 0.0000 -10654.4570 1399.4040 0.0000 0.0000 1761.0618 -7480.9497 301.1235 -9242.0115 -7477.0693 297.9768 -205.7682 -159.2981 29735.2704 -444.1452 -389.0844
ENERGY: 1500000 1.1407 5.4389 4.3772 0.0000 -10739.1501 1475.3545 0.0000 0.0000 1749.5161 -7503.3228 299.1493 -9252.8388 -7478.8887 297.9205 141.1789 186.9623 30042.0112 -381.4044 -329.1739
TCL: Running FEP window   7: Lambda1 0.3    Lambda2 0.35   [dLambda 0.04999999999999999]
TCL: Setting parameter firsttimestep to 0
TCL: Setting parameter alchLambda to 0.3
Info: NONBONDED TABLE R-SQUARED SPACING: 0.0625
Info: NONBONDED TABLE SIZE: 705 POINTS
TCL: Setting parameter alchLambda2 to 0.35
Info: NONBONDED TABLE R-SQUARED SPACING: 0.0625
Info: NONBONDED TABLE SIZE: 705 POINTS
TCL: Running for 1500000 steps
ETITLE: TS BOND ANGLE DIHED IMPRP ELECT VDW BOUNDARY MISC KINETIC TOTAL TEMP POTENTIAL TOTALAVG TEMPAVG PRESSURE GPRESSURE VOLUME PRESSAVG GPRESSAVG
ENERGY: 0 1.1407 5.4389 4.3772 0.0000 -10739.1503 1475.3003 0.0000 0.0000 1748.6400 -7504.2532 298.9995 -9252.8932 -7504.2532 298.9995 104.8363 191.3807 30042.0112 104.8363 191.3807
ENERGY: 300000 2.7678 6.8665 1.8234 0.0000 -10614.7162 1422.1431 0.0000 0.0000 1804.4383 -7376.6771 308.5405 -9181.1153 -7408.1882 305.8482 117.4202 205.5952 30365.2236 -229.8722 -147.8004
ENERGY: 600000 2.4413 8.7942 3.7199 0.0000 -10542.1346 1419.1159 0.0000 0.0000 1758.0382 -7350.0251 300.6065 -9108.0633 -7411.6193 303.2440 14.9485 87.8230 30340.0988 -201.1103 -140.8028
ENERGY: 900000 3.5816 7.9149 1.5675 0.0000 -10819.3451 1506.6792 0.0000 0.0000 1784.9424 -7514.6595 305.2069 -9299.6019 -7436.2740 303.7069 431.0786 506.0730 29995.1952 -83.0220 -26.4864
ENERGY: 1200000 1.2991 4.2066 1.5634 0.0000 -10694.9584 1425.6432 0.0000 0.0000 1791.1045 -7471.1416 306.2605 -9262.2461 -7444.7806 304.1244 -97.1591 -1.3832 30159.6357 -128.6198 -76.5874
ENERGY: 1500000 1.6702 7.5815 2.7792 0.0000 -10620.3727 1393.8938 0.0000 0.0000 1767.3122 -7447.1357 302.1923 -9214.4479 -7448.5848 303.1281 -406.4571 -406.3565 30483.9785 -128.4804 -76.7166
TCL: Running FEP window   8: Lambda1 0.35   Lambda2 0.39999999999999997 [dLambda 0.04999999999999999]
TCL: Setting parameter firsttimestep to 0
TCL: Setting parameter alchLambda to 0.35
Info: NONBONDED TABLE R-SQUARED SPACING: 0.0625
Info: NONBONDED TABLE SIZE: 705 POINTS
TCL: Setting parameter alchLambda2 to 0.39999999999999997
Info: NONBONDED TABLE R-SQUARED SPACING: 0.0625
Info: NONBONDED TABLE SIZE: 705 POINTS
TCL: Running for 1500000 steps
ETITLE: TS BOND ANGLE DIHED IMPRP ELECT VDW BOUNDARY MISC KINETIC TOTAL TEMP POTENTIAL TOTALAVG TEMPAVG PRESSURE GPRESSURE VOLUME PRESSAVG GPRESSAVG
ENERGY: 0 1.6702 7.5815 2.7792 0.0000 -10620.3730 1393.4926 0.0000 0.0000 1766.4105 -7448.4390 302.0381 -9214.8495 -7448.4390 302.0381 -492.8943 -405.0748 30483.9785 -492.8943 -405.0748
ENERGY: 300000 1.4609 4.3720 2.3334 0.0000 -10742.4791 1442.0035 0.0000 0.0000 1751.2457 -7541.0636 299.4451 -9292.3093 -7485.9696 299.6638 -147.8317 -63.8418 29925.5172 -368.1618 -317.9345
ENERGY: 600000 1.7807 4.3415 2.0093 0.0000 -10619.6894 1365.7162 0.0000 0.0000 1812.6433 -7433.1985 309.9435 -9245.8417 -7475.6040 300.7536 -280.4419 -245.2447 29694.8671 -312.1259 -265.9297
ENERGY: 900000 1.4797 6.6789 2.5068 0.0000 -10782.6396 1435.5788 0.0000 0.0000 1765.8513 -7570.5441 301.9425 -9336.3954 -7476.5005 301.2591 -429.7173 -437.0169 30296.3960 -247.5550 -213.2140
ENERGY: 1200000 1.0510 10.2200 8.2055 0.0000 -10697.5655 1424.8396 0.0000 0.0000 1791.1197 -7462.1296 306.2631 -9253.2494 -7481.9651 301.3929 -393.2840 -336.7346 30535.4967 -180.0948 -141.2995
ENERGY: 1500000 2.0877 3.9432 1.1767 0.0000 -10633.1571 1425.2873 0.0000 0.0000 1739.7391 -7460.9230 297.4776 -9200.6621 -7481.3848 300.1596 -87.9968 -79.0059 30336.5468 -195.8561 -154.0757
TCL: Running FEP window   9: Lambda1 0.39999999999999997 Lambda2 0.44999999999999996 [dLambda 0.04999999999999999]
TCL: Setting parameter firsttimestep to 0
TCL: Setting parameter alchLambda to 0.39999999999999997
Info: NONBONDED TABLE R-SQUARED SPACING: 0.0625
Info: NONBONDED TABLE SIZE: 705 POINTS
TCL: Setting parameter alchLambda2 to 0.44999999999999996
Info: NONBONDED TABLE R-SQUARED SPACING: 0.0625
Info: NONBONDED TABLE SIZE: 705 POINTS
TCL: Running for 1500000 steps
ETITLE: TS BOND ANGLE DIHED IMPRP ELECT VDW BOUNDARY MISC KINETIC TOTAL TEMP POTENTIAL TOTALAVG TEMPAVG PRESSURE GPRESSURE VOLUME PRESSAVG GPRESSAVG
ENERGY: 0 2.0877 3.9432 1.1767 0.0000 -10633.1548 1425.7747 0.0000 0.0000 1738.8789 -7461.2936 297.3305 -9200.1724 -7461.2936 297.3305 -144.2932 -70.7181 30336.5468 -144.2932 -70.7181
ENERGY: 300000 2.2998 6.0112 2.1452 0.0000 -10764.4593 1511.5598 0.0000 0.0000 1710.4454 -7531.9980 292.4687 -9242.4434 -7515.2227 296.9233 416.2524 525.3406 30407.9737 172.4953 256.0130
ENERGY: 600000 1.8948 6.1378 0.5693 0.0000 -10795.7732 1486.0880 0.0000 0.0000 1783.0475 -7518.0359 304.8829 -9301.0834 -7504.0947 298.5608 262.0619 244.0306 29986.5296 150.7303 216.4656
ENERGY: 900000 5.5565 7.2633 2.3087 0.0000 -10660.7393 1406.3639 0.0000 0.0000 1794.4847 -7444.7623 306.8385 -9239.2470 -7503.7935 299.5789 -291.2339 -228.0315 30366.2536 127.1206 180.7275
ENERGY: 1200000 1.8319 4.2262 0.6599 0.0000 -10758.6312 1446.2264 0.0000 0.0000 1741.7561 -7563.9308 297.8225 -9305.6869 -7506.4427 299.6645 -305.0666 -228.9298 30519.0875 143.2358 202.2325
ENERGY: 1500000 2.3155 4.0262 1.8151 0.0000 -10619.8454 1468.3865 0.0000 0.0000 1747.4144 -7395.8876 298.7900 -9143.3020 -7501.3582 298.8189 547.7201 627.4493 29988.8668 140.7884 200.1398
TCL: Running FEP window  10: Lambda1 0.44999999999999996 Lambda2 0.49999999999999994 [dLambda 0.04999999999999999]
TCL: Setting parameter firsttimestep to 0
TCL: Setting parameter alchLambda to 0.44999999999999996
Info: NONBONDED TABLE R-SQUARED SPACING: 0.0625
Info: NONBONDED TABLE SIZE: 705 POINTS
TCL: Setting parameter alchLambda2 to 0.49999999999999994
Info: NONBONDED TABLE R-SQUARED SPACING: 0.0625
Info: NONBONDED TABLE SIZE: 705 POINTS
TCL: Running for 1500000 steps
ETITLE: TS BOND ANGLE DIHED IMPRP ELECT VDW BOUNDARY MISC KINETIC TOTAL TEMP POTENTIAL TOTALAVG TEMPAVG PRESSURE GPRESSURE VOLUME PRESSAVG GPRESSAVG
ENERGY: 0 2.3155 4.0262 1.8151 0.0000 -10619.8436 1468.3472 0.0000 0.0000 1746.5521 -7396.7874 298.6425 -9143.3395 -7396.7874 298.6425 544.6234 632.7686 29988.8668 544.6234 632.7686
ENERGY: 300000 1.4514 6.2154 3.1296 0.0000 -10633.6628 1374.5468 0.0000 0.0000 1722.6468 -7525.6728 294.5550 -9248.3197 -7539.4987 292.9907 -284.3322 -247.2697 29903.3955 36.6862 114.0428
ENERGY: 600000 2.6473 4.6723 4.1637 0.0000 -10720.5365 1469.6603 0.0000 0.0000 1819.9971 -7419.3958 311.2009 -9239.3929 -7502.4137 297.8443 437.2391 515.0595 29790.5197 56.2077 138.0943
ENERGY: 900000 5.2805 4.7192 0.6672 0.0000 -10725.4095 1490.3152 0.0000 0.0000 1754.9200 -7469.5073 300.0734 -9224.4273 -7503.8509 298.6790 301.6403 326.9135 30269.2122 85.3208 160.5514
ENERGY: 1200000 2.0388 8.9009 0.5446 0.0000 -10506.4930 1320.7439 0.0000 0.0000 1744.3917 -7429.8730 298.2731 -9174.2647 -7500.4366 298.0608 -708.2245 -707.4002 30492.5145 16.5042 83.8526
ENERGY: 1500000 2.2461 4.4556 2.8789 0.0000 -10549.5909 1367.4823 0.0000 0.0000 1780.0673 -7392.4607 304.3733 -9172.5280 -7485.9399 299.0622 -238.2857 -228.5472 30290.6764 -23.3364 43.1749
TCL: Running FEP window  11: Lambda1 0.49999999999999994 Lambda2 0.5499999999999999 [dLambda 0.04999999999999999]
TCL: Setting parameter firsttimestep to 0
TCL: Setting parameter alchLambda to 0.49999999999999994
Info: NONBONDED TABLE R-SQUARED SPACING: 0.0625
Info: NONBONDED TABLE SIZE: 705 POINTS
TCL: Setting parameter alchLambda2 to 0.5499999999999999
Info: NONBONDED TABLE R-SQUARED SPACING: 0.0625
Info: NONBONDED TABLE SIZE: 705 POINTS
TCL: Running for 1500000 steps
ETITLE: TS BOND ANGLE DIHED IMPRP ELECT VDW BOUNDARY MISC KINETIC TOTAL TEMP POTENTIAL TOTALAVG TEMPAVG PRESSURE GPRESSURE VOLUME PRESSAVG GPRESSAVG
ENERGY: 0 2.2461 4.4556 2.8789 0.0000 -10549.5909 1367.6255 0.0000 0.0000 1779.2316 -7393.1532 304.2304 -9172.3848 -7393.1532 304.2304 -298.3108 -219.9767 30290.6764 -298.3108 -219.9767
ENERGY: 300000 1.2805 4.2862 2.7341 0.0000 -10517.1984 1352.2230 0.0000 0.0000 1716.0084 -7440.6662 293.4199 -9156.6746 -7423.6173 303.5257 -816.6801 -763.1484 30762.7514 -576.9331 -507.8739
ENERGY: 600000 1.2556 10.2537 2.4939 0.0000 -10801.1789 1474.4530 0.0000 0.0000 1715.6400 -7597.0827 293.3569 -9312.7227 -7467.2550 300.1473 -147.9348 -143.2355 30404.4552 -402.5509 -345.3101
ENERGY: 900000 2.3331 6.4903 2.2819 0.0000 -10699.0258 1392.2540 0.0000 0.0000 1792.7124 -7502.9542 306.5355 -9295.6666 -7473.3689 301.9867 -374.3636 -352.3668 30080.5096 -382.4781 -331.7776
ENERGY: 1200000 1.8488 6.2336 5.1639 0.0000 -10710.6856 1496.7004 0.0000 0.0000 1723.3526 -7477.3863 294.6757 -9200.7389 -7474.4212 300.5182 344.2997 429.1828 30340.7202 -242.3904 -188.6576
ENERGY: 1500000 4.0564 5.7207 2.7942 0.0000 -10862.9932 1510.6780 0.0000 0.0000 1780.0869 -7559.6569 304.3767 -9339.7439 -7474.7178 301.3633 505.7999 526.3326 29788.1340 -162.8545 -112.7339
TCL: Running FEP window  12: Lambda1 0.5499999999999999 Lambda2 0.6    [dLambda 0.050000000000000044]
TCL: Setting parameter firsttimestep to 0
TCL: Setting parameter alchLambda to 0.5499999999999999
Info: NONBONDED TABLE R-SQUARED SPACING: 0.0625
Info: NONBONDED TABLE SIZE: 705 POINTS
TCL: Setting parameter alchLambda2 to 0.6
Info: NONBONDED TABLE R-SQUARED SPACING: 0.0625
Info: NONBONDED TABLE SIZE: 705 POINTS
TCL: Running for 1500000 steps
ETITLE: TS BOND ANGLE DIHED IMPRP ELECT VDW BOUNDARY MISC KINETIC TOTAL TEMP POTENTIAL TOTALAVG TEMPAVG PRESSURE GPRESSURE VOLUME PRESSAVG GPRESSAVG
ENERGY: 0 4.0564 5.7207 2.7942 0.0000 -10864.1102 1511.0862 0.0000 0.0000 1779.2011 -7561.2516 304.2252 -9340.4527 -7561.2516 304.2252 450.7066 536.4228 29788.1340 450.7066 536.4228
ENERGY: 300000 4.5802 4.4211 1.7857 0.0000 -10749.4037 1504.0674 0.0000 0.0000 1754.0273 -7480.5220 299.9207 -9234.5493 -7526.2471 296.5481 758.2312 827.6987 29764.4821 116.5531 186.3945
ENERGY: 600000 1.3888 3.5892 1.9991 0.0000 -10566.7106 1365.1892 0.0000 0.0000 1788.5404 -7406.0039 305.8221 -9194.5442 -7506.5103 296.8776 -316.6100 -302.4048 30067.8861 210.2670 267.6731
ENERGY: 900000 1.4564 5.5985 2.5485 0.0000 -10511.2859 1332.7962 0.0000 0.0000 1766.9848 -7401.9013 302.1363 -9168.8862 -7493.5175 296.9967 -693.1071 -590.8852 30338.6828 -23.8489 34.6860
ENERGY: 1200000 2.9973 4.0977 2.2806 0.0000 -10657.6659 1454.3524 0.0000 0.0000 1729.4625 -7464.4756 295.7204 -9193.9381 -7489.2978 297.0625 295.2718 372.3842 30270.0080 -70.0360 -12.9787
ENERGY: 1500000 2.7457 4.9339 1.6362 0.0000 -10723.0814 1483.6911 0.0000 0.0000 1785.4094 -7444.6650 305.2867 -9230.0744 -7490.0759 297.5401 369.0486 420.0124 30310.0295 138.2521 194.6011
TCL: Running FEP window  13: Lambda1 0.6    Lambda2 0.65   [dLambda 0.050000000000000044]
TCL: Setting parameter firsttimestep to 0
TCL: Setting parameter alchLambda to 0.6
Info: NONBONDED TABLE R-SQUARED SPACING: 0.0625
Info: NONBONDED TABLE SIZE: 705 POINTS
TCL: Setting parameter alchLambda2 to 0.65
Info: NONBONDED TABLE R-SQUARED SPACING: 0.0625
Info: NONBONDED TABLE SIZE: 705 POINTS
TCL: Running for 1500000 steps
ETITLE: TS BOND ANGLE DIHED IMPRP ELECT VDW BOUNDARY MISC KINETIC TOTAL TEMP POTENTIAL TOTALAVG TEMPAVG PRESSURE GPRESSURE VOLUME PRESSAVG GPRESSAVG
ENERGY: 0 2.7457 4.9339 1.6362 0.0000 -10723.2204 1483.6015 0.0000 0.0000 1784.5263 -7445.7768 305.1357 -9230.3031 -7445.7768 305.1357 345.2059 424.9783 30310.0295 345.2059 424.9783
ENERGY: 300000 5.4521 6.4934 1.1820 0.0000 -10649.8456 1432.1999 0.0000 0.0000 1801.2718 -7403.2464 307.9991 -9204.5182 -7457.5794 302.6464 157.1557 153.9971 30281.6992 144.4118 187.4245
ENERGY: 600000 4.6632 6.8749 1.5443 0.0000 -10652.6256 1372.8396 0.0000 0.0000 1739.0715 -7527.6321 297.3634 -9266.7036 -7466.5926 299.9264 -543.9773 -516.3486 30048.6332 -137.8496 -87.2358
ENERGY: 900000 3.4048 5.4095 5.1517 0.0000 -10700.9245 1445.8450 0.0000 0.0000 1724.9673 -7516.1462 294.9518 -9241.1135 -7479.3190 299.0891 -69.3862 62.5188 30398.2772 -142.8128 -81.1149
ENERGY: 1200000 2.9926 4.1439 1.9779 0.0000 -10756.3360 1455.2718 0.0000 0.0000 1704.2921 -7587.6577 291.4165 -9291.9499 -7477.8357 299.3626 -26.8967 54.0290 30223.2175 -1.7034 58.6909
ENERGY: 1500000 2.2977 6.3539 2.4027 0.0000 -10689.6249 1462.1960 0.0000 0.0000 1796.6615 -7419.7131 307.2107 -9216.3746 -7473.4344 300.0312 -83.4664 7.3218 30496.9196 -9.3911 53.4013
TCL: Running FEP window  14: Lambda1 0.65   Lambda2 0.7000000000000001 [dLambda 0.050000000000000044]
TCL: Setting parameter firsttimestep to 0
TCL: Setting parameter alchLambda to 0.65
Info: NONBONDED TABLE R-SQUARED SPACING: 0.0625
Info: NONBONDED TABLE SIZE: 705 POINTS
TCL: Setting parameter alchLambda2 to 0.7000000000000001
Info: NONBONDED TABLE R-SQUARED SPACING: 0.0625
Info: NONBONDED TABLE SIZE: 705 POINTS
TCL: Running for 1500000 steps
ETITLE: TS BOND ANGLE DIHED IMPRP ELECT VDW BOUNDARY MISC KINETIC TOTAL TEMP POTENTIAL TOTALAVG TEMPAVG PRESSURE GPRESSURE VOLUME PRESSAVG GPRESSAVG
ENERGY: 0 2.2977 6.3539 2.4027 0.0000 -10689.9611 1462.0291 0.0000 0.0000 1795.8049 -7421.0728 307.0643 -9216.8777 -7421.0728 307.0643 -55.3270 13.5325 30496.9196 -55.3270 13.5325
ENERGY: 300000 3.9165 7.1650 2.1811 0.0000 -10762.8498 1494.0872 0.0000 0.0000 1742.8921 -7512.6079 298.0167 -9255.5000 -7486.2718 300.7569 335.6295 420.9919 30037.0186 -67.6307 -4.5602
ENERGY: 600000 2.5369 3.8723 2.9484 0.0000 -10639.4913 1411.7755 0.0000 0.0000 1787.9675 -7430.3906 305.7242 -9218.3581 -7470.4898 303.3502 -87.0762 -35.5283 30429.1346 -44.3981 12.1506
ENERGY: 900000 1.3432 7.2764 0.6729 0.0000 -10755.7380 1491.1333 0.0000 0.0000 1758.5114 -7496.8008 300.6875 -9255.3122 -7480.0965 302.8977 585.3641 646.3992 29923.6341 16.8500 79.1735
ENERGY: 1200000 2.4472 7.6672 2.1179 0.0000 -10739.9960 1432.7699 0.0000 0.0000 1775.9799 -7519.0139 303.6744 -9294.9938 -7485.5136 302.7910 -220.4656 -151.6816 30402.8811 -151.8444 -86.3415
ENERGY: 1500000 1.6251 7.3969 3.3019 0.0000 -10682.8113 1481.4171 0.0000 0.0000 1763.1512 -7425.9191 301.4808 -9189.0703 -7486.5657 301.3526 824.7540 817.2478 29786.1961 -130.6713 -73.7043
TCL: Running FEP window  15: Lambda1 0.7000000000000001 Lambda2 0.7500000000000001 [dLambda 0.050000000000000044]
TCL: Setting parameter firsttimestep to 0
TCL: Setting parameter alchLambda to 0.7000000000000001
Info: NONBONDED TABLE R-SQUARED SPACING: 0.0625
Info: NONBONDED TABLE SIZE: 705 POINTS
TCL: Setting parameter alchLambda2 to 0.7500000000000001
Info: NONBONDED TABLE R-SQUARED SPACING: 0.0625
Info: NONBONDED TABLE SIZE: 705 POINTS
TCL: Running for 1500000 steps
ETITLE: TS BOND ANGLE DIHED IMPRP ELECT VDW BOUNDARY MISC KINETIC TOTAL TEMP POTENTIAL TOTALAVG TEMPAVG PRESSURE GPRESSURE VOLUME PRESSAVG GPRESSAVG
ENERGY: 0 1.6251 7.3969 3.3019 0.0000 -10683.9628 1481.8731 0.0000 0.0000 1762.2933 -7427.4725 301.3341 -9189.7657 -7427.4725 301.3341 744.2568 829.7901 29786.1961 744.2568 829.7901
ENERGY: 300000 1.2126 4.5385 4.1508 0.0000 -10590.4488 1365.0515 0.0000 0.0000 1759.2973 -7456.1981 300.8218 -9215.4954 -7460.1907 299.3444 -541.8182 -473.5234 30268.3942 67.9848 163.3808
ENERGY: 600000 3.9672 5.4758 2.7591 0.0000 -10727.8555 1416.9579 0.0000 0.0000 1783.4165 -7515.2790 304.9460 -9298.6955 -7463.0837 300.5953 -236.2354 -148.6660 29977.5127 32.0949 120.4607
ENERGY: 900000 2.5974 2.8632 2.3915 0.0000 -10721.0158 1434.1611 0.0000 0.0000 1704.3836 -7574.6190 291.4322 -9279.0026 -7471.8626 299.5768 -132.1779 1.1924 30136.8995 -35.3472 56.8195
ENERGY: 1200000 2.7999 5.7110 2.8281 0.0000 -10764.9569 1526.1400 0.0000 0.0000 1702.1115 -7525.3664 291.0437 -9227.4779 -7479.2780 299.2292 832.4230 820.8113 30063.0351 -22.3337 57.9810
ENERGY: 1500000 1.1538 7.2047 4.0998 0.0000 -10756.8499 1451.0310 0.0000 0.0000 1749.3169 -7544.0436 299.1153 -9293.3605 -7480.0782 299.9370 61.7835 132.2893 29796.6738 25.8481 99.4563
TCL: Running FEP window  16: Lambda1 0.7500000000000001 Lambda2 0.8000000000000002 [dLambda 0.050000000000000044]
TCL: Setting parameter firsttimestep to 0
TCL: Setting parameter alchLambda to 0.7500000000000001
Info: NONBONDED TABLE R-SQUARED SPACING: 0.0625
Info: NONBONDED TABLE SIZE: 705 POINTS
TCL: Setting parameter alchLambda2 to 0.8000000000000002
Info: NONBONDED TABLE R-SQUARED SPACING: 0.0625
Info: NONBONDED TABLE SIZE: 705 POINTS
TCL: Running for 1500000 steps
ETITLE: TS BOND ANGLE DIHED IMPRP ELECT VDW BOUNDARY MISC KINETIC TOTAL TEMP POTENTIAL TOTALAVG TEMPAVG PRESSURE GPRESSURE VOLUME PRESSAVG GPRESSAVG
ENERGY: 0 1.1538 7.2047 4.0998 0.0000 -10758.1981 1451.5864 0.0000 0.0000 1748.4449 -7545.7084 298.9662 -9294.1533 -7545.7084 298.9662 75.3771 143.6223 29796.6738 75.3771 143.6223
ENERGY: 300000 0.8394 3.1404 1.9035 0.0000 -10653.3731 1396.3084 0.0000 0.0000 1782.9206 -7468.2607 304.8612 -9251.1813 -7534.2260 299.2919 -222.5232 -204.8726 30629.2658 9.9503 59.5280
ENERGY: 600000 1.7885 8.0592 2.5218 0.0000 -10699.0549 1503.3342 0.0000 0.0000 1731.4687 -7451.8825 296.0634 -9183.3512 -7512.3281 301.0620 689.4693 739.2133 29978.5460 133.8388 195.8631
ENERGY: 900000 2.6744 7.6802 1.7712 0.0000 -10764.0325 1490.6281 0.0000 0.0000 1715.0846 -7546.1940 293.2619 -9261.2786 -7504.9682 299.1959 344.3910 389.6618 29897.8663 52.6246 110.9340
ENERGY: 1200000 3.7324 3.5772 2.6366 0.0000 -10684.0944 1449.6258 0.0000 0.0000 1810.6557 -7413.8667 309.6036 -9224.5224 -7502.3556 299.9107 64.8240 189.7321 30090.6399 147.9731 207.5661
ENERGY: 1500000 2.2572 4.8375 0.8331 0.0000 -10665.0978 1416.8229 0.0000 0.0000 1785.9456 -7454.4015 305.3784 -9240.3471 -7500.3828 300.1426 -85.5427 -59.1935 29925.1411 123.4006 182.3224
TCL: Running FEP window  17: Lambda1 0.8000000000000002 Lambda2 0.8500000000000002 [dLambda 0.050000000000000044]
TCL: Setting parameter firsttimestep to 0
TCL: Setting parameter alchLambda to 0.8000000000000002
Info: NONBONDED TABLE R-SQUARED SPACING: 0.0625
Info: NONBONDED TABLE SIZE: 705 POINTS
TCL: Setting parameter alchLambda2 to 0.8500000000000002
Info: NONBONDED TABLE R-SQUARED SPACING: 0.0625
Info: NONBONDED TABLE SIZE: 705 POINTS
TCL: Running for 1500000 steps
ETITLE: TS BOND ANGLE DIHED IMPRP ELECT VDW BOUNDARY MISC KINETIC TOTAL TEMP POTENTIAL TOTALAVG TEMPAVG PRESSURE GPRESSURE VOLUME PRESSAVG GPRESSAVG
ENERGY: 0 2.2572 4.8375 0.8331 0.0000 -10665.6929 1417.4139 0.0000 0.0000 1785.0733 -7455.2779 305.2293 -9240.3512 -7455.2779 305.2293 -132.7838 -42.6809 29925.1411 -132.7838 -42.6809
ENERGY: 300000 3.0410 3.7772 4.8455 0.0000 -10808.5160 1516.1423 0.0000 0.0000 1789.8997 -7490.8103 306.0545 -9280.7100 -7473.7354 305.7342 566.6433 646.7237 30076.4345 24.2811 112.9049
ENERGY: 600000 1.5751 3.7290 2.2647 0.0000 -10719.2318 1472.5214 0.0000 0.0000 1801.1259 -7438.0157 307.9741 -9239.1416 -7462.1548 306.3963 293.8905 346.6528 30353.1564 30.3191 111.4904
ENERGY: 900000 1.4643 5.3058 2.5679 0.0000 -10725.6263 1484.4973 0.0000 0.0000 1749.0356 -7482.7554 299.0672 -9231.7910 -7467.5803 305.1611 427.3193 416.2504 30362.8434 15.9646 78.2502
ENERGY: 1200000 1.3338 6.5262 2.6569 0.0000 -10594.6029 1417.4927 0.0000 0.0000 1753.2655 -7413.3277 299.7905 -9166.5932 -7461.9083 304.3757 58.5797 162.4748 30117.7365 -69.8997 -9.4040
ENERGY: 1500000 3.0752 6.0253 3.2141 0.0000 -10749.7492 1454.3055 0.0000 0.0000 1714.7885 -7568.3406 293.2113 -9283.1292 -7470.0817 302.8113 -472.5034 -383.3997 30746.3265 -82.5774 -15.7727
TCL: Running FEP window  18: Lambda1 0.8500000000000002 Lambda2 0.9000000000000002 [dLambda 0.050000000000000044]
TCL: Setting parameter firsttimestep to 0
TCL: Setting parameter alchLambda to 0.8500000000000002
Info: NONBONDED TABLE R-SQUARED SPACING: 0.0625
Info: NONBONDED TABLE SIZE: 705 POINTS
TCL: Setting parameter alchLambda2 to 0.9000000000000002
Info: NONBONDED TABLE R-SQUARED SPACING: 0.0625
Info: NONBONDED TABLE SIZE: 705 POINTS
TCL: Running for 1500000 steps
ETITLE: TS BOND ANGLE DIHED IMPRP ELECT VDW BOUNDARY MISC KINETIC TOTAL TEMP POTENTIAL TOTALAVG TEMPAVG PRESSURE GPRESSURE VOLUME PRESSAVG GPRESSAVG
ENERGY: 0 3.0752 6.0253 3.2141 0.0000 -10750.9142 1454.6013 0.0000 0.0000 1713.9228 -7570.0755 293.0633 -9283.9983 -7570.0755 293.0633 -450.2577 -368.2651 30746.3265 -450.2577 -368.2651
ENERGY: 300000 3.5234 4.8935 2.6897 0.0000 -10623.7708 1381.4369 0.0000 0.0000 1707.1460 -7524.0813 291.9045 -9231.2273 -7561.1258 295.1884 -504.7091 -445.4872 30351.1721 -87.8531 -27.4740
ENERGY: 600000 2.8811 5.1025 2.8210 0.0000 -10618.7779 1463.2855 0.0000 0.0000 1756.3812 -7388.3066 300.3232 -9144.6878 -7524.3930 296.3295 113.5997 146.7184 30839.1666 33.1997 96.0115
ENERGY: 900000 2.0050 3.0693 1.4322 0.0000 -10797.1224 1502.4599 0.0000 0.0000 1759.4967 -7528.6593 300.8559 -9288.1560 -7514.6735 297.4526 655.3076 740.8466 29827.6521 -59.9063 5.4288
ENERGY: 1200000 1.0386 5.2633 1.1293 0.0000 -10631.6803 1365.0155 0.0000 0.0000 1840.6962 -7418.5373 314.7402 -9259.2336 -7504.2740 299.3956 -557.4657 -499.3280 30295.3178 -95.0325 -26.7450
ENERGY: 1500000 5.9870 7.0675 4.0707 0.0000 -10721.6638 1535.9559 0.0000 0.0000 1719.6430 -7448.9396 294.0414 -9168.5827 -7497.0880 298.7822 568.0796 610.5192 31153.9709 -55.6889 9.9544
TCL: Running FEP window  19: Lambda1 0.9000000000000002 Lambda2 0.9500000000000003 [dLambda 0.050000000000000044]
TCL: Setting parameter firsttimestep to 0
TCL: Setting parameter alchLambda to 0.9000000000000002
Info: NONBONDED TABLE R-SQUARED SPACING: 0.0625
Info: NONBONDED TABLE SIZE: 705 POINTS
TCL: Setting parameter alchLambda2 to 0.9500000000000003
Info: NONBONDED TABLE R-SQUARED SPACING: 0.0625
Info: NONBONDED TABLE SIZE: 705 POINTS
TCL: Running for 1500000 steps
ETITLE: TS BOND ANGLE DIHED IMPRP ELECT VDW BOUNDARY MISC KINETIC TOTAL TEMP POTENTIAL TOTALAVG TEMPAVG PRESSURE GPRESSURE VOLUME PRESSAVG GPRESSAVG
ENERGY: 0 5.9870 7.0675 4.0707 0.0000 -10722.6921 1536.6877 0.0000 0.0000 1718.7506 -7450.1287 293.8888 -9168.8792 -7450.1287 293.8888 552.2246 631.1531 31153.9709 552.2246 631.1531
ENERGY: 300000 2.5305 5.9917 1.1112 0.0000 -10734.4624 1478.8960 0.0000 0.0000 1728.4570 -7517.4760 295.5485 -9245.9330 -7513.7100 295.6724 352.9747 380.5818 30495.4302 206.2332 252.3292
ENERGY: 600000 3.6177 7.8688 1.8876 0.0000 -10636.4721 1418.9084 0.0000 0.0000 1793.2521 -7410.9374 306.6278 -9204.1895 -7477.2947 298.8910 166.8613 167.5467 30273.5589 147.6619 187.9717
ENERGY: 900000 3.4978 10.0633 5.2994 0.0000 -10651.7054 1392.5804 0.0000 0.0000 1754.0745 -7486.1900 299.9288 -9240.2645 -7472.8498 299.1313 -201.9403 -158.4189 30347.9734 185.0347 230.4862
ENERGY: 1200000 0.6209 5.8363 6.0857 0.0000 -10582.2503 1338.7949 0.0000 0.0000 1793.1265 -7437.7861 306.6063 -9230.9126 -7484.3204 299.5658 -799.1674 -751.5247 30503.4382 170.4173 226.8082
ENERGY: 1500000 0.8961 8.6501 2.6037 0.0000 -10751.4346 1482.7791 0.0000 0.0000 1776.2474 -7480.2582 303.7201 -9256.5056 -7481.0905 300.1162 711.9265 802.2411 29726.9340 185.2590 241.6863
TCL: Running FEP window  20: Lambda1 0.9500000000000003 Lambda2 1.0    [dLambda 0.04999999999999971]
TCL: Setting parameter firsttimestep to 0
TCL: Setting parameter alchLambda to 0.9500000000000003
Info: NONBONDED TABLE R-SQUARED SPACING: 0.0625
Info: NONBONDED TABLE SIZE: 705 POINTS
TCL: Setting parameter alchLambda2 to 1.0
Info: NONBONDED TABLE R-SQUARED SPACING: 0.0625
Info: NONBONDED TABLE SIZE: 705 POINTS
TCL: Running for 1500000 steps
ETITLE: TS BOND ANGLE DIHED IMPRP ELECT VDW BOUNDARY MISC KINETIC TOTAL TEMP POTENTIAL TOTALAVG TEMPAVG PRESSURE GPRESSURE VOLUME PRESSAVG GPRESSAVG
ENERGY: 0 0.8961 8.6501 2.6037 0.0000 -10752.7677 1482.7469 0.0000 0.0000 1775.3679 -7482.5030 303.5697 -9257.8709 -7482.5030 303.5697 722.0504 812.1918 29726.9340 722.0504 812.1918
ENERGY: 300000 1.5189 3.9255 1.3125 0.0000 -10676.0287 1430.9890 0.0000 0.0000 1754.8626 -7483.4202 300.0636 -9238.2828 -7452.0186 300.1564 76.0120 191.2855 30233.1879 172.3912 263.8497
ENERGY: 600000 2.0486 2.3838 3.4588 0.0000 -10785.0648 1469.0685 0.0000 0.0000 1774.4090 -7533.6961 303.4058 -9308.1051 -7491.7513 299.7862 398.8551 434.7175 29703.1899 327.0758 404.2019
ENERGY: 900000 1.3185 6.4826 1.6495 0.0000 -10668.2960 1404.1901 0.0000 0.0000 1754.9606 -7499.6947 300.0803 -9254.6553 -7485.6153 299.7073 -212.1300 -140.5238 30051.6645 245.6270 316.5466
ENERGY: 1200000 1.3662 5.6737 3.1114 0.0000 -10756.9180 1499.9198 0.0000 0.0000 1761.7328 -7485.1141 301.2383 -9246.8469 -7493.8354 299.7695 867.0153 892.0004 29757.1207 266.3243 334.4212
ENERGY: 1500000 2.1215 3.2297 1.5581 0.0000 -10894.3807 1535.7302 0.0000 0.0000 1777.9572 -7573.7840 304.0125 -9351.7411 -7497.8315 299.5614 978.9945 975.6551 29749.7462 276.8471 335.4611
TCL: Exiting due to exit command.
