Info: SIMULATION PARAMETERS:
Info: TIMESTEP               2
Info: NUMBER OF STEPS        0
Info: STEPS PER CYCLE        10
Info: PERIODIC CELL BASIS 1  32.2185 0 0
Info: PERIODIC CELL BASIS 2  0 30.1652 0
Info: PERIODIC CELL BASIS 3  0 0 30.535
Info: PERIODIC CELL CENTER   0 0 0
Info: WRAPPING WATERS AROUND PERIODIC BOUNDARIES ON OUTPUT.
Info: WRAPPING ALL CLUSTERS AROUND PERIODIC BOUNDARIES ON OUTPUT.
Info: FIRST LDB TIMESTEP     50
Info: LAST LDB TIMESTEP     -1
Info: HOM BACKGROUND SCALING 1
Info: PME BACKGROUND SCALING 1
Info: MIN ATOMS PER PATCH    40
Info: EMPTY PATCH LOAD       40 ATOMS
Info: VELOCITY FILE          mobley_8785107_equil.vel
Info: CENTER OF MASS MOVING INITIALLY? NO
Info: DIELECTRIC             1
Info: EXCLUDE                SCALED ONE-FOUR
Info: 1-4 ELECTROSTATICS SCALED BY 0.833333
Info: MODIFIED 1-4 VDW PARAMETERS WILL BE USED
Info: DCD FILENAME           mobley_8785107_prod.dcd
Info: DCD FREQUENCY          100000
Info: DCD FIRST STEP         100000
Info: DCD FILE WILL CONTAIN UNIT CELL DATA
Info: XST FILENAME           mobley_8785107_prod.xst
Info: XST FREQUENCY          100000
Info: NO VELOCITY DCD OUTPUT
Info: NO FORCE DCD OUTPUT
Info: OUTPUT FILENAME        mobley_8785107_prod
Info: BINARY OUTPUT FILES WILL BE USED
Info: RESTART FILENAME       mobley_8785107_prod.restart
Info: RESTART FREQUENCY      100000
Info: BINARY RESTART FILES WILL BE USED
Info: CUTOFF                 9
Info: PAIRLIST DISTANCE      11
Info: PAIRLIST SHRINK RATE   0.01
Info: PAIRLIST GROW RATE     0.01
Info: PAIRLIST TRIGGER       0.3
Info: PAIRLISTS PER CYCLE    2
Info: PAIRLISTS ENABLED
Info: MARGIN                 2
Info: HYDROGEN GROUP CUTOFF  2.5
Info: PATCH DIMENSION        15.5
Info: ENERGY OUTPUT STEPS    100000
Info: ENERGY EVALUATION STEPS    100000
Info: OUTPUT ENERGY PRECISION 4
Info: CROSSTERM ENERGY INCLUDED IN DIHEDRAL
Info: TIMING OUTPUT STEPS    1000000
Info: PRESSURE OUTPUT STEPS  100000
Info: ALCHEMICAL FEP ON
Info: FEP CURRENT LAMBDA VALUE     0
Info: FEP COMPARISON LAMBDA VALUE  0.05
Info: FEP INTRA-ALCHEMICAL NON-BONDED INTERACTIONS WILL BE RETAINED
Info: FEP INTRA-ALCHEMICAL BONDED INTERACTIONS WILL BE RETAINED
Info: FEP VDW SHIFTING COEFFICIENT 5
Info: FEP ELEC. ACTIVE FOR ANNIHILATED PARTICLES BETWEEN LAMBDA = 0 AND LAMBDA = 0.5
Info: FEP ELEC. ACTIVE FOR EXNIHILATED PARTICLES BETWEEN LAMBDA = 0.5 AND LAMBDA = 1
Info: FEP VDW ACTIVE FOR ANNIHILATED PARTICLES BETWEEN LAMBDA = 0 AND LAMBDA = 1
Info: FEP VDW ACTIVE FOR EXNIHILATED PARTICLES BETWEEN LAMBDA = 0 AND LAMBDA = 1
Info: FEP BOND ACTIVE FOR ANNIHILATED PARTICLES BETWEEN LAMBDA = 1 AND LAMBDA = 1
Info: FEP BOND ACTIVE FOR EXNIHILATED PARTICLES BETWEEN LAMBDA = 0 AND LAMBDA = 0
Info: LANGEVIN DYNAMICS ACTIVE
Info: LANGEVIN TEMPERATURE   300
Info: LANGEVIN USING BBK INTEGRATOR
Info: LANGEVIN DAMPING COEFFICIENT IS 1 INVERSE PS
Info: LANGEVIN DYNAMICS APPLIED TO HYDROGENS
Info: LANGEVIN PISTON PRESSURE CONTROL ACTIVE
Info:        TARGET PRESSURE IS 1.01325 BAR
Info:     OSCILLATION PERIOD IS 50 FS
Info:             DECAY TIME IS 25 FS
Info:     PISTON TEMPERATURE IS 300 K
Info:       PRESSURE CONTROL IS GROUP-BASED
Info:    INITIAL STRAIN RATE IS -7.18376e-06 -7.18376e-06 -7.18376e-06
Info:       CELL FLUCTUATION IS ISOTROPIC
Info: PARTICLE MESH EWALD (PME) ACTIVE
Info: PME TOLERANCE               1e-06
Info: PME EWALD COEFFICIENT       0.348832
Info: PME INTERPOLATION ORDER     4
Info: PME GRID DIMENSIONS         36 32 32
Info: PME MAXIMUM GRID SPACING    1
Info: PME CALCULATION WILL BE PERFORMED ON GPU
Info: FULL ELECTROSTATIC EVALUATION FREQUENCY      2
Info: USING VERLET I (r-RESPA) MTS SCHEME.
Info: C1 SPLITTING OF LONG RANGE ELECTROSTATICS
Info: PLACING ATOMS IN PATCHES BY HYDROGEN GROUPS
Info: RIGID BONDS TO HYDROGEN : ALL
Info:         ERROR TOLERANCE : 1e-08
Info:          MAX ITERATIONS : 100
Info: RIGID WATER USING SETTLE ALGORITHM
Info: RANDOM NUMBER SEED     1743614744
Info: USE HYDROGEN BONDS?    NO
Info: Using AMBER format force field!
Info: AMBER PARM FILE        mobley_8785107.prmtop
Info: COORDINATE PDB         mobley_8785107.pdb
Info: Exclusions will be read from PARM file!
Info: SCNB (VDW SCALING)     2
Info: USING ARITHMETIC MEAN TO COMBINE L-J SIGMA PARAMETERS
Info: BINARY COORDINATES     mobley_8785107_equil.coor
Info: SUMMARY OF PARAMETERS:
Info: 6 BONDS
Info: 7 ANGLES
Info:   7 HARMONIC
Info:   0 COSINE-BASED
Info: 11 DIHEDRAL
Info: 0 IMPROPER
Info: 0 CROSSTERM
Info: 0 VDW
Info: 21 VDW_PAIRS
Info: 0 NBTHOLE_PAIRS
Info: To read alchdata from file: mobley_8785107.pdb
Info: To read alchflag data from column: 5
Info: STRUCTURE SUMMARY:
Info: 2929 ATOMS
Info: 2929 BONDS
Info: 37 ANGLES
Info: 71 DIHEDRALS
Info: 0 IMPROPERS
Info: 0 CROSSTERMS
Info: 3012 EXCLUSIONS
Info: 2922 RIGID BONDS
Info: ALCH: 0 ATOMS TO DISAPPEAR IN FINAL STATE
Info: ALCH: 19 ATOMS TO APPEAR IN FINAL STATE
Info: 5865 DEGREES OF FREEDOM
Info: 977 HYDROGEN GROUPS
Info: 4 ATOMS IN LARGEST HYDROGEN GROUP
Info: 977 MIGRATION GROUPS
Info: 4 ATOMS IN LARGEST MIGRATION GROUP
Info: TOTAL MASS = 17575.7 amu
Info: TOTAL CHARGE = -0.000500023 e
Info: MASS DENSITY = 0.983471 g/cm^3
Info: ATOM DENSITY = 0.0986983 atoms/A^3
Info: ADDED 0 IMPLICIT EXCLUSIONS
Info: NONBONDED TABLE R-SQUARED SPACING: 0.0625
Info: NONBONDED TABLE SIZE: 705 POINTS
Info: REMOVING COM VELOCITY -0.0893066 0.141346 -0.0622914
Info: Use 3D box decompostion in PME FFT.
Info: Updated CUDA force table with 4096 elements.
Info: Updated CUDA LJ table with 6 x 6 elements.
Info: Found 22 unique exclusion lists needing 56 bytes
TCL: Running for 1500000 steps
ETITLE: TS BOND ANGLE DIHED IMPRP ELECT VDW BOUNDARY MISC KINETIC TOTAL TEMP POTENTIAL TOTALAVG TEMPAVG PRESSURE GPRESSURE VOLUME PRESSAVG GPRESSAVG
ENERGY: 0 0.7709 13.5777 11.2542 0.0000 -10585.0346 1393.6571 0.0000 0.0000 1802.8336 -7362.9410 309.3699 -9165.7746 -7362.9410 309.3699 -208.2912 -122.7129 29676.2945 -208.2912 -122.7129
ENERGY: 300000 2.4566 12.0309 12.7869 0.0000 -10836.4836 1521.3825 0.0000 0.0000 1758.8456 -7528.9812 301.8214 -9287.8267 -7463.4265 298.0192 443.2805 458.6661 29581.6230 -129.5453 -92.2566
ENERGY: 600000 2.4735 8.4739 11.6621 0.0000 -10524.2545 1384.5945 0.0000 0.0000 1731.0705 -7385.9800 297.0552 -9117.0505 -7441.8794 296.9393 -327.7695 -287.6416 30070.1243 -172.2198 -122.9850
ENERGY: 900000 3.5963 11.4822 10.4613 0.0000 -10614.4333 1428.3122 0.0000 0.0000 1727.4081 -7433.1731 296.4267 -9160.5812 -7439.2696 297.7559 5.8406 93.6569 29661.7670 -14.8480 30.7200
ENERGY: 1200000 3.0096 14.4586 9.4236 0.0000 -10589.4925 1472.3109 0.0000 0.0000 1740.3551 -7349.9347 298.6484 -9090.2898 -7428.6347 298.3226 431.5753 478.8560 30359.5788 -112.2482 -61.5274
ENERGY: 1500000 0.4833 13.9648 10.0975 0.0000 -10715.1697 1423.9122 0.0000 0.0000 1783.0630 -7483.6488 305.9772 -9266.7118 -7426.7327 299.3735 -295.5449 -171.5340 29697.0187 -214.3014 -159.0631
TCL: Running FEP window   2: Lambda1 0.05   Lambda2 0.1    [dLambda 0.05  ]
TCL: Setting parameter firsttimestep to 0
TCL: Setting parameter alchLambda to 0.05
Info: NONBONDED TABLE R-SQUARED SPACING: 0.0625
Info: NONBONDED TABLE SIZE: 705 POINTS
TCL: Setting parameter alchLambda2 to 0.1
Info: NONBONDED TABLE R-SQUARED SPACING: 0.0625
Info: NONBONDED TABLE SIZE: 705 POINTS
TCL: Running for 1500000 steps
ETITLE: TS BOND ANGLE DIHED IMPRP ELECT VDW BOUNDARY MISC KINETIC TOTAL TEMP POTENTIAL TOTALAVG TEMPAVG PRESSURE GPRESSURE VOLUME PRESSAVG GPRESSAVG
ENERGY: 0 0.4833 13.9648 10.0975 0.0000 -10715.1707 1425.4316 0.0000 0.0000 1782.1967 -7482.9968 305.8285 -9265.1935 -7482.9968 305.8285 -256.1065 -170.6370 29697.0187 -256.1065 -170.6370
ENERGY: 300000 4.6852 11.6825 13.1614 0.0000 -10595.3392 1348.5915 0.0000 0.0000 1724.1714 -7493.0472 295.8713 -9217.2186 -7421.4539 299.7317 -957.0811 -777.4043 30039.5170 -332.9520 -238.9293
ENERGY: 600000 0.7822 12.5760 11.5776 0.0000 -10494.0403 1355.4638 0.0000 0.0000 1821.2015 -7292.4392 312.5218 -9113.6407 -7382.4949 302.5145 -709.4627 -700.1118 30762.6698 -299.9837 -234.6411
ENERGY: 900000 0.7895 10.1089 12.5388 0.0000 -10572.8466 1414.2439 0.0000 0.0000 1775.7870 -7359.3785 304.7286 -9135.1655 -7380.6090 303.1256 -213.1881 -93.9069 30309.3941 -183.5296 -123.9402
ENERGY: 1200000 3.3145 16.3962 11.7887 0.0000 -10548.9421 1367.9440 0.0000 0.0000 1719.2226 -7430.2761 295.0221 -9149.4987 -7386.2305 301.5662 -396.8111 -291.6633 29815.6295 -276.8864 -223.7384
ENERGY: 1500000 1.3657 12.1916 10.5475 0.0000 -10541.8649 1398.6012 0.0000 0.0000 1796.4820 -7322.6768 308.2799 -9119.1589 -7380.2363 302.4698 -259.0589 -208.7237 30173.9854 -230.2820 -179.9601
TCL: Running FEP window   3: Lambda1 0.1    Lambda2 0.15000000000000002 [dLambda 0.05000000000000002]
TCL: Setting parameter firsttimestep to 0
TCL: Setting parameter alchLambda to 0.1
Info: NONBONDED TABLE R-SQUARED SPACING: 0.0625
Info: NONBONDED TABLE SIZE: 705 POINTS
TCL: Setting parameter alchLambda2 to 0.15000000000000002
Info: NONBONDED TABLE R-SQUARED SPACING: 0.0625
Info: NONBONDED TABLE SIZE: 705 POINTS
TCL: Running for 1500000 steps
ETITLE: TS BOND ANGLE DIHED IMPRP ELECT VDW BOUNDARY MISC KINETIC TOTAL TEMP POTENTIAL TOTALAVG TEMPAVG PRESSURE GPRESSURE VOLUME PRESSAVG GPRESSAVG
ENERGY: 0 1.3657 12.1916 10.5475 0.0000 -10541.8636 1400.2402 0.0000 0.0000 1795.6307 -7321.8879 308.1338 -9117.5185 -7321.8879 308.1338 -292.3028 -202.5088 30173.9854 -292.3028 -202.5088
ENERGY: 300000 1.3687 10.0648 11.2815 0.0000 -10603.0503 1450.2758 0.0000 0.0000 1808.7354 -7321.3241 310.3826 -9130.0596 -7380.8510 306.1515 443.9819 435.3606 29799.4118 -101.1216 -87.2507
ENERGY: 600000 0.7134 7.9351 13.4883 0.0000 -10519.4289 1346.1552 0.0000 0.0000 1711.7789 -7439.3580 293.7447 -9151.1369 -7403.2171 302.2526 -833.9933 -784.6390 30331.1188 -255.9223 -224.7493
ENERGY: 900000 1.2006 8.6777 12.2979 0.0000 -10733.9787 1501.3687 0.0000 0.0000 1775.7040 -7434.7297 304.7144 -9210.4337 -7413.4238 302.0643 1015.4291 1066.4499 28996.2298 -36.5448 -3.4004
ENERGY: 1200000 1.0775 14.6272 10.2955 0.0000 -10554.3750 1415.9238 0.0000 0.0000 1728.2065 -7384.2445 296.5637 -9112.4510 -7411.8505 300.8455 -163.2288 -84.6364 30271.7863 19.1056 52.0635
ENERGY: 1500000 2.3861 11.9658 11.1796 0.0000 -10690.7430 1426.3354 0.0000 0.0000 1753.9972 -7484.8789 300.9894 -9238.8761 -7418.0523 300.7341 -152.2663 -126.8799 29876.5238 19.6353 59.9551
TCL: Running FEP window   4: Lambda1 0.15000000000000002 Lambda2 0.2    [dLambda 0.04999999999999999]
TCL: Setting parameter firsttimestep to 0
TCL: Setting parameter alchLambda to 0.15000000000000002
Info: NONBONDED TABLE R-SQUARED SPACING: 0.0625
Info: NONBONDED TABLE SIZE: 705 POINTS
TCL: Setting parameter alchLambda2 to 0.2
Info: NONBONDED TABLE R-SQUARED SPACING: 0.0625
Info: NONBONDED TABLE SIZE: 705 POINTS
TCL: Running for 1500000 steps
ETITLE: TS BOND ANGLE DIHED IMPRP ELECT VDW BOUNDARY MISC KINETIC TOTAL TEMP POTENTIAL TOTALAVG TEMPAVG PRESSURE GPRESSURE VOLUME PRESSAVG GPRESSAVG
ENERGY: 0 2.3861 11.9658 11.1796 0.0000 -10690.7418 1427.7583 0.0000 0.0000 1753.1077 -7484.3443 300.8368 -9237.4520 -7484.3443 300.8368 -205.2429 -114.8208 29876.5238 -205.2429 -114.8208
ENERGY: 300000 2.8828 12.4393 14.6416 0.0000 -10708.3378 1455.7496 0.0000 0.0000 1745.3095 -7477.3149 299.4986 -9222.6244 -7440.5320 299.4616 45.1816 137.4042 29819.3660 40.4606 91.4414
ENERGY: 600000 2.4369 8.9109 11.7473 0.0000 -10740.4811 1498.3002 0.0000 0.0000 1764.6137 -7454.4720 302.8113 -9219.0857 -7425.1906 301.3574 444.7859 490.4075 29637.1393 3.9637 53.6900
ENERGY: 900000 1.2794 12.8286 10.7039 0.0000 -10596.6599 1415.0519 0.0000 0.0000 1754.0904 -7402.7058 301.0054 -9156.7961 -7421.9417 300.9912 -48.4203 96.3991 30035.3769 88.8156 161.5746
ENERGY: 1200000 2.7348 10.3411 13.0923 0.0000 -10533.8520 1359.3487 0.0000 0.0000 1826.1795 -7322.1557 313.3761 -9148.3352 -7412.9335 300.6729 -778.7909 -696.3374 30287.3930 2.2016 77.1854
ENERGY: 1500000 1.2940 15.0368 9.4248 0.0000 -10494.1765 1361.1927 0.0000 0.0000 1798.0187 -7309.2095 308.5436 -9107.2282 -7405.1592 301.9626 -367.2114 -366.1700 30421.0187 -9.3451 57.3189
TCL: Running FEP window   5: Lambda1 0.2    Lambda2 0.25   [dLambda 0.04999999999999999]
TCL: Setting parameter firsttimestep to 0
TCL: Setting parameter alchLambda to 0.2
Info: NONBONDED TABLE R-SQUARED SPACING: 0.0625
Info: NONBONDED TABLE SIZE: 705 POINTS
TCL: Setting parameter alchLambda2 to 0.25
Info: NONBONDED TABLE R-SQUARED SPACING: 0.0625
Info: NONBONDED TABLE SIZE: 705 POINTS
TCL: Running for 1500000 steps
ETITLE: TS BOND ANGLE DIHED IMPRP ELECT VDW BOUNDARY MISC KINETIC TOTAL TEMP POTENTIAL TOTALAVG TEMPAVG PRESSURE GPRESSURE VOLUME PRESSAVG GPRESSAVG
ENERGY: 0 1.2940 15.0368 9.4248 0.0000 -10494.1738 1361.2640 0.0000 0.0000 1797.1403 -7310.0139 308.3929 -9107.1542 -7310.0139 308.3929 -446.9250 -362.2403 30421.0187 -446.9250 -362.2403
ENERGY: 300000 2.0645 8.6925 13.3805 0.0000 -10581.7700 1402.0361 0.0000 0.0000 1787.2502 -7368.3462 306.6957 -9155.5964 -7358.4475 305.9456 -167.9813 -118.5240 29919.0361 -170.2534 -75.8260
ENERGY: 600000 2.9928 9.3118 14.3371 0.0000 -10663.6879 1445.1535 0.0000 0.0000 1716.4898 -7475.4028 294.5531 -9191.8926 -7394.6918 302.2866 -192.7769 -141.7804 30214.1476 -68.1679 10.1057
ENERGY: 900000 3.0388 11.5283 11.3746 0.0000 -10692.9797 1403.8539 0.0000 0.0000 1739.6572 -7523.5270 298.5287 -9263.1841 -7394.9885 302.9501 -407.1754 -339.6950 29547.3210 -292.4341 -213.6084
ENERGY: 1200000 4.0752 13.4263 12.9690 0.0000 -10651.7404 1451.6678 0.0000 0.0000 1728.3693 -7441.2329 296.5916 -9169.6021 -7411.3483 300.9369 -51.3605 -31.2457 30299.8211 -272.0942 -199.2578
ENERGY: 1500000 2.4723 9.8281 12.4601 0.0000 -10501.1339 1349.6842 0.0000 0.0000 1789.1275 -7337.5618 307.0179 -9126.6892 -7416.0117 301.0080 -765.7202 -745.6830 30664.7849 -406.7409 -337.2850
TCL: Running FEP window   6: Lambda1 0.25   Lambda2 0.3    [dLambda 0.04999999999999999]
TCL: Setting parameter firsttimestep to 0
TCL: Setting parameter alchLambda to 0.25
Info: NONBONDED TABLE R-SQUARED SPACING: 0.0625
Info: NONBONDED TABLE SIZE: 705 POINTS
TCL: Setting parameter alchLambda2 to 0.3
Info: NONBONDED TABLE R-SQUARED SPACING: 0.0625
Info: NONBONDED TABLE SIZE: 705 POINTS
TCL: Running for 1500000 steps
ETITLE: TS BOND ANGLE DIHED IMPRP ELECT VDW BOUNDARY MISC KINETIC TOTAL TEMP POTENTIAL TOTALAVG TEMPAVG PRESSURE GPRESSURE VOLUME PRESSAVG GPRESSAVG
ENERGY: 0 2.4723 9.8281 12.4601 0.0000 -10501.1344 1349.4141 0.0000 0.0000 1788.2397 -7338.7201 306.8655 -9126.9598 -7338.7201 306.8655 -846.6418 -742.4324 30664.7849 -846.6418 -742.4324
ENERGY: 300000 1.9923 11.5163 12.5443 0.0000 -10765.9189 1494.2579 0.0000 0.0000 1739.0046 -7506.6036 298.4167 -9245.6081 -7374.1782 302.1305 369.0578 432.4466 29882.1802 251.2311 320.5289
ENERGY: 600000 2.7571 12.8443 11.0695 0.0000 -10626.3418 1459.8172 0.0000 0.0000 1833.4960 -7306.3577 314.6316 -9139.8537 -7386.8461 302.3026 62.5112 72.9374 30595.3834 107.1032 164.3765
ENERGY: 900000 3.8961 14.1231 11.5267 0.0000 -10591.5084 1493.8829 0.0000 0.0000 1742.4222 -7325.6573 299.0032 -9068.0796 -7385.7130 301.9612 541.5454 610.7947 30179.9898 162.8188 217.3925
ENERGY: 1200000 0.3008 10.9218 10.8655 0.0000 -10547.4412 1354.8564 0.0000 0.0000 1688.0924 -7482.4043 289.6800 -9170.4966 -7401.1505 300.3533 -511.8971 -412.2638 29963.2284 154.3290 207.3872
ENERGY: 1500000 1.9311 10.5900 12.3945 0.0000 -10513.0089 1391.6221 0.0000 0.0000 1728.3528 -7368.1184 296.5888 -9096.4713 -7397.8093 300.5858 -218.8472 -132.6107 30096.3500 47.3564 97.9353
TCL: Running FEP window   7: Lambda1 0.3    Lambda2 0.35   [dLambda 0.04999999999999999]
TCL: Setting parameter firsttimestep to 0
TCL: Setting parameter alchLambda to 0.3
Info: NONBONDED TABLE R-SQUARED SPACING: 0.0625
Info: NONBONDED TABLE SIZE: 705 POINTS
TCL: Setting parameter alchLambda2 to 0.35
Info: NONBONDED TABLE R-SQUARED SPACING: 0.0625
Info: NONBONDED TABLE SIZE: 705 POINTS
TCL: Running for 1500000 steps
ETITLE: TS BOND ANGLE DIHED IMPRP ELECT VDW BOUNDARY MISC KINETIC TOTAL TEMP POTENTIAL TOTALAVG TEMPAVG PRESSURE GPRESSURE VOLUME PRESSAVG GPRESSAVG
ENERGY: 0 1.9311 10.5900 12.3945 0.0000 -10513.0089 1391.7631 0.0000 0.0000 1727.4924 -7368.8379 296.4412 -9096.3303 -7368.8379 296.4412 -207.7738 -125.3963 30096.3500 -207.7738 -125.3963
ENERGY: 300000 1.7636 12.0153 10.1310 0.0000 -10744.0703 1545.9300 0.0000 0.0000 1730.6901 -7443.5404 296.9899 -9174.2304 -7376.3892 300.4993 909.7294 1010.9013 29940.6886 196.7627 276.2136
ENERGY: 600000 1.5516 8.1032 12.0446 0.0000 -10688.6620 1451.7928 0.0000 0.0000 1715.8092 -7499.3606 294.4363 -9215.1698 -7411.2645 299.7671 -74.1981 40.2909 29695.7085 215.2027 292.7599
ENERGY: 900000 2.6701 14.7370 11.6856 0.0000 -10671.8404 1444.6205 0.0000 0.0000 1743.9764 -7454.1508 299.2699 -9198.1272 -7409.2239 299.9879 -431.0977 -308.3677 30213.4723 67.7745 148.4352
ENERGY: 1200000 2.9047 12.9917 10.9712 0.0000 -10405.2148 1338.1358 0.0000 0.0000 1762.3203 -7277.8911 302.4177 -9040.2114 -7410.4028 299.9355 -258.9746 -220.4356 29928.2033 129.3535 201.4634
ENERGY: 1500000 1.3032 11.0703 11.8639 0.0000 -10511.0606 1321.0830 0.0000 0.0000 1756.2405 -7409.4997 301.3744 -9165.7401 -7420.7353 299.5486 -1017.6513 -957.4062 30299.5139 112.7850 183.5054
TCL: Running FEP window   8: Lambda1 0.35   Lambda2 0.39999999999999997 [dLambda 0.04999999999999999]
TCL: Setting parameter firsttimestep to 0
TCL: Setting parameter alchLambda to 0.35
Info: NONBONDED TABLE R-SQUARED SPACING: 0.0625
Info: NONBONDED TABLE SIZE: 705 POINTS
TCL: Setting parameter alchLambda2 to 0.39999999999999997
Info: NONBONDED TABLE R-SQUARED SPACING: 0.0625
Info: NONBONDED TABLE SIZE: 705 POINTS
TCL: Running for 1500000 steps
ETITLE: TS BOND ANGLE DIHED IMPRP ELECT VDW BOUNDARY MISC KINETIC TOTAL TEMP POTENTIAL TOTALAVG TEMPAVG PRESSURE GPRESSURE VOLUME PRESSAVG GPRESSAVG
ENERGY: 0 1.3032 11.0703 11.8639 0.0000 -10511.0601 1320.6604 0.0000 0.0000 1755.3666 -7410.7957 301.2244 -9166.1623 -7410.7957 301.2244 -1047.9773 -950.8704 30299.5139 -1047.9773 -950.8704
ENERGY: 300000 3.0329 8.3077 14.0354 0.0000 -10645.9461 1386.3738 0.0000 0.0000 1753.3764 -7480.8200 300.8829 -9234.1964 -7424.6395 299.4570 -495.4735 -430.1016 30038.0567 -540.3989 -490.6383
ENERGY: 600000 0.5147 11.9472 10.0027 0.0000 -10515.6007 1414.9370 0.0000 0.0000 1757.1379 -7321.0612 301.5284 -9078.1991 -7406.6125 301.6745 47.6477 155.6810 30314.3906 -273.7134 -217.8748
ENERGY: 900000 2.3819 9.9929 12.6575 0.0000 -10641.7727 1466.5056 0.0000 0.0000 1741.6499 -7408.5849 298.8706 -9150.2348 -7406.6275 300.1534 453.0772 503.2836 29957.0211 -170.5653 -118.4191
ENERGY: 1200000 2.2352 9.9785 11.2602 0.0000 -10430.4674 1285.4212 0.0000 0.0000 1753.4647 -7368.1076 300.8981 -9121.5723 -7403.6461 300.4301 -799.8832 -693.9719 29759.9157 -181.7357 -128.1775
ENERGY: 1500000 0.9671 14.5208 12.5176 0.0000 -10627.2732 1425.5591 0.0000 0.0000 1749.4864 -7424.2221 300.2154 -9173.7085 -7408.8089 300.1499 -21.8430 65.4115 30019.2004 -160.4424 -108.1016
TCL: Running FEP window   9: Lambda1 0.39999999999999997 Lambda2 0.44999999999999996 [dLambda 0.04999999999999999]
TCL: Setting parameter firsttimestep to 0
TCL: Setting parameter alchLambda to 0.39999999999999997
Info: NONBONDED TABLE R-SQUARED SPACING: 0.0625
Info: NONBONDED TABLE SIZE: 705 POINTS
TCL: Setting parameter alchLambda2 to 0.44999999999999996
Info: NONBONDED TABLE R-SQUARED SPACING: 0.0625
Info: NONBONDED TABLE SIZE: 705 POINTS
TCL: Running for 1500000 steps
ETITLE: TS BOND ANGLE DIHED IMPRP ELECT VDW BOUNDARY MISC KINETIC TOTAL TEMP POTENTIAL TOTALAVG TEMPAVG PRESSURE GPRESSURE VOLUME PRESSAVG GPRESSAVG
ENERGY: 0 0.9671 14.5208 12.5176 0.0000 -10627.2736 1425.2576 0.0000 0.0000 1748.5995 -7425.4109 300.0632 -9174.0104 -7425.4109 300.0632 -21.0311 68.6561 30019.2004 -21.0311 68.6561
ENERGY: 300000 3.0580 8.6797 13.3818 0.0000 -10581.5465 1435.5535 0.0000 0.0000 1716.4165 -7404.4570 294.5405 -9120.8734 -7421.0320 298.3662 55.0505 148.3245 29737.3848 44.2618 126.1562
ENERGY: 600000 4.9487 11.9487 12.1794 0.0000 -10561.4012 1388.0810 0.0000 0.0000 1752.3881 -7391.8553 300.7133 -9144.2434 -7411.1819 298.9465 -627.6795 -603.5521 30536.0457 -62.7724 4.8995
ENERGY: 900000 0.2874 15.7477 10.1414 0.0000 -10725.4101 1501.9747 0.0000 0.0000 1773.3754 -7423.8835 304.3148 -9197.2589 -7433.6226 297.9978 472.9902 563.8658 29873.6514 -14.0506 55.6023
ENERGY: 1200000 1.1639 9.6835 11.7770 0.0000 -10632.2565 1475.7637 0.0000 0.0000 1747.4919 -7386.3765 299.8731 -9133.8684 -7421.1119 298.7938 510.7674 568.3628 30029.4630 19.5909 86.4557
ENERGY: 1500000 3.6275 13.2260 13.6120 0.0000 -10614.1115 1486.0881 0.0000 0.0000 1779.6047 -7317.9532 305.3837 -9097.5579 -7410.5036 299.5103 737.8846 746.3057 29943.2848 49.1687 109.1433
TCL: Running FEP window  10: Lambda1 0.44999999999999996 Lambda2 0.49999999999999994 [dLambda 0.04999999999999999]
TCL: Setting parameter firsttimestep to 0
TCL: Setting parameter alchLambda to 0.44999999999999996
Info: NONBONDED TABLE R-SQUARED SPACING: 0.0625
Info: NONBONDED TABLE SIZE: 705 POINTS
TCL: Setting parameter alchLambda2 to 0.49999999999999994
Info: NONBONDED TABLE R-SQUARED SPACING: 0.0625
Info: NONBONDED TABLE SIZE: 705 POINTS
TCL: Running for 1500000 steps
ETITLE: TS BOND ANGLE DIHED IMPRP ELECT VDW BOUNDARY MISC KINETIC TOTAL TEMP POTENTIAL TOTALAVG TEMPAVG PRESSURE GPRESSURE VOLUME PRESSAVG GPRESSAVG
ENERGY: 0 3.6275 13.2259 13.6120 0.0000 -10614.1113 1486.1959 0.0000 0.0000 1778.7325 -7318.7174 305.2341 -9097.4499 -7318.7174 305.2341 681.0088 754.5410 29943.2848 681.0088 754.5410
ENERGY: 300000 1.3012 10.8699 13.4719 0.0000 -10462.0267 1319.9103 0.0000 0.0000 1759.1867 -7357.2867 301.8800 -9116.4735 -7375.1372 302.3568 -809.8445 -772.4183 30360.9638 228.4463 275.5120
ENERGY: 600000 0.2826 11.5926 11.5989 0.0000 -10506.4822 1346.5131 0.0000 0.0000 1761.2962 -7375.1988 302.2420 -9136.4950 -7380.7088 301.7857 -688.6668 -578.4805 30390.1755 97.8542 147.0135
ENERGY: 900000 1.6723 7.9494 11.8834 0.0000 -10460.9086 1400.6584 0.0000 0.0000 1765.9294 -7272.8157 303.0370 -9038.7451 -7371.7832 301.5573 11.1740 132.7193 30465.5187 7.4270 73.0607
ENERGY: 1200000 1.3122 10.8314 12.3652 0.0000 -10555.5642 1394.1507 0.0000 0.0000 1745.8846 -7391.0202 299.5973 -9136.9048 -7375.9877 301.3658 -194.9843 -133.2527 30304.2191 -33.3432 29.4671
ENERGY: 1500000 4.2039 16.1652 11.6040 0.0000 -10668.7326 1474.7788 0.0000 0.0000 1708.4375 -7453.5432 293.1713 -9161.9808 -7378.6774 301.1609 282.8487 381.7204 30258.6655 41.7387 110.2885
TCL: Running FEP window  11: Lambda1 0.49999999999999994 Lambda2 0.5499999999999999 [dLambda 0.04999999999999999]
TCL: Setting parameter firsttimestep to 0
TCL: Setting parameter alchLambda to 0.49999999999999994
Info: NONBONDED TABLE R-SQUARED SPACING: 0.0625
Info: NONBONDED TABLE SIZE: 705 POINTS
TCL: Setting parameter alchLambda2 to 0.5499999999999999
Info: NONBONDED TABLE R-SQUARED SPACING: 0.0625
Info: NONBONDED TABLE SIZE: 705 POINTS
TCL: Running for 1500000 steps
ETITLE: TS BOND ANGLE DIHED IMPRP ELECT VDW BOUNDARY MISC KINETIC TOTAL TEMP POTENTIAL TOTALAVG TEMPAVG PRESSURE GPRESSURE VOLUME PRESSAVG GPRESSAVG
ENERGY: 0 4.2039 16.1652 11.6040 0.0000 -10668.7323 1475.0441 0.0000 0.0000 1707.6063 -7454.1089 293.0287 -9161.7151 -7454.1089 293.0287 297.5867 387.4838 30258.6655 297.5867 387.4838
ENERGY: 300000 3.4708 13.2957 10.6191 0.0000 -10713.0608 1491.4595 0.0000 0.0000 1790.4862 -7403.7294 307.2510 -9194.2156 -7441.8351 300.0842 293.9351 427.4632 29858.8946 20.2296 85.4690
ENERGY: 600000 1.2160 11.0238 10.1746 0.0000 -10674.5027 1369.3396 0.0000 0.0000 1745.9674 -7536.7813 299.6115 -9282.7487 -7437.8671 301.0755 -560.2804 -512.0979 29983.4097 -48.6126 10.3214
ENERGY: 900000 0.7621 11.2586 11.2171 0.0000 -10746.0261 1489.8645 0.0000 0.0000 1806.4830 -7426.4407 309.9961 -9232.9237 -7434.5380 300.3551 543.8075 648.7465 29726.2138 116.2362 182.7790
ENERGY: 1200000 2.4856 6.8434 12.4432 0.0000 -10668.4263 1439.8956 0.0000 0.0000 1788.4689 -7418.2897 306.9049 -9206.7585 -7424.5480 300.1333 22.6916 44.4723 30098.3961 -0.2512 57.2766
ENERGY: 1500000 3.8857 14.3382 10.3984 0.0000 -10686.7539 1483.7323 0.0000 0.0000 1702.7052 -7471.6940 292.1876 -9174.3993 -7427.4770 299.3176 502.9706 570.1512 29935.6777 33.4385 85.9345
TCL: Running FEP window  12: Lambda1 0.5499999999999999 Lambda2 0.6    [dLambda 0.050000000000000044]
TCL: Setting parameter firsttimestep to 0
TCL: Setting parameter alchLambda to 0.5499999999999999
Info: NONBONDED TABLE R-SQUARED SPACING: 0.0625
Info: NONBONDED TABLE SIZE: 705 POINTS
TCL: Setting parameter alchLambda2 to 0.6
Info: NONBONDED TABLE R-SQUARED SPACING: 0.0625
Info: NONBONDED TABLE SIZE: 705 POINTS
TCL: Running for 1500000 steps
ETITLE: TS BOND ANGLE DIHED IMPRP ELECT VDW BOUNDARY MISC KINETIC TOTAL TEMP POTENTIAL TOTALAVG TEMPAVG PRESSURE GPRESSURE VOLUME PRESSAVG GPRESSAVG
ENERGY: 0 3.8857 14.3382 10.3984 0.0000 -10686.5918 1483.0906 0.0000 0.0000 1701.8590 -7473.0199 292.0424 -9174.8789 -7473.0199 292.0424 495.7550 570.2850 29935.6777 495.7550 570.2850
ENERGY: 300000 0.9595 17.3670 10.3130 0.0000 -10709.5263 1526.6491 0.0000 0.0000 1783.7122 -7370.5254 306.0886 -9154.2377 -7409.7519 300.9393 796.0308 856.0163 30071.3798 229.8549 285.6069
ENERGY: 600000 2.1647 14.0850 13.0578 0.0000 -10484.2983 1343.8252 0.0000 0.0000 1736.1165 -7375.0491 297.9211 -9111.1656 -7388.6091 301.6046 -659.6839 -536.7881 30324.4555 71.2663 142.3689
ENERGY: 900000 0.8637 15.5620 12.7206 0.0000 -10633.2195 1490.7496 0.0000 0.0000 1745.0976 -7368.2260 299.4623 -9113.3236 -7384.1237 302.4361 628.2449 732.6504 30085.8360 59.5414 134.2543
ENERGY: 1200000 0.6471 20.5392 9.3765 0.0000 -10458.3522 1332.7356 0.0000 0.0000 1722.7561 -7372.2978 295.6284 -9095.0539 -7387.3367 301.1697 -613.8006 -598.6040 30463.5629 -45.9557 19.2135
ENERGY: 1500000 1.8365 14.1918 10.1122 0.0000 -10442.9919 1329.6624 0.0000 0.0000 1746.5297 -7340.6592 299.7080 -9087.1890 -7388.6360 300.7289 -718.8294 -653.2059 30343.8924 -122.6482 -63.7508
TCL: Running FEP window  13: Lambda1 0.6    Lambda2 0.65   [dLambda 0.050000000000000044]
TCL: Setting parameter firsttimestep to 0
TCL: Setting parameter alchLambda to 0.6
Info: NONBONDED TABLE R-SQUARED SPACING: 0.0625
Info: NONBONDED TABLE SIZE: 705 POINTS
TCL: Setting parameter alchLambda2 to 0.65
Info: NONBONDED TABLE R-SQUARED SPACING: 0.0625
Info: NONBONDED TABLE SIZE: 705 POINTS
TCL: Running for 1500000 steps
ETITLE: TS BOND ANGLE DIHED IMPRP ELECT VDW BOUNDARY MISC KINETIC TOTAL TEMP POTENTIAL TOTALAVG TEMPAVG PRESSURE GPRESSURE VOLUME PRESSAVG GPRESSAVG
ENERGY: 0 1.8365 14.1918 10.1122 0.0000 -10443.1988 1330.1771 0.0000 0.0000 1745.6655 -7341.2158 299.5597 -9086.8812 -7341.2158 299.5597 -717.9109 -638.5054 30343.8924 -717.9109 -638.5054
ENERGY: 300000 2.5272 14.8218 11.0211 0.0000 -10515.4073 1381.5816 0.0000 0.0000 1790.9091 -7314.5465 307.3236 -9105.4556 -7360.4640 304.6074 -44.0484 10.1913 30088.4045 111.5737 199.2323
ENERGY: 600000 3.9088 15.1549 9.5743 0.0000 -10591.5658 1396.2093 0.0000 0.0000 1749.5546 -7417.1640 300.2271 -9166.7185 -7386.3916 304.2094 -586.3160 -556.6902 30519.4941 -84.3694 -26.7271
ENERGY: 900000 3.7227 15.3848 11.9144 0.0000 -10494.9314 1335.9174 0.0000 0.0000 1764.8057 -7363.1864 302.8442 -9127.9921 -7377.4460 304.3009 -702.7816 -644.7740 30427.9292 -194.9689 -139.8663
ENERGY: 1200000 2.8921 10.8669 10.7387 0.0000 -10563.8273 1415.7858 0.0000 0.0000 1737.4048 -7386.1391 298.1421 -9123.5438 -7402.0315 302.4693 -12.1544 94.6123 30388.6389 -116.4510 -47.6318
ENERGY: 1500000 2.5465 13.8773 11.3391 0.0000 -10572.2076 1380.9190 0.0000 0.0000 1753.8036 -7409.7221 300.9562 -9163.5257 -7397.6340 301.7646 -244.8829 -237.0971 29897.2498 -163.7073 -101.2891
TCL: Running FEP window  14: Lambda1 0.65   Lambda2 0.7000000000000001 [dLambda 0.050000000000000044]
TCL: Setting parameter firsttimestep to 0
TCL: Setting parameter alchLambda to 0.65
Info: NONBONDED TABLE R-SQUARED SPACING: 0.0625
Info: NONBONDED TABLE SIZE: 705 POINTS
TCL: Setting parameter alchLambda2 to 0.7000000000000001
Info: NONBONDED TABLE R-SQUARED SPACING: 0.0625
Info: NONBONDED TABLE SIZE: 705 POINTS
TCL: Running for 1500000 steps
ETITLE: TS BOND ANGLE DIHED IMPRP ELECT VDW BOUNDARY MISC KINETIC TOTAL TEMP POTENTIAL TOTALAVG TEMPAVG PRESSURE GPRESSURE VOLUME PRESSAVG GPRESSAVG
ENERGY: 0 2.5465 13.8773 11.3391 0.0000 -10573.1550 1380.6562 0.0000 0.0000 1752.9334 -7411.8024 300.8069 -9164.7358 -7411.8024 300.8069 -317.3326 -232.6656 29897.2498 -317.3326 -232.6656
ENERGY: 300000 2.5535 12.9533 13.1541 0.0000 -10571.1781 1405.3551 0.0000 0.0000 1764.2973 -7372.8647 302.7570 -9137.1620 -7437.5107 300.8811 -21.7239 69.6346 29925.6413 62.9263 124.9482
ENERGY: 600000 1.0416 10.4460 10.9539 0.0000 -10530.1710 1370.4621 0.0000 0.0000 1781.1345 -7356.1329 305.6463 -9137.2674 -7423.5662 300.4725 -116.1172 -70.5651 29946.3708 -105.2924 -44.2387
ENERGY: 900000 2.5309 13.6012 12.8197 0.0000 -10612.4211 1395.6249 0.0000 0.0000 1748.7719 -7439.0724 300.0928 -9187.8444 -7429.0355 300.5881 -530.9566 -471.3779 30562.5819 -98.6720 -36.9835
ENERGY: 1200000 4.6531 12.2350 11.9944 0.0000 -10532.3290 1377.7730 0.0000 0.0000 1792.7668 -7332.9068 307.6424 -9125.6736 -7417.3413 300.9343 -209.7672 -88.8465 30037.7543 -161.3200 -97.7422
ENERGY: 1500000 2.3134 9.1574 10.7694 0.0000 -10513.0594 1375.1976 0.0000 0.0000 1779.8466 -7335.7750 305.4253 -9115.6217 -7412.4082 301.1546 -572.5848 -543.9294 30656.1289 -122.7585 -63.0270
TCL: Running FEP window  15: Lambda1 0.7000000000000001 Lambda2 0.7500000000000001 [dLambda 0.050000000000000044]
TCL: Setting parameter firsttimestep to 0
TCL: Setting parameter alchLambda to 0.7000000000000001
Info: NONBONDED TABLE R-SQUARED SPACING: 0.0625
Info: NONBONDED TABLE SIZE: 705 POINTS
TCL: Setting parameter alchLambda2 to 0.7500000000000001
Info: NONBONDED TABLE R-SQUARED SPACING: 0.0625
Info: NONBONDED TABLE SIZE: 705 POINTS
TCL: Running for 1500000 steps
ETITLE: TS BOND ANGLE DIHED IMPRP ELECT VDW BOUNDARY MISC KINETIC TOTAL TEMP POTENTIAL TOTALAVG TEMPAVG PRESSURE GPRESSURE VOLUME PRESSAVG GPRESSAVG
ENERGY: 0 2.3134 9.1574 10.7694 0.0000 -10513.9681 1375.5940 0.0000 0.0000 1778.9859 -7337.1480 305.2776 -9116.1339 -7337.1480 305.2776 -608.9395 -531.0349 30656.1289 -608.9395 -531.0349
ENERGY: 300000 2.5203 12.0048 12.0376 0.0000 -10610.2952 1394.2613 0.0000 0.0000 1748.2114 -7441.2598 299.9966 -9189.4712 -7407.4568 300.6835 -283.3100 -219.3122 30162.2430 -106.4852 -29.8786
ENERGY: 600000 1.3026 11.9578 11.9870 0.0000 -10474.4677 1350.7193 0.0000 0.0000 1735.0824 -7363.4185 297.7436 -9098.5010 -7385.4918 301.3785 -148.0700 -102.2691 29886.4565 61.1471 130.3668
ENERGY: 900000 3.7145 11.1550 11.0379 0.0000 -10451.5188 1343.2918 0.0000 0.0000 1700.9548 -7381.3646 291.8873 -9082.3195 -7403.5119 299.1221 -427.0009 -343.4783 30224.2546 -137.4192 -59.1282
ENERGY: 1200000 1.2226 11.7242 13.2184 0.0000 -10706.8196 1483.6522 0.0000 0.0000 1735.4107 -7461.5914 297.8000 -9197.0021 -7410.2995 299.4624 234.3734 316.6180 30259.9024 -7.4861 69.7268
ENERGY: 1500000 3.0717 14.3300 10.7881 0.0000 -10526.4895 1378.3253 0.0000 0.0000 1734.1670 -7385.8074 297.5865 -9119.9744 -7409.7651 298.8186 -630.2113 -535.6653 30748.7624 40.7018 122.2783
TCL: Running FEP window  16: Lambda1 0.7500000000000001 Lambda2 0.8000000000000002 [dLambda 0.050000000000000044]
TCL: Setting parameter firsttimestep to 0
TCL: Setting parameter alchLambda to 0.7500000000000001
Info: NONBONDED TABLE R-SQUARED SPACING: 0.0625
Info: NONBONDED TABLE SIZE: 705 POINTS
TCL: Setting parameter alchLambda2 to 0.8000000000000002
Info: NONBONDED TABLE R-SQUARED SPACING: 0.0625
Info: NONBONDED TABLE SIZE: 705 POINTS
TCL: Running for 1500000 steps
ETITLE: TS BOND ANGLE DIHED IMPRP ELECT VDW BOUNDARY MISC KINETIC TOTAL TEMP POTENTIAL TOTALAVG TEMPAVG PRESSURE GPRESSURE VOLUME PRESSAVG GPRESSAVG
ENERGY: 0 3.0717 14.3300 10.7881 0.0000 -10527.0470 1378.9507 0.0000 0.0000 1733.2949 -7386.6115 297.4369 -9119.9064 -7386.6115 297.4369 -606.6226 -522.9988 30748.7624 -606.6226 -522.9988
ENERGY: 300000 2.0433 9.3025 13.6508 0.0000 -10435.6157 1364.0704 0.0000 0.0000 1670.1479 -7376.4008 286.6007 -9046.5487 -7448.8468 291.8994 -259.9746 -269.4236 30634.6671 -292.7841 -239.4342
ENERGY: 600000 0.4958 11.1057 11.1585 0.0000 -10590.4076 1424.7669 0.0000 0.0000 1732.1052 -7410.7753 297.2327 -9142.8805 -7447.1700 294.2934 82.1924 144.0675 30073.0689 -190.9023 -148.4774
ENERGY: 900000 2.0021 7.8337 13.4903 0.0000 -10535.9132 1381.1120 0.0000 0.0000 1694.5907 -7436.8844 290.7952 -9131.4751 -7437.6179 295.4221 -295.1250 -285.1966 30431.4394 -132.9108 -80.8582
ENERGY: 1200000 2.1987 10.0822 13.1445 0.0000 -10612.4673 1396.3727 0.0000 0.0000 1721.4510 -7469.2182 295.4044 -9190.6692 -7432.9805 296.0793 -57.9781 23.0225 29572.4981 -118.7894 -65.4198
ENERGY: 1500000 2.9613 13.4321 11.1012 0.0000 -10717.1556 1475.5193 0.0000 0.0000 1705.8928 -7508.2490 292.7346 -9214.1418 -7437.3290 296.9193 285.2723 390.6504 29689.8207 -1.6739 51.4267
TCL: Running FEP window  17: Lambda1 0.8000000000000002 Lambda2 0.8500000000000002 [dLambda 0.050000000000000044]
TCL: Setting parameter firsttimestep to 0
TCL: Setting parameter alchLambda to 0.8000000000000002
Info: NONBONDED TABLE R-SQUARED SPACING: 0.0625
Info: NONBONDED TABLE SIZE: 705 POINTS
TCL: Setting parameter alchLambda2 to 0.8500000000000002
Info: NONBONDED TABLE R-SQUARED SPACING: 0.0625
Info: NONBONDED TABLE SIZE: 705 POINTS
TCL: Running for 1500000 steps
ETITLE: TS BOND ANGLE DIHED IMPRP ELECT VDW BOUNDARY MISC KINETIC TOTAL TEMP POTENTIAL TOTALAVG TEMPAVG PRESSURE GPRESSURE VOLUME PRESSAVG GPRESSAVG
ENERGY: 0 2.9613 13.4321 11.1012 0.0000 -10718.4434 1476.4138 0.0000 0.0000 1705.0317 -7509.5034 292.5869 -9214.5351 -7509.5034 292.5869 318.2284 410.0121 29689.8207 318.2284 410.0121
ENERGY: 300000 3.5032 10.4679 13.3781 0.0000 -10701.6601 1495.9516 0.0000 0.0000 1704.7787 -7473.5805 292.5435 -9178.3592 -7483.6712 297.7247 593.7808 592.8738 29831.4805 147.3906 185.4964
ENERGY: 600000 1.3911 11.1834 14.0303 0.0000 -10601.8765 1360.1005 0.0000 0.0000 1794.2007 -7420.9705 307.8885 -9215.1713 -7440.4371 298.5049 -658.2861 -590.1179 29919.1952 -129.8615 -77.5138
ENERGY: 900000 1.8012 13.9747 11.4246 0.0000 -10472.8679 1394.0668 0.0000 0.0000 1761.8655 -7289.7351 302.3397 -9051.6007 -7420.9620 298.9162 -210.9080 -152.4742 30632.0571 -158.5979 -106.5081
ENERGY: 1200000 1.1323 10.5012 11.0893 0.0000 -10614.1245 1421.7011 0.0000 0.0000 1716.1752 -7453.5254 294.4991 -9169.7006 -7426.7410 297.2460 35.1372 67.9207 29960.8345 -124.0691 -85.5408
ENERGY: 1500000 1.8686 11.6128 10.8679 0.0000 -10743.2565 1495.5582 0.0000 0.0000 1743.2234 -7480.1255 299.1406 -9223.3489 -7429.5862 297.8557 531.2028 567.3512 30015.0477 -59.5791 -16.2638
TCL: Running FEP window  18: Lambda1 0.8500000000000002 Lambda2 0.9000000000000002 [dLambda 0.050000000000000044]
TCL: Setting parameter firsttimestep to 0
TCL: Setting parameter alchLambda to 0.8500000000000002
Info: NONBONDED TABLE R-SQUARED SPACING: 0.0625
Info: NONBONDED TABLE SIZE: 705 POINTS
TCL: Setting parameter alchLambda2 to 0.9000000000000002
Info: NONBONDED TABLE R-SQUARED SPACING: 0.0625
Info: NONBONDED TABLE SIZE: 705 POINTS
TCL: Running for 1500000 steps
ETITLE: TS BOND ANGLE DIHED IMPRP ELECT VDW BOUNDARY MISC KINETIC TOTAL TEMP POTENTIAL TOTALAVG TEMPAVG PRESSURE GPRESSURE VOLUME PRESSAVG GPRESSAVG
ENERGY: 0 1.8686 11.6128 10.8679 0.0000 -10743.9813 1496.5515 0.0000 0.0000 1742.3612 -7480.7193 298.9927 -9223.0805 -7480.7193 298.9927 511.8440 590.6377 30015.0477 511.8440 590.6377
ENERGY: 300000 0.8056 9.8295 11.6810 0.0000 -10674.6939 1523.2560 0.0000 0.0000 1839.7643 -7289.3575 315.7072 -9129.1218 -7403.9979 301.3981 750.2195 836.6683 30502.6913 212.4068 285.1977
ENERGY: 600000 1.2250 11.9715 11.5995 0.0000 -10696.1815 1450.1500 0.0000 0.0000 1739.2317 -7482.0039 298.4557 -9221.2356 -7412.4003 300.6549 2.0119 106.2678 29918.8770 127.3699 204.6579
ENERGY: 900000 2.4292 9.2273 12.9138 0.0000 -10749.3235 1468.1041 0.0000 0.0000 1741.7436 -7514.9055 298.8867 -9256.6491 -7420.0366 300.7338 -74.0307 -75.5952 30238.6553 37.1638 104.1811
ENERGY: 1200000 3.4357 9.6347 13.3282 0.0000 -10678.0320 1517.5426 0.0000 0.0000 1745.7621 -7388.3286 299.5763 -9134.0907 -7407.2406 301.9893 563.0906 604.4112 30468.0794 77.7813 135.0590
ENERGY: 1500000 1.6232 13.2316 11.9483 0.0000 -10540.1785 1369.9326 0.0000 0.0000 1765.1204 -7378.3225 302.8982 -9143.4429 -7407.9187 301.4247 115.0534 179.5511 29517.6080 16.2565 68.1068
TCL: Running FEP window  19: Lambda1 0.9000000000000002 Lambda2 0.9500000000000003 [dLambda 0.050000000000000044]
TCL: Setting parameter firsttimestep to 0
TCL: Setting parameter alchLambda to 0.9000000000000002
Info: NONBONDED TABLE R-SQUARED SPACING: 0.0625
Info: NONBONDED TABLE SIZE: 705 POINTS
TCL: Setting parameter alchLambda2 to 0.9500000000000003
Info: NONBONDED TABLE R-SQUARED SPACING: 0.0625
Info: NONBONDED TABLE SIZE: 705 POINTS
TCL: Running for 1500000 steps
ETITLE: TS BOND ANGLE DIHED IMPRP ELECT VDW BOUNDARY MISC KINETIC TOTAL TEMP POTENTIAL TOTALAVG TEMPAVG PRESSURE GPRESSURE VOLUME PRESSAVG GPRESSAVG
ENERGY: 0 1.6232 13.2316 11.9483 0.0000 -10541.3546 1371.5911 0.0000 0.0000 1764.2699 -7378.6906 302.7523 -9142.9605 -7378.6906 302.7523 133.5276 211.2545 29517.6080 133.5276 211.2545
ENERGY: 300000 0.9679 11.7507 11.5948 0.0000 -10635.3089 1456.0566 0.0000 0.0000 1734.3689 -7420.5699 297.6212 -9154.9388 -7389.9879 301.5419 22.3059 100.7816 30558.5802 165.2782 228.5001
ENERGY: 600000 2.0369 9.8528 12.1840 0.0000 -10637.6401 1452.1402 0.0000 0.0000 1755.5907 -7405.8355 301.2629 -9161.4262 -7387.3259 301.1833 398.0619 419.6643 30006.2092 269.3759 324.5470
ENERGY: 900000 1.3860 14.3789 10.3366 0.0000 -10713.5848 1525.7606 0.0000 0.0000 1782.2147 -7379.5081 305.8316 -9161.7228 -7378.9998 301.9736 1021.6990 1036.8472 29813.6609 201.1204 251.6650
ENERGY: 1200000 1.4635 12.1988 9.5538 0.0000 -10532.4927 1375.1092 0.0000 0.0000 1715.8310 -7418.3365 294.4400 -9134.1675 -7370.7499 301.6396 -197.8146 -163.6816 29981.2680 172.4810 221.6939
ENERGY: 1500000 2.6107 10.3773 11.4822 0.0000 -10441.1250 1284.8323 0.0000 0.0000 1803.1586 -7328.6640 309.4256 -9131.8226 -7373.0859 301.6352 -1267.8273 -1211.8524 30881.5022 -31.7422 22.4487
TCL: Running FEP window  20: Lambda1 0.9500000000000003 Lambda2 1.0    [dLambda 0.04999999999999971]
TCL: Setting parameter firsttimestep to 0
TCL: Setting parameter alchLambda to 0.9500000000000003
Info: NONBONDED TABLE R-SQUARED SPACING: 0.0625
Info: NONBONDED TABLE SIZE: 705 POINTS
TCL: Setting parameter alchLambda2 to 1.0
Info: NONBONDED TABLE R-SQUARED SPACING: 0.0625
Info: NONBONDED TABLE SIZE: 705 POINTS
TCL: Running for 1500000 steps
ETITLE: TS BOND ANGLE DIHED IMPRP ELECT VDW BOUNDARY MISC KINETIC TOTAL TEMP POTENTIAL TOTALAVG TEMPAVG PRESSURE GPRESSURE VOLUME PRESSAVG GPRESSAVG
ENERGY: 0 2.6107 10.3773 11.4822 0.0000 -10441.6644 1284.7694 0.0000 0.0000 1802.2670 -7330.1578 309.2726 -9132.4248 -7330.1578 309.2726 -1294.9237 -1197.8026 30881.5022 -1294.9237 -1197.8026
ENERGY: 300000 0.8360 11.8143 10.9208 0.0000 -10488.9526 1384.4646 0.0000 0.0000 1721.6761 -7359.2409 295.4431 -9080.9169 -7366.0031 306.9874 -221.7741 -185.0427 30711.3547 -443.9272 -402.0340
ENERGY: 600000 2.2989 9.4641 11.7448 0.0000 -10480.1901 1316.2427 0.0000 0.0000 1744.7783 -7395.6612 299.4075 -9140.4396 -7392.1093 303.6264 -687.0806 -594.0876 30186.7292 -173.9547 -131.3467
ENERGY: 900000 1.4531 14.8189 10.9399 0.0000 -10607.5881 1391.8031 0.0000 0.0000 1757.9453 -7430.6278 301.6669 -9188.5731 -7405.0230 302.4909 -74.5030 -3.1790 29678.9967 -182.3610 -133.8680
ENERGY: 1200000 4.0408 13.8201 13.4954 0.0000 -10555.0795 1394.1084 0.0000 0.0000 1732.1673 -7397.4475 297.2434 -9129.6148 -7412.0226 300.3756 -219.9243 -128.7426 30131.8884 -140.4795 -86.7303
ENERGY: 1500000 1.7919 13.1885 10.1051 0.0000 -10539.7797 1392.4559 0.0000 0.0000 1709.0501 -7413.1882 293.2764 -9122.2383 -7411.5216 299.8325 -154.5080 -141.7150 30441.2480 -112.4083 -59.0836
TCL: Exiting due to exit command.
