Info: SIMULATION PARAMETERS:
Info: TIMESTEP               2
Info: NUMBER OF STEPS        0
Info: STEPS PER CYCLE        10
Info: PERIODIC CELL BASIS 1  30.8263 0 0
Info: PERIODIC CELL BASIS 2  0 31.5251 0
Info: PERIODIC CELL BASIS 3  0 0 31.4757
Info: PERIODIC CELL CENTER   0 0 0
Info: WRAPPING WATERS AROUND PERIODIC BOUNDARIES ON OUTPUT.
Info: WRAPPING ALL CLUSTERS AROUND PERIODIC BOUNDARIES ON OUTPUT.
Info: FIRST LDB TIMESTEP     50
Info: LAST LDB TIMESTEP     -1
Info: HOM BACKGROUND SCALING 1
Info: PME BACKGROUND SCALING 1
Info: MIN ATOMS PER PATCH    40
Info: EMPTY PATCH LOAD       40 ATOMS
Info: VELOCITY FILE          mobley_6309289_equil.vel
Info: CENTER OF MASS MOVING INITIALLY? NO
Info: DIELECTRIC             1
Info: EXCLUDE                SCALED ONE-FOUR
Info: 1-4 ELECTROSTATICS SCALED BY 0.833333
Info: MODIFIED 1-4 VDW PARAMETERS WILL BE USED
Info: DCD FILENAME           mobley_6309289_prod.dcd
Info: DCD FREQUENCY          100000
Info: DCD FIRST STEP         100000
Info: DCD FILE WILL CONTAIN UNIT CELL DATA
Info: XST FILENAME           mobley_6309289_prod.xst
Info: XST FREQUENCY          100000
Info: NO VELOCITY DCD OUTPUT
Info: NO FORCE DCD OUTPUT
Info: OUTPUT FILENAME        mobley_6309289_prod
Info: BINARY OUTPUT FILES WILL BE USED
Info: RESTART FILENAME       mobley_6309289_prod.restart
Info: RESTART FREQUENCY      100000
Info: BINARY RESTART FILES WILL BE USED
Info: CUTOFF                 9
Info: PAIRLIST DISTANCE      11
Info: PAIRLIST SHRINK RATE   0.01
Info: PAIRLIST GROW RATE     0.01
Info: PAIRLIST TRIGGER       0.3
Info: PAIRLISTS PER CYCLE    2
Info: PAIRLISTS ENABLED
Info: MARGIN                 2
Info: HYDROGEN GROUP CUTOFF  2.5
Info: PATCH DIMENSION        15.5
Info: ENERGY OUTPUT STEPS    100000
Info: ENERGY EVALUATION STEPS    100000
Info: OUTPUT ENERGY PRECISION 4
Info: CROSSTERM ENERGY INCLUDED IN DIHEDRAL
Info: TIMING OUTPUT STEPS    1000000
Info: PRESSURE OUTPUT STEPS  100000
Info: ALCHEMICAL FEP ON
Info: FEP CURRENT LAMBDA VALUE     0
Info: FEP COMPARISON LAMBDA VALUE  0.05
Info: FEP INTRA-ALCHEMICAL NON-BONDED INTERACTIONS WILL BE RETAINED
Info: FEP INTRA-ALCHEMICAL BONDED INTERACTIONS WILL BE RETAINED
Info: FEP VDW SHIFTING COEFFICIENT 5
Info: FEP ELEC. ACTIVE FOR ANNIHILATED PARTICLES BETWEEN LAMBDA = 0 AND LAMBDA = 0.5
Info: FEP ELEC. ACTIVE FOR EXNIHILATED PARTICLES BETWEEN LAMBDA = 0.5 AND LAMBDA = 1
Info: FEP VDW ACTIVE FOR ANNIHILATED PARTICLES BETWEEN LAMBDA = 0 AND LAMBDA = 1
Info: FEP VDW ACTIVE FOR EXNIHILATED PARTICLES BETWEEN LAMBDA = 0 AND LAMBDA = 1
Info: FEP BOND ACTIVE FOR ANNIHILATED PARTICLES BETWEEN LAMBDA = 1 AND LAMBDA = 1
Info: FEP BOND ACTIVE FOR EXNIHILATED PARTICLES BETWEEN LAMBDA = 0 AND LAMBDA = 0
Info: LANGEVIN DYNAMICS ACTIVE
Info: LANGEVIN TEMPERATURE   300
Info: LANGEVIN USING BBK INTEGRATOR
Info: LANGEVIN DAMPING COEFFICIENT IS 1 INVERSE PS
Info: LANGEVIN DYNAMICS APPLIED TO HYDROGENS
Info: LANGEVIN PISTON PRESSURE CONTROL ACTIVE
Info:        TARGET PRESSURE IS 1.01325 BAR
Info:     OSCILLATION PERIOD IS 50 FS
Info:             DECAY TIME IS 25 FS
Info:     PISTON TEMPERATURE IS 300 K
Info:       PRESSURE CONTROL IS GROUP-BASED
Info:    INITIAL STRAIN RATE IS -9.17049e-05 -9.17049e-05 -9.17049e-05
Info:       CELL FLUCTUATION IS ISOTROPIC
Info: PARTICLE MESH EWALD (PME) ACTIVE
Info: PME TOLERANCE               1e-06
Info: PME EWALD COEFFICIENT       0.348832
Info: PME INTERPOLATION ORDER     4
Info: PME GRID DIMENSIONS         32 32 32
Info: PME MAXIMUM GRID SPACING    1
Info: PME CALCULATION WILL BE PERFORMED ON GPU
Info: FULL ELECTROSTATIC EVALUATION FREQUENCY      2
Info: USING VERLET I (r-RESPA) MTS SCHEME.
Info: C1 SPLITTING OF LONG RANGE ELECTROSTATICS
Info: PLACING ATOMS IN PATCHES BY HYDROGEN GROUPS
Info: RIGID BONDS TO HYDROGEN : ALL
Info:         ERROR TOLERANCE : 1e-08
Info:          MAX ITERATIONS : 100
Info: RIGID WATER USING SETTLE ALGORITHM
Info: RANDOM NUMBER SEED     1743592122
Info: USE HYDROGEN BONDS?    NO
Info: Using AMBER format force field!
Info: AMBER PARM FILE        mobley_6309289.prmtop
Info: COORDINATE PDB         mobley_6309289.pdb
Info: Exclusions will be read from PARM file!
Info: SCNB (VDW SCALING)     2
Info: USING ARITHMETIC MEAN TO COMBINE L-J SIGMA PARAMETERS
Info: BINARY COORDINATES     mobley_6309289_equil.coor
Info: SUMMARY OF PARAMETERS:
Info: 7 BONDS
Info: 9 ANGLES
Info:   9 HARMONIC
Info:   0 COSINE-BASED
Info: 8 DIHEDRAL
Info: 0 IMPROPER
Info: 0 CROSSTERM
Info: 0 VDW
Info: 28 VDW_PAIRS
Info: 0 NBTHOLE_PAIRS
Info: To read alchdata from file: mobley_6309289.pdb
Info: To read alchflag data from column: 5
Info: STRUCTURE SUMMARY:
Info: 2957 ATOMS
Info: 2957 BONDS
Info: 33 ANGLES
Info: 54 DIHEDRALS
Info: 0 IMPROPERS
Info: 0 CROSSTERMS
Info: 3035 EXCLUSIONS
Info: 2951 RIGID BONDS
Info: ALCH: 0 ATOMS TO DISAPPEAR IN FINAL STATE
Info: ALCH: 17 ATOMS TO APPEAR IN FINAL STATE
Info: 5920 DEGREES OF FREEDOM
Info: 986 HYDROGEN GROUPS
Info: 3 ATOMS IN LARGEST HYDROGEN GROUP
Info: 986 MIGRATION GROUPS
Info: 3 ATOMS IN LARGEST MIGRATION GROUP
Info: TOTAL MASS = 17740.8 amu
Info: TOTAL CHARGE = 0.000299975 e
Info: MASS DENSITY = 0.963119 g/cm^3
Info: ATOM DENSITY = 0.0966714 atoms/A^3
Info: ADDED 0 IMPLICIT EXCLUSIONS
Info: NONBONDED TABLE R-SQUARED SPACING: 0.0625
Info: NONBONDED TABLE SIZE: 705 POINTS
Info: REMOVING COM VELOCITY 0.0861174 0.0973321 0.234061
Info: Use 3D box decompostion in PME FFT.
Info: Updated CUDA force table with 4096 elements.
Info: Updated CUDA LJ table with 7 x 7 elements.
Info: Found 20 unique exclusion lists needing 52 bytes
TCL: Running for 1500000 steps
ETITLE: TS BOND ANGLE DIHED IMPRP ELECT VDW BOUNDARY MISC KINETIC TOTAL TEMP POTENTIAL TOTALAVG TEMPAVG PRESSURE GPRESSURE VOLUME PRESSAVG GPRESSAVG
ENERGY: 0 1.6839 7.2741 3.4102 0.0000 -10661.2095 1424.4433 0.0000 0.0000 1786.6852 -7437.7128 303.7503 -9224.3980 -7437.7128 303.7503 -70.5640 12.0583 30588.1580 -70.5640 12.0583
ENERGY: 300000 2.1242 5.9310 3.2776 0.0000 -10754.8993 1440.3241 0.0000 0.0000 1694.3775 -7608.8649 288.0573 -9303.2424 -7506.6158 299.2154 -258.6562 -130.5037 30141.1394 -165.7714 -63.0682
ENERGY: 600000 0.7593 10.5641 3.5943 0.0000 -10687.7351 1463.7486 0.0000 0.0000 1759.3253 -7449.7435 299.0989 -9209.0688 -7500.9437 296.8641 242.7202 353.4440 30381.1632 125.7237 210.4164
ENERGY: 900000 0.7763 8.0086 2.7040 0.0000 -10803.8347 1520.2448 0.0000 0.0000 1752.7848 -7519.3162 297.9870 -9272.1010 -7492.5922 297.4688 662.2564 754.9320 29912.1751 191.5985 261.4228
ENERGY: 1200000 0.8319 6.4410 3.3642 0.0000 -10537.3171 1378.5891 0.0000 0.0000 1752.1823 -7395.9085 297.8845 -9148.0908 -7489.5956 296.6361 -210.2664 -149.6152 30522.3677 69.5276 151.7468
ENERGY: 1500000 2.8523 6.1623 4.2806 0.0000 -10827.7821 1554.4740 0.0000 0.0000 1741.6147 -7518.3981 296.0880 -9260.0128 -7488.9426 297.5627 1124.0369 1197.6409 29658.5611 102.8439 179.7798
TCL: Running FEP window   2: Lambda1 0.05   Lambda2 0.1    [dLambda 0.05  ]
TCL: Setting parameter firsttimestep to 0
TCL: Setting parameter alchLambda to 0.05
Info: NONBONDED TABLE R-SQUARED SPACING: 0.0625
Info: NONBONDED TABLE SIZE: 705 POINTS
TCL: Setting parameter alchLambda2 to 0.1
Info: NONBONDED TABLE R-SQUARED SPACING: 0.0625
Info: NONBONDED TABLE SIZE: 705 POINTS
TCL: Running for 1500000 steps
ETITLE: TS BOND ANGLE DIHED IMPRP ELECT VDW BOUNDARY MISC KINETIC TOTAL TEMP POTENTIAL TOTALAVG TEMPAVG PRESSURE GPRESSURE VOLUME PRESSAVG GPRESSAVG
ENERGY: 0 2.8523 6.1623 4.2806 0.0000 -10827.7809 1557.1489 0.0000 0.0000 1740.7321 -7516.6047 295.9379 -9257.3368 -7516.6047 295.9379 1116.9489 1203.9373 29658.5611 1116.9489 1203.9373
ENERGY: 300000 2.0193 5.7324 3.6302 0.0000 -10708.3116 1444.7750 0.0000 0.0000 1734.4745 -7517.6801 294.8741 -9252.1546 -7514.0539 296.3139 292.9752 392.2728 29877.0431 503.2610 592.0851
ENERGY: 600000 1.0102 5.0344 2.6920 0.0000 -10582.0866 1378.6041 0.0000 0.0000 1799.9368 -7394.8091 306.0032 -9194.7459 -7504.5472 297.6079 -138.3551 -51.5005 29917.3168 462.1903 548.8251
ENERGY: 900000 0.7573 10.1575 2.8005 0.0000 -10754.6879 1495.1664 0.0000 0.0000 1798.7381 -7447.0681 305.7994 -9245.8062 -7473.2943 299.7877 541.5394 549.3960 30327.5610 301.5039 370.4457
ENERGY: 1200000 1.5100 8.9099 4.2848 0.0000 -10765.3059 1429.8454 0.0000 0.0000 1725.9929 -7594.7627 293.4321 -9320.7557 -7491.0619 300.2667 -266.4137 -196.5978 30122.0665 291.7486 348.5088
ENERGY: 1500000 0.9998 9.4769 4.6801 0.0000 -10756.5344 1464.8480 0.0000 0.0000 1743.9012 -7532.6284 296.4767 -9276.5296 -7495.9710 299.6693 -138.0028 -86.9249 30642.9796 156.7805 216.0390
TCL: Running FEP window   3: Lambda1 0.1    Lambda2 0.15000000000000002 [dLambda 0.05000000000000002]
TCL: Setting parameter firsttimestep to 0
TCL: Setting parameter alchLambda to 0.1
Info: NONBONDED TABLE R-SQUARED SPACING: 0.0625
Info: NONBONDED TABLE SIZE: 705 POINTS
TCL: Setting parameter alchLambda2 to 0.15000000000000002
Info: NONBONDED TABLE R-SQUARED SPACING: 0.0625
Info: NONBONDED TABLE SIZE: 705 POINTS
TCL: Running for 1500000 steps
ETITLE: TS BOND ANGLE DIHED IMPRP ELECT VDW BOUNDARY MISC KINETIC TOTAL TEMP POTENTIAL TOTALAVG TEMPAVG PRESSURE GPRESSURE VOLUME PRESSAVG GPRESSAVG
ENERGY: 0 0.9998 9.4769 4.6801 0.0000 -10756.5341 1467.1663 0.0000 0.0000 1743.0508 -7531.1602 296.3321 -9274.2110 -7531.1602 296.3321 -153.3354 -81.9320 30642.9796 -153.3354 -81.9320
ENERGY: 300000 0.4360 12.2759 3.3453 0.0000 -10615.8317 1395.2472 0.0000 0.0000 1772.2941 -7432.2332 301.3037 -9204.5273 -7463.3839 299.8131 -413.7181 -380.6486 30710.0811 -70.0358 -20.9241
ENERGY: 600000 3.2499 10.0371 3.4291 0.0000 -10792.7775 1476.7919 0.0000 0.0000 1792.8597 -7506.4098 304.8000 -9299.2695 -7478.7941 300.0944 386.7049 412.6888 29638.1940 173.0073 218.7953
ENERGY: 900000 5.3144 3.7895 3.0545 0.0000 -10679.4045 1409.9091 0.0000 0.0000 1755.1696 -7502.1674 298.3924 -9257.3370 -7473.8719 300.3879 -508.2479 -456.4099 30630.1042 5.1255 60.0903
ENERGY: 1200000 3.9841 7.2205 3.0913 0.0000 -10593.4456 1358.2765 0.0000 0.0000 1723.5262 -7497.3469 293.0128 -9220.8731 -7481.5042 299.6906 -490.0386 -355.6923 29888.1227 -91.1938 -34.1503
ENERGY: 1500000 2.4333 7.8640 3.3545 0.0000 -10686.0126 1472.0801 0.0000 0.0000 1826.2030 -7374.0777 310.4686 -9200.2807 -7474.4467 300.5972 406.0831 481.9873 29981.6659 -56.8189 -0.3589
TCL: Running FEP window   4: Lambda1 0.15000000000000002 Lambda2 0.2    [dLambda 0.04999999999999999]
TCL: Setting parameter firsttimestep to 0
TCL: Setting parameter alchLambda to 0.15000000000000002
Info: NONBONDED TABLE R-SQUARED SPACING: 0.0625
Info: NONBONDED TABLE SIZE: 705 POINTS
TCL: Setting parameter alchLambda2 to 0.2
Info: NONBONDED TABLE R-SQUARED SPACING: 0.0625
Info: NONBONDED TABLE SIZE: 705 POINTS
TCL: Running for 1500000 steps
ETITLE: TS BOND ANGLE DIHED IMPRP ELECT VDW BOUNDARY MISC KINETIC TOTAL TEMP POTENTIAL TOTALAVG TEMPAVG PRESSURE GPRESSURE VOLUME PRESSAVG GPRESSAVG
ENERGY: 0 2.4333 7.8640 3.3545 0.0000 -10686.0128 1471.5367 0.0000 0.0000 1825.3420 -7375.4823 310.3223 -9200.8243 -7375.4823 310.3223 397.5353 482.7521 29981.6659 397.5353 482.7521
ENERGY: 300000 2.0930 7.7624 4.3383 0.0000 -10726.0821 1461.1293 0.0000 0.0000 1808.6019 -7442.1572 307.4763 -9250.7591 -7461.9530 300.9987 28.5035 84.9792 30543.5043 127.1946 199.3400
ENERGY: 600000 0.9717 9.5379 3.0440 0.0000 -10709.0837 1528.7372 0.0000 0.0000 1803.5598 -7363.2330 306.6191 -9166.7928 -7453.6869 301.7228 988.8909 970.0736 30249.2717 288.8365 359.9768
ENERGY: 900000 0.3045 12.2068 4.2104 0.0000 -10733.0827 1447.4480 0.0000 0.0000 1748.7518 -7520.1614 297.3013 -9268.9131 -7456.9871 301.6176 167.0653 143.7952 30076.2931 271.6851 328.7027
ENERGY: 1200000 1.8703 9.6538 3.0441 0.0000 -10791.9964 1456.0748 0.0000 0.0000 1744.2697 -7577.0837 296.5393 -9321.3533 -7466.6815 301.3675 -71.8754 -22.4161 30217.5675 158.8829 219.0601
ENERGY: 1500000 0.6991 4.8491 2.6915 0.0000 -10754.7004 1503.8622 0.0000 0.0000 1751.1297 -7491.4688 297.7056 -9242.5986 -7470.2011 301.4084 687.4538 792.8251 29866.1986 145.9257 206.6113
TCL: Running FEP window   5: Lambda1 0.2    Lambda2 0.25   [dLambda 0.04999999999999999]
TCL: Setting parameter firsttimestep to 0
TCL: Setting parameter alchLambda to 0.2
Info: NONBONDED TABLE R-SQUARED SPACING: 0.0625
Info: NONBONDED TABLE SIZE: 705 POINTS
TCL: Setting parameter alchLambda2 to 0.25
Info: NONBONDED TABLE R-SQUARED SPACING: 0.0625
Info: NONBONDED TABLE SIZE: 705 POINTS
TCL: Running for 1500000 steps
ETITLE: TS BOND ANGLE DIHED IMPRP ELECT VDW BOUNDARY MISC KINETIC TOTAL TEMP POTENTIAL TOTALAVG TEMPAVG PRESSURE GPRESSURE VOLUME PRESSAVG GPRESSAVG
ENERGY: 0 0.6991 4.8491 2.6915 0.0000 -10754.7003 1503.7747 0.0000 0.0000 1750.2334 -7492.4526 297.5532 -9242.6860 -7492.4526 297.5532 706.5433 795.5766 29866.1986 706.5433 795.5766
ENERGY: 300000 2.7437 9.7022 3.2663 0.0000 -10581.4563 1349.4865 0.0000 0.0000 1818.9421 -7397.3155 309.2342 -9216.2576 -7487.4772 301.8912 -509.5274 -398.3536 30182.5280 264.4597 337.7236
ENERGY: 600000 1.7530 5.9566 3.3634 0.0000 -10768.6682 1439.4506 0.0000 0.0000 1732.1174 -7586.0273 294.4733 -9318.1447 -7490.6561 300.9354 -223.8908 -205.5723 30528.2943 19.8410 62.7440
ENERGY: 900000 1.0412 7.1896 2.6572 0.0000 -10835.6006 1544.4325 0.0000 0.0000 1765.1789 -7515.1011 300.0941 -9280.2800 -7496.5491 301.2417 661.3286 761.3454 30281.4555 68.9295 120.1026
ENERGY: 1200000 2.6829 9.6625 3.3239 0.0000 -10604.0380 1378.7746 0.0000 0.0000 1784.1524 -7425.4417 303.3197 -9209.5941 -7492.5817 301.0168 -540.6880 -471.3342 30373.9274 -25.2168 25.7886
ENERGY: 1500000 3.6511 7.6731 2.6535 0.0000 -10559.4320 1333.7805 0.0000 0.0000 1739.6116 -7472.0622 295.7474 -9211.6738 -7488.6187 300.4952 -797.5815 -687.4229 30462.2939 -61.9824 -7.1034
TCL: Running FEP window   6: Lambda1 0.25   Lambda2 0.3    [dLambda 0.04999999999999999]
TCL: Setting parameter firsttimestep to 0
TCL: Setting parameter alchLambda to 0.25
Info: NONBONDED TABLE R-SQUARED SPACING: 0.0625
Info: NONBONDED TABLE SIZE: 705 POINTS
TCL: Setting parameter alchLambda2 to 0.3
Info: NONBONDED TABLE R-SQUARED SPACING: 0.0625
Info: NONBONDED TABLE SIZE: 705 POINTS
TCL: Running for 1500000 steps
ETITLE: TS BOND ANGLE DIHED IMPRP ELECT VDW BOUNDARY MISC KINETIC TOTAL TEMP POTENTIAL TOTALAVG TEMPAVG PRESSURE GPRESSURE VOLUME PRESSAVG GPRESSAVG
ENERGY: 0 3.6511 7.6731 2.6535 0.0000 -10559.4331 1333.4192 0.0000 0.0000 1738.7368 -7473.2993 295.5987 -9212.0362 -7473.2993 295.5987 -759.9578 -685.0938 30462.2939 -759.9578 -685.0938
ENERGY: 300000 2.7462 6.5224 3.0876 0.0000 -10664.0449 1456.2556 0.0000 0.0000 1779.9213 -7415.5118 302.6004 -9195.4331 -7440.1897 299.1270 231.2279 261.1855 30144.2937 -8.1230 43.2524
ENERGY: 600000 2.7358 10.2976 4.6237 0.0000 -10701.7354 1435.3430 0.0000 0.0000 1769.5339 -7479.2014 300.8344 -9248.7353 -7463.2995 299.5951 -21.5707 -5.3215 30181.9837 -70.9358 -10.8544
ENERGY: 900000 0.3616 8.4540 2.9010 0.0000 -10599.0075 1343.8257 0.0000 0.0000 1754.4586 -7489.0067 298.2715 -9243.4652 -7487.2977 298.8474 -828.4002 -791.7675 30622.2748 -202.6592 -133.1567
ENERGY: 1200000 2.7326 6.9065 3.1819 0.0000 -10698.3748 1397.1515 0.0000 0.0000 1749.9416 -7538.4607 297.5036 -9288.4023 -7464.9045 300.2959 -643.2490 -615.1033 30500.5033 -272.3887 -203.5794
ENERGY: 1500000 5.0578 11.6136 3.7046 0.0000 -10762.8515 1452.7822 0.0000 0.0000 1762.0924 -7527.6009 299.5693 -9289.6933 -7472.4821 300.5394 -81.5448 -30.9164 30398.3448 -295.2797 -224.0248
TCL: Running FEP window   7: Lambda1 0.3    Lambda2 0.35   [dLambda 0.04999999999999999]
TCL: Setting parameter firsttimestep to 0
TCL: Setting parameter alchLambda to 0.3
Info: NONBONDED TABLE R-SQUARED SPACING: 0.0625
Info: NONBONDED TABLE SIZE: 705 POINTS
TCL: Setting parameter alchLambda2 to 0.35
Info: NONBONDED TABLE R-SQUARED SPACING: 0.0625
Info: NONBONDED TABLE SIZE: 705 POINTS
TCL: Running for 1500000 steps
ETITLE: TS BOND ANGLE DIHED IMPRP ELECT VDW BOUNDARY MISC KINETIC TOTAL TEMP POTENTIAL TOTALAVG TEMPAVG PRESSURE GPRESSURE VOLUME PRESSAVG GPRESSAVG
ENERGY: 0 5.0578 11.6136 3.7046 0.0000 -10762.8512 1452.7585 0.0000 0.0000 1761.2196 -7528.4971 299.4210 -9289.7167 -7528.4971 299.4210 -114.5978 -27.2940 30398.3448 -114.5978 -27.2940
ENERGY: 300000 2.8663 8.7174 3.4016 0.0000 -10539.6097 1349.8872 0.0000 0.0000 1797.7906 -7376.9466 305.6383 -9174.7373 -7440.5452 303.8599 -892.0426 -785.8134 31123.1470 -92.7146 2.3011
ENERGY: 600000 2.1509 6.7793 3.7004 0.0000 -10579.4965 1420.5100 0.0000 0.0000 1751.7211 -7394.6348 297.8061 -9146.3559 -7445.7150 301.6963 246.7171 270.3093 29910.1694 -198.1707 -133.0010
ENERGY: 900000 1.5736 8.9916 2.9758 0.0000 -10565.8827 1357.4683 0.0000 0.0000 1751.2808 -7443.5926 297.7313 -9194.8733 -7454.6602 301.1504 -708.0098 -647.2895 30733.1235 -184.4452 -115.4914
ENERGY: 1200000 1.7583 11.5912 3.1697 0.0000 -10688.5988 1409.4292 0.0000 0.0000 1742.6629 -7519.9877 296.2662 -9262.6506 -7460.5583 300.6692 -440.0892 -359.8080 30344.1064 -197.9590 -128.1547
ENERGY: 1500000 4.6832 7.4729 2.8102 0.0000 -10732.3403 1455.0950 0.0000 0.0000 1827.0698 -7435.2092 310.6160 -9262.2790 -7461.1635 302.0037 75.5010 191.8509 30287.2282 -152.1963 -83.4699
TCL: Running FEP window   8: Lambda1 0.35   Lambda2 0.39999999999999997 [dLambda 0.04999999999999999]
TCL: Setting parameter firsttimestep to 0
TCL: Setting parameter alchLambda to 0.35
Info: NONBONDED TABLE R-SQUARED SPACING: 0.0625
Info: NONBONDED TABLE SIZE: 705 POINTS
TCL: Setting parameter alchLambda2 to 0.39999999999999997
Info: NONBONDED TABLE R-SQUARED SPACING: 0.0625
Info: NONBONDED TABLE SIZE: 705 POINTS
TCL: Running for 1500000 steps
ETITLE: TS BOND ANGLE DIHED IMPRP ELECT VDW BOUNDARY MISC KINETIC TOTAL TEMP POTENTIAL TOTALAVG TEMPAVG PRESSURE GPRESSURE VOLUME PRESSAVG GPRESSAVG
ENERGY: 0 4.6832 7.4729 2.8102 0.0000 -10732.3403 1455.0457 0.0000 0.0000 1826.1722 -7436.1561 310.4634 -9262.3283 -7436.1561 310.4634 107.8293 194.7709 30287.2282 107.8293 194.7709
ENERGY: 300000 1.1750 9.8474 2.9558 0.0000 -10598.2676 1277.1339 0.0000 0.0000 1747.2953 -7559.8602 297.0537 -9307.1555 -7502.9977 304.5986 -1449.4863 -1406.0729 30455.8203 -452.2401 -377.2640
ENERGY: 600000 3.7935 5.8217 3.4403 0.0000 -10633.0489 1363.0489 0.0000 0.0000 1771.9658 -7484.9787 301.2479 -9256.9445 -7483.1138 303.6625 -796.8289 -687.2244 30583.2352 -326.4931 -247.0150
ENERGY: 900000 1.7383 11.0637 3.0406 0.0000 -10529.4517 1344.9866 0.0000 0.0000 1742.7372 -7425.8853 296.2788 -9168.6225 -7476.7782 302.3319 -712.8328 -633.5434 30686.0208 -202.8577 -141.5083
ENERGY: 1200000 1.1235 6.5880 3.0211 0.0000 -10780.0452 1496.3700 0.0000 0.0000 1769.1328 -7503.8096 300.7663 -9272.9424 -7481.7933 301.7470 146.3698 202.6363 30975.8502 -179.9215 -121.0499
ENERGY: 1500000 2.8330 11.3721 4.0592 0.0000 -10635.8001 1389.4176 0.0000 0.0000 1773.6625 -7454.4557 301.5363 -9228.1182 -7483.9845 300.9738 -349.8208 -254.2205 30407.1444 -172.0630 -109.1553
TCL: Running FEP window   9: Lambda1 0.39999999999999997 Lambda2 0.44999999999999996 [dLambda 0.04999999999999999]
TCL: Setting parameter firsttimestep to 0
TCL: Setting parameter alchLambda to 0.39999999999999997
Info: NONBONDED TABLE R-SQUARED SPACING: 0.0625
Info: NONBONDED TABLE SIZE: 705 POINTS
TCL: Setting parameter alchLambda2 to 0.44999999999999996
Info: NONBONDED TABLE R-SQUARED SPACING: 0.0625
Info: NONBONDED TABLE SIZE: 705 POINTS
TCL: Running for 1500000 steps
ETITLE: TS BOND ANGLE DIHED IMPRP ELECT VDW BOUNDARY MISC KINETIC TOTAL TEMP POTENTIAL TOTALAVG TEMPAVG PRESSURE GPRESSURE VOLUME PRESSAVG GPRESSAVG
ENERGY: 0 2.8330 11.3721 4.0592 0.0000 -10635.8008 1389.9691 0.0000 0.0000 1772.7865 -7454.7809 301.3874 -9227.5674 -7454.7809 301.3874 -323.7771 -245.1722 30407.1444 -323.7771 -245.1722
ENERGY: 300000 1.4152 6.8148 2.9404 0.0000 -10549.7202 1351.6061 0.0000 0.0000 1793.1673 -7393.7765 304.8523 -9186.9438 -7446.7576 303.0707 -554.6503 -513.7189 30669.9190 -253.3509 -171.8905
ENERGY: 600000 0.3189 6.7916 3.5853 0.0000 -10826.6075 1483.3546 0.0000 0.0000 1809.2348 -7523.3223 307.5839 -9332.5571 -7455.0253 304.4905 270.8549 312.2029 29919.0272 -66.3532 12.1600
ENERGY: 900000 3.3486 6.4074 2.9111 0.0000 -10592.2169 1383.5127 0.0000 0.0000 1764.0065 -7432.0305 299.8948 -9196.0371 -7442.4168 303.0454 -315.2243 -221.0777 30303.6326 -156.6112 -90.0517
ENERGY: 1200000 2.2516 9.7150 2.9827 0.0000 -10534.5915 1363.1534 0.0000 0.0000 1760.2454 -7396.2433 299.2553 -9156.4887 -7445.4995 303.0879 -363.7847 -324.1174 30627.4515 -220.9015 -162.7801
ENERGY: 1500000 3.1427 7.6210 2.9236 0.0000 -10662.2493 1452.0185 0.0000 0.0000 1816.3106 -7380.2330 308.7868 -9196.5436 -7445.3224 303.8652 -32.1822 -1.1417 30699.2190 -221.5644 -163.9532
TCL: Running FEP window  10: Lambda1 0.44999999999999996 Lambda2 0.49999999999999994 [dLambda 0.04999999999999999]
TCL: Setting parameter firsttimestep to 0
TCL: Setting parameter alchLambda to 0.44999999999999996
Info: NONBONDED TABLE R-SQUARED SPACING: 0.0625
Info: NONBONDED TABLE SIZE: 705 POINTS
TCL: Setting parameter alchLambda2 to 0.49999999999999994
Info: NONBONDED TABLE R-SQUARED SPACING: 0.0625
Info: NONBONDED TABLE SIZE: 705 POINTS
TCL: Running for 1500000 steps
ETITLE: TS BOND ANGLE DIHED IMPRP ELECT VDW BOUNDARY MISC KINETIC TOTAL TEMP POTENTIAL TOTALAVG TEMPAVG PRESSURE GPRESSURE VOLUME PRESSAVG GPRESSAVG
ENERGY: 0 3.1427 7.6210 2.9236 0.0000 -10662.2493 1452.0877 0.0000 0.0000 1815.4131 -7381.0612 308.6343 -9196.4743 -7381.0612 308.6343 -79.1820 5.4552 30699.2190 -79.1820 5.4552
ENERGY: 300000 3.4182 8.3053 3.2655 0.0000 -10921.6375 1510.0862 0.0000 0.0000 1795.8344 -7600.7278 305.3057 -9396.5623 -7481.9452 303.1253 247.3740 250.8256 30167.1115 -1.6280 59.7903
ENERGY: 600000 1.2253 9.0137 3.0954 0.0000 -10582.9915 1387.2127 0.0000 0.0000 1750.0005 -7432.4440 297.5136 -9182.4445 -7466.1293 299.5121 -459.1412 -343.4215 30670.6959 -51.4098 13.7403
ENERGY: 900000 1.5749 8.3579 2.6113 0.0000 -10587.4633 1371.5854 0.0000 0.0000 1730.6074 -7472.7265 294.2166 -9203.3339 -7462.3092 299.5109 -545.4624 -485.9686 30585.1380 -172.0118 -109.8935
ENERGY: 1200000 5.3387 9.4597 3.1329 0.0000 -10775.6406 1501.5517 0.0000 0.0000 1859.5742 -7396.5834 316.1420 -9256.1576 -7455.0207 301.9255 365.3850 460.8103 30294.3358 -108.2785 -44.4577
ENERGY: 1500000 1.5453 6.9294 4.5725 0.0000 -10735.8800 1441.8089 0.0000 0.0000 1802.6900 -7478.3339 306.4712 -9281.0239 -7465.0301 301.9680 -84.9424 27.7957 30092.1433 -184.5747 -118.1954
TCL: Running FEP window  11: Lambda1 0.49999999999999994 Lambda2 0.5499999999999999 [dLambda 0.04999999999999999]
TCL: Setting parameter firsttimestep to 0
TCL: Setting parameter alchLambda to 0.49999999999999994
Info: NONBONDED TABLE R-SQUARED SPACING: 0.0625
Info: NONBONDED TABLE SIZE: 705 POINTS
TCL: Setting parameter alchLambda2 to 0.5499999999999999
Info: NONBONDED TABLE R-SQUARED SPACING: 0.0625
Info: NONBONDED TABLE SIZE: 705 POINTS
TCL: Running for 1500000 steps
ETITLE: TS BOND ANGLE DIHED IMPRP ELECT VDW BOUNDARY MISC KINETIC TOTAL TEMP POTENTIAL TOTALAVG TEMPAVG PRESSURE GPRESSURE VOLUME PRESSAVG GPRESSAVG
ENERGY: 0 1.5453 6.9294 4.5725 0.0000 -10735.8799 1441.4869 0.0000 0.0000 1801.7948 -7479.5510 306.3190 -9281.3457 -7479.5510 306.3190 -68.8461 32.0515 30092.1433 -68.8461 32.0515
ENERGY: 300000 0.5638 6.1505 2.6356 0.0000 -10636.3991 1329.2492 0.0000 0.0000 1766.9702 -7530.8298 300.3986 -9297.8000 -7499.6590 300.4867 -892.7293 -824.6272 30287.8378 -453.6544 -380.8859
ENERGY: 600000 1.1315 10.9183 3.7089 0.0000 -10758.6767 1449.2957 0.0000 0.0000 1774.7449 -7518.8774 301.7204 -9293.6223 -7479.8642 300.1574 -205.2735 -151.4908 30625.7133 -255.7999 -186.2807
ENERGY: 900000 0.4427 7.5355 3.7408 0.0000 -10918.0270 1556.8574 0.0000 0.0000 1783.3946 -7566.0560 303.1909 -9349.4506 -7488.5567 301.2837 876.4359 944.4525 29984.7629 -143.1098 -70.5730
ENERGY: 1200000 2.7533 4.2140 3.2677 0.0000 -10717.0843 1482.4343 0.0000 0.0000 1810.7926 -7413.6225 307.8487 -9224.4151 -7473.4789 301.7217 159.1683 237.5479 30837.7897 -192.3522 -123.5929
ENERGY: 1500000 0.6903 6.5989 3.1855 0.0000 -10841.5687 1514.0074 0.0000 0.0000 1779.9237 -7537.1628 302.6008 -9317.0865 -7487.9825 301.2785 351.8647 407.8156 30199.5242 -169.6809 -102.2336
TCL: Running FEP window  12: Lambda1 0.5499999999999999 Lambda2 0.6    [dLambda 0.050000000000000044]
TCL: Setting parameter firsttimestep to 0
TCL: Setting parameter alchLambda to 0.5499999999999999
Info: NONBONDED TABLE R-SQUARED SPACING: 0.0625
Info: NONBONDED TABLE SIZE: 705 POINTS
TCL: Setting parameter alchLambda2 to 0.6
Info: NONBONDED TABLE R-SQUARED SPACING: 0.0625
Info: NONBONDED TABLE SIZE: 705 POINTS
TCL: Running for 1500000 steps
ETITLE: TS BOND ANGLE DIHED IMPRP ELECT VDW BOUNDARY MISC KINETIC TOTAL TEMP POTENTIAL TOTALAVG TEMPAVG PRESSURE GPRESSURE VOLUME PRESSAVG GPRESSAVG
ENERGY: 0 0.6903 6.5989 3.1855 0.0000 -10842.2426 1513.9753 0.0000 0.0000 1779.0403 -7538.7522 302.4506 -9317.7925 -7538.7522 302.4506 358.0770 411.9015 30199.5242 358.0770 411.9015
ENERGY: 300000 1.7049 4.9941 3.4020 0.0000 -10727.8535 1382.5918 0.0000 0.0000 1789.9504 -7545.2104 304.3054 -9335.1608 -7501.5518 304.0892 -705.4069 -606.4113 30466.7704 -136.8307 -69.1629
ENERGY: 600000 1.8946 11.6657 3.3261 0.0000 -10677.6647 1440.3052 0.0000 0.0000 1738.4220 -7482.0510 295.5452 -9220.4730 -7506.0203 302.0089 -168.8559 -131.0239 30971.4961 -259.0111 -203.9897
ENERGY: 900000 1.5503 6.6412 2.9597 0.0000 -10737.6171 1465.9945 0.0000 0.0000 1722.2126 -7538.2588 292.7895 -9260.4714 -7515.5767 300.0014 309.9706 340.5368 30029.3809 -56.0203 -7.4835
ENERGY: 1200000 3.8974 7.7463 2.8711 0.0000 -10738.1579 1443.4721 0.0000 0.0000 1766.9438 -7513.2273 300.3941 -9280.1711 -7511.2954 300.4319 -103.6416 13.3550 30153.9115 -171.4421 -106.4290
ENERGY: 1500000 1.9587 6.4564 2.8766 0.0000 -10553.3447 1289.2005 0.0000 0.0000 1760.6191 -7492.2335 299.3189 -9252.8525 -7503.9477 300.6944 -1428.1775 -1391.5180 31058.7359 -187.0606 -128.5031
TCL: Running FEP window  13: Lambda1 0.6    Lambda2 0.65   [dLambda 0.050000000000000044]
TCL: Setting parameter firsttimestep to 0
TCL: Setting parameter alchLambda to 0.6
Info: NONBONDED TABLE R-SQUARED SPACING: 0.0625
Info: NONBONDED TABLE SIZE: 705 POINTS
TCL: Setting parameter alchLambda2 to 0.65
Info: NONBONDED TABLE R-SQUARED SPACING: 0.0625
Info: NONBONDED TABLE SIZE: 705 POINTS
TCL: Running for 1500000 steps
ETITLE: TS BOND ANGLE DIHED IMPRP ELECT VDW BOUNDARY MISC KINETIC TOTAL TEMP POTENTIAL TOTALAVG TEMPAVG PRESSURE GPRESSURE VOLUME PRESSAVG GPRESSAVG
ENERGY: 0 1.9587 6.4564 2.8766 0.0000 -10553.8914 1288.7678 0.0000 0.0000 1759.7623 -7494.0697 299.1732 -9253.8320 -7494.0697 299.1732 -1458.4027 -1393.6299 31058.7359 -1458.4027 -1393.6299
ENERGY: 300000 4.4142 4.3760 2.7715 0.0000 -10613.5896 1440.2740 0.0000 0.0000 1800.2938 -7361.4601 306.0639 -9161.7539 -7452.6062 300.1061 -36.8665 20.0485 30982.5239 -444.1302 -376.4557
ENERGY: 600000 3.5318 8.5919 3.6038 0.0000 -10804.7884 1464.8254 0.0000 0.0000 1742.5882 -7581.6474 296.2535 -9324.2355 -7489.9352 297.9570 159.6613 178.2981 29797.0004 -275.5190 -223.9473
ENERGY: 900000 1.1117 9.8955 3.4927 0.0000 -10693.7954 1365.6334 0.0000 0.0000 1776.0153 -7537.6468 301.9363 -9313.6621 -7499.6015 299.2939 -571.7651 -557.4903 30295.4622 -277.4869 -227.4853
ENERGY: 1200000 1.5124 6.7702 3.8353 0.0000 -10621.4212 1413.1849 0.0000 0.0000 1764.9294 -7431.1890 300.0516 -9196.1184 -7479.6540 300.6135 -318.5883 -263.6227 30913.9331 -299.9229 -246.1000
ENERGY: 1500000 2.2621 9.4850 2.8723 0.0000 -10754.6790 1479.0512 0.0000 0.0000 1743.2095 -7517.7989 296.3591 -9261.0084 -7491.1388 300.3671 20.3948 134.9406 30615.9250 -297.8504 -238.2530
TCL: Running FEP window  14: Lambda1 0.65   Lambda2 0.7000000000000001 [dLambda 0.050000000000000044]
TCL: Setting parameter firsttimestep to 0
TCL: Setting parameter alchLambda to 0.65
Info: NONBONDED TABLE R-SQUARED SPACING: 0.0625
Info: NONBONDED TABLE SIZE: 705 POINTS
TCL: Setting parameter alchLambda2 to 0.7000000000000001
Info: NONBONDED TABLE R-SQUARED SPACING: 0.0625
Info: NONBONDED TABLE SIZE: 705 POINTS
TCL: Running for 1500000 steps
ETITLE: TS BOND ANGLE DIHED IMPRP ELECT VDW BOUNDARY MISC KINETIC TOTAL TEMP POTENTIAL TOTALAVG TEMPAVG PRESSURE GPRESSURE VOLUME PRESSAVG GPRESSAVG
ENERGY: 0 2.2621 9.4850 2.8723 0.0000 -10755.4634 1479.0552 0.0000 0.0000 1742.3406 -7519.4482 296.2114 -9261.7888 -7519.4482 296.2114 57.8117 142.4370 30615.9250 57.8117 142.4370
ENERGY: 300000 2.7817 8.8750 2.8660 0.0000 -10605.0293 1372.8719 0.0000 0.0000 1754.4594 -7463.1752 298.2717 -9217.6346 -7510.4981 299.7900 -558.6169 -498.1863 30569.1875 -116.3874 -36.5247
ENERGY: 600000 2.1094 7.6741 3.0242 0.0000 -10609.4628 1389.1164 0.0000 0.0000 1701.1212 -7506.4175 289.2038 -9207.5387 -7479.9933 301.4703 -367.1009 -263.8790 30488.2505 -282.5771 -196.9660
ENERGY: 900000 1.5274 7.3029 2.8543 0.0000 -10661.7587 1375.9335 0.0000 0.0000 1789.9252 -7484.2153 304.3011 -9274.1405 -7483.5849 301.1554 -703.7532 -654.8202 30821.6134 -223.7322 -155.6428
ENERGY: 1200000 3.9391 7.3571 4.3228 0.0000 -10810.1899 1477.6149 0.0000 0.0000 1824.8150 -7492.1410 310.2327 -9316.9560 -7485.7819 301.7974 165.7177 165.5133 30529.4164 -179.2000 -127.8062
ENERGY: 1500000 1.5915 7.9153 3.1814 0.0000 -10811.8851 1433.4929 0.0000 0.0000 1747.7348 -7617.9692 297.1284 -9365.7040 -7496.7042 301.3435 -113.1958 -52.5785 29950.7622 -169.7600 -117.6575
TCL: Running FEP window  15: Lambda1 0.7000000000000001 Lambda2 0.7500000000000001 [dLambda 0.050000000000000044]
TCL: Setting parameter firsttimestep to 0
TCL: Setting parameter alchLambda to 0.7000000000000001
Info: NONBONDED TABLE R-SQUARED SPACING: 0.0625
Info: NONBONDED TABLE SIZE: 705 POINTS
TCL: Setting parameter alchLambda2 to 0.7500000000000001
Info: NONBONDED TABLE R-SQUARED SPACING: 0.0625
Info: NONBONDED TABLE SIZE: 705 POINTS
TCL: Running for 1500000 steps
ETITLE: TS BOND ANGLE DIHED IMPRP ELECT VDW BOUNDARY MISC KINETIC TOTAL TEMP POTENTIAL TOTALAVG TEMPAVG PRESSURE GPRESSURE VOLUME PRESSAVG GPRESSAVG
ENERGY: 0 1.5915 7.9153 3.1814 0.0000 -10811.9319 1433.0806 0.0000 0.0000 1746.8400 -7619.3231 296.9763 -9366.1631 -7619.3231 296.9763 -130.7715 -48.3064 29950.7622 -130.7715 -48.3064
ENERGY: 300000 1.3393 6.7534 2.7993 0.0000 -10809.6802 1459.7586 0.0000 0.0000 1837.3068 -7501.7229 312.3564 -9339.0296 -7555.8449 300.3826 176.7892 255.1552 30127.3115 53.2898 125.1609
ENERGY: 600000 2.1656 6.9747 2.9737 0.0000 -10765.1211 1448.7275 0.0000 0.0000 1748.0850 -7556.1947 297.1880 -9304.2796 -7519.7850 301.8086 -172.0409 -111.9775 30451.8050 61.7082 118.5234
ENERGY: 900000 2.3500 8.1389 3.4653 0.0000 -10616.5035 1382.9114 0.0000 0.0000 1759.7876 -7459.8503 299.1775 -9219.6379 -7525.3957 300.2344 -554.0882 -508.9871 30719.8300 -104.5917 -37.1741
ENERGY: 1200000 1.0810 8.4387 3.3520 0.0000 -10822.4894 1512.1256 0.0000 0.0000 1707.8271 -7589.6650 290.3438 -9297.4921 -7527.7556 299.3433 336.6914 405.2834 30299.0636 -58.1208 13.4893
ENERGY: 1500000 2.3243 11.1886 3.4272 0.0000 -10635.3132 1393.3225 0.0000 0.0000 1725.0482 -7500.0024 293.2715 -9225.0506 -7517.0161 299.5913 -435.0883 -390.1339 30735.3916 -82.7772 -13.1220
TCL: Running FEP window  16: Lambda1 0.7500000000000001 Lambda2 0.8000000000000002 [dLambda 0.050000000000000044]
TCL: Setting parameter firsttimestep to 0
TCL: Setting parameter alchLambda to 0.7500000000000001
Info: NONBONDED TABLE R-SQUARED SPACING: 0.0625
Info: NONBONDED TABLE SIZE: 705 POINTS
TCL: Setting parameter alchLambda2 to 0.8000000000000002
Info: NONBONDED TABLE R-SQUARED SPACING: 0.0625
Info: NONBONDED TABLE SIZE: 705 POINTS
TCL: Running for 1500000 steps
ETITLE: TS BOND ANGLE DIHED IMPRP ELECT VDW BOUNDARY MISC KINETIC TOTAL TEMP POTENTIAL TOTALAVG TEMPAVG PRESSURE GPRESSURE VOLUME PRESSAVG GPRESSAVG
ENERGY: 0 2.3243 11.1886 3.4272 0.0000 -10635.8670 1393.5437 0.0000 0.0000 1724.1716 -7501.2116 293.1225 -9225.3832 -7501.2116 293.1225 -463.3938 -380.3441 30735.3916 -463.3938 -380.3441
ENERGY: 300000 4.4047 5.7884 2.6271 0.0000 -10664.1608 1440.1690 0.0000 0.0000 1778.7165 -7432.4551 302.3956 -9211.1716 -7465.8362 302.8487 162.5548 215.3174 30434.9061 -289.2032 -221.7813
ENERGY: 600000 1.8068 6.4495 3.0654 0.0000 -10909.9565 1605.4706 0.0000 0.0000 1748.3029 -7544.8613 297.2250 -9293.1642 -7464.2886 302.2014 1482.2681 1591.1689 29574.6329 193.9694 256.1125
ENERGY: 900000 0.8424 8.8324 3.0510 0.0000 -10689.6438 1432.3530 0.0000 0.0000 1770.7163 -7473.8487 301.0355 -9244.5650 -7461.9900 302.4239 -141.0572 -79.1454 30629.8796 60.4772 118.8302
ENERGY: 1200000 0.8432 9.3068 4.5848 0.0000 -10729.3925 1488.7683 0.0000 0.0000 1821.1315 -7404.7579 309.6064 -9225.8894 -7459.3799 302.4480 340.1723 372.8593 30613.5709 -56.8530 3.0050
ENERGY: 1500000 3.0103 6.2884 2.8196 0.0000 -10600.3055 1426.4640 0.0000 0.0000 1785.3968 -7376.3264 303.5313 -9161.7232 -7456.9093 302.7731 97.1413 142.9592 30631.8976 -105.5419 -49.3013
TCL: Running FEP window  17: Lambda1 0.8000000000000002 Lambda2 0.8500000000000002 [dLambda 0.050000000000000044]
TCL: Setting parameter firsttimestep to 0
TCL: Setting parameter alchLambda to 0.8000000000000002
Info: NONBONDED TABLE R-SQUARED SPACING: 0.0625
Info: NONBONDED TABLE SIZE: 705 POINTS
TCL: Setting parameter alchLambda2 to 0.8500000000000002
Info: NONBONDED TABLE R-SQUARED SPACING: 0.0625
Info: NONBONDED TABLE SIZE: 705 POINTS
TCL: Running for 1500000 steps
ETITLE: TS BOND ANGLE DIHED IMPRP ELECT VDW BOUNDARY MISC KINETIC TOTAL TEMP POTENTIAL TOTALAVG TEMPAVG PRESSURE GPRESSURE VOLUME PRESSAVG GPRESSAVG
ENERGY: 0 3.0103 6.2884 2.8196 0.0000 -10601.2801 1426.3483 0.0000 0.0000 1784.5074 -7378.3060 303.3801 -9162.8135 -7378.3060 303.3801 73.4729 144.4728 30631.8976 73.4729 144.4728
ENERGY: 300000 1.2328 8.5056 3.2310 0.0000 -10632.1792 1435.6052 0.0000 0.0000 1793.5387 -7390.0659 304.9154 -9183.6046 -7448.3803 304.8023 422.9376 441.0513 30304.3052 79.6960 155.4428
ENERGY: 600000 3.9720 5.3419 3.3238 0.0000 -10782.0304 1490.1020 0.0000 0.0000 1771.0340 -7508.2567 301.0895 -9279.2906 -7444.7228 304.3757 415.2677 439.5976 30483.5327 -8.9340 57.5669
ENERGY: 900000 3.6126 5.1620 2.7275 0.0000 -10813.1361 1437.0921 0.0000 0.0000 1719.5489 -7644.9930 292.3366 -9364.5419 -7491.1316 301.4169 -499.4605 -463.5293 30684.0607 -191.4115 -128.9721
ENERGY: 1200000 1.5169 8.6697 3.6551 0.0000 -10624.1315 1422.2620 0.0000 0.0000 1731.3589 -7456.6689 294.3444 -9188.0277 -7491.9973 300.8262 -95.6487 -38.8405 30656.6295 -206.2914 -145.7136
ENERGY: 1500000 1.2471 9.2324 2.9501 0.0000 -10892.7648 1548.1299 0.0000 0.0000 1765.7200 -7565.4854 300.1860 -9331.2054 -7502.8216 300.6889 845.0492 893.4404 29654.2841 -163.5253 -101.0964
TCL: Running FEP window  18: Lambda1 0.8500000000000002 Lambda2 0.9000000000000002 [dLambda 0.050000000000000044]
TCL: Setting parameter firsttimestep to 0
TCL: Setting parameter alchLambda to 0.8500000000000002
Info: NONBONDED TABLE R-SQUARED SPACING: 0.0625
Info: NONBONDED TABLE SIZE: 705 POINTS
TCL: Setting parameter alchLambda2 to 0.9000000000000002
Info: NONBONDED TABLE R-SQUARED SPACING: 0.0625
Info: NONBONDED TABLE SIZE: 705 POINTS
TCL: Running for 1500000 steps
ETITLE: TS BOND ANGLE DIHED IMPRP ELECT VDW BOUNDARY MISC KINETIC TOTAL TEMP POTENTIAL TOTALAVG TEMPAVG PRESSURE GPRESSURE VOLUME PRESSAVG GPRESSAVG
ENERGY: 0 1.2471 9.2324 2.9501 0.0000 -10893.8094 1547.6610 0.0000 0.0000 1764.8476 -7567.8712 300.0377 -9332.7188 -7567.8712 300.0377 826.3396 894.2021 29654.2841 826.3396 894.2021
ENERGY: 300000 1.3042 8.0944 4.1940 0.0000 -10708.4397 1512.6627 0.0000 0.0000 1742.0719 -7440.1126 296.1657 -9182.1844 -7523.7624 299.1637 633.1520 711.9393 30507.9200 263.0208 327.3126
ENERGY: 600000 2.3136 6.8281 3.1964 0.0000 -10517.4663 1388.0839 0.0000 0.0000 1778.3989 -7338.6454 302.3416 -9117.0443 -7468.9072 302.6452 -163.4788 -90.7335 30745.0468 69.7440 147.3436
ENERGY: 900000 2.4019 8.3418 2.7802 0.0000 -10694.9483 1477.0571 0.0000 0.0000 1770.5633 -7433.8040 301.0095 -9204.3673 -7473.1999 301.9577 545.3400 560.6567 30646.8529 173.6733 236.5001
ENERGY: 1200000 2.4350 9.5135 3.0103 0.0000 -10619.5882 1367.5727 0.0000 0.0000 1804.2111 -7432.8455 306.7298 -9237.0566 -7468.8172 302.6818 -645.6723 -673.3033 31121.0888 90.3220 148.9259
ENERGY: 1500000 2.3312 6.1666 2.8070 0.0000 -10546.3565 1346.5274 0.0000 0.0000 1805.9827 -7382.5417 307.0310 -9188.5244 -7469.5360 302.8855 -577.0254 -523.9160 30487.3415 27.8024 86.5491
TCL: Running FEP window  19: Lambda1 0.9000000000000002 Lambda2 0.9500000000000003 [dLambda 0.050000000000000044]
TCL: Setting parameter firsttimestep to 0
TCL: Setting parameter alchLambda to 0.9000000000000002
Info: NONBONDED TABLE R-SQUARED SPACING: 0.0625
Info: NONBONDED TABLE SIZE: 705 POINTS
TCL: Setting parameter alchLambda2 to 0.9500000000000003
Info: NONBONDED TABLE R-SQUARED SPACING: 0.0625
Info: NONBONDED TABLE SIZE: 705 POINTS
TCL: Running for 1500000 steps
ETITLE: TS BOND ANGLE DIHED IMPRP ELECT VDW BOUNDARY MISC KINETIC TOTAL TEMP POTENTIAL TOTALAVG TEMPAVG PRESSURE GPRESSURE VOLUME PRESSAVG GPRESSAVG
ENERGY: 0 2.3312 6.1666 2.8070 0.0000 -10547.4263 1346.5423 0.0000 0.0000 1805.0932 -7384.4860 306.8798 -9189.5792 -7384.4860 306.8798 -581.3305 -511.3066 30487.3415 -581.3305 -511.3066
ENERGY: 300000 1.7994 6.2232 3.9020 0.0000 -10605.8312 1362.2434 0.0000 0.0000 1764.9486 -7466.7145 300.0549 -9231.6631 -7439.6067 301.0743 -663.6477 -550.5482 30556.9865 60.6255 134.5852
ENERGY: 600000 4.1443 5.0455 2.9322 0.0000 -10579.8512 1375.5676 0.0000 0.0000 1761.7703 -7430.3913 299.5146 -9192.1616 -7447.2337 302.1272 -383.2432 -283.8929 30533.7869 -63.9093 14.3404
ENERGY: 900000 1.2289 7.1113 2.8698 0.0000 -10749.3267 1478.9005 0.0000 0.0000 1740.1010 -7519.1151 295.8306 -9259.2161 -7468.4241 302.0414 74.9644 204.6725 30528.1835 -79.1025 -5.4973
ENERGY: 1200000 1.4124 8.5344 3.2847 0.0000 -10788.9816 1461.5069 0.0000 0.0000 1782.5986 -7531.6445 303.0555 -9314.2431 -7475.1624 301.9820 456.3410 509.7378 29859.1857 6.0551 70.1755
ENERGY: 1500000 2.1860 7.9783 3.1726 0.0000 -10625.1762 1396.8685 0.0000 0.0000 1792.8184 -7422.1525 304.7930 -9214.9709 -7479.8025 301.8099 14.5366 69.4180 30238.8447 -6.8492 58.4841
TCL: Running FEP window  20: Lambda1 0.9500000000000003 Lambda2 1.0    [dLambda 0.04999999999999971]
TCL: Setting parameter firsttimestep to 0
TCL: Setting parameter alchLambda to 0.9500000000000003
Info: NONBONDED TABLE R-SQUARED SPACING: 0.0625
Info: NONBONDED TABLE SIZE: 705 POINTS
TCL: Setting parameter alchLambda2 to 1.0
Info: NONBONDED TABLE R-SQUARED SPACING: 0.0625
Info: NONBONDED TABLE SIZE: 705 POINTS
TCL: Running for 1500000 steps
ETITLE: TS BOND ANGLE DIHED IMPRP ELECT VDW BOUNDARY MISC KINETIC TOTAL TEMP POTENTIAL TOTALAVG TEMPAVG PRESSURE GPRESSURE VOLUME PRESSAVG GPRESSAVG
ENERGY: 0 2.1860 7.9783 3.1726 0.0000 -10626.4924 1397.4384 0.0000 0.0000 1791.9558 -7423.7614 304.6463 -9215.7172 -7423.7614 304.6463 7.6111 81.7804 30238.8447 7.6111 81.7804
ENERGY: 300000 2.6863 13.1686 3.3505 0.0000 -10766.3171 1432.3213 0.0000 0.0000 1747.3531 -7567.4374 297.0635 -9314.7905 -7482.1170 302.9594 -238.0191 -115.1382 30269.9773 43.3123 136.8172
ENERGY: 600000 5.6857 9.3569 3.1828 0.0000 -10605.1281 1363.7735 0.0000 0.0000 1767.2047 -7455.9245 300.4385 -9223.1292 -7450.0406 303.4241 -648.5139 -552.0312 30602.4115 -115.7993 -33.0907
ENERGY: 900000 2.0068 6.1582 3.0631 0.0000 -10681.3635 1452.0747 0.0000 0.0000 1745.7435 -7472.3171 296.7899 -9218.0607 -7477.5887 300.6087 -154.8631 -68.5079 30951.6846 -203.0474 -113.0880
ENERGY: 1200000 0.9567 8.7817 3.8170 0.0000 -10777.2195 1464.5334 0.0000 0.0000 1737.0876 -7562.0431 295.3183 -9299.1307 -7487.0032 299.7765 -28.1693 31.4041 30788.5697 -175.5381 -94.6527
ENERGY: 1500000 2.3647 7.2615 2.7842 0.0000 -10608.3216 1380.2581 0.0000 0.0000 1811.0934 -7404.5597 307.8999 -9215.6531 -7488.5554 300.7432 -415.8799 -392.3178 30934.0030 -160.7400 -84.6015
TCL: Exiting due to exit command.
