Info: SIMULATION PARAMETERS:
Info: TIMESTEP               2
Info: NUMBER OF STEPS        0
Info: STEPS PER CYCLE        10
Info: PERIODIC CELL BASIS 1  31.5703 0 0
Info: PERIODIC CELL BASIS 2  0 30.0402 0
Info: PERIODIC CELL BASIS 3  0 0 31.7404
Info: PERIODIC CELL CENTER   0 0 0
Info: WRAPPING WATERS AROUND PERIODIC BOUNDARIES ON OUTPUT.
Info: WRAPPING ALL CLUSTERS AROUND PERIODIC BOUNDARIES ON OUTPUT.
Info: FIRST LDB TIMESTEP     50
Info: LAST LDB TIMESTEP     -1
Info: HOM BACKGROUND SCALING 1
Info: PME BACKGROUND SCALING 1
Info: MIN ATOMS PER PATCH    40
Info: EMPTY PATCH LOAD       40 ATOMS
Info: VELOCITY FILE          mobley_296847_equil.vel
Info: CENTER OF MASS MOVING INITIALLY? NO
Info: DIELECTRIC             1
Info: EXCLUDE                SCALED ONE-FOUR
Info: 1-4 ELECTROSTATICS SCALED BY 0.833333
Info: MODIFIED 1-4 VDW PARAMETERS WILL BE USED
Info: DCD FILENAME           mobley_296847_prod.dcd
Info: DCD FREQUENCY          100000
Info: DCD FIRST STEP         100000
Info: DCD FILE WILL CONTAIN UNIT CELL DATA
Info: XST FILENAME           mobley_296847_prod.xst
Info: XST FREQUENCY          100000
Info: NO VELOCITY DCD OUTPUT
Info: NO FORCE DCD OUTPUT
Info: OUTPUT FILENAME        mobley_296847_prod
Info: BINARY OUTPUT FILES WILL BE USED
Info: RESTART FILENAME       mobley_296847_prod.restart
Info: RESTART FREQUENCY      100000
Info: BINARY RESTART FILES WILL BE USED
Info: CUTOFF                 9
Info: PAIRLIST DISTANCE      11
Info: PAIRLIST SHRINK RATE   0.01
Info: PAIRLIST GROW RATE     0.01
Info: PAIRLIST TRIGGER       0.3
Info: PAIRLISTS PER CYCLE    2
Info: PAIRLISTS ENABLED
Info: MARGIN                 2
Info: HYDROGEN GROUP CUTOFF  2.5
Info: PATCH DIMENSION        15.5
Info: ENERGY OUTPUT STEPS    100000
Info: ENERGY EVALUATION STEPS    100000
Info: OUTPUT ENERGY PRECISION 4
Info: CROSSTERM ENERGY INCLUDED IN DIHEDRAL
Info: TIMING OUTPUT STEPS    1000000
Info: PRESSURE OUTPUT STEPS  100000
Info: ALCHEMICAL FEP ON
Info: FEP CURRENT LAMBDA VALUE     1
Info: FEP COMPARISON LAMBDA VALUE  0.95
Info: FEP INTRA-ALCHEMICAL NON-BONDED INTERACTIONS WILL BE RETAINED
Info: FEP INTRA-ALCHEMICAL BONDED INTERACTIONS WILL BE RETAINED
Info: FEP VDW SHIFTING COEFFICIENT 5
Info: FEP ELEC. ACTIVE FOR ANNIHILATED PARTICLES BETWEEN LAMBDA = 0 AND LAMBDA = 0.5
Info: FEP ELEC. ACTIVE FOR EXNIHILATED PARTICLES BETWEEN LAMBDA = 0.5 AND LAMBDA = 1
Info: FEP VDW ACTIVE FOR ANNIHILATED PARTICLES BETWEEN LAMBDA = 0 AND LAMBDA = 1
Info: FEP VDW ACTIVE FOR EXNIHILATED PARTICLES BETWEEN LAMBDA = 0 AND LAMBDA = 1
Info: FEP BOND ACTIVE FOR ANNIHILATED PARTICLES BETWEEN LAMBDA = 1 AND LAMBDA = 1
Info: FEP BOND ACTIVE FOR EXNIHILATED PARTICLES BETWEEN LAMBDA = 0 AND LAMBDA = 0
Info: LANGEVIN DYNAMICS ACTIVE
Info: LANGEVIN TEMPERATURE   300
Info: LANGEVIN USING BBK INTEGRATOR
Info: LANGEVIN DAMPING COEFFICIENT IS 1 INVERSE PS
Info: LANGEVIN DYNAMICS APPLIED TO HYDROGENS
Info: LANGEVIN PISTON PRESSURE CONTROL ACTIVE
Info:        TARGET PRESSURE IS 1.01325 BAR
Info:     OSCILLATION PERIOD IS 50 FS
Info:             DECAY TIME IS 25 FS
Info:     PISTON TEMPERATURE IS 300 K
Info:       PRESSURE CONTROL IS GROUP-BASED
Info:    INITIAL STRAIN RATE IS -5.97543e-06 -5.97543e-06 -5.97543e-06
Info:       CELL FLUCTUATION IS ISOTROPIC
Info: PARTICLE MESH EWALD (PME) ACTIVE
Info: PME TOLERANCE               1e-06
Info: PME EWALD COEFFICIENT       0.348832
Info: PME INTERPOLATION ORDER     4
Info: PME GRID DIMENSIONS         32 32 32
Info: PME MAXIMUM GRID SPACING    1
Info: PME CALCULATION WILL BE PERFORMED ON GPU
Info: FULL ELECTROSTATIC EVALUATION FREQUENCY      2
Info: USING VERLET I (r-RESPA) MTS SCHEME.
Info: C1 SPLITTING OF LONG RANGE ELECTROSTATICS
Info: PLACING ATOMS IN PATCHES BY HYDROGEN GROUPS
Info: RIGID BONDS TO HYDROGEN : ALL
Info:         ERROR TOLERANCE : 1e-08
Info:          MAX ITERATIONS : 100
Info: RIGID WATER USING SETTLE ALGORITHM
Info: RANDOM NUMBER SEED     1743528225
Info: USE HYDROGEN BONDS?    NO
Info: Using AMBER format force field!
Info: AMBER PARM FILE        mobley_296847.prmtop
Info: COORDINATE PDB         mobley_296847.pdb
Info: Exclusions will be read from PARM file!
Info: SCNB (VDW SCALING)     2
Info: USING ARITHMETIC MEAN TO COMBINE L-J SIGMA PARAMETERS
Info: BINARY COORDINATES     mobley_296847_equil.coor
Info: SUMMARY OF PARAMETERS:
Info: 6 BONDS
Info: 6 ANGLES
Info:   6 HARMONIC
Info:   0 COSINE-BASED
Info: 3 DIHEDRAL
Info: 0 IMPROPER
Info: 0 CROSSTERM
Info: 0 VDW
Info: 21 VDW_PAIRS
Info: 0 NBTHOLE_PAIRS
Info: To read alchdata from file: mobley_296847.pdb
Info: To read alchflag data from column: 5
Info: STRUCTURE SUMMARY:
Info: 2969 ATOMS
Info: 2969 BONDS
Info: 16 ANGLES
Info: 25 DIHEDRALS
Info: 0 IMPROPERS
Info: 0 CROSSTERMS
Info: 3002 EXCLUSIONS
Info: 2963 RIGID BONDS
Info: ALCH: 0 ATOMS TO DISAPPEAR IN FINAL STATE
Info: ALCH: 11 ATOMS TO APPEAR IN FINAL STATE
Info: 5944 DEGREES OF FREEDOM
Info: 992 HYDROGEN GROUPS
Info: 3 ATOMS IN LARGEST HYDROGEN GROUP
Info: 992 MIGRATION GROUPS
Info: 3 ATOMS IN LARGEST MIGRATION GROUP
Info: TOTAL MASS = 17842.9 amu
Info: TOTAL CHARGE = -0.000199944 e
Info: MASS DENSITY = 0.984309 g/cm^3
Info: ATOM DENSITY = 0.0986319 atoms/A^3
Info: ADDED 0 IMPLICIT EXCLUSIONS
Info: NONBONDED TABLE R-SQUARED SPACING: 0.0625
Info: NONBONDED TABLE SIZE: 705 POINTS
Info: REMOVING COM VELOCITY -0.259722 0.240141 -0.125585
Info: Use 3D box decompostion in PME FFT.
Info: Updated CUDA force table with 4096 elements.
Info: Updated CUDA LJ table with 6 x 6 elements.
Info: Found 12 unique exclusion lists needing 20 bytes
TCL: Running for 1500000 steps
ETITLE: TS BOND ANGLE DIHED IMPRP ELECT VDW BOUNDARY MISC KINETIC TOTAL TEMP POTENTIAL TOTALAVG TEMPAVG PRESSURE GPRESSURE VOLUME PRESSAVG GPRESSAVG
ENERGY: 0 1.8030 2.6550 0.9269 0.0000 -10841.4622 1479.0776 0.0000 0.0000 1789.3737 -7567.6261 302.9791 -9356.9997 -7567.6261 302.9791 490.8971 576.3113 30101.8097 490.8971 576.3113
ENERGY: 300000 2.9816 2.4243 1.5370 0.0000 -10903.1982 1540.0110 0.0000 0.0000 1791.1926 -7565.0517 303.2870 -9356.2443 -7584.3917 299.7986 494.9289 606.4489 30483.7079 61.6989 155.2193
ENERGY: 600000 3.9893 0.9498 3.7544 0.0000 -10831.4436 1502.8229 0.0000 0.0000 1737.3991 -7582.5280 294.1787 -9319.9271 -7574.2873 299.6380 313.5077 328.4132 30564.1258 126.7945 190.6364
ENERGY: 900000 3.3032 1.6475 4.2389 0.0000 -10797.3028 1455.5977 0.0000 0.0000 1731.4891 -7601.0264 293.1780 -9332.5156 -7580.9114 299.8203 186.8024 218.8908 30121.2384 108.8880 171.6893
ENERGY: 1200000 1.7078 2.7176 2.4387 0.0000 -10758.8254 1448.0712 0.0000 0.0000 1764.0330 -7539.8572 298.6884 -9303.8902 -7571.5988 300.0882 89.5505 169.0023 30443.7366 11.2131 79.2246
ENERGY: 1500000 2.2586 1.6666 2.2524 0.0000 -10719.9464 1404.1934 0.0000 0.0000 1819.0436 -7490.5318 308.0028 -9309.5753 -7568.7840 300.4056 -82.0248 -82.6637 30457.8596 -76.8086 -14.6077
TCL: Running FEP window   2: Lambda1 0.95   Lambda2 0.8999999999999999 [dLambda -0.050000000000000044]
TCL: Setting parameter firsttimestep to 0
TCL: Setting parameter alchLambda to 0.95
Info: NONBONDED TABLE R-SQUARED SPACING: 0.0625
Info: NONBONDED TABLE SIZE: 705 POINTS
TCL: Setting parameter alchLambda2 to 0.8999999999999999
Info: NONBONDED TABLE R-SQUARED SPACING: 0.0625
Info: NONBONDED TABLE SIZE: 705 POINTS
TCL: Running for 1500000 steps
ETITLE: TS BOND ANGLE DIHED IMPRP ELECT VDW BOUNDARY MISC KINETIC TOTAL TEMP POTENTIAL TOTALAVG TEMPAVG PRESSURE GPRESSURE VOLUME PRESSAVG GPRESSAVG
ENERGY: 0 2.2586 1.6666 2.2524 0.0000 -10719.1882 1404.0293 0.0000 0.0000 1818.1617 -7490.8196 307.8535 -9308.9813 -7490.8196 307.8535 -166.6663 -94.4546 30457.8596 -166.6663 -94.4546
ENERGY: 300000 1.7434 4.0178 0.8614 0.0000 -10823.2945 1442.1642 0.0000 0.0000 1826.9552 -7547.5524 309.3424 -9374.5076 -7540.2009 304.5509 -39.6197 17.5348 30321.3527 -33.8210 41.5410
ENERGY: 600000 1.6088 2.3036 2.8228 0.0000 -10742.9260 1431.2038 0.0000 0.0000 1798.3181 -7506.6688 304.4935 -9304.9869 -7536.5545 304.5727 -308.7604 -231.5577 30919.3168 1.5297 77.3235
ENERGY: 900000 2.7324 1.7842 3.1936 0.0000 -10848.3646 1432.0347 0.0000 0.0000 1803.0309 -7605.5888 305.2915 -9408.6197 -7551.6563 302.4352 -320.9706 -250.9604 30609.4956 -52.0512 16.5173
ENERGY: 1200000 4.3753 1.7240 1.2338 0.0000 -10822.8871 1490.1733 0.0000 0.0000 1846.2562 -7479.1246 312.6105 -9325.3808 -7537.5450 303.9901 351.8586 461.9005 30528.7146 -75.1488 -6.0237
ENERGY: 1500000 1.0262 2.6217 0.7828 0.0000 -10757.4868 1407.4223 0.0000 0.0000 1745.1316 -7600.5024 295.4879 -9345.6339 -7548.6012 301.6946 -291.0531 -253.2664 30694.4957 -105.7889 -36.9301
TCL: Running FEP window   3: Lambda1 0.8999999999999999 Lambda2 0.8499999999999999 [dLambda -0.050000000000000044]
TCL: Setting parameter firsttimestep to 0
TCL: Setting parameter alchLambda to 0.8999999999999999
Info: NONBONDED TABLE R-SQUARED SPACING: 0.0625
Info: NONBONDED TABLE SIZE: 705 POINTS
TCL: Setting parameter alchLambda2 to 0.8499999999999999
Info: NONBONDED TABLE R-SQUARED SPACING: 0.0625
Info: NONBONDED TABLE SIZE: 705 POINTS
TCL: Running for 1500000 steps
ETITLE: TS BOND ANGLE DIHED IMPRP ELECT VDW BOUNDARY MISC KINETIC TOTAL TEMP POTENTIAL TOTALAVG TEMPAVG PRESSURE GPRESSURE VOLUME PRESSAVG GPRESSAVG
ENERGY: 0 1.0262 2.6217 0.7828 0.0000 -10756.6281 1406.4776 0.0000 0.0000 1744.2297 -7601.4902 295.3352 -9345.7199 -7601.4902 295.3352 -358.5990 -273.5191 30694.4957 -358.5990 -273.5191
ENERGY: 300000 3.5998 3.0045 3.2824 0.0000 -10640.6287 1383.4330 0.0000 0.0000 1759.9031 -7487.4059 297.9891 -9247.3091 -7540.4200 301.3615 -307.2406 -172.2451 30607.6282 -328.6557 -253.0035
ENERGY: 600000 3.1749 2.8661 2.6774 0.0000 -10783.9187 1453.7979 0.0000 0.0000 1775.1242 -7546.2783 300.5663 -9321.4025 -7543.1917 301.2767 -7.6399 64.4419 30652.0373 -344.0279 -257.1088
ENERGY: 900000 1.3122 1.5668 2.7448 0.0000 -10661.7929 1387.8919 0.0000 0.0000 1802.7801 -7465.4972 305.2491 -9268.2773 -7540.4942 302.2491 -375.5477 -234.2623 30714.2037 -256.4167 -168.1438
ENERGY: 1200000 2.6951 1.4774 2.5605 0.0000 -10783.1084 1436.3613 0.0000 0.0000 1715.7406 -7624.2736 290.5114 -9340.0142 -7549.4181 301.2465 -77.0249 4.7517 30207.6521 -257.6832 -177.2180
ENERGY: 1500000 2.8233 1.1611 2.2456 0.0000 -10673.3737 1381.8949 0.0000 0.0000 1770.6607 -7514.5881 299.8106 -9285.2488 -7550.8923 300.2238 -267.2497 -224.3888 30270.1208 -212.8196 -139.7176
TCL: Running FEP window   4: Lambda1 0.8499999999999999 Lambda2 0.7999999999999998 [dLambda -0.050000000000000044]
TCL: Setting parameter firsttimestep to 0
TCL: Setting parameter alchLambda to 0.8499999999999999
Info: NONBONDED TABLE R-SQUARED SPACING: 0.0625
Info: NONBONDED TABLE SIZE: 705 POINTS
TCL: Setting parameter alchLambda2 to 0.7999999999999998
Info: NONBONDED TABLE R-SQUARED SPACING: 0.0625
Info: NONBONDED TABLE SIZE: 705 POINTS
TCL: Running for 1500000 steps
ETITLE: TS BOND ANGLE DIHED IMPRP ELECT VDW BOUNDARY MISC KINETIC TOTAL TEMP POTENTIAL TOTALAVG TEMPAVG PRESSURE GPRESSURE VOLUME PRESSAVG GPRESSAVG
ENERGY: 0 2.8233 1.1611 2.2456 0.0000 -10671.9695 1382.0609 0.0000 0.0000 1769.8003 -7513.8783 299.6649 -9283.6786 -7513.8783 299.6649 -306.2521 -227.5959 30270.1208 -306.2521 -227.5959
ENERGY: 300000 2.9820 3.9603 2.1650 0.0000 -10678.3437 1421.4831 0.0000 0.0000 1741.9153 -7505.8381 294.9434 -9247.7534 -7526.6257 296.5334 -338.5168 -268.7319 30839.7295 -569.8355 -499.6429
ENERGY: 600000 2.8423 1.3317 4.6387 0.0000 -10936.5084 1523.0956 0.0000 0.0000 1724.5848 -7680.0153 292.0089 -9404.6001 -7564.5507 297.0252 184.7069 204.2720 30894.0449 -332.5946 -274.7623
ENERGY: 900000 1.4087 3.0659 1.6635 0.0000 -10758.4205 1403.6813 0.0000 0.0000 1770.1448 -7578.4562 299.7232 -9348.6011 -7555.6514 299.0959 -394.6206 -330.5735 30305.5175 -275.1409 -216.1670
ENERGY: 1200000 2.4931 2.9406 3.2653 0.0000 -10903.8650 1509.9749 0.0000 0.0000 1769.8997 -7615.2914 299.6817 -9385.1912 -7568.3113 299.1084 328.7454 429.4070 30221.3962 -211.3296 -150.2748
ENERGY: 1500000 1.0279 2.8456 1.4333 0.0000 -10824.4555 1463.7843 0.0000 0.0000 1852.5182 -7502.8462 313.6708 -9355.3644 -7574.8613 299.9343 43.1218 66.3162 30649.3991 -211.0681 -155.4124
TCL: Running FEP window   5: Lambda1 0.7999999999999998 Lambda2 0.7499999999999998 [dLambda -0.050000000000000044]
TCL: Setting parameter firsttimestep to 0
TCL: Setting parameter alchLambda to 0.7999999999999998
Info: NONBONDED TABLE R-SQUARED SPACING: 0.0625
Info: NONBONDED TABLE SIZE: 705 POINTS
TCL: Setting parameter alchLambda2 to 0.7499999999999998
Info: NONBONDED TABLE R-SQUARED SPACING: 0.0625
Info: NONBONDED TABLE SIZE: 705 POINTS
TCL: Running for 1500000 steps
ETITLE: TS BOND ANGLE DIHED IMPRP ELECT VDW BOUNDARY MISC KINETIC TOTAL TEMP POTENTIAL TOTALAVG TEMPAVG PRESSURE GPRESSURE VOLUME PRESSAVG GPRESSAVG
ENERGY: 0 1.0279 2.8456 1.4333 0.0000 -10822.8468 1463.9120 0.0000 0.0000 1851.6646 -7501.9634 313.5263 -9353.6280 -7501.9634 313.5263 -29.7404 63.6034 30649.3991 -29.7404 63.6034
ENERGY: 300000 2.1176 1.6787 2.3170 0.0000 -10640.0338 1397.7129 0.0000 0.0000 1745.9157 -7490.2919 295.6207 -9236.2076 -7516.8853 305.1578 -612.6353 -500.7709 31255.1875 -292.3118 -200.9116
ENERGY: 600000 0.4995 1.8813 5.5884 0.0000 -10878.9897 1502.1592 0.0000 0.0000 1786.0518 -7582.8095 302.4166 -9368.8613 -7548.9723 304.1822 324.6046 408.0915 30527.4790 -28.9978 62.9303
ENERGY: 900000 2.6694 1.9018 1.6848 0.0000 -10814.0409 1454.5844 0.0000 0.0000 1795.5484 -7557.6521 304.0246 -9353.2005 -7543.0415 304.7871 49.5585 155.7106 30255.1409 25.6174 120.2684
ENERGY: 1200000 2.1521 3.2001 2.4309 0.0000 -10759.8090 1477.9132 0.0000 0.0000 1808.1202 -7465.9925 306.1533 -9274.1127 -7533.8546 304.7750 406.5812 512.5036 30493.8463 100.0125 176.1923
ENERGY: 1500000 2.0188 1.8364 2.4848 0.0000 -10730.4284 1441.5894 0.0000 0.0000 1744.5093 -7537.9897 295.3826 -9282.4990 -7541.9235 303.8449 -226.8703 -205.2921 31001.1572 126.4382 198.1485
TCL: Running FEP window   6: Lambda1 0.7499999999999998 Lambda2 0.6999999999999997 [dLambda -0.050000000000000044]
TCL: Setting parameter firsttimestep to 0
TCL: Setting parameter alchLambda to 0.7499999999999998
Info: NONBONDED TABLE R-SQUARED SPACING: 0.0625
Info: NONBONDED TABLE SIZE: 705 POINTS
TCL: Setting parameter alchLambda2 to 0.6999999999999997
Info: NONBONDED TABLE R-SQUARED SPACING: 0.0625
Info: NONBONDED TABLE SIZE: 705 POINTS
TCL: Running for 1500000 steps
ETITLE: TS BOND ANGLE DIHED IMPRP ELECT VDW BOUNDARY MISC KINETIC TOTAL TEMP POTENTIAL TOTALAVG TEMPAVG PRESSURE GPRESSURE VOLUME PRESSAVG GPRESSAVG
ENERGY: 0 2.0188 1.8364 2.4848 0.0000 -10729.9901 1441.8895 0.0000 0.0000 1743.5981 -7538.1624 295.2283 -9281.7605 -7538.1624 295.2283 -295.3776 -210.6783 31001.1572 -295.3776 -210.6783
ENERGY: 300000 2.3250 2.2312 2.3575 0.0000 -10737.5278 1449.4763 0.0000 0.0000 1783.6825 -7497.4552 302.0154 -9281.1377 -7530.9138 298.1815 52.1152 104.8252 30813.3280 -16.3582 39.6237
ENERGY: 600000 1.7688 1.3342 5.0906 0.0000 -10685.2286 1435.2491 0.0000 0.0000 1740.5341 -7501.2519 294.7095 -9241.7860 -7534.0214 298.6117 62.2198 108.5124 30518.2941 -87.7091 -33.3008
ENERGY: 900000 3.8106 2.9293 7.2821 0.0000 -10786.1845 1439.3556 0.0000 0.0000 1757.1359 -7575.6710 297.5205 -9332.8069 -7541.9100 299.1301 -56.8925 -80.5216 30613.7611 69.4426 111.4073
ENERGY: 1200000 2.9445 2.3988 2.5199 0.0000 -10516.7386 1302.1605 0.0000 0.0000 1780.6950 -7426.0199 301.5096 -9206.7149 -7535.5248 299.5914 -890.2877 -885.4109 30871.5061 -39.3710 2.8301
ENERGY: 1500000 1.8076 4.4969 2.8924 0.0000 -10831.0217 1481.1261 0.0000 0.0000 1779.1729 -7561.5258 301.2519 -9340.6988 -7544.8228 299.7232 289.9239 370.4169 30340.4527 -77.3877 -28.0943
TCL: Running FEP window   7: Lambda1 0.6999999999999997 Lambda2 0.6499999999999997 [dLambda -0.050000000000000044]
TCL: Setting parameter firsttimestep to 0
TCL: Setting parameter alchLambda to 0.6999999999999997
Info: NONBONDED TABLE R-SQUARED SPACING: 0.0625
Info: NONBONDED TABLE SIZE: 705 POINTS
TCL: Setting parameter alchLambda2 to 0.6499999999999997
Info: NONBONDED TABLE R-SQUARED SPACING: 0.0625
Info: NONBONDED TABLE SIZE: 705 POINTS
TCL: Running for 1500000 steps
ETITLE: TS BOND ANGLE DIHED IMPRP ELECT VDW BOUNDARY MISC KINETIC TOTAL TEMP POTENTIAL TOTALAVG TEMPAVG PRESSURE GPRESSURE VOLUME PRESSAVG GPRESSAVG
ENERGY: 0 1.8076 4.4969 2.8924 0.0000 -10830.8335 1481.5393 0.0000 0.0000 1778.2719 -7561.8255 301.0993 -9340.0974 -7561.8255 301.0993 279.6756 370.3241 30340.4527 279.6756 370.3241
ENERGY: 300000 1.1150 3.7159 4.5852 0.0000 -10681.2435 1370.6745 0.0000 0.0000 1776.0243 -7525.1285 300.7187 -9301.1529 -7563.8660 299.9549 -591.5750 -510.3154 30572.4451 -173.3064 -77.7475
ENERGY: 600000 1.4828 5.4592 3.2833 0.0000 -10747.4578 1386.2476 0.0000 0.0000 1740.6903 -7610.2947 294.7359 -9350.9849 -7566.8002 300.1798 -773.1866 -683.9092 30772.2098 -227.5372 -140.7582
ENERGY: 900000 2.3143 2.8031 1.9339 0.0000 -10785.4829 1428.4489 0.0000 0.0000 1810.9814 -7539.0012 306.6377 -9349.9827 -7561.6713 300.2398 -212.4896 -161.3333 30559.6924 -209.5320 -126.2963
ENERGY: 1200000 0.6359 1.4688 2.5783 0.0000 -10793.4300 1537.7551 0.0000 0.0000 1856.3635 -7394.6283 314.3219 -9250.9918 -7551.6466 301.2410 1020.4941 1064.7371 30627.3872 -50.1955 24.2791
ENERGY: 1500000 0.4737 1.7989 1.5468 0.0000 -10781.9962 1475.3553 0.0000 0.0000 1775.7099 -7527.1117 300.6655 -9302.8215 -7546.0029 301.0339 4.3183 4.8795 31126.2089 -38.5044 27.3988
TCL: Running FEP window   8: Lambda1 0.6499999999999997 Lambda2 0.5999999999999996 [dLambda -0.050000000000000044]
TCL: Setting parameter firsttimestep to 0
TCL: Setting parameter alchLambda to 0.6499999999999997
Info: NONBONDED TABLE R-SQUARED SPACING: 0.0625
Info: NONBONDED TABLE SIZE: 705 POINTS
TCL: Setting parameter alchLambda2 to 0.5999999999999996
Info: NONBONDED TABLE R-SQUARED SPACING: 0.0625
Info: NONBONDED TABLE SIZE: 705 POINTS
TCL: Running for 1500000 steps
ETITLE: TS BOND ANGLE DIHED IMPRP ELECT VDW BOUNDARY MISC KINETIC TOTAL TEMP POTENTIAL TOTALAVG TEMPAVG PRESSURE GPRESSURE VOLUME PRESSAVG GPRESSAVG
ENERGY: 0 0.4737 1.7989 1.5468 0.0000 -10781.0147 1474.7577 0.0000 0.0000 1774.8322 -7527.6055 300.5169 -9302.4376 -7527.6055 300.5169 -74.3308 -1.8906 31126.2089 -74.3308 -1.8906
ENERGY: 300000 2.0521 5.3603 2.2045 0.0000 -10735.1548 1415.1998 0.0000 0.0000 1763.8533 -7546.4848 298.6579 -9310.3381 -7548.4636 302.2330 -308.8436 -221.6579 30642.2871 220.0461 269.1888
ENERGY: 600000 0.9500 3.0391 2.6135 0.0000 -10744.2815 1394.9461 0.0000 0.0000 1771.5862 -7571.1465 299.9673 -9342.7327 -7558.7816 301.5195 -677.5789 -592.1574 30913.7135 -158.2111 -100.0716
ENERGY: 900000 1.5957 2.4198 3.7054 0.0000 -10748.0201 1434.8524 0.0000 0.0000 1743.0499 -7562.3969 295.1355 -9305.4467 -7557.6482 300.3518 -74.4196 50.6930 30645.7914 -164.9760 -96.7037
ENERGY: 1200000 1.3414 2.8870 2.0015 0.0000 -10733.2302 1390.0871 0.0000 0.0000 1765.8121 -7571.1011 298.9896 -9336.9132 -7562.7705 300.2789 -587.6892 -491.9833 30600.7905 -145.7858 -73.0324
ENERGY: 1500000 0.8837 1.8881 4.5703 0.0000 -10816.2967 1466.9571 0.0000 0.0000 1783.8900 -7558.1075 302.0506 -9341.9975 -7564.2284 300.1733 380.1269 471.7295 30036.9729 -3.7669 72.0275
TCL: Running FEP window   9: Lambda1 0.5999999999999996 Lambda2 0.5499999999999996 [dLambda -0.050000000000000044]
TCL: Setting parameter firsttimestep to 0
TCL: Setting parameter alchLambda to 0.5999999999999996
Info: NONBONDED TABLE R-SQUARED SPACING: 0.0625
Info: NONBONDED TABLE SIZE: 705 POINTS
TCL: Setting parameter alchLambda2 to 0.5499999999999996
Info: NONBONDED TABLE R-SQUARED SPACING: 0.0625
Info: NONBONDED TABLE SIZE: 705 POINTS
TCL: Running for 1500000 steps
ETITLE: TS BOND ANGLE DIHED IMPRP ELECT VDW BOUNDARY MISC KINETIC TOTAL TEMP POTENTIAL TOTALAVG TEMPAVG PRESSURE GPRESSURE VOLUME PRESSAVG GPRESSAVG
ENERGY: 0 0.8837 1.8881 4.5703 0.0000 -10815.3661 1466.8926 0.0000 0.0000 1783.0189 -7558.1125 301.9031 -9341.1314 -7558.1125 301.9031 381.6664 466.7464 30036.9729 381.6664 466.7464
ENERGY: 300000 2.0389 3.5730 4.1206 0.0000 -10757.2445 1443.2665 0.0000 0.0000 1812.2064 -7492.0390 306.8451 -9304.2455 -7527.5079 303.4173 -1.9131 -6.5803 30721.9288 270.6579 319.8489
ENERGY: 600000 1.1281 1.5704 1.7318 0.0000 -10771.1128 1486.3387 0.0000 0.0000 1780.9024 -7499.4415 301.5447 -9280.3438 -7529.7515 302.8425 208.1088 293.5814 30685.5316 311.8187 367.4341
ENERGY: 900000 1.9364 2.2777 1.4486 0.0000 -10570.1409 1258.2859 0.0000 0.0000 1811.7070 -7494.4853 306.7606 -9306.1923 -7532.5197 302.5524 -1384.6356 -1352.9267 30554.6006 140.8030 190.7890
ENERGY: 1200000 3.7100 3.8271 4.3120 0.0000 -10766.1965 1438.6163 0.0000 0.0000 1803.2282 -7512.5029 305.3249 -9315.7311 -7536.8964 302.1823 -238.9239 -241.4675 30766.3553 130.0771 176.3631
ENERGY: 1500000 1.9193 3.5542 1.5163 0.0000 -10775.7238 1411.7804 0.0000 0.0000 1761.6951 -7595.2585 298.2925 -9356.9536 -7541.3718 301.4036 -651.1492 -549.9314 30751.5131 17.0369 73.5799
TCL: Running FEP window  10: Lambda1 0.5499999999999996 Lambda2 0.4999999999999996 [dLambda -0.04999999999999999]
TCL: Setting parameter firsttimestep to 0
TCL: Setting parameter alchLambda to 0.5499999999999996
Info: NONBONDED TABLE R-SQUARED SPACING: 0.0625
Info: NONBONDED TABLE SIZE: 705 POINTS
TCL: Setting parameter alchLambda2 to 0.4999999999999996
Info: NONBONDED TABLE R-SQUARED SPACING: 0.0625
Info: NONBONDED TABLE SIZE: 705 POINTS
TCL: Running for 1500000 steps
ETITLE: TS BOND ANGLE DIHED IMPRP ELECT VDW BOUNDARY MISC KINETIC TOTAL TEMP POTENTIAL TOTALAVG TEMPAVG PRESSURE GPRESSURE VOLUME PRESSAVG GPRESSAVG
ENERGY: 0 1.9193 3.5542 1.5163 0.0000 -10775.6140 1411.9622 0.0000 0.0000 1760.8051 -7595.8570 298.1418 -9356.6620 -7595.8570 298.1418 -636.9356 -553.4881 30751.5131 -636.9356 -553.4881
ENERGY: 300000 2.2055 1.8718 2.2447 0.0000 -10892.4605 1517.1143 0.0000 0.0000 1750.0810 -7618.9431 296.3260 -9369.0241 -7599.0547 298.0560 164.4484 195.3969 30967.0455 -248.2950 -177.8363
ENERGY: 600000 3.8413 2.7654 0.9049 0.0000 -10742.1675 1480.7407 0.0000 0.0000 1764.7002 -7489.2152 298.8013 -9253.9154 -7584.5102 297.2694 470.0634 496.2397 30179.9802 -140.0900 -74.8898
ENERGY: 900000 1.2045 0.9742 3.2344 0.0000 -10862.8789 1449.4877 0.0000 0.0000 1795.7413 -7612.2367 304.0572 -9407.9780 -7578.5190 299.8292 -85.1658 -91.4215 30507.8775 -55.4159 0.4773
ENERGY: 1200000 1.9756 5.6208 2.1071 0.0000 -10688.9466 1424.8956 0.0000 0.0000 1798.8235 -7455.5239 304.5791 -9254.3474 -7563.8229 300.6299 -53.2086 105.2278 30730.7667 -27.2965 35.4994
ENERGY: 1500000 3.2149 2.2628 3.1539 0.0000 -10695.5986 1389.2791 0.0000 0.0000 1739.9945 -7557.6934 294.6181 -9297.6879 -7561.9028 300.4011 -578.2118 -473.0841 30739.4333 -77.9701 -14.6533
TCL: Running FEP window  11: Lambda1 0.4999999999999996 Lambda2 0.4499999999999996 [dLambda -0.04999999999999999]
TCL: Setting parameter firsttimestep to 0
TCL: Setting parameter alchLambda to 0.4999999999999996
Info: NONBONDED TABLE R-SQUARED SPACING: 0.0625
Info: NONBONDED TABLE SIZE: 705 POINTS
TCL: Setting parameter alchLambda2 to 0.4499999999999996
Info: NONBONDED TABLE R-SQUARED SPACING: 0.0625
Info: NONBONDED TABLE SIZE: 705 POINTS
TCL: Running for 1500000 steps
ETITLE: TS BOND ANGLE DIHED IMPRP ELECT VDW BOUNDARY MISC KINETIC TOTAL TEMP POTENTIAL TOTALAVG TEMPAVG PRESSURE GPRESSURE VOLUME PRESSAVG GPRESSAVG
ENERGY: 0 3.2149 2.2628 3.1539 0.0000 -10694.4562 1388.9835 0.0000 0.0000 1739.1074 -7557.7337 294.4679 -9296.8411 -7557.7337 294.4679 -569.4827 -480.8634 30739.4333 -569.4827 -480.8634
ENERGY: 300000 2.2874 1.7663 1.6815 0.0000 -10816.1694 1482.3856 0.0000 0.0000 1761.2750 -7566.7735 298.2214 -9328.0486 -7571.8275 297.3120 683.1835 711.9185 29835.5302 52.5128 107.5389
ENERGY: 600000 2.1908 1.3624 3.3779 0.0000 -10798.8925 1503.3867 0.0000 0.0000 1812.7515 -7475.8232 306.9374 -9288.5747 -7538.5719 298.6896 573.6985 636.1302 30419.6036 146.3079 195.8284
ENERGY: 900000 1.8532 2.2120 4.6485 0.0000 -10901.9479 1517.5311 0.0000 0.0000 1737.7047 -7637.9984 294.2304 -9375.7032 -7559.4883 298.2772 278.5037 367.1242 30046.4390 130.0405 186.6427
ENERGY: 1200000 2.0647 1.7217 1.3030 0.0000 -10776.5739 1504.4339 0.0000 0.0000 1772.5264 -7494.5243 300.1265 -9267.0507 -7543.6612 299.5194 477.6213 528.5135 30815.0629 149.3915 205.7808
ENERGY: 1500000 1.1545 2.7176 1.6453 0.0000 -10778.4431 1476.8707 0.0000 0.0000 1744.4757 -7551.5793 295.3769 -9296.0550 -7559.1693 298.5663 45.6199 66.5362 30994.2053 146.1150 195.2415
TCL: Running FEP window  12: Lambda1 0.4499999999999996 Lambda2 0.39999999999999963 [dLambda -0.04999999999999999]
TCL: Setting parameter firsttimestep to 0
TCL: Setting parameter alchLambda to 0.4499999999999996
Info: NONBONDED TABLE R-SQUARED SPACING: 0.0625
Info: NONBONDED TABLE SIZE: 705 POINTS
TCL: Setting parameter alchLambda2 to 0.39999999999999963
Info: NONBONDED TABLE R-SQUARED SPACING: 0.0625
Info: NONBONDED TABLE SIZE: 705 POINTS
TCL: Running for 1500000 steps
ETITLE: TS BOND ANGLE DIHED IMPRP ELECT VDW BOUNDARY MISC KINETIC TOTAL TEMP POTENTIAL TOTALAVG TEMPAVG PRESSURE GPRESSURE VOLUME PRESSAVG GPRESSAVG
ENERGY: 0 1.1545 2.7176 1.6453 0.0000 -10778.4422 1476.8404 0.0000 0.0000 1743.6061 -7552.4783 295.2296 -9296.0844 -7552.4783 295.2296 -8.7768 65.9769 30994.2053 -8.7768 65.9769
ENERGY: 300000 0.7428 1.3060 2.4683 0.0000 -10791.3793 1443.4836 0.0000 0.0000 1780.5685 -7562.8101 301.4882 -9343.3786 -7543.4282 300.2224 -45.3395 -8.4554 30274.8116 -205.8391 -157.3398
ENERGY: 600000 4.9750 1.3564 2.1858 0.0000 -10852.3965 1509.9731 0.0000 0.0000 1822.3049 -7511.6013 308.5550 -9333.9062 -7543.1537 300.4602 236.2709 329.3130 30671.5933 62.2008 128.0680
ENERGY: 900000 2.6799 1.5206 2.7837 0.0000 -10775.1788 1457.3040 0.0000 0.0000 1802.7899 -7508.1008 305.2507 -9310.8907 -7549.8622 299.5500 118.6075 139.8669 30767.5732 52.5155 117.7617
ENERGY: 1200000 2.2036 3.6304 2.7653 0.0000 -10823.3607 1478.7733 0.0000 0.0000 1723.8902 -7612.0979 291.8913 -9335.9881 -7558.7732 299.6090 151.4456 187.7328 30350.1515 106.9698 169.1160
ENERGY: 1500000 2.5482 0.8492 3.4330 0.0000 -10874.7393 1489.7919 0.0000 0.0000 1781.8278 -7596.2891 301.7014 -9378.1169 -7555.3663 299.7602 268.0776 344.3617 30042.9799 101.6869 164.8170
TCL: Running FEP window  13: Lambda1 0.39999999999999963 Lambda2 0.34999999999999964 [dLambda -0.04999999999999999]
TCL: Setting parameter firsttimestep to 0
TCL: Setting parameter alchLambda to 0.39999999999999963
Info: NONBONDED TABLE R-SQUARED SPACING: 0.0625
Info: NONBONDED TABLE SIZE: 705 POINTS
TCL: Setting parameter alchLambda2 to 0.34999999999999964
Info: NONBONDED TABLE R-SQUARED SPACING: 0.0625
Info: NONBONDED TABLE SIZE: 705 POINTS
TCL: Running for 1500000 steps
ETITLE: TS BOND ANGLE DIHED IMPRP ELECT VDW BOUNDARY MISC KINETIC TOTAL TEMP POTENTIAL TOTALAVG TEMPAVG PRESSURE GPRESSURE VOLUME PRESSAVG GPRESSAVG
ENERGY: 0 2.5482 0.8492 3.4330 0.0000 -10874.7392 1490.0189 0.0000 0.0000 1780.9416 -7596.9482 301.5513 -9377.8898 -7596.9482 301.5513 253.5022 341.5286 30042.9799 253.5022 341.5286
ENERGY: 300000 0.5320 2.2529 1.9820 0.0000 -10900.0902 1526.3027 0.0000 0.0000 1777.5110 -7591.5095 300.9705 -9369.0206 -7558.2532 301.2868 365.7255 379.5047 30519.7514 195.0259 262.2630
ENERGY: 600000 2.2690 2.6309 3.1952 0.0000 -10736.3793 1439.0799 0.0000 0.0000 1703.5573 -7585.6470 288.4485 -9289.2043 -7572.1278 298.3369 -403.3609 -340.9076 31128.5477 10.4089 89.3252
ENERGY: 900000 1.4608 1.5831 1.7214 0.0000 -10953.8847 1556.6150 0.0000 0.0000 1742.0030 -7650.5014 294.9582 -9392.5044 -7581.6946 297.8908 502.6666 598.1733 30624.7467 93.7906 162.8613
ENERGY: 1200000 1.2516 2.1649 7.1859 0.0000 -10759.4462 1487.2537 0.0000 0.0000 1841.8605 -7419.7295 311.8662 -9261.5901 -7554.8786 299.3263 476.8359 574.0048 30372.4484 97.5393 172.8900
ENERGY: 1500000 0.7287 1.0702 4.5105 0.0000 -10845.7816 1477.6457 0.0000 0.0000 1773.4891 -7588.3373 300.2895 -9361.8265 -7546.6924 299.9667 147.8340 186.5310 30277.2473 34.3959 106.4958
TCL: Running FEP window  14: Lambda1 0.34999999999999964 Lambda2 0.29999999999999966 [dLambda -0.04999999999999999]
TCL: Setting parameter firsttimestep to 0
TCL: Setting parameter alchLambda to 0.34999999999999964
Info: NONBONDED TABLE R-SQUARED SPACING: 0.0625
Info: NONBONDED TABLE SIZE: 705 POINTS
TCL: Setting parameter alchLambda2 to 0.29999999999999966
Info: NONBONDED TABLE R-SQUARED SPACING: 0.0625
Info: NONBONDED TABLE SIZE: 705 POINTS
TCL: Running for 1500000 steps
ETITLE: TS BOND ANGLE DIHED IMPRP ELECT VDW BOUNDARY MISC KINETIC TOTAL TEMP POTENTIAL TOTALAVG TEMPAVG PRESSURE GPRESSURE VOLUME PRESSAVG GPRESSAVG
ENERGY: 0 0.7287 1.0702 4.5105 0.0000 -10845.7819 1477.8683 0.0000 0.0000 1772.6062 -7588.9980 300.1400 -9361.6042 -7588.9980 300.1400 104.6958 185.6759 30277.2473 104.6958 185.6759
ENERGY: 300000 1.8507 4.1689 3.1166 0.0000 -10779.0434 1434.6206 0.0000 0.0000 1768.0108 -7567.2758 299.3619 -9335.2866 -7618.0510 298.0418 13.0840 49.3983 30128.1589 -129.4658 -84.9285
ENERGY: 600000 2.0283 4.1801 1.5328 0.0000 -10671.9579 1383.7739 0.0000 0.0000 1784.0921 -7496.3506 302.0848 -9280.4427 -7577.3648 300.4816 -346.7866 -307.1038 30775.9321 -143.2335 -94.8356
ENERGY: 900000 1.0864 1.3927 2.4230 0.0000 -10767.1397 1436.7084 0.0000 0.0000 1791.2338 -7534.2955 303.2940 -9325.5293 -7576.9243 299.1438 -268.7730 -172.0845 30772.0295 -100.6245 -36.5962
ENERGY: 1200000 0.9795 2.1967 3.9442 0.0000 -10631.6501 1358.2818 0.0000 0.0000 1784.7237 -7481.5241 302.1917 -9266.2479 -7565.7887 299.9669 -537.7198 -469.9316 30478.4429 -103.1826 -32.0166
ENERGY: 1500000 0.9502 2.2048 0.9085 0.0000 -10736.3462 1468.9663 0.0000 0.0000 1756.8961 -7506.4202 297.4799 -9263.3163 -7556.7784 300.3514 -232.1919 -132.9579 31368.1490 -95.2561 -21.7577
TCL: Running FEP window  15: Lambda1 0.29999999999999966 Lambda2 0.24999999999999967 [dLambda -0.04999999999999999]
TCL: Setting parameter firsttimestep to 0
TCL: Setting parameter alchLambda to 0.29999999999999966
Info: NONBONDED TABLE R-SQUARED SPACING: 0.0625
Info: NONBONDED TABLE SIZE: 705 POINTS
TCL: Setting parameter alchLambda2 to 0.24999999999999967
Info: NONBONDED TABLE R-SQUARED SPACING: 0.0625
Info: NONBONDED TABLE SIZE: 705 POINTS
TCL: Running for 1500000 steps
ETITLE: TS BOND ANGLE DIHED IMPRP ELECT VDW BOUNDARY MISC KINETIC TOTAL TEMP POTENTIAL TOTALAVG TEMPAVG PRESSURE GPRESSURE VOLUME PRESSAVG GPRESSAVG
ENERGY: 0 0.9502 2.2048 0.9085 0.0000 -10736.3466 1468.9240 0.0000 0.0000 1756.0055 -7507.3536 297.3291 -9263.3592 -7507.3536 297.3291 -233.0623 -136.0590 31368.1490 -233.0623 -136.0590
ENERGY: 300000 0.3752 1.3071 3.5197 0.0000 -10693.2636 1387.5708 0.0000 0.0000 1777.9456 -7522.5451 301.0441 -9300.4907 -7529.6499 300.3818 -514.8237 -486.5487 30618.3203 162.1985 193.1921
ENERGY: 600000 3.2222 1.5447 2.0183 0.0000 -10903.2553 1552.5006 0.0000 0.0000 1750.5128 -7593.4566 296.3991 -9343.9695 -7558.8038 296.9208 904.7651 948.7765 30232.9840 54.1365 97.9525
ENERGY: 900000 1.7105 3.4187 1.6476 0.0000 -10924.6675 1531.8988 0.0000 0.0000 1718.8118 -7667.1801 291.0314 -9385.9919 -7571.7143 296.9793 504.0703 601.4132 30150.3400 39.7935 93.6637
ENERGY: 1200000 4.0347 3.9723 2.5073 0.0000 -10720.2858 1413.4046 0.0000 0.0000 1770.2824 -7526.0844 299.7465 -9296.3669 -7568.2292 297.6993 -282.4966 -185.9014 30427.1049 -27.6179 34.4712
ENERGY: 1500000 0.7881 2.6310 1.6335 0.0000 -10834.1506 1492.8150 0.0000 0.0000 1779.2402 -7557.0428 301.2633 -9336.2830 -7560.2171 297.4800 416.3530 447.0452 30368.5830 18.3934 83.3087
TCL: Running FEP window  16: Lambda1 0.24999999999999967 Lambda2 0.19999999999999968 [dLambda -0.04999999999999999]
TCL: Setting parameter firsttimestep to 0
TCL: Setting parameter alchLambda to 0.24999999999999967
Info: NONBONDED TABLE R-SQUARED SPACING: 0.0625
Info: NONBONDED TABLE SIZE: 705 POINTS
TCL: Setting parameter alchLambda2 to 0.19999999999999968
Info: NONBONDED TABLE R-SQUARED SPACING: 0.0625
Info: NONBONDED TABLE SIZE: 705 POINTS
TCL: Running for 1500000 steps
ETITLE: TS BOND ANGLE DIHED IMPRP ELECT VDW BOUNDARY MISC KINETIC TOTAL TEMP POTENTIAL TOTALAVG TEMPAVG PRESSURE GPRESSURE VOLUME PRESSAVG GPRESSAVG
ENERGY: 0 0.7881 2.6310 1.6335 0.0000 -10834.1504 1491.8479 0.0000 0.0000 1778.3418 -7558.9081 301.1111 -9337.2499 -7558.9081 301.1111 353.3879 440.4090 30368.5830 353.3879 440.4090
ENERGY: 300000 1.9073 1.7989 1.6593 0.0000 -10694.8698 1383.1266 0.0000 0.0000 1794.0568 -7512.3208 303.7720 -9306.3777 -7523.2219 302.7253 -657.7279 -627.8030 30684.0265 162.6259 209.1089
ENERGY: 600000 0.4442 2.5023 3.5682 0.0000 -10570.6870 1332.2743 0.0000 0.0000 1817.1060 -7414.7920 307.6747 -9231.8980 -7522.6726 301.9774 -688.3925 -637.6552 30716.0332 -24.9434 38.4998
ENERGY: 900000 1.0552 3.3783 2.4992 0.0000 -10736.6109 1467.5280 0.0000 0.0000 1766.2847 -7495.8655 299.0696 -9262.1502 -7529.8770 300.9521 109.5788 234.9956 30566.8917 138.0790 209.3230
ENERGY: 1200000 1.3707 2.4164 1.8169 0.0000 -10858.5855 1498.8506 0.0000 0.0000 1747.4570 -7606.6740 295.8817 -9354.1310 -7536.5635 300.5713 215.4041 249.6256 30480.6313 142.1933 205.9822
ENERGY: 1500000 2.5184 2.6244 2.3528 0.0000 -10651.4935 1365.5823 0.0000 0.0000 1778.4912 -7499.9243 301.1364 -9278.4155 -7536.9998 299.8280 -787.8539 -698.7387 30856.3525 -11.2212 53.9813
TCL: Running FEP window  17: Lambda1 0.19999999999999968 Lambda2 0.1499999999999997 [dLambda -0.04999999999999999]
TCL: Setting parameter firsttimestep to 0
TCL: Setting parameter alchLambda to 0.19999999999999968
Info: NONBONDED TABLE R-SQUARED SPACING: 0.0625
Info: NONBONDED TABLE SIZE: 705 POINTS
TCL: Setting parameter alchLambda2 to 0.1499999999999997
Info: NONBONDED TABLE R-SQUARED SPACING: 0.0625
Info: NONBONDED TABLE SIZE: 705 POINTS
TCL: Running for 1500000 steps
ETITLE: TS BOND ANGLE DIHED IMPRP ELECT VDW BOUNDARY MISC KINETIC TOTAL TEMP POTENTIAL TOTALAVG TEMPAVG PRESSURE GPRESSURE VOLUME PRESSAVG GPRESSAVG
ENERGY: 0 2.5184 2.6244 2.3528 0.0000 -10651.4937 1363.6749 0.0000 0.0000 1777.6525 -7502.6706 300.9944 -9280.3231 -7502.6706 300.9944 -803.5979 -710.1362 30856.3525 -803.5979 -710.1362
ENERGY: 300000 3.0240 3.4510 1.6815 0.0000 -10755.6990 1458.3298 0.0000 0.0000 1766.3482 -7522.8644 299.0804 -9289.2126 -7473.2226 305.3426 22.1440 57.8001 30652.5325 -510.0042 -461.0134
ENERGY: 600000 6.1225 1.0781 1.4160 0.0000 -10759.6264 1476.6506 0.0000 0.0000 1775.1729 -7499.1862 300.5746 -9274.3590 -7494.1663 302.5968 174.3095 270.7043 30811.3926 -362.4152 -317.7903
ENERGY: 900000 0.6750 1.5853 1.0156 0.0000 -10841.4793 1535.6410 0.0000 0.0000 1797.1560 -7505.4066 304.2968 -9302.5625 -7497.0424 302.1202 783.4321 845.8345 30525.1045 -96.9682 -42.8264
ENERGY: 1200000 0.8674 4.7133 3.0599 0.0000 -10848.3332 1511.3107 0.0000 0.0000 1751.6705 -7576.7113 296.5951 -9328.3818 -7523.9051 300.3530 265.2331 375.3875 30473.6845 -41.8212 14.1528
ENERGY: 1500000 3.3188 1.2065 4.1143 0.0000 -10746.6108 1381.1934 0.0000 0.0000 1839.3079 -7517.4699 311.4340 -9356.7779 -7526.5011 301.0955 -641.3277 -601.5750 30354.3714 -83.4460 -33.7906
TCL: Running FEP window  18: Lambda1 0.1499999999999997 Lambda2 0.09999999999999969 [dLambda -0.05 ]
TCL: Setting parameter firsttimestep to 0
TCL: Setting parameter alchLambda to 0.1499999999999997
Info: NONBONDED TABLE R-SQUARED SPACING: 0.0625
Info: NONBONDED TABLE SIZE: 705 POINTS
TCL: Setting parameter alchLambda2 to 0.09999999999999969
Info: NONBONDED TABLE R-SQUARED SPACING: 0.0625
Info: NONBONDED TABLE SIZE: 705 POINTS
TCL: Running for 1500000 steps
ETITLE: TS BOND ANGLE DIHED IMPRP ELECT VDW BOUNDARY MISC KINETIC TOTAL TEMP POTENTIAL TOTALAVG TEMPAVG PRESSURE GPRESSURE VOLUME PRESSAVG GPRESSAVG
ENERGY: 0 3.3188 1.2065 4.1143 0.0000 -10746.6101 1381.3239 0.0000 0.0000 1838.3897 -7518.2569 311.2785 -9356.6467 -7518.2569 311.2785 -690.7560 -602.2065 30354.3714 -690.7560 -602.2065
ENERGY: 300000 2.1863 3.0924 0.9477 0.0000 -10750.5684 1428.9911 0.0000 0.0000 1733.9149 -7581.4360 293.5887 -9315.3509 -7547.6399 301.5380 -83.0566 -52.5376 30499.4926 -64.6989 -21.7465
ENERGY: 600000 2.8286 2.7453 3.1285 0.0000 -10713.4081 1398.0523 0.0000 0.0000 1803.5398 -7503.1137 305.3777 -9306.6535 -7531.3262 301.9857 -433.5022 -415.1467 30563.4947 -81.0023 -37.7341
ENERGY: 900000 0.2144 0.7333 1.3364 0.0000 -10829.0928 1449.1989 0.0000 0.0000 1757.9231 -7619.6867 297.6538 -9377.6098 -7542.8467 300.7841 -79.2415 -39.8112 30586.8177 129.9070 172.5809
ENERGY: 1200000 1.5247 0.6856 2.9811 0.0000 -10781.7649 1448.4307 0.0000 0.0000 1771.6223 -7556.5205 299.9734 -9328.1428 -7537.6971 301.2269 -39.2685 -0.6761 30595.2987 13.1139 54.9239
ENERGY: 1500000 2.1747 1.7087 1.8266 0.0000 -10847.2855 1463.9277 0.0000 0.0000 1763.3500 -7614.2978 298.5727 -9377.6478 -7537.9737 301.0102 182.5669 257.2902 30236.3717 53.4304 103.8697
TCL: Running FEP window  19: Lambda1 0.09999999999999969 Lambda2 0.049999999999999684 [dLambda -0.05 ]
TCL: Setting parameter firsttimestep to 0
TCL: Setting parameter alchLambda to 0.09999999999999969
Info: NONBONDED TABLE R-SQUARED SPACING: 0.0625
Info: NONBONDED TABLE SIZE: 705 POINTS
TCL: Setting parameter alchLambda2 to 0.049999999999999684
Info: NONBONDED TABLE R-SQUARED SPACING: 0.0625
Info: NONBONDED TABLE SIZE: 705 POINTS
TCL: Running for 1500000 steps
ETITLE: TS BOND ANGLE DIHED IMPRP ELECT VDW BOUNDARY MISC KINETIC TOTAL TEMP POTENTIAL TOTALAVG TEMPAVG PRESSURE GPRESSURE VOLUME PRESSAVG GPRESSAVG
ENERGY: 0 2.1747 1.7087 1.8266 0.0000 -10847.2847 1463.2981 0.0000 0.0000 1762.4517 -7615.8249 298.4206 -9378.2766 -7615.8249 298.4206 166.6878 253.5992 30236.3717 166.6878 253.5992
ENERGY: 300000 3.2030 1.7704 2.0411 0.0000 -10732.8306 1371.5901 0.0000 0.0000 1792.9711 -7561.2549 303.5882 -9354.2259 -7562.3660 301.9597 -886.0003 -798.0966 30819.5443 -241.6928 -177.4366
ENERGY: 600000 1.7290 1.7811 4.0898 0.0000 -10803.9675 1495.7355 0.0000 0.0000 1779.7534 -7520.8787 301.3501 -9300.6320 -7572.5236 300.7584 420.6974 462.8127 30340.5712 -223.2347 -167.6070
ENERGY: 900000 1.1856 3.2906 3.2193 0.0000 -10809.2874 1461.5142 0.0000 0.0000 1782.9815 -7557.0961 301.8967 -9340.0777 -7575.5704 300.0678 251.3382 271.7805 30106.1671 -228.2165 -182.6488
ENERGY: 1200000 1.0348 3.9264 3.6128 0.0000 -10753.9293 1432.5936 0.0000 0.0000 1760.2455 -7552.5162 298.0470 -9312.7617 -7574.2221 299.5258 -131.2566 -53.0099 30459.5073 -166.3582 -121.3592
ENERGY: 1500000 0.5357 1.4990 2.1641 0.0000 -10794.0006 1422.5085 0.0000 0.0000 1758.7021 -7608.5911 297.7857 -9367.2933 -7561.0675 300.5546 -489.3509 -438.4967 30968.2169 -150.4804 -100.5170
TCL: Running FEP window  20: Lambda1 0.049999999999999684 Lambda2 0.0    [dLambda -0.049999999999999684]
TCL: Setting parameter firsttimestep to 0
TCL: Setting parameter alchLambda to 0.049999999999999684
Info: NONBONDED TABLE R-SQUARED SPACING: 0.0625
Info: NONBONDED TABLE SIZE: 705 POINTS
TCL: Setting parameter alchLambda2 to 0.0
Info: NONBONDED TABLE R-SQUARED SPACING: 0.0625
Info: NONBONDED TABLE SIZE: 705 POINTS
TCL: Running for 1500000 steps
ETITLE: TS BOND ANGLE DIHED IMPRP ELECT VDW BOUNDARY MISC KINETIC TOTAL TEMP POTENTIAL TOTALAVG TEMPAVG PRESSURE GPRESSURE VOLUME PRESSAVG GPRESSAVG
ENERGY: 0 0.5357 1.4990 2.1641 0.0000 -10794.0013 1422.1297 0.0000 0.0000 1757.7834 -7609.8895 297.6302 -9367.6729 -7609.8895 297.6302 -526.3101 -444.4790 30968.2169 -526.3101 -444.4790
ENERGY: 300000 2.6299 1.3132 2.1173 0.0000 -10644.9547 1389.9937 0.0000 0.0000 1746.5106 -7502.3901 295.7214 -9248.9007 -7572.1353 294.6559 -350.8854 -338.5637 30376.1290 -265.6886 -180.9351
ENERGY: 600000 4.1341 2.7176 2.5922 0.0000 -10801.4977 1445.8061 0.0000 0.0000 1784.0044 -7562.2434 302.0699 -9346.2478 -7579.2884 295.7521 -272.5116 -238.3905 30458.8548 -132.0616 -50.3432
ENERGY: 900000 0.7884 2.6155 1.6584 0.0000 -10721.8671 1424.8254 0.0000 0.0000 1742.4882 -7549.4911 295.0404 -9291.9793 -7590.5630 296.5743 -281.9023 -211.2780 30721.1020 -106.5081 -40.3841
ENERGY: 1200000 1.6946 2.6998 0.3458 0.0000 -10678.2105 1370.4258 0.0000 0.0000 1744.7933 -7558.2513 295.4307 -9303.0446 -7579.1237 297.3388 -715.3863 -623.9698 30611.1038 -83.1936 -7.9911
ENERGY: 1500000 3.3262 2.6094 1.2387 0.0000 -10669.5360 1398.1682 0.0000 0.0000 1737.1851 -7527.0084 294.1424 -9264.1935 -7573.6983 297.6654 -493.0526 -459.6151 30842.3913 -161.7419 -91.6386
TCL: Exiting due to exit command.
