Info: SIMULATION PARAMETERS:
Info: TIMESTEP               2
Info: NUMBER OF STEPS        0
Info: STEPS PER CYCLE        10
Info: PERIODIC CELL BASIS 1  33.0398 0 0
Info: PERIODIC CELL BASIS 2  0 31.6382 0
Info: PERIODIC CELL BASIS 3  0 0 29.2031
Info: PERIODIC CELL CENTER   0 0 0
Info: WRAPPING WATERS AROUND PERIODIC BOUNDARIES ON OUTPUT.
Info: WRAPPING ALL CLUSTERS AROUND PERIODIC BOUNDARIES ON OUTPUT.
Info: FIRST LDB TIMESTEP     50
Info: LAST LDB TIMESTEP     -1
Info: HOM BACKGROUND SCALING 1
Info: PME BACKGROUND SCALING 1
Info: MIN ATOMS PER PATCH    40
Info: EMPTY PATCH LOAD       40 ATOMS
Info: VELOCITY FILE          mobley_5857_equil.vel
Info: CENTER OF MASS MOVING INITIALLY? NO
Info: DIELECTRIC             1
Info: EXCLUDE                SCALED ONE-FOUR
Info: 1-4 ELECTROSTATICS SCALED BY 0.833333
Info: MODIFIED 1-4 VDW PARAMETERS WILL BE USED
Info: DCD FILENAME           mobley_5857_prod.dcd
Info: DCD FREQUENCY          100000
Info: DCD FIRST STEP         100000
Info: DCD FILE WILL CONTAIN UNIT CELL DATA
Info: XST FILENAME           mobley_5857_prod.xst
Info: XST FREQUENCY          100000
Info: NO VELOCITY DCD OUTPUT
Info: NO FORCE DCD OUTPUT
Info: OUTPUT FILENAME        mobley_5857_prod
Info: BINARY OUTPUT FILES WILL BE USED
Info: RESTART FILENAME       mobley_5857_prod.restart
Info: RESTART FREQUENCY      100000
Info: BINARY RESTART FILES WILL BE USED
Info: CUTOFF                 9
Info: PAIRLIST DISTANCE      11
Info: PAIRLIST SHRINK RATE   0.01
Info: PAIRLIST GROW RATE     0.01
Info: PAIRLIST TRIGGER       0.3
Info: PAIRLISTS PER CYCLE    2
Info: PAIRLISTS ENABLED
Info: MARGIN                 2
Info: HYDROGEN GROUP CUTOFF  2.5
Info: PATCH DIMENSION        15.5
Info: ENERGY OUTPUT STEPS    100000
Info: ENERGY EVALUATION STEPS    100000
Info: OUTPUT ENERGY PRECISION 4
Info: CROSSTERM ENERGY INCLUDED IN DIHEDRAL
Info: TIMING OUTPUT STEPS    1000000
Info: PRESSURE OUTPUT STEPS  100000
Info: ALCHEMICAL FEP ON
Info: FEP CURRENT LAMBDA VALUE     0
Info: FEP COMPARISON LAMBDA VALUE  0.05
Info: FEP INTRA-ALCHEMICAL NON-BONDED INTERACTIONS WILL BE RETAINED
Info: FEP INTRA-ALCHEMICAL BONDED INTERACTIONS WILL BE RETAINED
Info: FEP VDW SHIFTING COEFFICIENT 5
Info: FEP ELEC. ACTIVE FOR ANNIHILATED PARTICLES BETWEEN LAMBDA = 0 AND LAMBDA = 0.5
Info: FEP ELEC. ACTIVE FOR EXNIHILATED PARTICLES BETWEEN LAMBDA = 0.5 AND LAMBDA = 1
Info: FEP VDW ACTIVE FOR ANNIHILATED PARTICLES BETWEEN LAMBDA = 0 AND LAMBDA = 1
Info: FEP VDW ACTIVE FOR EXNIHILATED PARTICLES BETWEEN LAMBDA = 0 AND LAMBDA = 1
Info: FEP BOND ACTIVE FOR ANNIHILATED PARTICLES BETWEEN LAMBDA = 1 AND LAMBDA = 1
Info: FEP BOND ACTIVE FOR EXNIHILATED PARTICLES BETWEEN LAMBDA = 0 AND LAMBDA = 0
Info: LANGEVIN DYNAMICS ACTIVE
Info: LANGEVIN TEMPERATURE   300
Info: LANGEVIN USING BBK INTEGRATOR
Info: LANGEVIN DAMPING COEFFICIENT IS 1 INVERSE PS
Info: LANGEVIN DYNAMICS APPLIED TO HYDROGENS
Info: LANGEVIN PISTON PRESSURE CONTROL ACTIVE
Info:        TARGET PRESSURE IS 1.01325 BAR
Info:     OSCILLATION PERIOD IS 50 FS
Info:             DECAY TIME IS 25 FS
Info:     PISTON TEMPERATURE IS 300 K
Info:       PRESSURE CONTROL IS GROUP-BASED
Info:    INITIAL STRAIN RATE IS -0.000160457 -0.000160457 -0.000160457
Info:       CELL FLUCTUATION IS ISOTROPIC
Info: PARTICLE MESH EWALD (PME) ACTIVE
Info: PME TOLERANCE               1e-06
Info: PME EWALD COEFFICIENT       0.348832
Info: PME INTERPOLATION ORDER     4
Info: PME GRID DIMENSIONS         36 32 32
Info: PME MAXIMUM GRID SPACING    1
Info: PME CALCULATION WILL BE PERFORMED ON GPU
Info: FULL ELECTROSTATIC EVALUATION FREQUENCY      2
Info: USING VERLET I (r-RESPA) MTS SCHEME.
Info: C1 SPLITTING OF LONG RANGE ELECTROSTATICS
Info: PLACING ATOMS IN PATCHES BY HYDROGEN GROUPS
Info: RIGID BONDS TO HYDROGEN : ALL
Info:         ERROR TOLERANCE : 1e-08
Info:          MAX ITERATIONS : 100
Info: RIGID WATER USING SETTLE ALGORITHM
Info: RANDOM NUMBER SEED     1743591757
Info: USE HYDROGEN BONDS?    NO
Info: Using AMBER format force field!
Info: AMBER PARM FILE        mobley_5857.prmtop
Info: COORDINATE PDB         mobley_5857.pdb
Info: Exclusions will be read from PARM file!
Info: SCNB (VDW SCALING)     2
Info: USING ARITHMETIC MEAN TO COMBINE L-J SIGMA PARAMETERS
Info: BINARY COORDINATES     mobley_5857_equil.coor
Info: SUMMARY OF PARAMETERS:
Info: 6 BONDS
Info: 6 ANGLES
Info:   6 HARMONIC
Info:   0 COSINE-BASED
Info: 3 DIHEDRAL
Info: 0 IMPROPER
Info: 0 CROSSTERM
Info: 0 VDW
Info: 21 VDW_PAIRS
Info: 0 NBTHOLE_PAIRS
Info: To read alchdata from file: mobley_5857.pdb
Info: To read alchflag data from column: 5
Info: STRUCTURE SUMMARY:
Info: 2999 ATOMS
Info: 3000 BONDS
Info: 28 ANGLES
Info: 49 DIHEDRALS
Info: 0 IMPROPERS
Info: 0 CROSSTERMS
Info: 3062 EXCLUSIONS
Info: 2989 RIGID BONDS
Info: ALCH: 0 ATOMS TO DISAPPEAR IN FINAL STATE
Info: ALCH: 17 ATOMS TO APPEAR IN FINAL STATE
Info: 6008 DEGREES OF FREEDOM
Info: 1004 HYDROGEN GROUPS
Info: 3 ATOMS IN LARGEST HYDROGEN GROUP
Info: 1004 MIGRATION GROUPS
Info: 3 ATOMS IN LARGEST MIGRATION GROUP
Info: TOTAL MASS = 18037.1 amu
Info: TOTAL CHARGE = 0.000100004 e
Info: MASS DENSITY = 0.981176 g/cm^3
Info: ATOM DENSITY = 0.0982423 atoms/A^3
Info: ADDED 0 IMPLICIT EXCLUSIONS
Info: NONBONDED TABLE R-SQUARED SPACING: 0.0625
Info: NONBONDED TABLE SIZE: 705 POINTS
Info: REDUCING NUMBER OF PATCHES TO IMPROVE LOAD BALANCE
Info: REMOVING COM VELOCITY -0.005501 -0.0118281 -0.132139
Info: Use 3D box decompostion in PME FFT.
Info: Updated CUDA force table with 4096 elements.
Info: Updated CUDA LJ table with 6 x 6 elements.
Info: Found 18 unique exclusion lists needing 44 bytes
TCL: Running for 1500000 steps
ETITLE: TS BOND ANGLE DIHED IMPRP ELECT VDW BOUNDARY MISC KINETIC TOTAL TEMP POTENTIAL TOTALAVG TEMPAVG PRESSURE GPRESSURE VOLUME PRESSAVG GPRESSAVG
ENERGY: 0 3.0759 4.0177 6.1533 0.0000 -11022.5087 1601.1950 0.0000 0.0000 1798.2240 -7609.8428 301.2342 -9408.0668 -7609.8428 301.2342 1106.9745 1193.7037 30526.5781 1106.9745 1193.7037
ENERGY: 300000 3.1577 4.4546 6.1663 0.0000 -10914.4924 1578.2844 0.0000 0.0000 1759.3988 -7563.0306 294.7303 -9322.4294 -7598.9948 296.6936 1300.7279 1264.5436 30326.4064 333.3335 385.1866
ENERGY: 600000 4.3926 4.1250 7.4850 0.0000 -10963.5463 1545.6177 0.0000 0.0000 1721.1202 -7680.8058 288.3179 -9401.9260 -7596.6964 299.3091 609.3691 638.0759 30553.5307 250.6757 312.3836
ENERGY: 900000 4.9932 4.7794 6.2537 0.0000 -10891.8190 1531.4195 0.0000 0.0000 1894.0649 -7450.3084 317.2892 -9344.3733 -7586.5324 299.9522 332.8640 390.6870 31060.7453 246.4215 307.7439
ENERGY: 1200000 4.8233 7.7421 5.4323 0.0000 -10777.4335 1415.2994 0.0000 0.0000 1759.2638 -7584.8727 294.7077 -9344.1364 -7597.2192 298.7111 -481.4295 -396.2740 30757.0642 82.1571 148.7781
ENERGY: 1500000 7.8149 4.8556 2.6691 0.0000 -10822.3300 1461.5791 0.0000 0.0000 1821.6219 -7523.7894 305.1537 -9345.4113 -7598.5965 299.1487 -230.0812 -177.5412 31149.5600 92.7391 160.8274
TCL: Running FEP window   2: Lambda1 0.05   Lambda2 0.1    [dLambda 0.05  ]
TCL: Setting parameter firsttimestep to 0
TCL: Setting parameter alchLambda to 0.05
Info: NONBONDED TABLE R-SQUARED SPACING: 0.0625
Info: NONBONDED TABLE SIZE: 705 POINTS
TCL: Setting parameter alchLambda2 to 0.1
Info: NONBONDED TABLE R-SQUARED SPACING: 0.0625
Info: NONBONDED TABLE SIZE: 705 POINTS
TCL: Running for 1500000 steps
ETITLE: TS BOND ANGLE DIHED IMPRP ELECT VDW BOUNDARY MISC KINETIC TOTAL TEMP POTENTIAL TOTALAVG TEMPAVG PRESSURE GPRESSURE VOLUME PRESSAVG GPRESSAVG
ENERGY: 0 7.8149 4.8556 2.6691 0.0000 -10822.3302 1465.1093 0.0000 0.0000 1820.7189 -7521.1624 305.0025 -9341.8813 -7521.1624 305.0025 -266.6820 -170.6913 31149.5600 -266.6820 -170.6913
ENERGY: 300000 5.2827 2.6426 6.0614 0.0000 -10815.8767 1422.9835 0.0000 0.0000 1782.9811 -7595.9253 298.6807 -9378.9065 -7547.7740 300.8272 -565.4740 -487.4356 30700.0655 -542.8002 -462.2254
ENERGY: 600000 4.2525 4.3861 3.4791 0.0000 -10960.4352 1517.4239 0.0000 0.0000 1818.1933 -7612.7004 304.5794 -9430.8937 -7574.4197 300.4052 381.7951 417.7381 30629.7092 -319.6616 -251.5057
ENERGY: 900000 3.1278 5.8403 2.5432 0.0000 -10731.4857 1352.1707 0.0000 0.0000 1777.0608 -7590.7429 297.6890 -9367.8037 -7580.1749 300.6950 -1124.6488 -1164.3665 31331.0918 -311.8444 -255.3974
ENERGY: 1200000 1.2912 2.7053 3.9422 0.0000 -10822.9001 1479.1522 0.0000 0.0000 1844.4547 -7491.3545 308.9786 -9335.8092 -7575.7212 300.4274 37.4033 84.9956 31392.4971 -244.1051 -193.9794
ENERGY: 1500000 4.1555 3.3291 3.9030 0.0000 -10939.1454 1499.7490 0.0000 0.0000 1786.1575 -7641.8512 299.2128 -9428.0087 -7584.4331 299.9950 162.4878 213.3458 30567.9266 -153.0122 -104.8885
TCL: Running FEP window   3: Lambda1 0.1    Lambda2 0.15000000000000002 [dLambda 0.05000000000000002]
TCL: Setting parameter firsttimestep to 0
TCL: Setting parameter alchLambda to 0.1
Info: NONBONDED TABLE R-SQUARED SPACING: 0.0625
Info: NONBONDED TABLE SIZE: 705 POINTS
TCL: Setting parameter alchLambda2 to 0.15000000000000002
Info: NONBONDED TABLE R-SQUARED SPACING: 0.0625
Info: NONBONDED TABLE SIZE: 705 POINTS
TCL: Running for 1500000 steps
ETITLE: TS BOND ANGLE DIHED IMPRP ELECT VDW BOUNDARY MISC KINETIC TOTAL TEMP POTENTIAL TOTALAVG TEMPAVG PRESSURE GPRESSURE VOLUME PRESSAVG GPRESSAVG
ENERGY: 0 4.1555 3.3291 3.9030 0.0000 -10939.1452 1500.7844 0.0000 0.0000 1785.2660 -7641.7071 299.0635 -9426.9731 -7641.7071 299.0635 121.4648 218.4755 30567.9266 121.4648 218.4755
ENERGY: 300000 2.3908 3.9678 5.4639 0.0000 -10878.6983 1461.9883 0.0000 0.0000 1800.9939 -7603.8936 301.6982 -9404.8875 -7600.2702 301.4022 -296.4685 -189.1070 30900.4632 -86.9908 6.8779
ENERGY: 600000 4.6200 3.8922 3.3359 0.0000 -10845.7329 1473.2111 0.0000 0.0000 1851.1056 -7509.5682 310.0928 -9360.6738 -7604.6858 301.9111 58.9165 133.9397 30779.2403 -70.9961 2.8172
ENERGY: 900000 2.7678 3.8337 2.6922 0.0000 -10769.7695 1346.6119 0.0000 0.0000 1840.9802 -7572.8837 308.3966 -9413.8640 -7596.6290 302.4177 -1076.4420 -1110.9168 31164.9900 -138.2591 -87.5493
ENERGY: 1200000 5.5872 4.5351 5.0914 0.0000 -10990.4264 1547.3411 0.0000 0.0000 1817.9094 -7609.9621 304.5318 -9427.8715 -7596.3085 302.1523 489.2836 581.3355 30476.1925 -24.6409 25.0332
ENERGY: 1500000 4.4030 3.4480 3.8927 0.0000 -10755.1085 1384.7755 0.0000 0.0000 1816.1664 -7542.4228 304.2398 -9358.5892 -7595.0204 301.6354 -680.3483 -646.7856 30814.6089 -58.3291 -7.2099
TCL: Running FEP window   4: Lambda1 0.15000000000000002 Lambda2 0.2    [dLambda 0.04999999999999999]
TCL: Setting parameter firsttimestep to 0
TCL: Setting parameter alchLambda to 0.15000000000000002
Info: NONBONDED TABLE R-SQUARED SPACING: 0.0625
Info: NONBONDED TABLE SIZE: 705 POINTS
TCL: Setting parameter alchLambda2 to 0.2
Info: NONBONDED TABLE R-SQUARED SPACING: 0.0625
Info: NONBONDED TABLE SIZE: 705 POINTS
TCL: Running for 1500000 steps
ETITLE: TS BOND ANGLE DIHED IMPRP ELECT VDW BOUNDARY MISC KINETIC TOTAL TEMP POTENTIAL TOTALAVG TEMPAVG PRESSURE GPRESSURE VOLUME PRESSAVG GPRESSAVG
ENERGY: 0 4.4030 3.4480 3.8927 0.0000 -10755.1089 1385.1317 0.0000 0.0000 1815.2788 -7542.9546 304.0912 -9358.2335 -7542.9546 304.0912 -718.9398 -641.8362 30814.6089 -718.9398 -641.8362
ENERGY: 300000 1.6338 6.3502 4.7796 0.0000 -10909.0968 1510.7893 0.0000 0.0000 1802.7796 -7582.7642 301.9973 -9385.5439 -7574.9159 302.9718 575.3038 579.7906 30561.4088 -35.6155 22.3233
ENERGY: 600000 3.4526 2.9761 2.7159 0.0000 -10960.2654 1528.8462 0.0000 0.0000 1766.5581 -7655.7166 295.9296 -9422.2747 -7599.5445 300.9074 484.3307 534.4254 30447.3064 134.4987 198.3312
ENERGY: 900000 8.9072 2.4728 2.5922 0.0000 -10687.4297 1337.0422 0.0000 0.0000 1804.2510 -7532.1644 302.2438 -9336.4154 -7599.7871 301.0341 -996.8024 -959.5610 30774.4132 -151.7835 -84.6051
ENERGY: 1200000 6.7891 5.9311 5.2353 0.0000 -10845.8333 1470.8865 0.0000 0.0000 1820.0646 -7536.9267 304.8929 -9356.9913 -7596.8156 301.3032 -67.6717 -47.7027 30961.8351 -106.6344 -46.1185
ENERGY: 1500000 3.5251 5.8336 2.8585 0.0000 -10868.4166 1462.5042 0.0000 0.0000 1829.3964 -7564.2987 306.4561 -9393.6952 -7586.4253 301.9423 -92.0066 -74.0305 30782.0372 -135.4156 -76.2278
TCL: Running FEP window   5: Lambda1 0.2    Lambda2 0.25   [dLambda 0.04999999999999999]
TCL: Setting parameter firsttimestep to 0
TCL: Setting parameter alchLambda to 0.2
Info: NONBONDED TABLE R-SQUARED SPACING: 0.0625
Info: NONBONDED TABLE SIZE: 705 POINTS
TCL: Setting parameter alchLambda2 to 0.25
Info: NONBONDED TABLE R-SQUARED SPACING: 0.0625
Info: NONBONDED TABLE SIZE: 705 POINTS
TCL: Running for 1500000 steps
ETITLE: TS BOND ANGLE DIHED IMPRP ELECT VDW BOUNDARY MISC KINETIC TOTAL TEMP POTENTIAL TOTALAVG TEMPAVG PRESSURE GPRESSURE VOLUME PRESSAVG GPRESSAVG
ENERGY: 0 3.5251 5.8336 2.8585 0.0000 -10868.4162 1462.3753 0.0000 0.0000 1828.4954 -7565.3284 306.3052 -9393.8237 -7565.3284 306.3052 -148.8985 -70.2467 30782.0372 -148.8985 -70.2467
ENERGY: 300000 2.9903 7.0394 6.3360 0.0000 -10947.2828 1485.5937 0.0000 0.0000 1809.5962 -7635.7271 303.1392 -9445.3234 -7616.2250 301.9421 -361.5429 -279.3361 31272.7298 -68.8044 -11.4297
ENERGY: 600000 1.2662 5.7598 3.9034 0.0000 -10946.0794 1481.0498 0.0000 0.0000 1748.9765 -7705.1237 292.9844 -9454.1002 -7619.3515 300.3515 -280.5646 -214.3416 30910.7424 -284.8838 -225.2930
ENERGY: 900000 5.1118 8.8578 2.1507 0.0000 -10918.1741 1527.7527 0.0000 0.0000 1775.8413 -7598.4598 297.4847 -9374.3011 -7612.1690 300.0460 514.1312 557.2904 31019.3574 -128.0108 -67.6756
ENERGY: 1200000 1.5952 4.2811 3.6076 0.0000 -10901.6984 1500.7675 0.0000 0.0000 1827.9845 -7563.4627 306.2196 -9391.4471 -7601.9292 301.2295 298.6427 379.7024 30886.1297 -61.5845 -0.7614
ENERGY: 1500000 4.4039 8.9041 3.0271 0.0000 -10781.0398 1374.7104 0.0000 0.0000 1809.1699 -7580.8244 303.0678 -9389.9944 -7594.3509 301.5843 -560.0152 -479.6876 30652.4708 -64.7838 -1.9036
TCL: Running FEP window   6: Lambda1 0.25   Lambda2 0.3    [dLambda 0.04999999999999999]
TCL: Setting parameter firsttimestep to 0
TCL: Setting parameter alchLambda to 0.25
Info: NONBONDED TABLE R-SQUARED SPACING: 0.0625
Info: NONBONDED TABLE SIZE: 705 POINTS
TCL: Setting parameter alchLambda2 to 0.3
Info: NONBONDED TABLE R-SQUARED SPACING: 0.0625
Info: NONBONDED TABLE SIZE: 705 POINTS
TCL: Running for 1500000 steps
ETITLE: TS BOND ANGLE DIHED IMPRP ELECT VDW BOUNDARY MISC KINETIC TOTAL TEMP POTENTIAL TOTALAVG TEMPAVG PRESSURE GPRESSURE VOLUME PRESSAVG GPRESSAVG
ENERGY: 0 4.4039 8.9041 3.0271 0.0000 -10781.0414 1375.4585 0.0000 0.0000 1808.3042 -7580.9436 302.9228 -9389.2479 -7580.9436 302.9228 -554.3199 -469.8783 30652.4708 -554.3199 -469.8783
ENERGY: 300000 4.1614 5.0166 2.6527 0.0000 -10904.7320 1506.3577 0.0000 0.0000 1803.1688 -7583.3749 302.0625 -9386.5436 -7559.7599 303.6011 268.0755 294.2472 30938.8990 -256.3386 -194.2278
ENERGY: 600000 4.8632 4.6797 1.7454 0.0000 -11012.8561 1538.8837 0.0000 0.0000 1796.3370 -7666.3471 300.9181 -9462.6841 -7584.6052 302.9192 331.8401 326.2865 30611.7853 -163.5623 -100.9091
ENERGY: 900000 2.7329 4.9138 2.2253 0.0000 -10868.6454 1446.0290 0.0000 0.0000 1800.0107 -7612.7338 301.5335 -9412.7445 -7601.0145 301.7447 -291.3909 -214.5805 30583.9742 -219.0875 -149.5260
ENERGY: 1200000 2.6583 3.2479 2.0140 0.0000 -10827.3357 1423.2661 0.0000 0.0000 1775.6250 -7620.5244 297.4484 -9396.1494 -7605.0714 300.0416 -357.7929 -350.7601 30860.5131 -210.9990 -149.0020
ENERGY: 1500000 5.5916 6.2200 0.9823 0.0000 -10745.5855 1440.0704 0.0000 0.0000 1802.4693 -7490.2520 301.9453 -9292.7213 -7596.7283 300.1521 195.9800 277.3688 30712.9404 -247.5348 -185.2216
TCL: Running FEP window   7: Lambda1 0.3    Lambda2 0.35   [dLambda 0.04999999999999999]
TCL: Setting parameter firsttimestep to 0
TCL: Setting parameter alchLambda to 0.3
Info: NONBONDED TABLE R-SQUARED SPACING: 0.0625
Info: NONBONDED TABLE SIZE: 705 POINTS
TCL: Setting parameter alchLambda2 to 0.35
Info: NONBONDED TABLE R-SQUARED SPACING: 0.0625
Info: NONBONDED TABLE SIZE: 705 POINTS
TCL: Running for 1500000 steps
ETITLE: TS BOND ANGLE DIHED IMPRP ELECT VDW BOUNDARY MISC KINETIC TOTAL TEMP POTENTIAL TOTALAVG TEMPAVG PRESSURE GPRESSURE VOLUME PRESSAVG GPRESSAVG
ENERGY: 0 5.5916 6.2200 0.9823 0.0000 -10745.5868 1439.6849 0.0000 0.0000 1801.5639 -7491.5442 301.7937 -9293.1081 -7491.5442 301.7937 192.4945 278.8100 30712.9404 192.4945 278.8100
ENERGY: 300000 3.3413 7.3061 4.4068 0.0000 -10922.0722 1470.3679 0.0000 0.0000 1831.6299 -7605.0202 306.8303 -9436.6502 -7565.0259 302.1206 127.0059 186.2899 30479.0401 -26.4697 37.0671
ENERGY: 600000 5.6593 5.2440 5.1960 0.0000 -10803.6355 1406.5605 0.0000 0.0000 1754.2540 -7626.7216 293.8684 -9380.9757 -7599.3466 299.1118 -550.4806 -484.9558 30597.3259 -61.9610 8.8809
ENERGY: 900000 4.7705 4.4290 5.1132 0.0000 -10924.8219 1516.9165 0.0000 0.0000 1776.5253 -7617.0673 297.5993 -9393.5927 -7601.4780 299.5393 78.8401 133.5493 30968.7325 -77.5084 -9.3834
ENERGY: 1200000 2.3585 4.1330 4.9110 0.0000 -10846.4699 1453.3306 0.0000 0.0000 1813.1590 -7568.5778 303.7361 -9381.7368 -7602.0261 299.5665 117.5363 179.8786 30725.9435 -87.7995 -22.3264
ENERGY: 1500000 3.5324 3.9739 1.2499 0.0000 -10912.2920 1487.6343 0.0000 0.0000 1766.6408 -7649.2607 295.9434 -9415.9015 -7615.2591 298.8819 336.4678 364.4903 30650.6460 -47.4754 13.9716
TCL: Running FEP window   8: Lambda1 0.35   Lambda2 0.39999999999999997 [dLambda 0.04999999999999999]
TCL: Setting parameter firsttimestep to 0
TCL: Setting parameter alchLambda to 0.35
Info: NONBONDED TABLE R-SQUARED SPACING: 0.0625
Info: NONBONDED TABLE SIZE: 705 POINTS
TCL: Setting parameter alchLambda2 to 0.39999999999999997
Info: NONBONDED TABLE R-SQUARED SPACING: 0.0625
Info: NONBONDED TABLE SIZE: 705 POINTS
TCL: Running for 1500000 steps
ETITLE: TS BOND ANGLE DIHED IMPRP ELECT VDW BOUNDARY MISC KINETIC TOTAL TEMP POTENTIAL TOTALAVG TEMPAVG PRESSURE GPRESSURE VOLUME PRESSAVG GPRESSAVG
ENERGY: 0 3.5324 3.9739 1.2499 0.0000 -10912.2931 1487.4361 0.0000 0.0000 1765.7483 -7650.3525 295.7939 -9416.1008 -7650.3525 295.7939 275.9296 370.2648 30650.6460 275.9296 370.2648
ENERGY: 300000 3.8867 4.2746 3.4128 0.0000 -10844.1348 1466.7940 0.0000 0.0000 1730.0366 -7635.7300 289.8116 -9365.7666 -7618.4215 298.1397 -69.7310 -9.1585 31139.0498 -167.0333 -120.7324
ENERGY: 600000 2.8864 2.4941 2.9116 0.0000 -10865.0311 1440.2482 0.0000 0.0000 1742.6094 -7673.8814 291.9178 -9416.4908 -7615.4270 299.7633 -370.5183 -341.8405 30760.3692 -46.8053 -20.0172
ENERGY: 900000 3.5787 2.8562 2.0790 0.0000 -10792.6536 1407.4215 0.0000 0.0000 1775.3610 -7601.3572 297.4042 -9376.7182 -7607.9271 297.6643 -398.0707 -296.7029 30484.6941 -50.1251 -12.3233
ENERGY: 1200000 3.0246 4.5374 5.5297 0.0000 -11014.0831 1516.6757 0.0000 0.0000 1764.0600 -7720.2558 295.5111 -9484.3157 -7614.2315 298.0304 494.1109 575.4200 30141.1195 57.0742 98.6028
ENERGY: 1500000 6.6609 3.4700 2.8480 0.0000 -10970.8858 1505.5664 0.0000 0.0000 1817.8334 -7634.5070 304.5191 -9452.3405 -7612.5739 298.7391 161.9965 191.7162 30584.8504 42.1308 89.2212
TCL: Running FEP window   9: Lambda1 0.39999999999999997 Lambda2 0.44999999999999996 [dLambda 0.04999999999999999]
TCL: Setting parameter firsttimestep to 0
TCL: Setting parameter alchLambda to 0.39999999999999997
Info: NONBONDED TABLE R-SQUARED SPACING: 0.0625
Info: NONBONDED TABLE SIZE: 705 POINTS
TCL: Setting parameter alchLambda2 to 0.44999999999999996
Info: NONBONDED TABLE R-SQUARED SPACING: 0.0625
Info: NONBONDED TABLE SIZE: 705 POINTS
TCL: Running for 1500000 steps
ETITLE: TS BOND ANGLE DIHED IMPRP ELECT VDW BOUNDARY MISC KINETIC TOTAL TEMP POTENTIAL TOTALAVG TEMPAVG PRESSURE GPRESSURE VOLUME PRESSAVG GPRESSAVG
ENERGY: 0 6.6609 3.4700 2.8480 0.0000 -10970.8883 1505.2305 0.0000 0.0000 1816.9349 -7635.7440 304.3686 -9452.6789 -7635.7440 304.3686 104.5339 195.5090 30584.8504 104.5339 195.5090
ENERGY: 300000 3.8495 4.1326 4.4850 0.0000 -10927.5412 1516.9167 0.0000 0.0000 1857.6912 -7540.4663 311.1960 -9398.1574 -7593.0381 305.1210 159.5871 228.3285 30845.7473 -59.7216 16.2441
ENERGY: 600000 3.9282 4.4725 2.7044 0.0000 -10898.2204 1451.1104 0.0000 0.0000 1775.5543 -7660.4506 297.4366 -9436.0049 -7606.4419 303.2964 -317.2947 -257.7545 30986.6410 -117.1013 -50.3982
ENERGY: 900000 7.3052 3.7165 3.2787 0.0000 -10936.5588 1491.1816 0.0000 0.0000 1786.2437 -7644.8332 299.2273 -9431.0768 -7605.5147 303.9667 -12.4421 100.3874 30732.6912 -41.5968 28.5357
ENERGY: 1200000 3.6826 3.4200 3.6557 0.0000 -10833.6503 1382.6796 0.0000 0.0000 1729.2927 -7710.9196 289.6870 -9440.2124 -7614.9786 302.4573 -1027.2696 -961.1389 30824.8804 -174.6751 -107.6138
ENERGY: 1500000 4.7869 5.0927 2.9788 0.0000 -10932.7875 1412.3861 0.0000 0.0000 1846.1012 -7661.4418 309.2545 -9507.5429 -7624.1486 302.2907 -772.6341 -704.1370 30617.5782 -172.3754 -99.5984
TCL: Running FEP window  10: Lambda1 0.44999999999999996 Lambda2 0.49999999999999994 [dLambda 0.04999999999999999]
TCL: Setting parameter firsttimestep to 0
TCL: Setting parameter alchLambda to 0.44999999999999996
Info: NONBONDED TABLE R-SQUARED SPACING: 0.0625
Info: NONBONDED TABLE SIZE: 705 POINTS
TCL: Setting parameter alchLambda2 to 0.49999999999999994
Info: NONBONDED TABLE R-SQUARED SPACING: 0.0625
Info: NONBONDED TABLE SIZE: 705 POINTS
TCL: Running for 1500000 steps
ETITLE: TS BOND ANGLE DIHED IMPRP ELECT VDW BOUNDARY MISC KINETIC TOTAL TEMP POTENTIAL TOTALAVG TEMPAVG PRESSURE GPRESSURE VOLUME PRESSAVG GPRESSAVG
ENERGY: 0 4.7869 5.0927 2.9788 0.0000 -10932.7886 1412.8934 0.0000 0.0000 1845.2691 -7661.7677 309.1151 -9507.0368 -7661.7677 309.1151 -769.1395 -694.8678 30617.5782 -769.1395 -694.8678
ENERGY: 300000 2.7902 4.3116 4.6507 0.0000 -10901.7720 1463.1422 0.0000 0.0000 1763.1129 -7663.7643 295.3525 -9426.8772 -7643.1328 301.9681 -151.7014 -56.5703 30575.4319 -554.2916 -475.1137
ENERGY: 600000 3.1567 6.1232 5.8601 0.0000 -10858.6439 1425.0381 0.0000 0.0000 1768.8729 -7649.5930 296.3174 -9418.4659 -7627.5830 301.8862 -431.0213 -328.0233 30732.9990 -431.1488 -343.0395
ENERGY: 900000 1.9700 2.6365 3.6588 0.0000 -10885.4478 1490.4108 0.0000 0.0000 1772.5320 -7614.2397 296.9303 -9386.7716 -7620.3395 302.4673 545.9274 560.9395 30524.7774 -200.9465 -122.2835
ENERGY: 1200000 2.8589 3.9566 5.3029 0.0000 -10926.1360 1527.0730 0.0000 0.0000 1807.5382 -7579.4064 302.7945 -9386.9446 -7606.5833 302.0311 526.9187 586.1255 30768.5938 -115.2967 -38.1049
ENERGY: 1500000 4.0855 3.7269 5.1464 0.0000 -11030.3480 1531.5139 0.0000 0.0000 1793.7803 -7692.0951 300.4898 -9485.8754 -7606.1644 301.8124 450.0862 531.3944 30194.3944 -142.3835 -64.5523
TCL: Running FEP window  11: Lambda1 0.49999999999999994 Lambda2 0.5499999999999999 [dLambda 0.04999999999999999]
TCL: Setting parameter firsttimestep to 0
TCL: Setting parameter alchLambda to 0.49999999999999994
Info: NONBONDED TABLE R-SQUARED SPACING: 0.0625
Info: NONBONDED TABLE SIZE: 705 POINTS
TCL: Setting parameter alchLambda2 to 0.5499999999999999
Info: NONBONDED TABLE R-SQUARED SPACING: 0.0625
Info: NONBONDED TABLE SIZE: 705 POINTS
TCL: Running for 1500000 steps
ETITLE: TS BOND ANGLE DIHED IMPRP ELECT VDW BOUNDARY MISC KINETIC TOTAL TEMP POTENTIAL TOTALAVG TEMPAVG PRESSURE GPRESSURE VOLUME PRESSAVG GPRESSAVG
ENERGY: 0 4.0855 3.7269 5.1464 0.0000 -11030.3476 1531.0068 0.0000 0.0000 1792.8899 -7693.4921 300.3406 -9486.3820 -7693.4921 300.3406 463.5181 536.9643 30194.3944 463.5181 536.9643
ENERGY: 300000 3.9954 5.1198 2.9287 0.0000 -10802.8301 1402.3607 0.0000 0.0000 1744.0844 -7644.3410 292.1648 -9388.4254 -7655.5485 296.3240 -517.7392 -481.3604 30975.2894 58.3609 126.2378
ENERGY: 600000 3.2987 3.9671 4.6980 0.0000 -10916.2647 1466.7045 0.0000 0.0000 1824.0724 -7613.5240 305.5642 -9437.5964 -7640.4193 299.4636 -267.2065 -158.7372 31042.8655 44.7768 117.2279
ENERGY: 900000 1.9213 4.4112 1.5169 0.0000 -10732.6284 1392.5367 0.0000 0.0000 1809.5453 -7522.6970 303.1307 -9332.2423 -7626.8110 298.6226 -395.1058 -388.6832 31291.1025 -73.0212 -14.8253
ENERGY: 1200000 2.7087 4.6871 4.6126 0.0000 -11000.1277 1523.3633 0.0000 0.0000 1780.5521 -7684.2039 298.2738 -9464.7560 -7624.9891 298.2416 592.8552 631.0702 30410.0667 -22.7975 32.4990
ENERGY: 1500000 4.9211 3.5605 2.3251 0.0000 -10872.8820 1446.2074 0.0000 0.0000 1787.8333 -7628.0346 299.4936 -9415.8679 -7623.4255 298.6073 -372.0455 -248.4520 30627.9982 -4.1753 51.3578
TCL: Running FEP window  12: Lambda1 0.5499999999999999 Lambda2 0.6    [dLambda 0.050000000000000044]
TCL: Setting parameter firsttimestep to 0
TCL: Setting parameter alchLambda to 0.5499999999999999
Info: NONBONDED TABLE R-SQUARED SPACING: 0.0625
Info: NONBONDED TABLE SIZE: 705 POINTS
TCL: Setting parameter alchLambda2 to 0.6
Info: NONBONDED TABLE R-SQUARED SPACING: 0.0625
Info: NONBONDED TABLE SIZE: 705 POINTS
TCL: Running for 1500000 steps
ETITLE: TS BOND ANGLE DIHED IMPRP ELECT VDW BOUNDARY MISC KINETIC TOTAL TEMP POTENTIAL TOTALAVG TEMPAVG PRESSURE GPRESSURE VOLUME PRESSAVG GPRESSAVG
ENERGY: 0 4.9211 3.5605 2.3251 0.0000 -10872.5859 1446.1153 0.0000 0.0000 1786.9407 -7628.7232 299.3440 -9415.6639 -7628.7232 299.3440 -329.2605 -237.1738 30627.9982 -329.2605 -237.1738
ENERGY: 300000 3.0440 4.3320 7.6759 0.0000 -10860.1458 1502.6586 0.0000 0.0000 1818.8564 -7523.5788 304.6905 -9342.4352 -7589.2709 301.8560 520.9741 520.0683 30786.3780 -215.4296 -131.9042
ENERGY: 600000 2.4348 4.2465 5.0187 0.0000 -10851.2420 1406.3851 0.0000 0.0000 1802.6239 -7630.5329 301.9712 -9433.1568 -7594.0448 300.9519 -512.1777 -457.5842 30662.5808 -239.4189 -164.6483
ENERGY: 900000 5.5125 5.9837 4.7937 0.0000 -10913.7836 1510.5250 0.0000 0.0000 1807.5259 -7579.4428 302.7924 -9386.9687 -7596.8796 301.3274 392.9076 406.0575 30954.4797 -114.0135 -51.6695
ENERGY: 1200000 4.8203 4.8946 5.8929 0.0000 -10840.0583 1447.5825 0.0000 0.0000 1758.3906 -7618.4773 294.5614 -9376.8679 -7586.0205 301.5058 -71.9163 -5.0166 30525.5384 -77.2442 -11.1753
ENERGY: 1500000 6.8444 3.6710 8.5584 0.0000 -10858.4288 1444.5000 0.0000 0.0000 1797.0318 -7597.8233 301.0345 -9394.8551 -7590.2683 301.0576 -3.0639 -5.3058 30328.3127 -86.1815 -33.7174
TCL: Running FEP window  13: Lambda1 0.6    Lambda2 0.65   [dLambda 0.050000000000000044]
TCL: Setting parameter firsttimestep to 0
TCL: Setting parameter alchLambda to 0.6
Info: NONBONDED TABLE R-SQUARED SPACING: 0.0625
Info: NONBONDED TABLE SIZE: 705 POINTS
TCL: Setting parameter alchLambda2 to 0.65
Info: NONBONDED TABLE R-SQUARED SPACING: 0.0625
Info: NONBONDED TABLE SIZE: 705 POINTS
TCL: Running for 1500000 steps
ETITLE: TS BOND ANGLE DIHED IMPRP ELECT VDW BOUNDARY MISC KINETIC TOTAL TEMP POTENTIAL TOTALAVG TEMPAVG PRESSURE GPRESSURE VOLUME PRESSAVG GPRESSAVG
ENERGY: 0 6.8444 3.6710 8.5584 0.0000 -10858.8969 1444.5670 0.0000 0.0000 1796.1392 -7599.1169 300.8849 -9395.2561 -7599.1169 300.8849 -82.2810 3.0833 30328.3127 -82.2810 3.0833
ENERGY: 300000 3.7632 6.0522 4.4344 0.0000 -10988.4952 1542.7506 0.0000 0.0000 1841.6408 -7589.8540 308.5073 -9431.4949 -7583.0640 302.4445 409.6552 501.4281 30974.6828 173.5604 246.7234
ENERGY: 600000 1.4333 6.2425 4.5322 0.0000 -11088.0469 1653.4227 0.0000 0.0000 1768.4337 -7653.9824 296.2438 -9422.4161 -7607.1567 298.9111 1720.0087 1779.5038 30477.9211 187.2386 245.4893
ENERGY: 900000 3.5510 3.1233 2.2414 0.0000 -10785.3154 1404.5277 0.0000 0.0000 1829.0580 -7542.8140 306.3994 -9371.8720 -7613.5119 299.7261 -371.9415 -362.7953 30991.8578 74.9644 137.2856
ENERGY: 1200000 2.9023 9.8388 2.2067 0.0000 -10756.6180 1386.1345 0.0000 0.0000 1776.5531 -7578.9827 297.6039 -9355.5358 -7607.8005 299.3778 -553.4670 -495.0263 30795.2344 4.5145 66.9773
ENERGY: 1500000 2.0377 5.7898 5.5029 0.0000 -10857.1234 1465.8769 0.0000 0.0000 1813.1204 -7564.7957 303.7296 -9377.9161 -7608.2406 299.5984 230.3917 260.5567 30626.9581 10.4858 69.0570
TCL: Running FEP window  14: Lambda1 0.65   Lambda2 0.7000000000000001 [dLambda 0.050000000000000044]
TCL: Setting parameter firsttimestep to 0
TCL: Setting parameter alchLambda to 0.65
Info: NONBONDED TABLE R-SQUARED SPACING: 0.0625
Info: NONBONDED TABLE SIZE: 705 POINTS
TCL: Setting parameter alchLambda2 to 0.7000000000000001
Info: NONBONDED TABLE R-SQUARED SPACING: 0.0625
Info: NONBONDED TABLE SIZE: 705 POINTS
TCL: Running for 1500000 steps
ETITLE: TS BOND ANGLE DIHED IMPRP ELECT VDW BOUNDARY MISC KINETIC TOTAL TEMP POTENTIAL TOTALAVG TEMPAVG PRESSURE GPRESSURE VOLUME PRESSAVG GPRESSAVG
ENERGY: 0 2.0377 5.7898 5.5029 0.0000 -10858.3671 1465.9591 0.0000 0.0000 1812.2327 -7566.8449 303.5809 -9379.0776 -7566.8449 303.5809 192.5563 267.1917 30626.9581 192.5563 267.1917
ENERGY: 300000 2.8825 5.5170 5.4784 0.0000 -10850.0321 1454.8848 0.0000 0.0000 1791.8669 -7589.4024 300.1693 -9381.2693 -7592.0007 299.1315 -256.5591 -208.5201 31397.4452 160.0463 202.9587
ENERGY: 600000 3.3690 4.8312 3.3195 0.0000 -10798.4349 1413.3237 0.0000 0.0000 1778.1566 -7595.4349 297.8725 -9373.5915 -7603.6964 297.8280 -572.5008 -479.0300 31337.6448 99.8827 168.6003
ENERGY: 900000 2.6154 5.7488 3.2234 0.0000 -10933.2991 1499.8953 0.0000 0.0000 1827.2307 -7594.5856 306.0933 -9421.8163 -7603.9845 297.7253 -28.9872 15.9242 31194.0832 -51.4025 9.7418
ENERGY: 1200000 1.5795 4.9989 5.1955 0.0000 -10890.7300 1504.0461 0.0000 0.0000 1749.5109 -7625.3990 293.0739 -9374.9100 -7608.8718 297.1765 501.8962 610.8648 30695.4055 -107.9219 -39.3271
ENERGY: 1500000 3.9599 7.3414 9.6907 0.0000 -10912.1707 1506.7898 0.0000 0.0000 1798.0909 -7586.2980 301.2119 -9384.3889 -7605.9131 297.6618 88.0220 184.0174 31098.3610 -134.6892 -65.6180
TCL: Running FEP window  15: Lambda1 0.7000000000000001 Lambda2 0.7500000000000001 [dLambda 0.050000000000000044]
TCL: Setting parameter firsttimestep to 0
TCL: Setting parameter alchLambda to 0.7000000000000001
Info: NONBONDED TABLE R-SQUARED SPACING: 0.0625
Info: NONBONDED TABLE SIZE: 705 POINTS
TCL: Setting parameter alchLambda2 to 0.7500000000000001
Info: NONBONDED TABLE R-SQUARED SPACING: 0.0625
Info: NONBONDED TABLE SIZE: 705 POINTS
TCL: Running for 1500000 steps
ETITLE: TS BOND ANGLE DIHED IMPRP ELECT VDW BOUNDARY MISC KINETIC TOTAL TEMP POTENTIAL TOTALAVG TEMPAVG PRESSURE GPRESSURE VOLUME PRESSAVG GPRESSAVG
ENERGY: 0 3.9599 7.3414 9.6907 0.0000 -10912.7542 1506.3460 0.0000 0.0000 1797.1899 -7588.2263 301.0609 -9385.4162 -7588.2263 301.0609 108.3393 187.5202 31098.3610 108.3393 187.5202
ENERGY: 300000 4.0036 4.8639 5.7382 0.0000 -10923.9728 1477.6018 0.0000 0.0000 1810.4469 -7621.3184 303.2817 -9431.7653 -7574.6025 302.3350 -152.7613 -89.4715 30951.2557 -120.1627 -70.9662
ENERGY: 600000 3.8185 4.7403 4.2983 0.0000 -10782.6545 1434.1298 0.0000 0.0000 1804.2163 -7531.4513 302.2380 -9335.6675 -7564.1703 302.5782 -421.4921 -384.1407 31562.7040 -99.3997 -30.9160
ENERGY: 900000 5.3816 8.4923 5.6288 0.0000 -10984.0254 1519.7968 0.0000 0.0000 1790.7033 -7654.0226 299.9743 -9444.7259 -7565.3029 303.2537 573.8308 666.4921 30254.6379 -14.3462 66.5935
ENERGY: 1200000 1.7266 5.1808 7.3152 0.0000 -10907.9803 1497.7656 0.0000 0.0000 1758.5228 -7637.4693 294.5835 -9395.9921 -7579.0121 301.8358 48.3483 71.2847 31161.3579 -51.9840 26.6290
ENERGY: 1500000 5.0757 5.0522 3.3912 0.0000 -10867.3161 1474.4229 0.0000 0.0000 1803.5759 -7575.7984 302.1307 -9379.3742 -7584.6672 302.1643 13.4296 112.7121 30819.7358 -60.4380 22.2615
TCL: Running FEP window  16: Lambda1 0.7500000000000001 Lambda2 0.8000000000000002 [dLambda 0.050000000000000044]
TCL: Setting parameter firsttimestep to 0
TCL: Setting parameter alchLambda to 0.7500000000000001
Info: NONBONDED TABLE R-SQUARED SPACING: 0.0625
Info: NONBONDED TABLE SIZE: 705 POINTS
TCL: Setting parameter alchLambda2 to 0.8000000000000002
Info: NONBONDED TABLE R-SQUARED SPACING: 0.0625
Info: NONBONDED TABLE SIZE: 705 POINTS
TCL: Running for 1500000 steps
ETITLE: TS BOND ANGLE DIHED IMPRP ELECT VDW BOUNDARY MISC KINETIC TOTAL TEMP POTENTIAL TOTALAVG TEMPAVG PRESSURE GPRESSURE VOLUME PRESSAVG GPRESSAVG
ENERGY: 0 5.0756 5.0522 3.3912 0.0000 -10868.4513 1473.9539 0.0000 0.0000 1802.6840 -7578.2945 301.9813 -9380.9785 -7578.2945 301.9813 28.2442 112.3353 30819.7358 28.2442 112.3353
ENERGY: 300000 5.0323 3.6123 6.4720 0.0000 -10797.8843 1411.6738 0.0000 0.0000 1806.6789 -7564.4149 302.6505 -9371.0938 -7580.8570 299.4464 -426.3692 -377.1723 31050.1756 252.7589 306.6735
ENERGY: 600000 4.2419 4.4762 1.6837 0.0000 -10925.0689 1533.4439 0.0000 0.0000 1808.5278 -7572.6954 302.9602 -9381.2232 -7579.2883 301.9221 542.2929 616.4023 30980.5918 92.7531 153.6145
ENERGY: 900000 5.4327 5.2777 3.8650 0.0000 -10864.8739 1439.3457 0.0000 0.0000 1800.1600 -7610.7928 301.5585 -9410.9528 -7594.5802 300.8339 -199.1233 -129.6925 30917.5062 47.8136 103.1835
ENERGY: 1200000 4.9839 5.5205 5.9899 0.0000 -10886.5332 1444.8927 0.0000 0.0000 1792.1109 -7633.0353 300.2101 -9425.1462 -7600.6748 300.7020 -428.3205 -398.4069 31112.6120 33.4862 75.0995
ENERGY: 1500000 5.7014 6.4982 5.2298 0.0000 -10826.3090 1448.0253 0.0000 0.0000 1767.9483 -7592.9060 296.1625 -9360.8543 -7593.7739 300.4067 -299.7106 -258.2914 31320.3874 49.4033 95.3295
TCL: Running FEP window  17: Lambda1 0.8000000000000002 Lambda2 0.8500000000000002 [dLambda 0.050000000000000044]
TCL: Setting parameter firsttimestep to 0
TCL: Setting parameter alchLambda to 0.8000000000000002
Info: NONBONDED TABLE R-SQUARED SPACING: 0.0625
Info: NONBONDED TABLE SIZE: 705 POINTS
TCL: Setting parameter alchLambda2 to 0.8500000000000002
Info: NONBONDED TABLE R-SQUARED SPACING: 0.0625
Info: NONBONDED TABLE SIZE: 705 POINTS
TCL: Running for 1500000 steps
ETITLE: TS BOND ANGLE DIHED IMPRP ELECT VDW BOUNDARY MISC KINETIC TOTAL TEMP POTENTIAL TOTALAVG TEMPAVG PRESSURE GPRESSURE VOLUME PRESSAVG GPRESSAVG
ENERGY: 0 5.7015 6.4981 5.2298 0.0000 -10826.9373 1447.6114 0.0000 0.0000 1767.0826 -7594.8138 296.0174 -9361.8964 -7594.8138 296.0174 -337.6427 -255.7312 31320.3874 -337.6427 -255.7312
ENERGY: 300000 5.4586 3.4588 4.1662 0.0000 -10879.7551 1449.5585 0.0000 0.0000 1800.7664 -7616.3466 301.6601 -9417.1131 -7609.7571 297.8295 -317.2878 -204.2689 30850.2965 -94.4633 -45.6316
ENERGY: 600000 2.9212 7.2184 6.9714 0.0000 -11021.6445 1507.0749 0.0000 0.0000 1764.4162 -7733.0425 295.5708 -9497.4587 -7627.5867 297.0681 -172.6175 -119.4872 30871.7868 -166.9269 -105.0677
ENERGY: 900000 3.3546 3.0633 1.7693 0.0000 -10926.3571 1494.1414 0.0000 0.0000 1793.7481 -7630.2806 300.4844 -9424.0286 -7617.7172 298.6796 455.8552 517.2696 30494.1095 -162.1824 -100.4054
ENERGY: 1200000 5.3305 3.5008 1.8940 0.0000 -11093.5435 1547.1188 0.0000 0.0000 1815.9765 -7719.7230 304.2080 -9535.6995 -7617.1781 299.1346 370.2213 492.8491 30525.9063 -116.4850 -48.7606
ENERGY: 1500000 3.0422 2.5173 2.9791 0.0000 -10988.9148 1560.9779 0.0000 0.0000 1793.9707 -7625.4275 300.5217 -9419.3982 -7626.0188 298.6186 513.7373 612.0873 30738.2223 -114.4537 -46.7889
TCL: Running FEP window  18: Lambda1 0.8500000000000002 Lambda2 0.9000000000000002 [dLambda 0.050000000000000044]
TCL: Setting parameter firsttimestep to 0
TCL: Setting parameter alchLambda to 0.8500000000000002
Info: NONBONDED TABLE R-SQUARED SPACING: 0.0625
Info: NONBONDED TABLE SIZE: 705 POINTS
TCL: Setting parameter alchLambda2 to 0.9000000000000002
Info: NONBONDED TABLE R-SQUARED SPACING: 0.0625
Info: NONBONDED TABLE SIZE: 705 POINTS
TCL: Running for 1500000 steps
ETITLE: TS BOND ANGLE DIHED IMPRP ELECT VDW BOUNDARY MISC KINETIC TOTAL TEMP POTENTIAL TOTALAVG TEMPAVG PRESSURE GPRESSURE VOLUME PRESSAVG GPRESSAVG
ENERGY: 0 3.0422 2.5173 2.9791 0.0000 -10990.8117 1561.5444 0.0000 0.0000 1793.0726 -7627.6560 300.3712 -9420.7286 -7627.6560 300.3712 548.8890 627.1469 30738.2223 548.8890 627.1469
ENERGY: 300000 4.1761 4.1109 3.5915 0.0000 -10842.1873 1411.7500 0.0000 0.0000 1774.0889 -7644.4700 297.1911 -9418.5589 -7632.7506 302.5205 -592.0496 -636.8421 31290.8483 -370.4580 -321.7603
ENERGY: 600000 7.9300 5.3951 1.9692 0.0000 -10925.4183 1461.9353 0.0000 0.0000 1835.8628 -7612.3258 307.5393 -9448.1886 -7619.5149 302.0660 -85.8459 -33.7633 30235.7082 -299.7717 -238.1228
ENERGY: 900000 4.3369 3.5268 3.7529 0.0000 -10778.0832 1403.9013 0.0000 0.0000 1765.4199 -7597.1454 295.7389 -9362.5653 -7608.1805 300.6434 -602.8538 -553.4802 31187.6948 -290.8455 -222.9838
ENERGY: 1200000 3.4193 4.3610 2.4755 0.0000 -10911.7137 1464.5727 0.0000 0.0000 1815.0140 -7621.8712 304.0468 -9436.8853 -7606.7405 300.9383 170.5296 225.6589 30529.1734 -295.0597 -229.2016
ENERGY: 1500000 2.3197 4.8325 3.7494 0.0000 -10854.7079 1482.4390 0.0000 0.0000 1829.2566 -7532.1107 306.4327 -9361.3673 -7601.4611 301.3184 129.0686 293.3067 30665.8933 -323.5853 -257.3526
TCL: Running FEP window  19: Lambda1 0.9000000000000002 Lambda2 0.9500000000000003 [dLambda 0.050000000000000044]
TCL: Setting parameter firsttimestep to 0
TCL: Setting parameter alchLambda to 0.9000000000000002
Info: NONBONDED TABLE R-SQUARED SPACING: 0.0625
Info: NONBONDED TABLE SIZE: 705 POINTS
TCL: Setting parameter alchLambda2 to 0.9500000000000003
Info: NONBONDED TABLE R-SQUARED SPACING: 0.0625
Info: NONBONDED TABLE SIZE: 705 POINTS
TCL: Running for 1500000 steps
ETITLE: TS BOND ANGLE DIHED IMPRP ELECT VDW BOUNDARY MISC KINETIC TOTAL TEMP POTENTIAL TOTALAVG TEMPAVG PRESSURE GPRESSURE VOLUME PRESSAVG GPRESSAVG
ENERGY: 0 2.3197 4.8325 3.7494 0.0000 -10855.4688 1482.1621 0.0000 0.0000 1828.3212 -7534.0841 306.2760 -9362.4052 -7534.0841 306.2760 199.3120 299.3889 30665.8933 199.3120 299.3889
ENERGY: 300000 2.2853 2.7127 2.0295 0.0000 -10852.3666 1466.9290 0.0000 0.0000 1792.9080 -7585.5021 300.3437 -9378.4101 -7577.9419 298.4145 -57.8311 5.0752 30974.5988 43.0264 110.0566
ENERGY: 600000 4.7230 8.5388 7.6619 0.0000 -11046.4764 1507.0278 0.0000 0.0000 1774.2739 -7744.2510 297.2221 -9518.5249 -7621.5165 297.5639 -192.6731 -130.6012 30942.5433 -41.8076 8.5378
ENERGY: 900000 3.8585 4.0086 2.3187 0.0000 -10832.9514 1465.5882 0.0000 0.0000 1798.8812 -7558.2963 301.3443 -9357.1774 -7622.2019 297.9526 110.9418 211.2441 30905.8043 -148.9132 -83.8193
ENERGY: 1200000 3.2510 3.3743 2.9958 0.0000 -10796.2450 1444.0564 0.0000 0.0000 1847.3448 -7495.2228 309.4628 -9342.5676 -7606.5711 298.7471 -195.2358 -62.9426 31344.1923 -209.1379 -144.0854
ENERGY: 1500000 2.7902 7.0517 5.0206 0.0000 -10820.5139 1423.6560 0.0000 0.0000 1790.7833 -7591.2121 299.9877 -9381.9953 -7604.3765 299.0828 -404.5295 -285.0073 31384.6906 -238.7547 -168.3331
TCL: Running FEP window  20: Lambda1 0.9500000000000003 Lambda2 1.0    [dLambda 0.04999999999999971]
TCL: Setting parameter firsttimestep to 0
TCL: Setting parameter alchLambda to 0.9500000000000003
Info: NONBONDED TABLE R-SQUARED SPACING: 0.0625
Info: NONBONDED TABLE SIZE: 705 POINTS
TCL: Setting parameter alchLambda2 to 1.0
Info: NONBONDED TABLE R-SQUARED SPACING: 0.0625
Info: NONBONDED TABLE SIZE: 705 POINTS
TCL: Running for 1500000 steps
ETITLE: TS BOND ANGLE DIHED IMPRP ELECT VDW BOUNDARY MISC KINETIC TOTAL TEMP POTENTIAL TOTALAVG TEMPAVG PRESSURE GPRESSURE VOLUME PRESSAVG GPRESSAVG
ENERGY: 0 2.7902 7.0517 5.0206 0.0000 -10821.3192 1422.8359 0.0000 0.0000 1789.8786 -7593.7422 299.8362 -9383.6208 -7593.7422 299.8362 -364.5214 -286.1635 31384.6906 -364.5214 -286.1635
ENERGY: 300000 4.0136 1.9392 5.4368 0.0000 -10942.3252 1476.8799 0.0000 0.0000 1837.7188 -7616.3369 307.8503 -9454.0557 -7600.1000 304.4817 -32.0384 32.6586 30690.7202 152.6485 235.1031
ENERGY: 600000 3.0293 4.6097 2.4289 0.0000 -10673.7326 1319.2180 0.0000 0.0000 1801.2608 -7543.1859 301.7429 -9344.4467 -7598.0066 301.5151 -1027.6000 -995.8346 31224.7995 -36.8473 31.8531
ENERGY: 900000 5.5621 2.2119 2.3141 0.0000 -10867.4160 1514.8555 0.0000 0.0000 1827.5540 -7514.9185 306.1475 -9342.4725 -7603.2065 301.6444 386.6285 460.9555 31144.9911 167.3765 237.5270
ENERGY: 1200000 5.3890 5.2607 3.6784 0.0000 -10903.1211 1467.0974 0.0000 0.0000 1847.1139 -7574.5817 309.4241 -9421.6956 -7592.7753 302.3722 -235.0091 -208.9980 31329.1996 101.5731 165.2113
ENERGY: 1500000 2.9214 2.8065 3.6463 0.0000 -10757.7842 1394.0485 0.0000 0.0000 1828.2930 -7526.0684 306.2713 -9354.3614 -7590.1579 301.1793 -18.1047 31.6833 30398.8334 71.2005 125.0648
TCL: Exiting due to exit command.
