Info: SIMULATION PARAMETERS:
Info: TIMESTEP               2
Info: NUMBER OF STEPS        0
Info: STEPS PER CYCLE        10
Info: PERIODIC CELL BASIS 1  31.342 0 0
Info: PERIODIC CELL BASIS 2  0 30.1603 0
Info: PERIODIC CELL BASIS 3  0 0 32.4573
Info: PERIODIC CELL CENTER   0 0 0
Info: WRAPPING WATERS AROUND PERIODIC BOUNDARIES ON OUTPUT.
Info: WRAPPING ALL CLUSTERS AROUND PERIODIC BOUNDARIES ON OUTPUT.
Info: FIRST LDB TIMESTEP     50
Info: LAST LDB TIMESTEP     -1
Info: HOM BACKGROUND SCALING 1
Info: PME BACKGROUND SCALING 1
Info: MIN ATOMS PER PATCH    40
Info: EMPTY PATCH LOAD       40 ATOMS
Info: VELOCITY FILE          mobley_6743808_equil.vel
Info: CENTER OF MASS MOVING INITIALLY? NO
Info: DIELECTRIC             1
Info: EXCLUDE                SCALED ONE-FOUR
Info: 1-4 ELECTROSTATICS SCALED BY 0.833333
Info: MODIFIED 1-4 VDW PARAMETERS WILL BE USED
Info: DCD FILENAME           mobley_6743808_prod.dcd
Info: DCD FREQUENCY          100000
Info: DCD FIRST STEP         100000
Info: DCD FILE WILL CONTAIN UNIT CELL DATA
Info: XST FILENAME           mobley_6743808_prod.xst
Info: XST FREQUENCY          100000
Info: NO VELOCITY DCD OUTPUT
Info: NO FORCE DCD OUTPUT
Info: OUTPUT FILENAME        mobley_6743808_prod
Info: BINARY OUTPUT FILES WILL BE USED
Info: RESTART FILENAME       mobley_6743808_prod.restart
Info: RESTART FREQUENCY      100000
Info: BINARY RESTART FILES WILL BE USED
Info: CUTOFF                 9
Info: PAIRLIST DISTANCE      11
Info: PAIRLIST SHRINK RATE   0.01
Info: PAIRLIST GROW RATE     0.01
Info: PAIRLIST TRIGGER       0.3
Info: PAIRLISTS PER CYCLE    2
Info: PAIRLISTS ENABLED
Info: MARGIN                 2
Info: HYDROGEN GROUP CUTOFF  2.5
Info: PATCH DIMENSION        15.5
Info: ENERGY OUTPUT STEPS    100000
Info: ENERGY EVALUATION STEPS    100000
Info: OUTPUT ENERGY PRECISION 4
Info: CROSSTERM ENERGY INCLUDED IN DIHEDRAL
Info: TIMING OUTPUT STEPS    1000000
Info: PRESSURE OUTPUT STEPS  100000
Info: ALCHEMICAL FEP ON
Info: FEP CURRENT LAMBDA VALUE     1
Info: FEP COMPARISON LAMBDA VALUE  0.95
Info: FEP INTRA-ALCHEMICAL NON-BONDED INTERACTIONS WILL BE RETAINED
Info: FEP INTRA-ALCHEMICAL BONDED INTERACTIONS WILL BE RETAINED
Info: FEP VDW SHIFTING COEFFICIENT 5
Info: FEP ELEC. ACTIVE FOR ANNIHILATED PARTICLES BETWEEN LAMBDA = 0 AND LAMBDA = 0.5
Info: FEP ELEC. ACTIVE FOR EXNIHILATED PARTICLES BETWEEN LAMBDA = 0.5 AND LAMBDA = 1
Info: FEP VDW ACTIVE FOR ANNIHILATED PARTICLES BETWEEN LAMBDA = 0 AND LAMBDA = 1
Info: FEP VDW ACTIVE FOR EXNIHILATED PARTICLES BETWEEN LAMBDA = 0 AND LAMBDA = 1
Info: FEP BOND ACTIVE FOR ANNIHILATED PARTICLES BETWEEN LAMBDA = 1 AND LAMBDA = 1
Info: FEP BOND ACTIVE FOR EXNIHILATED PARTICLES BETWEEN LAMBDA = 0 AND LAMBDA = 0
Info: LANGEVIN DYNAMICS ACTIVE
Info: LANGEVIN TEMPERATURE   300
Info: LANGEVIN USING BBK INTEGRATOR
Info: LANGEVIN DAMPING COEFFICIENT IS 1 INVERSE PS
Info: LANGEVIN DYNAMICS APPLIED TO HYDROGENS
Info: LANGEVIN PISTON PRESSURE CONTROL ACTIVE
Info:        TARGET PRESSURE IS 1.01325 BAR
Info:     OSCILLATION PERIOD IS 50 FS
Info:             DECAY TIME IS 25 FS
Info:     PISTON TEMPERATURE IS 300 K
Info:       PRESSURE CONTROL IS GROUP-BASED
Info:    INITIAL STRAIN RATE IS -0.000229643 -0.000229643 -0.000229643
Info:       CELL FLUCTUATION IS ISOTROPIC
Info: PARTICLE MESH EWALD (PME) ACTIVE
Info: PME TOLERANCE               1e-06
Info: PME EWALD COEFFICIENT       0.348832
Info: PME INTERPOLATION ORDER     4
Info: PME GRID DIMENSIONS         32 32 36
Info: PME MAXIMUM GRID SPACING    1
Info: PME CALCULATION WILL BE PERFORMED ON GPU
Info: FULL ELECTROSTATIC EVALUATION FREQUENCY      2
Info: USING VERLET I (r-RESPA) MTS SCHEME.
Info: C1 SPLITTING OF LONG RANGE ELECTROSTATICS
Info: PLACING ATOMS IN PATCHES BY HYDROGEN GROUPS
Info: RIGID BONDS TO HYDROGEN : ALL
Info:         ERROR TOLERANCE : 1e-08
Info:          MAX ITERATIONS : 100
Info: RIGID WATER USING SETTLE ALGORITHM
Info: RANDOM NUMBER SEED     1743626200
Info: USE HYDROGEN BONDS?    NO
Info: Using AMBER format force field!
Info: AMBER PARM FILE        mobley_6743808.prmtop
Info: COORDINATE PDB         mobley_6743808.pdb
Info: Exclusions will be read from PARM file!
Info: SCNB (VDW SCALING)     2
Info: USING ARITHMETIC MEAN TO COMBINE L-J SIGMA PARAMETERS
Info: BINARY COORDINATES     mobley_6743808_equil.coor
Info: SUMMARY OF PARAMETERS:
Info: 8 BONDS
Info: 7 ANGLES
Info:   7 HARMONIC
Info:   0 COSINE-BASED
Info: 4 DIHEDRAL
Info: 0 IMPROPER
Info: 0 CROSSTERM
Info: 0 VDW
Info: 28 VDW_PAIRS
Info: 0 NBTHOLE_PAIRS
Info: To read alchdata from file: mobley_6743808.pdb
Info: To read alchflag data from column: 5
Info: STRUCTURE SUMMARY:
Info: 2965 ATOMS
Info: 2965 BONDS
Info: 31 ANGLES
Info: 44 DIHEDRALS
Info: 0 IMPROPERS
Info: 0 CROSSTERMS
Info: 3031 EXCLUSIONS
Info: 2956 RIGID BONDS
Info: ALCH: 0 ATOMS TO DISAPPEAR IN FINAL STATE
Info: ALCH: 19 ATOMS TO APPEAR IN FINAL STATE
Info: 5939 DEGREES OF FREEDOM
Info: 991 HYDROGEN GROUPS
Info: 4 ATOMS IN LARGEST HYDROGEN GROUP
Info: 991 MIGRATION GROUPS
Info: 4 ATOMS IN LARGEST MIGRATION GROUP
Info: TOTAL MASS = 17813.9 amu
Info: TOTAL CHARGE = -1.11759e-08 e
Info: MASS DENSITY = 0.964145 g/cm^3
Info: ATOM DENSITY = 0.0966384 atoms/A^3
Info: ADDED 0 IMPLICIT EXCLUSIONS
Info: NONBONDED TABLE R-SQUARED SPACING: 0.0625
Info: NONBONDED TABLE SIZE: 705 POINTS
Info: REMOVING COM VELOCITY 0.0174712 -0.00933653 -0.260259
Info: Use 3D box decompostion in PME FFT.
Info: Updated CUDA force table with 4096 elements.
Info: Updated CUDA LJ table with 7 x 7 elements.
Info: Found 18 unique exclusion lists needing 44 bytes
TCL: Running for 1500000 steps
ETITLE: TS BOND ANGLE DIHED IMPRP ELECT VDW BOUNDARY MISC KINETIC TOTAL TEMP POTENTIAL TOTALAVG TEMPAVG PRESSURE GPRESSURE VOLUME PRESSAVG GPRESSAVG
ENERGY: 0 1.6189 5.9072 3.3945 0.0000 -10831.2279 1507.9116 0.0000 0.0000 1776.2393 -7536.1564 301.0083 -9312.3956 -7536.1564 301.0083 385.2743 486.8691 30681.3988 385.2743 486.8691
ENERGY: 300000 3.4158 6.0340 4.2575 0.0000 -10651.7033 1360.9928 0.0000 0.0000 1776.9824 -7500.0208 301.1343 -9277.0032 -7559.2303 301.2030 -529.8258 -476.6232 30371.0865 -207.7428 -145.3354
ENERGY: 600000 1.9097 4.9303 1.9117 0.0000 -10727.7020 1435.3849 0.0000 0.0000 1806.2316 -7477.3337 306.0910 -9283.5653 -7533.0135 300.5265 78.3567 132.7512 30594.0927 -131.0746 -70.0135
ENERGY: 900000 3.1597 4.6138 2.4218 0.0000 -10797.1425 1475.7922 0.0000 0.0000 1850.3185 -7460.8366 313.5621 -9311.1551 -7531.7304 301.5033 -43.0341 39.2749 30986.0622 -51.3185 13.7566
ENERGY: 1200000 1.9314 3.4717 5.6397 0.0000 -10828.9485 1526.2884 0.0000 0.0000 1760.2948 -7531.3224 298.3063 -9291.6173 -7534.5941 300.5625 756.6990 791.5003 30216.9040 36.0664 105.1639
ENERGY: 1500000 2.9159 6.2082 2.0583 0.0000 -10823.2582 1531.6165 0.0000 0.0000 1806.5734 -7473.8858 306.1489 -9280.4592 -7522.9812 300.3062 753.3942 810.1898 30544.0014 29.9650 92.6692
TCL: Running FEP window   2: Lambda1 0.95   Lambda2 0.8999999999999999 [dLambda -0.050000000000000044]
TCL: Setting parameter firsttimestep to 0
TCL: Setting parameter alchLambda to 0.95
Info: NONBONDED TABLE R-SQUARED SPACING: 0.0625
Info: NONBONDED TABLE SIZE: 705 POINTS
TCL: Setting parameter alchLambda2 to 0.8999999999999999
Info: NONBONDED TABLE R-SQUARED SPACING: 0.0625
Info: NONBONDED TABLE SIZE: 705 POINTS
TCL: Running for 1500000 steps
ETITLE: TS BOND ANGLE DIHED IMPRP ELECT VDW BOUNDARY MISC KINETIC TOTAL TEMP POTENTIAL TOTALAVG TEMPAVG PRESSURE GPRESSURE VOLUME PRESSAVG GPRESSAVG
ENERGY: 0 2.9159 6.2082 2.0583 0.0000 -10821.6008 1531.0796 0.0000 0.0000 1805.7347 -7473.6041 306.0068 -9279.3388 -7473.6041 306.0068 719.4956 795.6215 30544.0014 719.4956 795.6215
ENERGY: 300000 2.5954 6.8050 1.6454 0.0000 -10812.1713 1465.8447 0.0000 0.0000 1829.3229 -7505.9579 310.0041 -9335.2808 -7491.0377 305.5030 257.7932 328.8019 30352.1463 102.4526 181.2737
ENERGY: 600000 1.3831 5.9153 2.5214 0.0000 -10662.5266 1366.1983 0.0000 0.0000 1729.6531 -7556.8554 293.1137 -9286.5085 -7530.8856 300.8321 -486.7027 -356.2304 30238.5457 -109.9010 -26.7118
ENERGY: 900000 1.3452 5.8403 3.1924 0.0000 -10872.3434 1564.1365 0.0000 0.0000 1779.6675 -7518.1615 301.5893 -9297.8290 -7524.4848 301.4644 1179.4413 1192.7802 30202.6874 58.5918 127.0886
ENERGY: 1200000 4.7609 6.4116 3.1079 0.0000 -10771.0705 1423.9866 0.0000 0.0000 1713.3384 -7619.4650 290.3489 -9332.8034 -7538.0670 299.6800 -443.7098 -396.3848 30471.6085 86.3763 151.9419
ENERGY: 1500000 4.5133 8.0258 5.8407 0.0000 -10840.3835 1495.9618 0.0000 0.0000 1778.0563 -7547.9856 301.3163 -9326.0419 -7535.8464 299.8477 859.2167 837.8963 29895.5917 127.7542 185.0068
TCL: Running FEP window   3: Lambda1 0.8999999999999999 Lambda2 0.8499999999999999 [dLambda -0.050000000000000044]
TCL: Setting parameter firsttimestep to 0
TCL: Setting parameter alchLambda to 0.8999999999999999
Info: NONBONDED TABLE R-SQUARED SPACING: 0.0625
Info: NONBONDED TABLE SIZE: 705 POINTS
TCL: Setting parameter alchLambda2 to 0.8499999999999999
Info: NONBONDED TABLE R-SQUARED SPACING: 0.0625
Info: NONBONDED TABLE SIZE: 705 POINTS
TCL: Running for 1500000 steps
ETITLE: TS BOND ANGLE DIHED IMPRP ELECT VDW BOUNDARY MISC KINETIC TOTAL TEMP POTENTIAL TOTALAVG TEMPAVG PRESSURE GPRESSURE VOLUME PRESSAVG GPRESSAVG
ENERGY: 0 4.5134 8.0258 5.8407 0.0000 -10838.7316 1495.2778 0.0000 0.0000 1777.2026 -7547.8713 301.1716 -9325.0739 -7547.8713 301.1716 732.2278 816.3098 29895.5917 732.2278 816.3098
ENERGY: 300000 1.6974 8.1939 3.5470 0.0000 -10715.6457 1357.7854 0.0000 0.0000 1771.8145 -7572.6075 300.2585 -9344.4221 -7518.6312 301.1113 -756.3916 -688.0907 30544.6797 169.4783 246.4114
ENERGY: 600000 2.6522 7.9323 3.1025 0.0000 -10670.0540 1380.5951 0.0000 0.0000 1752.7502 -7523.0216 297.0278 -9275.7718 -7500.4239 301.6337 -358.4114 -311.7923 30391.3653 -28.3091 26.9398
ENERGY: 900000 2.3505 5.7268 2.9212 0.0000 -10744.7765 1446.9746 0.0000 0.0000 1735.9924 -7550.8111 294.1879 -9286.8034 -7491.8563 300.0784 268.7053 313.4520 30090.6292 10.9822 67.8278
ENERGY: 1200000 4.2337 6.0165 2.6759 0.0000 -10908.3716 1533.9806 0.0000 0.0000 1785.1555 -7576.3093 302.5193 -9361.4649 -7507.9125 300.6013 630.5703 726.6010 30062.6202 -3.5645 53.5747
ENERGY: 1500000 3.7805 8.5283 4.6408 0.0000 -10632.3208 1428.7683 0.0000 0.0000 1783.7162 -7402.8866 302.2754 -9186.6027 -7510.0604 300.4593 277.4371 262.4424 30525.2017 22.6652 76.3986
TCL: Running FEP window   4: Lambda1 0.8499999999999999 Lambda2 0.7999999999999998 [dLambda -0.050000000000000044]
TCL: Setting parameter firsttimestep to 0
TCL: Setting parameter alchLambda to 0.8499999999999999
Info: NONBONDED TABLE R-SQUARED SPACING: 0.0625
Info: NONBONDED TABLE SIZE: 705 POINTS
TCL: Setting parameter alchLambda2 to 0.7999999999999998
Info: NONBONDED TABLE R-SQUARED SPACING: 0.0625
Info: NONBONDED TABLE SIZE: 705 POINTS
TCL: Running for 1500000 steps
ETITLE: TS BOND ANGLE DIHED IMPRP ELECT VDW BOUNDARY MISC KINETIC TOTAL TEMP POTENTIAL TOTALAVG TEMPAVG PRESSURE GPRESSURE VOLUME PRESSAVG GPRESSAVG
ENERGY: 0 3.7805 8.5283 4.6408 0.0000 -10630.8828 1428.7007 0.0000 0.0000 1782.8368 -7402.3956 302.1264 -9185.2325 -7402.3956 302.1264 165.4210 256.3317 30525.2017 165.4210 256.3317
ENERGY: 300000 6.5081 3.6386 3.0564 0.0000 -10676.3972 1391.2012 0.0000 0.0000 1808.2675 -7463.7253 306.4360 -9271.9929 -7505.7101 301.3179 -898.7075 -789.4096 31109.3608 -256.2816 -183.9144
ENERGY: 600000 5.1102 13.3200 2.2615 0.0000 -10675.5299 1409.2527 0.0000 0.0000 1861.0513 -7384.5342 315.3809 -9245.5855 -7489.4809 302.5237 -208.6453 -158.8307 30735.9399 76.9108 137.4072
ENERGY: 900000 2.1690 3.9745 0.9643 0.0000 -10760.5211 1460.2386 0.0000 0.0000 1751.2107 -7541.9641 296.7669 -9293.1747 -7502.4097 302.6865 65.2914 181.9090 30413.5127 -67.8470 1.6634
ENERGY: 1200000 1.9208 11.2830 1.9775 0.0000 -10553.2686 1314.0167 0.0000 0.0000 1780.6378 -7443.4328 301.7537 -9224.0706 -7510.9633 302.0727 -511.9444 -409.4487 30522.6763 -34.7719 32.8940
ENERGY: 1500000 6.4204 6.2329 2.1193 0.0000 -10776.7506 1471.4042 0.0000 0.0000 1744.3907 -7546.1831 295.6112 -9290.5738 -7511.3990 301.1471 62.4194 137.3075 30660.7917 -53.6933 14.7129
TCL: Running FEP window   5: Lambda1 0.7999999999999998 Lambda2 0.7499999999999998 [dLambda -0.050000000000000044]
TCL: Setting parameter firsttimestep to 0
TCL: Setting parameter alchLambda to 0.7999999999999998
Info: NONBONDED TABLE R-SQUARED SPACING: 0.0625
Info: NONBONDED TABLE SIZE: 705 POINTS
TCL: Setting parameter alchLambda2 to 0.7499999999999998
Info: NONBONDED TABLE R-SQUARED SPACING: 0.0625
Info: NONBONDED TABLE SIZE: 705 POINTS
TCL: Running for 1500000 steps
ETITLE: TS BOND ANGLE DIHED IMPRP ELECT VDW BOUNDARY MISC KINETIC TOTAL TEMP POTENTIAL TOTALAVG TEMPAVG PRESSURE GPRESSURE VOLUME PRESSAVG GPRESSAVG
ENERGY: 0 6.4204 6.2329 2.1193 0.0000 -10774.9596 1470.9453 0.0000 0.0000 1743.4993 -7545.7424 295.4601 -9289.2418 -7545.7424 295.4601 30.3132 126.7868 30660.7917 30.3132 126.7868
ENERGY: 300000 1.2277 4.5106 1.5975 0.0000 -10636.1014 1330.4554 0.0000 0.0000 1773.4334 -7524.8768 300.5328 -9298.3102 -7503.8376 299.5974 -1103.3626 -1018.6542 30964.8961 -376.2707 -323.9553
ENERGY: 600000 4.4856 6.9049 2.5932 0.0000 -10611.7437 1334.8858 0.0000 0.0000 1746.5005 -7516.3737 295.9687 -9262.8742 -7522.5221 299.3905 -1328.9814 -1188.9194 31138.7011 -480.4300 -413.7668
ENERGY: 900000 4.7934 5.9692 1.9805 0.0000 -10689.0186 1406.3807 0.0000 0.0000 1753.5499 -7516.3450 297.1633 -9269.8948 -7519.2860 298.8489 -343.7581 -283.9370 30725.7255 -453.5054 -390.7535
ENERGY: 1200000 2.8098 9.1304 3.3424 0.0000 -10619.6114 1336.6064 0.0000 0.0000 1693.3780 -7574.3444 286.9664 -9267.7225 -7525.0540 297.5501 -807.5113 -775.9737 30525.0857 -365.8922 -308.5560
ENERGY: 1500000 2.1769 7.5036 1.4970 0.0000 -10795.9995 1438.6992 0.0000 0.0000 1782.7576 -7563.3653 302.1130 -9346.1229 -7534.2595 297.7325 -229.6984 -157.0965 30688.3387 -304.3910 -242.9050
TCL: Running FEP window   6: Lambda1 0.7499999999999998 Lambda2 0.6999999999999997 [dLambda -0.050000000000000044]
TCL: Setting parameter firsttimestep to 0
TCL: Setting parameter alchLambda to 0.7499999999999998
Info: NONBONDED TABLE R-SQUARED SPACING: 0.0625
Info: NONBONDED TABLE SIZE: 705 POINTS
TCL: Setting parameter alchLambda2 to 0.6999999999999997
Info: NONBONDED TABLE R-SQUARED SPACING: 0.0625
Info: NONBONDED TABLE SIZE: 705 POINTS
TCL: Running for 1500000 steps
ETITLE: TS BOND ANGLE DIHED IMPRP ELECT VDW BOUNDARY MISC KINETIC TOTAL TEMP POTENTIAL TOTALAVG TEMPAVG PRESSURE GPRESSURE VOLUME PRESSAVG GPRESSAVG
ENERGY: 0 2.1769 7.5036 1.4970 0.0000 -10794.1081 1438.1663 0.0000 0.0000 1781.8603 -7562.9040 301.9609 -9344.7643 -7562.9040 301.9609 -253.9424 -167.0566 30688.3387 -253.9424 -167.0566
ENERGY: 300000 5.3097 6.7692 2.5300 0.0000 -10515.0041 1311.1830 0.0000 0.0000 1752.4238 -7436.7884 296.9725 -9189.2123 -7489.8491 299.8330 -995.9450 -1020.2098 30879.5465 -16.5796 29.4154
ENERGY: 600000 3.1399 5.6047 3.5855 0.0000 -10836.4090 1508.5676 0.0000 0.0000 1717.1572 -7598.3540 290.9961 -9315.5113 -7522.8283 299.2126 347.4347 443.2320 30219.3466 -65.4410 -13.4642
ENERGY: 900000 3.3108 6.8817 1.8774 0.0000 -10840.9644 1442.2642 0.0000 0.0000 1751.5894 -7635.0408 296.8311 -9386.6302 -7528.5503 300.8255 0.8028 46.9344 30197.5343 -83.9705 -33.8602
ENERGY: 1200000 2.2921 8.1369 3.7143 0.0000 -10752.2945 1492.6957 0.0000 0.0000 1781.5503 -7463.9053 301.9084 -9245.4555 -7525.8073 299.4797 712.7881 768.5859 30080.3083 -103.2578 -48.1172
ENERGY: 1500000 3.0012 6.6189 7.5367 0.0000 -10639.5230 1328.4985 0.0000 0.0000 1761.7442 -7532.1235 298.5520 -9293.8677 -7527.5739 299.1281 -743.7554 -677.6337 30204.1534 -88.3616 -34.7966
TCL: Running FEP window   7: Lambda1 0.6999999999999997 Lambda2 0.6499999999999997 [dLambda -0.050000000000000044]
TCL: Setting parameter firsttimestep to 0
TCL: Setting parameter alchLambda to 0.6999999999999997
Info: NONBONDED TABLE R-SQUARED SPACING: 0.0625
Info: NONBONDED TABLE SIZE: 705 POINTS
TCL: Setting parameter alchLambda2 to 0.6499999999999997
Info: NONBONDED TABLE R-SQUARED SPACING: 0.0625
Info: NONBONDED TABLE SIZE: 705 POINTS
TCL: Running for 1500000 steps
ETITLE: TS BOND ANGLE DIHED IMPRP ELECT VDW BOUNDARY MISC KINETIC TOTAL TEMP POTENTIAL TOTALAVG TEMPAVG PRESSURE GPRESSURE VOLUME PRESSAVG GPRESSAVG
ENERGY: 0 3.0012 6.6189 7.5367 0.0000 -10639.2302 1328.9544 0.0000 0.0000 1760.8772 -7532.2418 298.4050 -9293.1190 -7532.2418 298.4050 -769.9558 -682.5411 30204.1534 -769.9558 -682.5411
ENERGY: 300000 2.4601 5.5134 2.6164 0.0000 -10821.5794 1492.9939 0.0000 0.0000 1765.8994 -7552.0960 299.2561 -9317.9954 -7516.6637 300.3980 319.5012 399.2290 30668.6489 -443.0950 -368.3784
ENERGY: 600000 5.6398 5.4180 3.2128 0.0000 -10788.3594 1468.1300 0.0000 0.0000 1775.8573 -7530.1015 300.9436 -9305.9588 -7532.4371 298.7026 121.7387 196.6403 30556.1949 -387.0363 -318.4288
ENERGY: 900000 3.4453 5.5094 5.1675 0.0000 -10646.9565 1376.5985 0.0000 0.0000 1791.2258 -7465.0100 303.5480 -9256.2359 -7528.3700 300.5060 -863.4597 -781.6584 31109.9563 -311.0506 -243.6283
ENERGY: 1200000 6.7288 4.7259 2.8722 0.0000 -10812.7117 1455.3253 0.0000 0.0000 1745.6941 -7597.3655 295.8320 -9343.0595 -7535.9483 300.3121 -124.7548 -62.4486 30161.0574 -252.1825 -189.9817
ENERGY: 1500000 3.9057 4.5159 3.3604 0.0000 -10624.1022 1426.2172 0.0000 0.0000 1778.0108 -7408.0922 301.3085 -9186.1030 -7533.5505 300.9151 208.3933 320.4034 30332.7880 -205.1495 -133.0559
TCL: Running FEP window   8: Lambda1 0.6499999999999997 Lambda2 0.5999999999999996 [dLambda -0.050000000000000044]
TCL: Setting parameter firsttimestep to 0
TCL: Setting parameter alchLambda to 0.6499999999999997
Info: NONBONDED TABLE R-SQUARED SPACING: 0.0625
Info: NONBONDED TABLE SIZE: 705 POINTS
TCL: Setting parameter alchLambda2 to 0.5999999999999996
Info: NONBONDED TABLE R-SQUARED SPACING: 0.0625
Info: NONBONDED TABLE SIZE: 705 POINTS
TCL: Running for 1500000 steps
ETITLE: TS BOND ANGLE DIHED IMPRP ELECT VDW BOUNDARY MISC KINETIC TOTAL TEMP POTENTIAL TOTALAVG TEMPAVG PRESSURE GPRESSURE VOLUME PRESSAVG GPRESSAVG
ENERGY: 0 3.9057 4.5159 3.3604 0.0000 -10623.1635 1426.2562 0.0000 0.0000 1777.1452 -7407.9801 301.1619 -9185.1253 -7407.9801 301.1619 237.4206 311.9485 30332.7880 237.4206 311.9485
ENERGY: 300000 2.9520 5.9670 2.5210 0.0000 -10681.0061 1421.7064 0.0000 0.0000 1735.0081 -7512.8517 294.0211 -9247.8597 -7450.1525 300.7328 -110.5062 -39.1039 30478.0731 41.0648 129.5253
ENERGY: 600000 1.9077 8.4867 1.1893 0.0000 -10711.7447 1423.8333 0.0000 0.0000 1775.8218 -7500.5060 300.9376 -9276.3278 -7481.8188 302.4804 -158.4339 -108.2646 30526.3290 103.3309 180.8205
ENERGY: 900000 3.7171 12.3529 3.4682 0.0000 -10766.7707 1398.5085 0.0000 0.0000 1860.2159 -7488.5081 315.2393 -9348.7240 -7479.3112 303.1827 -714.8436 -623.4172 30723.6344 58.0245 135.9659
ENERGY: 1200000 2.8193 3.9476 1.9060 0.0000 -10764.8008 1424.2203 0.0000 0.0000 1766.0150 -7565.8926 299.2757 -9331.9076 -7498.3007 302.1297 -195.1286 -121.5515 30557.7977 155.9463 226.1543
ENERGY: 1500000 2.1730 5.0973 3.8525 0.0000 -10636.1991 1372.7918 0.0000 0.0000 1782.0653 -7470.2191 301.9956 -9252.2844 -7503.4935 300.4114 -357.3098 -294.7013 30540.9381 108.0505 177.8372
TCL: Running FEP window   9: Lambda1 0.5999999999999996 Lambda2 0.5499999999999996 [dLambda -0.050000000000000044]
TCL: Setting parameter firsttimestep to 0
TCL: Setting parameter alchLambda to 0.5999999999999996
Info: NONBONDED TABLE R-SQUARED SPACING: 0.0625
Info: NONBONDED TABLE SIZE: 705 POINTS
TCL: Setting parameter alchLambda2 to 0.5499999999999996
Info: NONBONDED TABLE R-SQUARED SPACING: 0.0625
Info: NONBONDED TABLE SIZE: 705 POINTS
TCL: Running for 1500000 steps
ETITLE: TS BOND ANGLE DIHED IMPRP ELECT VDW BOUNDARY MISC KINETIC TOTAL TEMP POTENTIAL TOTALAVG TEMPAVG PRESSURE GPRESSURE VOLUME PRESSAVG GPRESSAVG
ENERGY: 0 2.1730 5.0973 3.8525 0.0000 -10635.2356 1373.2073 0.0000 0.0000 1781.2137 -7469.6918 301.8513 -9250.9054 -7469.6918 301.8513 -374.7977 -296.0482 30540.9381 -374.7977 -296.0482
ENERGY: 300000 4.0048 5.9737 5.6014 0.0000 -10681.8298 1452.5135 0.0000 0.0000 1770.1264 -7443.6101 299.9724 -9213.7365 -7447.4694 301.8130 294.2229 363.1083 30391.2113 -229.3184 -148.1871
ENERGY: 600000 2.8599 4.9899 3.9361 0.0000 -10609.2775 1383.0728 0.0000 0.0000 1866.4176 -7348.0014 316.2903 -9214.4189 -7444.8596 304.3999 -301.4168 -283.1495 30775.9748 96.0741 164.3151
ENERGY: 900000 5.8522 5.5035 5.4484 0.0000 -10853.9301 1560.1847 0.0000 0.0000 1777.3959 -7499.5454 301.2043 -9276.9413 -7447.0932 304.9682 1247.9933 1266.0678 30171.5721 139.8880 208.7283
ENERGY: 1200000 5.8430 4.5023 4.4298 0.0000 -10701.8200 1396.9586 0.0000 0.0000 1812.5597 -7477.5264 307.1633 -9290.0862 -7458.8133 303.5508 -174.0175 -134.7024 30066.5384 59.6589 120.9417
ENERGY: 1500000 4.2139 3.5151 1.5048 0.0000 -10779.4360 1411.5056 0.0000 0.0000 1728.0813 -7630.6153 292.8473 -9358.6966 -7476.7821 302.2997 -423.6081 -447.1543 30353.8223 -3.0350 52.9061
TCL: Running FEP window  10: Lambda1 0.5499999999999996 Lambda2 0.4999999999999996 [dLambda -0.04999999999999999]
TCL: Setting parameter firsttimestep to 0
TCL: Setting parameter alchLambda to 0.5499999999999996
Info: NONBONDED TABLE R-SQUARED SPACING: 0.0625
Info: NONBONDED TABLE SIZE: 705 POINTS
TCL: Setting parameter alchLambda2 to 0.4999999999999996
Info: NONBONDED TABLE R-SQUARED SPACING: 0.0625
Info: NONBONDED TABLE SIZE: 705 POINTS
TCL: Running for 1500000 steps
ETITLE: TS BOND ANGLE DIHED IMPRP ELECT VDW BOUNDARY MISC KINETIC TOTAL TEMP POTENTIAL TOTALAVG TEMPAVG PRESSURE GPRESSURE VOLUME PRESSAVG GPRESSAVG
ENERGY: 0 4.2139 3.5151 1.5048 0.0000 -10778.5975 1411.5825 0.0000 0.0000 1727.2125 -7630.5688 292.7001 -9357.7813 -7630.5688 292.7001 -540.8968 -454.4130 30353.8223 -540.8968 -454.4130
ENERGY: 300000 1.8174 4.6597 3.7082 0.0000 -10790.2503 1485.0258 0.0000 0.0000 1779.4877 -7515.5515 301.5588 -9295.0392 -7555.0746 300.0895 341.9547 390.3659 30159.3038 36.5550 93.9631
ENERGY: 600000 5.1760 6.6906 7.0919 0.0000 -10582.6996 1343.1638 0.0000 0.0000 1744.8028 -7475.7745 295.6810 -9220.5774 -7509.9530 301.0115 -846.6605 -789.6092 30623.7528 2.5481 58.2079
ENERGY: 900000 2.5183 5.3893 4.6455 0.0000 -10574.0525 1321.3056 0.0000 0.0000 1790.7905 -7449.4033 303.4742 -9240.1938 -7503.2820 301.0321 -1072.4115 -918.4797 30831.0930 -146.8890 -68.4718
ENERGY: 1200000 4.9216 9.3130 4.8064 0.0000 -10668.6822 1354.3128 0.0000 0.0000 1745.2945 -7550.0339 295.7643 -9295.3284 -7518.2098 300.0335 -646.1821 -645.4690 30321.8787 -176.6072 -110.2466
ENERGY: 1500000 4.2756 4.6227 1.4866 0.0000 -10692.4348 1423.8900 0.0000 0.0000 1760.5919 -7497.5679 298.3567 -9258.1599 -7515.2246 299.7814 -252.6238 -180.9763 30836.9035 -167.5302 -103.4159
TCL: Running FEP window  11: Lambda1 0.4999999999999996 Lambda2 0.4499999999999996 [dLambda -0.04999999999999999]
TCL: Setting parameter firsttimestep to 0
TCL: Setting parameter alchLambda to 0.4999999999999996
Info: NONBONDED TABLE R-SQUARED SPACING: 0.0625
Info: NONBONDED TABLE SIZE: 705 POINTS
TCL: Setting parameter alchLambda2 to 0.4499999999999996
Info: NONBONDED TABLE R-SQUARED SPACING: 0.0625
Info: NONBONDED TABLE SIZE: 705 POINTS
TCL: Running for 1500000 steps
ETITLE: TS BOND ANGLE DIHED IMPRP ELECT VDW BOUNDARY MISC KINETIC TOTAL TEMP POTENTIAL TOTALAVG TEMPAVG PRESSURE GPRESSURE VOLUME PRESSAVG GPRESSAVG
ENERGY: 0 4.2756 4.6227 1.4866 0.0000 -10691.7762 1424.3730 0.0000 0.0000 1759.7100 -7497.3083 298.2072 -9257.0183 -7497.3083 298.2072 -264.5926 -181.8359 30836.9035 -264.5926 -181.8359
ENERGY: 300000 2.1732 6.5653 3.0048 0.0000 -10609.2077 1424.2750 0.0000 0.0000 1807.2275 -7365.9620 306.2597 -9173.1894 -7507.1898 301.6333 -74.0155 -8.8316 31174.1941 -20.2753 55.1942
ENERGY: 600000 4.7869 5.6403 1.9683 0.0000 -10669.4207 1455.6019 0.0000 0.0000 1755.6759 -7445.7474 297.5236 -9201.4233 -7493.6967 301.2660 257.9161 388.5171 30303.0787 79.7313 152.8213
ENERGY: 900000 5.5185 2.7169 6.1911 0.0000 -10616.4955 1381.6677 0.0000 0.0000 1769.5740 -7450.8273 299.8788 -9220.4013 -7488.4258 300.5050 -347.6709 -293.3974 30954.1243 65.8647 134.6588
ENERGY: 1200000 2.5428 9.1889 4.8360 0.0000 -10844.9673 1519.5625 0.0000 0.0000 1788.1841 -7520.6530 303.0326 -9308.8371 -7502.7352 300.3580 473.2853 574.1979 30611.5468 96.5559 162.8509
ENERGY: 1500000 4.8650 6.2453 2.2939 0.0000 -10821.4248 1520.1950 0.0000 0.0000 1741.6785 -7546.1472 295.1515 -9287.8257 -7496.2490 301.5974 196.2178 257.3432 30728.1671 124.3515 192.0209
TCL: Running FEP window  12: Lambda1 0.4499999999999996 Lambda2 0.39999999999999963 [dLambda -0.04999999999999999]
TCL: Setting parameter firsttimestep to 0
TCL: Setting parameter alchLambda to 0.4499999999999996
Info: NONBONDED TABLE R-SQUARED SPACING: 0.0625
Info: NONBONDED TABLE SIZE: 705 POINTS
TCL: Setting parameter alchLambda2 to 0.39999999999999963
Info: NONBONDED TABLE R-SQUARED SPACING: 0.0625
Info: NONBONDED TABLE SIZE: 705 POINTS
TCL: Running for 1500000 steps
ETITLE: TS BOND ANGLE DIHED IMPRP ELECT VDW BOUNDARY MISC KINETIC TOTAL TEMP POTENTIAL TOTALAVG TEMPAVG PRESSURE GPRESSURE VOLUME PRESSAVG GPRESSAVG
ENERGY: 0 4.8650 6.2453 2.2939 0.0000 -10821.4240 1519.6912 0.0000 0.0000 1740.7587 -7547.5701 294.9957 -9288.3288 -7547.5701 294.9957 153.1533 246.4724 30728.1671 153.1533 246.4724
ENERGY: 300000 1.3728 7.9194 6.3140 0.0000 -10797.4215 1447.0404 0.0000 0.0000 1774.7041 -7560.0707 300.7482 -9334.7748 -7503.6122 299.0803 -6.9241 71.9339 30197.6748 123.0578 183.9261
ENERGY: 600000 2.0606 5.3605 3.3635 0.0000 -10778.9193 1444.0296 0.0000 0.0000 1745.6039 -7578.5012 295.8167 -9324.1051 -7549.9449 297.7733 -70.6961 -67.6440 30235.3537 71.1508 132.2484
ENERGY: 900000 4.9393 10.3073 5.3662 0.0000 -10696.2267 1405.8244 0.0000 0.0000 1765.8278 -7503.9616 299.2440 -9269.7894 -7546.2457 297.4291 -161.9040 -57.3043 30512.3525 100.2132 166.5299
ENERGY: 1200000 1.7133 6.2199 5.2679 0.0000 -10754.5943 1431.7230 0.0000 0.0000 1764.5714 -7545.0988 299.0311 -9309.6702 -7556.6785 297.4878 -125.7764 -25.3967 30379.2268 110.3795 173.2768
ENERGY: 1500000 2.7931 3.9627 1.9167 0.0000 -10736.2243 1429.2407 0.0000 0.0000 1807.7316 -7490.5795 306.3452 -9298.3111 -7551.8721 297.7107 -211.2944 -68.4485 30356.4704 39.9837 107.6929
TCL: Running FEP window  13: Lambda1 0.39999999999999963 Lambda2 0.34999999999999964 [dLambda -0.04999999999999999]
TCL: Setting parameter firsttimestep to 0
TCL: Setting parameter alchLambda to 0.39999999999999963
Info: NONBONDED TABLE R-SQUARED SPACING: 0.0625
Info: NONBONDED TABLE SIZE: 705 POINTS
TCL: Setting parameter alchLambda2 to 0.34999999999999964
Info: NONBONDED TABLE R-SQUARED SPACING: 0.0625
Info: NONBONDED TABLE SIZE: 705 POINTS
TCL: Running for 1500000 steps
ETITLE: TS BOND ANGLE DIHED IMPRP ELECT VDW BOUNDARY MISC KINETIC TOTAL TEMP POTENTIAL TOTALAVG TEMPAVG PRESSURE GPRESSURE VOLUME PRESSAVG GPRESSAVG
ENERGY: 0 2.7931 3.9627 1.9167 0.0000 -10736.2241 1429.4056 0.0000 0.0000 1806.8299 -7491.3161 306.1923 -9298.1460 -7491.3161 306.1923 -168.0819 -73.3920 30356.4704 -168.0819 -73.3920
ENERGY: 300000 3.2903 5.1625 1.3450 0.0000 -10771.8241 1494.3317 0.0000 0.0000 1746.5824 -7521.1121 295.9826 -9267.6945 -7512.7045 300.3035 372.1704 490.1430 30299.4084 -128.7414 -45.1879
ENERGY: 600000 3.2199 6.1341 6.7598 0.0000 -10842.7445 1494.8509 0.0000 0.0000 1738.9860 -7592.7940 294.6953 -9331.7799 -7525.9485 299.9594 523.2831 593.7518 29850.8326 27.0751 110.9675
ENERGY: 900000 1.2776 7.0137 3.1688 0.0000 -10790.0203 1440.3193 0.0000 0.0000 1768.7997 -7569.4412 299.7476 -9338.2409 -7528.4894 300.4216 -101.5213 -22.3769 30184.9002 -109.7221 -27.7586
ENERGY: 1200000 4.3069 6.6758 3.7502 0.0000 -10675.0148 1359.5266 0.0000 0.0000 1803.6432 -7497.1122 305.6523 -9300.7554 -7528.4221 300.3375 -716.7929 -672.1175 30181.5892 -176.4745 -97.6577
ENERGY: 1500000 5.3327 8.9639 2.5292 0.0000 -10789.2956 1442.2863 0.0000 0.0000 1748.1106 -7582.0729 296.2416 -9330.1835 -7524.9467 300.6482 102.0553 135.3139 29865.4550 -97.4088 -23.9674
TCL: Running FEP window  14: Lambda1 0.34999999999999964 Lambda2 0.29999999999999966 [dLambda -0.04999999999999999]
TCL: Setting parameter firsttimestep to 0
TCL: Setting parameter alchLambda to 0.34999999999999964
Info: NONBONDED TABLE R-SQUARED SPACING: 0.0625
Info: NONBONDED TABLE SIZE: 705 POINTS
TCL: Setting parameter alchLambda2 to 0.29999999999999966
Info: NONBONDED TABLE R-SQUARED SPACING: 0.0625
Info: NONBONDED TABLE SIZE: 705 POINTS
TCL: Running for 1500000 steps
ETITLE: TS BOND ANGLE DIHED IMPRP ELECT VDW BOUNDARY MISC KINETIC TOTAL TEMP POTENTIAL TOTALAVG TEMPAVG PRESSURE GPRESSURE VOLUME PRESSAVG GPRESSAVG
ENERGY: 0 5.3327 8.9639 2.5292 0.0000 -10789.2944 1442.5896 0.0000 0.0000 1747.2166 -7582.6624 296.0900 -9329.8790 -7582.6624 296.0900 42.6675 132.9181 29865.4550 42.6675 132.9181
ENERGY: 300000 3.7957 4.6420 3.5062 0.0000 -10867.2526 1512.2378 0.0000 0.0000 1743.4185 -7599.6524 295.4464 -9343.0709 -7555.0046 300.6871 195.3778 279.5647 30242.5699 -95.4146 -17.3047
ENERGY: 600000 3.4755 4.2071 2.0103 0.0000 -10823.9382 1469.8637 0.0000 0.0000 1745.5066 -7598.8749 295.8003 -9344.3815 -7553.3212 299.8969 422.1582 430.4099 29915.9297 53.9818 102.8454
ENERGY: 900000 5.0322 6.2736 2.1286 0.0000 -10852.7783 1481.5403 0.0000 0.0000 1688.9990 -7668.8046 286.2243 -9357.8036 -7564.3421 297.6907 -293.8370 -190.9096 30536.2386 -68.4649 -7.8417
ENERGY: 1200000 3.0435 9.8142 3.3661 0.0000 -10553.0070 1298.2031 0.0000 0.0000 1823.4847 -7415.0954 309.0147 -9238.5801 -7547.0328 299.5507 -867.7162 -758.6840 30460.0027 -160.9204 -98.3252
ENERGY: 1500000 2.5522 5.0415 3.5984 0.0000 -10728.1826 1455.5711 0.0000 0.0000 1791.2495 -7470.1698 303.5520 -9261.4193 -7548.8098 298.9287 -202.9591 -116.0276 31137.3777 -179.5716 -117.7075
TCL: Running FEP window  15: Lambda1 0.29999999999999966 Lambda2 0.24999999999999967 [dLambda -0.04999999999999999]
TCL: Setting parameter firsttimestep to 0
TCL: Setting parameter alchLambda to 0.29999999999999966
Info: NONBONDED TABLE R-SQUARED SPACING: 0.0625
Info: NONBONDED TABLE SIZE: 705 POINTS
TCL: Setting parameter alchLambda2 to 0.24999999999999967
Info: NONBONDED TABLE R-SQUARED SPACING: 0.0625
Info: NONBONDED TABLE SIZE: 705 POINTS
TCL: Running for 1500000 steps
ETITLE: TS BOND ANGLE DIHED IMPRP ELECT VDW BOUNDARY MISC KINETIC TOTAL TEMP POTENTIAL TOTALAVG TEMPAVG PRESSURE GPRESSURE VOLUME PRESSAVG GPRESSAVG
ENERGY: 0 2.5522 5.0415 3.5984 0.0000 -10728.1821 1454.9762 0.0000 0.0000 1790.3533 -7471.6604 303.4002 -9262.0137 -7471.6604 303.4002 -205.7737 -122.6813 31137.3777 -205.7737 -122.6813
ENERGY: 300000 2.0863 4.7347 1.9123 0.0000 -10638.8656 1412.6943 0.0000 0.0000 1748.9947 -7468.4434 296.3914 -9217.4381 -7491.1342 300.4813 -349.8183 -248.6416 31303.4887 -166.1369 -71.3402
ENERGY: 600000 2.2189 5.6695 2.1300 0.0000 -10760.8542 1461.9518 0.0000 0.0000 1815.2488 -7473.6352 307.6190 -9288.8840 -7504.4427 300.2871 195.1659 326.5010 30643.5484 -104.5102 -5.1576
ENERGY: 900000 1.5141 9.5596 5.0705 0.0000 -10701.1907 1379.6561 0.0000 0.0000 1768.3387 -7537.0517 299.6695 -9305.3904 -7511.8967 300.7885 -509.8475 -422.7868 30344.6911 -63.5988 37.5648
ENERGY: 1200000 1.5967 5.9986 2.4772 0.0000 -10649.1943 1363.1696 0.0000 0.0000 1769.9131 -7506.0390 299.9363 -9275.9521 -7501.3084 300.0116 -657.4525 -617.3712 30336.2664 -137.3154 -38.2798
ENERGY: 1500000 2.5635 6.1490 3.2104 0.0000 -10983.0829 1564.3822 0.0000 0.0000 1836.6530 -7570.1248 311.2463 -9406.7777 -7505.7719 300.6863 858.8018 915.8239 29843.3137 -78.0387 9.7022
TCL: Running FEP window  16: Lambda1 0.24999999999999967 Lambda2 0.19999999999999968 [dLambda -0.04999999999999999]
TCL: Setting parameter firsttimestep to 0
TCL: Setting parameter alchLambda to 0.24999999999999967
Info: NONBONDED TABLE R-SQUARED SPACING: 0.0625
Info: NONBONDED TABLE SIZE: 705 POINTS
TCL: Setting parameter alchLambda2 to 0.19999999999999968
Info: NONBONDED TABLE R-SQUARED SPACING: 0.0625
Info: NONBONDED TABLE SIZE: 705 POINTS
TCL: Running for 1500000 steps
ETITLE: TS BOND ANGLE DIHED IMPRP ELECT VDW BOUNDARY MISC KINETIC TOTAL TEMP POTENTIAL TOTALAVG TEMPAVG PRESSURE GPRESSURE VOLUME PRESSAVG GPRESSAVG
ENERGY: 0 2.5635 6.1490 3.2104 0.0000 -10983.0807 1564.9807 0.0000 0.0000 1835.7934 -7570.3836 311.1006 -9406.1770 -7570.3836 311.1006 843.8968 916.9854 29843.3137 843.8968 916.9854
ENERGY: 300000 3.5895 9.5329 2.9534 0.0000 -10743.3024 1459.7885 0.0000 0.0000 1742.7785 -7524.6597 295.3379 -9267.4382 -7533.4974 300.5223 409.0157 472.8146 30102.0586 159.6103 208.9727
ENERGY: 600000 2.7178 5.0097 1.4793 0.0000 -10758.8771 1468.4468 0.0000 0.0000 1778.1862 -7503.0371 301.3383 -9281.2234 -7531.7349 300.7226 -129.4989 -26.0313 31055.7572 243.5474 306.8037
ENERGY: 900000 3.3071 7.1322 3.4657 0.0000 -10652.7105 1369.3960 0.0000 0.0000 1772.7288 -7496.6806 300.4134 -9269.4094 -7530.3245 300.5133 -578.9779 -567.5094 30322.9541 84.7142 153.4151
ENERGY: 1200000 2.9961 8.4294 7.0941 0.0000 -10707.6277 1481.7250 0.0000 0.0000 1776.1758 -7431.2072 300.9976 -9207.3830 -7521.4515 299.5515 576.2644 649.2524 30128.6503 -8.6667 60.8614
ENERGY: 1500000 3.2056 5.6614 1.1200 0.0000 -10682.5229 1368.8278 0.0000 0.0000 1723.1356 -7580.5724 292.0092 -9303.7081 -7530.1280 299.1556 -773.9156 -754.8572 30487.7374 -56.7666 5.3291
TCL: Running FEP window  17: Lambda1 0.19999999999999968 Lambda2 0.1499999999999997 [dLambda -0.04999999999999999]
TCL: Setting parameter firsttimestep to 0
TCL: Setting parameter alchLambda to 0.19999999999999968
Info: NONBONDED TABLE R-SQUARED SPACING: 0.0625
Info: NONBONDED TABLE SIZE: 705 POINTS
TCL: Setting parameter alchLambda2 to 0.1499999999999997
Info: NONBONDED TABLE R-SQUARED SPACING: 0.0625
Info: NONBONDED TABLE SIZE: 705 POINTS
TCL: Running for 1500000 steps
ETITLE: TS BOND ANGLE DIHED IMPRP ELECT VDW BOUNDARY MISC KINETIC TOTAL TEMP POTENTIAL TOTALAVG TEMPAVG PRESSURE GPRESSURE VOLUME PRESSAVG GPRESSAVG
ENERGY: 0 3.2056 5.6614 1.1200 0.0000 -10682.5228 1368.9578 0.0000 0.0000 1722.2703 -7581.3077 291.8625 -9303.5780 -7581.3077 291.8625 -845.4843 -760.1586 30487.7374 -845.4843 -760.1586
ENERGY: 300000 4.1311 3.3003 3.3449 0.0000 -10804.6238 1482.0329 0.0000 0.0000 1783.0168 -7528.7978 302.1569 -9311.8146 -7573.4248 297.8971 -0.2940 97.3965 30742.7107 -374.8253 -313.3879
ENERGY: 600000 3.1084 7.9746 4.1472 0.0000 -10543.8645 1361.8223 0.0000 0.0000 1789.2531 -7377.5589 303.2137 -9166.8120 -7548.2072 296.8272 -124.6130 -107.3216 30398.0264 -108.1480 -63.6588
ENERGY: 900000 0.6986 3.7805 3.7188 0.0000 -10683.8341 1435.7377 0.0000 0.0000 1746.6193 -7493.2792 295.9888 -9239.8984 -7545.3786 297.3904 218.8207 253.2341 30225.2690 -112.7561 -59.8104
ENERGY: 1200000 5.1199 6.1791 2.6569 0.0000 -10672.6805 1395.8152 0.0000 0.0000 1795.9987 -7466.9106 304.3569 -9262.9093 -7536.0794 297.3005 -648.1741 -544.1441 30551.4450 -135.5712 -80.3386
ENERGY: 1500000 3.5354 3.1571 4.1298 0.0000 -10808.0072 1441.6988 0.0000 0.0000 1736.5887 -7618.8974 294.2890 -9355.4861 -7534.3995 297.5178 -481.6242 -361.6882 30187.5926 -144.0698 -84.7584
TCL: Running FEP window  18: Lambda1 0.1499999999999997 Lambda2 0.09999999999999969 [dLambda -0.05 ]
TCL: Setting parameter firsttimestep to 0
TCL: Setting parameter alchLambda to 0.1499999999999997
Info: NONBONDED TABLE R-SQUARED SPACING: 0.0625
Info: NONBONDED TABLE SIZE: 705 POINTS
TCL: Setting parameter alchLambda2 to 0.09999999999999969
Info: NONBONDED TABLE R-SQUARED SPACING: 0.0625
Info: NONBONDED TABLE SIZE: 705 POINTS
TCL: Running for 1500000 steps
ETITLE: TS BOND ANGLE DIHED IMPRP ELECT VDW BOUNDARY MISC KINETIC TOTAL TEMP POTENTIAL TOTALAVG TEMPAVG PRESSURE GPRESSURE VOLUME PRESSAVG GPRESSAVG
ENERGY: 0 3.5354 3.1571 4.1298 0.0000 -10808.0069 1442.0214 0.0000 0.0000 1735.7080 -7619.4552 294.1397 -9355.1632 -7619.4552 294.1397 -459.6417 -364.7588 30187.5926 -459.6417 -364.7588
ENERGY: 300000 2.5129 8.2349 1.5140 0.0000 -10713.6568 1456.6050 0.0000 0.0000 1780.8067 -7463.9834 301.7824 -9244.7901 -7499.4744 300.2761 156.9709 217.8495 30328.5392 -362.4191 -285.5276
ENERGY: 600000 0.9829 8.1471 4.2035 0.0000 -10733.4019 1444.8215 0.0000 0.0000 1776.9446 -7498.3024 301.1279 -9275.2470 -7514.5290 299.7133 190.2657 272.8910 30214.8616 -218.0741 -148.5685
ENERGY: 900000 2.6015 8.0871 7.5231 0.0000 -10740.5884 1407.2772 0.0000 0.0000 1800.7887 -7514.3108 305.1686 -9315.0995 -7522.4015 300.3782 -401.3455 -347.0393 30356.3875 -96.0690 -28.9795
ENERGY: 1200000 4.7184 6.1312 1.2871 0.0000 -10735.7531 1437.0073 0.0000 0.0000 1772.2467 -7514.3623 300.3317 -9286.6090 -7522.8170 300.5344 -264.7552 -137.4366 30217.7339 -100.1166 -27.7780
ENERGY: 1500000 1.8826 8.0644 4.3012 0.0000 -10690.1473 1424.7865 0.0000 0.0000 1765.3776 -7485.7350 299.1677 -9251.1126 -7526.2292 300.1857 -145.6030 -44.6960 30333.9633 -66.1647 5.6937
TCL: Running FEP window  19: Lambda1 0.09999999999999969 Lambda2 0.049999999999999684 [dLambda -0.05 ]
TCL: Setting parameter firsttimestep to 0
TCL: Setting parameter alchLambda to 0.09999999999999969
Info: NONBONDED TABLE R-SQUARED SPACING: 0.0625
Info: NONBONDED TABLE SIZE: 705 POINTS
TCL: Setting parameter alchLambda2 to 0.049999999999999684
Info: NONBONDED TABLE R-SQUARED SPACING: 0.0625
Info: NONBONDED TABLE SIZE: 705 POINTS
TCL: Running for 1500000 steps
ETITLE: TS BOND ANGLE DIHED IMPRP ELECT VDW BOUNDARY MISC KINETIC TOTAL TEMP POTENTIAL TOTALAVG TEMPAVG PRESSURE GPRESSURE VOLUME PRESSAVG GPRESSAVG
ENERGY: 0 1.8826 8.0644 4.3012 0.0000 -10690.1472 1423.7319 0.0000 0.0000 1764.4928 -7487.6743 299.0177 -9252.1671 -7487.6743 299.0177 -131.8345 -52.2930 30333.9633 -131.8345 -52.2930
ENERGY: 300000 3.3119 5.5997 4.7336 0.0000 -10769.2902 1461.4252 0.0000 0.0000 1768.5262 -7525.6936 299.7013 -9294.2198 -7504.0038 300.7793 18.7733 83.0478 30207.0241 -198.7741 -103.1268
ENERGY: 600000 5.0210 6.4421 2.7596 0.0000 -10494.0976 1305.0183 0.0000 0.0000 1808.1175 -7366.7391 306.4105 -9174.8566 -7475.6162 301.5275 -908.5038 -856.7793 30706.4195 -242.5718 -160.6407
ENERGY: 900000 3.8322 7.5902 3.9237 0.0000 -10681.6421 1382.5791 0.0000 0.0000 1795.7612 -7487.9557 304.3166 -9283.7169 -7479.1613 301.9041 -471.9179 -391.9214 30303.2162 -129.8360 -45.7563
ENERGY: 1200000 3.1689 5.0132 3.2822 0.0000 -10794.4496 1468.5666 0.0000 0.0000 1715.2317 -7599.1870 290.6698 -9314.4186 -7502.5382 300.5305 376.1908 416.3722 29703.0492 -133.9394 -57.4609
ENERGY: 1500000 4.4008 7.5482 1.6683 0.0000 -10785.6429 1477.8505 0.0000 0.0000 1717.5300 -7576.6451 291.0592 -9294.1751 -7518.9226 299.3413 496.5605 540.6977 29989.4692 -111.5686 -41.7409
TCL: Running FEP window  20: Lambda1 0.049999999999999684 Lambda2 0.0    [dLambda -0.049999999999999684]
TCL: Setting parameter firsttimestep to 0
TCL: Setting parameter alchLambda to 0.049999999999999684
Info: NONBONDED TABLE R-SQUARED SPACING: 0.0625
Info: NONBONDED TABLE SIZE: 705 POINTS
TCL: Setting parameter alchLambda2 to 0.0
Info: NONBONDED TABLE R-SQUARED SPACING: 0.0625
Info: NONBONDED TABLE SIZE: 705 POINTS
TCL: Running for 1500000 steps
ETITLE: TS BOND ANGLE DIHED IMPRP ELECT VDW BOUNDARY MISC KINETIC TOTAL TEMP POTENTIAL TOTALAVG TEMPAVG PRESSURE GPRESSURE VOLUME PRESSAVG GPRESSAVG
ENERGY: 0 4.4008 7.5482 1.6683 0.0000 -10785.6427 1477.8391 0.0000 0.0000 1716.6532 -7577.5330 290.9107 -9294.1862 -7577.5330 290.9107 468.4478 537.8106 29989.4692 468.4478 537.8106
ENERGY: 300000 3.3160 6.1319 3.1834 0.0000 -10754.5487 1428.6304 0.0000 0.0000 1782.3599 -7530.9273 302.0456 -9313.2871 -7536.5155 297.8901 -298.2284 -282.5825 30416.3367 -136.3802 -109.6722
ENERGY: 600000 1.6228 7.2351 3.4434 0.0000 -10623.0300 1357.8433 0.0000 0.0000 1821.4039 -7431.4816 308.6621 -9252.8855 -7519.4538 298.2511 -657.7347 -610.1099 30396.4978 -288.9291 -251.3346
ENERGY: 900000 2.0315 5.2159 3.0203 0.0000 -10610.9603 1447.5839 0.0000 0.0000 1790.4570 -7362.6517 303.4177 -9153.1087 -7501.7800 298.4615 303.2399 336.9511 30866.4409 -227.6827 -187.5880
ENERGY: 1200000 3.9846 5.4993 4.3985 0.0000 -10745.2848 1377.5526 0.0000 0.0000 1766.2545 -7587.5953 299.3163 -9353.8497 -7527.9530 298.3416 -814.4534 -766.8302 30507.4257 -212.9409 -172.7919
ENERGY: 1500000 3.2795 6.9725 4.9142 0.0000 -10614.9386 1337.0896 0.0000 0.0000 1761.0150 -7501.6679 298.4284 -9262.6828 -7517.9196 298.7131 -887.5589 -753.4389 30409.4300 -253.5989 -206.0210
TCL: Exiting due to exit command.
