Info: SIMULATION PARAMETERS:
Info: TIMESTEP               2
Info: NUMBER OF STEPS        0
Info: STEPS PER CYCLE        10
Info: PERIODIC CELL BASIS 1  31.8026 0 0
Info: PERIODIC CELL BASIS 2  0 30.2613 0
Info: PERIODIC CELL BASIS 3  0 0 31.7072
Info: PERIODIC CELL CENTER   0 0 0
Info: WRAPPING WATERS AROUND PERIODIC BOUNDARIES ON OUTPUT.
Info: WRAPPING ALL CLUSTERS AROUND PERIODIC BOUNDARIES ON OUTPUT.
Info: FIRST LDB TIMESTEP     50
Info: LAST LDB TIMESTEP     -1
Info: HOM BACKGROUND SCALING 1
Info: PME BACKGROUND SCALING 1
Info: MIN ATOMS PER PATCH    40
Info: EMPTY PATCH LOAD       40 ATOMS
Info: VELOCITY FILE          mobley_2577969_equil.vel
Info: CENTER OF MASS MOVING INITIALLY? NO
Info: DIELECTRIC             1
Info: EXCLUDE                SCALED ONE-FOUR
Info: 1-4 ELECTROSTATICS SCALED BY 0.833333
Info: MODIFIED 1-4 VDW PARAMETERS WILL BE USED
Info: DCD FILENAME           mobley_2577969_prod.dcd
Info: DCD FREQUENCY          100000
Info: DCD FIRST STEP         100000
Info: DCD FILE WILL CONTAIN UNIT CELL DATA
Info: XST FILENAME           mobley_2577969_prod.xst
Info: XST FREQUENCY          100000
Info: NO VELOCITY DCD OUTPUT
Info: NO FORCE DCD OUTPUT
Info: OUTPUT FILENAME        mobley_2577969_prod
Info: BINARY OUTPUT FILES WILL BE USED
Info: RESTART FILENAME       mobley_2577969_prod.restart
Info: RESTART FREQUENCY      100000
Info: BINARY RESTART FILES WILL BE USED
Info: CUTOFF                 9
Info: PAIRLIST DISTANCE      11
Info: PAIRLIST SHRINK RATE   0.01
Info: PAIRLIST GROW RATE     0.01
Info: PAIRLIST TRIGGER       0.3
Info: PAIRLISTS PER CYCLE    2
Info: PAIRLISTS ENABLED
Info: MARGIN                 2
Info: HYDROGEN GROUP CUTOFF  2.5
Info: PATCH DIMENSION        15.5
Info: ENERGY OUTPUT STEPS    100000
Info: ENERGY EVALUATION STEPS    100000
Info: OUTPUT ENERGY PRECISION 4
Info: CROSSTERM ENERGY INCLUDED IN DIHEDRAL
Info: TIMING OUTPUT STEPS    1000000
Info: PRESSURE OUTPUT STEPS  100000
Info: ALCHEMICAL FEP ON
Info: FEP CURRENT LAMBDA VALUE     1
Info: FEP COMPARISON LAMBDA VALUE  0.95
Info: FEP INTRA-ALCHEMICAL NON-BONDED INTERACTIONS WILL BE RETAINED
Info: FEP INTRA-ALCHEMICAL BONDED INTERACTIONS WILL BE RETAINED
Info: FEP VDW SHIFTING COEFFICIENT 5
Info: FEP ELEC. ACTIVE FOR ANNIHILATED PARTICLES BETWEEN LAMBDA = 0 AND LAMBDA = 0.5
Info: FEP ELEC. ACTIVE FOR EXNIHILATED PARTICLES BETWEEN LAMBDA = 0.5 AND LAMBDA = 1
Info: FEP VDW ACTIVE FOR ANNIHILATED PARTICLES BETWEEN LAMBDA = 0 AND LAMBDA = 1
Info: FEP VDW ACTIVE FOR EXNIHILATED PARTICLES BETWEEN LAMBDA = 0 AND LAMBDA = 1
Info: FEP BOND ACTIVE FOR ANNIHILATED PARTICLES BETWEEN LAMBDA = 1 AND LAMBDA = 1
Info: FEP BOND ACTIVE FOR EXNIHILATED PARTICLES BETWEEN LAMBDA = 0 AND LAMBDA = 0
Info: LANGEVIN DYNAMICS ACTIVE
Info: LANGEVIN TEMPERATURE   300
Info: LANGEVIN USING BBK INTEGRATOR
Info: LANGEVIN DAMPING COEFFICIENT IS 1 INVERSE PS
Info: LANGEVIN DYNAMICS APPLIED TO HYDROGENS
Info: LANGEVIN PISTON PRESSURE CONTROL ACTIVE
Info:        TARGET PRESSURE IS 1.01325 BAR
Info:     OSCILLATION PERIOD IS 50 FS
Info:             DECAY TIME IS 25 FS
Info:     PISTON TEMPERATURE IS 300 K
Info:       PRESSURE CONTROL IS GROUP-BASED
Info:    INITIAL STRAIN RATE IS -0.000568426 -0.000568426 -0.000568426
Info:       CELL FLUCTUATION IS ISOTROPIC
Info: PARTICLE MESH EWALD (PME) ACTIVE
Info: PME TOLERANCE               1e-06
Info: PME EWALD COEFFICIENT       0.348832
Info: PME INTERPOLATION ORDER     4
Info: PME GRID DIMENSIONS         32 32 32
Info: PME MAXIMUM GRID SPACING    1
Info: PME CALCULATION WILL BE PERFORMED ON GPU
Info: FULL ELECTROSTATIC EVALUATION FREQUENCY      2
Info: USING VERLET I (r-RESPA) MTS SCHEME.
Info: C1 SPLITTING OF LONG RANGE ELECTROSTATICS
Info: PLACING ATOMS IN PATCHES BY HYDROGEN GROUPS
Info: RIGID BONDS TO HYDROGEN : ALL
Info:         ERROR TOLERANCE : 1e-08
Info:          MAX ITERATIONS : 100
Info: RIGID WATER USING SETTLE ALGORITHM
Info: RANDOM NUMBER SEED     1743662807
Info: USE HYDROGEN BONDS?    NO
Info: Using AMBER format force field!
Info: AMBER PARM FILE        mobley_2577969.prmtop
Info: COORDINATE PDB         mobley_2577969.pdb
Info: Exclusions will be read from PARM file!
Info: SCNB (VDW SCALING)     2
Info: USING ARITHMETIC MEAN TO COMBINE L-J SIGMA PARAMETERS
Info: BINARY COORDINATES     mobley_2577969_equil.coor
Info: SUMMARY OF PARAMETERS:
Info: 4 BONDS
Info: 2 ANGLES
Info:   2 HARMONIC
Info:   0 COSINE-BASED
Info: 2 DIHEDRAL
Info: 0 IMPROPER
Info: 0 CROSSTERM
Info: 0 VDW
Info: 10 VDW_PAIRS
Info: 0 NBTHOLE_PAIRS
Info: To read alchdata from file: mobley_2577969.pdb
Info: To read alchflag data from column: 5
Info: STRUCTURE SUMMARY:
Info: 2966 ATOMS
Info: 2969 BONDS
Info: 48 ANGLES
Info: 92 DIHEDRALS
Info: 0 IMPROPERS
Info: 0 CROSSTERMS
Info: 3081 EXCLUSIONS
Info: 2950 RIGID BONDS
Info: ALCH: 0 ATOMS TO DISAPPEAR IN FINAL STATE
Info: ALCH: 26 ATOMS TO APPEAR IN FINAL STATE
Info: 5948 DEGREES OF FREEDOM
Info: 996 HYDROGEN GROUPS
Info: 3 ATOMS IN LARGEST HYDROGEN GROUP
Info: 996 MIGRATION GROUPS
Info: 3 ATOMS IN LARGEST MIGRATION GROUP
Info: TOTAL MASS = 17857.9 amu
Info: TOTAL CHARGE = 9.9944e-05 e
Info: MASS DENSITY = 0.97181 g/cm^3
Info: ATOM DENSITY = 0.0971991 atoms/A^3
Info: ADDED 0 IMPLICIT EXCLUSIONS
Info: NONBONDED TABLE R-SQUARED SPACING: 0.0625
Info: NONBONDED TABLE SIZE: 705 POINTS
Info: REMOVING COM VELOCITY 0.129171 0.0239904 -0.224753
Info: Use 3D box decompostion in PME FFT.
Info: Updated CUDA force table with 4096 elements.
Info: Updated CUDA LJ table with 4 x 4 elements.
Info: Found 26 unique exclusion lists needing 92 bytes
TCL: Running for 1500000 steps
ETITLE: TS BOND ANGLE DIHED IMPRP ELECT VDW BOUNDARY MISC KINETIC TOTAL TEMP POTENTIAL TOTALAVG TEMPAVG PRESSURE GPRESSURE VOLUME PRESSAVG GPRESSAVG
ENERGY: 0 7.9199 4.2379 7.3535 0.0000 -10652.5052 1428.7469 0.0000 0.0000 1855.4156 -7348.8314 313.9501 -9204.2470 -7348.8314 313.9501 174.7019 262.9087 30514.6835 174.7019 262.9087
ENERGY: 300000 4.7795 5.6857 6.4688 0.0000 -10539.5265 1364.8051 0.0000 0.0000 1733.1105 -7424.6769 293.2552 -9157.7874 -7429.9770 304.3776 -531.1989 -544.1885 31005.4436 84.1574 142.7893
ENERGY: 600000 2.8762 11.5124 10.0987 0.0000 -10763.6494 1467.6201 0.0000 0.0000 1785.1131 -7486.4289 302.0544 -9271.5420 -7445.1676 304.0619 265.1529 266.2604 30894.0808 186.3112 239.4818
ENERGY: 900000 5.2772 6.8247 5.0622 0.0000 -10733.0520 1491.7469 0.0000 0.0000 1726.7407 -7497.4003 292.1773 -9224.1410 -7441.9398 303.1523 293.1198 367.2610 30677.1427 225.2675 282.4166
ENERGY: 1200000 4.9263 3.6653 8.1901 0.0000 -10604.5305 1340.4601 0.0000 0.0000 1793.3441 -7453.9447 303.4471 -9247.2888 -7455.3898 302.2537 -948.4002 -957.1697 30840.1685 124.2098 174.8449
ENERGY: 1500000 2.2443 5.6725 6.3847 0.0000 -10600.2756 1429.2300 0.0000 0.0000 1788.0791 -7368.6650 302.5563 -9156.7440 -7444.7523 303.3115 322.6793 445.6257 30529.8999 78.8766 136.3494
TCL: Running FEP window   2: Lambda1 0.95   Lambda2 0.8999999999999999 [dLambda -0.050000000000000044]
TCL: Setting parameter firsttimestep to 0
TCL: Setting parameter alchLambda to 0.95
Info: NONBONDED TABLE R-SQUARED SPACING: 0.0625
Info: NONBONDED TABLE SIZE: 705 POINTS
TCL: Setting parameter alchLambda2 to 0.8999999999999999
Info: NONBONDED TABLE R-SQUARED SPACING: 0.0625
Info: NONBONDED TABLE SIZE: 705 POINTS
TCL: Running for 1500000 steps
ETITLE: TS BOND ANGLE DIHED IMPRP ELECT VDW BOUNDARY MISC KINETIC TOTAL TEMP POTENTIAL TOTALAVG TEMPAVG PRESSURE GPRESSURE VOLUME PRESSAVG GPRESSAVG
ENERGY: 0 2.2443 5.6725 6.3847 0.0000 -10599.2074 1429.0218 0.0000 0.0000 1787.1936 -7368.6905 302.4064 -9155.8841 -7368.6905 302.4064 337.0593 427.1845 30529.8999 337.0593 427.1845
ENERGY: 300000 10.3671 6.6089 6.3838 0.0000 -10753.4020 1445.8063 0.0000 0.0000 1824.6441 -7459.5919 308.7433 -9284.2359 -7438.4922 304.1266 -296.7402 -189.5876 30400.0531 -206.4466 -120.6630
ENERGY: 600000 4.1076 7.0493 9.8829 0.0000 -10834.8377 1503.9479 0.0000 0.0000 1775.1018 -7534.7481 300.3604 -9309.8499 -7467.9997 302.1463 623.5423 616.6322 30050.3589 -70.5338 14.2523
ENERGY: 900000 9.1627 5.2689 6.5714 0.0000 -10756.0449 1462.2818 0.0000 0.0000 1700.6698 -7572.0903 287.7660 -9272.7601 -7473.3588 300.7222 48.7215 98.5825 30644.3002 60.8455 138.8571
ENERGY: 1200000 4.4884 6.7861 7.2881 0.0000 -10684.7352 1439.9897 0.0000 0.0000 1774.4318 -7451.7511 300.2470 -9226.1829 -7472.9160 301.2833 171.5482 197.6151 30699.4964 43.5422 119.7445
ENERGY: 1500000 11.3995 10.6546 5.6245 0.0000 -10569.1508 1357.5266 0.0000 0.0000 1712.6649 -7471.2808 289.7956 -9183.9457 -7464.3246 301.6607 -677.3179 -624.8340 30585.9691 23.1041 89.8434
TCL: Running FEP window   3: Lambda1 0.8999999999999999 Lambda2 0.8499999999999999 [dLambda -0.050000000000000044]
TCL: Setting parameter firsttimestep to 0
TCL: Setting parameter alchLambda to 0.8999999999999999
Info: NONBONDED TABLE R-SQUARED SPACING: 0.0625
Info: NONBONDED TABLE SIZE: 705 POINTS
TCL: Setting parameter alchLambda2 to 0.8499999999999999
Info: NONBONDED TABLE R-SQUARED SPACING: 0.0625
Info: NONBONDED TABLE SIZE: 705 POINTS
TCL: Running for 1500000 steps
ETITLE: TS BOND ANGLE DIHED IMPRP ELECT VDW BOUNDARY MISC KINETIC TOTAL TEMP POTENTIAL TOTALAVG TEMPAVG PRESSURE GPRESSURE VOLUME PRESSAVG GPRESSAVG
ENERGY: 0 11.3995 10.6546 5.6244 0.0000 -10567.8271 1357.5262 0.0000 0.0000 1711.7855 -7470.8368 289.6468 -9182.6223 -7470.8368 289.6468 -728.7120 -642.0364 30585.9691 -728.7120 -642.0364
ENERGY: 300000 7.4578 5.6355 8.3212 0.0000 -10632.0000 1341.5341 0.0000 0.0000 1839.0363 -7430.0150 311.1786 -9269.0513 -7444.0309 301.3773 -853.3222 -834.0867 30423.1961 -411.0413 -357.4564
ENERGY: 600000 4.6225 3.4060 10.1509 0.0000 -10778.5581 1464.4619 0.0000 0.0000 1799.9845 -7495.9322 304.5708 -9295.9167 -7455.3404 302.5458 141.3993 192.8952 30477.0731 -257.8782 -193.9600
ENERGY: 900000 5.0937 5.5632 9.2571 0.0000 -10731.3823 1443.4004 0.0000 0.0000 1715.2504 -7552.8175 290.2331 -9268.0680 -7478.1372 299.4350 -4.0452 182.4190 30253.2404 -216.0629 -147.6390
ENERGY: 1200000 6.3054 5.2950 5.8387 0.0000 -10682.1029 1457.3408 0.0000 0.0000 1746.5781 -7460.7449 295.5340 -9207.3230 -7469.5251 299.3951 270.9236 396.3822 30427.0044 -90.9126 -21.2451
ENERGY: 1500000 6.4746 5.6554 5.4106 0.0000 -10555.1194 1283.9401 0.0000 0.0000 1728.4049 -7525.2338 292.4589 -9253.6387 -7470.3836 299.0043 -1190.1715 -1108.4720 30494.4454 -236.8666 -165.6656
TCL: Running FEP window   4: Lambda1 0.8499999999999999 Lambda2 0.7999999999999998 [dLambda -0.050000000000000044]
TCL: Setting parameter firsttimestep to 0
TCL: Setting parameter alchLambda to 0.8499999999999999
Info: NONBONDED TABLE R-SQUARED SPACING: 0.0625
Info: NONBONDED TABLE SIZE: 705 POINTS
TCL: Setting parameter alchLambda2 to 0.7999999999999998
Info: NONBONDED TABLE R-SQUARED SPACING: 0.0625
Info: NONBONDED TABLE SIZE: 705 POINTS
TCL: Running for 1500000 steps
ETITLE: TS BOND ANGLE DIHED IMPRP ELECT VDW BOUNDARY MISC KINETIC TOTAL TEMP POTENTIAL TOTALAVG TEMPAVG PRESSURE GPRESSURE VOLUME PRESSAVG GPRESSAVG
ENERGY: 0 6.4746 5.6554 5.4106 0.0000 -10553.3792 1284.1252 0.0000 0.0000 1727.5134 -7524.2000 292.3081 -9251.7134 -7524.2000 292.3081 -1207.6733 -1121.0145 30494.4454 -1207.6733 -1121.0145
ENERGY: 300000 5.4077 3.1204 8.6843 0.0000 -10645.1094 1411.8281 0.0000 0.0000 1793.1271 -7422.9417 303.4104 -9216.0689 -7487.4072 296.8394 -36.6118 -11.9497 30368.2647 -261.1618 -207.4809
ENERGY: 600000 6.2212 6.7123 3.9272 0.0000 -10636.3973 1398.3088 0.0000 0.0000 1768.4266 -7452.8012 299.2309 -9221.2278 -7481.0044 297.6067 -545.0065 -499.2409 30758.9543 -175.2657 -119.2178
ENERGY: 900000 3.6742 4.6862 12.5112 0.0000 -10592.8274 1338.9277 0.0000 0.0000 1791.2561 -7441.7720 303.0938 -9233.0281 -7479.1050 297.8491 -854.8788 -758.4639 30881.3532 -178.1005 -119.9975
ENERGY: 1200000 3.2200 7.9676 3.6799 0.0000 -10658.5625 1429.2066 0.0000 0.0000 1762.8128 -7451.6757 298.2810 -9214.4885 -7486.8244 296.7844 -165.5615 -129.9821 30783.1058 -149.0717 -88.9671
ENERGY: 1500000 8.9769 5.2482 5.4855 0.0000 -10709.8600 1404.5478 0.0000 0.0000 1804.6307 -7480.9709 305.3569 -9285.6015 -7488.5923 297.5395 -458.8343 -458.5211 30552.2769 -93.6312 -39.8218
TCL: Running FEP window   5: Lambda1 0.7999999999999998 Lambda2 0.7499999999999998 [dLambda -0.050000000000000044]
TCL: Setting parameter firsttimestep to 0
TCL: Setting parameter alchLambda to 0.7999999999999998
Info: NONBONDED TABLE R-SQUARED SPACING: 0.0625
Info: NONBONDED TABLE SIZE: 705 POINTS
TCL: Setting parameter alchLambda2 to 0.7499999999999998
Info: NONBONDED TABLE R-SQUARED SPACING: 0.0625
Info: NONBONDED TABLE SIZE: 705 POINTS
TCL: Running for 1500000 steps
ETITLE: TS BOND ANGLE DIHED IMPRP ELECT VDW BOUNDARY MISC KINETIC TOTAL TEMP POTENTIAL TOTALAVG TEMPAVG PRESSURE GPRESSURE VOLUME PRESSAVG GPRESSAVG
ENERGY: 0 8.9769 5.2482 5.4855 0.0000 -10708.6276 1404.9834 0.0000 0.0000 1803.7802 -7480.1534 305.2130 -9283.9336 -7480.1534 305.2130 -546.5195 -467.9140 30552.2769 -546.5195 -467.9140
ENERGY: 300000 7.8654 6.1872 8.0396 0.0000 -10677.2524 1421.6796 0.0000 0.0000 1756.2126 -7477.2680 297.1642 -9233.4806 -7471.3449 303.3490 17.6358 48.6346 30099.3584 -255.2823 -213.6991
ENERGY: 600000 7.4615 5.6091 5.2011 0.0000 -10627.3240 1410.0241 0.0000 0.0000 1821.7402 -7377.2881 308.2520 -9199.0282 -7466.7484 302.8433 -387.6768 -356.7353 30779.5192 -288.3887 -227.7648
ENERGY: 900000 3.7979 5.1594 6.1021 0.0000 -10600.7145 1399.7217 0.0000 0.0000 1802.2243 -7383.7091 304.9497 -9185.9334 -7453.0341 302.8738 -122.2029 -47.1800 30570.2505 -465.7255 -402.9887
ENERGY: 1200000 8.0810 5.0335 3.6307 0.0000 -10595.3983 1347.6127 0.0000 0.0000 1776.9590 -7454.0814 300.6747 -9231.0404 -7462.3242 301.8306 -939.0972 -873.9231 31007.0777 -389.5134 -330.9029
ENERGY: 1500000 5.5759 4.8861 4.6999 0.0000 -10560.3336 1420.7285 0.0000 0.0000 1788.1573 -7336.2860 302.5695 -9124.4433 -7455.5902 301.4518 -377.8353 -310.0284 31507.2724 -360.3093 -303.9732
TCL: Running FEP window   6: Lambda1 0.7499999999999998 Lambda2 0.6999999999999997 [dLambda -0.050000000000000044]
TCL: Setting parameter firsttimestep to 0
TCL: Setting parameter alchLambda to 0.7499999999999998
Info: NONBONDED TABLE R-SQUARED SPACING: 0.0625
Info: NONBONDED TABLE SIZE: 705 POINTS
TCL: Setting parameter alchLambda2 to 0.6999999999999997
Info: NONBONDED TABLE R-SQUARED SPACING: 0.0625
Info: NONBONDED TABLE SIZE: 705 POINTS
TCL: Running for 1500000 steps
ETITLE: TS BOND ANGLE DIHED IMPRP ELECT VDW BOUNDARY MISC KINETIC TOTAL TEMP POTENTIAL TOTALAVG TEMPAVG PRESSURE GPRESSURE VOLUME PRESSAVG GPRESSAVG
ENERGY: 0 5.5759 4.8861 4.6999 0.0000 -10559.5158 1421.2047 0.0000 0.0000 1787.2252 -7335.9240 302.4118 -9123.1492 -7335.9240 302.4118 -394.8523 -314.2413 31507.2724 -394.8523 -314.2413
ENERGY: 300000 4.5212 4.4813 4.6049 0.0000 -10823.9039 1513.8984 0.0000 0.0000 1820.1197 -7476.2785 307.9778 -9296.3982 -7422.5759 303.8614 363.2889 400.6842 30652.3830 198.8306 264.1392
ENERGY: 600000 4.2979 5.4398 10.4271 0.0000 -10737.7676 1444.3328 0.0000 0.0000 1805.3023 -7467.9679 305.4706 -9273.2701 -7424.2729 304.0267 196.4730 160.9407 29955.3776 25.4179 74.9712
ENERGY: 900000 9.1950 5.5702 5.4274 0.0000 -10758.0606 1472.6324 0.0000 0.0000 1764.0272 -7501.2084 298.4865 -9265.2356 -7445.4634 301.6683 39.6669 76.4105 30467.2910 -25.5396 27.7111
ENERGY: 1200000 4.9750 5.4031 10.6087 0.0000 -10599.9310 1423.5401 0.0000 0.0000 1798.2684 -7357.1357 304.2804 -9155.4041 -7440.6217 301.8146 221.2648 363.1356 30389.6599 -77.9903 -15.8313
ENERGY: 1500000 8.1374 8.2039 4.8039 0.0000 -10691.5181 1423.3931 0.0000 0.0000 1737.8347 -7509.1452 294.0545 -9246.9799 -7445.3523 301.4427 -372.9278 -329.3642 30811.1287 -63.3818 -2.0696
TCL: Running FEP window   7: Lambda1 0.6999999999999997 Lambda2 0.6499999999999997 [dLambda -0.050000000000000044]
TCL: Setting parameter firsttimestep to 0
TCL: Setting parameter alchLambda to 0.6999999999999997
Info: NONBONDED TABLE R-SQUARED SPACING: 0.0625
Info: NONBONDED TABLE SIZE: 705 POINTS
TCL: Setting parameter alchLambda2 to 0.6499999999999997
Info: NONBONDED TABLE R-SQUARED SPACING: 0.0625
Info: NONBONDED TABLE SIZE: 705 POINTS
TCL: Running for 1500000 steps
ETITLE: TS BOND ANGLE DIHED IMPRP ELECT VDW BOUNDARY MISC KINETIC TOTAL TEMP POTENTIAL TOTALAVG TEMPAVG PRESSURE GPRESSURE VOLUME PRESSAVG GPRESSAVG
ENERGY: 0 8.1374 8.2039 4.8039 0.0000 -10690.2284 1423.6779 0.0000 0.0000 1736.9273 -7508.4782 293.9010 -9245.4055 -7508.4782 293.9010 -425.2466 -337.9930 30811.1287 -425.2466 -337.9930
ENERGY: 300000 13.7233 4.9006 5.2399 0.0000 -10682.4473 1401.4283 0.0000 0.0000 1783.4459 -7473.7093 301.7723 -9257.1552 -7439.6910 301.8483 -686.0256 -575.0429 30582.1282 -222.8009 -174.5474
ENERGY: 600000 5.8051 5.6927 12.4157 0.0000 -10633.4451 1436.9479 0.0000 0.0000 1820.6450 -7351.9387 308.0667 -9172.5837 -7461.3660 300.7110 40.2169 142.7746 30593.8403 -124.0763 -71.8926
ENERGY: 900000 9.2240 4.9881 3.6341 0.0000 -10682.9192 1417.7343 0.0000 0.0000 1769.8002 -7477.5386 299.4633 -9247.3388 -7469.1926 300.3090 -596.4454 -533.6320 31053.4109 -148.9319 -94.0839
ENERGY: 1200000 6.4106 5.1521 3.5492 0.0000 -10634.0991 1420.2693 0.0000 0.0000 1760.0720 -7438.6458 297.8173 -9198.7179 -7462.8276 300.1593 -137.5477 -70.5166 30639.1659 -78.6579 -14.9355
ENERGY: 1500000 4.3920 9.5400 5.5398 0.0000 -10734.9690 1490.5921 0.0000 0.0000 1780.2415 -7444.6636 301.2301 -9224.9051 -7457.4633 299.1736 602.0289 687.4511 30079.4045 -172.1781 -109.1952
TCL: Running FEP window   8: Lambda1 0.6499999999999997 Lambda2 0.5999999999999996 [dLambda -0.050000000000000044]
TCL: Setting parameter firsttimestep to 0
TCL: Setting parameter alchLambda to 0.6499999999999997
Info: NONBONDED TABLE R-SQUARED SPACING: 0.0625
Info: NONBONDED TABLE SIZE: 705 POINTS
TCL: Setting parameter alchLambda2 to 0.5999999999999996
Info: NONBONDED TABLE R-SQUARED SPACING: 0.0625
Info: NONBONDED TABLE SIZE: 705 POINTS
TCL: Running for 1500000 steps
ETITLE: TS BOND ANGLE DIHED IMPRP ELECT VDW BOUNDARY MISC KINETIC TOTAL TEMP POTENTIAL TOTALAVG TEMPAVG PRESSURE GPRESSURE VOLUME PRESSAVG GPRESSAVG
ENERGY: 0 4.3920 9.5400 5.5398 0.0000 -10734.9724 1490.3294 0.0000 0.0000 1779.3910 -7445.7802 301.0862 -9225.1712 -7445.7802 301.0862 587.0234 668.7684 30079.4045 587.0234 668.7684
ENERGY: 300000 10.2647 8.2338 7.7000 0.0000 -10730.4289 1403.4298 0.0000 0.0000 1797.4476 -7503.3531 304.1415 -9300.8006 -7432.8681 302.9252 -406.0522 -344.9113 30210.7512 74.2142 141.2796
ENERGY: 600000 7.0064 4.3769 9.3949 0.0000 -10610.9465 1444.1873 0.0000 0.0000 1730.9829 -7414.9981 292.8952 -9145.9809 -7443.8855 299.1947 1.1999 25.0654 30833.4752 -210.3448 -149.5950
ENERGY: 900000 5.2150 6.2109 6.6050 0.0000 -10786.7364 1497.8684 0.0000 0.0000 1853.1804 -7417.6567 313.5719 -9270.8371 -7430.6480 301.6757 -124.8822 -56.8582 31192.3072 -211.5765 -153.5844
ENERGY: 1200000 6.7268 5.2021 5.6800 0.0000 -10750.3437 1463.5296 0.0000 0.0000 1772.5432 -7496.6621 299.9275 -9269.2053 -7447.0914 300.9470 -13.7663 99.3665 30648.3633 -168.2354 -113.3872
ENERGY: 1500000 7.7925 3.6466 7.5470 0.0000 -10852.9901 1508.3136 0.0000 0.0000 1803.3392 -7522.3512 305.1384 -9325.6904 -7449.5404 301.0410 360.0613 441.7629 30060.5457 -126.5068 -71.9641
TCL: Running FEP window   9: Lambda1 0.5999999999999996 Lambda2 0.5499999999999996 [dLambda -0.050000000000000044]
TCL: Setting parameter firsttimestep to 0
TCL: Setting parameter alchLambda to 0.5999999999999996
Info: NONBONDED TABLE R-SQUARED SPACING: 0.0625
Info: NONBONDED TABLE SIZE: 705 POINTS
TCL: Setting parameter alchLambda2 to 0.5499999999999996
Info: NONBONDED TABLE R-SQUARED SPACING: 0.0625
Info: NONBONDED TABLE SIZE: 705 POINTS
TCL: Running for 1500000 steps
ETITLE: TS BOND ANGLE DIHED IMPRP ELECT VDW BOUNDARY MISC KINETIC TOTAL TEMP POTENTIAL TOTALAVG TEMPAVG PRESSURE GPRESSURE VOLUME PRESSAVG GPRESSAVG
ENERGY: 0 7.7925 3.6466 7.5470 0.0000 -10852.2797 1508.3632 0.0000 0.0000 1802.4494 -7522.4811 304.9878 -9324.9305 -7522.4811 304.9878 346.3529 430.5653 30060.5457 346.3529 430.5653
ENERGY: 300000 3.2003 4.1879 2.4436 0.0000 -10636.1724 1417.2214 0.0000 0.0000 1827.2089 -7381.9103 309.1773 -9209.1192 -7474.6434 301.3675 299.2063 413.9531 29958.0105 233.7075 314.2754
ENERGY: 600000 2.2393 6.5730 9.0231 0.0000 -10648.6094 1437.2954 0.0000 0.0000 1757.1386 -7436.3400 297.3209 -9193.4786 -7466.5072 299.1617 193.2889 283.0854 30490.1766 112.9694 207.4452
ENERGY: 900000 8.8328 7.5317 7.6877 0.0000 -10617.4223 1405.2596 0.0000 0.0000 1738.6978 -7449.4127 294.2006 -9188.1105 -7458.1264 299.1660 -644.0937 -560.0773 30907.7404 -53.9846 41.8937
ENERGY: 1200000 4.5468 4.8740 4.2756 0.0000 -10681.4129 1403.1842 0.0000 0.0000 1777.3802 -7487.1521 300.7459 -9264.5323 -7460.5605 299.8791 -307.6606 -290.3118 30589.3067 -35.9599 41.2190
ENERGY: 1500000 11.0259 6.9924 6.8671 0.0000 -10752.0572 1480.6161 0.0000 0.0000 1776.9205 -7469.6352 300.6682 -9246.5558 -7458.3225 300.4024 200.3896 198.4939 30283.8543 -125.4436 -57.3307
TCL: Running FEP window  10: Lambda1 0.5499999999999996 Lambda2 0.4999999999999996 [dLambda -0.04999999999999999]
TCL: Setting parameter firsttimestep to 0
TCL: Setting parameter alchLambda to 0.5499999999999996
Info: NONBONDED TABLE R-SQUARED SPACING: 0.0625
Info: NONBONDED TABLE SIZE: 705 POINTS
TCL: Setting parameter alchLambda2 to 0.4999999999999996
Info: NONBONDED TABLE R-SQUARED SPACING: 0.0625
Info: NONBONDED TABLE SIZE: 705 POINTS
TCL: Running for 1500000 steps
ETITLE: TS BOND ANGLE DIHED IMPRP ELECT VDW BOUNDARY MISC KINETIC TOTAL TEMP POTENTIAL TOTALAVG TEMPAVG PRESSURE GPRESSURE VOLUME PRESSAVG GPRESSAVG
ENERGY: 0 11.0259 6.9924 6.8671 0.0000 -10751.4114 1481.2312 0.0000 0.0000 1776.0493 -7469.2455 300.5207 -9245.2948 -7469.2455 300.5207 117.1072 195.1707 30283.8543 117.1072 195.1707
ENERGY: 300000 4.6764 10.6190 6.1053 0.0000 -10638.3542 1423.8695 0.0000 0.0000 1819.1993 -7373.8847 307.8220 -9193.0840 -7433.3420 302.0699 -286.9000 -246.4769 30841.4525 -369.4757 -293.8831
ENERGY: 600000 7.2280 7.6144 11.6490 0.0000 -10904.2925 1603.1671 0.0000 0.0000 1763.8460 -7510.7879 298.4558 -9274.6339 -7452.5076 300.6277 1216.1039 1228.9793 30172.4610 11.1417 68.5931
ENERGY: 900000 11.5692 5.2811 7.2616 0.0000 -10603.6601 1371.5661 0.0000 0.0000 1766.3668 -7441.6154 298.8824 -9207.9822 -7439.7354 301.0713 -474.5360 -359.7161 30327.9722 -31.4237 33.3407
ENERGY: 1200000 5.3882 6.9783 6.5878 0.0000 -10713.4343 1537.9136 0.0000 0.0000 1759.3480 -7397.2184 297.6948 -9156.5664 -7446.8969 299.6909 1139.6231 1142.2649 30170.3895 -32.1397 25.1421
ENERGY: 1500000 6.2990 5.1885 5.7301 0.0000 -10663.9962 1454.6342 0.0000 0.0000 1755.8323 -7436.3120 297.0999 -9192.1444 -7444.7669 299.6568 100.7597 159.0132 30827.7938 -17.5744 41.7537
TCL: Running FEP window  11: Lambda1 0.4999999999999996 Lambda2 0.4499999999999996 [dLambda -0.04999999999999999]
TCL: Setting parameter firsttimestep to 0
TCL: Setting parameter alchLambda to 0.4999999999999996
Info: NONBONDED TABLE R-SQUARED SPACING: 0.0625
Info: NONBONDED TABLE SIZE: 705 POINTS
TCL: Setting parameter alchLambda2 to 0.4499999999999996
Info: NONBONDED TABLE R-SQUARED SPACING: 0.0625
Info: NONBONDED TABLE SIZE: 705 POINTS
TCL: Running for 1500000 steps
ETITLE: TS BOND ANGLE DIHED IMPRP ELECT VDW BOUNDARY MISC KINETIC TOTAL TEMP POTENTIAL TOTALAVG TEMPAVG PRESSURE GPRESSURE VOLUME PRESSAVG GPRESSAVG
ENERGY: 0 6.2990 5.1885 5.7301 0.0000 -10663.7735 1455.4122 0.0000 0.0000 1754.9459 -7436.1978 296.9499 -9191.1436 -7436.1978 296.9499 70.8859 158.9394 30827.7938 70.8859 158.9394
ENERGY: 300000 3.9720 7.3166 6.7944 0.0000 -10656.0887 1380.2065 0.0000 0.0000 1792.2556 -7465.5436 303.2630 -9257.7992 -7407.7362 303.5903 -560.1715 -534.3796 30420.2504 -40.7764 1.2813
ENERGY: 600000 8.0302 6.6148 6.9937 0.0000 -10739.3467 1515.4385 0.0000 0.0000 1755.1640 -7447.1055 296.9868 -9202.2694 -7432.6561 299.3376 205.9610 216.6359 30887.2994 16.7019 60.2077
ENERGY: 900000 6.8137 5.1448 4.8707 0.0000 -10605.3548 1346.0145 0.0000 0.0000 1749.9508 -7492.5603 296.1047 -9242.5111 -7443.0395 298.8699 -765.1276 -728.8461 30300.6416 -108.8016 -63.2378
ENERGY: 1200000 4.4898 8.7056 10.3462 0.0000 -10725.8850 1481.7359 0.0000 0.0000 1811.5176 -7409.0898 306.5222 -9220.6074 -7437.8089 299.1143 403.2466 441.8946 30044.1110 -25.5212 21.7898
ENERGY: 1500000 8.4480 5.1863 7.2673 0.0000 -10672.8808 1406.1428 0.0000 0.0000 1708.9361 -7536.9003 289.1647 -9245.8364 -7451.3956 298.4205 -681.2054 -631.2124 30341.5440 -32.7619 16.1340
TCL: Running FEP window  12: Lambda1 0.4499999999999996 Lambda2 0.39999999999999963 [dLambda -0.04999999999999999]
TCL: Setting parameter firsttimestep to 0
TCL: Setting parameter alchLambda to 0.4499999999999996
Info: NONBONDED TABLE R-SQUARED SPACING: 0.0625
Info: NONBONDED TABLE SIZE: 705 POINTS
TCL: Setting parameter alchLambda2 to 0.39999999999999963
Info: NONBONDED TABLE R-SQUARED SPACING: 0.0625
Info: NONBONDED TABLE SIZE: 705 POINTS
TCL: Running for 1500000 steps
ETITLE: TS BOND ANGLE DIHED IMPRP ELECT VDW BOUNDARY MISC KINETIC TOTAL TEMP POTENTIAL TOTALAVG TEMPAVG PRESSURE GPRESSURE VOLUME PRESSAVG GPRESSAVG
ENERGY: 0 8.4480 5.1863 7.2673 0.0000 -10672.8816 1405.6239 0.0000 0.0000 1708.0446 -7538.3115 289.0138 -9246.3560 -7538.3115 289.0138 -733.5504 -646.7026 30341.5440 -733.5504 -646.7026
ENERGY: 300000 7.5065 4.5913 7.1885 0.0000 -10691.7489 1434.0242 0.0000 0.0000 1757.4328 -7481.0057 297.3707 -9238.4385 -7507.4781 296.9534 34.7082 99.5089 30002.0793 -97.4950 -26.8014
ENERGY: 600000 5.3112 5.5330 5.1260 0.0000 -10636.0019 1400.6785 0.0000 0.0000 1702.6716 -7516.6816 288.1047 -9219.3532 -7498.8615 296.4260 -406.1006 -417.0533 30421.9210 -236.9368 -184.2475
ENERGY: 900000 5.4728 6.5362 6.9334 0.0000 -10677.3921 1471.4901 0.0000 0.0000 1783.7155 -7403.2441 301.8179 -9186.9596 -7482.1595 297.2601 902.5557 884.4008 30163.9200 -114.9138 -70.7803
ENERGY: 1200000 10.2178 7.3990 9.3983 0.0000 -10808.5640 1518.4656 0.0000 0.0000 1739.9285 -7523.1548 294.4088 -9263.0833 -7478.5859 298.4024 344.1373 412.8871 30297.7690 -179.1676 -126.6961
ENERGY: 1500000 6.6034 6.3436 5.8274 0.0000 -10745.3993 1475.4440 0.0000 0.0000 1802.6521 -7448.5288 305.0221 -9251.1809 -7474.1832 298.6228 9.9388 41.1976 30573.6826 -132.8574 -81.1413
TCL: Running FEP window  13: Lambda1 0.39999999999999963 Lambda2 0.34999999999999964 [dLambda -0.04999999999999999]
TCL: Setting parameter firsttimestep to 0
TCL: Setting parameter alchLambda to 0.39999999999999963
Info: NONBONDED TABLE R-SQUARED SPACING: 0.0625
Info: NONBONDED TABLE SIZE: 705 POINTS
TCL: Setting parameter alchLambda2 to 0.34999999999999964
Info: NONBONDED TABLE R-SQUARED SPACING: 0.0625
Info: NONBONDED TABLE SIZE: 705 POINTS
TCL: Running for 1500000 steps
ETITLE: TS BOND ANGLE DIHED IMPRP ELECT VDW BOUNDARY MISC KINETIC TOTAL TEMP POTENTIAL TOTALAVG TEMPAVG PRESSURE GPRESSURE VOLUME PRESSAVG GPRESSAVG
ENERGY: 0 6.6034 6.3436 5.8274 0.0000 -10745.3977 1476.2273 0.0000 0.0000 1801.8116 -7448.5844 304.8799 -9250.3960 -7448.5844 304.8799 -40.0004 39.3059 30573.6826 -40.0004 39.3059
ENERGY: 300000 6.4889 5.9230 6.1079 0.0000 -10774.5068 1484.6185 0.0000 0.0000 1779.4168 -7491.9518 301.0905 -9271.3686 -7498.4082 298.1484 381.1585 479.1159 30032.0849 243.6427 310.8545
ENERGY: 600000 7.9726 5.0135 9.6995 0.0000 -10597.9216 1387.3482 0.0000 0.0000 1744.9644 -7442.9234 295.2609 -9187.8878 -7498.9456 297.2332 -618.1701 -488.2702 30499.8093 85.2280 151.1840
ENERGY: 900000 4.2959 5.1423 6.2484 0.0000 -10640.7594 1445.8584 0.0000 0.0000 1744.1037 -7435.1108 295.1153 -9179.2144 -7479.2530 297.7109 110.1910 102.2846 30511.6687 125.7517 186.9781
ENERGY: 1200000 5.9246 11.5993 7.4720 0.0000 -10681.6526 1445.9844 0.0000 0.0000 1803.0014 -7407.6710 305.0812 -9210.6723 -7479.6639 298.1654 131.0470 118.0425 30377.4807 6.4668 60.6848
ENERGY: 1500000 10.4278 7.4929 6.8589 0.0000 -10671.1981 1451.1452 0.0000 0.0000 1784.6921 -7410.5813 301.9832 -9195.2733 -7475.1378 298.6529 -148.6456 -34.2036 30462.1276 26.8269 87.1188
TCL: Running FEP window  14: Lambda1 0.34999999999999964 Lambda2 0.29999999999999966 [dLambda -0.04999999999999999]
TCL: Setting parameter firsttimestep to 0
TCL: Setting parameter alchLambda to 0.34999999999999964
Info: NONBONDED TABLE R-SQUARED SPACING: 0.0625
Info: NONBONDED TABLE SIZE: 705 POINTS
TCL: Setting parameter alchLambda2 to 0.29999999999999966
Info: NONBONDED TABLE R-SQUARED SPACING: 0.0625
Info: NONBONDED TABLE SIZE: 705 POINTS
TCL: Running for 1500000 steps
ETITLE: TS BOND ANGLE DIHED IMPRP ELECT VDW BOUNDARY MISC KINETIC TOTAL TEMP POTENTIAL TOTALAVG TEMPAVG PRESSURE GPRESSURE VOLUME PRESSAVG GPRESSAVG
ENERGY: 0 10.4278 7.4929 6.8589 0.0000 -10671.1995 1451.3769 0.0000 0.0000 1783.7840 -7411.2591 301.8295 -9195.0430 -7411.2591 301.8295 -119.0715 -40.5112 30462.1276 -119.0715 -40.5112
ENERGY: 300000 9.0108 10.0722 13.9159 0.0000 -10800.4535 1412.2035 0.0000 0.0000 1714.9804 -7640.2707 290.1874 -9355.2511 -7505.4662 300.0001 -1000.8419 -888.4433 30452.7313 -103.0315 -7.4290
ENERGY: 600000 8.7080 7.7637 7.4083 0.0000 -10711.3906 1486.1005 0.0000 0.0000 1826.0949 -7375.3152 308.9888 -9201.4101 -7464.5453 301.6017 334.7393 434.8090 30315.8791 -95.6385 -8.2465
ENERGY: 900000 2.3011 3.2043 6.9908 0.0000 -10665.3304 1430.4806 0.0000 0.0000 1791.0350 -7431.3187 303.0564 -9222.3536 -7453.8273 301.9653 135.3595 224.1349 30366.7971 86.8531 170.5523
ENERGY: 1200000 5.6218 7.4991 14.1458 0.0000 -10601.2925 1400.2003 0.0000 0.0000 1777.9643 -7395.8611 300.8448 -9173.8254 -7448.7722 301.3827 -391.2074 -406.1806 30461.5888 92.9834 170.2291
ENERGY: 1500000 9.8906 8.7115 6.7221 0.0000 -10767.0243 1511.2229 0.0000 0.0000 1750.2808 -7480.1963 296.1605 -9230.4772 -7452.6626 300.8265 220.9551 296.7152 30334.4192 72.9912 148.6688
TCL: Running FEP window  15: Lambda1 0.29999999999999966 Lambda2 0.24999999999999967 [dLambda -0.04999999999999999]
TCL: Setting parameter firsttimestep to 0
TCL: Setting parameter alchLambda to 0.29999999999999966
Info: NONBONDED TABLE R-SQUARED SPACING: 0.0625
Info: NONBONDED TABLE SIZE: 705 POINTS
TCL: Setting parameter alchLambda2 to 0.24999999999999967
Info: NONBONDED TABLE R-SQUARED SPACING: 0.0625
Info: NONBONDED TABLE SIZE: 705 POINTS
TCL: Running for 1500000 steps
ETITLE: TS BOND ANGLE DIHED IMPRP ELECT VDW BOUNDARY MISC KINETIC TOTAL TEMP POTENTIAL TOTALAVG TEMPAVG PRESSURE GPRESSURE VOLUME PRESSAVG GPRESSAVG
ENERGY: 0 9.8906 8.7115 6.7221 0.0000 -10767.0257 1511.4843 0.0000 0.0000 1749.3636 -7480.8536 296.0053 -9230.2172 -7480.8536 296.0053 193.3185 291.6917 30334.4192 193.3185 291.6917
ENERGY: 300000 7.4457 5.2227 9.6011 0.0000 -10692.3967 1412.4240 0.0000 0.0000 1742.2560 -7515.4473 294.8027 -9257.7033 -7456.8924 297.1227 -324.4457 -343.1661 30286.5731 -193.3617 -138.0856
ENERGY: 600000 11.8451 8.6162 4.4666 0.0000 -10707.4535 1406.1723 0.0000 0.0000 1777.8099 -7498.5434 300.8186 -9276.3533 -7436.9901 300.1551 -166.0854 -122.8313 29690.4121 -31.6044 25.3963
ENERGY: 900000 5.5229 6.2847 5.8506 0.0000 -10689.5419 1404.7355 0.0000 0.0000 1769.4036 -7497.7446 299.3962 -9267.1481 -7442.6006 300.7768 -275.3999 -195.4081 30098.0161 -84.3944 -23.8866
ENERGY: 1200000 6.5809 6.4992 6.0439 0.0000 -10773.5829 1502.6152 0.0000 0.0000 1803.1531 -7448.6906 305.1069 -9251.8437 -7450.4259 300.5314 462.1981 552.1125 30491.3026 -81.4783 -20.5869
ENERGY: 1500000 6.9290 9.5884 6.3325 0.0000 -10728.1380 1467.6502 0.0000 0.0000 1751.8023 -7485.8354 296.4180 -9237.6378 -7452.9010 300.9387 57.1947 99.9734 30549.3672 -49.6433 12.1059
TCL: Running FEP window  16: Lambda1 0.24999999999999967 Lambda2 0.19999999999999968 [dLambda -0.04999999999999999]
TCL: Setting parameter firsttimestep to 0
TCL: Setting parameter alchLambda to 0.24999999999999967
Info: NONBONDED TABLE R-SQUARED SPACING: 0.0625
Info: NONBONDED TABLE SIZE: 705 POINTS
TCL: Setting parameter alchLambda2 to 0.19999999999999968
Info: NONBONDED TABLE R-SQUARED SPACING: 0.0625
Info: NONBONDED TABLE SIZE: 705 POINTS
TCL: Running for 1500000 steps
ETITLE: TS BOND ANGLE DIHED IMPRP ELECT VDW BOUNDARY MISC KINETIC TOTAL TEMP POTENTIAL TOTALAVG TEMPAVG PRESSURE GPRESSURE VOLUME PRESSAVG GPRESSAVG
ENERGY: 0 6.9290 9.5884 6.3325 0.0000 -10728.1384 1468.0646 0.0000 0.0000 1750.9719 -7486.2520 296.2775 -9237.2239 -7486.2520 296.2775 23.3192 95.4231 30549.3672 23.3192 95.4231
ENERGY: 300000 3.4979 6.8616 5.8823 0.0000 -10751.2213 1459.7022 0.0000 0.0000 1745.3950 -7529.8823 295.3338 -9275.2773 -7466.2790 301.1784 299.7216 387.4147 29664.3810 -5.8028 83.8217
ENERGY: 600000 11.3908 12.3045 7.2283 0.0000 -10668.7002 1465.2079 0.0000 0.0000 1742.8091 -7429.7595 294.8963 -9172.5687 -7441.6378 300.6825 131.2535 131.2220 30194.6480 84.1642 152.7513
ENERGY: 900000 2.9045 2.9663 5.0005 0.0000 -10664.1872 1390.9624 0.0000 0.0000 1752.4364 -7509.9172 296.5253 -9262.3536 -7454.1402 299.0785 -342.7770 -258.1820 30365.0439 -26.8904 37.5098
ENERGY: 1200000 9.7570 5.4946 6.9358 0.0000 -10689.9380 1450.0679 0.0000 0.0000 1757.2854 -7460.3973 297.3457 -9217.6826 -7448.3942 298.7360 -115.2563 -123.1012 30383.9709 -41.3502 12.2827
ENERGY: 1500000 6.2788 5.5660 4.3867 0.0000 -10812.4490 1511.3319 0.0000 0.0000 1829.8472 -7455.0383 309.6237 -9284.8855 -7444.9502 300.1357 639.5268 726.3311 29945.6781 2.8761 56.3861
TCL: Running FEP window  17: Lambda1 0.19999999999999968 Lambda2 0.1499999999999997 [dLambda -0.04999999999999999]
TCL: Setting parameter firsttimestep to 0
TCL: Setting parameter alchLambda to 0.19999999999999968
Info: NONBONDED TABLE R-SQUARED SPACING: 0.0625
Info: NONBONDED TABLE SIZE: 705 POINTS
TCL: Setting parameter alchLambda2 to 0.1499999999999997
Info: NONBONDED TABLE R-SQUARED SPACING: 0.0625
Info: NONBONDED TABLE SIZE: 705 POINTS
TCL: Running for 1500000 steps
ETITLE: TS BOND ANGLE DIHED IMPRP ELECT VDW BOUNDARY MISC KINETIC TOTAL TEMP POTENTIAL TOTALAVG TEMPAVG PRESSURE GPRESSURE VOLUME PRESSAVG GPRESSAVG
ENERGY: 0 6.2788 5.5660 4.3867 0.0000 -10812.4488 1511.5632 0.0000 0.0000 1828.9618 -7455.6923 309.4739 -9284.6541 -7455.6923 309.4739 638.0934 718.5025 29945.6781 638.0934 718.5025
ENERGY: 300000 4.5089 5.7337 8.4898 0.0000 -10811.3755 1491.9872 0.0000 0.0000 1778.8786 -7521.7772 300.9995 -9300.6559 -7457.8327 304.0269 140.0297 243.6697 30061.1455 -120.5400 -38.4505
ENERGY: 600000 9.9713 5.5284 5.8423 0.0000 -10627.1008 1450.3917 0.0000 0.0000 1770.9809 -7384.3862 299.6631 -9155.3671 -7453.9671 302.1241 -82.6658 32.7283 30564.0492 -84.0968 5.9207
ENERGY: 900000 7.7405 8.2720 7.2917 0.0000 -10619.4520 1372.1929 0.0000 0.0000 1812.8162 -7411.1387 306.7420 -9223.9549 -7453.5044 301.7542 -571.6952 -602.6555 30498.0344 -51.7421 9.7741
ENERGY: 1200000 7.6821 9.4111 6.4613 0.0000 -10601.5347 1416.7976 0.0000 0.0000 1800.7080 -7360.4746 304.6932 -9161.1826 -7446.7983 302.6642 -279.4972 -227.2130 30358.4098 -83.5585 -30.9794
ENERGY: 1500000 7.9645 3.9277 3.8999 0.0000 -10734.4529 1481.5398 0.0000 0.0000 1730.4349 -7506.6861 292.8024 -9237.1210 -7446.4345 302.0078 397.3146 335.1294 30129.1887 -86.9592 -41.7194
TCL: Running FEP window  18: Lambda1 0.1499999999999997 Lambda2 0.09999999999999969 [dLambda -0.05 ]
TCL: Setting parameter firsttimestep to 0
TCL: Setting parameter alchLambda to 0.1499999999999997
Info: NONBONDED TABLE R-SQUARED SPACING: 0.0625
Info: NONBONDED TABLE SIZE: 705 POINTS
TCL: Setting parameter alchLambda2 to 0.09999999999999969
Info: NONBONDED TABLE R-SQUARED SPACING: 0.0625
Info: NONBONDED TABLE SIZE: 705 POINTS
TCL: Running for 1500000 steps
ETITLE: TS BOND ANGLE DIHED IMPRP ELECT VDW BOUNDARY MISC KINETIC TOTAL TEMP POTENTIAL TOTALAVG TEMPAVG PRESSURE GPRESSURE VOLUME PRESSAVG GPRESSAVG
ENERGY: 0 7.9645 3.9277 3.8999 0.0000 -10734.4512 1482.0650 0.0000 0.0000 1729.5325 -7507.0618 292.6497 -9236.5943 -7507.0618 292.6497 258.2094 334.2947 30129.1887 258.2094 334.2947
ENERGY: 300000 3.6642 7.4682 8.2346 0.0000 -10589.9634 1329.5066 0.0000 0.0000 1807.9619 -7433.1279 305.9206 -9241.0898 -7438.1463 303.0878 -1002.6890 -933.1076 30604.4410 -165.4260 -130.8263
ENERGY: 600000 4.1787 7.5769 10.7140 0.0000 -10688.4201 1461.1739 0.0000 0.0000 1781.2056 -7423.5710 301.3932 -9204.7766 -7415.2555 303.3407 375.2134 503.0262 29791.5238 -151.7199 -95.8841
ENERGY: 900000 4.5197 4.6469 4.8640 0.0000 -10718.0759 1466.6235 0.0000 0.0000 1802.8395 -7434.5824 305.0538 -9237.4219 -7419.1025 303.8260 204.8419 260.2180 30129.2784 -93.2286 -39.3097
ENERGY: 1200000 10.7894 6.4113 6.1870 0.0000 -10814.6496 1490.0368 0.0000 0.0000 1855.0326 -7446.1925 313.8853 -9301.2251 -7418.9035 303.9632 -263.2888 -160.9526 30418.2950 -45.3493 14.6098
ENERGY: 1500000 4.8761 5.7548 7.4885 0.0000 -10747.1129 1454.1151 0.0000 0.0000 1792.0496 -7482.8288 303.2281 -9274.8783 -7428.5080 303.4995 -146.0825 -17.5310 30165.4023 -69.1392 -6.0100
TCL: Running FEP window  19: Lambda1 0.09999999999999969 Lambda2 0.049999999999999684 [dLambda -0.05 ]
TCL: Setting parameter firsttimestep to 0
TCL: Setting parameter alchLambda to 0.09999999999999969
Info: NONBONDED TABLE R-SQUARED SPACING: 0.0625
Info: NONBONDED TABLE SIZE: 705 POINTS
TCL: Setting parameter alchLambda2 to 0.049999999999999684
Info: NONBONDED TABLE R-SQUARED SPACING: 0.0625
Info: NONBONDED TABLE SIZE: 705 POINTS
TCL: Running for 1500000 steps
ETITLE: TS BOND ANGLE DIHED IMPRP ELECT VDW BOUNDARY MISC KINETIC TOTAL TEMP POTENTIAL TOTALAVG TEMPAVG PRESSURE GPRESSURE VOLUME PRESSAVG GPRESSAVG
ENERGY: 0 4.8761 5.7548 7.4885 0.0000 -10747.1113 1453.2712 0.0000 0.0000 1791.1570 -7484.5636 303.0771 -9275.7206 -7484.5636 303.0771 -116.4960 -27.1135 30165.4023 -116.4960 -27.1135
ENERGY: 300000 5.7709 6.5814 6.9686 0.0000 -10702.9087 1480.4415 0.0000 0.0000 1787.8893 -7415.2570 302.5242 -9203.1464 -7431.5992 303.3034 660.2460 701.4861 30041.4299 264.1821 316.8792
ENERGY: 600000 6.1662 10.0526 2.9262 0.0000 -10606.5355 1372.1127 0.0000 0.0000 1773.3936 -7441.8843 300.0714 -9215.2779 -7433.2596 303.3403 -619.0134 -558.7342 30290.0318 -243.4037 -189.0929
ENERGY: 900000 6.4001 6.2494 7.4555 0.0000 -10714.6065 1414.7351 0.0000 0.0000 1769.8753 -7509.8910 299.4760 -9279.7663 -7439.9012 302.4693 -595.6783 -507.2767 30322.2343 -177.9324 -118.5300
ENERGY: 1200000 5.9698 8.7668 7.1393 0.0000 -10644.3325 1414.2183 0.0000 0.0000 1765.6695 -7442.5687 298.7644 -9208.2383 -7440.9471 301.1761 -624.0526 -626.3651 30747.8683 -194.5433 -135.5999
ENERGY: 1500000 8.2724 7.6059 7.8485 0.0000 -10543.5838 1392.9488 0.0000 0.0000 1807.9931 -7318.9151 305.9259 -9126.9083 -7434.9319 300.0762 -99.9781 -35.3988 30323.4703 -139.1996 -81.6443
TCL: Running FEP window  20: Lambda1 0.049999999999999684 Lambda2 0.0    [dLambda -0.049999999999999684]
TCL: Setting parameter firsttimestep to 0
TCL: Setting parameter alchLambda to 0.049999999999999684
Info: NONBONDED TABLE R-SQUARED SPACING: 0.0625
Info: NONBONDED TABLE SIZE: 705 POINTS
TCL: Setting parameter alchLambda2 to 0.0
Info: NONBONDED TABLE R-SQUARED SPACING: 0.0625
Info: NONBONDED TABLE SIZE: 705 POINTS
TCL: Running for 1500000 steps
ETITLE: TS BOND ANGLE DIHED IMPRP ELECT VDW BOUNDARY MISC KINETIC TOTAL TEMP POTENTIAL TOTALAVG TEMPAVG PRESSURE GPRESSURE VOLUME PRESSAVG GPRESSAVG
ENERGY: 0 8.2724 7.6059 7.8485 0.0000 -10543.5828 1392.0951 0.0000 0.0000 1807.1412 -7320.6197 305.7817 -9127.7609 -7320.6197 305.7817 -141.5732 -43.5705 30323.4703 -141.5732 -43.5705
ENERGY: 300000 7.3017 5.0309 6.0276 0.0000 -10795.5009 1524.2504 0.0000 0.0000 1826.7739 -7426.1164 309.1037 -9252.8903 -7436.3099 304.1413 425.2200 552.2014 30076.4545 -187.5220 -95.6881
ENERGY: 600000 6.8135 4.0945 9.9648 0.0000 -10649.3673 1373.7040 0.0000 0.0000 1808.4265 -7446.3639 305.9992 -9254.7904 -7431.8164 303.8882 -678.3522 -571.7988 30288.1110 -242.8274 -166.7401
ENERGY: 900000 3.2045 5.9078 9.6377 0.0000 -10649.4742 1427.6743 0.0000 0.0000 1764.0947 -7438.9553 298.4979 -9203.0500 -7438.5581 302.0152 -296.4846 -203.0976 30897.9730 -211.4297 -141.6325
ENERGY: 1200000 4.4036 6.2984 12.7320 0.0000 -10681.3419 1423.8614 0.0000 0.0000 1805.3853 -7428.6613 305.4846 -9234.0465 -7439.2369 302.9529 -123.3389 -90.2072 30066.9570 -287.9050 -223.2904
ENERGY: 1500000 10.1737 5.8179 12.2668 0.0000 -10810.9852 1562.3841 0.0000 0.0000 1786.4976 -7433.8451 302.2887 -9220.3427 -7439.8668 303.4627 766.6089 873.3749 30051.0542 -194.1653 -127.3029
TCL: Exiting due to exit command.
