Info: SIMULATION PARAMETERS:
Info: TIMESTEP               2
Info: NUMBER OF STEPS        0
Info: STEPS PER CYCLE        10
Info: PERIODIC CELL BASIS 1  30.3789 0 0
Info: PERIODIC CELL BASIS 2  0 31.8354 0
Info: PERIODIC CELL BASIS 3  0 0 32.148
Info: PERIODIC CELL CENTER   0 0 0
Info: WRAPPING WATERS AROUND PERIODIC BOUNDARIES ON OUTPUT.
Info: WRAPPING ALL CLUSTERS AROUND PERIODIC BOUNDARIES ON OUTPUT.
Info: FIRST LDB TIMESTEP     50
Info: LAST LDB TIMESTEP     -1
Info: HOM BACKGROUND SCALING 1
Info: PME BACKGROUND SCALING 1
Info: MIN ATOMS PER PATCH    40
Info: EMPTY PATCH LOAD       40 ATOMS
Info: VELOCITY FILE          mobley_4506634_equil.vel
Info: CENTER OF MASS MOVING INITIALLY? NO
Info: DIELECTRIC             1
Info: EXCLUDE                SCALED ONE-FOUR
Info: 1-4 ELECTROSTATICS SCALED BY 0.833333
Info: MODIFIED 1-4 VDW PARAMETERS WILL BE USED
Info: DCD FILENAME           mobley_4506634_prod.dcd
Info: DCD FREQUENCY          100000
Info: DCD FIRST STEP         100000
Info: DCD FILE WILL CONTAIN UNIT CELL DATA
Info: XST FILENAME           mobley_4506634_prod.xst
Info: XST FREQUENCY          100000
Info: NO VELOCITY DCD OUTPUT
Info: NO FORCE DCD OUTPUT
Info: OUTPUT FILENAME        mobley_4506634_prod
Info: BINARY OUTPUT FILES WILL BE USED
Info: RESTART FILENAME       mobley_4506634_prod.restart
Info: RESTART FREQUENCY      100000
Info: BINARY RESTART FILES WILL BE USED
Info: CUTOFF                 9
Info: PAIRLIST DISTANCE      11
Info: PAIRLIST SHRINK RATE   0.01
Info: PAIRLIST GROW RATE     0.01
Info: PAIRLIST TRIGGER       0.3
Info: PAIRLISTS PER CYCLE    2
Info: PAIRLISTS ENABLED
Info: MARGIN                 2
Info: HYDROGEN GROUP CUTOFF  2.5
Info: PATCH DIMENSION        15.5
Info: ENERGY OUTPUT STEPS    100000
Info: ENERGY EVALUATION STEPS    100000
Info: OUTPUT ENERGY PRECISION 4
Info: CROSSTERM ENERGY INCLUDED IN DIHEDRAL
Info: TIMING OUTPUT STEPS    1000000
Info: PRESSURE OUTPUT STEPS  100000
Info: ALCHEMICAL FEP ON
Info: FEP CURRENT LAMBDA VALUE     1
Info: FEP COMPARISON LAMBDA VALUE  0.95
Info: FEP INTRA-ALCHEMICAL NON-BONDED INTERACTIONS WILL BE RETAINED
Info: FEP INTRA-ALCHEMICAL BONDED INTERACTIONS WILL BE RETAINED
Info: FEP VDW SHIFTING COEFFICIENT 5
Info: FEP ELEC. ACTIVE FOR ANNIHILATED PARTICLES BETWEEN LAMBDA = 0 AND LAMBDA = 0.5
Info: FEP ELEC. ACTIVE FOR EXNIHILATED PARTICLES BETWEEN LAMBDA = 0.5 AND LAMBDA = 1
Info: FEP VDW ACTIVE FOR ANNIHILATED PARTICLES BETWEEN LAMBDA = 0 AND LAMBDA = 1
Info: FEP VDW ACTIVE FOR EXNIHILATED PARTICLES BETWEEN LAMBDA = 0 AND LAMBDA = 1
Info: FEP BOND ACTIVE FOR ANNIHILATED PARTICLES BETWEEN LAMBDA = 1 AND LAMBDA = 1
Info: FEP BOND ACTIVE FOR EXNIHILATED PARTICLES BETWEEN LAMBDA = 0 AND LAMBDA = 0
Info: LANGEVIN DYNAMICS ACTIVE
Info: LANGEVIN TEMPERATURE   300
Info: LANGEVIN USING BBK INTEGRATOR
Info: LANGEVIN DAMPING COEFFICIENT IS 1 INVERSE PS
Info: LANGEVIN DYNAMICS APPLIED TO HYDROGENS
Info: LANGEVIN PISTON PRESSURE CONTROL ACTIVE
Info:        TARGET PRESSURE IS 1.01325 BAR
Info:     OSCILLATION PERIOD IS 50 FS
Info:             DECAY TIME IS 25 FS
Info:     PISTON TEMPERATURE IS 300 K
Info:       PRESSURE CONTROL IS GROUP-BASED
Info:    INITIAL STRAIN RATE IS -0.000414748 -0.000414748 -0.000414748
Info:       CELL FLUCTUATION IS ISOTROPIC
Info: PARTICLE MESH EWALD (PME) ACTIVE
Info: PME TOLERANCE               1e-06
Info: PME EWALD COEFFICIENT       0.348832
Info: PME INTERPOLATION ORDER     4
Info: PME GRID DIMENSIONS         32 32 36
Info: PME MAXIMUM GRID SPACING    1
Info: PME CALCULATION WILL BE PERFORMED ON GPU
Info: FULL ELECTROSTATIC EVALUATION FREQUENCY      2
Info: USING VERLET I (r-RESPA) MTS SCHEME.
Info: C1 SPLITTING OF LONG RANGE ELECTROSTATICS
Info: PLACING ATOMS IN PATCHES BY HYDROGEN GROUPS
Info: RIGID BONDS TO HYDROGEN : ALL
Info:         ERROR TOLERANCE : 1e-08
Info:          MAX ITERATIONS : 100
Info: RIGID WATER USING SETTLE ALGORITHM
Info: RANDOM NUMBER SEED     1743503302
Info: USE HYDROGEN BONDS?    NO
Info: Using AMBER format force field!
Info: AMBER PARM FILE        mobley_4506634.prmtop
Info: COORDINATE PDB         mobley_4506634.pdb
Info: Exclusions will be read from PARM file!
Info: SCNB (VDW SCALING)     2
Info: USING ARITHMETIC MEAN TO COMBINE L-J SIGMA PARAMETERS
Info: BINARY COORDINATES     mobley_4506634_equil.coor
Info: SUMMARY OF PARAMETERS:
Info: 7 BONDS
Info: 8 ANGLES
Info:   8 HARMONIC
Info:   0 COSINE-BASED
Info: 1 DIHEDRAL
Info: 0 IMPROPER
Info: 0 CROSSTERM
Info: 0 VDW
Info: 28 VDW_PAIRS
Info: 0 NBTHOLE_PAIRS
Info: To read alchdata from file: mobley_4506634.pdb
Info: To read alchflag data from column: 5
Info: STRUCTURE SUMMARY:
Info: 2984 ATOMS
Info: 2983 BONDS
Info: 12 ANGLES
Info: 9 DIHEDRALS
Info: 0 IMPROPERS
Info: 0 CROSSTERMS
Info: 3004 EXCLUSIONS
Info: 2977 RIGID BONDS
Info: ALCH: 0 ATOMS TO DISAPPEAR IN FINAL STATE
Info: ALCH: 8 ATOMS TO APPEAR IN FINAL STATE
Info: 5975 DEGREES OF FREEDOM
Info: 999 HYDROGEN GROUPS
Info: 3 ATOMS IN LARGEST HYDROGEN GROUP
Info: 999 MIGRATION GROUPS
Info: 3 ATOMS IN LARGEST MIGRATION GROUP
Info: TOTAL MASS = 18069.3 amu
Info: TOTAL CHARGE = 9.99905e-05 e
Info: MASS DENSITY = 0.965077 g/cm^3
Info: ATOM DENSITY = 0.0959757 atoms/A^3
Info: ADDED 0 IMPLICIT EXCLUSIONS
Info: NONBONDED TABLE R-SQUARED SPACING: 0.0625
Info: NONBONDED TABLE SIZE: 705 POINTS
Info: REMOVING COM VELOCITY -0.121068 -0.091507 0.0332574
Info: Use 3D box decompostion in PME FFT.
Info: Updated CUDA force table with 4096 elements.
Info: Updated CUDA LJ table with 7 x 7 elements.
Info: Found 11 unique exclusion lists needing 16 bytes
TCL: Running for 1500000 steps
ETITLE: TS BOND ANGLE DIHED IMPRP ELECT VDW BOUNDARY MISC KINETIC TOTAL TEMP POTENTIAL TOTALAVG TEMPAVG PRESSURE GPRESSURE VOLUME PRESSAVG GPRESSAVG
ENERGY: 0 3.2458 2.0785 0.0619 0.0000 -10906.5124 1467.2283 0.0000 0.0000 1802.2317 -7631.6663 303.5730 -9433.8980 -7631.6663 303.5730 -182.8171 -109.9650 31091.2085 -182.8171 -109.9650
ENERGY: 300000 0.3786 4.3964 0.3624 0.0000 -10848.3223 1464.6280 0.0000 0.0000 1813.6155 -7564.9413 305.4905 -9378.5568 -7634.3017 297.7520 94.4749 128.8448 30979.5599 -368.1958 -306.5425
ENERGY: 600000 2.4989 3.6838 0.0971 0.0000 -10786.5385 1477.2941 0.0000 0.0000 1763.4759 -7539.4888 297.0448 -9302.9647 -7614.7126 299.3734 469.3744 566.1807 30590.2257 -239.7445 -185.4455
ENERGY: 900000 1.5870 2.9628 0.0622 0.0000 -10730.1836 1416.3597 0.0000 0.0000 1752.9001 -7556.3118 295.2634 -9309.2119 -7584.3103 299.6289 -182.8264 -163.1024 30961.9914 -43.1089 16.9438
ENERGY: 1200000 0.7395 1.8078 0.0797 0.0000 -10982.9876 1510.3218 0.0000 0.0000 1831.6605 -7638.3783 308.5300 -9470.0388 -7591.9866 300.5697 -105.5781 22.2364 31276.5676 -87.2152 -19.9174
ENERGY: 1500000 2.2271 1.8842 0.0326 0.0000 -10982.8350 1519.9099 0.0000 0.0000 1750.7630 -7708.0182 294.9034 -9458.7812 -7601.2085 300.9254 464.8220 553.2163 30457.0708 -27.9319 41.9806
TCL: Running FEP window   2: Lambda1 0.95   Lambda2 0.8999999999999999 [dLambda -0.050000000000000044]
TCL: Setting parameter firsttimestep to 0
TCL: Setting parameter alchLambda to 0.95
Info: NONBONDED TABLE R-SQUARED SPACING: 0.0625
Info: NONBONDED TABLE SIZE: 705 POINTS
TCL: Setting parameter alchLambda2 to 0.8999999999999999
Info: NONBONDED TABLE R-SQUARED SPACING: 0.0625
Info: NONBONDED TABLE SIZE: 705 POINTS
TCL: Running for 1500000 steps
ETITLE: TS BOND ANGLE DIHED IMPRP ELECT VDW BOUNDARY MISC KINETIC TOTAL TEMP POTENTIAL TOTALAVG TEMPAVG PRESSURE GPRESSURE VOLUME PRESSAVG GPRESSAVG
ENERGY: 0 2.2271 1.8842 0.0326 0.0000 -10982.5843 1519.3126 0.0000 0.0000 1749.8841 -7709.2437 294.7554 -9459.1279 -7709.2437 294.7554 445.3433 534.8692 30457.0708 445.3433 534.8692
ENERGY: 300000 2.7900 6.4883 0.0102 0.0000 -10703.4630 1399.3994 0.0000 0.0000 1784.1837 -7510.5915 300.5329 -9294.7752 -7539.5976 300.6593 -211.6608 -120.6612 30845.2268 -29.7274 29.8890
ENERGY: 600000 1.1820 3.6944 0.9261 0.0000 -10884.6009 1517.1464 0.0000 0.0000 1793.9667 -7567.6853 302.1808 -9361.6520 -7562.8778 299.6471 576.9148 652.5921 30637.1407 28.3559 89.2262
ENERGY: 900000 2.3808 2.1243 0.1008 0.0000 -10847.6832 1451.7074 0.0000 0.0000 1829.4935 -7561.8763 308.1650 -9391.3698 -7573.8684 301.2727 11.9900 28.8931 30720.0056 57.8841 110.9974
ENERGY: 1200000 0.8427 3.4794 0.0261 0.0000 -10714.1498 1347.5125 0.0000 0.0000 1772.6420 -7589.6471 298.5888 -9362.2891 -7576.1547 301.5202 -590.3068 -608.8205 30824.3727 10.3139 58.0563
ENERGY: 1500000 0.7213 5.5137 0.1833 0.0000 -10832.6383 1478.2246 0.0000 0.0000 1802.0236 -7545.9717 303.5379 -9347.9953 -7574.4503 301.0985 51.2209 181.4506 31132.3798 26.8509 80.5775
TCL: Running FEP window   3: Lambda1 0.8999999999999999 Lambda2 0.8499999999999999 [dLambda -0.050000000000000044]
TCL: Setting parameter firsttimestep to 0
TCL: Setting parameter alchLambda to 0.8999999999999999
Info: NONBONDED TABLE R-SQUARED SPACING: 0.0625
Info: NONBONDED TABLE SIZE: 705 POINTS
TCL: Setting parameter alchLambda2 to 0.8499999999999999
Info: NONBONDED TABLE R-SQUARED SPACING: 0.0625
Info: NONBONDED TABLE SIZE: 705 POINTS
TCL: Running for 1500000 steps
ETITLE: TS BOND ANGLE DIHED IMPRP ELECT VDW BOUNDARY MISC KINETIC TOTAL TEMP POTENTIAL TOTALAVG TEMPAVG PRESSURE GPRESSURE VOLUME PRESSAVG GPRESSAVG
ENERGY: 0 0.7213 5.5137 0.1833 0.0000 -10832.3221 1478.2787 0.0000 0.0000 1801.1384 -7546.4866 303.3888 -9347.6250 -7546.4866 303.3888 102.7499 172.4757 31132.3798 102.7499 172.4757
ENERGY: 300000 0.6446 3.9878 0.1777 0.0000 -10804.4532 1447.7636 0.0000 0.0000 1772.0469 -7579.8326 298.4886 -9351.8794 -7549.1496 303.8006 205.5062 248.3357 30247.4890 -81.2424 -41.0425
ENERGY: 600000 0.7273 1.5112 0.1035 0.0000 -10892.9899 1506.1549 0.0000 0.0000 1703.1653 -7681.3277 286.8859 -9384.4930 -7566.1623 300.8028 138.5163 221.2347 31260.1990 -117.6511 -74.4434
ENERGY: 900000 1.8950 0.9462 0.1684 0.0000 -10789.9765 1389.4427 0.0000 0.0000 1784.3827 -7613.1415 300.5664 -9397.5242 -7588.2328 299.1320 -678.6102 -659.0031 31013.9616 -115.4336 -71.5050
ENERGY: 1200000 2.9593 3.9930 0.2335 0.0000 -10905.8238 1516.5330 0.0000 0.0000 1752.3576 -7629.7473 295.1720 -9382.1050 -7593.3537 298.4187 385.9213 522.7825 30374.3254 -51.2097 6.5377
ENERGY: 1500000 1.7948 5.8337 0.0579 0.0000 -10924.1450 1520.5263 0.0000 0.0000 1717.7159 -7678.2165 289.3369 -9395.9324 -7593.6159 297.9373 531.5586 632.4330 30520.1155 30.5534 90.0792
TCL: Running FEP window   4: Lambda1 0.8499999999999999 Lambda2 0.7999999999999998 [dLambda -0.050000000000000044]
TCL: Setting parameter firsttimestep to 0
TCL: Setting parameter alchLambda to 0.8499999999999999
Info: NONBONDED TABLE R-SQUARED SPACING: 0.0625
Info: NONBONDED TABLE SIZE: 705 POINTS
TCL: Setting parameter alchLambda2 to 0.7999999999999998
Info: NONBONDED TABLE R-SQUARED SPACING: 0.0625
Info: NONBONDED TABLE SIZE: 705 POINTS
TCL: Running for 1500000 steps
ETITLE: TS BOND ANGLE DIHED IMPRP ELECT VDW BOUNDARY MISC KINETIC TOTAL TEMP POTENTIAL TOTALAVG TEMPAVG PRESSURE GPRESSURE VOLUME PRESSAVG GPRESSAVG
ENERGY: 0 1.7948 5.8337 0.0579 0.0000 -10923.7438 1520.2731 0.0000 0.0000 1716.8277 -7678.9567 289.1873 -9395.7844 -7678.9567 289.1873 536.7149 619.9676 30520.1155 536.7149 619.9676
ENERGY: 300000 1.6687 1.4073 0.0330 0.0000 -10945.8164 1532.4179 0.0000 0.0000 1756.2470 -7654.0427 295.8272 -9410.2897 -7641.5406 296.3254 304.4649 366.1436 31061.5325 316.4123 372.2201
ENERGY: 600000 1.1526 4.4114 0.4891 0.0000 -10932.4469 1504.2166 0.0000 0.0000 1768.2382 -7653.9390 297.8470 -9422.1772 -7612.1703 299.7999 377.9458 400.5327 30691.1048 166.8578 231.9453
ENERGY: 900000 0.7837 1.5065 0.5209 0.0000 -10829.3266 1415.4415 0.0000 0.0000 1808.6481 -7602.4259 304.6538 -9411.0740 -7599.9319 300.2876 -595.4920 -562.7364 31191.5596 101.5843 163.4601
ENERGY: 1200000 3.8758 2.6996 0.3239 0.0000 -10843.6454 1504.2331 0.0000 0.0000 1788.5865 -7543.9264 301.2745 -9332.5130 -7590.3002 300.3587 583.7662 662.3887 30462.1967 139.5778 204.2579
ENERGY: 1500000 2.8609 5.1170 0.0700 0.0000 -10876.5290 1511.5226 0.0000 0.0000 1765.9577 -7591.0008 297.4629 -9356.9585 -7592.3153 300.0974 369.1254 425.2324 31036.0981 118.0869 179.9765
TCL: Running FEP window   5: Lambda1 0.7999999999999998 Lambda2 0.7499999999999998 [dLambda -0.050000000000000044]
TCL: Setting parameter firsttimestep to 0
TCL: Setting parameter alchLambda to 0.7999999999999998
Info: NONBONDED TABLE R-SQUARED SPACING: 0.0625
Info: NONBONDED TABLE SIZE: 705 POINTS
TCL: Setting parameter alchLambda2 to 0.7499999999999998
Info: NONBONDED TABLE R-SQUARED SPACING: 0.0625
Info: NONBONDED TABLE SIZE: 705 POINTS
TCL: Running for 1500000 steps
ETITLE: TS BOND ANGLE DIHED IMPRP ELECT VDW BOUNDARY MISC KINETIC TOTAL TEMP POTENTIAL TOTALAVG TEMPAVG PRESSURE GPRESSURE VOLUME PRESSAVG GPRESSAVG
ENERGY: 0 2.8609 5.1170 0.0700 0.0000 -10876.2109 1511.9376 0.0000 0.0000 1765.0736 -7591.1518 297.3140 -9356.2254 -7591.1518 297.3140 344.5532 423.7383 31036.0981 344.5532 423.7383
ENERGY: 300000 2.2910 4.1889 0.0626 0.0000 -10781.5975 1447.0358 0.0000 0.0000 1748.8495 -7579.1698 294.5811 -9328.0193 -7632.1130 296.6598 -191.8374 -58.6194 30879.9618 -71.2331 25.5777
ENERGY: 600000 1.3097 3.6993 0.0235 0.0000 -10834.6287 1518.3981 0.0000 0.0000 1764.7218 -7546.4763 297.2547 -9311.1981 -7617.0289 296.1314 399.4613 458.6092 31008.8659 -64.7945 23.9068
ENERGY: 900000 2.5307 2.7924 0.2218 0.0000 -10698.8530 1344.2789 0.0000 0.0000 1744.2302 -7604.7992 293.8030 -9349.0294 -7615.6651 297.8901 -768.4130 -749.3176 30944.2102 -133.9745 -58.6704
ENERGY: 1200000 1.3105 3.6520 0.0416 0.0000 -10855.2492 1497.6665 0.0000 0.0000 1821.5176 -7531.0610 306.8215 -9352.5786 -7598.0121 299.9901 420.3278 445.0487 30789.4378 -5.8049 59.7047
ENERGY: 1500000 1.9549 2.2706 0.0647 0.0000 -10906.6637 1430.5640 0.0000 0.0000 1779.6752 -7692.1344 299.7735 -9471.8095 -7603.5770 299.7657 -312.5228 -303.7351 30669.7793 -10.1855 48.9230
TCL: Running FEP window   6: Lambda1 0.7499999999999998 Lambda2 0.6999999999999997 [dLambda -0.050000000000000044]
TCL: Setting parameter firsttimestep to 0
TCL: Setting parameter alchLambda to 0.7499999999999998
Info: NONBONDED TABLE R-SQUARED SPACING: 0.0625
Info: NONBONDED TABLE SIZE: 705 POINTS
TCL: Setting parameter alchLambda2 to 0.6999999999999997
Info: NONBONDED TABLE R-SQUARED SPACING: 0.0625
Info: NONBONDED TABLE SIZE: 705 POINTS
TCL: Running for 1500000 steps
ETITLE: TS BOND ANGLE DIHED IMPRP ELECT VDW BOUNDARY MISC KINETIC TOTAL TEMP POTENTIAL TOTALAVG TEMPAVG PRESSURE GPRESSURE VOLUME PRESSAVG GPRESSAVG
ENERGY: 0 1.9549 2.2706 0.0647 0.0000 -10906.5378 1430.6026 0.0000 0.0000 1778.7545 -7692.8906 299.6184 -9471.6451 -7692.8906 299.6184 -389.9922 -311.7278 30669.7793 -389.9922 -311.7278
ENERGY: 300000 0.7778 4.4278 0.2473 0.0000 -10792.7521 1436.4945 0.0000 0.0000 1740.0851 -7610.7196 293.1048 -9350.8047 -7598.6174 297.6804 -218.6400 -145.8820 31038.9624 -269.3097 -205.1480
ENERGY: 600000 2.1987 1.6757 0.0287 0.0000 -10824.8929 1463.9136 0.0000 0.0000 1809.8899 -7547.1863 304.8629 -9357.0761 -7591.1490 297.8093 38.7739 114.4114 30805.2738 -107.1195 -42.7028
ENERGY: 900000 2.3917 3.6750 0.3395 0.0000 -10814.3870 1438.4811 0.0000 0.0000 1817.0690 -7552.4307 306.0722 -9369.4997 -7592.4757 298.2688 -276.6087 -218.8824 31304.1174 -146.3922 -85.3563
ENERGY: 1200000 0.4593 6.2983 0.1613 0.0000 -10801.8774 1441.3166 0.0000 0.0000 1752.7109 -7600.9310 295.2315 -9353.6419 -7592.5318 297.5768 -72.8042 38.7978 30777.0227 -108.6949 -47.0542
ENERGY: 1500000 1.3620 3.4976 0.6353 0.0000 -10889.1189 1469.7880 0.0000 0.0000 1856.2624 -7557.5737 312.6740 -9413.8361 -7596.1698 298.3979 174.3503 177.7469 30579.3702 -140.6880 -81.7300
TCL: Running FEP window   7: Lambda1 0.6999999999999997 Lambda2 0.6499999999999997 [dLambda -0.050000000000000044]
TCL: Setting parameter firsttimestep to 0
TCL: Setting parameter alchLambda to 0.6999999999999997
Info: NONBONDED TABLE R-SQUARED SPACING: 0.0625
Info: NONBONDED TABLE SIZE: 705 POINTS
TCL: Setting parameter alchLambda2 to 0.6499999999999997
Info: NONBONDED TABLE R-SQUARED SPACING: 0.0625
Info: NONBONDED TABLE SIZE: 705 POINTS
TCL: Running for 1500000 steps
ETITLE: TS BOND ANGLE DIHED IMPRP ELECT VDW BOUNDARY MISC KINETIC TOTAL TEMP POTENTIAL TOTALAVG TEMPAVG PRESSURE GPRESSURE VOLUME PRESSAVG GPRESSAVG
ENERGY: 0 1.3620 3.4976 0.6353 0.0000 -10888.8264 1469.5895 0.0000 0.0000 1855.3936 -7558.3485 312.5277 -9413.7421 -7558.3485 312.5277 84.6426 167.5296 30579.3702 84.6426 167.5296
ENERGY: 300000 1.3895 2.9195 0.2650 0.0000 -10941.0065 1574.0051 0.0000 0.0000 1758.3342 -7604.0932 296.1788 -9362.4274 -7580.1696 301.5186 1112.3869 1249.3956 30250.3569 167.3931 291.2206
ENERGY: 600000 2.2579 1.6212 0.0197 0.0000 -10808.0395 1449.6160 0.0000 0.0000 1827.5497 -7526.9751 307.8376 -9354.5248 -7577.3697 302.6695 -166.8844 -63.3485 30893.9639 -70.5783 45.3213
ENERGY: 900000 2.7000 2.6939 0.2461 0.0000 -10899.1116 1418.1703 0.0000 0.0000 1736.9954 -7738.3060 292.5844 -9475.3013 -7607.5938 299.4519 -565.0156 -447.1561 30423.6174 -92.1876 5.0339
ENERGY: 1200000 2.7702 1.4599 0.0419 0.0000 -10818.1194 1429.2465 0.0000 0.0000 1734.4608 -7650.1400 292.1574 -9384.6008 -7607.6081 300.3545 -454.0940 -389.4898 31340.1557 -158.1600 -67.5195
ENERGY: 1500000 3.1520 3.3642 0.1572 0.0000 -10723.9388 1410.3640 0.0000 0.0000 1712.6692 -7594.2322 288.4868 -9306.9014 -7599.0795 299.7190 -303.4611 -282.0925 31320.1553 -157.3381 -77.9232
TCL: Running FEP window   8: Lambda1 0.6499999999999997 Lambda2 0.5999999999999996 [dLambda -0.050000000000000044]
TCL: Setting parameter firsttimestep to 0
TCL: Setting parameter alchLambda to 0.6499999999999997
Info: NONBONDED TABLE R-SQUARED SPACING: 0.0625
Info: NONBONDED TABLE SIZE: 705 POINTS
TCL: Setting parameter alchLambda2 to 0.5999999999999996
Info: NONBONDED TABLE R-SQUARED SPACING: 0.0625
Info: NONBONDED TABLE SIZE: 705 POINTS
TCL: Running for 1500000 steps
ETITLE: TS BOND ANGLE DIHED IMPRP ELECT VDW BOUNDARY MISC KINETIC TOTAL TEMP POTENTIAL TOTALAVG TEMPAVG PRESSURE GPRESSURE VOLUME PRESSAVG GPRESSAVG
ENERGY: 0 3.1520 3.3642 0.1572 0.0000 -10723.6724 1410.7807 0.0000 0.0000 1711.7236 -7594.4947 288.3275 -9306.2183 -7594.4947 288.3275 -353.5919 -285.4617 31320.1553 -353.5919 -285.4617
ENERGY: 300000 0.1670 2.4206 0.1082 0.0000 -10806.9464 1461.7624 0.0000 0.0000 1844.5737 -7497.9146 310.7052 -9342.4883 -7585.7315 299.1964 415.8411 427.7234 30411.8133 13.6313 53.4003
ENERGY: 600000 0.8676 2.4744 0.0873 0.0000 -10822.9628 1461.2960 0.0000 0.0000 1791.0448 -7567.1928 301.6886 -9358.2376 -7590.8273 299.0844 44.7104 94.9545 30911.6327 -45.6842 9.6345
ENERGY: 900000 3.1162 4.1339 0.4134 0.0000 -10823.5737 1434.2858 0.0000 0.0000 1804.8926 -7576.7318 304.0212 -9381.6244 -7578.0793 300.3649 -465.2836 -380.2137 30903.2382 -71.9501 -9.3299
ENERGY: 1200000 1.9445 3.2199 0.2777 0.0000 -10978.7040 1536.9021 0.0000 0.0000 1772.5778 -7663.7820 298.5780 -9436.3598 -7583.5036 300.5986 627.1989 677.7865 30502.9293 -32.8445 21.8698
ENERGY: 1500000 0.4240 2.8149 0.1931 0.0000 -10806.4289 1464.0699 0.0000 0.0000 1784.2472 -7554.6799 300.5436 -9338.9270 -7582.3339 300.7749 -0.2998 155.3890 30826.2769 49.3072 112.3017
TCL: Running FEP window   9: Lambda1 0.5999999999999996 Lambda2 0.5499999999999996 [dLambda -0.050000000000000044]
TCL: Setting parameter firsttimestep to 0
TCL: Setting parameter alchLambda to 0.5999999999999996
Info: NONBONDED TABLE R-SQUARED SPACING: 0.0625
Info: NONBONDED TABLE SIZE: 705 POINTS
TCL: Setting parameter alchLambda2 to 0.5499999999999996
Info: NONBONDED TABLE R-SQUARED SPACING: 0.0625
Info: NONBONDED TABLE SIZE: 705 POINTS
TCL: Running for 1500000 steps
ETITLE: TS BOND ANGLE DIHED IMPRP ELECT VDW BOUNDARY MISC KINETIC TOTAL TEMP POTENTIAL TOTALAVG TEMPAVG PRESSURE GPRESSURE VOLUME PRESSAVG GPRESSAVG
ENERGY: 0 0.4240 2.8149 0.1931 0.0000 -10806.1685 1464.2351 0.0000 0.0000 1783.3456 -7555.1558 300.3917 -9338.5015 -7555.1558 300.3917 62.9077 152.0380 30826.2769 62.9077 152.0380
ENERGY: 300000 2.0867 4.5135 0.1636 0.0000 -10850.8657 1404.7960 0.0000 0.0000 1829.8978 -7609.4083 308.2331 -9439.3060 -7593.2541 302.3984 -523.7573 -539.5783 30564.0541 -226.1520 -173.7345
ENERGY: 600000 1.6880 2.2492 0.2487 0.0000 -10775.6190 1442.0927 0.0000 0.0000 1749.5487 -7579.7917 294.6989 -9329.3404 -7584.5501 301.2573 -1.4288 16.1904 30772.5440 -147.5366 -89.7078
ENERGY: 900000 0.7461 1.7407 0.1312 0.0000 -10908.4074 1544.5588 0.0000 0.0000 1846.4736 -7514.7570 311.0252 -9361.2306 -7570.3830 301.8868 600.6497 677.3167 30791.6752 -81.1031 -22.9585
ENERGY: 1200000 2.0149 4.4304 0.4136 0.0000 -10884.7521 1539.4530 0.0000 0.0000 1779.9397 -7558.5005 299.8180 -9338.4402 -7585.7202 300.6121 637.3287 764.2163 30606.7161 -76.5331 -9.1220
ENERGY: 1500000 1.8715 2.5015 1.1405 0.0000 -10719.7381 1367.9654 0.0000 0.0000 1719.9252 -7626.3341 289.7090 -9346.2592 -7578.9201 300.9400 -655.5659 -580.4239 30733.8560 -57.3022 6.9972
TCL: Running FEP window  10: Lambda1 0.5499999999999996 Lambda2 0.4999999999999996 [dLambda -0.04999999999999999]
TCL: Setting parameter firsttimestep to 0
TCL: Setting parameter alchLambda to 0.5499999999999996
Info: NONBONDED TABLE R-SQUARED SPACING: 0.0625
Info: NONBONDED TABLE SIZE: 705 POINTS
TCL: Setting parameter alchLambda2 to 0.4999999999999996
Info: NONBONDED TABLE R-SQUARED SPACING: 0.0625
Info: NONBONDED TABLE SIZE: 705 POINTS
TCL: Running for 1500000 steps
ETITLE: TS BOND ANGLE DIHED IMPRP ELECT VDW BOUNDARY MISC KINETIC TOTAL TEMP POTENTIAL TOTALAVG TEMPAVG PRESSURE GPRESSURE VOLUME PRESSAVG GPRESSAVG
ENERGY: 0 1.8715 2.5015 1.1405 0.0000 -10719.4274 1368.4231 0.0000 0.0000 1718.9885 -7626.5022 289.5513 -9345.4907 -7626.5022 289.5513 -663.9093 -582.6435 30733.8560 -663.9093 -582.6435
ENERGY: 300000 1.8138 1.1928 0.0085 0.0000 -10935.6856 1524.8166 0.0000 0.0000 1809.8311 -7598.0229 304.8530 -9407.8540 -7601.2340 298.8487 288.9616 348.2984 30824.0642 -185.2479 -140.1143
ENERGY: 600000 1.6560 3.9351 0.0997 0.0000 -10806.2937 1453.5612 0.0000 0.0000 1795.4572 -7551.5845 302.4318 -9347.0416 -7580.3298 301.3228 202.1976 296.0752 30628.5215 -191.5426 -132.0289
ENERGY: 900000 0.6886 1.4204 0.1002 0.0000 -10907.5775 1553.9854 0.0000 0.0000 1752.4299 -7598.9530 295.1842 -9351.3829 -7581.5801 299.9142 646.3216 682.2645 31010.0517 4.6391 63.0683
ENERGY: 1200000 0.7695 4.7913 0.1898 0.0000 -10886.9297 1534.1996 0.0000 0.0000 1805.9901 -7540.9894 304.2061 -9346.9795 -7577.5929 300.9255 657.2565 740.5655 30869.0027 138.1310 206.1538
ENERGY: 1500000 1.4386 3.1907 0.0980 0.0000 -10663.4471 1419.6570 0.0000 0.0000 1762.5746 -7476.4882 296.8930 -9239.0627 -7573.8390 300.2568 -189.1679 -116.1620 31107.9838 108.9307 170.0034
TCL: Running FEP window  11: Lambda1 0.4999999999999996 Lambda2 0.4499999999999996 [dLambda -0.04999999999999999]
TCL: Setting parameter firsttimestep to 0
TCL: Setting parameter alchLambda to 0.4999999999999996
Info: NONBONDED TABLE R-SQUARED SPACING: 0.0625
Info: NONBONDED TABLE SIZE: 705 POINTS
TCL: Setting parameter alchLambda2 to 0.4499999999999996
Info: NONBONDED TABLE R-SQUARED SPACING: 0.0625
Info: NONBONDED TABLE SIZE: 705 POINTS
TCL: Running for 1500000 steps
ETITLE: TS BOND ANGLE DIHED IMPRP ELECT VDW BOUNDARY MISC KINETIC TOTAL TEMP POTENTIAL TOTALAVG TEMPAVG PRESSURE GPRESSURE VOLUME PRESSAVG GPRESSAVG
ENERGY: 0 1.4386 3.1907 0.0980 0.0000 -10663.4172 1419.8633 0.0000 0.0000 1761.6721 -7477.1544 296.7410 -9238.8266 -7477.1544 296.7410 -211.5625 -120.2125 31107.9838 -211.5625 -120.2125
ENERGY: 300000 1.7224 3.2821 0.2240 0.0000 -10811.1032 1421.3332 0.0000 0.0000 1806.5345 -7578.0070 304.2978 -9384.5415 -7571.1780 302.0972 -339.2599 -284.2716 30668.2064 -44.3254 -2.8700
ENERGY: 600000 3.6306 2.6765 0.3614 0.0000 -11006.9233 1525.2852 0.0000 0.0000 1758.3238 -7716.6457 296.1770 -9474.9695 -7595.1643 301.6976 154.9080 228.7438 30264.5208 111.9081 158.7610
ENERGY: 900000 1.6690 1.4362 0.2191 0.0000 -10855.2588 1415.7113 0.0000 0.0000 1736.7709 -7699.4522 292.5466 -9436.2232 -7597.2041 302.0075 -477.0345 -462.6323 31017.6604 140.5496 199.7533
ENERGY: 1200000 1.7639 2.1458 0.1389 0.0000 -10814.9786 1452.8661 0.0000 0.0000 1783.2605 -7574.8033 300.3774 -9358.0639 -7581.2534 302.0509 188.6200 238.4854 30384.5061 134.4893 186.5122
ENERGY: 1500000 1.6398 3.0339 0.0844 0.0000 -10864.8033 1470.6758 0.0000 0.0000 1779.9641 -7609.4053 299.8222 -9389.3694 -7593.5859 299.8201 -34.8977 23.9809 30595.7464 73.4895 128.9968
TCL: Running FEP window  12: Lambda1 0.4499999999999996 Lambda2 0.39999999999999963 [dLambda -0.04999999999999999]
TCL: Setting parameter firsttimestep to 0
TCL: Setting parameter alchLambda to 0.4499999999999996
Info: NONBONDED TABLE R-SQUARED SPACING: 0.0625
Info: NONBONDED TABLE SIZE: 705 POINTS
TCL: Setting parameter alchLambda2 to 0.39999999999999963
Info: NONBONDED TABLE R-SQUARED SPACING: 0.0625
Info: NONBONDED TABLE SIZE: 705 POINTS
TCL: Running for 1500000 steps
ETITLE: TS BOND ANGLE DIHED IMPRP ELECT VDW BOUNDARY MISC KINETIC TOTAL TEMP POTENTIAL TOTALAVG TEMPAVG PRESSURE GPRESSURE VOLUME PRESSAVG GPRESSAVG
ENERGY: 0 1.6398 3.0339 0.0844 0.0000 -10864.8044 1471.1470 0.0000 0.0000 1779.0394 -7609.8598 299.6664 -9388.8992 -7609.8598 299.6664 -62.8723 21.1913 30595.7464 -62.8723 21.1913
ENERGY: 300000 1.7944 2.5661 0.1808 0.0000 -10784.2333 1458.5511 0.0000 0.0000 1720.5760 -7600.5650 289.8187 -9321.1410 -7578.6274 296.3167 -66.2556 -14.8181 31089.6813 -27.4947 23.8788
ENERGY: 600000 2.3944 2.4586 0.1921 0.0000 -10835.0965 1417.2128 0.0000 0.0000 1832.7555 -7580.0831 308.7145 -9412.8387 -7597.2967 298.0878 -305.8760 -247.2290 30537.7337 -105.8790 -53.9493
ENERGY: 900000 2.6455 2.3510 0.0407 0.0000 -10951.2533 1528.2123 0.0000 0.0000 1768.9882 -7649.0156 297.9733 -9418.0038 -7601.6588 298.2664 463.1584 476.7389 30567.3269 -85.0742 -38.0159
ENERGY: 1200000 3.3812 2.7207 0.4235 0.0000 -10784.2134 1386.1927 0.0000 0.0000 1781.7161 -7609.7792 300.1173 -9391.4953 -7600.1319 298.5279 -798.4353 -711.4877 30998.0246 -103.4897 -46.1739
ENERGY: 1500000 1.5120 2.2056 0.4164 0.0000 -10885.0456 1517.5891 0.0000 0.0000 1810.2413 -7553.0811 304.9221 -9363.3224 -7599.0540 298.9490 347.9769 391.1466 31096.2845 -92.0754 -31.6815
TCL: Running FEP window  13: Lambda1 0.39999999999999963 Lambda2 0.34999999999999964 [dLambda -0.04999999999999999]
TCL: Setting parameter firsttimestep to 0
TCL: Setting parameter alchLambda to 0.39999999999999963
Info: NONBONDED TABLE R-SQUARED SPACING: 0.0625
Info: NONBONDED TABLE SIZE: 705 POINTS
TCL: Setting parameter alchLambda2 to 0.34999999999999964
Info: NONBONDED TABLE R-SQUARED SPACING: 0.0625
Info: NONBONDED TABLE SIZE: 705 POINTS
TCL: Running for 1500000 steps
ETITLE: TS BOND ANGLE DIHED IMPRP ELECT VDW BOUNDARY MISC KINETIC TOTAL TEMP POTENTIAL TOTALAVG TEMPAVG PRESSURE GPRESSURE VOLUME PRESSAVG GPRESSAVG
ENERGY: 0 1.5120 2.2056 0.4164 0.0000 -10885.0458 1517.9561 0.0000 0.0000 1809.3733 -7553.5824 304.7759 -9362.9556 -7553.5824 304.7759 311.5227 386.4342 31096.2845 311.5227 386.4342
ENERGY: 300000 3.8261 2.4451 0.2158 0.0000 -10782.4126 1362.2088 0.0000 0.0000 1718.1461 -7695.5708 289.4094 -9413.7168 -7607.9232 299.9401 -1169.9314 -1144.5493 31329.8131 -207.0043 -147.3996
ENERGY: 600000 2.2220 2.7842 0.0390 0.0000 -10806.0412 1418.6653 0.0000 0.0000 1814.6050 -7567.7257 305.6572 -9382.3307 -7602.7655 298.3471 -194.1471 -149.3671 30682.1279 -86.4754 -31.7223
ENERGY: 900000 1.5922 2.8855 0.0416 0.0000 -10782.5189 1466.5389 0.0000 0.0000 1740.1394 -7571.3213 293.1140 -9311.4607 -7589.0877 299.0436 36.3206 78.2852 31031.6868 -41.8072 12.1673
ENERGY: 1200000 2.0344 3.2165 0.6993 0.0000 -10743.3330 1411.6734 0.0000 0.0000 1833.3292 -7492.3801 308.8111 -9325.7094 -7578.4374 300.0634 -210.9436 -127.3449 30964.2886 -106.5292 -53.7093
ENERGY: 1500000 4.3547 2.9000 0.3262 0.0000 -10918.4093 1531.4242 0.0000 0.0000 1821.2612 -7558.1431 306.7784 -9379.4042 -7583.0207 300.7788 603.8049 667.1846 30761.2354 -6.2362 48.3491
TCL: Running FEP window  14: Lambda1 0.34999999999999964 Lambda2 0.29999999999999966 [dLambda -0.04999999999999999]
TCL: Setting parameter firsttimestep to 0
TCL: Setting parameter alchLambda to 0.34999999999999964
Info: NONBONDED TABLE R-SQUARED SPACING: 0.0625
Info: NONBONDED TABLE SIZE: 705 POINTS
TCL: Setting parameter alchLambda2 to 0.29999999999999966
Info: NONBONDED TABLE R-SQUARED SPACING: 0.0625
Info: NONBONDED TABLE SIZE: 705 POINTS
TCL: Running for 1500000 steps
ETITLE: TS BOND ANGLE DIHED IMPRP ELECT VDW BOUNDARY MISC KINETIC TOTAL TEMP POTENTIAL TOTALAVG TEMPAVG PRESSURE GPRESSURE VOLUME PRESSAVG GPRESSAVG
ENERGY: 0 4.3547 2.9000 0.3262 0.0000 -10918.4072 1531.8075 0.0000 0.0000 1820.3391 -7558.6796 306.6230 -9379.0187 -7558.6796 306.6230 573.2330 665.6725 30761.2354 573.2330 665.6725
ENERGY: 300000 2.4100 7.1511 0.2265 0.0000 -10885.2726 1444.2775 0.0000 0.0000 1769.0950 -7662.1125 297.9913 -9431.2075 -7624.8551 297.5081 -235.6988 -207.1186 30694.5235 -402.9621 -361.8920
ENERGY: 600000 2.2071 1.7731 0.0120 0.0000 -10768.0274 1441.7924 0.0000 0.0000 1746.8544 -7575.3884 294.2451 -9322.2427 -7601.8866 298.0850 -197.3534 -134.5557 31032.9050 -286.0641 -244.7061
ENERGY: 900000 3.8047 4.1823 0.0544 0.0000 -10902.6387 1484.4657 0.0000 0.0000 1744.5762 -7665.5554 293.8613 -9410.1316 -7611.1741 297.4983 -0.9055 103.8840 30574.0539 -287.0762 -233.9166
ENERGY: 1200000 1.5362 4.5895 0.4222 0.0000 -10937.2350 1549.5961 0.0000 0.0000 1800.7303 -7580.3607 303.3201 -9381.0910 -7596.1361 298.6143 992.0758 1029.4675 30154.7782 -107.1751 -54.2820
ENERGY: 1500000 0.5955 1.8863 0.0514 0.0000 -10833.1664 1409.4202 0.0000 0.0000 1800.7935 -7620.4195 303.3307 -9421.2130 -7591.1058 299.4466 -467.8331 -369.2348 30538.5620 -107.1232 -51.9227
TCL: Running FEP window  15: Lambda1 0.29999999999999966 Lambda2 0.24999999999999967 [dLambda -0.04999999999999999]
TCL: Setting parameter firsttimestep to 0
TCL: Setting parameter alchLambda to 0.29999999999999966
Info: NONBONDED TABLE R-SQUARED SPACING: 0.0625
Info: NONBONDED TABLE SIZE: 705 POINTS
TCL: Setting parameter alchLambda2 to 0.24999999999999967
Info: NONBONDED TABLE R-SQUARED SPACING: 0.0625
Info: NONBONDED TABLE SIZE: 705 POINTS
TCL: Running for 1500000 steps
ETITLE: TS BOND ANGLE DIHED IMPRP ELECT VDW BOUNDARY MISC KINETIC TOTAL TEMP POTENTIAL TOTALAVG TEMPAVG PRESSURE GPRESSURE VOLUME PRESSAVG GPRESSAVG
ENERGY: 0 0.5955 1.8863 0.0514 0.0000 -10833.1651 1409.2103 0.0000 0.0000 1799.9059 -7621.5156 303.1812 -9421.4216 -7621.5156 303.1812 -457.0643 -375.6568 30538.5620 -457.0643 -375.6568
ENERGY: 300000 0.7174 3.6310 0.1077 0.0000 -10925.1319 1494.5474 0.0000 0.0000 1790.2824 -7635.8460 301.5602 -9426.1284 -7608.4890 300.6495 110.4782 172.6511 30724.5152 50.5151 133.1129
ENERGY: 600000 1.8969 1.8400 0.3071 0.0000 -10799.1016 1407.9192 0.0000 0.0000 1833.7661 -7553.3724 308.8847 -9387.1384 -7608.4003 300.5162 -391.0963 -336.5199 31024.3068 -24.9497 43.6340
ENERGY: 900000 2.2632 4.1821 0.7974 0.0000 -10761.6488 1417.1138 0.0000 0.0000 1835.4261 -7501.8663 309.1643 -9337.2924 -7593.2402 301.2673 -207.0530 -169.3363 31027.2697 -138.7730 -78.0250
ENERGY: 1200000 1.8865 3.3236 0.2269 0.0000 -10760.0761 1405.2530 0.0000 0.0000 1781.6295 -7567.7566 300.1027 -9349.3861 -7589.3997 300.6952 -336.4414 -318.6293 30694.7334 -133.8424 -72.8126
ENERGY: 1500000 3.1539 2.1087 0.0563 0.0000 -10947.5293 1516.5310 0.0000 0.0000 1788.4493 -7637.2301 301.2514 -9425.6794 -7595.7765 300.5207 120.1768 175.6953 30599.6884 -148.0284 -87.9536
TCL: Running FEP window  16: Lambda1 0.24999999999999967 Lambda2 0.19999999999999968 [dLambda -0.04999999999999999]
TCL: Setting parameter firsttimestep to 0
TCL: Setting parameter alchLambda to 0.24999999999999967
Info: NONBONDED TABLE R-SQUARED SPACING: 0.0625
Info: NONBONDED TABLE SIZE: 705 POINTS
TCL: Setting parameter alchLambda2 to 0.19999999999999968
Info: NONBONDED TABLE R-SQUARED SPACING: 0.0625
Info: NONBONDED TABLE SIZE: 705 POINTS
TCL: Running for 1500000 steps
ETITLE: TS BOND ANGLE DIHED IMPRP ELECT VDW BOUNDARY MISC KINETIC TOTAL TEMP POTENTIAL TOTALAVG TEMPAVG PRESSURE GPRESSURE VOLUME PRESSAVG GPRESSAVG
ENERGY: 0 3.1539 2.1087 0.0563 0.0000 -10947.5295 1516.2732 0.0000 0.0000 1787.5423 -7638.3952 301.0986 -9425.9375 -7638.3952 301.0986 66.4528 168.3192 30599.6884 66.4528 168.3192
ENERGY: 300000 0.8057 2.6931 0.6536 0.0000 -10822.6067 1449.2204 0.0000 0.0000 1831.3100 -7537.9238 308.4710 -9369.2339 -7586.1280 303.3882 24.6795 156.5577 30537.1643 28.0727 117.5353
ENERGY: 600000 1.7638 3.4649 0.0535 0.0000 -10726.6102 1377.7534 0.0000 0.0000 1752.9860 -7590.5887 295.2779 -9343.5747 -7605.0971 300.8488 -669.3822 -596.9600 30750.3085 -134.0122 -53.0757
ENERGY: 900000 1.2081 4.7366 0.4192 0.0000 -10773.1686 1427.6728 0.0000 0.0000 1829.9700 -7509.1618 308.2453 -9339.1318 -7577.6871 301.7748 -70.8819 -53.6334 31011.1582 -78.8894 -9.9304
ENERGY: 1200000 2.4157 2.5116 0.1699 0.0000 -10678.4319 1347.0416 0.0000 0.0000 1781.2752 -7545.0179 300.0430 -9326.2931 -7573.1921 301.7769 -850.5051 -843.4371 30860.6465 -80.5354 -19.5696
ENERGY: 1500000 1.3691 2.4930 0.0298 0.0000 -10880.7824 1462.1430 0.0000 0.0000 1743.2553 -7671.4922 293.6388 -9414.7475 -7580.0115 300.8246 -26.9047 69.9732 30247.8624 -79.5114 -14.6200
TCL: Running FEP window  17: Lambda1 0.19999999999999968 Lambda2 0.1499999999999997 [dLambda -0.04999999999999999]
TCL: Setting parameter firsttimestep to 0
TCL: Setting parameter alchLambda to 0.19999999999999968
Info: NONBONDED TABLE R-SQUARED SPACING: 0.0625
Info: NONBONDED TABLE SIZE: 705 POINTS
TCL: Setting parameter alchLambda2 to 0.1499999999999997
Info: NONBONDED TABLE R-SQUARED SPACING: 0.0625
Info: NONBONDED TABLE SIZE: 705 POINTS
TCL: Running for 1500000 steps
ETITLE: TS BOND ANGLE DIHED IMPRP ELECT VDW BOUNDARY MISC KINETIC TOTAL TEMP POTENTIAL TOTALAVG TEMPAVG PRESSURE GPRESSURE VOLUME PRESSAVG GPRESSAVG
ENERGY: 0 1.3691 2.4930 0.0298 0.0000 -10880.7829 1462.4412 0.0000 0.0000 1742.3786 -7672.0712 293.4911 -9414.4498 -7672.0712 293.4911 -22.5985 70.9807 30247.8624 -22.5985 70.9807
ENERGY: 300000 0.7131 3.1885 0.4121 0.0000 -10655.7619 1370.8446 0.0000 0.0000 1769.5914 -7511.0121 298.0749 -9280.6035 -7592.4349 300.1888 -337.8081 -296.6873 30650.5953 -144.9028 -96.1466
ENERGY: 600000 1.5102 2.6389 0.7120 0.0000 -10896.5745 1507.5432 0.0000 0.0000 1777.5346 -7606.6355 299.4129 -9384.1702 -7599.2846 299.6993 157.1151 197.1584 30924.8393 -48.8176 5.0992
ENERGY: 900000 1.2975 0.9831 0.0826 0.0000 -10770.1111 1386.4913 0.0000 0.0000 1728.6657 -7652.5909 291.1813 -9381.2566 -7602.7048 299.3457 -636.4852 -549.9573 30787.9982 -226.7162 -171.3086
ENERGY: 1200000 0.6296 1.5632 0.0335 0.0000 -10951.8029 1565.6254 0.0000 0.0000 1740.0190 -7643.9322 293.0937 -9383.9511 -7601.9810 298.6423 719.4968 891.1033 30603.5046 -16.2839 47.1085
ENERGY: 1500000 0.9537 2.9664 0.4623 0.0000 -10884.7914 1497.7091 0.0000 0.0000 1786.2338 -7596.4660 300.8782 -9382.6998 -7603.0001 298.8824 401.8078 474.4764 30499.7895 -4.1075 63.7228
TCL: Running FEP window  18: Lambda1 0.1499999999999997 Lambda2 0.09999999999999969 [dLambda -0.05 ]
TCL: Setting parameter firsttimestep to 0
TCL: Setting parameter alchLambda to 0.1499999999999997
Info: NONBONDED TABLE R-SQUARED SPACING: 0.0625
Info: NONBONDED TABLE SIZE: 705 POINTS
TCL: Setting parameter alchLambda2 to 0.09999999999999969
Info: NONBONDED TABLE R-SQUARED SPACING: 0.0625
Info: NONBONDED TABLE SIZE: 705 POINTS
TCL: Running for 1500000 steps
ETITLE: TS BOND ANGLE DIHED IMPRP ELECT VDW BOUNDARY MISC KINETIC TOTAL TEMP POTENTIAL TOTALAVG TEMPAVG PRESSURE GPRESSURE VOLUME PRESSAVG GPRESSAVG
ENERGY: 0 0.9537 2.9664 0.4623 0.0000 -10884.7918 1497.8487 0.0000 0.0000 1785.3474 -7597.2132 300.7289 -9382.5607 -7597.2132 300.7289 383.0334 471.6747 30499.7895 383.0334 471.6747
ENERGY: 300000 2.4355 2.2875 0.0369 0.0000 -10966.3544 1514.8252 0.0000 0.0000 1780.6571 -7666.1122 299.9389 -9446.7693 -7616.8582 298.8730 310.5112 375.0988 30296.6404 484.8957 529.9899
ENERGY: 600000 1.8840 3.5748 0.0557 0.0000 -10843.6347 1489.2337 0.0000 0.0000 1763.2886 -7585.5979 297.0133 -9348.8865 -7588.3115 300.9484 378.9114 456.9626 30275.9219 347.6457 398.0851
ENERGY: 900000 2.2896 2.3316 0.0875 0.0000 -10877.3492 1477.0450 0.0000 0.0000 1763.6851 -7631.9104 297.0801 -9395.5955 -7593.0314 300.0541 11.8977 46.9947 31032.2333 137.8726 189.4313
ENERGY: 1200000 3.1467 3.0137 0.0319 0.0000 -11026.9631 1582.6991 0.0000 0.0000 1753.8005 -7684.2712 295.4151 -9438.0717 -7591.2279 300.7239 564.7292 619.7328 30858.6490 211.6564 269.0016
ENERGY: 1500000 1.1661 4.5808 0.2676 0.0000 -10926.0899 1500.9655 0.0000 0.0000 1836.7814 -7582.3285 309.3926 -9419.1100 -7588.6965 301.4100 23.6963 84.5675 31195.4622 214.0551 265.6219
TCL: Running FEP window  19: Lambda1 0.09999999999999969 Lambda2 0.049999999999999684 [dLambda -0.05 ]
TCL: Setting parameter firsttimestep to 0
TCL: Setting parameter alchLambda to 0.09999999999999969
Info: NONBONDED TABLE R-SQUARED SPACING: 0.0625
Info: NONBONDED TABLE SIZE: 705 POINTS
TCL: Setting parameter alchLambda2 to 0.049999999999999684
Info: NONBONDED TABLE R-SQUARED SPACING: 0.0625
Info: NONBONDED TABLE SIZE: 705 POINTS
TCL: Running for 1500000 steps
ETITLE: TS BOND ANGLE DIHED IMPRP ELECT VDW BOUNDARY MISC KINETIC TOTAL TEMP POTENTIAL TOTALAVG TEMPAVG PRESSURE GPRESSURE VOLUME PRESSAVG GPRESSAVG
ENERGY: 0 1.1661 4.5808 0.2676 0.0000 -10926.0909 1501.3183 0.0000 0.0000 1835.9091 -7582.8490 309.2457 -9418.7581 -7582.8490 309.2457 -4.7506 84.4979 31195.4622 -4.7506 84.4979
ENERGY: 300000 0.3386 4.2893 0.0624 0.0000 -10783.9077 1442.4472 0.0000 0.0000 1808.2004 -7528.5698 304.5784 -9336.7702 -7556.0102 304.5455 -8.8714 79.7435 30696.1415 92.7620 173.8797
ENERGY: 600000 1.8666 1.9682 0.0471 0.0000 -10733.9240 1376.2344 0.0000 0.0000 1825.3440 -7528.4637 307.4661 -9353.8078 -7574.2762 302.5391 -249.6898 -244.6464 30579.2630 -3.0146 74.3473
ENERGY: 900000 0.9256 2.4927 0.1659 0.0000 -10797.6718 1428.8386 0.0000 0.0000 1748.9877 -7616.2611 294.6044 -9365.2489 -7590.1991 301.7116 -616.3565 -551.8327 31174.0013 -179.2327 -103.9783
ENERGY: 1200000 2.6117 5.2464 0.1362 0.0000 -10933.1849 1496.8895 0.0000 0.0000 1778.6125 -7649.6886 299.5945 -9428.3011 -7593.4244 301.1786 -335.3473 -219.6249 31192.4803 -172.8549 -92.8910
ENERGY: 1500000 1.2114 2.5020 0.0821 0.0000 -10750.7286 1407.3415 0.0000 0.0000 1786.3362 -7553.2554 300.8955 -9339.5916 -7589.4457 301.3699 -485.9568 -388.6884 30665.8804 -105.6391 -23.6489
TCL: Running FEP window  20: Lambda1 0.049999999999999684 Lambda2 0.0    [dLambda -0.049999999999999684]
TCL: Setting parameter firsttimestep to 0
TCL: Setting parameter alchLambda to 0.049999999999999684
Info: NONBONDED TABLE R-SQUARED SPACING: 0.0625
Info: NONBONDED TABLE SIZE: 705 POINTS
TCL: Setting parameter alchLambda2 to 0.0
Info: NONBONDED TABLE R-SQUARED SPACING: 0.0625
Info: NONBONDED TABLE SIZE: 705 POINTS
TCL: Running for 1500000 steps
ETITLE: TS BOND ANGLE DIHED IMPRP ELECT VDW BOUNDARY MISC KINETIC TOTAL TEMP POTENTIAL TOTALAVG TEMPAVG PRESSURE GPRESSURE VOLUME PRESSAVG GPRESSAVG
ENERGY: 0 1.2114 2.5020 0.0821 0.0000 -10750.7278 1405.5261 0.0000 0.0000 1785.4467 -7555.9595 300.7457 -9341.4062 -7555.9595 300.7457 -477.3711 -397.4359 30665.8804 -477.3711 -397.4359
ENERGY: 300000 3.4019 4.0676 0.4228 0.0000 -10890.1733 1463.6344 0.0000 0.0000 1779.5815 -7639.0650 299.7577 -9418.6465 -7605.1795 297.4940 -4.7459 58.9474 30594.7822 -21.0826 50.5039
ENERGY: 600000 0.8106 2.6473 0.9122 0.0000 -10854.4073 1483.1550 0.0000 0.0000 1759.2892 -7607.5930 296.3396 -9366.8822 -7624.4179 296.5867 405.7357 477.2480 30096.4188 124.9200 208.9176
ENERGY: 900000 4.1748 4.0225 0.1446 0.0000 -10579.4967 1351.5516 0.0000 0.0000 1776.7677 -7442.8354 299.2837 -9219.6032 -7598.0200 297.2377 -540.2278 -497.3893 30722.3642 -83.9572 -7.2725
ENERGY: 1200000 1.3572 1.9982 0.0255 0.0000 -10683.5306 1370.8488 0.0000 0.0000 1780.1442 -7529.1568 299.8525 -9309.3009 -7587.7015 298.6063 -356.7505 -316.4465 30244.7407 -231.5663 -164.6369
ENERGY: 1500000 1.2235 2.2016 0.1520 0.0000 -10837.0797 1506.9257 0.0000 0.0000 1797.3729 -7529.2039 302.7545 -9326.5768 -7573.3202 299.8304 419.9871 455.9736 30858.7431 -143.8537 -82.6874
TCL: Exiting due to exit command.
