Info: SIMULATION PARAMETERS:
Info: TIMESTEP               2
Info: NUMBER OF STEPS        0
Info: STEPS PER CYCLE        10
Info: PERIODIC CELL BASIS 1  31.213 0 0
Info: PERIODIC CELL BASIS 2  0 30.5653 0
Info: PERIODIC CELL BASIS 3  0 0 32.2952
Info: PERIODIC CELL CENTER   0 0 0
Info: WRAPPING WATERS AROUND PERIODIC BOUNDARIES ON OUTPUT.
Info: WRAPPING ALL CLUSTERS AROUND PERIODIC BOUNDARIES ON OUTPUT.
Info: FIRST LDB TIMESTEP     50
Info: LAST LDB TIMESTEP     -1
Info: HOM BACKGROUND SCALING 1
Info: PME BACKGROUND SCALING 1
Info: MIN ATOMS PER PATCH    40
Info: EMPTY PATCH LOAD       40 ATOMS
Info: VELOCITY FILE          mobley_628086_equil.vel
Info: CENTER OF MASS MOVING INITIALLY? NO
Info: DIELECTRIC             1
Info: EXCLUDE                SCALED ONE-FOUR
Info: 1-4 ELECTROSTATICS SCALED BY 0.833333
Info: MODIFIED 1-4 VDW PARAMETERS WILL BE USED
Info: DCD FILENAME           mobley_628086_prod.dcd
Info: DCD FREQUENCY          100000
Info: DCD FIRST STEP         100000
Info: DCD FILE WILL CONTAIN UNIT CELL DATA
Info: XST FILENAME           mobley_628086_prod.xst
Info: XST FREQUENCY          100000
Info: NO VELOCITY DCD OUTPUT
Info: NO FORCE DCD OUTPUT
Info: OUTPUT FILENAME        mobley_628086_prod
Info: BINARY OUTPUT FILES WILL BE USED
Info: RESTART FILENAME       mobley_628086_prod.restart
Info: RESTART FREQUENCY      100000
Info: BINARY RESTART FILES WILL BE USED
Info: CUTOFF                 9
Info: PAIRLIST DISTANCE      11
Info: PAIRLIST SHRINK RATE   0.01
Info: PAIRLIST GROW RATE     0.01
Info: PAIRLIST TRIGGER       0.3
Info: PAIRLISTS PER CYCLE    2
Info: PAIRLISTS ENABLED
Info: MARGIN                 2
Info: HYDROGEN GROUP CUTOFF  2.5
Info: PATCH DIMENSION        15.5
Info: ENERGY OUTPUT STEPS    100000
Info: ENERGY EVALUATION STEPS    100000
Info: OUTPUT ENERGY PRECISION 4
Info: CROSSTERM ENERGY INCLUDED IN DIHEDRAL
Info: TIMING OUTPUT STEPS    1000000
Info: PRESSURE OUTPUT STEPS  100000
Info: ALCHEMICAL FEP ON
Info: FEP CURRENT LAMBDA VALUE     0
Info: FEP COMPARISON LAMBDA VALUE  0.05
Info: FEP INTRA-ALCHEMICAL NON-BONDED INTERACTIONS WILL BE RETAINED
Info: FEP INTRA-ALCHEMICAL BONDED INTERACTIONS WILL BE RETAINED
Info: FEP VDW SHIFTING COEFFICIENT 5
Info: FEP ELEC. ACTIVE FOR ANNIHILATED PARTICLES BETWEEN LAMBDA = 0 AND LAMBDA = 0.5
Info: FEP ELEC. ACTIVE FOR EXNIHILATED PARTICLES BETWEEN LAMBDA = 0.5 AND LAMBDA = 1
Info: FEP VDW ACTIVE FOR ANNIHILATED PARTICLES BETWEEN LAMBDA = 0 AND LAMBDA = 1
Info: FEP VDW ACTIVE FOR EXNIHILATED PARTICLES BETWEEN LAMBDA = 0 AND LAMBDA = 1
Info: FEP BOND ACTIVE FOR ANNIHILATED PARTICLES BETWEEN LAMBDA = 1 AND LAMBDA = 1
Info: FEP BOND ACTIVE FOR EXNIHILATED PARTICLES BETWEEN LAMBDA = 0 AND LAMBDA = 0
Info: LANGEVIN DYNAMICS ACTIVE
Info: LANGEVIN TEMPERATURE   300
Info: LANGEVIN USING BBK INTEGRATOR
Info: LANGEVIN DAMPING COEFFICIENT IS 1 INVERSE PS
Info: LANGEVIN DYNAMICS APPLIED TO HYDROGENS
Info: LANGEVIN PISTON PRESSURE CONTROL ACTIVE
Info:        TARGET PRESSURE IS 1.01325 BAR
Info:     OSCILLATION PERIOD IS 50 FS
Info:             DECAY TIME IS 25 FS
Info:     PISTON TEMPERATURE IS 300 K
Info:       PRESSURE CONTROL IS GROUP-BASED
Info:    INITIAL STRAIN RATE IS -0.000271701 -0.000271701 -0.000271701
Info:       CELL FLUCTUATION IS ISOTROPIC
Info: PARTICLE MESH EWALD (PME) ACTIVE
Info: PME TOLERANCE               1e-06
Info: PME EWALD COEFFICIENT       0.348832
Info: PME INTERPOLATION ORDER     4
Info: PME GRID DIMENSIONS         32 32 36
Info: PME MAXIMUM GRID SPACING    1
Info: PME CALCULATION WILL BE PERFORMED ON GPU
Info: FULL ELECTROSTATIC EVALUATION FREQUENCY      2
Info: USING VERLET I (r-RESPA) MTS SCHEME.
Info: C1 SPLITTING OF LONG RANGE ELECTROSTATICS
Info: PLACING ATOMS IN PATCHES BY HYDROGEN GROUPS
Info: RIGID BONDS TO HYDROGEN : ALL
Info:         ERROR TOLERANCE : 1e-08
Info:          MAX ITERATIONS : 100
Info: RIGID WATER USING SETTLE ALGORITHM
Info: RANDOM NUMBER SEED     1743534679
Info: USE HYDROGEN BONDS?    NO
Info: Using AMBER format force field!
Info: AMBER PARM FILE        mobley_628086.prmtop
Info: COORDINATE PDB         mobley_628086.pdb
Info: Exclusions will be read from PARM file!
Info: SCNB (VDW SCALING)     2
Info: USING ARITHMETIC MEAN TO COMBINE L-J SIGMA PARAMETERS
Info: BINARY COORDINATES     mobley_628086_equil.coor
Info: SUMMARY OF PARAMETERS:
Info: 8 BONDS
Info: 9 ANGLES
Info:   9 HARMONIC
Info:   0 COSINE-BASED
Info: 6 DIHEDRAL
Info: 0 IMPROPER
Info: 0 CROSSTERM
Info: 0 VDW
Info: 28 VDW_PAIRS
Info: 0 NBTHOLE_PAIRS
Info: To read alchdata from file: mobley_628086.pdb
Info: To read alchflag data from column: 5
Info: STRUCTURE SUMMARY:
Info: 2964 ATOMS
Info: 2963 BONDS
Info: 19 ANGLES
Info: 29 DIHEDRALS
Info: 0 IMPROPERS
Info: 0 CROSSTERMS
Info: 3003 EXCLUSIONS
Info: 2957 RIGID BONDS
Info: ALCH: 0 ATOMS TO DISAPPEAR IN FINAL STATE
Info: ALCH: 12 ATOMS TO APPEAR IN FINAL STATE
Info: 5935 DEGREES OF FREEDOM
Info: 991 HYDROGEN GROUPS
Info: 4 ATOMS IN LARGEST HYDROGEN GROUP
Info: 991 MIGRATION GROUPS
Info: 4 ATOMS IN LARGEST MIGRATION GROUP
Info: TOTAL MASS = 17841.8 amu
Info: TOTAL CHARGE = -0.000100069 e
Info: MASS DENSITY = 0.961607 g/cm^3
Info: ATOM DENSITY = 0.0962005 atoms/A^3
Info: ADDED 0 IMPLICIT EXCLUSIONS
Info: NONBONDED TABLE R-SQUARED SPACING: 0.0625
Info: NONBONDED TABLE SIZE: 705 POINTS
Info: REMOVING COM VELOCITY 0.00784483 -0.130859 -0.0862841
Info: Use 3D box decompostion in PME FFT.
Info: Updated CUDA force table with 4096 elements.
Info: Updated CUDA LJ table with 7 x 7 elements.
Info: Found 15 unique exclusion lists needing 28 bytes
TCL: Running for 1500000 steps
ETITLE: TS BOND ANGLE DIHED IMPRP ELECT VDW BOUNDARY MISC KINETIC TOTAL TEMP POTENTIAL TOTALAVG TEMPAVG PRESSURE GPRESSURE VOLUME PRESSAVG GPRESSAVG
ENERGY: 0 2.0135 3.6903 2.8317 0.0000 -10789.2154 1491.4203 0.0000 0.0000 1771.9552 -7517.3043 300.4847 -9289.2596 -7517.3043 300.4847 86.2045 162.1900 30810.6377 86.2045 162.1900
ENERGY: 300000 0.7179 8.7208 2.5856 0.0000 -10716.4070 1441.5152 0.0000 0.0000 1857.1909 -7405.6766 314.9388 -9262.8676 -7455.9032 307.7300 -202.0027 -99.9835 30582.9366 208.9109 273.0060
ENERGY: 600000 1.1987 4.1217 4.0240 0.0000 -10554.0791 1335.3983 0.0000 0.0000 1761.2077 -7448.1287 298.6622 -9209.3364 -7478.0241 302.5343 -712.6088 -676.9792 30651.8121 28.1061 77.2393
ENERGY: 900000 3.2754 7.0081 3.0172 0.0000 -10686.6705 1394.1658 0.0000 0.0000 1791.0950 -7488.1091 303.7304 -9279.2041 -7491.6324 302.1493 -491.2483 -472.6343 30651.9155 137.2444 177.5487
ENERGY: 1200000 3.1400 6.2042 3.3363 0.0000 -10709.9369 1450.2211 0.0000 0.0000 1769.2802 -7477.7552 300.0311 -9247.0354 -7494.3115 300.5897 -140.2628 -49.7473 30447.4214 62.1168 104.7791
ENERGY: 1500000 3.2925 5.0617 2.1277 0.0000 -10649.6384 1438.1038 0.0000 0.0000 1759.4908 -7441.5618 298.3710 -9201.0526 -7491.3202 301.0805 -53.4022 -22.8778 30743.2150 -22.0634 27.0324
TCL: Running FEP window   2: Lambda1 0.05   Lambda2 0.1    [dLambda 0.05  ]
TCL: Setting parameter firsttimestep to 0
TCL: Setting parameter alchLambda to 0.05
Info: NONBONDED TABLE R-SQUARED SPACING: 0.0625
Info: NONBONDED TABLE SIZE: 705 POINTS
TCL: Setting parameter alchLambda2 to 0.1
Info: NONBONDED TABLE R-SQUARED SPACING: 0.0625
Info: NONBONDED TABLE SIZE: 705 POINTS
TCL: Running for 1500000 steps
ETITLE: TS BOND ANGLE DIHED IMPRP ELECT VDW BOUNDARY MISC KINETIC TOTAL TEMP POTENTIAL TOTALAVG TEMPAVG PRESSURE GPRESSURE VOLUME PRESSAVG GPRESSAVG
ENERGY: 0 3.2925 5.0617 2.1277 0.0000 -10649.6402 1440.7855 0.0000 0.0000 1758.5743 -7439.7984 298.2156 -9198.3728 -7439.7984 298.2156 -110.5638 -20.3272 30743.2150 -110.5638 -20.3272
ENERGY: 300000 1.4805 8.2716 2.5508 0.0000 -10680.6542 1456.2273 0.0000 0.0000 1801.1369 -7410.9871 305.4333 -9212.1240 -7474.2127 299.2463 102.9866 171.5826 30485.3634 238.9162 326.7412
ENERGY: 600000 3.7781 10.3592 3.0748 0.0000 -10540.4153 1321.7785 0.0000 0.0000 1786.6743 -7414.7505 302.9808 -9201.4248 -7493.3499 298.0186 -764.9009 -693.7378 30291.6302 49.5699 121.3759
ENERGY: 900000 3.9995 9.3162 2.2569 0.0000 -10711.5534 1468.2667 0.0000 0.0000 1737.9697 -7489.7444 294.7215 -9227.7141 -7503.2748 297.9149 149.2953 280.1334 30435.1771 100.4448 159.9991
ENERGY: 1200000 4.3586 2.5878 3.4411 0.0000 -10727.4695 1445.2084 0.0000 0.0000 1821.0129 -7450.8606 308.8038 -9271.8735 -7497.5520 300.2187 -64.4946 -62.4443 30337.9080 -5.7014 57.6579
ENERGY: 1500000 2.5473 5.5825 2.9014 0.0000 -10732.5371 1499.4204 0.0000 0.0000 1705.3139 -7516.7717 289.1838 -9222.0855 -7496.3657 300.0015 619.3630 587.9376 30398.9301 62.6889 121.2948
TCL: Running FEP window   3: Lambda1 0.1    Lambda2 0.15000000000000002 [dLambda 0.05000000000000002]
TCL: Setting parameter firsttimestep to 0
TCL: Setting parameter alchLambda to 0.1
Info: NONBONDED TABLE R-SQUARED SPACING: 0.0625
Info: NONBONDED TABLE SIZE: 705 POINTS
TCL: Setting parameter alchLambda2 to 0.15000000000000002
Info: NONBONDED TABLE R-SQUARED SPACING: 0.0625
Info: NONBONDED TABLE SIZE: 705 POINTS
TCL: Running for 1500000 steps
ETITLE: TS BOND ANGLE DIHED IMPRP ELECT VDW BOUNDARY MISC KINETIC TOTAL TEMP POTENTIAL TOTALAVG TEMPAVG PRESSURE GPRESSURE VOLUME PRESSAVG GPRESSAVG
ENERGY: 0 2.5473 5.5825 2.9014 0.0000 -10732.5368 1501.5930 0.0000 0.0000 1704.3996 -7515.5130 289.0288 -9219.9126 -7515.5130 289.0288 512.1491 593.2700 30398.9301 512.1491 593.2700
ENERGY: 300000 1.2321 4.7766 3.2239 0.0000 -10686.3390 1471.1977 0.0000 0.0000 1816.7087 -7389.2000 308.0739 -9205.9087 -7438.6504 303.5488 351.4197 373.9395 30637.4303 81.0541 132.5473
ENERGY: 600000 2.0508 4.7518 2.6473 0.0000 -10737.1776 1484.8319 0.0000 0.0000 1786.4838 -7456.4121 302.9485 -9242.8959 -7454.1389 302.5241 134.3066 167.8745 30576.4671 -127.5969 -57.9264
ENERGY: 900000 1.9897 4.0029 3.7581 0.0000 -10850.7365 1566.9407 0.0000 0.0000 1725.7842 -7548.2608 292.6551 -9274.0450 -7479.3638 301.3307 970.6466 1025.6951 30255.1699 -17.6741 55.8072
ENERGY: 1200000 1.0245 5.0707 2.2943 0.0000 -10798.3401 1481.7938 0.0000 0.0000 1777.5785 -7530.5783 301.4383 -9308.1568 -7483.9351 301.3623 179.3012 279.4577 30418.9753 -2.7545 70.5047
ENERGY: 1500000 4.2303 7.0316 1.8506 0.0000 -10531.0501 1329.9895 0.0000 0.0000 1839.1778 -7348.7702 311.8842 -9187.9479 -7469.2995 302.0382 -442.2410 -421.4110 30094.2122 -54.3755 17.6287
TCL: Running FEP window   4: Lambda1 0.15000000000000002 Lambda2 0.2    [dLambda 0.04999999999999999]
TCL: Setting parameter firsttimestep to 0
TCL: Setting parameter alchLambda to 0.15000000000000002
Info: NONBONDED TABLE R-SQUARED SPACING: 0.0625
Info: NONBONDED TABLE SIZE: 705 POINTS
TCL: Setting parameter alchLambda2 to 0.2
Info: NONBONDED TABLE R-SQUARED SPACING: 0.0625
Info: NONBONDED TABLE SIZE: 705 POINTS
TCL: Running for 1500000 steps
ETITLE: TS BOND ANGLE DIHED IMPRP ELECT VDW BOUNDARY MISC KINETIC TOTAL TEMP POTENTIAL TOTALAVG TEMPAVG PRESSURE GPRESSURE VOLUME PRESSAVG GPRESSAVG
ENERGY: 0 4.2303 7.0316 1.8506 0.0000 -10531.0498 1332.2844 0.0000 0.0000 1838.3162 -7347.3366 311.7381 -9185.6528 -7347.3366 311.7381 -489.0600 -409.9514 30094.2122 -489.0600 -409.9514
ENERGY: 300000 1.6451 4.3642 1.9529 0.0000 -10609.5177 1453.3780 0.0000 0.0000 1764.4678 -7383.7097 299.2150 -9148.1775 -7428.1482 299.4439 161.7546 208.9510 30811.4257 -22.3901 26.4208
ENERGY: 600000 2.7423 3.5105 2.8161 0.0000 -10698.2174 1504.1367 0.0000 0.0000 1745.0447 -7439.9671 295.9213 -9185.0118 -7421.5136 300.7329 574.2350 698.0133 30450.1463 102.5136 167.3058
ENERGY: 900000 1.8138 4.3877 3.5438 0.0000 -10814.6531 1501.5850 0.0000 0.0000 1750.8311 -7552.4917 296.9025 -9303.3228 -7442.2813 300.9937 422.7773 551.1527 29875.5643 44.3166 115.9158
ENERGY: 1200000 1.7196 3.7592 3.1921 0.0000 -10766.6932 1466.2357 0.0000 0.0000 1758.7565 -7533.0301 298.2465 -9291.7867 -7456.5824 300.6128 -166.4067 -115.8599 30624.9997 -39.8160 23.4440
ENERGY: 1500000 2.5293 5.5094 3.0276 0.0000 -10784.5262 1520.7523 0.0000 0.0000 1731.8556 -7520.8520 293.6847 -9252.7076 -7461.3734 300.4107 446.4449 578.2139 30344.9227 -38.2104 31.0549
TCL: Running FEP window   5: Lambda1 0.2    Lambda2 0.25   [dLambda 0.04999999999999999]
TCL: Setting parameter firsttimestep to 0
TCL: Setting parameter alchLambda to 0.2
Info: NONBONDED TABLE R-SQUARED SPACING: 0.0625
Info: NONBONDED TABLE SIZE: 705 POINTS
TCL: Setting parameter alchLambda2 to 0.25
Info: NONBONDED TABLE R-SQUARED SPACING: 0.0625
Info: NONBONDED TABLE SIZE: 705 POINTS
TCL: Running for 1500000 steps
ETITLE: TS BOND ANGLE DIHED IMPRP ELECT VDW BOUNDARY MISC KINETIC TOTAL TEMP POTENTIAL TOTALAVG TEMPAVG PRESSURE GPRESSURE VOLUME PRESSAVG GPRESSAVG
ENERGY: 0 2.5292 5.5094 3.0276 0.0000 -10784.5264 1521.1804 0.0000 0.0000 1730.9718 -7521.3078 293.5348 -9252.2796 -7521.3078 293.5348 498.4100 582.0596 30344.9227 498.4100 582.0596
ENERGY: 300000 1.1818 5.4502 2.5560 0.0000 -10716.3862 1441.9198 0.0000 0.0000 1780.2810 -7484.9975 301.8966 -9265.2785 -7463.2748 300.1808 -127.9252 -108.3903 30671.8503 40.9527 95.5877
ENERGY: 600000 2.8542 5.3998 3.0232 0.0000 -10725.3761 1433.5685 0.0000 0.0000 1786.9991 -7493.5313 303.0358 -9280.5305 -7480.0743 300.5388 -104.5122 -71.1940 30187.1936 -80.2208 -7.5906
ENERGY: 900000 0.8879 3.2791 2.8484 0.0000 -10778.7313 1456.7403 0.0000 0.0000 1784.3930 -7530.5826 302.5939 -9314.9756 -7479.3919 302.1757 50.0472 112.1914 30319.0595 -24.4672 44.7145
ENERGY: 1200000 2.3314 7.3885 3.0986 0.0000 -10826.9688 1495.5503 0.0000 0.0000 1736.1779 -7582.4221 294.4177 -9318.6000 -7480.9173 302.1840 409.8358 480.1929 29848.8166 5.1117 71.2354
ENERGY: 1500000 3.0868 5.7449 2.0070 0.0000 -10879.6837 1516.0266 0.0000 0.0000 1800.1730 -7552.6455 305.2698 -9352.8185 -7475.3371 302.5449 367.8281 441.1339 30026.2843 43.7222 113.6003
TCL: Running FEP window   6: Lambda1 0.25   Lambda2 0.3    [dLambda 0.04999999999999999]
TCL: Setting parameter firsttimestep to 0
TCL: Setting parameter alchLambda to 0.25
Info: NONBONDED TABLE R-SQUARED SPACING: 0.0625
Info: NONBONDED TABLE SIZE: 705 POINTS
TCL: Setting parameter alchLambda2 to 0.3
Info: NONBONDED TABLE R-SQUARED SPACING: 0.0625
Info: NONBONDED TABLE SIZE: 705 POINTS
TCL: Running for 1500000 steps
ETITLE: TS BOND ANGLE DIHED IMPRP ELECT VDW BOUNDARY MISC KINETIC TOTAL TEMP POTENTIAL TOTALAVG TEMPAVG PRESSURE GPRESSURE VOLUME PRESSAVG GPRESSAVG
ENERGY: 0 3.0868 5.7449 2.0070 0.0000 -10879.6827 1516.1713 0.0000 0.0000 1799.2708 -7553.4020 305.1169 -9352.6728 -7553.4020 305.1169 374.0136 444.0829 30026.2843 374.0136 444.0829
ENERGY: 300000 3.4877 6.5190 2.1582 0.0000 -10564.7578 1385.1569 0.0000 0.0000 1783.5320 -7383.9039 302.4479 -9167.4359 -7490.6682 300.7088 -218.1950 -125.3122 30620.4278 -85.9272 -42.9514
ENERGY: 600000 3.8846 8.8248 2.9905 0.0000 -10687.1471 1392.3208 0.0000 0.0000 1776.7096 -7502.4168 301.2910 -9279.1264 -7508.2893 299.2720 -469.8701 -388.9860 30155.5401 -133.6380 -81.9251
ENERGY: 900000 2.3675 5.3363 2.2633 0.0000 -10810.5695 1482.7466 0.0000 0.0000 1701.6829 -7616.1730 288.5681 -9317.8559 -7519.0859 298.2777 -11.0608 29.5368 30420.8217 -35.5211 25.1434
ENERGY: 1200000 0.5864 3.7526 2.1448 0.0000 -10698.1138 1487.9090 0.0000 0.0000 1788.6185 -7415.1026 303.3105 -9203.7211 -7509.4663 298.8468 286.1476 384.4300 30859.5292 -61.0136 3.6318
ENERGY: 1500000 3.3353 3.0023 1.8266 0.0000 -10782.0003 1587.0442 0.0000 0.0000 1808.5868 -7378.2052 306.6966 -9186.7919 -7489.7742 299.1614 1597.1616 1592.8688 29930.4052 68.7617 129.9519
TCL: Running FEP window   7: Lambda1 0.3    Lambda2 0.35   [dLambda 0.04999999999999999]
TCL: Setting parameter firsttimestep to 0
TCL: Setting parameter alchLambda to 0.3
Info: NONBONDED TABLE R-SQUARED SPACING: 0.0625
Info: NONBONDED TABLE SIZE: 705 POINTS
TCL: Setting parameter alchLambda2 to 0.35
Info: NONBONDED TABLE R-SQUARED SPACING: 0.0625
Info: NONBONDED TABLE SIZE: 705 POINTS
TCL: Running for 1500000 steps
ETITLE: TS BOND ANGLE DIHED IMPRP ELECT VDW BOUNDARY MISC KINETIC TOTAL TEMP POTENTIAL TOTALAVG TEMPAVG PRESSURE GPRESSURE VOLUME PRESSAVG GPRESSAVG
ENERGY: 0 3.3353 3.0023 1.8266 0.0000 -10781.9974 1587.2990 0.0000 0.0000 1807.7346 -7378.7996 306.5521 -9186.5342 -7378.7996 306.5521 1511.4511 1598.1011 29930.4052 1511.4511 1598.1011
ENERGY: 300000 2.6093 6.8489 2.9630 0.0000 -10654.2050 1381.3583 0.0000 0.0000 1742.8957 -7517.5298 295.5569 -9260.4255 -7472.0754 300.7128 -690.2790 -718.6648 30921.4402 511.7005 538.1049
ENERGY: 600000 3.8361 5.1037 2.7823 0.0000 -10538.0023 1315.9793 0.0000 0.0000 1794.4949 -7415.8060 304.3070 -9210.3008 -7456.3914 302.5407 -837.2832 -775.7970 30370.1322 407.3267 456.5714
ENERGY: 900000 4.8208 5.0348 2.5013 0.0000 -10715.3165 1387.2457 0.0000 0.0000 1731.8501 -7583.8639 293.6838 -9315.7140 -7467.6562 301.1221 -973.0858 -910.1527 30823.8532 193.5758 249.2304
ENERGY: 1200000 2.3421 8.4695 1.9758 0.0000 -10697.8479 1438.2668 0.0000 0.0000 1802.1593 -7444.6342 305.6067 -9246.7936 -7468.1087 300.3156 -16.1516 52.6032 30604.0207 156.1992 214.3581
ENERGY: 1500000 0.8811 7.5248 2.6467 0.0000 -10650.7895 1403.5060 0.0000 0.0000 1755.3194 -7480.9115 297.6637 -9236.2309 -7477.0377 299.2951 -348.0083 -271.9544 30718.7802 70.7581 137.6233
TCL: Running FEP window   8: Lambda1 0.35   Lambda2 0.39999999999999997 [dLambda 0.04999999999999999]
TCL: Setting parameter firsttimestep to 0
TCL: Setting parameter alchLambda to 0.35
Info: NONBONDED TABLE R-SQUARED SPACING: 0.0625
Info: NONBONDED TABLE SIZE: 705 POINTS
TCL: Setting parameter alchLambda2 to 0.39999999999999997
Info: NONBONDED TABLE R-SQUARED SPACING: 0.0625
Info: NONBONDED TABLE SIZE: 705 POINTS
TCL: Running for 1500000 steps
ETITLE: TS BOND ANGLE DIHED IMPRP ELECT VDW BOUNDARY MISC KINETIC TOTAL TEMP POTENTIAL TOTALAVG TEMPAVG PRESSURE GPRESSURE VOLUME PRESSAVG GPRESSAVG
ENERGY: 0 0.8810 7.5248 2.6467 0.0000 -10650.7894 1404.3084 0.0000 0.0000 1754.4501 -7480.9784 297.5162 -9235.4285 -7480.9784 297.5162 -336.2009 -265.9957 30718.7802 -336.2009 -265.9957
ENERGY: 300000 0.9294 4.4010 2.7394 0.0000 -10606.0143 1355.2681 0.0000 0.0000 1787.5482 -7455.1283 303.1290 -9242.6765 -7463.1438 298.8156 -864.5008 -750.4931 30697.9736 -323.4636 -239.5751
ENERGY: 600000 3.4279 2.7136 2.9050 0.0000 -10712.6707 1427.2067 0.0000 0.0000 1751.4753 -7524.9421 297.0118 -9276.4175 -7474.6532 300.2862 0.8266 73.0531 30269.5164 -148.2374 -64.8296
ENERGY: 900000 1.2176 6.2970 2.2589 0.0000 -10675.7119 1419.9625 0.0000 0.0000 1806.7974 -7439.1784 306.3932 -9245.9758 -7481.5634 300.0768 -365.2248 -294.3651 30932.1155 -139.9895 -67.5499
ENERGY: 1200000 0.8454 1.9047 2.4118 0.0000 -10573.0807 1363.0264 0.0000 0.0000 1760.4689 -7444.4235 298.5369 -9204.8924 -7473.2988 301.0977 -438.9920 -455.4244 30547.7451 -156.0159 -95.8774
ENERGY: 1500000 1.1488 4.0124 2.6741 0.0000 -10744.1362 1457.6409 0.0000 0.0000 1745.0009 -7533.6591 295.9139 -9278.6600 -7482.1343 301.5754 141.6541 119.8047 30302.7021 -115.4987 -64.4772
TCL: Running FEP window   9: Lambda1 0.39999999999999997 Lambda2 0.44999999999999996 [dLambda 0.04999999999999999]
TCL: Setting parameter firsttimestep to 0
TCL: Setting parameter alchLambda to 0.39999999999999997
Info: NONBONDED TABLE R-SQUARED SPACING: 0.0625
Info: NONBONDED TABLE SIZE: 705 POINTS
TCL: Setting parameter alchLambda2 to 0.44999999999999996
Info: NONBONDED TABLE R-SQUARED SPACING: 0.0625
Info: NONBONDED TABLE SIZE: 705 POINTS
TCL: Running for 1500000 steps
ETITLE: TS BOND ANGLE DIHED IMPRP ELECT VDW BOUNDARY MISC KINETIC TOTAL TEMP POTENTIAL TOTALAVG TEMPAVG PRESSURE GPRESSURE VOLUME PRESSAVG GPRESSAVG
ENERGY: 0 1.1488 4.0124 2.6741 0.0000 -10744.1370 1457.4225 0.0000 0.0000 1744.0916 -7534.7876 295.7597 -9278.8792 -7534.7876 295.7597 50.2222 121.4007 30302.7021 50.2222 121.4007
ENERGY: 300000 1.8409 5.9359 3.1803 0.0000 -10635.4975 1414.6525 0.0000 0.0000 1747.0706 -7462.8173 296.2648 -9209.8879 -7498.8908 296.6229 -309.9852 -235.6911 30824.3411 79.3184 138.0663
ENERGY: 600000 2.7228 4.3416 2.9471 0.0000 -10873.5113 1551.3721 0.0000 0.0000 1726.9167 -7585.2109 292.8472 -9312.1276 -7499.5198 296.1738 579.1974 719.1961 30386.7141 154.9115 220.7082
ENERGY: 900000 0.7840 4.4996 2.2161 0.0000 -10641.2877 1391.1942 0.0000 0.0000 1779.5814 -7463.0123 301.7780 -9242.5937 -7505.3510 296.9649 -285.4168 -220.3325 30621.9156 -28.3519 43.9591
ENERGY: 1200000 2.2616 6.6772 2.2141 0.0000 -10696.0402 1473.8185 0.0000 0.0000 1781.8036 -7429.2651 302.1548 -9211.0687 -7480.6547 297.9889 417.4802 493.0983 30256.0711 -91.4589 -21.2364
ENERGY: 1500000 2.3562 7.8156 2.2385 0.0000 -10758.3084 1508.1512 0.0000 0.0000 1744.5013 -7493.2456 295.8291 -9237.7469 -7489.4089 297.5958 375.9840 414.2701 30808.9212 -72.0055 -4.6752
TCL: Running FEP window  10: Lambda1 0.44999999999999996 Lambda2 0.49999999999999994 [dLambda 0.04999999999999999]
TCL: Setting parameter firsttimestep to 0
TCL: Setting parameter alchLambda to 0.44999999999999996
Info: NONBONDED TABLE R-SQUARED SPACING: 0.0625
Info: NONBONDED TABLE SIZE: 705 POINTS
TCL: Setting parameter alchLambda2 to 0.49999999999999994
Info: NONBONDED TABLE R-SQUARED SPACING: 0.0625
Info: NONBONDED TABLE SIZE: 705 POINTS
TCL: Running for 1500000 steps
ETITLE: TS BOND ANGLE DIHED IMPRP ELECT VDW BOUNDARY MISC KINETIC TOTAL TEMP POTENTIAL TOTALAVG TEMPAVG PRESSURE GPRESSURE VOLUME PRESSAVG GPRESSAVG
ENERGY: 0 2.3562 7.8156 2.2385 0.0000 -10758.3070 1507.9965 0.0000 0.0000 1743.5617 -7494.3384 295.6698 -9237.9001 -7494.3384 295.6698 316.4344 414.5060 30808.9212 316.4344 414.5060
ENERGY: 300000 0.8981 4.7377 1.9779 0.0000 -10628.7550 1404.0140 0.0000 0.0000 1761.1067 -7456.0206 298.6451 -9217.1273 -7451.7417 298.7058 -338.4406 -256.7349 30720.1945 -347.5716 -279.9779
ENERGY: 600000 1.9352 9.0830 3.6017 0.0000 -10560.9426 1365.7355 0.0000 0.0000 1778.4511 -7402.1361 301.5863 -9180.5872 -7474.0983 298.6404 -527.2601 -477.7865 31093.4492 -223.1353 -149.3748
ENERGY: 900000 1.8805 3.3492 2.5363 0.0000 -10841.3473 1501.6268 0.0000 0.0000 1846.0216 -7485.9329 313.0448 -9331.9545 -7489.8946 300.0942 298.8264 323.5518 30473.1194 -255.9420 -186.0844
ENERGY: 1200000 1.4552 7.8213 2.4188 0.0000 -10749.6552 1517.1632 0.0000 0.0000 1728.6345 -7492.1623 293.1385 -9220.7968 -7488.8231 299.9155 861.4713 782.6954 30208.3120 -128.1186 -71.2017
ENERGY: 1500000 2.0548 5.9082 1.7915 0.0000 -10704.6691 1471.9748 0.0000 0.0000 1777.8042 -7445.1356 301.4766 -9222.9398 -7494.6791 299.5934 297.9288 385.6492 30552.4394 -82.2805 -20.5341
TCL: Running FEP window  11: Lambda1 0.49999999999999994 Lambda2 0.5499999999999999 [dLambda 0.04999999999999999]
TCL: Setting parameter firsttimestep to 0
TCL: Setting parameter alchLambda to 0.49999999999999994
Info: NONBONDED TABLE R-SQUARED SPACING: 0.0625
Info: NONBONDED TABLE SIZE: 705 POINTS
TCL: Setting parameter alchLambda2 to 0.5499999999999999
Info: NONBONDED TABLE R-SQUARED SPACING: 0.0625
Info: NONBONDED TABLE SIZE: 705 POINTS
TCL: Running for 1500000 steps
ETITLE: TS BOND ANGLE DIHED IMPRP ELECT VDW BOUNDARY MISC KINETIC TOTAL TEMP POTENTIAL TOTALAVG TEMPAVG PRESSURE GPRESSURE VOLUME PRESSAVG GPRESSAVG
ENERGY: 0 2.0548 5.9082 1.7915 0.0000 -10704.6689 1472.1968 0.0000 0.0000 1776.9427 -7445.7749 301.3305 -9222.7176 -7445.7749 301.3305 306.2357 391.6347 30552.4394 306.2357 391.6347
ENERGY: 300000 2.6060 2.8471 3.7664 0.0000 -10754.0450 1534.1011 0.0000 0.0000 1794.9710 -7415.7533 304.3877 -9210.7243 -7471.7246 298.8536 651.9568 795.6610 30800.0837 -26.0402 66.9077
ENERGY: 600000 1.3782 4.4178 2.6676 0.0000 -10633.4330 1439.6008 0.0000 0.0000 1793.0178 -7392.3509 304.0565 -9185.3687 -7485.9652 300.4669 209.8090 244.6386 30542.6409 11.3087 104.7482
ENERGY: 900000 2.8554 5.6433 1.7860 0.0000 -10809.1163 1509.0569 0.0000 0.0000 1783.8407 -7505.9340 302.5002 -9289.7747 -7501.4897 300.0468 252.3828 345.5485 30644.7074 122.8799 215.4067
ENERGY: 1200000 5.1252 4.2620 2.5757 0.0000 -10808.7988 1489.4251 0.0000 0.0000 1715.7582 -7591.6527 290.9549 -9307.4109 -7496.2674 300.8114 92.4471 84.9419 30552.3791 142.6485 226.2419
ENERGY: 1500000 3.6202 6.6327 2.9935 0.0000 -10792.3650 1520.3946 0.0000 0.0000 1835.1871 -7423.5368 311.2075 -9258.7239 -7486.9452 300.8698 724.8633 760.5944 30396.4783 144.1620 226.5679
TCL: Running FEP window  12: Lambda1 0.5499999999999999 Lambda2 0.6    [dLambda 0.050000000000000044]
TCL: Setting parameter firsttimestep to 0
TCL: Setting parameter alchLambda to 0.5499999999999999
Info: NONBONDED TABLE R-SQUARED SPACING: 0.0625
Info: NONBONDED TABLE SIZE: 705 POINTS
TCL: Setting parameter alchLambda2 to 0.6
Info: NONBONDED TABLE R-SQUARED SPACING: 0.0625
Info: NONBONDED TABLE SIZE: 705 POINTS
TCL: Running for 1500000 steps
ETITLE: TS BOND ANGLE DIHED IMPRP ELECT VDW BOUNDARY MISC KINETIC TOTAL TEMP POTENTIAL TOTALAVG TEMPAVG PRESSURE GPRESSURE VOLUME PRESSAVG GPRESSAVG
ENERGY: 0 3.6202 6.6327 2.9935 0.0000 -10792.2689 1520.6530 0.0000 0.0000 1834.3080 -7424.0616 311.0584 -9258.3695 -7424.0616 311.0584 677.7946 769.0935 30396.4783 677.7946 769.0935
ENERGY: 300000 1.6006 4.9017 2.4664 0.0000 -10746.7880 1428.7028 0.0000 0.0000 1797.8893 -7511.2273 304.8826 -9309.1166 -7468.2754 304.8180 -104.2685 2.1461 30192.1951 74.5442 168.3403
ENERGY: 600000 3.6302 3.5486 2.6005 0.0000 -10586.4334 1415.1588 0.0000 0.0000 1790.1646 -7371.3307 303.5726 -9161.4953 -7466.1354 303.1552 -47.7714 70.8269 30598.9983 17.6411 114.9746
ENERGY: 900000 3.0058 7.5331 2.7442 0.0000 -10758.5053 1458.0274 0.0000 0.0000 1755.4877 -7531.7072 297.6922 -9287.1949 -7457.7556 302.2791 10.3831 65.1941 30324.1707 -56.3299 29.3165
ENERGY: 1200000 1.7216 5.7626 2.7791 0.0000 -10744.7787 1502.2398 0.0000 0.0000 1790.0308 -7442.2447 303.5499 -9232.2755 -7468.1646 301.2630 920.5718 973.5542 29892.9927 81.9020 165.1282
ENERGY: 1500000 2.3568 6.6870 2.0665 0.0000 -10699.4207 1425.7736 0.0000 0.0000 1779.5559 -7482.9809 301.7736 -9262.5368 -7461.1869 301.2803 -44.3610 -45.9336 30238.1185 88.2976 159.8184
TCL: Running FEP window  13: Lambda1 0.6    Lambda2 0.65   [dLambda 0.050000000000000044]
TCL: Setting parameter firsttimestep to 0
TCL: Setting parameter alchLambda to 0.6
Info: NONBONDED TABLE R-SQUARED SPACING: 0.0625
Info: NONBONDED TABLE SIZE: 705 POINTS
TCL: Setting parameter alchLambda2 to 0.65
Info: NONBONDED TABLE R-SQUARED SPACING: 0.0625
Info: NONBONDED TABLE SIZE: 705 POINTS
TCL: Running for 1500000 steps
ETITLE: TS BOND ANGLE DIHED IMPRP ELECT VDW BOUNDARY MISC KINETIC TOTAL TEMP POTENTIAL TOTALAVG TEMPAVG PRESSURE GPRESSURE VOLUME PRESSAVG GPRESSAVG
ENERGY: 0 2.3568 6.6870 2.0665 0.0000 -10699.6447 1425.9733 0.0000 0.0000 1778.6621 -7483.8990 301.6221 -9262.5611 -7483.8990 301.6221 -116.3387 -38.6499 30238.1185 -116.3387 -38.6499
ENERGY: 300000 3.1935 4.2197 1.8378 0.0000 -10751.5776 1474.4348 0.0000 0.0000 1741.9837 -7525.9080 295.4022 -9267.8917 -7524.4385 296.5235 332.3935 389.4615 30248.3694 -287.2292 -233.4959
ENERGY: 600000 0.9972 5.2210 1.8989 0.0000 -10807.4906 1538.3402 0.0000 0.0000 1741.6828 -7519.3505 295.3512 -9261.0333 -7520.8873 296.6789 1034.3544 1045.0840 29933.1740 107.4669 172.9635
ENERGY: 900000 1.5132 7.2573 1.7685 0.0000 -10560.5416 1328.1644 0.0000 0.0000 1810.7837 -7411.0545 307.0692 -9221.8381 -7490.1316 299.3804 -759.3421 -697.3370 30607.1712 -88.5447 -22.1162
ENERGY: 1200000 3.7888 7.6184 2.4732 0.0000 -10731.2134 1401.1625 0.0000 0.0000 1829.8389 -7486.3316 310.3005 -9316.1705 -7483.6133 301.2849 -713.1457 -611.6918 30773.0860 -7.1990 62.7069
ENERGY: 1500000 6.1092 5.1885 3.5389 0.0000 -10625.1044 1379.5445 0.0000 0.0000 1794.8229 -7435.9005 304.3626 -9230.7233 -7487.1274 301.0103 -634.7051 -552.6475 30635.9509 -77.7023 -3.1362
TCL: Running FEP window  14: Lambda1 0.65   Lambda2 0.7000000000000001 [dLambda 0.050000000000000044]
TCL: Setting parameter firsttimestep to 0
TCL: Setting parameter alchLambda to 0.65
Info: NONBONDED TABLE R-SQUARED SPACING: 0.0625
Info: NONBONDED TABLE SIZE: 705 POINTS
TCL: Setting parameter alchLambda2 to 0.7000000000000001
Info: NONBONDED TABLE R-SQUARED SPACING: 0.0625
Info: NONBONDED TABLE SIZE: 705 POINTS
TCL: Running for 1500000 steps
ETITLE: TS BOND ANGLE DIHED IMPRP ELECT VDW BOUNDARY MISC KINETIC TOTAL TEMP POTENTIAL TOTALAVG TEMPAVG PRESSURE GPRESSURE VOLUME PRESSAVG GPRESSAVG
ENERGY: 0 6.1092 5.1885 3.5389 0.0000 -10625.6841 1379.7215 0.0000 0.0000 1793.9457 -7437.1803 304.2138 -9231.1260 -7437.1803 304.2138 -647.2528 -546.4569 30635.9509 -647.2528 -546.4569
ENERGY: 300000 2.7049 3.4879 2.6477 0.0000 -10694.8533 1443.9720 0.0000 0.0000 1815.5964 -7426.4444 307.8853 -9242.0408 -7488.2218 301.3784 35.1384 73.6131 30681.9902 -388.5227 -336.7845
ENERGY: 600000 3.6368 3.9075 2.3645 0.0000 -10538.5042 1322.1320 0.0000 0.0000 1768.8930 -7437.5704 299.9654 -9206.4634 -7461.9429 302.7718 -1024.3059 -985.8924 30815.0922 -363.9150 -316.4009
ENERGY: 900000 3.9380 6.4531 3.1828 0.0000 -10604.6499 1386.1017 0.0000 0.0000 1783.7429 -7421.2314 302.4837 -9204.9743 -7473.7323 301.6335 12.2347 42.5032 30226.7980 -258.3880 -205.5527
ENERGY: 1200000 3.7329 5.6457 3.1541 0.0000 -10607.3347 1352.7954 0.0000 0.0000 1785.6909 -7456.3158 302.8140 -9242.0066 -7463.6738 300.8413 -819.4451 -783.0795 30700.6616 -303.9078 -255.1545
ENERGY: 1500000 1.3423 7.1924 2.4206 0.0000 -10605.2092 1348.0991 0.0000 0.0000 1752.8974 -7493.2573 297.2529 -9246.1547 -7470.6550 300.6067 -831.6679 -740.1741 30495.7554 -232.9594 -183.0496
TCL: Running FEP window  15: Lambda1 0.7000000000000001 Lambda2 0.7500000000000001 [dLambda 0.050000000000000044]
TCL: Setting parameter firsttimestep to 0
TCL: Setting parameter alchLambda to 0.7000000000000001
Info: NONBONDED TABLE R-SQUARED SPACING: 0.0625
Info: NONBONDED TABLE SIZE: 705 POINTS
TCL: Setting parameter alchLambda2 to 0.7500000000000001
Info: NONBONDED TABLE R-SQUARED SPACING: 0.0625
Info: NONBONDED TABLE SIZE: 705 POINTS
TCL: Running for 1500000 steps
ETITLE: TS BOND ANGLE DIHED IMPRP ELECT VDW BOUNDARY MISC KINETIC TOTAL TEMP POTENTIAL TOTALAVG TEMPAVG PRESSURE GPRESSURE VOLUME PRESSAVG GPRESSAVG
ENERGY: 0 1.3423 7.1924 2.4206 0.0000 -10605.7250 1347.9066 0.0000 0.0000 1752.0313 -7494.8318 297.1061 -9246.8631 -7494.8318 297.1061 -815.2755 -737.0224 30495.7554 -815.2755 -737.0224
ENERGY: 300000 2.4140 6.1386 2.2625 0.0000 -10666.4435 1460.0884 0.0000 0.0000 1760.0656 -7435.4743 298.4685 -9195.5400 -7524.2301 295.7082 219.4780 250.3811 30563.4337 194.1777 242.3436
ENERGY: 600000 2.2064 2.8079 2.4877 0.0000 -10678.5167 1414.2641 0.0000 0.0000 1724.2768 -7532.4738 292.3995 -9256.7506 -7514.9339 296.0640 -273.0135 -311.6378 30726.5613 94.0889 121.1452
ENERGY: 900000 2.4717 6.0600 3.1475 0.0000 -10699.2767 1419.1866 0.0000 0.0000 1797.9269 -7470.4840 304.8890 -9268.4109 -7515.2586 297.1435 -131.6183 -96.1218 30534.0684 36.4890 81.6318
ENERGY: 1200000 1.5820 3.8918 3.0112 0.0000 -10559.0619 1346.6414 0.0000 0.0000 1724.2819 -7479.6536 292.4004 -9203.9355 -7520.7826 296.8555 -655.0248 -570.2822 30578.2453 3.0980 47.5478
ENERGY: 1500000 3.0593 6.7226 2.8491 0.0000 -10737.5868 1474.2037 0.0000 0.0000 1772.2010 -7478.5511 300.5264 -9250.7521 -7517.7642 297.1315 210.1814 204.9965 30578.8353 -14.3664 30.6606
TCL: Running FEP window  16: Lambda1 0.7500000000000001 Lambda2 0.8000000000000002 [dLambda 0.050000000000000044]
TCL: Setting parameter firsttimestep to 0
TCL: Setting parameter alchLambda to 0.7500000000000001
Info: NONBONDED TABLE R-SQUARED SPACING: 0.0625
Info: NONBONDED TABLE SIZE: 705 POINTS
TCL: Setting parameter alchLambda2 to 0.8000000000000002
Info: NONBONDED TABLE R-SQUARED SPACING: 0.0625
Info: NONBONDED TABLE SIZE: 705 POINTS
TCL: Running for 1500000 steps
ETITLE: TS BOND ANGLE DIHED IMPRP ELECT VDW BOUNDARY MISC KINETIC TOTAL TEMP POTENTIAL TOTALAVG TEMPAVG PRESSURE GPRESSURE VOLUME PRESSAVG GPRESSAVG
ENERGY: 0 3.0593 6.7226 2.8491 0.0000 -10738.9106 1474.4504 0.0000 0.0000 1771.3300 -7480.4992 300.3787 -9251.8292 -7480.4992 300.3787 139.2099 210.6001 30578.8353 139.2099 210.6001
ENERGY: 300000 2.5845 6.3862 2.4786 0.0000 -10814.2133 1464.9140 0.0000 0.0000 1858.4279 -7479.4220 315.1486 -9337.8499 -7489.9748 301.5278 2.7316 43.4245 30683.5680 160.8170 213.0312
ENERGY: 600000 1.7511 8.9872 3.2718 0.0000 -10622.2614 1368.5786 0.0000 0.0000 1759.9521 -7479.7207 298.4493 -9239.6728 -7496.0522 300.5135 -559.7384 -519.5836 30648.1847 -271.7048 -221.9656
ENERGY: 900000 3.6837 4.2814 2.5408 0.0000 -10685.1046 1458.4406 0.0000 0.0000 1792.3246 -7423.8335 303.9389 -9216.1581 -7481.6301 300.9545 170.3033 256.9281 30365.6376 -234.0787 -181.0606
ENERGY: 1200000 1.4057 9.2572 3.8663 0.0000 -10624.8984 1432.2708 0.0000 0.0000 1770.6151 -7407.4833 300.2575 -9178.0984 -7478.7420 300.4750 97.7962 143.0414 30624.3380 -229.5889 -178.1239
ENERGY: 1500000 2.4839 4.4277 2.9361 0.0000 -10557.2019 1318.2686 0.0000 0.0000 1816.1277 -7412.9579 307.9754 -9229.0857 -7476.4284 300.7946 -915.8953 -847.3826 30730.2611 -210.4717 -157.2274
TCL: Running FEP window  17: Lambda1 0.8000000000000002 Lambda2 0.8500000000000002 [dLambda 0.050000000000000044]
TCL: Setting parameter firsttimestep to 0
TCL: Setting parameter alchLambda to 0.8000000000000002
Info: NONBONDED TABLE R-SQUARED SPACING: 0.0625
Info: NONBONDED TABLE SIZE: 705 POINTS
TCL: Setting parameter alchLambda2 to 0.8500000000000002
Info: NONBONDED TABLE R-SQUARED SPACING: 0.0625
Info: NONBONDED TABLE SIZE: 705 POINTS
TCL: Running for 1500000 steps
ETITLE: TS BOND ANGLE DIHED IMPRP ELECT VDW BOUNDARY MISC KINETIC TOTAL TEMP POTENTIAL TOTALAVG TEMPAVG PRESSURE GPRESSURE VOLUME PRESSAVG GPRESSAVG
ENERGY: 0 2.4839 4.4277 2.9361 0.0000 -10559.1672 1318.5063 0.0000 0.0000 1815.2277 -7415.5856 307.8228 -9230.8133 -7415.5856 307.8228 -922.0809 -841.5578 30730.2611 -922.0809 -841.5578
ENERGY: 300000 1.8094 5.7987 2.4638 0.0000 -10694.3141 1415.7885 0.0000 0.0000 1766.9968 -7501.4568 299.6439 -9268.4537 -7478.8706 301.5196 -15.5311 53.6731 30343.6074 -312.6222 -251.6691
ENERGY: 600000 1.4722 4.5286 3.3241 0.0000 -10613.1423 1346.2083 0.0000 0.0000 1731.7333 -7525.8758 293.6640 -9257.6091 -7477.5198 300.2735 -805.4489 -719.6279 30434.5551 -306.9567 -237.4937
ENERGY: 900000 2.3323 3.7037 1.9241 0.0000 -10615.6479 1395.3934 0.0000 0.0000 1802.1401 -7410.1544 305.6034 -9212.2945 -7470.8156 301.1841 -370.9765 -318.3624 30958.4666 -293.2065 -216.5172
ENERGY: 1200000 2.9836 3.4438 2.5209 0.0000 -10708.1516 1421.8597 0.0000 0.0000 1789.3236 -7488.0200 303.4300 -9277.3436 -7470.4973 301.3811 -483.3166 -361.5044 30671.6816 -244.9165 -161.8748
ENERGY: 1500000 2.3310 7.6951 2.8864 0.0000 -10746.8339 1430.3275 0.0000 0.0000 1820.1525 -7483.4414 308.6579 -9303.5939 -7468.8046 301.7549 -246.9269 -253.0217 30496.5940 -159.2772 -88.6395
TCL: Running FEP window  18: Lambda1 0.8500000000000002 Lambda2 0.9000000000000002 [dLambda 0.050000000000000044]
TCL: Setting parameter firsttimestep to 0
TCL: Setting parameter alchLambda to 0.8500000000000002
Info: NONBONDED TABLE R-SQUARED SPACING: 0.0625
Info: NONBONDED TABLE SIZE: 705 POINTS
TCL: Setting parameter alchLambda2 to 0.9000000000000002
Info: NONBONDED TABLE R-SQUARED SPACING: 0.0625
Info: NONBONDED TABLE SIZE: 705 POINTS
TCL: Running for 1500000 steps
ETITLE: TS BOND ANGLE DIHED IMPRP ELECT VDW BOUNDARY MISC KINETIC TOTAL TEMP POTENTIAL TOTALAVG TEMPAVG PRESSURE GPRESSURE VOLUME PRESSAVG GPRESSAVG
ENERGY: 0 2.3310 7.6951 2.8864 0.0000 -10748.7684 1431.3825 0.0000 0.0000 1819.2866 -7485.1867 308.5111 -9304.4733 -7485.1867 308.5111 -312.5671 -238.8541 30496.5940 -312.5671 -238.8541
ENERGY: 300000 3.2310 4.5699 2.0395 0.0000 -10793.3788 1483.9458 0.0000 0.0000 1831.2465 -7468.3462 310.5392 -9299.5926 -7515.1901 303.7105 314.0676 419.4886 30057.2458 -17.6640 43.4343
ENERGY: 600000 5.0030 6.1143 3.7469 0.0000 -10844.9910 1492.5020 0.0000 0.0000 1756.6596 -7580.9652 297.8909 -9337.6248 -7521.8142 299.6902 243.2243 309.1045 30070.4064 179.5146 245.6644
ENERGY: 900000 4.8153 4.8884 2.5687 0.0000 -10825.9140 1562.3515 0.0000 0.0000 1762.6927 -7488.5974 298.9140 -9251.2901 -7516.6027 300.2665 655.5016 644.6110 30942.1306 186.5150 244.8796
ENERGY: 1200000 1.7123 7.2481 2.3219 0.0000 -10714.4747 1443.3665 0.0000 0.0000 1825.0041 -7434.8218 309.4807 -9259.8259 -7500.1779 301.2352 -232.8557 -94.1752 30623.8817 82.8985 148.0303
ENERGY: 1500000 4.1147 3.4629 2.1511 0.0000 -10642.7020 1380.5947 0.0000 0.0000 1743.4176 -7508.9610 295.6454 -9252.3786 -7500.7841 300.6008 -260.4339 -245.3459 30536.3142 -20.3958 41.3813
TCL: Running FEP window  19: Lambda1 0.9000000000000002 Lambda2 0.9500000000000003 [dLambda 0.050000000000000044]
TCL: Setting parameter firsttimestep to 0
TCL: Setting parameter alchLambda to 0.9000000000000002
Info: NONBONDED TABLE R-SQUARED SPACING: 0.0625
Info: NONBONDED TABLE SIZE: 705 POINTS
TCL: Setting parameter alchLambda2 to 0.9500000000000003
Info: NONBONDED TABLE R-SQUARED SPACING: 0.0625
Info: NONBONDED TABLE SIZE: 705 POINTS
TCL: Running for 1500000 steps
ETITLE: TS BOND ANGLE DIHED IMPRP ELECT VDW BOUNDARY MISC KINETIC TOTAL TEMP POTENTIAL TOTALAVG TEMPAVG PRESSURE GPRESSURE VOLUME PRESSAVG GPRESSAVG
ENERGY: 0 4.1147 3.4629 2.1511 0.0000 -10644.0749 1381.7963 0.0000 0.0000 1742.5195 -7510.0304 295.4931 -9252.5499 -7510.0304 295.4931 -297.8180 -223.8246 30536.3142 -297.8180 -223.8246
ENERGY: 300000 3.2644 5.2273 2.5628 0.0000 -10781.0102 1510.7512 0.0000 0.0000 1772.5362 -7486.6683 300.5832 -9259.2045 -7486.3290 300.0028 507.4013 595.1613 30238.7780 -151.3735 -67.7407
ENERGY: 600000 0.8475 6.2081 2.0283 0.0000 -10676.5960 1493.8336 0.0000 0.0000 1782.3145 -7391.3639 302.2414 -9173.6785 -7473.2329 302.3998 689.6253 732.7738 30593.1413 182.3201 257.4080
ENERGY: 900000 2.8328 5.1247 2.4233 0.0000 -10839.6991 1511.3106 0.0000 0.0000 1745.8984 -7572.1094 296.0661 -9318.0078 -7467.6307 302.6787 290.6609 396.1710 30357.5326 84.6988 161.0717
ENERGY: 1200000 2.2300 7.5533 2.9995 0.0000 -10778.4552 1475.1672 0.0000 0.0000 1765.9143 -7524.5909 299.4603 -9290.5052 -7477.5437 302.0575 253.8376 288.8522 30295.0475 44.7655 118.1861
ENERGY: 1500000 3.4687 7.9196 3.0356 0.0000 -10684.1918 1395.7615 0.0000 0.0000 1761.7716 -7512.2349 298.7578 -9274.0064 -7476.9640 301.1288 -515.3838 -468.3015 30589.5883 -31.6550 40.0323
TCL: Running FEP window  20: Lambda1 0.9500000000000003 Lambda2 1.0    [dLambda 0.04999999999999971]
TCL: Setting parameter firsttimestep to 0
TCL: Setting parameter alchLambda to 0.9500000000000003
Info: NONBONDED TABLE R-SQUARED SPACING: 0.0625
Info: NONBONDED TABLE SIZE: 705 POINTS
TCL: Setting parameter alchLambda2 to 1.0
Info: NONBONDED TABLE R-SQUARED SPACING: 0.0625
Info: NONBONDED TABLE SIZE: 705 POINTS
TCL: Running for 1500000 steps
ETITLE: TS BOND ANGLE DIHED IMPRP ELECT VDW BOUNDARY MISC KINETIC TOTAL TEMP POTENTIAL TOTALAVG TEMPAVG PRESSURE GPRESSURE VOLUME PRESSAVG GPRESSAVG
ENERGY: 0 3.4687 7.9196 3.0356 0.0000 -10686.0151 1397.0441 0.0000 0.0000 1760.8508 -7513.6964 298.6017 -9274.5471 -7513.6964 298.6017 -525.4721 -447.1992 30589.5883 -525.4721 -447.1992
ENERGY: 300000 4.7391 4.9188 2.0658 0.0000 -10649.4841 1420.5994 0.0000 0.0000 1800.1220 -7417.0390 305.2612 -9217.1610 -7476.8320 300.3412 143.9698 169.9396 30216.9935 -353.6470 -318.9843
ENERGY: 600000 0.3415 7.8861 2.0392 0.0000 -10828.3887 1474.3177 0.0000 0.0000 1755.7788 -7588.0254 297.7416 -9343.8042 -7495.6037 300.5090 156.9726 142.4700 30203.8370 -296.5215 -253.7934
ENERGY: 900000 2.3481 3.5082 2.3900 0.0000 -10705.3599 1406.5809 0.0000 0.0000 1725.8586 -7564.6741 292.6678 -9290.5327 -7500.7788 300.6245 -487.2613 -384.5456 30421.7283 -372.3978 -325.9150
ENERGY: 1200000 2.8989 5.7613 2.3509 0.0000 -10745.6817 1395.2947 0.0000 0.0000 1766.8547 -7572.5210 299.6198 -9339.3758 -7502.8773 300.1299 -707.6284 -616.6020 30844.8303 -196.0432 -139.8047
ENERGY: 1500000 1.9974 4.5647 2.1610 0.0000 -10738.2532 1466.2928 0.0000 0.0000 1785.1793 -7478.0580 302.7272 -9263.2373 -7495.3781 300.7406 240.5920 301.4447 30097.7268 -166.7228 -109.0956
TCL: Exiting due to exit command.
