Info: SIMULATION PARAMETERS:
Info: TIMESTEP               2
Info: NUMBER OF STEPS        0
Info: STEPS PER CYCLE        10
Info: PERIODIC CELL BASIS 1  30.8871 0 0
Info: PERIODIC CELL BASIS 2  0 31.5872 0
Info: PERIODIC CELL BASIS 3  0 0 31.5378
Info: PERIODIC CELL CENTER   0 0 0
Info: WRAPPING WATERS AROUND PERIODIC BOUNDARIES ON OUTPUT.
Info: WRAPPING ALL CLUSTERS AROUND PERIODIC BOUNDARIES ON OUTPUT.
Info: FIRST LDB TIMESTEP     50
Info: LAST LDB TIMESTEP     -1
Info: HOM BACKGROUND SCALING 1
Info: PME BACKGROUND SCALING 1
Info: MIN ATOMS PER PATCH    40
Info: EMPTY PATCH LOAD       40 ATOMS
Info: VELOCITY FILE          mobley_9434451_equil.vel
Info: CENTER OF MASS MOVING INITIALLY? NO
Info: DIELECTRIC             1
Info: EXCLUDE                SCALED ONE-FOUR
Info: 1-4 ELECTROSTATICS SCALED BY 0.833333
Info: MODIFIED 1-4 VDW PARAMETERS WILL BE USED
Info: DCD FILENAME           mobley_9434451_prod.dcd
Info: DCD FREQUENCY          100000
Info: DCD FIRST STEP         100000
Info: DCD FILE WILL CONTAIN UNIT CELL DATA
Info: XST FILENAME           mobley_9434451_prod.xst
Info: XST FREQUENCY          100000
Info: NO VELOCITY DCD OUTPUT
Info: NO FORCE DCD OUTPUT
Info: OUTPUT FILENAME        mobley_9434451_prod
Info: BINARY OUTPUT FILES WILL BE USED
Info: RESTART FILENAME       mobley_9434451_prod.restart
Info: RESTART FREQUENCY      100000
Info: BINARY RESTART FILES WILL BE USED
Info: CUTOFF                 9
Info: PAIRLIST DISTANCE      11
Info: PAIRLIST SHRINK RATE   0.01
Info: PAIRLIST GROW RATE     0.01
Info: PAIRLIST TRIGGER       0.3
Info: PAIRLISTS PER CYCLE    2
Info: PAIRLISTS ENABLED
Info: MARGIN                 2
Info: HYDROGEN GROUP CUTOFF  2.5
Info: PATCH DIMENSION        15.5
Info: ENERGY OUTPUT STEPS    100000
Info: ENERGY EVALUATION STEPS    100000
Info: OUTPUT ENERGY PRECISION 4
Info: CROSSTERM ENERGY INCLUDED IN DIHEDRAL
Info: TIMING OUTPUT STEPS    1000000
Info: PRESSURE OUTPUT STEPS  100000
Info: ALCHEMICAL FEP ON
Info: FEP CURRENT LAMBDA VALUE     1
Info: FEP COMPARISON LAMBDA VALUE  0.95
Info: FEP INTRA-ALCHEMICAL NON-BONDED INTERACTIONS WILL BE RETAINED
Info: FEP INTRA-ALCHEMICAL BONDED INTERACTIONS WILL BE RETAINED
Info: FEP VDW SHIFTING COEFFICIENT 5
Info: FEP ELEC. ACTIVE FOR ANNIHILATED PARTICLES BETWEEN LAMBDA = 0 AND LAMBDA = 0.5
Info: FEP ELEC. ACTIVE FOR EXNIHILATED PARTICLES BETWEEN LAMBDA = 0.5 AND LAMBDA = 1
Info: FEP VDW ACTIVE FOR ANNIHILATED PARTICLES BETWEEN LAMBDA = 0 AND LAMBDA = 1
Info: FEP VDW ACTIVE FOR EXNIHILATED PARTICLES BETWEEN LAMBDA = 0 AND LAMBDA = 1
Info: FEP BOND ACTIVE FOR ANNIHILATED PARTICLES BETWEEN LAMBDA = 1 AND LAMBDA = 1
Info: FEP BOND ACTIVE FOR EXNIHILATED PARTICLES BETWEEN LAMBDA = 0 AND LAMBDA = 0
Info: LANGEVIN DYNAMICS ACTIVE
Info: LANGEVIN TEMPERATURE   300
Info: LANGEVIN USING BBK INTEGRATOR
Info: LANGEVIN DAMPING COEFFICIENT IS 1 INVERSE PS
Info: LANGEVIN DYNAMICS APPLIED TO HYDROGENS
Info: LANGEVIN PISTON PRESSURE CONTROL ACTIVE
Info:        TARGET PRESSURE IS 1.01325 BAR
Info:     OSCILLATION PERIOD IS 50 FS
Info:             DECAY TIME IS 25 FS
Info:     PISTON TEMPERATURE IS 300 K
Info:       PRESSURE CONTROL IS GROUP-BASED
Info:    INITIAL STRAIN RATE IS -0.000262528 -0.000262528 -0.000262528
Info:       CELL FLUCTUATION IS ISOTROPIC
Info: PARTICLE MESH EWALD (PME) ACTIVE
Info: PME TOLERANCE               1e-06
Info: PME EWALD COEFFICIENT       0.348832
Info: PME INTERPOLATION ORDER     4
Info: PME GRID DIMENSIONS         32 32 32
Info: PME MAXIMUM GRID SPACING    1
Info: PME CALCULATION WILL BE PERFORMED ON GPU
Info: FULL ELECTROSTATIC EVALUATION FREQUENCY      2
Info: USING VERLET I (r-RESPA) MTS SCHEME.
Info: C1 SPLITTING OF LONG RANGE ELECTROSTATICS
Info: PLACING ATOMS IN PATCHES BY HYDROGEN GROUPS
Info: RIGID BONDS TO HYDROGEN : ALL
Info:         ERROR TOLERANCE : 1e-08
Info:          MAX ITERATIONS : 100
Info: RIGID WATER USING SETTLE ALGORITHM
Info: RANDOM NUMBER SEED     1743533162
Info: USE HYDROGEN BONDS?    NO
Info: Using AMBER format force field!
Info: AMBER PARM FILE        mobley_9434451.prmtop
Info: COORDINATE PDB         mobley_9434451.pdb
Info: Exclusions will be read from PARM file!
Info: SCNB (VDW SCALING)     2
Info: USING ARITHMETIC MEAN TO COMBINE L-J SIGMA PARAMETERS
Info: BINARY COORDINATES     mobley_9434451_equil.coor
Info: SUMMARY OF PARAMETERS:
Info: 6 BONDS
Info: 6 ANGLES
Info:   6 HARMONIC
Info:   0 COSINE-BASED
Info: 4 DIHEDRAL
Info: 0 IMPROPER
Info: 0 CROSSTERM
Info: 0 VDW
Info: 21 VDW_PAIRS
Info: 0 NBTHOLE_PAIRS
Info: To read alchdata from file: mobley_9434451.pdb
Info: To read alchflag data from column: 5
Info: STRUCTURE SUMMARY:
Info: 2954 ATOMS
Info: 2953 BONDS
Info: 18 ANGLES
Info: 24 DIHEDRALS
Info: 0 IMPROPERS
Info: 0 CROSSTERMS
Info: 2989 EXCLUSIONS
Info: 2950 RIGID BONDS
Info: ALCH: 0 ATOMS TO DISAPPEAR IN FINAL STATE
Info: ALCH: 11 ATOMS TO APPEAR IN FINAL STATE
Info: 5912 DEGREES OF FREEDOM
Info: 985 HYDROGEN GROUPS
Info: 4 ATOMS IN LARGEST HYDROGEN GROUP
Info: 985 MIGRATION GROUPS
Info: 4 ATOMS IN LARGEST MIGRATION GROUP
Info: TOTAL MASS = 17796.7 amu
Info: TOTAL CHARGE = -0.000299979 e
Info: MASS DENSITY = 0.96046 g/cm^3
Info: ATOM DENSITY = 0.0960045 atoms/A^3
Info: ADDED 0 IMPLICIT EXCLUSIONS
Info: NONBONDED TABLE R-SQUARED SPACING: 0.0625
Info: NONBONDED TABLE SIZE: 705 POINTS
Info: REMOVING COM VELOCITY 0.185423 -0.085752 0.0563564
Info: Use 3D box decompostion in PME FFT.
Info: Updated CUDA force table with 4096 elements.
Info: Updated CUDA LJ table with 6 x 6 elements.
Info: Found 14 unique exclusion lists needing 24 bytes
TCL: Running for 1500000 steps
ETITLE: TS BOND ANGLE DIHED IMPRP ELECT VDW BOUNDARY MISC KINETIC TOTAL TEMP POTENTIAL TOTALAVG TEMPAVG PRESSURE GPRESSURE VOLUME PRESSAVG GPRESSAVG
ENERGY: 0 1.2427 4.6308 4.6893 0.0000 -10661.7539 1492.7754 0.0000 0.0000 1780.7114 -7377.7043 303.1444 -9158.4157 -7377.7043 303.1444 499.3685 588.3608 30769.3912 499.3685 588.3608
ENERGY: 300000 1.7846 3.2479 3.8013 0.0000 -10744.5875 1411.7488 0.0000 0.0000 1706.0321 -7617.9728 290.4311 -9324.0049 -7558.1707 294.7400 -360.8286 -319.6910 30235.7256 44.1419 129.6945
ENERGY: 600000 3.0902 3.7652 4.2805 0.0000 -10654.8566 1430.8920 0.0000 0.0000 1799.8091 -7413.0197 306.3955 -9212.8287 -7539.7074 297.1226 166.9954 287.8727 29941.7665 -197.3751 -124.7811
ENERGY: 900000 0.4846 4.1281 4.8215 0.0000 -10781.4946 1492.5893 0.0000 0.0000 1725.7830 -7553.6881 293.7935 -9279.4711 -7534.3594 296.3674 416.9057 391.3595 30480.4259 -92.0663 -37.6097
ENERGY: 1200000 1.0967 4.6554 3.7120 0.0000 -10702.0281 1476.9404 0.0000 0.0000 1757.9938 -7457.6298 299.2770 -9215.6236 -7525.7855 296.6610 334.4222 435.8556 30553.4040 -54.1115 11.5284
ENERGY: 1500000 0.2351 4.2258 3.7560 0.0000 -10711.9415 1463.6634 0.0000 0.0000 1847.7908 -7392.2704 314.5638 -9240.0612 -7511.2566 299.3003 248.6262 300.3666 30580.1792 -94.1853 -32.1582
TCL: Running FEP window   2: Lambda1 0.95   Lambda2 0.8999999999999999 [dLambda -0.050000000000000044]
TCL: Setting parameter firsttimestep to 0
TCL: Setting parameter alchLambda to 0.95
Info: NONBONDED TABLE R-SQUARED SPACING: 0.0625
Info: NONBONDED TABLE SIZE: 705 POINTS
TCL: Setting parameter alchLambda2 to 0.8999999999999999
Info: NONBONDED TABLE R-SQUARED SPACING: 0.0625
Info: NONBONDED TABLE SIZE: 705 POINTS
TCL: Running for 1500000 steps
ETITLE: TS BOND ANGLE DIHED IMPRP ELECT VDW BOUNDARY MISC KINETIC TOTAL TEMP POTENTIAL TOTALAVG TEMPAVG PRESSURE GPRESSURE VOLUME PRESSAVG GPRESSAVG
ENERGY: 0 0.2351 4.2258 3.7560 0.0000 -10711.3667 1463.4644 0.0000 0.0000 1846.8911 -7392.7942 314.4106 -9239.6853 -7392.7942 314.4106 214.6562 287.8785 30580.1792 214.6562 287.8785
ENERGY: 300000 0.5527 3.9973 3.5142 0.0000 -10680.5276 1453.2571 0.0000 0.0000 1808.5423 -7410.6640 307.8822 -9219.2063 -7411.1496 311.9556 -149.3835 -29.2202 31057.5415 23.4298 95.1890
ENERGY: 600000 1.1421 6.8476 3.2982 0.0000 -10558.9365 1326.5427 0.0000 0.0000 1793.5357 -7427.5701 305.3275 -9221.1058 -7429.0575 308.1574 -929.5192 -873.8766 30871.7108 -129.9592 -67.9289
ENERGY: 900000 1.6277 3.8404 3.4126 0.0000 -10686.2796 1429.4757 0.0000 0.0000 1749.5873 -7498.3359 297.8459 -9247.9232 -7440.7029 305.5585 -25.7170 11.4334 30488.9437 -59.9031 -6.3098
ENERGY: 1200000 1.6629 5.8477 3.3008 0.0000 -10703.0259 1379.1782 0.0000 0.0000 1738.7109 -7574.3254 295.9943 -9313.0363 -7465.0094 303.5735 -710.0539 -686.2236 30532.7960 -146.2635 -91.3755
ENERGY: 1500000 0.4122 6.7130 4.0441 0.0000 -10724.4499 1446.7566 0.0000 0.0000 1833.2255 -7433.2985 312.0843 -9266.5240 -7472.5522 302.9060 -34.1019 16.4050 30686.9627 -102.2481 -50.9981
TCL: Running FEP window   3: Lambda1 0.8999999999999999 Lambda2 0.8499999999999999 [dLambda -0.050000000000000044]
TCL: Setting parameter firsttimestep to 0
TCL: Setting parameter alchLambda to 0.8999999999999999
Info: NONBONDED TABLE R-SQUARED SPACING: 0.0625
Info: NONBONDED TABLE SIZE: 705 POINTS
TCL: Setting parameter alchLambda2 to 0.8499999999999999
Info: NONBONDED TABLE R-SQUARED SPACING: 0.0625
Info: NONBONDED TABLE SIZE: 705 POINTS
TCL: Running for 1500000 steps
ETITLE: TS BOND ANGLE DIHED IMPRP ELECT VDW BOUNDARY MISC KINETIC TOTAL TEMP POTENTIAL TOTALAVG TEMPAVG PRESSURE GPRESSURE VOLUME PRESSAVG GPRESSAVG
ENERGY: 0 0.4122 6.7130 4.0441 0.0000 -10724.3841 1447.0064 0.0000 0.0000 1832.3830 -7433.8254 311.9408 -9266.2084 -7433.8254 311.9408 -65.1574 11.9912 30686.9627 -65.1574 11.9912
ENERGY: 300000 1.2797 2.3080 3.5217 0.0000 -10649.3245 1369.9913 0.0000 0.0000 1758.9610 -7513.2626 299.4416 -9272.2236 -7482.6295 302.0908 -352.9269 -313.1273 30237.2171 -519.3075 -457.9819
ENERGY: 600000 0.2560 3.7471 3.5527 0.0000 -10596.0624 1384.4069 0.0000 0.0000 1778.4223 -7425.6775 302.7547 -9204.0998 -7471.0139 301.3689 -150.0564 -98.8819 30453.9572 -290.8860 -226.7450
ENERGY: 900000 0.9318 6.8652 3.6699 0.0000 -10557.4525 1342.3102 0.0000 0.0000 1772.7352 -7430.9401 301.7865 -9203.6753 -7470.2775 301.4374 -502.8459 -449.7543 30420.8876 -351.7851 -284.3986
ENERGY: 1200000 0.7373 2.6070 3.3226 0.0000 -10597.2138 1395.6225 0.0000 0.0000 1818.0386 -7376.8858 309.4989 -9194.9244 -7459.6900 302.3543 -104.4718 -42.6253 30607.2657 -251.7737 -182.8425
ENERGY: 1500000 0.0184 6.2745 4.3958 0.0000 -10796.3405 1448.1954 0.0000 0.0000 1713.2371 -7624.2193 291.6577 -9337.4564 -7475.7906 301.7813 -205.1205 -167.4244 30359.4263 -133.0302 -61.2212
TCL: Running FEP window   4: Lambda1 0.8499999999999999 Lambda2 0.7999999999999998 [dLambda -0.050000000000000044]
TCL: Setting parameter firsttimestep to 0
TCL: Setting parameter alchLambda to 0.8499999999999999
Info: NONBONDED TABLE R-SQUARED SPACING: 0.0625
Info: NONBONDED TABLE SIZE: 705 POINTS
TCL: Setting parameter alchLambda2 to 0.7999999999999998
Info: NONBONDED TABLE R-SQUARED SPACING: 0.0625
Info: NONBONDED TABLE SIZE: 705 POINTS
TCL: Running for 1500000 steps
ETITLE: TS BOND ANGLE DIHED IMPRP ELECT VDW BOUNDARY MISC KINETIC TOTAL TEMP POTENTIAL TOTALAVG TEMPAVG PRESSURE GPRESSURE VOLUME PRESSAVG GPRESSAVG
ENERGY: 0 0.0184 6.2745 4.3958 0.0000 -10796.4341 1448.3723 0.0000 0.0000 1712.3525 -7625.0206 291.5071 -9337.3731 -7625.0206 291.5071 -236.6279 -176.0295 30359.4263 -236.6279 -176.0295
ENERGY: 300000 0.6537 2.9524 3.5585 0.0000 -10760.6807 1500.0745 0.0000 0.0000 1773.5936 -7479.8478 301.9327 -9253.4415 -7524.3257 302.0668 421.8346 432.7671 30492.2025 -217.7808 -185.6304
ENERGY: 600000 2.2108 4.1755 3.7577 0.0000 -10679.3479 1390.4378 0.0000 0.0000 1801.9826 -7476.7835 306.7655 -9278.7661 -7517.7493 301.2819 -371.9620 -327.0566 30695.2828 -206.7727 -149.4283
ENERGY: 900000 0.6110 2.4683 3.4859 0.0000 -10783.7325 1480.1064 0.0000 0.0000 1765.1268 -7531.9341 300.4913 -9297.0609 -7524.2560 299.8923 14.2925 35.3697 31037.1444 -133.4365 -79.3147
ENERGY: 1200000 0.1491 2.5518 3.9457 0.0000 -10621.7465 1417.9074 0.0000 0.0000 1764.7917 -7432.4008 300.4342 -9197.1925 -7513.9017 299.4330 -78.6467 -8.4839 30614.4802 -133.6941 -64.4624
ENERGY: 1500000 0.8753 5.6546 3.5045 0.0000 -10636.3761 1374.4772 0.0000 0.0000 1790.4273 -7461.4373 304.7984 -9251.8646 -7502.4405 299.8150 -643.7938 -532.3559 30684.4129 -244.4174 -174.6945
TCL: Running FEP window   5: Lambda1 0.7999999999999998 Lambda2 0.7499999999999998 [dLambda -0.050000000000000044]
TCL: Setting parameter firsttimestep to 0
TCL: Setting parameter alchLambda to 0.7999999999999998
Info: NONBONDED TABLE R-SQUARED SPACING: 0.0625
Info: NONBONDED TABLE SIZE: 705 POINTS
TCL: Setting parameter alchLambda2 to 0.7499999999999998
Info: NONBONDED TABLE R-SQUARED SPACING: 0.0625
Info: NONBONDED TABLE SIZE: 705 POINTS
TCL: Running for 1500000 steps
ETITLE: TS BOND ANGLE DIHED IMPRP ELECT VDW BOUNDARY MISC KINETIC TOTAL TEMP POTENTIAL TOTALAVG TEMPAVG PRESSURE GPRESSURE VOLUME PRESSAVG GPRESSAVG
ENERGY: 0 0.8753 5.6546 3.5045 0.0000 -10636.3200 1374.7391 0.0000 0.0000 1789.5586 -7461.9879 304.6505 -9251.5466 -7461.9879 304.6505 -628.0881 -537.7472 30684.4129 -628.0881 -537.7472
ENERGY: 300000 1.1557 4.7193 3.3313 0.0000 -10796.5157 1464.4370 0.0000 0.0000 1744.6686 -7578.2039 297.0085 -9322.8725 -7498.6754 304.8335 106.6329 180.9849 30156.8643 -191.9684 -112.5813
ENERGY: 600000 1.1378 3.4259 3.5551 0.0000 -10650.4543 1413.8260 0.0000 0.0000 1816.1835 -7412.3259 309.1831 -9228.5094 -7479.0015 304.6383 -244.0473 -163.0752 30822.7221 -326.6225 -248.1679
ENERGY: 900000 0.1244 3.6033 4.5594 0.0000 -10739.0502 1496.9456 0.0000 0.0000 1815.2356 -7418.5818 309.0217 -9233.8175 -7462.1152 304.6356 642.2794 699.4273 30129.5641 -153.1874 -78.7188
ENERGY: 1200000 0.0673 5.8825 3.5479 0.0000 -10598.3069 1357.7269 0.0000 0.0000 1719.4853 -7511.5971 292.7214 -9231.0823 -7467.1344 303.1196 -652.4515 -615.8355 30773.2970 -138.0536 -61.5010
ENERGY: 1500000 0.0492 4.0550 3.6003 0.0000 -10829.3728 1473.9970 0.0000 0.0000 1793.9240 -7553.7473 305.3936 -9347.6713 -7475.5290 303.0540 374.4781 378.5958 29670.7561 -175.0603 -101.4453
TCL: Running FEP window   6: Lambda1 0.7499999999999998 Lambda2 0.6999999999999997 [dLambda -0.050000000000000044]
TCL: Setting parameter firsttimestep to 0
TCL: Setting parameter alchLambda to 0.7499999999999998
Info: NONBONDED TABLE R-SQUARED SPACING: 0.0625
Info: NONBONDED TABLE SIZE: 705 POINTS
TCL: Setting parameter alchLambda2 to 0.6999999999999997
Info: NONBONDED TABLE R-SQUARED SPACING: 0.0625
Info: NONBONDED TABLE SIZE: 705 POINTS
TCL: Running for 1500000 steps
ETITLE: TS BOND ANGLE DIHED IMPRP ELECT VDW BOUNDARY MISC KINETIC TOTAL TEMP POTENTIAL TOTALAVG TEMPAVG PRESSURE GPRESSURE VOLUME PRESSAVG GPRESSAVG
ENERGY: 0 0.0492 4.0550 3.6003 0.0000 -10829.0346 1474.0401 0.0000 0.0000 1793.0009 -7554.2891 305.2365 -9347.2900 -7554.2891 305.2365 264.6318 371.8650 29670.7561 264.6318 371.8650
ENERGY: 300000 2.4614 6.8861 3.5235 0.0000 -10904.4349 1552.2002 0.0000 0.0000 1777.7076 -7561.6561 302.6330 -9339.3638 -7517.4828 303.7401 785.3463 864.9197 30157.9540 356.1742 458.3749
ENERGY: 600000 0.7312 3.4149 3.5771 0.0000 -10795.6837 1477.6230 0.0000 0.0000 1790.5611 -7519.7763 304.8212 -9310.3374 -7514.1704 303.2766 278.7880 295.1374 30169.3151 201.6718 286.8937
ENERGY: 900000 0.8375 2.9438 3.3683 0.0000 -10826.0600 1552.8614 0.0000 0.0000 1777.0398 -7489.0092 302.5193 -9266.0490 -7508.1709 301.2615 1032.6812 1094.3285 30401.4478 228.3110 307.8949
ENERGY: 1200000 0.7188 3.5708 4.1217 0.0000 -10696.8955 1404.6913 0.0000 0.0000 1811.9753 -7471.8176 308.4667 -9283.7929 -7504.0240 302.2683 -38.4818 -51.5978 29916.7224 187.2463 256.4509
ENERGY: 1500000 1.5002 2.5691 3.9536 0.0000 -10802.4697 1487.7896 0.0000 0.0000 1733.1850 -7573.4723 295.0536 -9306.6572 -7512.1538 301.1538 107.5980 136.2807 30592.3866 158.9251 227.8870
TCL: Running FEP window   7: Lambda1 0.6999999999999997 Lambda2 0.6499999999999997 [dLambda -0.050000000000000044]
TCL: Setting parameter firsttimestep to 0
TCL: Setting parameter alchLambda to 0.6999999999999997
Info: NONBONDED TABLE R-SQUARED SPACING: 0.0625
Info: NONBONDED TABLE SIZE: 705 POINTS
TCL: Setting parameter alchLambda2 to 0.6499999999999997
Info: NONBONDED TABLE R-SQUARED SPACING: 0.0625
Info: NONBONDED TABLE SIZE: 705 POINTS
TCL: Running for 1500000 steps
ETITLE: TS BOND ANGLE DIHED IMPRP ELECT VDW BOUNDARY MISC KINETIC TOTAL TEMP POTENTIAL TOTALAVG TEMPAVG PRESSURE GPRESSURE VOLUME PRESSAVG GPRESSAVG
ENERGY: 0 1.5002 2.5691 3.9536 0.0000 -10802.3429 1487.4647 0.0000 0.0000 1732.3075 -7574.5478 294.9042 -9306.8553 -7574.5478 294.9042 59.0697 125.6002 30592.3866 59.0697 125.6002
ENERGY: 300000 0.9260 2.6879 3.6299 0.0000 -10690.3420 1434.5727 0.0000 0.0000 1762.4762 -7486.0493 300.0400 -9248.5255 -7518.6478 296.1383 -237.8351 -133.5782 30883.2782 9.6155 66.1341
ENERGY: 600000 0.2428 5.1190 3.4638 0.0000 -10648.0643 1336.3703 0.0000 0.0000 1797.8864 -7504.9821 306.0682 -9302.8685 -7504.2246 298.7983 -764.9139 -742.6779 30332.0437 -206.6511 -158.9428
ENERGY: 900000 0.1711 5.3509 3.4135 0.0000 -10775.0319 1468.5786 0.0000 0.0000 1745.5811 -7551.9367 297.1639 -9297.5178 -7501.6597 298.2870 -31.9301 -26.6816 30732.2906 -146.6883 -102.4252
ENERGY: 1200000 2.1816 4.4737 3.7892 0.0000 -10569.0532 1417.4954 0.0000 0.0000 1748.3183 -7392.7950 297.6298 -9141.1133 -7486.2983 299.2400 176.7126 206.9688 30485.0090 -83.9778 -37.6213
ENERGY: 1500000 1.4251 3.7668 3.6944 0.0000 -10699.7948 1448.9068 0.0000 0.0000 1721.8336 -7520.1682 293.1211 -9242.0018 -7492.7929 299.1911 233.0855 331.0319 30143.0483 -108.2852 -59.0027
TCL: Running FEP window   8: Lambda1 0.6499999999999997 Lambda2 0.5999999999999996 [dLambda -0.050000000000000044]
TCL: Setting parameter firsttimestep to 0
TCL: Setting parameter alchLambda to 0.6499999999999997
Info: NONBONDED TABLE R-SQUARED SPACING: 0.0625
Info: NONBONDED TABLE SIZE: 705 POINTS
TCL: Setting parameter alchLambda2 to 0.5999999999999996
Info: NONBONDED TABLE R-SQUARED SPACING: 0.0625
Info: NONBONDED TABLE SIZE: 705 POINTS
TCL: Running for 1500000 steps
ETITLE: TS BOND ANGLE DIHED IMPRP ELECT VDW BOUNDARY MISC KINETIC TOTAL TEMP POTENTIAL TOTALAVG TEMPAVG PRESSURE GPRESSURE VOLUME PRESSAVG GPRESSAVG
ENERGY: 0 1.4251 3.7668 3.6944 0.0000 -10699.5879 1448.5728 0.0000 0.0000 1720.9114 -7521.2174 292.9641 -9242.1288 -7521.2174 292.9641 229.0480 324.3006 30143.0483 229.0480 324.3006
ENERGY: 300000 1.0810 2.3884 3.3403 0.0000 -10765.7190 1457.7731 0.0000 0.0000 1759.5702 -7541.5660 299.5453 -9301.1362 -7543.7281 294.8641 -46.2703 9.2409 30355.1956 -159.0211 -90.4630
ENERGY: 600000 0.6059 7.2967 3.6278 0.0000 -10608.6837 1374.9764 0.0000 0.0000 1811.8173 -7410.3596 308.4398 -9222.1768 -7519.2916 296.6017 -468.8569 -435.9002 30748.7111 -36.3675 12.3492
ENERGY: 900000 1.5703 3.8905 3.3702 0.0000 -10617.2864 1396.8171 0.0000 0.0000 1764.4627 -7447.1757 300.3782 -9211.6384 -7513.9447 299.0976 -434.2478 -328.5976 30693.4907 -92.3801 -31.3802
ENERGY: 1200000 0.4405 3.3830 3.6490 0.0000 -10660.7640 1390.5368 0.0000 0.0000 1761.1716 -7501.5830 299.8180 -9262.7546 -7517.9881 299.0695 -642.7258 -575.3354 31062.8732 -175.2046 -115.1734
ENERGY: 1500000 0.8363 3.8952 3.3899 0.0000 -10706.0763 1410.7563 0.0000 0.0000 1738.6717 -7548.5271 295.9876 -9287.1987 -7520.2518 298.9546 -377.6717 -320.4461 30469.5767 -138.5550 -78.3648
TCL: Running FEP window   9: Lambda1 0.5999999999999996 Lambda2 0.5499999999999996 [dLambda -0.050000000000000044]
TCL: Setting parameter firsttimestep to 0
TCL: Setting parameter alchLambda to 0.5999999999999996
Info: NONBONDED TABLE R-SQUARED SPACING: 0.0625
Info: NONBONDED TABLE SIZE: 705 POINTS
TCL: Setting parameter alchLambda2 to 0.5499999999999996
Info: NONBONDED TABLE R-SQUARED SPACING: 0.0625
Info: NONBONDED TABLE SIZE: 705 POINTS
TCL: Running for 1500000 steps
ETITLE: TS BOND ANGLE DIHED IMPRP ELECT VDW BOUNDARY MISC KINETIC TOTAL TEMP POTENTIAL TOTALAVG TEMPAVG PRESSURE GPRESSURE VOLUME PRESSAVG GPRESSAVG
ENERGY: 0 0.8363 3.8952 3.3899 0.0000 -10705.9167 1410.8313 0.0000 0.0000 1737.7900 -7549.1741 295.8375 -9286.9641 -7549.1741 295.8375 -404.7583 -325.3496 30469.5767 -404.7583 -325.3496
ENERGY: 300000 1.5525 6.4001 3.3094 0.0000 -10709.7638 1423.0930 0.0000 0.0000 1717.9345 -7557.4743 292.4574 -9275.4088 -7526.6602 299.8472 -275.7170 -229.2721 30470.5934 -179.1088 -117.3063
ENERGY: 600000 0.2713 5.2976 3.7188 0.0000 -10702.2732 1428.9428 0.0000 0.0000 1773.3114 -7490.7314 301.8846 -9264.0428 -7525.2350 301.3784 -239.8711 -204.5778 30743.8947 -114.6094 -48.4941
ENERGY: 900000 0.9562 4.7101 3.6578 0.0000 -10728.4058 1421.0051 0.0000 0.0000 1747.1611 -7550.9156 297.4328 -9298.0766 -7521.9258 301.3579 -58.7304 -45.0458 29952.1518 -176.1979 -113.6592
ENERGY: 1200000 0.7061 6.7614 3.5163 0.0000 -10644.0928 1381.9954 0.0000 0.0000 1729.4627 -7521.6509 294.4199 -9251.1136 -7505.4215 301.0977 -543.2955 -528.6112 30669.4998 -263.4574 -205.5276
ENERGY: 1500000 1.9568 4.9893 3.2639 0.0000 -10830.1639 1493.3735 0.0000 0.0000 1740.7051 -7585.8753 296.3338 -9326.5804 -7514.9547 300.3778 53.3091 95.0141 30440.2794 -241.5444 -180.9125
TCL: Running FEP window  10: Lambda1 0.5499999999999996 Lambda2 0.4999999999999996 [dLambda -0.04999999999999999]
TCL: Setting parameter firsttimestep to 0
TCL: Setting parameter alchLambda to 0.5499999999999996
Info: NONBONDED TABLE R-SQUARED SPACING: 0.0625
Info: NONBONDED TABLE SIZE: 705 POINTS
TCL: Setting parameter alchLambda2 to 0.4999999999999996
Info: NONBONDED TABLE R-SQUARED SPACING: 0.0625
Info: NONBONDED TABLE SIZE: 705 POINTS
TCL: Running for 1500000 steps
ETITLE: TS BOND ANGLE DIHED IMPRP ELECT VDW BOUNDARY MISC KINETIC TOTAL TEMP POTENTIAL TOTALAVG TEMPAVG PRESSURE GPRESSURE VOLUME PRESSAVG GPRESSAVG
ENERGY: 0 1.9568 4.9893 3.2639 0.0000 -10830.2766 1493.4977 0.0000 0.0000 1739.8849 -7586.6841 296.1941 -9326.5689 -7586.6841 296.1941 3.9140 88.0771 30440.2794 3.9140 88.0771
ENERGY: 300000 1.0061 2.1662 5.1349 0.0000 -10619.0251 1400.6302 0.0000 0.0000 1752.7184 -7457.3694 298.3789 -9210.0878 -7505.2559 300.0233 -416.5645 -338.6352 30687.7310 -217.9606 -132.9934
ENERGY: 600000 1.1419 3.6635 3.4530 0.0000 -10822.4694 1510.2019 0.0000 0.0000 1752.2092 -7551.7998 298.2922 -9304.0089 -7496.0927 301.3600 569.0941 586.1813 30331.5932 3.1156 75.5271
ENERGY: 900000 1.6346 7.1860 3.9362 0.0000 -10762.0111 1445.9310 0.0000 0.0000 1738.9355 -7564.3878 296.0325 -9303.3232 -7509.9750 300.3146 -49.9575 1.2807 30273.6694 -13.7659 54.1483
ENERGY: 1200000 0.7857 3.5488 3.3138 0.0000 -10698.5883 1409.9632 0.0000 0.0000 1738.8342 -7542.1426 296.0153 -9280.9768 -7508.3251 299.8213 -286.7987 -241.8109 30267.7063 -54.1463 9.1746
ENERGY: 1500000 0.7792 5.3918 3.8991 0.0000 -10648.1981 1372.8040 0.0000 0.0000 1703.9639 -7561.3601 290.0790 -9265.3240 -7511.4287 298.9008 -408.9085 -333.9683 29972.6448 -103.9700 -40.9157
TCL: Running FEP window  11: Lambda1 0.4999999999999996 Lambda2 0.4499999999999996 [dLambda -0.04999999999999999]
TCL: Setting parameter firsttimestep to 0
TCL: Setting parameter alchLambda to 0.4999999999999996
Info: NONBONDED TABLE R-SQUARED SPACING: 0.0625
Info: NONBONDED TABLE SIZE: 705 POINTS
TCL: Setting parameter alchLambda2 to 0.4499999999999996
Info: NONBONDED TABLE R-SQUARED SPACING: 0.0625
Info: NONBONDED TABLE SIZE: 705 POINTS
TCL: Running for 1500000 steps
ETITLE: TS BOND ANGLE DIHED IMPRP ELECT VDW BOUNDARY MISC KINETIC TOTAL TEMP POTENTIAL TOTALAVG TEMPAVG PRESSURE GPRESSURE VOLUME PRESSAVG GPRESSAVG
ENERGY: 0 0.7792 5.3918 3.8991 0.0000 -10648.4003 1373.0761 0.0000 0.0000 1703.0896 -7562.1646 289.9302 -9265.2542 -7562.1646 289.9302 -434.8948 -340.4468 29972.6448 -434.8948 -340.4468
ENERGY: 300000 0.3028 2.2760 4.0700 0.0000 -10531.2475 1309.3752 0.0000 0.0000 1758.5205 -7456.7030 299.3666 -9215.2235 -7529.4035 297.6382 -997.8136 -944.7903 30720.8334 -433.8740 -373.8728
ENERGY: 600000 0.8276 3.3025 3.7941 0.0000 -10764.6087 1453.6795 0.0000 0.0000 1742.0225 -7560.9825 296.5580 -9303.0049 -7525.0393 297.0223 -262.8850 -215.4669 30696.4519 -374.0172 -320.6776
ENERGY: 900000 0.6762 5.4254 3.4071 0.0000 -10767.5030 1468.1531 0.0000 0.0000 1751.5022 -7538.3389 298.1719 -9289.8411 -7522.2205 298.9055 -17.4695 23.3957 30722.9344 -293.5294 -236.9683
ENERGY: 1200000 0.3335 5.8280 3.4960 0.0000 -10666.6982 1419.6589 0.0000 0.0000 1760.4040 -7476.9777 299.6873 -9237.3817 -7515.3653 299.5040 -155.2559 -25.4167 30352.7807 -272.7470 -208.6826
ENERGY: 1500000 1.7667 4.6889 3.8412 0.0000 -10723.6307 1439.1125 0.0000 0.0000 1791.9284 -7482.2930 305.0539 -9274.2214 -7515.5603 299.6409 -59.5304 -44.0114 30487.1140 -285.2142 -221.7804
TCL: Running FEP window  12: Lambda1 0.4499999999999996 Lambda2 0.39999999999999963 [dLambda -0.04999999999999999]
TCL: Setting parameter firsttimestep to 0
TCL: Setting parameter alchLambda to 0.4499999999999996
Info: NONBONDED TABLE R-SQUARED SPACING: 0.0625
Info: NONBONDED TABLE SIZE: 705 POINTS
TCL: Setting parameter alchLambda2 to 0.39999999999999963
Info: NONBONDED TABLE R-SQUARED SPACING: 0.0625
Info: NONBONDED TABLE SIZE: 705 POINTS
TCL: Running for 1500000 steps
ETITLE: TS BOND ANGLE DIHED IMPRP ELECT VDW BOUNDARY MISC KINETIC TOTAL TEMP POTENTIAL TOTALAVG TEMPAVG PRESSURE GPRESSURE VOLUME PRESSAVG GPRESSAVG
ENERGY: 0 1.7666 4.6889 3.8412 0.0000 -10723.6313 1439.5849 0.0000 0.0000 1791.0526 -7482.6970 304.9048 -9273.7497 -7482.6970 304.9048 -103.6946 -45.2100 30487.1140 -103.6946 -45.2100
ENERGY: 300000 0.5020 3.3757 3.5055 0.0000 -10742.5121 1386.9844 0.0000 0.0000 1817.9031 -7530.2413 309.4758 -9348.1445 -7507.6819 304.7119 -616.3585 -596.6312 30423.6860 127.9142 193.7355
ENERGY: 600000 0.7948 3.9557 4.0525 0.0000 -10654.9362 1329.3934 0.0000 0.0000 1799.7799 -7516.9598 306.3905 -9316.7398 -7513.8891 303.1477 -681.0585 -645.5490 30024.7353 9.9093 86.4461
ENERGY: 900000 0.0885 3.8079 4.2870 0.0000 -10625.2296 1375.6089 0.0000 0.0000 1790.2839 -7451.1534 304.7740 -9241.4373 -7512.5166 301.6206 -371.7889 -352.8924 30301.5853 -137.7819 -76.1047
ENERGY: 1200000 0.9540 2.5158 3.3300 0.0000 -10686.8965 1412.6649 0.0000 0.0000 1811.5575 -7455.8742 308.3955 -9267.4318 -7512.4873 301.8318 -352.2066 -314.4520 30608.5259 -195.8406 -131.9010
ENERGY: 1500000 0.6795 6.2397 4.2779 0.0000 -10669.4192 1470.9283 0.0000 0.0000 1822.0171 -7365.2768 310.1761 -9187.2939 -7503.6541 302.0385 293.4096 314.3919 30867.3790 -146.9444 -84.1019
TCL: Running FEP window  13: Lambda1 0.39999999999999963 Lambda2 0.34999999999999964 [dLambda -0.04999999999999999]
TCL: Setting parameter firsttimestep to 0
TCL: Setting parameter alchLambda to 0.39999999999999963
Info: NONBONDED TABLE R-SQUARED SPACING: 0.0625
Info: NONBONDED TABLE SIZE: 705 POINTS
TCL: Setting parameter alchLambda2 to 0.34999999999999964
Info: NONBONDED TABLE R-SQUARED SPACING: 0.0625
Info: NONBONDED TABLE SIZE: 705 POINTS
TCL: Running for 1500000 steps
ETITLE: TS BOND ANGLE DIHED IMPRP ELECT VDW BOUNDARY MISC KINETIC TOTAL TEMP POTENTIAL TOTALAVG TEMPAVG PRESSURE GPRESSURE VOLUME PRESSAVG GPRESSAVG
ENERGY: 0 0.6795 6.2397 4.2779 0.0000 -10669.4196 1471.1279 0.0000 0.0000 1821.1444 -7365.9502 310.0276 -9187.0947 -7365.9502 310.0276 230.9591 311.8035 30867.3790 230.9591 311.8035
ENERGY: 300000 0.6933 2.9617 3.5952 0.0000 -10772.0404 1457.2760 0.0000 0.0000 1800.7832 -7506.7308 306.5613 -9307.5141 -7497.3644 302.9879 29.5605 95.7460 30451.9724 75.0648 141.0892
ENERGY: 600000 0.2007 3.3892 3.4376 0.0000 -10804.2916 1515.6472 0.0000 0.0000 1728.4088 -7553.2081 294.2405 -9281.6169 -7506.6787 300.8954 684.6221 748.6263 30033.0895 85.8697 151.0237
ENERGY: 900000 0.3733 4.0153 4.5811 0.0000 -10665.7323 1412.3881 0.0000 0.0000 1740.8923 -7503.4822 296.3657 -9244.3745 -7504.5328 299.5965 -160.1256 -130.4531 30308.7547 26.7883 86.1513
ENERGY: 1200000 0.3518 5.7840 3.5886 0.0000 -10784.8596 1447.7779 0.0000 0.0000 1749.6734 -7577.6838 297.8605 -9327.3572 -7511.4663 299.6574 -167.1256 -182.4027 30448.3214 -18.5483 37.3495
ENERGY: 1500000 1.1875 2.1185 3.4504 0.0000 -10750.8445 1431.9715 0.0000 0.0000 1763.6745 -7548.4420 300.2440 -9312.1165 -7508.7469 300.4313 -181.4952 -159.2017 30314.7600 -22.3737 32.5561
TCL: Running FEP window  14: Lambda1 0.34999999999999964 Lambda2 0.29999999999999966 [dLambda -0.04999999999999999]
TCL: Setting parameter firsttimestep to 0
TCL: Setting parameter alchLambda to 0.34999999999999964
Info: NONBONDED TABLE R-SQUARED SPACING: 0.0625
Info: NONBONDED TABLE SIZE: 705 POINTS
TCL: Setting parameter alchLambda2 to 0.29999999999999966
Info: NONBONDED TABLE R-SQUARED SPACING: 0.0625
Info: NONBONDED TABLE SIZE: 705 POINTS
TCL: Running for 1500000 steps
ETITLE: TS BOND ANGLE DIHED IMPRP ELECT VDW BOUNDARY MISC KINETIC TOTAL TEMP POTENTIAL TOTALAVG TEMPAVG PRESSURE GPRESSURE VOLUME PRESSAVG GPRESSAVG
ENERGY: 0 1.1875 2.1185 3.4504 0.0000 -10750.8451 1432.0145 0.0000 0.0000 1762.7799 -7549.2943 300.0917 -9312.0741 -7549.2943 300.0917 -249.2551 -163.2012 30314.7600 -249.2551 -163.2012
ENERGY: 300000 0.9694 3.7586 4.1230 0.0000 -10682.5952 1433.0605 0.0000 0.0000 1708.4416 -7532.2421 290.8413 -9240.6837 -7529.0566 295.8535 2.8673 104.5151 30345.1595 -152.1635 -55.8236
ENERGY: 600000 0.2201 2.1360 4.5925 0.0000 -10606.1946 1393.4082 0.0000 0.0000 1782.7177 -7423.1202 303.4859 -9205.8379 -7515.5300 298.7541 -129.7033 -48.9828 30163.9562 -161.7538 -77.6112
ENERGY: 900000 0.2764 2.4381 3.4949 0.0000 -10769.3100 1463.0919 0.0000 0.0000 1740.6807 -7559.3280 296.3296 -9300.0087 -7532.4569 297.7519 150.5568 177.4297 30324.5677 -34.9899 38.3076
ENERGY: 1200000 0.8467 3.4490 4.2127 0.0000 -10691.9594 1377.3362 0.0000 0.0000 1789.3250 -7516.7898 304.6107 -9306.1148 -7535.2795 298.5482 -382.3999 -317.0674 30051.0553 -28.3199 40.3529
ENERGY: 1500000 0.1926 3.6284 3.7500 0.0000 -10704.7970 1409.5907 0.0000 0.0000 1826.1705 -7461.4648 310.8832 -9287.6353 -7529.0016 299.3601 -386.7455 -327.7248 30642.0799 -28.4465 39.0784
TCL: Running FEP window  15: Lambda1 0.29999999999999966 Lambda2 0.24999999999999967 [dLambda -0.04999999999999999]
TCL: Setting parameter firsttimestep to 0
TCL: Setting parameter alchLambda to 0.29999999999999966
Info: NONBONDED TABLE R-SQUARED SPACING: 0.0625
Info: NONBONDED TABLE SIZE: 705 POINTS
TCL: Setting parameter alchLambda2 to 0.24999999999999967
Info: NONBONDED TABLE R-SQUARED SPACING: 0.0625
Info: NONBONDED TABLE SIZE: 705 POINTS
TCL: Running for 1500000 steps
ETITLE: TS BOND ANGLE DIHED IMPRP ELECT VDW BOUNDARY MISC KINETIC TOTAL TEMP POTENTIAL TOTALAVG TEMPAVG PRESSURE GPRESSURE VOLUME PRESSAVG GPRESSAVG
ENERGY: 0 0.1926 3.6285 3.7500 0.0000 -10704.7974 1409.6710 0.0000 0.0000 1825.3200 -7462.2355 310.7384 -9287.5554 -7462.2355 310.7384 -418.6954 -329.2509 30642.0799 -418.6954 -329.2509
ENERGY: 300000 0.2177 3.7896 4.5568 0.0000 -10743.3386 1413.6040 0.0000 0.0000 1830.3447 -7490.8257 311.5938 -9321.1705 -7499.8016 305.4078 -541.6840 -504.8447 30802.7882 -99.1480 -65.1668
ENERGY: 600000 0.3287 3.4440 3.5987 0.0000 -10623.1124 1398.1076 0.0000 0.0000 1747.1003 -7470.5331 297.4225 -9217.6334 -7486.5141 304.8878 -330.1413 -278.9503 30724.0462 -221.3108 -179.2455
ENERGY: 900000 0.6089 5.1325 3.7971 0.0000 -10720.6782 1454.3021 0.0000 0.0000 1783.5942 -7473.2434 303.6351 -9256.8376 -7494.7730 303.7853 -21.8365 20.8901 30626.7093 -30.5249 9.5903
ENERGY: 1200000 0.7835 5.7340 3.5629 0.0000 -10715.6059 1475.8983 0.0000 0.0000 1747.6357 -7481.9915 297.5136 -9229.6273 -7487.4954 303.0266 316.8067 383.2870 30459.0893 24.7747 67.4203
ENERGY: 1500000 0.7487 7.5185 3.4496 0.0000 -10707.8240 1379.3125 0.0000 0.0000 1774.3907 -7542.4041 302.0683 -9316.7948 -7497.7843 302.0268 -590.8939 -605.1799 30314.6827 -86.7804 -44.8855
TCL: Running FEP window  16: Lambda1 0.24999999999999967 Lambda2 0.19999999999999968 [dLambda -0.04999999999999999]
TCL: Setting parameter firsttimestep to 0
TCL: Setting parameter alchLambda to 0.24999999999999967
Info: NONBONDED TABLE R-SQUARED SPACING: 0.0625
Info: NONBONDED TABLE SIZE: 705 POINTS
TCL: Setting parameter alchLambda2 to 0.19999999999999968
Info: NONBONDED TABLE R-SQUARED SPACING: 0.0625
Info: NONBONDED TABLE SIZE: 705 POINTS
TCL: Running for 1500000 steps
ETITLE: TS BOND ANGLE DIHED IMPRP ELECT VDW BOUNDARY MISC KINETIC TOTAL TEMP POTENTIAL TOTALAVG TEMPAVG PRESSURE GPRESSURE VOLUME PRESSAVG GPRESSAVG
ENERGY: 0 0.7487 7.5184 3.4496 0.0000 -10707.8248 1379.4759 0.0000 0.0000 1773.5262 -7543.1059 301.9212 -9316.6321 -7543.1059 301.9212 -697.5341 -605.4376 30314.6827 -697.5341 -605.4376
ENERGY: 300000 1.0653 3.8821 3.9015 0.0000 -10752.8925 1487.7963 0.0000 0.0000 1767.6942 -7488.5531 300.9283 -9256.2473 -7508.8927 302.9361 436.0246 466.9469 30210.4197 40.0425 100.6435
ENERGY: 600000 0.5844 3.1980 3.5224 0.0000 -10757.7308 1422.9859 0.0000 0.0000 1779.4851 -7547.9549 302.9356 -9327.4401 -7523.1078 301.1228 -257.0223 -208.6984 30201.5577 -38.1476 21.4656
ENERGY: 900000 0.4198 8.0411 3.2966 0.0000 -10621.1712 1375.2330 0.0000 0.0000 1748.5166 -7485.6641 297.6636 -9234.1807 -7518.6685 300.5766 -395.0937 -329.6289 30197.6157 -163.1111 -104.1033
ENERGY: 1200000 2.1035 5.4538 3.5811 0.0000 -10789.7907 1495.2992 0.0000 0.0000 1746.4385 -7536.9145 297.3098 -9283.3530 -7530.9503 299.8385 110.4462 248.5396 30499.7880 -156.9037 -96.1440
ENERGY: 1500000 0.4650 4.9340 5.4463 0.0000 -10838.2842 1462.9910 0.0000 0.0000 1885.8532 -7478.5946 321.0435 -9364.4478 -7524.2697 300.8922 -135.9085 -49.4148 30276.5977 -187.3505 -129.2521
TCL: Running FEP window  17: Lambda1 0.19999999999999968 Lambda2 0.1499999999999997 [dLambda -0.04999999999999999]
TCL: Setting parameter firsttimestep to 0
TCL: Setting parameter alchLambda to 0.19999999999999968
Info: NONBONDED TABLE R-SQUARED SPACING: 0.0625
Info: NONBONDED TABLE SIZE: 705 POINTS
TCL: Setting parameter alchLambda2 to 0.1499999999999997
Info: NONBONDED TABLE R-SQUARED SPACING: 0.0625
Info: NONBONDED TABLE SIZE: 705 POINTS
TCL: Running for 1500000 steps
ETITLE: TS BOND ANGLE DIHED IMPRP ELECT VDW BOUNDARY MISC KINETIC TOTAL TEMP POTENTIAL TOTALAVG TEMPAVG PRESSURE GPRESSURE VOLUME PRESSAVG GPRESSAVG
ENERGY: 0 0.4650 4.9340 5.4463 0.0000 -10838.2856 1463.1863 0.0000 0.0000 1885.0279 -7479.2260 320.9030 -9364.2539 -7479.2260 320.9030 -126.6884 -47.4806 30276.5977 -126.6884 -47.4806
ENERGY: 300000 2.0372 4.9979 3.6092 0.0000 -10797.1315 1449.9938 0.0000 0.0000 1759.8528 -7576.6405 299.5934 -9336.4933 -7502.8101 306.1184 190.9887 290.8555 29795.9077 -46.3350 26.4904
ENERGY: 600000 0.2548 2.7457 4.6929 0.0000 -10602.2711 1365.7632 0.0000 0.0000 1726.5749 -7502.2396 293.9283 -9228.8145 -7485.3735 303.4389 -751.4736 -607.2332 30438.3039 -251.3923 -174.6666
ENERGY: 900000 0.2510 3.5698 3.8697 0.0000 -10627.5975 1335.3997 0.0000 0.0000 1728.3784 -7556.1289 294.2353 -9284.5073 -7498.6405 301.4890 -921.2175 -845.9225 30400.3146 -367.0084 -289.4334
ENERGY: 1200000 0.2288 7.3663 3.5345 0.0000 -10694.1323 1432.6039 0.0000 0.0000 1764.0572 -7486.3416 300.3092 -9250.3988 -7493.3577 302.1011 -176.4793 -109.7227 30723.1002 -292.3444 -220.5972
ENERGY: 1500000 0.9923 4.8149 3.4165 0.0000 -10802.2380 1563.7656 0.0000 0.0000 1695.3854 -7533.8634 288.6186 -9229.2487 -7495.4666 300.0080 952.9064 1048.0796 30083.7905 -173.0194 -101.9620
TCL: Running FEP window  18: Lambda1 0.1499999999999997 Lambda2 0.09999999999999969 [dLambda -0.05 ]
TCL: Setting parameter firsttimestep to 0
TCL: Setting parameter alchLambda to 0.1499999999999997
Info: NONBONDED TABLE R-SQUARED SPACING: 0.0625
Info: NONBONDED TABLE SIZE: 705 POINTS
TCL: Setting parameter alchLambda2 to 0.09999999999999969
Info: NONBONDED TABLE R-SQUARED SPACING: 0.0625
Info: NONBONDED TABLE SIZE: 705 POINTS
TCL: Running for 1500000 steps
ETITLE: TS BOND ANGLE DIHED IMPRP ELECT VDW BOUNDARY MISC KINETIC TOTAL TEMP POTENTIAL TOTALAVG TEMPAVG PRESSURE GPRESSURE VOLUME PRESSAVG GPRESSAVG
ENERGY: 0 0.9923 4.8149 3.4165 0.0000 -10802.2380 1563.4779 0.0000 0.0000 1694.4882 -7535.0482 288.4659 -9229.5364 -7535.0482 288.4659 950.8551 1045.2045 30083.7905 950.8551 1045.2045
ENERGY: 300000 1.0998 5.5739 5.0279 0.0000 -10647.1973 1338.1931 0.0000 0.0000 1739.9091 -7557.3935 296.1983 -9297.3026 -7532.5269 296.2048 -809.4931 -700.9453 29918.1660 33.7199 110.7218
ENERGY: 600000 1.4995 6.8641 3.5039 0.0000 -10758.5312 1537.6489 0.0000 0.0000 1809.7995 -7399.2153 308.0963 -9209.0147 -7506.7675 299.5014 1135.0920 1180.3639 29885.2452 255.2557 314.7306
ENERGY: 900000 1.5154 5.9915 5.2235 0.0000 -10664.3756 1358.4905 0.0000 0.0000 1734.5357 -7558.6190 295.2835 -9293.1547 -7497.0366 299.6696 -652.3611 -611.6204 30168.2345 81.8323 137.4211
ENERGY: 1200000 0.2227 6.2305 3.5740 0.0000 -10700.6151 1441.3257 0.0000 0.0000 1702.4045 -7546.8577 289.8136 -9249.2622 -7498.9439 300.0466 -196.4388 -129.2725 30490.8445 89.7087 148.7868
ENERGY: 1500000 0.1186 4.3502 3.8290 0.0000 -10798.8543 1507.6165 0.0000 0.0000 1797.8281 -7485.1118 306.0583 -9282.9400 -7499.2260 300.6924 449.6239 473.9885 30269.6667 74.5886 132.3851
TCL: Running FEP window  19: Lambda1 0.09999999999999969 Lambda2 0.049999999999999684 [dLambda -0.05 ]
TCL: Setting parameter firsttimestep to 0
TCL: Setting parameter alchLambda to 0.09999999999999969
Info: NONBONDED TABLE R-SQUARED SPACING: 0.0625
Info: NONBONDED TABLE SIZE: 705 POINTS
TCL: Setting parameter alchLambda2 to 0.049999999999999684
Info: NONBONDED TABLE R-SQUARED SPACING: 0.0625
Info: NONBONDED TABLE SIZE: 705 POINTS
TCL: Running for 1500000 steps
ETITLE: TS BOND ANGLE DIHED IMPRP ELECT VDW BOUNDARY MISC KINETIC TOTAL TEMP POTENTIAL TOTALAVG TEMPAVG PRESSURE GPRESSURE VOLUME PRESSAVG GPRESSAVG
ENERGY: 0 0.1186 4.3502 3.8290 0.0000 -10798.8524 1507.5906 0.0000 0.0000 1796.9529 -7486.0111 305.9093 -9282.9640 -7486.0111 305.9093 407.7969 472.4912 30269.6667 407.7969 472.4912
ENERGY: 300000 1.5279 2.6087 4.0839 0.0000 -10691.9573 1463.2481 0.0000 0.0000 1796.6903 -7423.7983 305.8646 -9220.4886 -7528.5462 303.2509 252.3365 287.6416 30690.0370 258.6439 323.9180
ENERGY: 600000 0.9199 6.1565 5.0652 0.0000 -10661.7331 1470.0852 0.0000 0.0000 1754.3560 -7425.1503 298.6577 -9179.5062 -7501.6307 300.7852 250.9546 275.8972 30693.2780 196.0867 255.9443
ENERGY: 900000 0.5772 6.8593 4.1772 0.0000 -10486.8711 1299.4726 0.0000 0.0000 1782.6093 -7393.1754 303.4675 -9175.7847 -7503.0336 300.6021 -1090.3559 -1017.3314 30832.8746 33.4210 95.2624
ENERGY: 1200000 0.7793 8.6289 3.5191 0.0000 -10744.2032 1520.1569 0.0000 0.0000 1724.2135 -7486.9054 293.5263 -9211.1189 -7499.6366 300.1046 426.9512 561.7829 30717.9378 55.4035 116.8284
ENERGY: 1500000 0.0552 4.1352 3.6027 0.0000 -10736.7816 1449.3883 0.0000 0.0000 1820.3303 -7459.2699 309.8890 -9279.6002 -7495.7895 300.3221 -124.9393 -34.4500 30427.9912 -40.3537 26.8943
TCL: Running FEP window  20: Lambda1 0.049999999999999684 Lambda2 0.0    [dLambda -0.049999999999999684]
TCL: Setting parameter firsttimestep to 0
TCL: Setting parameter alchLambda to 0.049999999999999684
Info: NONBONDED TABLE R-SQUARED SPACING: 0.0625
Info: NONBONDED TABLE SIZE: 705 POINTS
TCL: Setting parameter alchLambda2 to 0.0
Info: NONBONDED TABLE R-SQUARED SPACING: 0.0625
Info: NONBONDED TABLE SIZE: 705 POINTS
TCL: Running for 1500000 steps
ETITLE: TS BOND ANGLE DIHED IMPRP ELECT VDW BOUNDARY MISC KINETIC TOTAL TEMP POTENTIAL TOTALAVG TEMPAVG PRESSURE GPRESSURE VOLUME PRESSAVG GPRESSAVG
ENERGY: 0 0.0552 4.1352 3.6027 0.0000 -10736.7822 1447.6507 0.0000 0.0000 1819.3827 -7461.9558 309.7277 -9281.3385 -7461.9558 309.7277 -121.8078 -42.0031 30427.9912 -121.8078 -42.0031
ENERGY: 300000 1.0485 4.6337 3.6872 0.0000 -10870.8997 1482.3952 0.0000 0.0000 1776.7300 -7602.4052 302.4666 -9379.1351 -7508.8204 302.1238 -68.7497 -66.6763 30348.1701 -173.9049 -145.5161
ENERGY: 600000 0.9086 5.1673 3.5859 0.0000 -10927.3337 1571.6575 0.0000 0.0000 1784.1545 -7561.8600 303.7305 -9346.0144 -7538.3120 300.0388 737.4363 800.4376 30360.9999 29.2497 60.1009
ENERGY: 900000 1.0132 2.4321 3.5135 0.0000 -10733.2470 1455.4463 0.0000 0.0000 1729.4573 -7541.3846 294.4190 -9270.8418 -7519.7032 299.7612 81.9904 118.1274 30194.8204 -8.1324 28.5486
ENERGY: 1200000 0.3664 7.8483 4.6481 0.0000 -10895.1529 1570.2119 0.0000 0.0000 1775.8759 -7536.2022 302.3212 -9312.0782 -7521.0461 299.4809 911.9624 947.8789 30127.8156 6.9790 46.5351
ENERGY: 1500000 1.8460 3.2849 4.4738 0.0000 -10848.8555 1518.4347 0.0000 0.0000 1779.9252 -7540.8909 303.0105 -9320.8161 -7525.7040 299.4738 652.9150 710.5340 29774.7366 36.3396 80.6785
TCL: Exiting due to exit command.
