Info: SIMULATION PARAMETERS:
Info: TIMESTEP               2
Info: NUMBER OF STEPS        0
Info: STEPS PER CYCLE        10
Info: PERIODIC CELL BASIS 1  32.2461 0 0
Info: PERIODIC CELL BASIS 2  0 30.1911 0
Info: PERIODIC CELL BASIS 3  0 0 30.8026
Info: PERIODIC CELL CENTER   0 0 0
Info: WRAPPING WATERS AROUND PERIODIC BOUNDARIES ON OUTPUT.
Info: WRAPPING ALL CLUSTERS AROUND PERIODIC BOUNDARIES ON OUTPUT.
Info: FIRST LDB TIMESTEP     50
Info: LAST LDB TIMESTEP     -1
Info: HOM BACKGROUND SCALING 1
Info: PME BACKGROUND SCALING 1
Info: MIN ATOMS PER PATCH    40
Info: EMPTY PATCH LOAD       40 ATOMS
Info: VELOCITY FILE          mobley_5935995_equil.vel
Info: CENTER OF MASS MOVING INITIALLY? NO
Info: DIELECTRIC             1
Info: EXCLUDE                SCALED ONE-FOUR
Info: 1-4 ELECTROSTATICS SCALED BY 0.833333
Info: MODIFIED 1-4 VDW PARAMETERS WILL BE USED
Info: DCD FILENAME           mobley_5935995_prod.dcd
Info: DCD FREQUENCY          100000
Info: DCD FIRST STEP         100000
Info: DCD FILE WILL CONTAIN UNIT CELL DATA
Info: XST FILENAME           mobley_5935995_prod.xst
Info: XST FREQUENCY          100000
Info: NO VELOCITY DCD OUTPUT
Info: NO FORCE DCD OUTPUT
Info: OUTPUT FILENAME        mobley_5935995_prod
Info: BINARY OUTPUT FILES WILL BE USED
Info: RESTART FILENAME       mobley_5935995_prod.restart
Info: RESTART FREQUENCY      100000
Info: BINARY RESTART FILES WILL BE USED
Info: CUTOFF                 9
Info: PAIRLIST DISTANCE      11
Info: PAIRLIST SHRINK RATE   0.01
Info: PAIRLIST GROW RATE     0.01
Info: PAIRLIST TRIGGER       0.3
Info: PAIRLISTS PER CYCLE    2
Info: PAIRLISTS ENABLED
Info: MARGIN                 2
Info: HYDROGEN GROUP CUTOFF  2.5
Info: PATCH DIMENSION        15.5
Info: ENERGY OUTPUT STEPS    100000
Info: ENERGY EVALUATION STEPS    100000
Info: OUTPUT ENERGY PRECISION 4
Info: CROSSTERM ENERGY INCLUDED IN DIHEDRAL
Info: TIMING OUTPUT STEPS    1000000
Info: PRESSURE OUTPUT STEPS  100000
Info: ALCHEMICAL FEP ON
Info: FEP CURRENT LAMBDA VALUE     1
Info: FEP COMPARISON LAMBDA VALUE  0.95
Info: FEP INTRA-ALCHEMICAL NON-BONDED INTERACTIONS WILL BE RETAINED
Info: FEP INTRA-ALCHEMICAL BONDED INTERACTIONS WILL BE RETAINED
Info: FEP VDW SHIFTING COEFFICIENT 5
Info: FEP ELEC. ACTIVE FOR ANNIHILATED PARTICLES BETWEEN LAMBDA = 0 AND LAMBDA = 0.5
Info: FEP ELEC. ACTIVE FOR EXNIHILATED PARTICLES BETWEEN LAMBDA = 0.5 AND LAMBDA = 1
Info: FEP VDW ACTIVE FOR ANNIHILATED PARTICLES BETWEEN LAMBDA = 0 AND LAMBDA = 1
Info: FEP VDW ACTIVE FOR EXNIHILATED PARTICLES BETWEEN LAMBDA = 0 AND LAMBDA = 1
Info: FEP BOND ACTIVE FOR ANNIHILATED PARTICLES BETWEEN LAMBDA = 1 AND LAMBDA = 1
Info: FEP BOND ACTIVE FOR EXNIHILATED PARTICLES BETWEEN LAMBDA = 0 AND LAMBDA = 0
Info: LANGEVIN DYNAMICS ACTIVE
Info: LANGEVIN TEMPERATURE   300
Info: LANGEVIN USING BBK INTEGRATOR
Info: LANGEVIN DAMPING COEFFICIENT IS 1 INVERSE PS
Info: LANGEVIN DYNAMICS APPLIED TO HYDROGENS
Info: LANGEVIN PISTON PRESSURE CONTROL ACTIVE
Info:        TARGET PRESSURE IS 1.01325 BAR
Info:     OSCILLATION PERIOD IS 50 FS
Info:             DECAY TIME IS 25 FS
Info:     PISTON TEMPERATURE IS 300 K
Info:       PRESSURE CONTROL IS GROUP-BASED
Info:    INITIAL STRAIN RATE IS -0.000110276 -0.000110276 -0.000110276
Info:       CELL FLUCTUATION IS ISOTROPIC
Info: PARTICLE MESH EWALD (PME) ACTIVE
Info: PME TOLERANCE               1e-06
Info: PME EWALD COEFFICIENT       0.348832
Info: PME INTERPOLATION ORDER     4
Info: PME GRID DIMENSIONS         36 32 32
Info: PME MAXIMUM GRID SPACING    1
Info: PME CALCULATION WILL BE PERFORMED ON GPU
Info: FULL ELECTROSTATIC EVALUATION FREQUENCY      2
Info: USING VERLET I (r-RESPA) MTS SCHEME.
Info: C1 SPLITTING OF LONG RANGE ELECTROSTATICS
Info: PLACING ATOMS IN PATCHES BY HYDROGEN GROUPS
Info: RIGID BONDS TO HYDROGEN : ALL
Info:         ERROR TOLERANCE : 1e-08
Info:          MAX ITERATIONS : 100
Info: RIGID WATER USING SETTLE ALGORITHM
Info: RANDOM NUMBER SEED     1743635631
Info: USE HYDROGEN BONDS?    NO
Info: Using AMBER format force field!
Info: AMBER PARM FILE        mobley_5935995.prmtop
Info: COORDINATE PDB         mobley_5935995.pdb
Info: Exclusions will be read from PARM file!
Info: SCNB (VDW SCALING)     2
Info: USING ARITHMETIC MEAN TO COMBINE L-J SIGMA PARAMETERS
Info: BINARY COORDINATES     mobley_5935995_equil.coor
Info: SUMMARY OF PARAMETERS:
Info: 4 BONDS
Info: 3 ANGLES
Info:   3 HARMONIC
Info:   0 COSINE-BASED
Info: 5 DIHEDRAL
Info: 0 IMPROPER
Info: 0 CROSSTERM
Info: 0 VDW
Info: 10 VDW_PAIRS
Info: 0 NBTHOLE_PAIRS
Info: To read alchdata from file: mobley_5935995.pdb
Info: To read alchflag data from column: 5
Info: STRUCTURE SUMMARY:
Info: 2930 ATOMS
Info: 2929 BONDS
Info: 36 ANGLES
Info: 51 DIHEDRALS
Info: 0 IMPROPERS
Info: 0 CROSSTERMS
Info: 3010 EXCLUSIONS
Info: 2924 RIGID BONDS
Info: ALCH: 0 ATOMS TO DISAPPEAR IN FINAL STATE
Info: ALCH: 20 ATOMS TO APPEAR IN FINAL STATE
Info: 5866 DEGREES OF FREEDOM
Info: 976 HYDROGEN GROUPS
Info: 4 ATOMS IN LARGEST HYDROGEN GROUP
Info: 976 MIGRATION GROUPS
Info: 4 ATOMS IN LARGEST MIGRATION GROUP
Info: TOTAL MASS = 17561.7 amu
Info: TOTAL CHARGE = 0.000200015 e
Info: MASS DENSITY = 0.972484 g/cm^3
Info: ATOM DENSITY = 0.0977067 atoms/A^3
Info: ADDED 0 IMPLICIT EXCLUSIONS
Info: NONBONDED TABLE R-SQUARED SPACING: 0.0625
Info: NONBONDED TABLE SIZE: 705 POINTS
Info: REMOVING COM VELOCITY 0.152346 -0.135807 0.0634033
Info: Use 3D box decompostion in PME FFT.
Info: Updated CUDA force table with 4096 elements.
Info: Updated CUDA LJ table with 4 x 4 elements.
Info: Found 23 unique exclusion lists needing 64 bytes
TCL: Running for 1500000 steps
ETITLE: TS BOND ANGLE DIHED IMPRP ELECT VDW BOUNDARY MISC KINETIC TOTAL TEMP POTENTIAL TOTALAVG TEMPAVG PRESSURE GPRESSURE VOLUME PRESSAVG GPRESSAVG
ENERGY: 0 2.6475 12.9258 3.0427 0.0000 -10489.3426 1378.9565 0.0000 0.0000 1784.5190 -7307.2510 306.1748 -9091.7700 -7307.2510 306.1748 -63.7392 25.6684 29987.7023 -63.7392 25.6684
ENERGY: 300000 3.1567 11.7236 3.4271 0.0000 -10668.8526 1426.4729 0.0000 0.0000 1708.6919 -7515.3803 293.1650 -9224.0723 -7435.7225 300.4170 -321.0945 -331.5718 30245.0652 -546.1331 -493.2343
ENERGY: 600000 0.8096 16.1513 2.4733 0.0000 -10627.2474 1474.7224 0.0000 0.0000 1745.3645 -7387.7263 299.4570 -9133.0908 -7425.7672 300.2218 443.6047 507.2950 30193.6220 -413.8687 -354.4808
ENERGY: 900000 1.3090 13.2729 1.9558 0.0000 -10705.4290 1507.1075 0.0000 0.0000 1733.6841 -7448.0998 297.4529 -9181.7838 -7420.3819 300.0903 403.0144 524.5676 30104.3618 -233.4043 -172.3856
ENERGY: 1200000 1.7071 8.2291 2.1590 0.0000 -10548.9821 1349.2098 0.0000 0.0000 1745.9399 -7441.7371 299.5557 -9187.6770 -7429.2110 299.6529 -890.9814 -773.3478 30522.8697 -289.0359 -229.2680
ENERGY: 1500000 1.0097 12.7231 2.0364 0.0000 -10582.1594 1380.7301 0.0000 0.0000 1737.5873 -7448.0728 298.1226 -9185.6601 -7427.5264 299.1650 -609.6893 -538.0388 30410.5833 -293.0367 -232.6963
TCL: Running FEP window   2: Lambda1 0.95   Lambda2 0.8999999999999999 [dLambda -0.050000000000000044]
TCL: Setting parameter firsttimestep to 0
TCL: Setting parameter alchLambda to 0.95
Info: NONBONDED TABLE R-SQUARED SPACING: 0.0625
Info: NONBONDED TABLE SIZE: 705 POINTS
TCL: Setting parameter alchLambda2 to 0.8999999999999999
Info: NONBONDED TABLE R-SQUARED SPACING: 0.0625
Info: NONBONDED TABLE SIZE: 705 POINTS
TCL: Running for 1500000 steps
ETITLE: TS BOND ANGLE DIHED IMPRP ELECT VDW BOUNDARY MISC KINETIC TOTAL TEMP POTENTIAL TOTALAVG TEMPAVG PRESSURE GPRESSURE VOLUME PRESSAVG GPRESSAVG
ENERGY: 0 1.0097 12.7231 2.0364 0.0000 -10582.1613 1381.1171 0.0000 0.0000 1736.6971 -7448.5778 297.9699 -9185.2749 -7448.5778 297.9699 -626.9343 -543.8002 30410.5833 -626.9343 -543.8002
ENERGY: 300000 0.7535 11.5843 1.7937 0.0000 -10643.6372 1442.4457 0.0000 0.0000 1726.7376 -7460.3224 296.2611 -9187.0600 -7447.0402 299.6583 234.6467 298.1597 29988.0531 -193.8733 -107.0513
ENERGY: 600000 1.5393 9.2633 2.7030 0.0000 -10552.4179 1416.8313 0.0000 0.0000 1783.0981 -7338.9827 305.9311 -9122.0809 -7426.7715 301.6382 -40.6119 11.0983 30562.3283 -32.8933 36.3951
ENERGY: 900000 1.2503 12.4583 1.9949 0.0000 -10551.4883 1412.1853 0.0000 0.0000 1785.9312 -7337.6683 306.4171 -9123.5995 -7421.2872 300.8031 174.0188 291.0040 30110.1125 -78.7339 -7.2161
ENERGY: 1200000 0.9710 11.0331 3.0690 0.0000 -10712.3746 1429.3547 0.0000 0.0000 1722.4839 -7545.4628 295.5313 -9267.9467 -7427.0847 300.5566 189.8894 267.9351 29441.1396 -77.4676 -10.5986
ENERGY: 1500000 3.5041 8.3632 2.3169 0.0000 -10664.5362 1480.5670 0.0000 0.0000 1752.1166 -7417.6684 300.6155 -9169.7850 -7427.7789 300.1021 444.7073 511.3307 30002.5648 -44.6525 23.8400
TCL: Running FEP window   3: Lambda1 0.8999999999999999 Lambda2 0.8499999999999999 [dLambda -0.050000000000000044]
TCL: Setting parameter firsttimestep to 0
TCL: Setting parameter alchLambda to 0.8999999999999999
Info: NONBONDED TABLE R-SQUARED SPACING: 0.0625
Info: NONBONDED TABLE SIZE: 705 POINTS
TCL: Setting parameter alchLambda2 to 0.8499999999999999
Info: NONBONDED TABLE R-SQUARED SPACING: 0.0625
Info: NONBONDED TABLE SIZE: 705 POINTS
TCL: Running for 1500000 steps
ETITLE: TS BOND ANGLE DIHED IMPRP ELECT VDW BOUNDARY MISC KINETIC TOTAL TEMP POTENTIAL TOTALAVG TEMPAVG PRESSURE GPRESSURE VOLUME PRESSAVG GPRESSAVG
ENERGY: 0 3.5042 8.3632 2.3169 0.0000 -10664.5343 1481.1634 0.0000 0.0000 1751.2434 -7417.9433 300.4657 -9169.1867 -7417.9433 300.4657 433.5226 508.7114 30002.5648 433.5226 508.7114
ENERGY: 300000 2.6739 8.8379 2.7251 0.0000 -10564.7482 1440.2295 0.0000 0.0000 1732.4636 -7377.8181 297.2436 -9110.2817 -7411.4622 301.1657 401.3113 437.1327 29968.6422 421.5863 476.2180
ENERGY: 600000 0.3375 7.4626 2.4286 0.0000 -10694.1649 1489.6266 0.0000 0.0000 1773.0663 -7421.2432 304.2099 -9194.3096 -7425.5864 300.3563 291.9473 426.2522 30127.0055 166.9266 230.1260
ENERGY: 900000 1.5633 13.3679 3.1726 0.0000 -10740.1552 1506.7026 0.0000 0.0000 1719.3057 -7496.0431 294.9860 -9215.3488 -7429.8729 298.7579 293.4314 376.3062 30322.0302 136.4183 203.4919
ENERGY: 1200000 3.9221 13.9486 3.1262 0.0000 -10840.4526 1541.6003 0.0000 0.0000 1737.6105 -7540.2448 298.1266 -9277.8554 -7428.6221 299.3844 429.5894 478.1775 30309.2757 128.3285 194.4287
ENERGY: 1500000 1.2888 9.6549 2.2844 0.0000 -10682.4933 1485.2250 0.0000 0.0000 1766.9608 -7417.0794 303.1623 -9184.0402 -7421.4928 299.0595 478.3460 457.1753 30228.4503 126.3764 185.1017
TCL: Running FEP window   4: Lambda1 0.8499999999999999 Lambda2 0.7999999999999998 [dLambda -0.050000000000000044]
TCL: Setting parameter firsttimestep to 0
TCL: Setting parameter alchLambda to 0.8499999999999999
Info: NONBONDED TABLE R-SQUARED SPACING: 0.0625
Info: NONBONDED TABLE SIZE: 705 POINTS
TCL: Setting parameter alchLambda2 to 0.7999999999999998
Info: NONBONDED TABLE R-SQUARED SPACING: 0.0625
Info: NONBONDED TABLE SIZE: 705 POINTS
TCL: Running for 1500000 steps
ETITLE: TS BOND ANGLE DIHED IMPRP ELECT VDW BOUNDARY MISC KINETIC TOTAL TEMP POTENTIAL TOTALAVG TEMPAVG PRESSURE GPRESSURE VOLUME PRESSAVG GPRESSAVG
ENERGY: 0 1.2888 9.6549 2.2844 0.0000 -10682.4930 1485.6705 0.0000 0.0000 1766.1220 -7417.4724 303.0184 -9183.5944 -7417.4724 303.0184 379.5030 453.5660 30228.4503 379.5030 453.5660
ENERGY: 300000 1.6997 8.1295 2.1626 0.0000 -10512.4383 1369.4824 0.0000 0.0000 1718.8026 -7412.1617 294.8997 -9130.9642 -7436.7185 299.5726 -502.4346 -470.3459 30271.2254 21.3023 74.0060
ENERGY: 600000 0.8486 10.8943 2.3408 0.0000 -10564.3313 1373.8513 0.0000 0.0000 1709.6679 -7466.7284 293.3324 -9176.3963 -7463.9859 296.2289 -526.0529 -477.2119 30266.5536 -110.8012 -49.9501
ENERGY: 900000 0.4904 6.4130 2.4939 0.0000 -10610.6709 1464.1725 0.0000 0.0000 1749.1073 -7387.9937 300.0992 -9137.1011 -7442.4623 298.1423 496.1915 515.1504 29921.3876 9.5557 58.4639
ENERGY: 1200000 1.2531 10.1393 2.8042 0.0000 -10666.0012 1490.1396 0.0000 0.0000 1743.8923 -7417.7728 299.2044 -9161.6651 -7437.1357 298.3462 406.6247 491.0957 30237.8567 92.1351 142.9774
ENERGY: 1500000 2.1393 10.5307 4.0090 0.0000 -10605.8044 1377.4082 0.0000 0.0000 1803.2214 -7408.4958 309.3837 -9211.7172 -7431.8324 299.0305 -530.5304 -431.2863 29965.6130 134.3145 187.8050
TCL: Running FEP window   5: Lambda1 0.7999999999999998 Lambda2 0.7499999999999998 [dLambda -0.050000000000000044]
TCL: Setting parameter firsttimestep to 0
TCL: Setting parameter alchLambda to 0.7999999999999998
Info: NONBONDED TABLE R-SQUARED SPACING: 0.0625
Info: NONBONDED TABLE SIZE: 705 POINTS
TCL: Setting parameter alchLambda2 to 0.7499999999999998
Info: NONBONDED TABLE R-SQUARED SPACING: 0.0625
Info: NONBONDED TABLE SIZE: 705 POINTS
TCL: Running for 1500000 steps
ETITLE: TS BOND ANGLE DIHED IMPRP ELECT VDW BOUNDARY MISC KINETIC TOTAL TEMP POTENTIAL TOTALAVG TEMPAVG PRESSURE GPRESSURE VOLUME PRESSAVG GPRESSAVG
ENERGY: 0 2.1393 10.5307 4.0090 0.0000 -10605.8413 1377.2078 0.0000 0.0000 1802.3306 -7409.6240 309.2308 -9211.9546 -7409.6240 309.2308 -509.6339 -443.4677 29965.6130 -509.6339 -443.4677
ENERGY: 300000 0.6595 8.5944 2.5382 0.0000 -10537.6991 1414.4885 0.0000 0.0000 1738.1708 -7373.2477 298.2228 -9111.4186 -7400.6497 297.1177 -110.2717 -56.3929 30358.0942 -504.1418 -409.5778
ENERGY: 600000 2.1279 13.1278 3.4836 0.0000 -10586.9135 1403.0438 0.0000 0.0000 1727.9089 -7437.2215 296.4621 -9165.1304 -7395.3775 299.7620 -76.3010 49.4879 29701.4655 -404.4395 -320.7385
ENERGY: 900000 1.9402 12.4828 3.3028 0.0000 -10638.7523 1447.4792 0.0000 0.0000 1802.2813 -7371.2660 309.2224 -9173.5473 -7387.4893 300.7693 107.3556 196.0324 30385.8741 -212.3480 -143.2246
ENERGY: 1200000 1.3073 9.8393 4.8207 0.0000 -10533.8113 1429.5973 0.0000 0.0000 1752.7487 -7335.4981 300.7239 -9088.2468 -7384.6537 300.8253 210.3002 308.5978 30426.6188 -146.7790 -73.1203
ENERGY: 1500000 1.3308 9.1915 3.0185 0.0000 -10524.9321 1401.6307 0.0000 0.0000 1774.0413 -7335.7193 304.3772 -9109.7606 -7386.1611 301.1568 37.4998 43.4547 30211.1194 -111.2548 -41.4160
TCL: Running FEP window   6: Lambda1 0.7499999999999998 Lambda2 0.6999999999999997 [dLambda -0.050000000000000044]
TCL: Setting parameter firsttimestep to 0
TCL: Setting parameter alchLambda to 0.7499999999999998
Info: NONBONDED TABLE R-SQUARED SPACING: 0.0625
Info: NONBONDED TABLE SIZE: 705 POINTS
TCL: Setting parameter alchLambda2 to 0.6999999999999997
Info: NONBONDED TABLE R-SQUARED SPACING: 0.0625
Info: NONBONDED TABLE SIZE: 705 POINTS
TCL: Running for 1500000 steps
ETITLE: TS BOND ANGLE DIHED IMPRP ELECT VDW BOUNDARY MISC KINETIC TOTAL TEMP POTENTIAL TOTALAVG TEMPAVG PRESSURE GPRESSURE VOLUME PRESSAVG GPRESSAVG
ENERGY: 0 1.3308 9.1915 3.0185 0.0000 -10524.9359 1401.5958 0.0000 0.0000 1773.1624 -7336.6369 304.2264 -9109.7993 -7336.6369 304.2264 -41.9998 35.2077 30211.1194 -41.9998 35.2077
ENERGY: 300000 2.2194 10.3380 2.8267 0.0000 -10575.8536 1504.1654 0.0000 0.0000 1702.8831 -7353.4208 292.1683 -9056.3039 -7381.1365 297.5689 1112.8811 1129.0644 29980.7594 109.9761 148.8428
ENERGY: 600000 2.5731 9.0107 4.2397 0.0000 -10517.8100 1334.8619 0.0000 0.0000 1751.7813 -7415.3433 300.5579 -9167.1246 -7387.4828 298.8956 -602.0394 -557.4520 29825.6448 -88.8675 -41.9221
ENERGY: 900000 1.7069 13.4931 2.0212 0.0000 -10601.6564 1452.0051 0.0000 0.0000 1718.1813 -7414.2488 294.7931 -9132.4302 -7395.9187 297.4390 175.4282 228.1568 30210.1734 -114.2751 -73.6414
ENERGY: 1200000 2.4122 10.4480 3.0837 0.0000 -10751.9078 1487.5987 0.0000 0.0000 1773.9887 -7474.3765 304.3681 -9248.3652 -7408.2440 297.6092 327.6103 427.8643 29841.9609 -171.4173 -121.1818
ENERGY: 1500000 1.0977 7.2065 2.7001 0.0000 -10618.3084 1370.4628 0.0000 0.0000 1713.4600 -7523.3812 293.9831 -9236.8412 -7416.1648 297.4724 -431.8914 -384.1330 29732.4189 -110.2458 -56.9902
TCL: Running FEP window   7: Lambda1 0.6999999999999997 Lambda2 0.6499999999999997 [dLambda -0.050000000000000044]
TCL: Setting parameter firsttimestep to 0
TCL: Setting parameter alchLambda to 0.6999999999999997
Info: NONBONDED TABLE R-SQUARED SPACING: 0.0625
Info: NONBONDED TABLE SIZE: 705 POINTS
TCL: Setting parameter alchLambda2 to 0.6499999999999997
Info: NONBONDED TABLE R-SQUARED SPACING: 0.0625
Info: NONBONDED TABLE SIZE: 705 POINTS
TCL: Running for 1500000 steps
ETITLE: TS BOND ANGLE DIHED IMPRP ELECT VDW BOUNDARY MISC KINETIC TOTAL TEMP POTENTIAL TOTALAVG TEMPAVG PRESSURE GPRESSURE VOLUME PRESSAVG GPRESSAVG
ENERGY: 0 1.0977 7.2065 2.7001 0.0000 -10618.3234 1370.8286 0.0000 0.0000 1712.6151 -7523.8753 293.8381 -9236.4904 -7523.8753 293.8381 -463.3458 -388.5206 29732.4189 -463.3458 -388.5206
ENERGY: 300000 1.2182 14.0775 3.4317 0.0000 -10673.6176 1473.7598 0.0000 0.0000 1812.8516 -7368.2789 311.0359 -9181.1305 -7410.8344 297.8707 310.7964 342.3604 30182.1277 -123.0315 -71.6675
ENERGY: 600000 1.1270 5.6621 1.8342 0.0000 -10712.2240 1490.9945 0.0000 0.0000 1752.4407 -7460.1655 300.6711 -9212.6062 -7412.2912 298.8554 451.5545 477.1410 30072.6434 -34.8772 20.9124
ENERGY: 900000 0.8294 10.5139 1.8772 0.0000 -10498.6582 1363.8241 0.0000 0.0000 1767.2519 -7354.3618 303.2123 -9121.6137 -7413.5384 299.0678 -520.5130 -400.3195 30129.8954 69.4793 137.9992
ENERGY: 1200000 0.8183 8.7934 3.3031 0.0000 -10516.2617 1373.5637 0.0000 0.0000 1774.9246 -7354.8585 304.5287 -9129.7832 -7411.1676 299.3855 -152.4891 -103.4329 30144.3839 47.6640 114.4145
ENERGY: 1500000 0.6691 13.9907 1.9379 0.0000 -10616.4798 1400.4198 0.0000 0.0000 1774.9672 -7424.4951 304.5360 -9199.4622 -7420.6733 299.3974 -260.6120 -258.2955 30114.5282 51.6842 119.4468
TCL: Running FEP window   8: Lambda1 0.6499999999999997 Lambda2 0.5999999999999996 [dLambda -0.050000000000000044]
TCL: Setting parameter firsttimestep to 0
TCL: Setting parameter alchLambda to 0.6499999999999997
Info: NONBONDED TABLE R-SQUARED SPACING: 0.0625
Info: NONBONDED TABLE SIZE: 705 POINTS
TCL: Setting parameter alchLambda2 to 0.5999999999999996
Info: NONBONDED TABLE R-SQUARED SPACING: 0.0625
Info: NONBONDED TABLE SIZE: 705 POINTS
TCL: Running for 1500000 steps
ETITLE: TS BOND ANGLE DIHED IMPRP ELECT VDW BOUNDARY MISC KINETIC TOTAL TEMP POTENTIAL TOTALAVG TEMPAVG PRESSURE GPRESSURE VOLUME PRESSAVG GPRESSAVG
ENERGY: 0 0.6691 13.9907 1.9379 0.0000 -10616.5017 1400.1708 0.0000 0.0000 1774.1023 -7425.6309 304.3876 -9199.7332 -7425.6309 304.3876 -362.5185 -271.0876 30114.5282 -362.5185 -271.0876
ENERGY: 300000 1.7558 10.0955 2.9656 0.0000 -10741.4798 1527.2499 0.0000 0.0000 1740.1381 -7459.2749 298.5603 -9199.4130 -7413.2077 305.1072 437.5350 534.4129 30129.7438 -56.2390 -1.7289
ENERGY: 600000 2.4328 10.3349 5.1366 0.0000 -10634.7066 1489.8277 0.0000 0.0000 1740.6094 -7386.3652 298.6412 -9126.9746 -7391.3216 305.1618 637.2612 665.0594 30190.3839 78.4688 128.1885
ENERGY: 900000 1.4571 12.3799 2.6266 0.0000 -10569.4230 1379.5716 0.0000 0.0000 1750.6117 -7422.7763 300.3573 -9173.3879 -7394.7559 304.2304 -702.7382 -660.5369 30740.1830 -12.0157 29.8766
ENERGY: 1200000 1.0110 14.2122 2.8979 0.0000 -10560.5874 1435.4371 0.0000 0.0000 1686.4813 -7420.5479 289.3542 -9107.0292 -7383.6352 302.7540 329.8783 311.7247 29824.3611 -2.6982 33.6076
ENERGY: 1500000 0.7761 11.8780 2.8146 0.0000 -10524.1949 1375.9140 0.0000 0.0000 1768.8033 -7364.0090 303.4785 -9132.8122 -7384.5229 302.9716 -235.2341 -172.7773 30182.2158 -98.4368 -64.3950
TCL: Running FEP window   9: Lambda1 0.5999999999999996 Lambda2 0.5499999999999996 [dLambda -0.050000000000000044]
TCL: Setting parameter firsttimestep to 0
TCL: Setting parameter alchLambda to 0.5999999999999996
Info: NONBONDED TABLE R-SQUARED SPACING: 0.0625
Info: NONBONDED TABLE SIZE: 705 POINTS
TCL: Setting parameter alchLambda2 to 0.5499999999999996
Info: NONBONDED TABLE R-SQUARED SPACING: 0.0625
Info: NONBONDED TABLE SIZE: 705 POINTS
TCL: Running for 1500000 steps
ETITLE: TS BOND ANGLE DIHED IMPRP ELECT VDW BOUNDARY MISC KINETIC TOTAL TEMP POTENTIAL TOTALAVG TEMPAVG PRESSURE GPRESSURE VOLUME PRESSAVG GPRESSAVG
ENERGY: 0 0.7761 11.8780 2.8146 0.0000 -10524.1979 1376.0519 0.0000 0.0000 1767.9644 -7364.7129 303.3345 -9132.6773 -7364.7129 303.3345 -253.0311 -176.1420 30182.2158 -253.0311 -176.1420
ENERGY: 300000 1.3145 9.8907 2.7108 0.0000 -10634.0410 1475.2353 0.0000 0.0000 1764.8871 -7380.0026 302.8065 -9144.8897 -7378.9675 302.8284 353.5777 393.2162 30173.0871 -217.4275 -154.5984
ENERGY: 600000 1.8883 8.3185 2.4288 0.0000 -10489.4381 1342.3351 0.0000 0.0000 1740.3877 -7394.0796 298.6031 -9134.4673 -7392.1125 299.6829 -827.7359 -762.6217 30529.0422 -199.5368 -134.6309
ENERGY: 900000 0.7134 12.0187 3.2521 0.0000 -10497.9978 1338.3574 0.0000 0.0000 1820.3989 -7323.2574 312.3308 -9143.6562 -7386.8226 300.5806 -389.0609 -330.5905 29716.0700 -216.4125 -148.7532
ENERGY: 1200000 2.4125 8.9797 4.3888 0.0000 -10420.5733 1331.0699 0.0000 0.0000 1814.5596 -7259.1628 311.3290 -9073.7224 -7381.7224 301.4146 -570.3068 -468.8927 30077.8414 -299.8668 -236.3806
ENERGY: 1500000 2.8657 10.5044 3.7290 0.0000 -10679.3069 1524.0823 0.0000 0.0000 1757.7154 -7380.4101 301.5761 -9138.1255 -7381.7859 301.3865 795.4443 858.9575 29854.5897 -149.7486 -81.6449
TCL: Running FEP window  10: Lambda1 0.5499999999999996 Lambda2 0.4999999999999996 [dLambda -0.04999999999999999]
TCL: Setting parameter firsttimestep to 0
TCL: Setting parameter alchLambda to 0.5499999999999996
Info: NONBONDED TABLE R-SQUARED SPACING: 0.0625
Info: NONBONDED TABLE SIZE: 705 POINTS
TCL: Setting parameter alchLambda2 to 0.4999999999999996
Info: NONBONDED TABLE R-SQUARED SPACING: 0.0625
Info: NONBONDED TABLE SIZE: 705 POINTS
TCL: Running for 1500000 steps
ETITLE: TS BOND ANGLE DIHED IMPRP ELECT VDW BOUNDARY MISC KINETIC TOTAL TEMP POTENTIAL TOTALAVG TEMPAVG PRESSURE GPRESSURE VOLUME PRESSAVG GPRESSAVG
ENERGY: 0 2.8657 10.5044 3.7290 0.0000 -10679.3072 1524.0676 0.0000 0.0000 1756.8515 -7381.2890 301.4279 -9138.1406 -7381.2890 301.4279 761.4644 852.0442 29854.5897 761.4644 852.0442
ENERGY: 300000 1.5027 7.3768 2.8215 0.0000 -10671.3916 1433.4931 0.0000 0.0000 1724.1877 -7502.0097 295.8236 -9226.1974 -7429.9463 296.4261 -9.7611 85.7472 29847.4436 164.9085 269.9210
ENERGY: 600000 1.6247 11.2122 2.1426 0.0000 -10609.3243 1438.9891 0.0000 0.0000 1739.4389 -7415.9169 298.4403 -9155.3558 -7430.8358 298.4478 -24.0407 36.2989 30215.8173 4.7208 97.0650
ENERGY: 900000 1.6126 11.4751 3.2491 0.0000 -10664.5592 1470.9699 0.0000 0.0000 1795.5824 -7381.6701 308.0730 -9177.2525 -7422.0600 298.8075 302.8780 366.6029 29911.8577 -22.7184 61.0497
ENERGY: 1200000 0.2917 7.3057 2.3534 0.0000 -10666.9501 1436.5412 0.0000 0.0000 1772.2122 -7448.2460 304.0633 -9220.4582 -7437.7828 298.5007 82.1913 103.3858 29870.6537 58.0060 136.7829
ENERGY: 1500000 1.3765 13.1084 2.1959 0.0000 -10645.8502 1399.9170 0.0000 0.0000 1738.7683 -7490.4841 298.3253 -9229.2525 -7433.9993 298.5842 -590.3804 -537.4572 30058.5290 -16.4698 54.6297
TCL: Running FEP window  11: Lambda1 0.4999999999999996 Lambda2 0.4499999999999996 [dLambda -0.04999999999999999]
TCL: Setting parameter firsttimestep to 0
TCL: Setting parameter alchLambda to 0.4999999999999996
Info: NONBONDED TABLE R-SQUARED SPACING: 0.0625
Info: NONBONDED TABLE SIZE: 705 POINTS
TCL: Setting parameter alchLambda2 to 0.4499999999999996
Info: NONBONDED TABLE R-SQUARED SPACING: 0.0625
Info: NONBONDED TABLE SIZE: 705 POINTS
TCL: Running for 1500000 steps
ETITLE: TS BOND ANGLE DIHED IMPRP ELECT VDW BOUNDARY MISC KINETIC TOTAL TEMP POTENTIAL TOTALAVG TEMPAVG PRESSURE GPRESSURE VOLUME PRESSAVG GPRESSAVG
ENERGY: 0 1.3765 13.1084 2.1959 0.0000 -10645.7327 1400.3392 0.0000 0.0000 1737.9026 -7490.8102 298.1767 -9228.7128 -7490.8102 298.1767 -615.3423 -537.9304 30058.5290 -615.3423 -537.9304
ENERGY: 300000 3.6854 14.8969 4.3534 0.0000 -10679.9604 1480.5653 0.0000 0.0000 1700.8990 -7475.5604 291.8279 -9176.4594 -7476.8608 295.8151 448.7484 411.4865 29760.4352 -34.0575 1.4854
ENERGY: 600000 1.4794 9.1961 2.2702 0.0000 -10721.8067 1521.3854 0.0000 0.0000 1744.4288 -7443.0468 299.2965 -9187.4756 -7470.7353 296.9800 474.7115 507.2579 30272.9003 114.0424 160.8821
ENERGY: 900000 3.0790 12.8081 2.4586 0.0000 -10541.0246 1404.8687 0.0000 0.0000 1718.5695 -7399.2407 294.8597 -9117.8102 -7443.4243 299.4292 -213.1350 -110.4861 30157.7568 116.3636 176.0182
ENERGY: 1200000 1.9913 11.9980 2.7720 0.0000 -10427.9424 1274.2659 0.0000 0.0000 1719.1250 -7417.7903 294.9550 -9136.9153 -7440.8027 298.9069 -1439.7854 -1386.8876 30491.0862 -44.9226 15.7763
ENERGY: 1500000 1.0944 11.1733 2.7172 0.0000 -10491.1464 1339.2260 0.0000 0.0000 1773.5947 -7363.3408 304.3005 -9136.9355 -7432.5780 298.9978 -512.3816 -479.6558 29959.8355 -106.2060 -44.9397
TCL: Running FEP window  12: Lambda1 0.4499999999999996 Lambda2 0.39999999999999963 [dLambda -0.04999999999999999]
TCL: Setting parameter firsttimestep to 0
TCL: Setting parameter alchLambda to 0.4499999999999996
Info: NONBONDED TABLE R-SQUARED SPACING: 0.0625
Info: NONBONDED TABLE SIZE: 705 POINTS
TCL: Setting parameter alchLambda2 to 0.39999999999999963
Info: NONBONDED TABLE R-SQUARED SPACING: 0.0625
Info: NONBONDED TABLE SIZE: 705 POINTS
TCL: Running for 1500000 steps
ETITLE: TS BOND ANGLE DIHED IMPRP ELECT VDW BOUNDARY MISC KINETIC TOTAL TEMP POTENTIAL TOTALAVG TEMPAVG PRESSURE GPRESSURE VOLUME PRESSAVG GPRESSAVG
ENERGY: 0 1.0944 11.1733 2.7172 0.0000 -10491.1461 1339.6799 0.0000 0.0000 1772.7204 -7363.7608 304.1505 -9136.4812 -7363.7608 304.1505 -575.6620 -482.4225 29959.8355 -575.6620 -482.4225
ENERGY: 300000 3.3950 10.4388 2.5214 0.0000 -10824.5783 1576.4477 0.0000 0.0000 1762.7865 -7468.9890 302.4461 -9231.7754 -7420.0602 301.3474 673.1480 722.8690 30394.5150 136.9818 180.1871
ENERGY: 600000 3.2316 9.0209 2.2981 0.0000 -10614.7413 1364.8863 0.0000 0.0000 1741.7664 -7493.5380 298.8397 -9235.3044 -7419.3618 300.0585 -868.5425 -759.7191 30089.2736 56.0979 113.8473
ENERGY: 900000 2.1999 9.6717 1.5485 0.0000 -10499.2205 1361.4939 0.0000 0.0000 1729.7956 -7394.5109 296.7858 -9124.3064 -7419.0603 298.8230 -577.1053 -487.8994 30169.5979 8.7372 68.1592
ENERGY: 1200000 0.7400 12.4825 3.0876 0.0000 -10716.8797 1547.7494 0.0000 0.0000 1787.7630 -7365.0572 306.7314 -9152.8202 -7411.3053 298.9426 940.5132 1038.8777 29850.5029 69.8193 130.7671
ENERGY: 1500000 1.3764 10.3947 2.7562 0.0000 -10425.5802 1360.8172 0.0000 0.0000 1722.7719 -7327.4637 295.5807 -9050.2356 -7408.9994 298.3887 -206.3810 -177.8146 30101.0236 42.2102 108.0684
TCL: Running FEP window  13: Lambda1 0.39999999999999963 Lambda2 0.34999999999999964 [dLambda -0.04999999999999999]
TCL: Setting parameter firsttimestep to 0
TCL: Setting parameter alchLambda to 0.39999999999999963
Info: NONBONDED TABLE R-SQUARED SPACING: 0.0625
Info: NONBONDED TABLE SIZE: 705 POINTS
TCL: Setting parameter alchLambda2 to 0.34999999999999964
Info: NONBONDED TABLE R-SQUARED SPACING: 0.0625
Info: NONBONDED TABLE SIZE: 705 POINTS
TCL: Running for 1500000 steps
ETITLE: TS BOND ANGLE DIHED IMPRP ELECT VDW BOUNDARY MISC KINETIC TOTAL TEMP POTENTIAL TOTALAVG TEMPAVG PRESSURE GPRESSURE VOLUME PRESSAVG GPRESSAVG
ENERGY: 0 1.3764 10.3947 2.7562 0.0000 -10425.5803 1361.2615 0.0000 0.0000 1721.9329 -7327.8586 295.4368 -9049.7916 -7327.8586 295.4368 -273.9754 -181.4672 30101.0236 -273.9754 -181.4672
ENERGY: 300000 2.6724 8.8790 3.0923 0.0000 -10644.4748 1402.0678 0.0000 0.0000 1794.6447 -7433.1186 307.9121 -9227.7633 -7375.2787 303.2035 -309.5947 -284.4922 29747.2414 -10.9676 27.9311
ENERGY: 600000 2.7044 12.1698 2.8031 0.0000 -10415.5632 1346.0820 0.0000 0.0000 1780.7993 -7271.0046 305.5366 -9051.8039 -7363.0917 302.6575 -498.6195 -395.6681 30508.0733 -26.2625 19.3435
ENERGY: 900000 3.4325 11.7063 1.9503 0.0000 -10644.3158 1442.6519 0.0000 0.0000 1770.8616 -7413.7133 303.8316 -9184.5748 -7382.5891 301.3146 -182.6556 -55.7193 30169.7426 -86.8329 -14.5876
ENERGY: 1200000 1.4155 8.6099 3.2761 0.0000 -10467.0351 1383.4649 0.0000 0.0000 1789.5876 -7280.6811 307.0445 -9070.2687 -7369.5529 301.0554 -53.9250 9.8827 30158.5711 -130.9603 -59.2912
ENERGY: 1500000 3.5945 7.8985 2.6531 0.0000 -10614.6227 1451.7580 0.0000 0.0000 1716.0868 -7432.6318 294.4337 -9148.7186 -7377.1415 301.1736 337.2308 329.8168 29896.8116 -63.7247 5.7465
TCL: Running FEP window  14: Lambda1 0.34999999999999964 Lambda2 0.29999999999999966 [dLambda -0.04999999999999999]
TCL: Setting parameter firsttimestep to 0
TCL: Setting parameter alchLambda to 0.34999999999999964
Info: NONBONDED TABLE R-SQUARED SPACING: 0.0625
Info: NONBONDED TABLE SIZE: 705 POINTS
TCL: Setting parameter alchLambda2 to 0.29999999999999966
Info: NONBONDED TABLE R-SQUARED SPACING: 0.0625
Info: NONBONDED TABLE SIZE: 705 POINTS
TCL: Running for 1500000 steps
ETITLE: TS BOND ANGLE DIHED IMPRP ELECT VDW BOUNDARY MISC KINETIC TOTAL TEMP POTENTIAL TOTALAVG TEMPAVG PRESSURE GPRESSURE VOLUME PRESSAVG GPRESSAVG
ENERGY: 0 3.5945 7.8985 2.6531 0.0000 -10614.6231 1451.6544 0.0000 0.0000 1715.2184 -7433.6042 294.2847 -9148.8226 -7433.6042 294.2847 250.0408 322.7528 29896.8116 250.0408 322.7528
ENERGY: 300000 3.4794 11.7532 1.7214 0.0000 -10512.6551 1423.5786 0.0000 0.0000 1755.7603 -7316.3622 301.2406 -9072.1225 -7395.6043 295.7959 -40.6337 49.0467 30156.3118 -276.0692 -194.1201
ENERGY: 600000 2.5541 7.1689 1.7353 0.0000 -10644.0419 1438.3767 0.0000 0.0000 1761.8147 -7432.3922 302.2794 -9194.2069 -7407.1432 298.1967 -325.4160 -283.0982 30460.9793 -121.8119 -58.6581
ENERGY: 900000 2.5969 11.9962 2.2657 0.0000 -10626.8077 1467.9230 0.0000 0.0000 1758.9375 -7383.0884 301.7858 -9142.0259 -7400.1749 298.9154 266.8561 358.2793 30373.2647 -51.0450 0.1363
ENERGY: 1200000 2.5224 10.5406 2.1614 0.0000 -10490.1771 1379.2939 0.0000 0.0000 1717.7102 -7377.9486 294.7123 -9095.6588 -7408.4848 298.5129 -373.9024 -331.6977 30291.9632 -47.1679 4.5573
ENERGY: 1500000 1.1093 10.0705 4.0716 0.0000 -10576.9620 1458.0185 0.0000 0.0000 1779.1487 -7324.5434 305.2534 -9103.6921 -7397.9399 299.3660 232.9109 359.7493 30184.3412 -68.3625 -12.3460
TCL: Running FEP window  15: Lambda1 0.29999999999999966 Lambda2 0.24999999999999967 [dLambda -0.04999999999999999]
TCL: Setting parameter firsttimestep to 0
TCL: Setting parameter alchLambda to 0.29999999999999966
Info: NONBONDED TABLE R-SQUARED SPACING: 0.0625
Info: NONBONDED TABLE SIZE: 705 POINTS
TCL: Setting parameter alchLambda2 to 0.24999999999999967
Info: NONBONDED TABLE R-SQUARED SPACING: 0.0625
Info: NONBONDED TABLE SIZE: 705 POINTS
TCL: Running for 1500000 steps
ETITLE: TS BOND ANGLE DIHED IMPRP ELECT VDW BOUNDARY MISC KINETIC TOTAL TEMP POTENTIAL TOTALAVG TEMPAVG PRESSURE GPRESSURE VOLUME PRESSAVG GPRESSAVG
ENERGY: 0 1.1093 10.0705 4.0716 0.0000 -10576.9636 1458.3170 0.0000 0.0000 1778.3069 -7325.0883 305.1090 -9103.3952 -7325.0883 305.1090 264.2883 355.6581 30184.3412 264.2883 355.6581
ENERGY: 300000 1.4837 7.1273 2.9659 0.0000 -10603.7345 1430.6675 0.0000 0.0000 1706.3996 -7455.0906 292.7717 -9161.4901 -7414.8093 299.2877 -169.3814 -118.0213 30115.5949 45.8960 126.9196
ENERGY: 600000 1.5974 8.2799 2.1656 0.0000 -10567.6040 1387.5961 0.0000 0.0000 1772.2768 -7395.6882 304.0744 -9167.9650 -7422.5480 300.7386 -401.0019 -331.2307 30110.2358 -209.5688 -136.6269
ENERGY: 900000 1.3740 7.1381 2.6162 0.0000 -10477.9345 1347.5277 0.0000 0.0000 1759.1058 -7360.1726 301.8146 -9119.2784 -7412.4508 300.2381 -362.5118 -291.9781 29921.1134 -138.3404 -66.3198
ENERGY: 1200000 1.6707 9.7761 3.5704 0.0000 -10423.7148 1293.2115 0.0000 0.0000 1732.4010 -7383.0851 297.2328 -9115.4861 -7405.7004 300.5733 -1246.6804 -1141.3052 30394.7746 -249.7875 -182.0944
ENERGY: 1500000 0.6496 11.3705 1.7302 0.0000 -10421.7987 1349.0990 0.0000 0.0000 1733.0475 -7325.9020 297.3437 -9058.9495 -7398.9707 300.4841 -347.3910 -218.5226 29900.3832 -209.4330 -140.5378
TCL: Running FEP window  16: Lambda1 0.24999999999999967 Lambda2 0.19999999999999968 [dLambda -0.04999999999999999]
TCL: Setting parameter firsttimestep to 0
TCL: Setting parameter alchLambda to 0.24999999999999967
Info: NONBONDED TABLE R-SQUARED SPACING: 0.0625
Info: NONBONDED TABLE SIZE: 705 POINTS
TCL: Setting parameter alchLambda2 to 0.19999999999999968
Info: NONBONDED TABLE R-SQUARED SPACING: 0.0625
Info: NONBONDED TABLE SIZE: 705 POINTS
TCL: Running for 1500000 steps
ETITLE: TS BOND ANGLE DIHED IMPRP ELECT VDW BOUNDARY MISC KINETIC TOTAL TEMP POTENTIAL TOTALAVG TEMPAVG PRESSURE GPRESSURE VOLUME PRESSAVG GPRESSAVG
ENERGY: 0 0.6496 11.3705 1.7302 0.0000 -10421.7997 1349.5578 0.0000 0.0000 1732.1825 -7326.3091 297.1953 -9058.4916 -7326.3091 297.1953 -306.8351 -219.2001 29900.3832 -306.8351 -219.2001
ENERGY: 300000 1.6021 8.0618 3.8324 0.0000 -10662.6491 1500.9389 0.0000 0.0000 1746.2341 -7401.9800 299.6062 -9148.2141 -7389.2148 299.8920 715.0853 692.3214 29725.6971 380.7924 401.9233
ENERGY: 600000 1.2275 15.9398 2.6555 0.0000 -10550.7080 1395.6534 0.0000 0.0000 1825.9991 -7309.2327 313.2917 -9135.2319 -7389.8908 301.8340 53.7565 96.8301 29728.8265 249.8307 280.6154
ENERGY: 900000 1.9341 8.2365 1.8084 0.0000 -10599.3300 1436.0355 0.0000 0.0000 1765.7247 -7385.5907 302.9502 -9151.3153 -7375.8226 301.6444 333.8956 336.8492 29570.4973 137.2171 180.0315
ENERGY: 1200000 1.9362 15.1309 1.9834 0.0000 -10589.0449 1448.6014 0.0000 0.0000 1746.6043 -7374.7886 299.6697 -9121.3930 -7377.8386 302.0962 271.3422 340.8348 29822.5707 79.1418 125.7745
ENERGY: 1500000 1.9425 12.9144 2.1789 0.0000 -10555.1623 1403.3400 0.0000 0.0000 1783.9598 -7350.8266 306.0789 -9134.7864 -7382.2459 301.4647 -78.8176 -72.0317 30069.6402 20.5310 64.0378
TCL: Running FEP window  17: Lambda1 0.19999999999999968 Lambda2 0.1499999999999997 [dLambda -0.04999999999999999]
TCL: Setting parameter firsttimestep to 0
TCL: Setting parameter alchLambda to 0.19999999999999968
Info: NONBONDED TABLE R-SQUARED SPACING: 0.0625
Info: NONBONDED TABLE SIZE: 705 POINTS
TCL: Setting parameter alchLambda2 to 0.1499999999999997
Info: NONBONDED TABLE R-SQUARED SPACING: 0.0625
Info: NONBONDED TABLE SIZE: 705 POINTS
TCL: Running for 1500000 steps
ETITLE: TS BOND ANGLE DIHED IMPRP ELECT VDW BOUNDARY MISC KINETIC TOTAL TEMP POTENTIAL TOTALAVG TEMPAVG PRESSURE GPRESSURE VOLUME PRESSAVG GPRESSAVG
ENERGY: 0 1.9425 12.9144 2.1789 0.0000 -10555.1623 1402.4317 0.0000 0.0000 1783.0754 -7352.6193 305.9272 -9135.6948 -7352.6193 305.9272 -155.2330 -80.9449 30069.6402 -155.2330 -80.9449
ENERGY: 300000 3.4941 8.3649 2.6262 0.0000 -10737.2375 1463.4057 0.0000 0.0000 1754.7846 -7504.5620 301.0732 -9259.3466 -7455.1844 298.2159 291.3499 306.1788 29356.9756 135.1431 175.6750
ENERGY: 600000 1.1011 10.0144 2.1057 0.0000 -10496.4694 1410.1088 0.0000 0.0000 1795.8951 -7277.2443 308.1267 -9073.1394 -7424.7143 299.0048 214.4900 275.2641 30016.2469 2.2527 60.0393
ENERGY: 900000 2.0874 7.1499 3.8575 0.0000 -10629.7139 1434.1340 0.0000 0.0000 1718.6984 -7463.7866 294.8818 -9182.4850 -7420.6854 299.0923 2.9403 139.3345 29500.0050 105.0026 163.6965
ENERGY: 1200000 4.3337 11.3004 2.7514 0.0000 -10444.5854 1408.6755 0.0000 0.0000 1742.8095 -7274.7149 299.0186 -9017.5244 -7415.6189 298.6356 26.0838 24.7720 30218.8493 -9.4816 44.6372
ENERGY: 1500000 2.9354 9.0066 2.2576 0.0000 -10695.4020 1482.8561 0.0000 0.0000 1751.7496 -7446.5967 300.5525 -9198.3463 -7406.2964 299.6169 279.8480 294.9677 29752.0991 47.9101 105.8846
TCL: Running FEP window  18: Lambda1 0.1499999999999997 Lambda2 0.09999999999999969 [dLambda -0.05 ]
TCL: Setting parameter firsttimestep to 0
TCL: Setting parameter alchLambda to 0.1499999999999997
Info: NONBONDED TABLE R-SQUARED SPACING: 0.0625
Info: NONBONDED TABLE SIZE: 705 POINTS
TCL: Setting parameter alchLambda2 to 0.09999999999999969
Info: NONBONDED TABLE R-SQUARED SPACING: 0.0625
Info: NONBONDED TABLE SIZE: 705 POINTS
TCL: Running for 1500000 steps
ETITLE: TS BOND ANGLE DIHED IMPRP ELECT VDW BOUNDARY MISC KINETIC TOTAL TEMP POTENTIAL TOTALAVG TEMPAVG PRESSURE GPRESSURE VOLUME PRESSAVG GPRESSAVG
ENERGY: 0 2.9354 9.0067 2.2576 0.0000 -10695.4015 1483.2392 0.0000 0.0000 1750.8956 -7447.0670 300.4060 -9197.9626 -7447.0670 300.4060 199.5811 296.1164 29752.0991 199.5811 296.1164
ENERGY: 300000 1.2060 9.1101 2.8036 0.0000 -10622.9127 1425.3163 0.0000 0.0000 1751.6473 -7432.8295 300.5349 -9184.4767 -7420.3241 303.1835 -232.6892 -167.2904 30236.7005 -84.6364 -1.1510
ENERGY: 600000 1.3263 8.1648 2.6655 0.0000 -10795.1635 1520.0340 0.0000 0.0000 1779.3803 -7483.5927 305.2932 -9262.9730 -7436.4496 302.2126 657.7491 743.8323 29604.5974 4.1380 79.7702
ENERGY: 900000 2.4978 8.9733 2.9894 0.0000 -10575.0537 1348.4922 0.0000 0.0000 1740.9057 -7471.1952 298.6920 -9212.1009 -7430.4015 302.2041 -736.6863 -668.6287 29866.8377 -90.1414 -19.0015
ENERGY: 1200000 2.8252 8.6561 4.3371 0.0000 -10466.6579 1373.2805 0.0000 0.0000 1758.0021 -7319.5569 301.6253 -9077.5590 -7430.3140 300.7390 -456.7935 -356.5895 30169.4420 -50.3753 20.3933
ENERGY: 1500000 1.3091 7.9247 2.6539 0.0000 -10600.8018 1410.0683 0.0000 0.0000 1785.6739 -7393.1720 306.3730 -9178.8459 -7424.1146 300.7304 -110.6158 -22.5595 29648.2248 -37.1353 37.3804
TCL: Running FEP window  19: Lambda1 0.09999999999999969 Lambda2 0.049999999999999684 [dLambda -0.05 ]
TCL: Setting parameter firsttimestep to 0
TCL: Setting parameter alchLambda to 0.09999999999999969
Info: NONBONDED TABLE R-SQUARED SPACING: 0.0625
Info: NONBONDED TABLE SIZE: 705 POINTS
TCL: Setting parameter alchLambda2 to 0.049999999999999684
Info: NONBONDED TABLE R-SQUARED SPACING: 0.0625
Info: NONBONDED TABLE SIZE: 705 POINTS
TCL: Running for 1500000 steps
ETITLE: TS BOND ANGLE DIHED IMPRP ELECT VDW BOUNDARY MISC KINETIC TOTAL TEMP POTENTIAL TOTALAVG TEMPAVG PRESSURE GPRESSURE VOLUME PRESSAVG GPRESSAVG
ENERGY: 0 1.3091 7.9247 2.6539 0.0000 -10600.8015 1410.4596 0.0000 0.0000 1784.8211 -7393.6331 306.2267 -9178.4542 -7393.6331 306.2267 -119.5973 -22.7358 29648.2248 -119.5973 -22.7358
ENERGY: 300000 1.1317 7.3505 2.7718 0.0000 -10614.9551 1456.1312 0.0000 0.0000 1771.9219 -7375.6482 304.0135 -9147.5700 -7391.4997 305.3657 181.0463 247.4382 29903.8218 -133.4631 -51.1436
ENERGY: 600000 3.3327 5.7635 2.2442 0.0000 -10462.8281 1299.0807 0.0000 0.0000 1797.9373 -7354.4696 308.4771 -9152.4070 -7383.6109 303.1573 -1117.4131 -1085.7852 30432.8473 -217.5364 -151.8197
ENERGY: 900000 3.0094 6.2753 2.7741 0.0000 -10523.5787 1349.1676 0.0000 0.0000 1760.4522 -7401.9001 302.0456 -9162.3523 -7390.3374 303.6913 -861.1819 -858.4268 30577.3601 -225.6196 -156.9151
ENERGY: 1200000 1.5386 8.3108 3.5222 0.0000 -10849.4025 1570.6096 0.0000 0.0000 1732.4134 -7533.0079 297.2349 -9265.4213 -7403.6065 302.3267 869.0121 897.6341 29837.3191 -146.1725 -80.5999
ENERGY: 1500000 2.7841 9.3582 2.4923 0.0000 -10555.8505 1356.3652 0.0000 0.0000 1755.6909 -7429.1598 301.2287 -9184.8507 -7414.0159 301.3127 -495.6459 -392.1068 29674.3577 -200.4314 -132.9265
TCL: Running FEP window  20: Lambda1 0.049999999999999684 Lambda2 0.0    [dLambda -0.049999999999999684]
TCL: Setting parameter firsttimestep to 0
TCL: Setting parameter alchLambda to 0.049999999999999684
Info: NONBONDED TABLE R-SQUARED SPACING: 0.0625
Info: NONBONDED TABLE SIZE: 705 POINTS
TCL: Setting parameter alchLambda2 to 0.0
Info: NONBONDED TABLE R-SQUARED SPACING: 0.0625
Info: NONBONDED TABLE SIZE: 705 POINTS
TCL: Running for 1500000 steps
ETITLE: TS BOND ANGLE DIHED IMPRP ELECT VDW BOUNDARY MISC KINETIC TOTAL TEMP POTENTIAL TOTALAVG TEMPAVG PRESSURE GPRESSURE VOLUME PRESSAVG GPRESSAVG
ENERGY: 0 2.7841 9.3583 2.4923 0.0000 -10555.8503 1356.8448 0.0000 0.0000 1754.7893 -7429.5816 301.0740 -9184.3708 -7429.5816 301.0740 -485.1992 -395.7294 29674.3577 -485.1992 -395.7294
ENERGY: 300000 0.6574 12.1363 4.1565 0.0000 -10507.3815 1406.9416 0.0000 0.0000 1790.8334 -7292.6563 307.2582 -9083.4897 -7409.2884 303.6128 119.7211 154.1483 29897.5670 -83.4199 -60.8933
ENERGY: 600000 0.6680 8.7764 3.1185 0.0000 -10611.4362 1379.4900 0.0000 0.0000 1765.1570 -7454.2263 302.8529 -9219.3833 -7410.6874 302.2654 -481.9058 -433.6980 29822.9664 -380.3065 -352.6107
ENERGY: 900000 3.6666 11.0958 4.2461 0.0000 -10665.1577 1542.4527 0.0000 0.0000 1726.1385 -7377.5581 296.1583 -9103.6966 -7414.2145 301.3259 754.3121 871.9453 30187.7805 -283.1025 -239.5650
ENERGY: 1200000 2.8330 11.1945 2.6419 0.0000 -10669.0785 1463.2581 0.0000 0.0000 1715.4085 -7473.7425 294.3174 -9189.1510 -7419.3450 299.6052 -154.4946 -71.9293 30250.8803 -259.4627 -212.2417
ENERGY: 1500000 2.0945 10.8108 3.7240 0.0000 -10559.6652 1397.3104 0.0000 0.0000 1727.1349 -7418.5905 296.3293 -9145.7253 -7417.8019 300.3360 -316.9526 -207.4729 29968.6395 -280.6223 -229.0587
TCL: Exiting due to exit command.
