Info: SIMULATION PARAMETERS:
Info: TIMESTEP               2
Info: NUMBER OF STEPS        0
Info: STEPS PER CYCLE        10
Info: PERIODIC CELL BASIS 1  32.4548 0 0
Info: PERIODIC CELL BASIS 2  0 32.6056 0
Info: PERIODIC CELL BASIS 3  0 0 28.2534
Info: PERIODIC CELL CENTER   0 0 0
Info: WRAPPING WATERS AROUND PERIODIC BOUNDARIES ON OUTPUT.
Info: WRAPPING ALL CLUSTERS AROUND PERIODIC BOUNDARIES ON OUTPUT.
Info: FIRST LDB TIMESTEP     50
Info: LAST LDB TIMESTEP     -1
Info: HOM BACKGROUND SCALING 1
Info: PME BACKGROUND SCALING 1
Info: MIN ATOMS PER PATCH    40
Info: EMPTY PATCH LOAD       40 ATOMS
Info: VELOCITY FILE          mobley_282648_equil.vel
Info: CENTER OF MASS MOVING INITIALLY? NO
Info: DIELECTRIC             1
Info: EXCLUDE                SCALED ONE-FOUR
Info: 1-4 ELECTROSTATICS SCALED BY 0.833333
Info: MODIFIED 1-4 VDW PARAMETERS WILL BE USED
Info: DCD FILENAME           mobley_282648_prod.dcd
Info: DCD FREQUENCY          100000
Info: DCD FIRST STEP         100000
Info: DCD FILE WILL CONTAIN UNIT CELL DATA
Info: XST FILENAME           mobley_282648_prod.xst
Info: XST FREQUENCY          100000
Info: NO VELOCITY DCD OUTPUT
Info: NO FORCE DCD OUTPUT
Info: OUTPUT FILENAME        mobley_282648_prod
Info: BINARY OUTPUT FILES WILL BE USED
Info: RESTART FILENAME       mobley_282648_prod.restart
Info: RESTART FREQUENCY      100000
Info: BINARY RESTART FILES WILL BE USED
Info: CUTOFF                 9
Info: PAIRLIST DISTANCE      11
Info: PAIRLIST SHRINK RATE   0.01
Info: PAIRLIST GROW RATE     0.01
Info: PAIRLIST TRIGGER       0.3
Info: PAIRLISTS PER CYCLE    2
Info: PAIRLISTS ENABLED
Info: MARGIN                 2
Info: HYDROGEN GROUP CUTOFF  2.5
Info: PATCH DIMENSION        15.5
Info: ENERGY OUTPUT STEPS    100000
Info: ENERGY EVALUATION STEPS    100000
Info: OUTPUT ENERGY PRECISION 4
Info: CROSSTERM ENERGY INCLUDED IN DIHEDRAL
Info: TIMING OUTPUT STEPS    1000000
Info: PRESSURE OUTPUT STEPS  100000
Info: ALCHEMICAL FEP ON
Info: FEP CURRENT LAMBDA VALUE     0
Info: FEP COMPARISON LAMBDA VALUE  0.05
Info: FEP INTRA-ALCHEMICAL NON-BONDED INTERACTIONS WILL BE RETAINED
Info: FEP INTRA-ALCHEMICAL BONDED INTERACTIONS WILL BE RETAINED
Info: FEP VDW SHIFTING COEFFICIENT 5
Info: FEP ELEC. ACTIVE FOR ANNIHILATED PARTICLES BETWEEN LAMBDA = 0 AND LAMBDA = 0.5
Info: FEP ELEC. ACTIVE FOR EXNIHILATED PARTICLES BETWEEN LAMBDA = 0.5 AND LAMBDA = 1
Info: FEP VDW ACTIVE FOR ANNIHILATED PARTICLES BETWEEN LAMBDA = 0 AND LAMBDA = 1
Info: FEP VDW ACTIVE FOR EXNIHILATED PARTICLES BETWEEN LAMBDA = 0 AND LAMBDA = 1
Info: FEP BOND ACTIVE FOR ANNIHILATED PARTICLES BETWEEN LAMBDA = 1 AND LAMBDA = 1
Info: FEP BOND ACTIVE FOR EXNIHILATED PARTICLES BETWEEN LAMBDA = 0 AND LAMBDA = 0
Info: LANGEVIN DYNAMICS ACTIVE
Info: LANGEVIN TEMPERATURE   300
Info: LANGEVIN USING BBK INTEGRATOR
Info: LANGEVIN DAMPING COEFFICIENT IS 1 INVERSE PS
Info: LANGEVIN DYNAMICS APPLIED TO HYDROGENS
Info: LANGEVIN PISTON PRESSURE CONTROL ACTIVE
Info:        TARGET PRESSURE IS 1.01325 BAR
Info:     OSCILLATION PERIOD IS 50 FS
Info:             DECAY TIME IS 25 FS
Info:     PISTON TEMPERATURE IS 300 K
Info:       PRESSURE CONTROL IS GROUP-BASED
Info:    INITIAL STRAIN RATE IS -0.00021783 -0.00021783 -0.00021783
Info:       CELL FLUCTUATION IS ISOTROPIC
Info: PARTICLE MESH EWALD (PME) ACTIVE
Info: PME TOLERANCE               1e-06
Info: PME EWALD COEFFICIENT       0.348832
Info: PME INTERPOLATION ORDER     4
Info: PME GRID DIMENSIONS         36 36 32
Info: PME MAXIMUM GRID SPACING    1
Info: PME CALCULATION WILL BE PERFORMED ON GPU
Info: FULL ELECTROSTATIC EVALUATION FREQUENCY      2
Info: USING VERLET I (r-RESPA) MTS SCHEME.
Info: C1 SPLITTING OF LONG RANGE ELECTROSTATICS
Info: PLACING ATOMS IN PATCHES BY HYDROGEN GROUPS
Info: RIGID BONDS TO HYDROGEN : ALL
Info:         ERROR TOLERANCE : 1e-08
Info:          MAX ITERATIONS : 100
Info: RIGID WATER USING SETTLE ALGORITHM
Info: RANDOM NUMBER SEED     1743598648
Info: USE HYDROGEN BONDS?    NO
Info: Using AMBER format force field!
Info: AMBER PARM FILE        mobley_282648.prmtop
Info: COORDINATE PDB         mobley_282648.pdb
Info: Exclusions will be read from PARM file!
Info: SCNB (VDW SCALING)     2
Info: USING ARITHMETIC MEAN TO COMBINE L-J SIGMA PARAMETERS
Info: BINARY COORDINATES     mobley_282648_equil.coor
Info: SUMMARY OF PARAMETERS:
Info: 4 BONDS
Info: 2 ANGLES
Info:   2 HARMONIC
Info:   0 COSINE-BASED
Info: 2 DIHEDRAL
Info: 0 IMPROPER
Info: 0 CROSSTERM
Info: 0 VDW
Info: 10 VDW_PAIRS
Info: 0 NBTHOLE_PAIRS
Info: To read alchdata from file: mobley_282648.pdb
Info: To read alchflag data from column: 5
Info: STRUCTURE SUMMARY:
Info: 2919 ATOMS
Info: 2920 BONDS
Info: 30 ANGLES
Info: 54 DIHEDRALS
Info: 0 IMPROPERS
Info: 0 CROSSTERMS
Info: 2988 EXCLUSIONS
Info: 2909 RIGID BONDS
Info: ALCH: 0 ATOMS TO DISAPPEAR IN FINAL STATE
Info: ALCH: 18 ATOMS TO APPEAR IN FINAL STATE
Info: 5848 DEGREES OF FREEDOM
Info: 977 HYDROGEN GROUPS
Info: 3 ATOMS IN LARGEST HYDROGEN GROUP
Info: 977 MIGRATION GROUPS
Info: 3 ATOMS IN LARGEST MIGRATION GROUP
Info: TOTAL MASS = 17549.6 amu
Info: TOTAL CHARGE = -0.000300005 e
Info: MASS DENSITY = 0.974736 g/cm^3
Info: ATOM DENSITY = 0.0976323 atoms/A^3
Info: ADDED 0 IMPLICIT EXCLUSIONS
Info: NONBONDED TABLE R-SQUARED SPACING: 0.0625
Info: NONBONDED TABLE SIZE: 705 POINTS
Info: REDUCING NUMBER OF PATCHES TO IMPROVE LOAD BALANCE
Info: REMOVING COM VELOCITY 0.0764851 -0.214135 -0.046862
Info: Use 3D box decompostion in PME FFT.
Info: Updated CUDA force table with 4096 elements.
Info: Updated CUDA LJ table with 4 x 4 elements.
Info: Found 16 unique exclusion lists needing 40 bytes
TCL: Running for 1500000 steps
ETITLE: TS BOND ANGLE DIHED IMPRP ELECT VDW BOUNDARY MISC KINETIC TOTAL TEMP POTENTIAL TOTALAVG TEMPAVG PRESSURE GPRESSURE VOLUME PRESSAVG GPRESSAVG
ENERGY: 0 3.0017 2.9202 6.7903 0.0000 -10742.8656 1558.4573 0.0000 0.0000 1732.2432 -7439.4528 298.1205 -9171.6961 -7439.4528 298.1205 844.5237 919.5044 29897.8828 844.5237 919.5044
ENERGY: 300000 4.4604 7.8647 4.8410 0.0000 -10545.8747 1406.2756 0.0000 0.0000 1762.9672 -7359.4658 303.4081 -9122.4329 -7361.3782 301.8512 -98.2708 -28.6454 29634.3501 59.6042 131.0513
ENERGY: 600000 4.3206 3.6754 4.2935 0.0000 -10658.7476 1453.5379 0.0000 0.0000 1749.9856 -7442.9345 301.1740 -9192.9202 -7384.3737 300.7113 160.4096 225.1138 29368.9352 132.2087 197.7124
ENERGY: 900000 7.4798 4.3043 3.4770 0.0000 -10544.7135 1422.0197 0.0000 0.0000 1750.9376 -7356.4953 301.3379 -9107.4329 -7370.3826 301.4196 -319.6037 -291.3525 30134.3974 117.7699 175.0066
ENERGY: 1200000 3.7828 5.0856 4.9218 0.0000 -10604.9432 1479.4607 0.0000 0.0000 1758.7197 -7352.9727 302.6772 -9111.6923 -7375.8568 300.5773 482.8355 510.8772 29858.0159 -38.8570 19.4403
ENERGY: 1500000 0.3802 4.3680 2.7123 0.0000 -10380.4958 1295.0799 0.0000 0.0000 1730.9219 -7347.0335 297.8931 -9077.9554 -7377.6594 300.1229 -1069.0478 -934.8875 30236.6375 -90.4342 -29.2629
TCL: Running FEP window   2: Lambda1 0.05   Lambda2 0.1    [dLambda 0.05  ]
TCL: Setting parameter firsttimestep to 0
TCL: Setting parameter alchLambda to 0.05
Info: NONBONDED TABLE R-SQUARED SPACING: 0.0625
Info: NONBONDED TABLE SIZE: 705 POINTS
TCL: Setting parameter alchLambda2 to 0.1
Info: NONBONDED TABLE R-SQUARED SPACING: 0.0625
Info: NONBONDED TABLE SIZE: 705 POINTS
TCL: Running for 1500000 steps
ETITLE: TS BOND ANGLE DIHED IMPRP ELECT VDW BOUNDARY MISC KINETIC TOTAL TEMP POTENTIAL TOTALAVG TEMPAVG PRESSURE GPRESSURE VOLUME PRESSAVG GPRESSAVG
ENERGY: 0 0.3802 4.3680 2.7123 0.0000 -10380.4943 1297.6321 0.0000 0.0000 1730.0897 -7345.3119 297.7499 -9075.4017 -7345.3119 297.7499 -1010.8514 -931.0598 30236.6375 -1010.8514 -931.0598
ENERGY: 300000 4.3373 2.6772 3.6652 0.0000 -10421.2044 1363.4947 0.0000 0.0000 1705.0564 -7341.9736 293.4417 -9047.0300 -7359.6304 300.9791 -511.0380 -447.3068 30197.5198 -624.5656 -558.9914
ENERGY: 600000 2.4707 5.1001 4.8715 0.0000 -10575.9449 1466.9987 0.0000 0.0000 1783.2161 -7313.2878 306.8930 -9096.5039 -7339.0262 303.1410 540.0625 595.4208 29572.2655 -79.9066 -14.7351
ENERGY: 900000 4.0484 6.4575 10.6388 0.0000 -10544.3586 1449.9613 0.0000 0.0000 1764.3849 -7308.8678 303.6521 -9073.2527 -7345.4848 301.4876 382.8486 492.1955 29723.7762 19.8554 91.1441
ENERGY: 1200000 3.2597 2.3780 4.8360 0.0000 -10560.2903 1438.3853 0.0000 0.0000 1734.2420 -7377.1894 298.4645 -9111.4313 -7356.1262 300.3930 106.2919 194.9520 29901.7598 22.9411 83.5037
ENERGY: 1500000 4.6751 3.4518 5.1066 0.0000 -10596.0554 1438.3868 0.0000 0.0000 1778.3090 -7366.1261 306.0485 -9144.4352 -7361.7707 300.2028 -10.0969 37.9173 29847.1538 13.2614 74.2572
TCL: Running FEP window   3: Lambda1 0.1    Lambda2 0.15000000000000002 [dLambda 0.05000000000000002]
TCL: Setting parameter firsttimestep to 0
TCL: Setting parameter alchLambda to 0.1
Info: NONBONDED TABLE R-SQUARED SPACING: 0.0625
Info: NONBONDED TABLE SIZE: 705 POINTS
TCL: Setting parameter alchLambda2 to 0.15000000000000002
Info: NONBONDED TABLE R-SQUARED SPACING: 0.0625
Info: NONBONDED TABLE SIZE: 705 POINTS
TCL: Running for 1500000 steps
ETITLE: TS BOND ANGLE DIHED IMPRP ELECT VDW BOUNDARY MISC KINETIC TOTAL TEMP POTENTIAL TOTALAVG TEMPAVG PRESSURE GPRESSURE VOLUME PRESSAVG GPRESSAVG
ENERGY: 0 4.6751 3.4518 5.1066 0.0000 -10596.0552 1439.6688 0.0000 0.0000 1777.4349 -7365.7180 305.8981 -9143.1529 -7365.7180 305.8981 -34.2971 46.4940 29847.1538 -34.2971 46.4940
ENERGY: 300000 0.9633 5.8251 3.9540 0.0000 -10532.0993 1448.8205 0.0000 0.0000 1795.9621 -7276.5744 309.0866 -9072.5364 -7328.2121 307.4052 554.0498 639.2618 29594.2813 58.3169 115.7203
ENERGY: 600000 3.6657 4.4414 2.2979 0.0000 -10522.0646 1395.6136 0.0000 0.0000 1758.3866 -7357.6594 302.6198 -9116.0459 -7345.9992 303.0275 -667.6891 -548.7317 30169.8696 -96.3586 -22.1837
ENERGY: 900000 2.3372 2.5017 5.5760 0.0000 -10528.5961 1423.4494 0.0000 0.0000 1756.3630 -7338.3688 302.2716 -9094.7318 -7353.1491 302.6432 -152.4779 -64.2949 30153.0734 -42.1100 33.0258
ENERGY: 1200000 1.8571 2.6328 3.8218 0.0000 -10651.7917 1515.3322 0.0000 0.0000 1754.5420 -7373.6058 301.9582 -9128.1478 -7353.1351 303.0700 1088.7864 1117.5722 29473.9663 74.5690 141.1817
ENERGY: 1500000 5.1618 4.5474 3.6668 0.0000 -10510.3308 1423.3632 0.0000 0.0000 1750.7888 -7322.8028 301.3123 -9073.5916 -7353.5884 302.8295 54.0382 126.6000 29808.8361 35.8456 104.8885
TCL: Running FEP window   4: Lambda1 0.15000000000000002 Lambda2 0.2    [dLambda 0.04999999999999999]
TCL: Setting parameter firsttimestep to 0
TCL: Setting parameter alchLambda to 0.15000000000000002
Info: NONBONDED TABLE R-SQUARED SPACING: 0.0625
Info: NONBONDED TABLE SIZE: 705 POINTS
TCL: Setting parameter alchLambda2 to 0.2
Info: NONBONDED TABLE R-SQUARED SPACING: 0.0625
Info: NONBONDED TABLE SIZE: 705 POINTS
TCL: Running for 1500000 steps
ETITLE: TS BOND ANGLE DIHED IMPRP ELECT VDW BOUNDARY MISC KINETIC TOTAL TEMP POTENTIAL TOTALAVG TEMPAVG PRESSURE GPRESSURE VOLUME PRESSAVG GPRESSAVG
ENERGY: 0 5.1618 4.5474 3.6668 0.0000 -10510.3316 1423.0607 0.0000 0.0000 1749.9084 -7323.9864 301.1607 -9073.8949 -7323.9864 301.1607 56.2965 131.1765 29808.8361 56.2965 131.1765
ENERGY: 300000 3.0582 4.0582 4.0993 0.0000 -10502.0816 1426.2626 0.0000 0.0000 1747.6798 -7316.9236 300.7772 -9064.6034 -7346.3671 301.4071 220.4200 215.2994 30255.0375 378.7782 416.0823
ENERGY: 600000 6.2564 5.4997 3.7215 0.0000 -10611.4340 1505.7558 0.0000 0.0000 1643.6345 -7446.5661 282.8709 -9090.2006 -7372.0414 298.0610 711.1977 761.0585 29933.7642 365.7455 419.3182
ENERGY: 900000 4.5044 3.4514 2.2040 0.0000 -10582.0613 1369.9992 0.0000 0.0000 1737.9153 -7463.9870 299.0967 -9201.9023 -7375.9294 298.0761 -477.1457 -398.5982 29679.0308 232.7975 291.4079
ENERGY: 1200000 2.7250 4.2228 2.7010 0.0000 -10596.4973 1443.5645 0.0000 0.0000 1768.2788 -7375.0052 304.3223 -9143.2840 -7379.2899 299.0356 73.1065 88.4799 29975.7949 104.3746 159.7593
ENERGY: 1500000 6.4478 7.0048 4.9202 0.0000 -10598.2584 1497.0152 0.0000 0.0000 1722.2493 -7360.6211 296.4006 -9082.8704 -7370.3630 299.4997 260.4870 371.8197 29854.4862 103.1598 164.3299
TCL: Running FEP window   5: Lambda1 0.2    Lambda2 0.25   [dLambda 0.04999999999999999]
TCL: Setting parameter firsttimestep to 0
TCL: Setting parameter alchLambda to 0.2
Info: NONBONDED TABLE R-SQUARED SPACING: 0.0625
Info: NONBONDED TABLE SIZE: 705 POINTS
TCL: Setting parameter alchLambda2 to 0.25
Info: NONBONDED TABLE R-SQUARED SPACING: 0.0625
Info: NONBONDED TABLE SIZE: 705 POINTS
TCL: Running for 1500000 steps
ETITLE: TS BOND ANGLE DIHED IMPRP ELECT VDW BOUNDARY MISC KINETIC TOTAL TEMP POTENTIAL TOTALAVG TEMPAVG PRESSURE GPRESSURE VOLUME PRESSAVG GPRESSAVG
ENERGY: 0 6.4478 7.0048 4.9202 0.0000 -10598.2571 1497.1925 0.0000 0.0000 1721.3903 -7361.3014 296.2527 -9082.6918 -7361.3014 296.2527 299.2502 376.9132 29854.4862 299.2502 376.9132
ENERGY: 300000 4.7599 3.7103 6.9349 0.0000 -10596.5936 1481.6544 0.0000 0.0000 1746.0054 -7353.5288 300.4890 -9099.5342 -7401.8940 294.9437 640.3166 597.1374 29876.5397 436.4671 458.0794
ENERGY: 600000 3.6928 3.9651 4.0276 0.0000 -10546.4200 1396.3450 0.0000 0.0000 1767.0990 -7371.2905 304.1192 -9138.3895 -7371.5977 298.4273 17.0471 46.7757 29517.9983 83.1272 112.4942
ENERGY: 900000 3.9035 3.5398 7.4064 0.0000 -10607.5407 1429.7893 0.0000 0.0000 1741.5842 -7421.3175 299.7281 -9162.9017 -7370.2021 298.8474 -35.7562 28.2353 29925.3753 115.6372 161.0465
ENERGY: 1200000 3.2752 3.0344 3.8182 0.0000 -10414.1335 1347.6758 0.0000 0.0000 1703.1950 -7353.1349 293.1213 -9056.3299 -7377.3109 297.7597 -717.5599 -666.1112 30544.5111 50.3065 103.7915
ENERGY: 1500000 3.6273 5.3888 2.4301 0.0000 -10598.4159 1421.6750 0.0000 0.0000 1771.6799 -7393.6149 304.9076 -9165.2947 -7377.0647 298.8339 -330.6057 -340.7672 30170.9323 19.3002 73.9092
TCL: Running FEP window   6: Lambda1 0.25   Lambda2 0.3    [dLambda 0.04999999999999999]
TCL: Setting parameter firsttimestep to 0
TCL: Setting parameter alchLambda to 0.25
Info: NONBONDED TABLE R-SQUARED SPACING: 0.0625
Info: NONBONDED TABLE SIZE: 705 POINTS
TCL: Setting parameter alchLambda2 to 0.3
Info: NONBONDED TABLE R-SQUARED SPACING: 0.0625
Info: NONBONDED TABLE SIZE: 705 POINTS
TCL: Running for 1500000 steps
ETITLE: TS BOND ANGLE DIHED IMPRP ELECT VDW BOUNDARY MISC KINETIC TOTAL TEMP POTENTIAL TOTALAVG TEMPAVG PRESSURE GPRESSURE VOLUME PRESSAVG GPRESSAVG
ENERGY: 0 3.6273 5.3888 2.4301 0.0000 -10598.4163 1423.4703 0.0000 0.0000 1770.8083 -7392.6916 304.7576 -9163.4998 -7392.6916 304.7576 -403.0443 -325.1193 30170.9323 -403.0443 -325.1193
ENERGY: 300000 1.9412 1.2664 3.7989 0.0000 -10362.0988 1275.1135 0.0000 0.0000 1717.8630 -7362.1158 295.6457 -9079.9788 -7355.6271 299.7516 -1264.7362 -1201.0090 30532.7285 -351.8213 -283.9564
ENERGY: 600000 1.6333 4.4067 5.3982 0.0000 -10547.2432 1395.2245 0.0000 0.0000 1719.5681 -7421.0125 295.9391 -9140.5805 -7370.2782 299.8133 -111.1661 -37.2007 29582.8274 -141.8937 -70.7342
ENERGY: 900000 4.3046 5.3084 4.2841 0.0000 -10472.2633 1409.2892 0.0000 0.0000 1751.5495 -7297.5276 301.4432 -9049.0771 -7370.5517 300.6049 234.1636 256.3065 29960.3051 -93.6515 -27.7524
ENERGY: 1200000 6.4971 2.9410 5.8242 0.0000 -10635.3408 1433.6090 0.0000 0.0000 1746.0358 -7440.4337 300.4943 -9186.4696 -7383.5599 299.8609 41.3405 51.7995 29669.1661 -16.8058 49.3377
ENERGY: 1500000 1.8712 3.2917 4.7008 0.0000 -10645.2033 1463.8958 0.0000 0.0000 1734.0178 -7437.4261 298.4259 -9171.4439 -7384.3736 300.9057 115.0718 100.1183 30216.6112 -50.9122 12.2272
TCL: Running FEP window   7: Lambda1 0.3    Lambda2 0.35   [dLambda 0.04999999999999999]
TCL: Setting parameter firsttimestep to 0
TCL: Setting parameter alchLambda to 0.3
Info: NONBONDED TABLE R-SQUARED SPACING: 0.0625
Info: NONBONDED TABLE SIZE: 705 POINTS
TCL: Setting parameter alchLambda2 to 0.35
Info: NONBONDED TABLE R-SQUARED SPACING: 0.0625
Info: NONBONDED TABLE SIZE: 705 POINTS
TCL: Running for 1500000 steps
ETITLE: TS BOND ANGLE DIHED IMPRP ELECT VDW BOUNDARY MISC KINETIC TOTAL TEMP POTENTIAL TOTALAVG TEMPAVG PRESSURE GPRESSURE VOLUME PRESSAVG GPRESSAVG
ENERGY: 0 1.8712 3.2917 4.7008 0.0000 -10645.2024 1463.6265 0.0000 0.0000 1733.1372 -7438.5751 298.2744 -9171.7122 -7438.5751 298.2744 30.8680 101.1230 30216.6112 30.8680 101.1230
ENERGY: 300000 2.4630 1.6273 4.5297 0.0000 -10611.1901 1396.9974 0.0000 0.0000 1755.0316 -7450.5411 302.0424 -9205.5727 -7418.6140 298.5336 -257.9271 -212.3131 29402.8770 -598.9044 -541.8510
ENERGY: 600000 4.3275 4.7189 2.2497 0.0000 -10606.0735 1441.5986 0.0000 0.0000 1723.1624 -7430.0164 296.5577 -9153.1788 -7404.3145 298.0386 -275.4760 -233.7319 30079.9166 -581.0266 -525.5697
ENERGY: 900000 6.7435 3.7317 4.7822 0.0000 -10445.7444 1360.8267 0.0000 0.0000 1699.1281 -7370.5323 292.4214 -9069.6604 -7396.0745 297.3564 -768.9333 -785.3977 30118.4079 -534.5955 -489.3232
ENERGY: 1200000 4.7577 4.6304 7.0237 0.0000 -10530.1999 1356.2159 0.0000 0.0000 1742.9584 -7414.6138 299.9646 -9157.5722 -7392.7952 298.0339 -957.7395 -913.3022 30320.7818 -542.0023 -492.1403
ENERGY: 1500000 5.0561 3.4467 2.5725 0.0000 -10433.8175 1317.8987 0.0000 0.0000 1733.6049 -7371.2386 298.3549 -9104.8435 -7392.1222 297.9153 -688.5159 -671.7856 29864.3926 -362.5618 -316.5151
TCL: Running FEP window   8: Lambda1 0.35   Lambda2 0.39999999999999997 [dLambda 0.04999999999999999]
TCL: Setting parameter firsttimestep to 0
TCL: Setting parameter alchLambda to 0.35
Info: NONBONDED TABLE R-SQUARED SPACING: 0.0625
Info: NONBONDED TABLE SIZE: 705 POINTS
TCL: Setting parameter alchLambda2 to 0.39999999999999997
Info: NONBONDED TABLE R-SQUARED SPACING: 0.0625
Info: NONBONDED TABLE SIZE: 705 POINTS
TCL: Running for 1500000 steps
ETITLE: TS BOND ANGLE DIHED IMPRP ELECT VDW BOUNDARY MISC KINETIC TOTAL TEMP POTENTIAL TOTALAVG TEMPAVG PRESSURE GPRESSURE VOLUME PRESSAVG GPRESSAVG
ENERGY: 0 5.0561 3.4467 2.5725 0.0000 -10433.8170 1317.5071 0.0000 0.0000 1732.7112 -7372.5235 298.2011 -9105.2347 -7372.5235 298.2011 -756.7081 -669.3643 29864.3926 -756.7081 -669.3643
ENERGY: 300000 3.3418 2.7034 4.1286 0.0000 -10558.3123 1463.6238 0.0000 0.0000 1765.1683 -7319.3463 303.7870 -9084.5147 -7377.5361 296.9071 368.6236 431.7593 29981.1342 108.7919 172.1215
ENERGY: 600000 2.6905 3.0044 6.3994 0.0000 -10633.4721 1489.2528 0.0000 0.0000 1741.3025 -7390.8226 299.6796 -9132.1251 -7385.8137 296.7829 260.4632 349.1258 30055.0720 190.8753 258.2298
ENERGY: 900000 3.3485 3.5720 5.3580 0.0000 -10509.1387 1379.9618 0.0000 0.0000 1724.9145 -7391.9841 296.8592 -9116.8985 -7381.3673 296.8250 -382.4337 -314.4711 29862.4010 76.6709 143.3025
ENERGY: 1200000 4.8376 4.9865 4.2765 0.0000 -10486.0595 1353.8465 0.0000 0.0000 1783.8878 -7334.2246 307.0086 -9118.1124 -7377.7815 297.7488 -918.0963 -811.1869 30443.9523 19.7165 91.2003
ENERGY: 1500000 1.4624 1.7457 4.9913 0.0000 -10561.6159 1405.1566 0.0000 0.0000 1747.4740 -7400.7857 300.7418 -9148.2597 -7375.1987 298.3894 -154.5157 -112.4239 29973.3955 14.2632 75.8851
TCL: Running FEP window   9: Lambda1 0.39999999999999997 Lambda2 0.44999999999999996 [dLambda 0.04999999999999999]
TCL: Setting parameter firsttimestep to 0
TCL: Setting parameter alchLambda to 0.39999999999999997
Info: NONBONDED TABLE R-SQUARED SPACING: 0.0625
Info: NONBONDED TABLE SIZE: 705 POINTS
TCL: Setting parameter alchLambda2 to 0.44999999999999996
Info: NONBONDED TABLE R-SQUARED SPACING: 0.0625
Info: NONBONDED TABLE SIZE: 705 POINTS
TCL: Running for 1500000 steps
ETITLE: TS BOND ANGLE DIHED IMPRP ELECT VDW BOUNDARY MISC KINETIC TOTAL TEMP POTENTIAL TOTALAVG TEMPAVG PRESSURE GPRESSURE VOLUME PRESSAVG GPRESSAVG
ENERGY: 0 1.4624 1.7457 4.9913 0.0000 -10561.6165 1405.0399 0.0000 0.0000 1746.5822 -7401.7950 300.5883 -9148.3771 -7401.7950 300.5883 -193.5195 -106.9500 29973.3955 -193.5195 -106.9500
ENERGY: 300000 2.8947 4.8731 2.4353 0.0000 -10465.0060 1335.4797 0.0000 0.0000 1732.8427 -7386.4806 298.2237 -9119.3233 -7387.4120 297.4380 -718.6708 -687.4457 30400.5529 -394.8625 -342.2891
ENERGY: 600000 2.6678 4.6751 3.7693 0.0000 -10567.1016 1412.6421 0.0000 0.0000 1785.6138 -7357.7334 307.3057 -9143.3472 -7363.7954 301.0628 -27.6129 74.4051 29671.8432 -86.6412 -17.8271
ENERGY: 900000 4.1814 3.5493 4.5453 0.0000 -10458.1899 1318.8110 0.0000 0.0000 1770.7691 -7356.3338 304.7509 -9127.1029 -7368.2318 301.1708 -953.1146 -890.1538 30153.5285 -211.1385 -138.0597
ENERGY: 1200000 3.7002 3.8571 3.4023 0.0000 -10575.4790 1475.3022 0.0000 0.0000 1728.1233 -7361.0939 297.4115 -9089.2172 -7376.3198 300.5457 459.9651 483.5154 29770.0954 -202.7263 -131.4752
ENERGY: 1500000 4.4985 4.2480 5.6543 0.0000 -10505.1686 1437.0081 0.0000 0.0000 1808.7730 -7244.9867 311.2914 -9053.7598 -7367.8026 301.0497 422.8828 485.1231 30068.6958 -146.0609 -77.5256
TCL: Running FEP window  10: Lambda1 0.44999999999999996 Lambda2 0.49999999999999994 [dLambda 0.04999999999999999]
TCL: Setting parameter firsttimestep to 0
TCL: Setting parameter alchLambda to 0.44999999999999996
Info: NONBONDED TABLE R-SQUARED SPACING: 0.0625
Info: NONBONDED TABLE SIZE: 705 POINTS
TCL: Setting parameter alchLambda2 to 0.49999999999999994
Info: NONBONDED TABLE R-SQUARED SPACING: 0.0625
Info: NONBONDED TABLE SIZE: 705 POINTS
TCL: Running for 1500000 steps
ETITLE: TS BOND ANGLE DIHED IMPRP ELECT VDW BOUNDARY MISC KINETIC TOTAL TEMP POTENTIAL TOTALAVG TEMPAVG PRESSURE GPRESSURE VOLUME PRESSAVG GPRESSAVG
ENERGY: 0 4.4985 4.2480 5.6543 0.0000 -10505.1705 1436.6118 0.0000 0.0000 1807.8740 -7246.2840 311.1367 -9054.1580 -7246.2840 311.1367 408.0684 489.3719 30068.6958 408.0684 489.3719
ENERGY: 300000 1.9962 2.9389 6.3727 0.0000 -10525.2928 1383.4433 0.0000 0.0000 1771.6617 -7358.8800 304.9045 -9130.5417 -7352.8782 303.8777 -263.4686 -206.2669 30010.7314 -293.7757 -221.4749
ENERGY: 600000 2.3173 4.8807 6.2022 0.0000 -10536.0269 1437.5424 0.0000 0.0000 1790.7568 -7294.3275 308.1908 -9085.0844 -7368.8977 303.1696 -146.7317 -33.7849 30585.9369 89.7991 161.4054
ENERGY: 900000 1.5839 3.9563 4.8760 0.0000 -10633.5884 1503.2349 0.0000 0.0000 1774.3740 -7345.5633 305.3713 -9119.9373 -7380.3217 301.8703 773.4048 914.8532 29844.8462 139.5025 213.4201
ENERGY: 1200000 1.4684 5.5187 4.4375 0.0000 -10676.7446 1443.5683 0.0000 0.0000 1708.9457 -7512.8059 294.1110 -9221.7517 -7393.1861 301.2998 -116.0155 -60.1802 29830.5142 180.8013 243.0229
ENERGY: 1500000 4.3224 5.3649 5.3053 0.0000 -10478.9829 1391.6139 0.0000 0.0000 1745.5583 -7326.8180 300.4121 -9072.3763 -7389.9364 301.8139 -385.2718 -280.4473 29976.5273 114.6163 177.7003
TCL: Running FEP window  11: Lambda1 0.49999999999999994 Lambda2 0.5499999999999999 [dLambda 0.04999999999999999]
TCL: Setting parameter firsttimestep to 0
TCL: Setting parameter alchLambda to 0.49999999999999994
Info: NONBONDED TABLE R-SQUARED SPACING: 0.0625
Info: NONBONDED TABLE SIZE: 705 POINTS
TCL: Setting parameter alchLambda2 to 0.5499999999999999
Info: NONBONDED TABLE R-SQUARED SPACING: 0.0625
Info: NONBONDED TABLE SIZE: 705 POINTS
TCL: Running for 1500000 steps
ETITLE: TS BOND ANGLE DIHED IMPRP ELECT VDW BOUNDARY MISC KINETIC TOTAL TEMP POTENTIAL TOTALAVG TEMPAVG PRESSURE GPRESSURE VOLUME PRESSAVG GPRESSAVG
ENERGY: 0 4.3224 5.3649 5.3053 0.0000 -10478.9835 1392.5152 0.0000 0.0000 1744.6560 -7326.8197 300.2568 -9071.4757 -7326.8197 300.2568 -344.6705 -262.0557 29976.5273 -344.6705 -262.0557
ENERGY: 300000 7.7642 6.5143 3.3086 0.0000 -10678.7866 1520.5247 0.0000 0.0000 1732.4195 -7408.2554 298.1509 -9140.6749 -7365.4572 298.7572 813.8518 857.4101 29836.3442 197.7885 246.5036
ENERGY: 600000 3.2280 3.8382 6.2911 0.0000 -10406.5995 1328.9037 0.0000 0.0000 1760.3295 -7304.0090 302.9542 -9064.3385 -7368.5556 298.8478 -881.1149 -792.1453 30501.8377 -145.1677 -85.6965
ENERGY: 900000 2.4418 3.6883 4.5249 0.0000 -10580.0048 1491.4201 0.0000 0.0000 1777.9144 -7300.0152 305.9806 -9077.9297 -7363.3625 298.7771 854.7395 930.8968 29730.0351 -84.0144 -21.6269
ENERGY: 1200000 6.6659 4.9813 4.4624 0.0000 -10557.1045 1364.8333 0.0000 0.0000 1748.3763 -7427.7853 300.8970 -9176.1616 -7374.3257 299.2131 -817.2162 -686.6748 29840.8297 -142.7904 -63.1172
ENERGY: 1500000 0.8514 3.6624 4.5088 0.0000 -10494.5615 1384.8819 0.0000 0.0000 1787.8644 -7312.7926 307.6930 -9100.6570 -7368.4348 299.5934 146.5795 162.2187 29610.2259 -135.4119 -60.2262
TCL: Running FEP window  12: Lambda1 0.5499999999999999 Lambda2 0.6    [dLambda 0.050000000000000044]
TCL: Setting parameter firsttimestep to 0
TCL: Setting parameter alchLambda to 0.5499999999999999
Info: NONBONDED TABLE R-SQUARED SPACING: 0.0625
Info: NONBONDED TABLE SIZE: 705 POINTS
TCL: Setting parameter alchLambda2 to 0.6
Info: NONBONDED TABLE R-SQUARED SPACING: 0.0625
Info: NONBONDED TABLE SIZE: 705 POINTS
TCL: Running for 1500000 steps
ETITLE: TS BOND ANGLE DIHED IMPRP ELECT VDW BOUNDARY MISC KINETIC TOTAL TEMP POTENTIAL TOTALAVG TEMPAVG PRESSURE GPRESSURE VOLUME PRESSAVG GPRESSAVG
ENERGY: 0 0.8514 3.6624 4.5088 0.0000 -10494.3839 1384.5697 0.0000 0.0000 1787.0327 -7313.7588 307.5499 -9100.7916 -7313.7588 307.5499 91.7103 170.2773 29610.2259 91.7103 170.2773
ENERGY: 300000 3.1293 4.2094 4.7889 0.0000 -10572.3636 1472.3213 0.0000 0.0000 1747.6416 -7340.2732 300.7706 -9087.9147 -7331.7443 305.3246 377.1045 437.6301 29997.3417 130.9905 205.9615
ENERGY: 600000 4.0307 5.5063 3.6011 0.0000 -10667.4755 1487.0268 0.0000 0.0000 1717.2151 -7450.0956 295.5342 -9167.3107 -7352.5797 303.6885 227.3253 248.8050 30058.8475 184.9793 236.2962
ENERGY: 900000 5.5167 3.0925 4.8784 0.0000 -10512.9056 1388.5301 0.0000 0.0000 1756.9174 -7353.9705 302.3670 -9110.8879 -7358.8034 302.6562 -558.0417 -489.1029 30568.2887 73.0125 127.0307
ENERGY: 1200000 3.9681 4.8125 4.6324 0.0000 -10633.2163 1466.4797 0.0000 0.0000 1711.2399 -7442.0839 294.5058 -9153.3237 -7365.9809 301.9702 41.2426 48.7331 30273.5593 16.9994 74.3000
ENERGY: 1500000 3.1958 2.8739 3.0752 0.0000 -10397.1051 1365.6371 0.0000 0.0000 1736.6928 -7285.6304 298.8863 -9022.3231 -7352.7830 301.8959 -179.2021 -146.4918 30464.0853 61.0867 117.7371
TCL: Running FEP window  13: Lambda1 0.6    Lambda2 0.65   [dLambda 0.050000000000000044]
TCL: Setting parameter firsttimestep to 0
TCL: Setting parameter alchLambda to 0.6
Info: NONBONDED TABLE R-SQUARED SPACING: 0.0625
Info: NONBONDED TABLE SIZE: 705 POINTS
TCL: Setting parameter alchLambda2 to 0.65
Info: NONBONDED TABLE R-SQUARED SPACING: 0.0625
Info: NONBONDED TABLE SIZE: 705 POINTS
TCL: Running for 1500000 steps
ETITLE: TS BOND ANGLE DIHED IMPRP ELECT VDW BOUNDARY MISC KINETIC TOTAL TEMP POTENTIAL TOTALAVG TEMPAVG PRESSURE GPRESSURE VOLUME PRESSAVG GPRESSAVG
ENERGY: 0 3.1958 2.8739 3.0752 0.0000 -10397.3267 1365.4991 0.0000 0.0000 1735.8292 -7286.8536 298.7377 -9022.6827 -7286.8536 298.7377 -211.3594 -141.1451 30464.0853 -211.3594 -141.1451
ENERGY: 300000 4.9974 4.4400 3.5079 0.0000 -10387.6644 1333.5229 0.0000 0.0000 1725.7405 -7315.4557 297.0014 -9041.1962 -7316.7782 299.2568 -977.1704 -870.5638 30541.9597 -76.6232 -9.4652
ENERGY: 600000 3.1125 3.6885 3.3880 0.0000 -10560.7220 1427.7071 0.0000 0.0000 1750.6102 -7372.2157 301.2815 -9122.8258 -7334.2669 302.1223 -230.4834 -117.1084 30628.3262 -4.5944 61.6621
ENERGY: 900000 2.9961 5.4488 4.6813 0.0000 -10545.6358 1431.8064 0.0000 0.0000 1730.7778 -7369.9254 297.8683 -9100.7031 -7354.2209 301.3973 36.9127 29.1719 30487.7118 76.9242 140.8723
ENERGY: 1200000 2.6400 8.9603 4.4967 0.0000 -10469.7891 1324.8651 0.0000 0.0000 1772.8655 -7355.9614 305.1117 -9128.8270 -7359.7645 300.7775 -745.5921 -656.7250 29953.8186 -23.1563 40.9285
ENERGY: 1500000 2.9388 5.4450 4.4634 0.0000 -10618.3783 1473.0517 0.0000 0.0000 1781.6208 -7350.8586 306.6185 -9132.4795 -7366.7769 300.5699 412.3480 488.3915 29747.6934 -61.5606 -2.9388
TCL: Running FEP window  14: Lambda1 0.65   Lambda2 0.7000000000000001 [dLambda 0.050000000000000044]
TCL: Setting parameter firsttimestep to 0
TCL: Setting parameter alchLambda to 0.65
Info: NONBONDED TABLE R-SQUARED SPACING: 0.0625
Info: NONBONDED TABLE SIZE: 705 POINTS
TCL: Setting parameter alchLambda2 to 0.7000000000000001
Info: NONBONDED TABLE R-SQUARED SPACING: 0.0625
Info: NONBONDED TABLE SIZE: 705 POINTS
TCL: Running for 1500000 steps
ETITLE: TS BOND ANGLE DIHED IMPRP ELECT VDW BOUNDARY MISC KINETIC TOTAL TEMP POTENTIAL TOTALAVG TEMPAVG PRESSURE GPRESSURE VOLUME PRESSAVG GPRESSAVG
ENERGY: 0 2.9388 5.4450 4.4634 0.0000 -10618.5180 1472.6417 0.0000 0.0000 1780.7487 -7352.2804 306.4684 -9133.0291 -7352.2804 306.4684 412.5266 494.9231 29747.6934 412.5266 494.9231
ENERGY: 300000 2.0258 3.9082 5.4253 0.0000 -10426.6167 1396.7923 0.0000 0.0000 1733.3422 -7285.1228 298.3097 -9018.4650 -7351.2823 300.5702 -183.0107 -105.3151 30496.2433 153.6325 211.9652
ENERGY: 600000 2.6789 5.2183 5.5697 0.0000 -10496.1717 1384.9300 0.0000 0.0000 1717.2082 -7380.5665 295.5330 -9097.7747 -7362.3313 298.8490 -323.1375 -169.4077 29888.5473 90.8267 156.7301
ENERGY: 900000 6.3932 7.0952 3.9272 0.0000 -10479.5170 1386.2953 0.0000 0.0000 1768.8899 -7306.9161 304.4275 -9075.8060 -7364.6147 299.2855 -38.1490 -4.1863 29783.2818 47.7404 109.5004
ENERGY: 1200000 2.5352 5.6620 6.6905 0.0000 -10618.0001 1503.4675 0.0000 0.0000 1805.6728 -7293.9722 310.7578 -9099.6449 -7365.6449 299.6370 664.6929 722.4771 30326.2151 31.4839 89.7419
ENERGY: 1500000 1.1696 6.6796 8.4232 0.0000 -10566.9784 1459.0601 0.0000 0.0000 1740.8484 -7350.7975 299.6015 -9091.6459 -7361.7452 300.1277 523.9657 550.5297 30112.5267 72.8077 129.1914
TCL: Running FEP window  15: Lambda1 0.7000000000000001 Lambda2 0.7500000000000001 [dLambda 0.050000000000000044]
TCL: Setting parameter firsttimestep to 0
TCL: Setting parameter alchLambda to 0.7000000000000001
Info: NONBONDED TABLE R-SQUARED SPACING: 0.0625
Info: NONBONDED TABLE SIZE: 705 POINTS
TCL: Setting parameter alchLambda2 to 0.7500000000000001
Info: NONBONDED TABLE R-SQUARED SPACING: 0.0625
Info: NONBONDED TABLE SIZE: 705 POINTS
TCL: Running for 1500000 steps
ETITLE: TS BOND ANGLE DIHED IMPRP ELECT VDW BOUNDARY MISC KINETIC TOTAL TEMP POTENTIAL TOTALAVG TEMPAVG PRESSURE GPRESSURE VOLUME PRESSAVG GPRESSAVG
ENERGY: 0 1.1696 6.6796 8.4232 0.0000 -10567.4908 1458.7328 0.0000 0.0000 1739.9849 -7352.5007 299.4529 -9092.4856 -7352.5007 299.4529 466.8775 554.4667 30112.5267 466.8775 554.4667
ENERGY: 300000 4.1678 2.9429 4.7515 0.0000 -10290.1590 1256.9757 0.0000 0.0000 1762.8718 -7258.4493 303.3917 -9021.3211 -7343.6686 301.0484 -1012.0147 -925.8921 30425.2338 70.4292 144.6596
ENERGY: 600000 2.5880 1.8116 4.4531 0.0000 -10484.3078 1370.3646 0.0000 0.0000 1700.6994 -7404.3912 292.6918 -9105.0906 -7352.8916 299.7162 -236.0129 -185.6587 30085.1633 -186.5396 -124.1514
ENERGY: 900000 1.2536 2.5134 4.9342 0.0000 -10592.4311 1417.8173 0.0000 0.0000 1704.2050 -7461.7076 293.2951 -9165.9126 -7377.9539 298.4631 -316.7433 -223.8107 30182.9717 -141.6564 -75.5344
ENERGY: 1200000 3.2937 3.5804 5.1756 0.0000 -10550.4307 1410.7798 0.0000 0.0000 1761.3973 -7366.2039 303.1380 -9127.6012 -7386.4041 298.1489 202.5958 216.6395 29659.5368 -134.5166 -73.7253
ENERGY: 1500000 2.8949 4.4866 3.3200 0.0000 -10642.9036 1459.5802 0.0000 0.0000 1725.6412 -7446.9808 296.9843 -9172.6220 -7380.2110 298.6747 -162.2448 -91.4353 30398.1256 -100.2258 -43.8577
TCL: Running FEP window  16: Lambda1 0.7500000000000001 Lambda2 0.8000000000000002 [dLambda 0.050000000000000044]
TCL: Setting parameter firsttimestep to 0
TCL: Setting parameter alchLambda to 0.7500000000000001
Info: NONBONDED TABLE R-SQUARED SPACING: 0.0625
Info: NONBONDED TABLE SIZE: 705 POINTS
TCL: Setting parameter alchLambda2 to 0.8000000000000002
Info: NONBONDED TABLE R-SQUARED SPACING: 0.0625
Info: NONBONDED TABLE SIZE: 705 POINTS
TCL: Running for 1500000 steps
ETITLE: TS BOND ANGLE DIHED IMPRP ELECT VDW BOUNDARY MISC KINETIC TOTAL TEMP POTENTIAL TOTALAVG TEMPAVG PRESSURE GPRESSURE VOLUME PRESSAVG GPRESSAVG
ENERGY: 0 2.8949 4.4866 3.3200 0.0000 -10643.6677 1459.0784 0.0000 0.0000 1724.7802 -7449.1076 296.8361 -9173.8878 -7449.1076 296.8361 -163.3832 -88.5854 30398.1256 -163.3832 -88.5854
ENERGY: 300000 4.4206 5.1189 3.8023 0.0000 -10621.0007 1474.9830 0.0000 0.0000 1704.0816 -7428.5944 293.2739 -9132.6759 -7433.1445 294.5553 747.1982 789.2863 29329.9748 258.5611 323.4061
ENERGY: 600000 4.7908 6.7149 2.7001 0.0000 -10471.5518 1355.6197 0.0000 0.0000 1682.6906 -7419.0358 289.5925 -9101.7263 -7408.9451 297.0573 -574.0651 -499.1239 30135.0628 30.2312 97.0492
ENERGY: 900000 4.8505 1.9871 3.0066 0.0000 -10448.4724 1380.9115 0.0000 0.0000 1748.5534 -7309.1633 300.9275 -9057.7167 -7398.5001 297.7555 -319.0332 -253.9649 30219.4782 58.8229 120.3362
ENERGY: 1200000 3.8109 2.8722 4.9202 0.0000 -10515.5257 1379.5266 0.0000 0.0000 1689.5217 -7434.8741 290.7681 -9124.3958 -7400.5122 298.1900 -361.6170 -353.2784 30109.8359 6.4881 59.4876
ENERGY: 1500000 4.2479 5.0542 4.5609 0.0000 -10654.9725 1461.1129 0.0000 0.0000 1706.2132 -7473.7834 293.6407 -9179.9965 -7407.2581 298.9554 401.9626 443.4073 29489.3400 -79.5023 -28.1369
TCL: Running FEP window  17: Lambda1 0.8000000000000002 Lambda2 0.8500000000000002 [dLambda 0.050000000000000044]
TCL: Setting parameter firsttimestep to 0
TCL: Setting parameter alchLambda to 0.8000000000000002
Info: NONBONDED TABLE R-SQUARED SPACING: 0.0625
Info: NONBONDED TABLE SIZE: 705 POINTS
TCL: Setting parameter alchLambda2 to 0.8500000000000002
Info: NONBONDED TABLE R-SQUARED SPACING: 0.0625
Info: NONBONDED TABLE SIZE: 705 POINTS
TCL: Running for 1500000 steps
ETITLE: TS BOND ANGLE DIHED IMPRP ELECT VDW BOUNDARY MISC KINETIC TOTAL TEMP POTENTIAL TOTALAVG TEMPAVG PRESSURE GPRESSURE VOLUME PRESSAVG GPRESSAVG
ENERGY: 0 4.2479 5.0542 4.5609 0.0000 -10655.7704 1461.0011 0.0000 0.0000 1705.3570 -7475.5492 293.4934 -9180.9062 -7475.5492 293.4934 379.9686 451.4672 29489.3400 379.9686 451.4672
ENERGY: 300000 2.4463 4.7742 4.2267 0.0000 -10410.8908 1329.1741 0.0000 0.0000 1707.5797 -7362.6898 293.8759 -9070.2695 -7396.7433 295.1052 -890.8911 -772.7614 30377.3543 -71.0336 5.1533
ENERGY: 600000 2.7616 2.1310 4.9678 0.0000 -10643.8332 1461.7380 0.0000 0.0000 1792.7640 -7379.4707 308.5362 -9172.2347 -7415.7391 297.0463 58.7455 161.9733 30219.0608 81.4330 151.8575
ENERGY: 900000 2.2247 4.6719 8.5217 0.0000 -10552.0832 1392.5417 0.0000 0.0000 1709.9491 -7434.1741 294.2837 -9144.1232 -7407.2225 298.8643 -264.4617 -228.8300 30167.0968 107.7781 177.3909
ENERGY: 1200000 3.1441 3.5360 3.0700 0.0000 -10434.7507 1369.1907 0.0000 0.0000 1749.5648 -7306.2451 301.1016 -9055.8098 -7390.0689 298.8194 -171.4186 -137.2667 30001.5918 60.6031 124.8328
ENERGY: 1500000 8.8101 6.5350 3.4932 0.0000 -10486.7994 1318.8479 0.0000 0.0000 1771.9770 -7377.1363 304.9587 -9149.1132 -7386.5845 299.6324 -1047.9087 -997.7276 29976.0313 -6.5971 56.0494
TCL: Running FEP window  18: Lambda1 0.8500000000000002 Lambda2 0.9000000000000002 [dLambda 0.050000000000000044]
TCL: Setting parameter firsttimestep to 0
TCL: Setting parameter alchLambda to 0.8500000000000002
Info: NONBONDED TABLE R-SQUARED SPACING: 0.0625
Info: NONBONDED TABLE SIZE: 705 POINTS
TCL: Setting parameter alchLambda2 to 0.9000000000000002
Info: NONBONDED TABLE R-SQUARED SPACING: 0.0625
Info: NONBONDED TABLE SIZE: 705 POINTS
TCL: Running for 1500000 steps
ETITLE: TS BOND ANGLE DIHED IMPRP ELECT VDW BOUNDARY MISC KINETIC TOTAL TEMP POTENTIAL TOTALAVG TEMPAVG PRESSURE GPRESSURE VOLUME PRESSAVG GPRESSAVG
ENERGY: 0 8.8101 6.5350 3.4932 0.0000 -10487.1216 1319.0837 0.0000 0.0000 1771.1158 -7378.0838 304.8105 -9149.1996 -7378.0838 304.8105 -1065.0908 -983.3394 29976.0313 -1065.0908 -983.3394
ENERGY: 300000 5.3263 5.8971 4.9777 0.0000 -10509.6209 1388.5731 0.0000 0.0000 1808.6272 -7296.2196 311.2663 -9104.8468 -7346.5525 305.8071 -257.9836 -202.9845 30069.7792 -375.4948 -311.2809
ENERGY: 600000 3.4237 2.7863 3.3232 0.0000 -10594.6111 1435.0127 0.0000 0.0000 1726.9526 -7423.1125 297.2100 -9150.0651 -7340.6776 303.9155 13.6238 78.3411 29904.1803 -245.9891 -181.5937
ENERGY: 900000 2.5242 3.6623 6.0868 0.0000 -10499.1537 1413.2053 0.0000 0.0000 1776.0439 -7297.6312 305.6587 -9073.6751 -7339.1352 303.5362 274.8987 253.6573 30015.7273 -112.3520 -59.7151
ENERGY: 1200000 4.5231 3.0620 3.3257 0.0000 -10558.7896 1418.6758 0.0000 0.0000 1739.3883 -7389.8147 299.3502 -9129.2029 -7341.1269 303.6422 -217.6438 -86.9570 30052.6315 -125.2423 -60.3141
ENERGY: 1500000 1.0096 5.9855 5.8284 0.0000 -10602.4072 1470.2298 0.0000 0.0000 1745.0592 -7374.2947 300.3262 -9119.3539 -7345.0669 303.2920 574.7972 612.3014 29810.7831 -138.4078 -73.8403
TCL: Running FEP window  19: Lambda1 0.9000000000000002 Lambda2 0.9500000000000003 [dLambda 0.050000000000000044]
TCL: Setting parameter firsttimestep to 0
TCL: Setting parameter alchLambda to 0.9000000000000002
Info: NONBONDED TABLE R-SQUARED SPACING: 0.0625
Info: NONBONDED TABLE SIZE: 705 POINTS
TCL: Setting parameter alchLambda2 to 0.9500000000000003
Info: NONBONDED TABLE R-SQUARED SPACING: 0.0625
Info: NONBONDED TABLE SIZE: 705 POINTS
TCL: Running for 1500000 steps
ETITLE: TS BOND ANGLE DIHED IMPRP ELECT VDW BOUNDARY MISC KINETIC TOTAL TEMP POTENTIAL TOTALAVG TEMPAVG PRESSURE GPRESSURE VOLUME PRESSAVG GPRESSAVG
ENERGY: 0 1.0096 5.9855 5.8284 0.0000 -10603.3819 1469.7101 0.0000 0.0000 1744.1847 -7376.6636 300.1757 -9120.8483 -7376.6636 300.1757 544.7333 613.9683 29810.7831 544.7333 613.9683
ENERGY: 300000 2.8317 4.5061 2.0072 0.0000 -10575.3399 1379.4493 0.0000 0.0000 1771.5959 -7414.9498 304.8932 -9186.5456 -7384.4188 304.0379 -714.7450 -586.1798 30192.3835 -48.3620 18.8437
ENERGY: 600000 2.6137 3.9699 2.3029 0.0000 -10791.5682 1542.8494 0.0000 0.0000 1736.1128 -7503.7193 298.7865 -9239.8321 -7415.1851 301.5047 526.3767 615.3705 30121.4100 24.4287 84.5724
ENERGY: 900000 2.1877 2.5571 7.1664 0.0000 -10818.8381 1564.5504 0.0000 0.0000 1723.9346 -7518.4420 296.6906 -9242.3766 -7412.5717 302.3406 916.2890 960.2211 29504.6291 46.1188 104.0382
ENERGY: 1200000 3.0525 3.8728 2.8872 0.0000 -10587.3916 1469.9385 0.0000 0.0000 1733.0964 -7374.5441 298.2674 -9107.6405 -7409.7399 301.1903 705.3949 752.8363 29430.2584 142.5868 194.2515
ENERGY: 1500000 4.1563 3.5752 5.7846 0.0000 -10694.1030 1533.0911 0.0000 0.0000 1721.0264 -7426.4695 296.1901 -9147.4959 -7404.9429 301.3486 837.8712 935.4771 29713.2884 143.8046 201.2946
TCL: Running FEP window  20: Lambda1 0.9500000000000003 Lambda2 1.0    [dLambda 0.04999999999999971]
TCL: Setting parameter firsttimestep to 0
TCL: Setting parameter alchLambda to 0.9500000000000003
Info: NONBONDED TABLE R-SQUARED SPACING: 0.0625
Info: NONBONDED TABLE SIZE: 705 POINTS
TCL: Setting parameter alchLambda2 to 1.0
Info: NONBONDED TABLE R-SQUARED SPACING: 0.0625
Info: NONBONDED TABLE SIZE: 705 POINTS
TCL: Running for 1500000 steps
ETITLE: TS BOND ANGLE DIHED IMPRP ELECT VDW BOUNDARY MISC KINETIC TOTAL TEMP POTENTIAL TOTALAVG TEMPAVG PRESSURE GPRESSURE VOLUME PRESSAVG GPRESSAVG
ENERGY: 0 4.1563 3.5752 5.7846 0.0000 -10695.1548 1533.9707 0.0000 0.0000 1720.1615 -7427.5065 296.0413 -9147.6680 -7427.5065 296.0413 881.9890 960.7493 29713.2884 881.9890 960.7493
ENERGY: 300000 2.0923 3.7915 7.8366 0.0000 -10565.8107 1429.5194 0.0000 0.0000 1747.4865 -7375.0843 300.7439 -9122.5708 -7357.5899 300.4252 76.4424 176.4350 29896.5837 315.9872 366.2023
ENERGY: 600000 3.1644 6.0380 4.8138 0.0000 -10453.2854 1333.6076 0.0000 0.0000 1747.6407 -7358.0209 300.7705 -9105.6617 -7350.6774 299.9910 -818.4886 -779.1581 30444.7923 -55.8156 -0.3195
ENERGY: 900000 4.1996 5.0526 1.9446 0.0000 -10440.6622 1361.6348 0.0000 0.0000 1710.7759 -7357.0547 294.4260 -9067.8306 -7367.3184 299.0798 -355.0292 -337.6474 30280.9263 -109.3687 -60.2012
ENERGY: 1200000 2.2051 4.8394 7.5302 0.0000 -10605.4335 1401.4990 0.0000 0.0000 1704.2635 -7485.0963 293.3052 -9189.3598 -7369.9702 300.1453 -470.7276 -435.9407 30333.7061 -90.0999 -43.3444
ENERGY: 1500000 4.3074 3.7369 7.1792 0.0000 -10604.6046 1484.9865 0.0000 0.0000 1757.6405 -7346.7541 302.4914 -9104.3946 -7367.2318 300.5196 334.9454 346.1901 30536.3547 -30.8062 17.0980
TCL: Exiting due to exit command.
