Info: SIMULATION PARAMETERS:
Info: TIMESTEP               2
Info: NUMBER OF STEPS        0
Info: STEPS PER CYCLE        10
Info: PERIODIC CELL BASIS 1  31.7685 0 0
Info: PERIODIC CELL BASIS 2  0 30.2288 0
Info: PERIODIC CELL BASIS 3  0 0 31.9396
Info: PERIODIC CELL CENTER   0 0 0
Info: WRAPPING WATERS AROUND PERIODIC BOUNDARIES ON OUTPUT.
Info: WRAPPING ALL CLUSTERS AROUND PERIODIC BOUNDARIES ON OUTPUT.
Info: FIRST LDB TIMESTEP     50
Info: LAST LDB TIMESTEP     -1
Info: HOM BACKGROUND SCALING 1
Info: PME BACKGROUND SCALING 1
Info: MIN ATOMS PER PATCH    40
Info: EMPTY PATCH LOAD       40 ATOMS
Info: VELOCITY FILE          mobley_3999471_equil.vel
Info: CENTER OF MASS MOVING INITIALLY? NO
Info: DIELECTRIC             1
Info: EXCLUDE                SCALED ONE-FOUR
Info: 1-4 ELECTROSTATICS SCALED BY 0.833333
Info: MODIFIED 1-4 VDW PARAMETERS WILL BE USED
Info: DCD FILENAME           mobley_3999471_prod.dcd
Info: DCD FREQUENCY          100000
Info: DCD FIRST STEP         100000
Info: DCD FILE WILL CONTAIN UNIT CELL DATA
Info: XST FILENAME           mobley_3999471_prod.xst
Info: XST FREQUENCY          100000
Info: NO VELOCITY DCD OUTPUT
Info: NO FORCE DCD OUTPUT
Info: OUTPUT FILENAME        mobley_3999471_prod
Info: BINARY OUTPUT FILES WILL BE USED
Info: RESTART FILENAME       mobley_3999471_prod.restart
Info: RESTART FREQUENCY      100000
Info: BINARY RESTART FILES WILL BE USED
Info: CUTOFF                 9
Info: PAIRLIST DISTANCE      11
Info: PAIRLIST SHRINK RATE   0.01
Info: PAIRLIST GROW RATE     0.01
Info: PAIRLIST TRIGGER       0.3
Info: PAIRLISTS PER CYCLE    2
Info: PAIRLISTS ENABLED
Info: MARGIN                 2
Info: HYDROGEN GROUP CUTOFF  2.5
Info: PATCH DIMENSION        15.5
Info: ENERGY OUTPUT STEPS    100000
Info: ENERGY EVALUATION STEPS    100000
Info: OUTPUT ENERGY PRECISION 4
Info: CROSSTERM ENERGY INCLUDED IN DIHEDRAL
Info: TIMING OUTPUT STEPS    1000000
Info: PRESSURE OUTPUT STEPS  100000
Info: ALCHEMICAL FEP ON
Info: FEP CURRENT LAMBDA VALUE     1
Info: FEP COMPARISON LAMBDA VALUE  0.95
Info: FEP INTRA-ALCHEMICAL NON-BONDED INTERACTIONS WILL BE RETAINED
Info: FEP INTRA-ALCHEMICAL BONDED INTERACTIONS WILL BE RETAINED
Info: FEP VDW SHIFTING COEFFICIENT 5
Info: FEP ELEC. ACTIVE FOR ANNIHILATED PARTICLES BETWEEN LAMBDA = 0 AND LAMBDA = 0.5
Info: FEP ELEC. ACTIVE FOR EXNIHILATED PARTICLES BETWEEN LAMBDA = 0.5 AND LAMBDA = 1
Info: FEP VDW ACTIVE FOR ANNIHILATED PARTICLES BETWEEN LAMBDA = 0 AND LAMBDA = 1
Info: FEP VDW ACTIVE FOR EXNIHILATED PARTICLES BETWEEN LAMBDA = 0 AND LAMBDA = 1
Info: FEP BOND ACTIVE FOR ANNIHILATED PARTICLES BETWEEN LAMBDA = 1 AND LAMBDA = 1
Info: FEP BOND ACTIVE FOR EXNIHILATED PARTICLES BETWEEN LAMBDA = 0 AND LAMBDA = 0
Info: LANGEVIN DYNAMICS ACTIVE
Info: LANGEVIN TEMPERATURE   300
Info: LANGEVIN USING BBK INTEGRATOR
Info: LANGEVIN DAMPING COEFFICIENT IS 1 INVERSE PS
Info: LANGEVIN DYNAMICS APPLIED TO HYDROGENS
Info: LANGEVIN PISTON PRESSURE CONTROL ACTIVE
Info:        TARGET PRESSURE IS 1.01325 BAR
Info:     OSCILLATION PERIOD IS 50 FS
Info:             DECAY TIME IS 25 FS
Info:     PISTON TEMPERATURE IS 300 K
Info:       PRESSURE CONTROL IS GROUP-BASED
Info:    INITIAL STRAIN RATE IS 1.4354e-05 1.4354e-05 1.4354e-05
Info:       CELL FLUCTUATION IS ISOTROPIC
Info: PARTICLE MESH EWALD (PME) ACTIVE
Info: PME TOLERANCE               1e-06
Info: PME EWALD COEFFICIENT       0.348832
Info: PME INTERPOLATION ORDER     4
Info: PME GRID DIMENSIONS         32 32 32
Info: PME MAXIMUM GRID SPACING    1
Info: PME CALCULATION WILL BE PERFORMED ON GPU
Info: FULL ELECTROSTATIC EVALUATION FREQUENCY      2
Info: USING VERLET I (r-RESPA) MTS SCHEME.
Info: C1 SPLITTING OF LONG RANGE ELECTROSTATICS
Info: PLACING ATOMS IN PATCHES BY HYDROGEN GROUPS
Info: RIGID BONDS TO HYDROGEN : ALL
Info:         ERROR TOLERANCE : 1e-08
Info:          MAX ITERATIONS : 100
Info: RIGID WATER USING SETTLE ALGORITHM
Info: RANDOM NUMBER SEED     1743506134
Info: USE HYDROGEN BONDS?    NO
Info: Using AMBER format force field!
Info: AMBER PARM FILE        mobley_3999471.prmtop
Info: COORDINATE PDB         mobley_3999471.pdb
Info: Exclusions will be read from PARM file!
Info: SCNB (VDW SCALING)     2
Info: USING ARITHMETIC MEAN TO COMBINE L-J SIGMA PARAMETERS
Info: BINARY COORDINATES     mobley_3999471_equil.coor
Info: SUMMARY OF PARAMETERS:
Info: 6 BONDS
Info: 6 ANGLES
Info:   6 HARMONIC
Info:   0 COSINE-BASED
Info: 3 DIHEDRAL
Info: 0 IMPROPER
Info: 0 CROSSTERM
Info: 0 VDW
Info: 21 VDW_PAIRS
Info: 0 NBTHOLE_PAIRS
Info: To read alchdata from file: mobley_3999471.pdb
Info: To read alchflag data from column: 5
Info: STRUCTURE SUMMARY:
Info: 2987 ATOMS
Info: 2986 BONDS
Info: 12 ANGLES
Info: 15 DIHEDRALS
Info: 0 IMPROPERS
Info: 0 CROSSTERMS
Info: 3007 EXCLUSIONS
Info: 2983 RIGID BONDS
Info: ALCH: 0 ATOMS TO DISAPPEAR IN FINAL STATE
Info: ALCH: 8 ATOMS TO APPEAR IN FINAL STATE
Info: 5978 DEGREES OF FREEDOM
Info: 997 HYDROGEN GROUPS
Info: 4 ATOMS IN LARGEST HYDROGEN GROUP
Info: 997 MIGRATION GROUPS
Info: 4 ATOMS IN LARGEST MIGRATION GROUP
Info: TOTAL MASS = 17988.8 amu
Info: TOTAL CHARGE = 0.000100009 e
Info: MASS DENSITY = 0.973903 g/cm^3
Info: ATOM DENSITY = 0.0973842 atoms/A^3
Info: ADDED 0 IMPLICIT EXCLUSIONS
Info: NONBONDED TABLE R-SQUARED SPACING: 0.0625
Info: NONBONDED TABLE SIZE: 705 POINTS
Info: REMOVING COM VELOCITY -0.147984 -0.174821 -0.00167398
Info: Use 3D box decompostion in PME FFT.
Info: Updated CUDA force table with 4096 elements.
Info: Updated CUDA LJ table with 6 x 6 elements.
Info: Found 11 unique exclusion lists needing 16 bytes
TCL: Running for 1500000 steps
ETITLE: TS BOND ANGLE DIHED IMPRP ELECT VDW BOUNDARY MISC KINETIC TOTAL TEMP POTENTIAL TOTALAVG TEMPAVG PRESSURE GPRESSURE VOLUME PRESSAVG GPRESSAVG
ENERGY: 0 0.8965 2.6150 1.5392 0.0000 -11091.4878 1557.9619 0.0000 0.0000 1762.9516 -7765.5237 296.8075 -9528.4753 -7765.5237 296.8075 387.0089 472.9275 30672.3136 387.0089 472.9275
ENERGY: 300000 0.8086 0.5554 1.6309 0.0000 -10817.0688 1443.5158 0.0000 0.0000 1735.1276 -7635.4304 292.1231 -9370.5580 -7618.4317 301.9284 -184.9617 -110.1411 31002.9293 -226.8491 -141.2455
ENERGY: 600000 0.0826 2.4163 1.6097 0.0000 -10998.6369 1515.7535 0.0000 0.0000 1764.5697 -7714.2052 297.0799 -9478.7749 -7634.0046 299.7533 310.8572 351.4939 30439.3966 38.6969 108.2521
ENERGY: 900000 0.7924 6.5003 1.7215 0.0000 -10905.5708 1488.8407 0.0000 0.0000 1762.8841 -7644.8318 296.7961 -9407.7159 -7653.0517 298.6877 259.1372 329.0050 30602.8265 130.4923 205.1905
ENERGY: 1200000 0.3623 2.5685 1.8524 0.0000 -10775.6979 1427.8860 0.0000 0.0000 1789.1201 -7553.9085 301.2132 -9343.0287 -7628.2473 298.6852 -240.2589 -191.3714 31027.6719 27.0121 102.2146
ENERGY: 1500000 0.4538 2.4630 1.8239 0.0000 -10840.1654 1419.6625 0.0000 0.0000 1725.2694 -7690.4928 290.4634 -9415.7622 -7627.5822 298.5117 -472.8226 -378.0048 30909.6095 2.3102 75.0344
TCL: Running FEP window   2: Lambda1 0.95   Lambda2 0.8999999999999999 [dLambda -0.050000000000000044]
TCL: Setting parameter firsttimestep to 0
TCL: Setting parameter alchLambda to 0.95
Info: NONBONDED TABLE R-SQUARED SPACING: 0.0625
Info: NONBONDED TABLE SIZE: 705 POINTS
TCL: Setting parameter alchLambda2 to 0.8999999999999999
Info: NONBONDED TABLE R-SQUARED SPACING: 0.0625
Info: NONBONDED TABLE SIZE: 705 POINTS
TCL: Running for 1500000 steps
ETITLE: TS BOND ANGLE DIHED IMPRP ELECT VDW BOUNDARY MISC KINETIC TOTAL TEMP POTENTIAL TOTALAVG TEMPAVG PRESSURE GPRESSURE VOLUME PRESSAVG GPRESSAVG
ENERGY: 0 0.4538 2.4630 1.8239 0.0000 -10839.9483 1420.1053 0.0000 0.0000 1724.3521 -7690.7502 290.3089 -9415.1023 -7690.7502 290.3089 -463.2484 -375.3375 30909.6095 -463.2484 -375.3375
ENERGY: 300000 0.8221 2.4659 2.4364 0.0000 -10858.2311 1393.0763 0.0000 0.0000 1785.1696 -7674.2608 300.5481 -9459.4303 -7655.1527 295.0559 -724.1349 -716.8631 31098.7624 -401.1516 -332.2223
ENERGY: 600000 0.3442 5.9047 2.2187 0.0000 -10724.8909 1371.9581 0.0000 0.0000 1773.5490 -7570.9162 298.5917 -9344.4652 -7626.2358 296.0124 -610.0977 -507.4257 31219.2787 -526.8236 -464.6337
ENERGY: 900000 0.9789 3.0628 1.5564 0.0000 -10966.4343 1477.1632 0.0000 0.0000 1849.0306 -7634.6425 311.2996 -9483.6731 -7633.7207 297.9469 140.7535 208.3459 30246.5838 -315.2404 -252.7065
ENERGY: 1200000 1.0634 4.7439 2.3887 0.0000 -10977.8394 1516.5471 0.0000 0.0000 1805.6604 -7647.4359 303.9979 -9453.0964 -7638.4234 297.7768 476.7876 506.0742 30562.3961 -257.4607 -200.3628
ENERGY: 1500000 2.6509 3.2373 1.5283 0.0000 -10867.1099 1401.3656 0.0000 0.0000 1753.0265 -7705.3012 295.1365 -9458.3277 -7633.4428 297.9215 -840.6418 -745.3693 31050.0464 -295.3294 -236.8675
TCL: Running FEP window   3: Lambda1 0.8999999999999999 Lambda2 0.8499999999999999 [dLambda -0.050000000000000044]
TCL: Setting parameter firsttimestep to 0
TCL: Setting parameter alchLambda to 0.8999999999999999
Info: NONBONDED TABLE R-SQUARED SPACING: 0.0625
Info: NONBONDED TABLE SIZE: 705 POINTS
TCL: Setting parameter alchLambda2 to 0.8499999999999999
Info: NONBONDED TABLE R-SQUARED SPACING: 0.0625
Info: NONBONDED TABLE SIZE: 705 POINTS
TCL: Running for 1500000 steps
ETITLE: TS BOND ANGLE DIHED IMPRP ELECT VDW BOUNDARY MISC KINETIC TOTAL TEMP POTENTIAL TOTALAVG TEMPAVG PRESSURE GPRESSURE VOLUME PRESSAVG GPRESSAVG
ENERGY: 0 2.6509 3.2373 1.5283 0.0000 -10866.8646 1401.1989 0.0000 0.0000 1752.1556 -7706.0936 294.9899 -9458.2492 -7706.0936 294.9899 -833.6661 -754.8973 31050.0464 -833.6661 -754.8973
ENERGY: 300000 0.4236 2.3314 2.0779 0.0000 -10829.2827 1447.8740 0.0000 0.0000 1803.6488 -7572.9270 303.6592 -9376.5758 -7601.3657 300.3862 -4.4868 61.4417 30692.1481 76.2448 148.7821
ENERGY: 600000 1.6645 1.5535 1.5087 0.0000 -10676.6740 1371.7367 0.0000 0.0000 1796.2481 -7503.9626 302.4132 -9300.2107 -7602.6492 297.7173 -443.9282 -421.3016 31057.0617 85.2750 150.4076
ENERGY: 900000 0.7999 2.2351 1.9149 0.0000 -10881.2584 1470.5661 0.0000 0.0000 1756.6477 -7649.0946 295.7462 -9405.7423 -7600.1092 297.6513 -245.5591 -179.6096 31401.7157 -35.2052 30.5127
ENERGY: 1200000 0.6978 5.7070 1.4917 0.0000 -10722.2328 1456.2236 0.0000 0.0000 1813.2436 -7444.8691 305.2746 -9258.1127 -7580.6850 298.8656 -159.7891 -3.8263 31517.0915 56.0159 125.7537
ENERGY: 1500000 0.1057 2.7729 1.6065 0.0000 -10761.6551 1367.4071 0.0000 0.0000 1753.7693 -7635.9935 295.2616 -9389.7628 -7579.8788 299.6803 -715.3128 -619.5575 30575.4488 -26.4910 41.4378
TCL: Running FEP window   4: Lambda1 0.8499999999999999 Lambda2 0.7999999999999998 [dLambda -0.050000000000000044]
TCL: Setting parameter firsttimestep to 0
TCL: Setting parameter alchLambda to 0.8499999999999999
Info: NONBONDED TABLE R-SQUARED SPACING: 0.0625
Info: NONBONDED TABLE SIZE: 705 POINTS
TCL: Setting parameter alchLambda2 to 0.7999999999999998
Info: NONBONDED TABLE R-SQUARED SPACING: 0.0625
Info: NONBONDED TABLE SIZE: 705 POINTS
TCL: Running for 1500000 steps
ETITLE: TS BOND ANGLE DIHED IMPRP ELECT VDW BOUNDARY MISC KINETIC TOTAL TEMP POTENTIAL TOTALAVG TEMPAVG PRESSURE GPRESSURE VOLUME PRESSAVG GPRESSAVG
ENERGY: 0 0.1057 2.7729 1.6065 0.0000 -10761.3443 1367.2888 0.0000 0.0000 1752.8460 -7636.7244 295.1061 -9389.5703 -7636.7244 295.1061 -700.6585 -629.3185 30575.4488 -700.6585 -629.3185
ENERGY: 300000 0.2690 1.9797 1.5010 0.0000 -10900.3946 1531.3688 0.0000 0.0000 1787.5695 -7577.7065 300.9521 -9365.2760 -7570.1162 300.9852 690.1252 727.5345 30610.6822 140.4819 197.2138
ENERGY: 600000 1.3788 2.3792 1.6297 0.0000 -10673.1745 1371.8236 0.0000 0.0000 1786.1525 -7509.8109 300.7136 -9295.9633 -7577.9142 301.1817 -541.9928 -437.7813 30951.7873 -72.3211 -14.0609
ENERGY: 900000 0.5701 1.7170 1.5258 0.0000 -10762.0653 1455.8018 0.0000 0.0000 1735.8479 -7566.6027 292.2444 -9302.4506 -7577.5780 298.9369 211.5178 332.5107 30648.4292 -134.0521 -71.1705
ENERGY: 1200000 0.8261 3.6337 1.5803 0.0000 -10782.4505 1318.3230 0.0000 0.0000 1816.9282 -7641.1591 305.8949 -9458.0873 -7580.5283 299.4907 -1134.8549 -1090.6046 30456.3136 -243.8497 -185.9812
ENERGY: 1500000 1.8181 2.7892 1.9558 0.0000 -10838.3495 1464.3357 0.0000 0.0000 1762.1317 -7605.3191 296.6695 -9367.4508 -7589.3658 298.6803 103.8974 193.7576 30745.2432 -157.6100 -101.0685
TCL: Running FEP window   5: Lambda1 0.7999999999999998 Lambda2 0.7499999999999998 [dLambda -0.050000000000000044]
TCL: Setting parameter firsttimestep to 0
TCL: Setting parameter alchLambda to 0.7999999999999998
Info: NONBONDED TABLE R-SQUARED SPACING: 0.0625
Info: NONBONDED TABLE SIZE: 705 POINTS
TCL: Setting parameter alchLambda2 to 0.7499999999999998
Info: NONBONDED TABLE R-SQUARED SPACING: 0.0625
Info: NONBONDED TABLE SIZE: 705 POINTS
TCL: Running for 1500000 steps
ETITLE: TS BOND ANGLE DIHED IMPRP ELECT VDW BOUNDARY MISC KINETIC TOTAL TEMP POTENTIAL TOTALAVG TEMPAVG PRESSURE GPRESSURE VOLUME PRESSAVG GPRESSAVG
ENERGY: 0 1.8181 2.7892 1.9558 0.0000 -10838.2631 1464.3889 0.0000 0.0000 1761.2053 -7606.1059 296.5135 -9367.3112 -7606.1059 296.5135 109.3209 186.4128 30745.2432 109.3209 186.4128
ENERGY: 300000 0.3292 2.6565 1.6467 0.0000 -10877.9667 1455.0364 0.0000 0.0000 1825.1027 -7593.1952 307.2711 -9418.2979 -7593.0107 302.1033 -131.3477 -55.9594 30921.9430 -87.7776 -18.2802
ENERGY: 600000 0.7321 3.7878 1.7628 0.0000 -10816.5488 1394.9990 0.0000 0.0000 1794.9114 -7620.3557 302.1882 -9415.2672 -7598.2028 301.3684 -658.5878 -539.7018 30952.7429 -359.8373 -277.9943
ENERGY: 900000 1.5299 2.2496 1.6814 0.0000 -10635.7297 1352.9629 0.0000 0.0000 1768.5471 -7508.7588 297.7495 -9277.3058 -7576.5305 301.8740 -767.1990 -738.8644 31417.2021 -339.4320 -277.3678
ENERGY: 1200000 0.2197 2.4358 1.7876 0.0000 -10863.4943 1440.5609 0.0000 0.0000 1809.1616 -7609.3287 304.5873 -9418.4902 -7570.7344 302.6639 -292.9941 -282.0006 30872.4554 -157.8415 -97.7752
ENERGY: 1500000 0.9032 3.3758 1.5499 0.0000 -10797.9822 1446.3735 0.0000 0.0000 1829.8545 -7515.9252 308.0712 -9345.7797 -7577.8513 302.7412 29.4976 82.1076 30709.3754 -149.3791 -93.8737
TCL: Running FEP window   6: Lambda1 0.7499999999999998 Lambda2 0.6999999999999997 [dLambda -0.050000000000000044]
TCL: Setting parameter firsttimestep to 0
TCL: Setting parameter alchLambda to 0.7499999999999998
Info: NONBONDED TABLE R-SQUARED SPACING: 0.0625
Info: NONBONDED TABLE SIZE: 705 POINTS
TCL: Setting parameter alchLambda2 to 0.6999999999999997
Info: NONBONDED TABLE R-SQUARED SPACING: 0.0625
Info: NONBONDED TABLE SIZE: 705 POINTS
TCL: Running for 1500000 steps
ETITLE: TS BOND ANGLE DIHED IMPRP ELECT VDW BOUNDARY MISC KINETIC TOTAL TEMP POTENTIAL TOTALAVG TEMPAVG PRESSURE GPRESSURE VOLUME PRESSAVG GPRESSAVG
ENERGY: 0 0.9032 3.3758 1.5499 0.0000 -10797.6456 1446.8257 0.0000 0.0000 1828.9577 -7516.0332 307.9202 -9344.9910 -7516.0332 307.9202 5.4764 80.8435 30709.3754 5.4764 80.8435
ENERGY: 300000 0.5253 2.2634 1.5744 0.0000 -10888.7459 1561.5835 0.0000 0.0000 1740.2918 -7582.5075 292.9925 -9322.7993 -7597.1394 299.7119 820.1943 909.0325 31029.8132 -166.7289 -97.1897
ENERGY: 600000 0.8214 2.5370 1.5826 0.0000 -10792.7793 1390.3736 0.0000 0.0000 1766.5035 -7630.9613 297.4055 -9397.4648 -7597.2462 299.5387 -697.2076 -601.8836 30829.8835 -169.7621 -85.0893
ENERGY: 900000 0.6901 3.7890 1.5539 0.0000 -10768.3946 1399.3816 0.0000 0.0000 1745.8733 -7617.1066 293.9322 -9362.9799 -7619.0063 297.1241 -596.4153 -578.6005 31018.7084 -309.3198 -237.5565
ENERGY: 1200000 0.5784 1.7886 1.5917 0.0000 -10731.8109 1414.3331 0.0000 0.0000 1814.9882 -7498.5309 305.5683 -9313.5191 -7606.4289 297.0556 -258.8967 -160.9207 31084.5299 -265.6652 -194.3333
ENERGY: 1500000 0.0649 4.0047 1.7160 0.0000 -10656.8827 1265.9202 0.0000 0.0000 1850.8998 -7534.2771 311.6143 -9385.1769 -7598.1904 298.6325 -1656.8877 -1599.1344 31482.6056 -336.5555 -268.2721
TCL: Running FEP window   7: Lambda1 0.6999999999999997 Lambda2 0.6499999999999997 [dLambda -0.050000000000000044]
TCL: Setting parameter firsttimestep to 0
TCL: Setting parameter alchLambda to 0.6999999999999997
Info: NONBONDED TABLE R-SQUARED SPACING: 0.0625
Info: NONBONDED TABLE SIZE: 705 POINTS
TCL: Setting parameter alchLambda2 to 0.6499999999999997
Info: NONBONDED TABLE R-SQUARED SPACING: 0.0625
Info: NONBONDED TABLE SIZE: 705 POINTS
TCL: Running for 1500000 steps
ETITLE: TS BOND ANGLE DIHED IMPRP ELECT VDW BOUNDARY MISC KINETIC TOTAL TEMP POTENTIAL TOTALAVG TEMPAVG PRESSURE GPRESSURE VOLUME PRESSAVG GPRESSAVG
ENERGY: 0 0.0649 4.0047 1.7160 0.0000 -10656.7403 1266.1693 0.0000 0.0000 1850.0082 -7534.7771 311.4642 -9384.7853 -7534.7771 311.4642 -1676.7182 -1604.1246 31482.6056 -1676.7182 -1604.1246
ENERGY: 300000 0.4309 2.3793 1.7360 0.0000 -10952.4071 1501.1484 0.0000 0.0000 1764.3039 -7682.4085 297.0352 -9446.7124 -7638.1017 300.6800 126.4701 204.9597 30959.5030 -510.8053 -446.1912
ENERGY: 600000 1.1545 3.0659 1.4931 0.0000 -10850.3650 1468.2170 0.0000 0.0000 1791.0624 -7585.3722 301.5402 -9376.4345 -7625.4633 299.7948 49.5982 120.1233 30764.3418 -186.8240 -120.2764
ENERGY: 900000 1.6391 2.6787 1.7586 0.0000 -10822.7965 1416.2479 0.0000 0.0000 1757.1230 -7643.3492 295.8262 -9400.4722 -7628.3622 298.7618 -336.2720 -208.2659 30533.6010 -135.7372 -57.4441
ENERGY: 1200000 0.5871 2.1620 2.4241 0.0000 -10942.1305 1458.2534 0.0000 0.0000 1727.4027 -7751.3012 290.8225 -9478.7039 -7623.8614 299.9681 -162.1117 -157.7716 30419.4112 -143.6636 -68.0138
ENERGY: 1500000 0.2642 2.9308 2.0624 0.0000 -10887.0874 1521.3912 0.0000 0.0000 1737.1328 -7623.3060 292.4607 -9360.4388 -7623.4931 299.8663 615.3235 672.4401 30507.9515 -109.3733 -40.0179
TCL: Running FEP window   8: Lambda1 0.6499999999999997 Lambda2 0.5999999999999996 [dLambda -0.050000000000000044]
TCL: Setting parameter firsttimestep to 0
TCL: Setting parameter alchLambda to 0.6499999999999997
Info: NONBONDED TABLE R-SQUARED SPACING: 0.0625
Info: NONBONDED TABLE SIZE: 705 POINTS
TCL: Setting parameter alchLambda2 to 0.5999999999999996
Info: NONBONDED TABLE R-SQUARED SPACING: 0.0625
Info: NONBONDED TABLE SIZE: 705 POINTS
TCL: Running for 1500000 steps
ETITLE: TS BOND ANGLE DIHED IMPRP ELECT VDW BOUNDARY MISC KINETIC TOTAL TEMP POTENTIAL TOTALAVG TEMPAVG PRESSURE GPRESSURE VOLUME PRESSAVG GPRESSAVG
ENERGY: 0 0.2642 2.9308 2.0624 0.0000 -10886.7527 1521.6653 0.0000 0.0000 1736.2846 -7623.5455 292.3179 -9359.8300 -7623.5455 292.3179 596.0759 669.0595 30507.9515 596.0759 669.0595
ENERGY: 300000 1.1152 4.1247 2.2219 0.0000 -11009.4530 1551.4097 0.0000 0.0000 1818.6730 -7631.9087 306.1886 -9450.5817 -7631.8324 297.7531 901.9563 938.6327 30097.7154 390.6658 451.0969
ENERGY: 600000 2.5789 3.8859 1.5181 0.0000 -10870.2912 1460.5238 0.0000 0.0000 1785.1866 -7616.5978 300.5509 -9401.7844 -7617.0468 299.7796 89.9884 125.0249 30789.7302 228.2919 278.0861
ENERGY: 900000 0.2893 3.4814 1.7904 0.0000 -10812.7354 1455.6609 0.0000 0.0000 1792.3546 -7559.1587 301.7577 -9351.5134 -7618.9543 299.2713 -189.7930 -112.2987 31192.5024 108.5505 161.0440
ENERGY: 1200000 0.7819 2.4716 1.5416 0.0000 -10760.6631 1440.4475 0.0000 0.0000 1750.0801 -7565.3405 294.6405 -9315.4206 -7602.2240 299.9103 26.5753 113.0290 30855.4002 17.8224 75.8068
ENERGY: 1500000 0.6077 2.7074 1.6470 0.0000 -10900.3916 1432.1155 0.0000 0.0000 1780.5421 -7682.7718 299.7690 -9463.3140 -7606.4395 299.8953 -287.4282 -258.0549 30606.3519 27.0639 83.5292
TCL: Running FEP window   9: Lambda1 0.5999999999999996 Lambda2 0.5499999999999996 [dLambda -0.050000000000000044]
TCL: Setting parameter firsttimestep to 0
TCL: Setting parameter alchLambda to 0.5999999999999996
Info: NONBONDED TABLE R-SQUARED SPACING: 0.0625
Info: NONBONDED TABLE SIZE: 705 POINTS
TCL: Setting parameter alchLambda2 to 0.5499999999999996
Info: NONBONDED TABLE R-SQUARED SPACING: 0.0625
Info: NONBONDED TABLE SIZE: 705 POINTS
TCL: Running for 1500000 steps
ETITLE: TS BOND ANGLE DIHED IMPRP ELECT VDW BOUNDARY MISC KINETIC TOTAL TEMP POTENTIAL TOTALAVG TEMPAVG PRESSURE GPRESSURE VOLUME PRESSAVG GPRESSAVG
ENERGY: 0 0.6077 2.7074 1.6470 0.0000 -10900.1867 1431.7473 0.0000 0.0000 1779.6474 -7683.8299 299.6184 -9463.4773 -7683.8299 299.6184 -351.1368 -268.3203 30606.3519 -351.1368 -268.3203
ENERGY: 300000 0.5060 2.6050 1.5338 0.0000 -10850.5559 1453.1216 0.0000 0.0000 1843.4973 -7549.2923 310.3680 -9392.7896 -7623.5652 301.8343 -164.2997 -96.2115 31158.3919 68.9985 131.5756
ENERGY: 600000 3.9601 4.4739 1.5279 0.0000 -10832.5592 1372.4163 0.0000 0.0000 1786.4727 -7663.7084 300.7675 -9450.1810 -7608.8695 300.1502 -981.6889 -978.9649 30914.5409 -104.7313 -48.6952
ENERGY: 900000 0.1876 4.5180 1.9630 0.0000 -10870.0662 1437.9273 0.0000 0.0000 1795.0716 -7630.3987 302.2152 -9425.4703 -7622.8242 299.4025 -202.8981 -162.1502 30668.6077 -191.9283 -141.9054
ENERGY: 1200000 0.2528 1.5283 1.5280 0.0000 -10799.9756 1446.0761 0.0000 0.0000 1787.3555 -7563.2349 300.9161 -9350.5905 -7611.0543 300.7543 153.0623 168.2142 30637.4017 -101.8996 -48.1796
ENERGY: 1500000 0.4728 1.9139 1.5324 0.0000 -10865.2150 1490.3399 0.0000 0.0000 1746.8551 -7624.1009 294.0975 -9370.9560 -7605.4516 300.6701 349.7984 385.7003 30440.5795 -31.8067 21.2255
TCL: Running FEP window  10: Lambda1 0.5499999999999996 Lambda2 0.4999999999999996 [dLambda -0.04999999999999999]
TCL: Setting parameter firsttimestep to 0
TCL: Setting parameter alchLambda to 0.5499999999999996
Info: NONBONDED TABLE R-SQUARED SPACING: 0.0625
Info: NONBONDED TABLE SIZE: 705 POINTS
TCL: Setting parameter alchLambda2 to 0.4999999999999996
Info: NONBONDED TABLE R-SQUARED SPACING: 0.0625
Info: NONBONDED TABLE SIZE: 705 POINTS
TCL: Running for 1500000 steps
ETITLE: TS BOND ANGLE DIHED IMPRP ELECT VDW BOUNDARY MISC KINETIC TOTAL TEMP POTENTIAL TOTALAVG TEMPAVG PRESSURE GPRESSURE VOLUME PRESSAVG GPRESSAVG
ENERGY: 0 0.4728 1.9139 1.5324 0.0000 -10864.9272 1490.4666 0.0000 0.0000 1745.9815 -7624.5600 293.9504 -9370.5415 -7624.5600 293.9504 295.8358 381.0074 30440.5795 295.8358 381.0074
ENERGY: 300000 1.2562 1.8392 1.5694 0.0000 -10996.7059 1541.0591 0.0000 0.0000 1777.1793 -7673.8027 299.2028 -9450.9820 -7627.4007 300.6745 647.5220 671.8096 30303.8913 474.2954 540.9120
ENERGY: 600000 0.6212 3.6979 1.5224 0.0000 -11039.8827 1547.6648 0.0000 0.0000 1812.7226 -7673.6539 305.1868 -9486.3764 -7618.7430 301.8497 348.0229 391.0124 30798.9895 522.4141 585.0247
ENERGY: 900000 0.4873 3.4023 1.6697 0.0000 -10837.1614 1466.2512 0.0000 0.0000 1798.2015 -7567.1494 302.7421 -9365.3509 -7616.8994 302.1903 142.4389 150.2710 30894.5938 318.8470 380.9057
ENERGY: 1200000 1.7207 2.9361 2.0045 0.0000 -10927.6085 1528.5632 0.0000 0.0000 1743.4994 -7648.8848 293.5326 -9392.3842 -7619.3752 300.4432 160.8096 275.7967 31186.6439 303.5025 363.6222
ENERGY: 1500000 0.7919 3.8330 1.6624 0.0000 -10962.4332 1550.9742 0.0000 0.0000 1832.7331 -7572.4386 308.5558 -9405.1717 -7600.0750 302.1137 769.2557 780.0884 30570.5801 317.5657 367.4530
TCL: Running FEP window  11: Lambda1 0.4999999999999996 Lambda2 0.4499999999999996 [dLambda -0.04999999999999999]
TCL: Setting parameter firsttimestep to 0
TCL: Setting parameter alchLambda to 0.4999999999999996
Info: NONBONDED TABLE R-SQUARED SPACING: 0.0625
Info: NONBONDED TABLE SIZE: 705 POINTS
TCL: Setting parameter alchLambda2 to 0.4499999999999996
Info: NONBONDED TABLE R-SQUARED SPACING: 0.0625
Info: NONBONDED TABLE SIZE: 705 POINTS
TCL: Running for 1500000 steps
ETITLE: TS BOND ANGLE DIHED IMPRP ELECT VDW BOUNDARY MISC KINETIC TOTAL TEMP POTENTIAL TOTALAVG TEMPAVG PRESSURE GPRESSURE VOLUME PRESSAVG GPRESSAVG
ENERGY: 0 0.7919 3.8330 1.6624 0.0000 -10962.4991 1551.1103 0.0000 0.0000 1831.8038 -7573.2976 308.3993 -9405.1015 -7573.2976 308.3993 689.8323 774.7303 30570.5801 689.8323 774.7303
ENERGY: 300000 1.5870 0.5556 1.7808 0.0000 -10814.8686 1468.5345 0.0000 0.0000 1876.7692 -7465.6415 315.9696 -9342.4107 -7545.4190 303.6972 169.6287 173.0051 31064.3005 39.3878 104.7826
ENERGY: 600000 0.3956 2.3230 1.5701 0.0000 -10792.7796 1470.0932 0.0000 0.0000 1827.0563 -7491.3415 307.6000 -9318.3978 -7573.0055 303.3106 138.3567 274.8621 30781.5183 79.1803 157.5357
ENERGY: 900000 0.5179 2.1793 1.6362 0.0000 -10855.0239 1465.0094 0.0000 0.0000 1784.1719 -7601.5091 300.3801 -9385.6810 -7571.7170 303.1015 -87.3109 -57.1939 30801.5629 21.4614 86.7088
ENERGY: 1200000 0.7635 4.5360 1.6136 0.0000 -10825.1673 1475.2048 0.0000 0.0000 1782.5601 -7560.4894 300.1087 -9343.0495 -7565.1655 303.7665 70.2325 132.9087 31065.8108 10.4030 76.4376
ENERGY: 1500000 0.2265 2.4681 2.1812 0.0000 -10922.4486 1554.6980 0.0000 0.0000 1824.5174 -7538.3573 307.1726 -9362.8748 -7565.3577 303.9269 882.7921 961.1888 30340.4271 22.0188 89.8801
TCL: Running FEP window  12: Lambda1 0.4499999999999996 Lambda2 0.39999999999999963 [dLambda -0.04999999999999999]
TCL: Setting parameter firsttimestep to 0
TCL: Setting parameter alchLambda to 0.4499999999999996
Info: NONBONDED TABLE R-SQUARED SPACING: 0.0625
Info: NONBONDED TABLE SIZE: 705 POINTS
TCL: Setting parameter alchLambda2 to 0.39999999999999963
Info: NONBONDED TABLE R-SQUARED SPACING: 0.0625
Info: NONBONDED TABLE SIZE: 705 POINTS
TCL: Running for 1500000 steps
ETITLE: TS BOND ANGLE DIHED IMPRP ELECT VDW BOUNDARY MISC KINETIC TOTAL TEMP POTENTIAL TOTALAVG TEMPAVG PRESSURE GPRESSURE VOLUME PRESSAVG GPRESSAVG
ENERGY: 0 0.2265 2.4681 2.1812 0.0000 -10922.4490 1555.0208 0.0000 0.0000 1823.6531 -7538.8993 307.0271 -9362.5524 -7538.8993 307.0271 875.9362 959.3220 30340.4271 875.9362 959.3220
ENERGY: 300000 0.4758 3.8194 1.4954 0.0000 -10744.1047 1395.7107 0.0000 0.0000 1766.6096 -7575.9937 297.4234 -9342.6033 -7582.8013 300.3480 -689.8667 -596.0218 31127.9311 -77.5654 -13.4120
ENERGY: 600000 0.1413 3.5638 1.5214 0.0000 -10831.1779 1445.2089 0.0000 0.0000 1832.5847 -7548.1578 308.5308 -9380.7426 -7593.1714 302.7741 -19.3275 41.7283 30767.0128 -78.1481 -15.3598
ENERGY: 900000 2.9369 5.0577 1.7232 0.0000 -10878.9198 1386.4234 0.0000 0.0000 1737.5126 -7745.2661 292.5246 -9482.7787 -7590.2874 302.7664 -722.6323 -667.3286 30232.7584 -243.4431 -171.0113
ENERGY: 1200000 0.3725 2.6905 1.4802 0.0000 -10872.0704 1470.2396 0.0000 0.0000 1827.2390 -7570.0486 307.6308 -9397.2876 -7586.5938 303.1550 -2.6575 90.2896 30872.7063 -146.2842 -72.8949
ENERGY: 1500000 2.8602 1.8697 1.4831 0.0000 -10974.8480 1454.1502 0.0000 0.0000 1747.5437 -7766.9412 294.2134 -9514.4848 -7607.4858 301.5656 -190.7599 -110.0328 30722.8706 -197.4175 -124.8065
TCL: Running FEP window  13: Lambda1 0.39999999999999963 Lambda2 0.34999999999999964 [dLambda -0.04999999999999999]
TCL: Setting parameter firsttimestep to 0
TCL: Setting parameter alchLambda to 0.39999999999999963
Info: NONBONDED TABLE R-SQUARED SPACING: 0.0625
Info: NONBONDED TABLE SIZE: 705 POINTS
TCL: Setting parameter alchLambda2 to 0.34999999999999964
Info: NONBONDED TABLE R-SQUARED SPACING: 0.0625
Info: NONBONDED TABLE SIZE: 705 POINTS
TCL: Running for 1500000 steps
ETITLE: TS BOND ANGLE DIHED IMPRP ELECT VDW BOUNDARY MISC KINETIC TOTAL TEMP POTENTIAL TOTALAVG TEMPAVG PRESSURE GPRESSURE VOLUME PRESSAVG GPRESSAVG
ENERGY: 0 2.8602 1.8697 1.4831 0.0000 -10974.8504 1454.0970 0.0000 0.0000 1746.6442 -7767.8962 294.0620 -9514.5404 -7767.8962 294.0620 -207.7267 -117.1322 30722.8706 -207.7267 -117.1322
ENERGY: 300000 1.9232 5.1099 2.3511 0.0000 -10783.0234 1427.3735 0.0000 0.0000 1787.3041 -7558.9615 300.9074 -9346.2656 -7622.6235 297.7267 -115.6064 -48.8735 30674.3843 -55.8978 15.9257
ENERGY: 600000 0.6027 3.6247 1.6978 0.0000 -10889.1779 1515.9810 0.0000 0.0000 1778.6609 -7588.6109 299.4523 -9367.2717 -7607.7997 298.8824 536.3559 606.0351 30526.3369 16.9214 87.6413
ENERGY: 900000 0.1796 3.7715 1.6770 0.0000 -10840.5439 1470.1043 0.0000 0.0000 1797.8441 -7566.9674 302.6819 -9364.8115 -7613.0837 298.7385 247.8767 341.0317 30374.5627 -52.6761 18.8444
ENERGY: 1200000 1.5028 1.1110 1.5090 0.0000 -10785.5312 1438.9328 0.0000 0.0000 1765.6159 -7576.8596 297.2560 -9342.4755 -7593.6847 300.0577 122.0996 101.2012 30662.7650 -76.8684 -12.4352
ENERGY: 1500000 0.6836 3.6161 2.1048 0.0000 -10991.9742 1508.6996 0.0000 0.0000 1782.3431 -7694.5271 300.0722 -9476.8701 -7594.7087 300.5000 220.1313 306.0925 30462.3283 -65.3112 2.8586
TCL: Running FEP window  14: Lambda1 0.34999999999999964 Lambda2 0.29999999999999966 [dLambda -0.04999999999999999]
TCL: Setting parameter firsttimestep to 0
TCL: Setting parameter alchLambda to 0.34999999999999964
Info: NONBONDED TABLE R-SQUARED SPACING: 0.0625
Info: NONBONDED TABLE SIZE: 705 POINTS
TCL: Setting parameter alchLambda2 to 0.29999999999999966
Info: NONBONDED TABLE R-SQUARED SPACING: 0.0625
Info: NONBONDED TABLE SIZE: 705 POINTS
TCL: Running for 1500000 steps
ETITLE: TS BOND ANGLE DIHED IMPRP ELECT VDW BOUNDARY MISC KINETIC TOTAL TEMP POTENTIAL TOTALAVG TEMPAVG PRESSURE GPRESSURE VOLUME PRESSAVG GPRESSAVG
ENERGY: 0 0.6836 3.6161 2.1048 0.0000 -10991.9739 1508.6939 0.0000 0.0000 1781.4862 -7695.3894 299.9279 -9476.8755 -7695.3894 299.9279 203.0351 298.1456 30462.3283 203.0351 298.1456
ENERGY: 300000 0.2718 5.1228 1.7315 0.0000 -10906.4060 1489.4830 0.0000 0.0000 1772.3197 -7637.4773 298.3847 -9409.7969 -7608.3367 301.7195 254.2527 272.2588 30789.5945 -173.2717 -100.3507
ENERGY: 600000 1.7082 2.1296 1.9350 0.0000 -10951.2679 1493.9859 0.0000 0.0000 1782.6735 -7668.8357 300.1278 -9451.5091 -7624.6948 299.6902 -126.5892 -6.1526 30612.2303 -29.8445 62.7591
ENERGY: 900000 1.2758 3.9417 1.5115 0.0000 -10825.5280 1396.3444 0.0000 0.0000 1767.9197 -7654.5351 297.6439 -9422.4547 -7620.8412 300.6341 -569.3489 -584.9517 30583.9337 64.9676 134.7037
ENERGY: 1200000 0.8867 4.8023 1.5078 0.0000 -10795.6995 1387.1482 0.0000 0.0000 1821.0237 -7580.3309 306.5844 -9401.3546 -7605.5178 301.1915 -384.0029 -288.3922 30469.4766 -36.6188 31.3629
ENERGY: 1500000 0.1189 5.8853 2.2627 0.0000 -10883.4904 1482.2161 0.0000 0.0000 1791.5477 -7601.4597 301.6219 -9393.0074 -7605.5451 300.8275 -30.8097 40.2531 31009.8013 -98.7529 -30.5735
TCL: Running FEP window  15: Lambda1 0.29999999999999966 Lambda2 0.24999999999999967 [dLambda -0.04999999999999999]
TCL: Setting parameter firsttimestep to 0
TCL: Setting parameter alchLambda to 0.29999999999999966
Info: NONBONDED TABLE R-SQUARED SPACING: 0.0625
Info: NONBONDED TABLE SIZE: 705 POINTS
TCL: Setting parameter alchLambda2 to 0.24999999999999967
Info: NONBONDED TABLE R-SQUARED SPACING: 0.0625
Info: NONBONDED TABLE SIZE: 705 POINTS
TCL: Running for 1500000 steps
ETITLE: TS BOND ANGLE DIHED IMPRP ELECT VDW BOUNDARY MISC KINETIC TOTAL TEMP POTENTIAL TOTALAVG TEMPAVG PRESSURE GPRESSURE VOLUME PRESSAVG GPRESSAVG
ENERGY: 0 0.1189 5.8853 2.2627 0.0000 -10883.4893 1481.7833 0.0000 0.0000 1790.6511 -7602.7880 301.4709 -9393.4391 -7602.7880 301.4709 -63.7419 35.8348 31009.8013 -63.7419 35.8348
ENERGY: 300000 0.7113 2.0470 1.5605 0.0000 -10912.5127 1442.4340 0.0000 0.0000 1790.7486 -7675.0115 301.4873 -9465.7600 -7634.0306 302.5989 -441.2856 -342.0478 30559.4255 -48.5093 33.3361
ENERGY: 600000 1.4992 3.3483 1.4882 0.0000 -10903.3211 1518.2167 0.0000 0.0000 1799.6694 -7579.0993 302.9892 -9378.7688 -7583.9534 304.4980 618.8032 676.3147 30554.2336 -25.6795 55.5216
ENERGY: 900000 0.8045 5.5981 1.5832 0.0000 -10933.0000 1515.8068 0.0000 0.0000 1778.5830 -7630.6244 299.4392 -9409.2074 -7588.1239 303.0839 376.5386 450.1851 30484.3874 6.4676 80.1287
ENERGY: 1200000 0.9158 2.6394 1.5150 0.0000 -10919.4779 1506.6104 0.0000 0.0000 1756.8870 -7650.9103 295.7865 -9407.7973 -7594.8371 301.8061 673.8663 692.5280 30120.2032 53.2568 133.4054
ENERGY: 1500000 2.4751 1.8284 1.5160 0.0000 -10653.6247 1275.9318 0.0000 0.0000 1844.3844 -7527.4890 310.5174 -9371.8733 -7594.1459 301.7935 -1459.0383 -1312.1930 30772.1674 -105.5015 -24.8456
TCL: Running FEP window  16: Lambda1 0.24999999999999967 Lambda2 0.19999999999999968 [dLambda -0.04999999999999999]
TCL: Setting parameter firsttimestep to 0
TCL: Setting parameter alchLambda to 0.24999999999999967
Info: NONBONDED TABLE R-SQUARED SPACING: 0.0625
Info: NONBONDED TABLE SIZE: 705 POINTS
TCL: Setting parameter alchLambda2 to 0.19999999999999968
Info: NONBONDED TABLE R-SQUARED SPACING: 0.0625
Info: NONBONDED TABLE SIZE: 705 POINTS
TCL: Running for 1500000 steps
ETITLE: TS BOND ANGLE DIHED IMPRP ELECT VDW BOUNDARY MISC KINETIC TOTAL TEMP POTENTIAL TOTALAVG TEMPAVG PRESSURE GPRESSURE VOLUME PRESSAVG GPRESSAVG
ENERGY: 0 2.4751 1.8284 1.5160 0.0000 -10653.6247 1276.0847 0.0000 0.0000 1843.4937 -7528.2268 310.3674 -9371.7205 -7528.2268 310.3674 -1397.7880 -1315.0829 30772.1674 -1397.7880 -1315.0829
ENERGY: 300000 1.6221 1.2303 1.7368 0.0000 -10857.6337 1443.9914 0.0000 0.0000 1797.1908 -7611.8623 302.5720 -9409.0531 -7600.5448 301.6122 -247.3463 -170.4268 30579.7557 -524.5608 -458.6449
ENERGY: 600000 0.1665 0.5831 1.5713 0.0000 -10774.8402 1409.2441 0.0000 0.0000 1801.4019 -7561.8732 303.2809 -9363.2752 -7588.4861 301.4672 -556.5274 -462.0063 31006.6868 -278.5611 -215.3840
ENERGY: 900000 0.5329 4.7120 1.5913 0.0000 -10844.9501 1463.3579 0.0000 0.0000 1806.0119 -7568.7441 304.0570 -9374.7560 -7596.8823 301.4961 -75.3734 10.1909 30975.2148 -114.9598 -51.9744
ENERGY: 1200000 0.2974 5.5028 1.6281 0.0000 -10855.8531 1489.2779 0.0000 0.0000 1794.2469 -7564.9001 302.0763 -9359.1469 -7594.7538 301.8176 435.1632 441.6753 30308.1024 -38.1549 19.0363
ENERGY: 1500000 0.3662 4.3973 1.5668 0.0000 -10791.8809 1423.1708 0.0000 0.0000 1831.6633 -7530.7165 308.3757 -9362.3798 -7587.7129 301.8298 34.7088 106.8734 30230.7044 -9.1061 50.1979
TCL: Running FEP window  17: Lambda1 0.19999999999999968 Lambda2 0.1499999999999997 [dLambda -0.04999999999999999]
TCL: Setting parameter firsttimestep to 0
TCL: Setting parameter alchLambda to 0.19999999999999968
Info: NONBONDED TABLE R-SQUARED SPACING: 0.0625
Info: NONBONDED TABLE SIZE: 705 POINTS
TCL: Setting parameter alchLambda2 to 0.1499999999999997
Info: NONBONDED TABLE R-SQUARED SPACING: 0.0625
Info: NONBONDED TABLE SIZE: 705 POINTS
TCL: Running for 1500000 steps
ETITLE: TS BOND ANGLE DIHED IMPRP ELECT VDW BOUNDARY MISC KINETIC TOTAL TEMP POTENTIAL TOTALAVG TEMPAVG PRESSURE GPRESSURE VOLUME PRESSAVG GPRESSAVG
ENERGY: 0 0.3662 4.3973 1.5668 0.0000 -10791.8813 1423.4389 0.0000 0.0000 1830.7782 -7531.3340 308.2267 -9362.1122 -7531.3340 308.2267 31.8563 105.6751 30230.7044 31.8563 105.6751
ENERGY: 300000 1.2971 1.7563 1.6505 0.0000 -10921.5748 1510.6786 0.0000 0.0000 1748.9458 -7657.2467 294.4495 -9406.1924 -7579.7191 300.9014 130.0894 262.9588 30846.9654 -137.9961 -84.8076
ENERGY: 600000 0.2986 3.4043 2.1193 0.0000 -10795.8903 1456.1802 0.0000 0.0000 1766.8066 -7567.0812 297.4565 -9333.8878 -7575.7153 300.2325 39.0480 69.2326 30899.7435 -147.5799 -77.0566
ENERGY: 900000 1.0470 2.7796 1.6928 0.0000 -10845.5651 1503.0576 0.0000 0.0000 1772.4186 -7564.5696 298.4013 -9336.9882 -7583.1536 299.5374 430.9933 380.1446 31004.7717 -89.8719 -35.9711
ENERGY: 1200000 0.5258 4.4968 1.6729 0.0000 -10852.1260 1436.9573 0.0000 0.0000 1808.4424 -7600.0308 304.4663 -9408.4732 -7590.3917 299.2020 -287.1319 -265.4998 30982.4521 -140.9283 -82.9579
ENERGY: 1500000 1.4364 2.8323 1.8933 0.0000 -10687.8001 1372.0489 0.0000 0.0000 1726.6669 -7582.9224 290.6987 -9309.5893 -7590.4765 298.9726 -725.7316 -637.3579 31096.4920 -169.1899 -110.2752
TCL: Running FEP window  18: Lambda1 0.1499999999999997 Lambda2 0.09999999999999969 [dLambda -0.05 ]
TCL: Setting parameter firsttimestep to 0
TCL: Setting parameter alchLambda to 0.1499999999999997
Info: NONBONDED TABLE R-SQUARED SPACING: 0.0625
Info: NONBONDED TABLE SIZE: 705 POINTS
TCL: Setting parameter alchLambda2 to 0.09999999999999969
Info: NONBONDED TABLE R-SQUARED SPACING: 0.0625
Info: NONBONDED TABLE SIZE: 705 POINTS
TCL: Running for 1500000 steps
ETITLE: TS BOND ANGLE DIHED IMPRP ELECT VDW BOUNDARY MISC KINETIC TOTAL TEMP POTENTIAL TOTALAVG TEMPAVG PRESSURE GPRESSURE VOLUME PRESSAVG GPRESSAVG
ENERGY: 0 1.4364 2.8323 1.8933 0.0000 -10687.7993 1370.6715 0.0000 0.0000 1725.7849 -7585.1810 290.5502 -9310.9659 -7585.1810 290.5502 -727.0155 -642.0946 31096.4920 -727.0155 -642.0946
ENERGY: 300000 0.2827 8.0458 1.4980 0.0000 -10991.7097 1534.7483 0.0000 0.0000 1765.5165 -7681.6185 297.2393 -9447.1350 -7613.3872 297.9046 553.3404 610.3173 30460.1980 14.3965 76.4388
ENERGY: 600000 1.9586 2.7782 1.5191 0.0000 -10886.2908 1407.1178 0.0000 0.0000 1795.0212 -7677.8959 302.2067 -9472.9171 -7614.5364 300.7618 -761.6689 -695.0060 30782.2614 -116.2855 -65.1517
ENERGY: 900000 1.3380 2.1891 1.4826 0.0000 -10781.3152 1416.6042 0.0000 0.0000 1737.3912 -7622.3101 292.5042 -9359.7013 -7620.3185 299.7221 -362.3249 -319.7344 30914.2702 -240.3864 -196.7484
ENERGY: 1200000 1.6501 1.8826 1.5183 0.0000 -10948.1080 1531.1745 0.0000 0.0000 1799.2390 -7612.6435 302.9168 -9411.8825 -7617.3459 300.7424 265.6537 408.7139 30755.8977 -242.8199 -183.8613
ENERGY: 1500000 2.2516 1.7304 1.5212 0.0000 -10762.8453 1451.2687 0.0000 0.0000 1750.8243 -7555.2491 294.7658 -9306.0734 -7614.6489 300.1024 -238.4042 -123.8110 31180.9129 -127.8377 -68.7298
TCL: Running FEP window  19: Lambda1 0.09999999999999969 Lambda2 0.049999999999999684 [dLambda -0.05 ]
TCL: Setting parameter firsttimestep to 0
TCL: Setting parameter alchLambda to 0.09999999999999969
Info: NONBONDED TABLE R-SQUARED SPACING: 0.0625
Info: NONBONDED TABLE SIZE: 705 POINTS
TCL: Setting parameter alchLambda2 to 0.049999999999999684
Info: NONBONDED TABLE R-SQUARED SPACING: 0.0625
Info: NONBONDED TABLE SIZE: 705 POINTS
TCL: Running for 1500000 steps
ETITLE: TS BOND ANGLE DIHED IMPRP ELECT VDW BOUNDARY MISC KINETIC TOTAL TEMP POTENTIAL TOTALAVG TEMPAVG PRESSURE GPRESSURE VOLUME PRESSAVG GPRESSAVG
ENERGY: 0 2.2516 1.7304 1.5212 0.0000 -10762.8437 1451.6289 0.0000 0.0000 1749.9166 -7555.7951 294.6129 -9305.7117 -7555.7951 294.6129 -202.7984 -124.4004 31180.9129 -202.7984 -124.4004
ENERGY: 300000 1.2485 2.7461 1.4818 0.0000 -10821.5072 1457.9669 0.0000 0.0000 1811.5546 -7546.5093 304.9902 -9358.0638 -7582.3249 299.1549 -102.1290 -40.3701 30977.2567 28.6693 77.7120
ENERGY: 600000 0.3164 3.8958 2.2506 0.0000 -10727.6950 1381.3989 0.0000 0.0000 1798.2454 -7541.5879 302.7495 -9339.8334 -7573.5975 300.6764 -778.6579 -673.3666 31495.7195 -89.5947 -25.4831
ENERGY: 900000 2.7654 3.7910 2.3876 0.0000 -10896.5522 1531.6775 0.0000 0.0000 1808.6766 -7547.2541 304.5057 -9355.9307 -7574.4308 300.5620 490.0909 589.9379 30901.1918 -49.6178 21.0002
ENERGY: 1200000 1.3668 3.7892 1.6359 0.0000 -10821.6652 1434.3907 0.0000 0.0000 1756.4756 -7624.0069 295.7172 -9380.4825 -7580.6984 300.6331 -126.1996 -73.7703 30473.7180 -53.8483 20.4025
ENERGY: 1500000 0.0670 1.4155 1.5830 0.0000 -10856.8803 1404.0265 0.0000 0.0000 1789.6658 -7660.1226 301.3051 -9449.7884 -7592.8283 300.0668 -478.8312 -436.6313 30545.4752 -115.9762 -46.4418
TCL: Running FEP window  20: Lambda1 0.049999999999999684 Lambda2 0.0    [dLambda -0.049999999999999684]
TCL: Setting parameter firsttimestep to 0
TCL: Setting parameter alchLambda to 0.049999999999999684
Info: NONBONDED TABLE R-SQUARED SPACING: 0.0625
Info: NONBONDED TABLE SIZE: 705 POINTS
TCL: Setting parameter alchLambda2 to 0.0
Info: NONBONDED TABLE R-SQUARED SPACING: 0.0625
Info: NONBONDED TABLE SIZE: 705 POINTS
TCL: Running for 1500000 steps
ETITLE: TS BOND ANGLE DIHED IMPRP ELECT VDW BOUNDARY MISC KINETIC TOTAL TEMP POTENTIAL TOTALAVG TEMPAVG PRESSURE GPRESSURE VOLUME PRESSAVG GPRESSAVG
ENERGY: 0 0.0670 1.4155 1.5830 0.0000 -10856.8819 1403.4092 0.0000 0.0000 1788.7954 -7661.6118 301.1585 -9450.4072 -7661.6118 301.1585 -519.7511 -440.8872 30545.4752 -519.7511 -440.8872
ENERGY: 300000 0.3865 2.0361 1.6460 0.0000 -10880.2594 1477.2383 0.0000 0.0000 1836.9764 -7561.9761 309.2702 -9398.9524 -7583.8262 305.7303 240.1986 314.0774 30394.6051 -375.0472 -284.9487
ENERGY: 600000 1.0423 4.3992 1.4725 0.0000 -10795.3300 1418.1871 0.0000 0.0000 1750.7059 -7619.5230 294.7458 -9370.2290 -7584.2277 302.5823 -460.4969 -330.0963 30814.5187 -283.9050 -210.4331
ENERGY: 900000 0.6293 0.9893 1.6925 0.0000 -10918.1716 1503.8077 0.0000 0.0000 1743.3518 -7667.7010 293.5077 -9411.0528 -7593.5200 300.7518 351.2673 389.5267 30418.4402 -123.1561 -60.1351
ENERGY: 1200000 3.6092 4.3160 1.7744 0.0000 -10852.8564 1493.1317 0.0000 0.0000 1762.8059 -7587.2192 296.7830 -9350.0251 -7591.2468 299.3737 373.7793 474.9872 30377.4805 -112.1264 -42.7510
ENERGY: 1500000 0.1869 1.7666 1.5054 0.0000 -10820.8115 1438.8743 0.0000 0.0000 1765.1860 -7613.2923 297.1837 -9378.4783 -7594.6325 299.1447 -33.7384 51.3793 30404.5803 -39.6547 28.0945
TCL: Exiting due to exit command.
