Info: SIMULATION PARAMETERS:
Info: TIMESTEP               2
Info: NUMBER OF STEPS        0
Info: STEPS PER CYCLE        10
Info: PERIODIC CELL BASIS 1  32.0904 0 0
Info: PERIODIC CELL BASIS 2  0 30.3028 0
Info: PERIODIC CELL BASIS 3  0 0 31.5968
Info: PERIODIC CELL CENTER   0 0 0
Info: WRAPPING WATERS AROUND PERIODIC BOUNDARIES ON OUTPUT.
Info: WRAPPING ALL CLUSTERS AROUND PERIODIC BOUNDARIES ON OUTPUT.
Info: FIRST LDB TIMESTEP     50
Info: LAST LDB TIMESTEP     -1
Info: HOM BACKGROUND SCALING 1
Info: PME BACKGROUND SCALING 1
Info: MIN ATOMS PER PATCH    40
Info: EMPTY PATCH LOAD       40 ATOMS
Info: VELOCITY FILE          mobley_7794077_equil.vel
Info: CENTER OF MASS MOVING INITIALLY? NO
Info: DIELECTRIC             1
Info: EXCLUDE                SCALED ONE-FOUR
Info: 1-4 ELECTROSTATICS SCALED BY 0.833333
Info: MODIFIED 1-4 VDW PARAMETERS WILL BE USED
Info: DCD FILENAME           mobley_7794077_prod.dcd
Info: DCD FREQUENCY          100000
Info: DCD FIRST STEP         100000
Info: DCD FILE WILL CONTAIN UNIT CELL DATA
Info: XST FILENAME           mobley_7794077_prod.xst
Info: XST FREQUENCY          100000
Info: NO VELOCITY DCD OUTPUT
Info: NO FORCE DCD OUTPUT
Info: OUTPUT FILENAME        mobley_7794077_prod
Info: BINARY OUTPUT FILES WILL BE USED
Info: RESTART FILENAME       mobley_7794077_prod.restart
Info: RESTART FREQUENCY      100000
Info: BINARY RESTART FILES WILL BE USED
Info: CUTOFF                 9
Info: PAIRLIST DISTANCE      11
Info: PAIRLIST SHRINK RATE   0.01
Info: PAIRLIST GROW RATE     0.01
Info: PAIRLIST TRIGGER       0.3
Info: PAIRLISTS PER CYCLE    2
Info: PAIRLISTS ENABLED
Info: MARGIN                 2
Info: HYDROGEN GROUP CUTOFF  2.5
Info: PATCH DIMENSION        15.5
Info: ENERGY OUTPUT STEPS    100000
Info: ENERGY EVALUATION STEPS    100000
Info: OUTPUT ENERGY PRECISION 4
Info: CROSSTERM ENERGY INCLUDED IN DIHEDRAL
Info: TIMING OUTPUT STEPS    1000000
Info: PRESSURE OUTPUT STEPS  100000
Info: ALCHEMICAL FEP ON
Info: FEP CURRENT LAMBDA VALUE     0
Info: FEP COMPARISON LAMBDA VALUE  0.05
Info: FEP INTRA-ALCHEMICAL NON-BONDED INTERACTIONS WILL BE RETAINED
Info: FEP INTRA-ALCHEMICAL BONDED INTERACTIONS WILL BE RETAINED
Info: FEP VDW SHIFTING COEFFICIENT 5
Info: FEP ELEC. ACTIVE FOR ANNIHILATED PARTICLES BETWEEN LAMBDA = 0 AND LAMBDA = 0.5
Info: FEP ELEC. ACTIVE FOR EXNIHILATED PARTICLES BETWEEN LAMBDA = 0.5 AND LAMBDA = 1
Info: FEP VDW ACTIVE FOR ANNIHILATED PARTICLES BETWEEN LAMBDA = 0 AND LAMBDA = 1
Info: FEP VDW ACTIVE FOR EXNIHILATED PARTICLES BETWEEN LAMBDA = 0 AND LAMBDA = 1
Info: FEP BOND ACTIVE FOR ANNIHILATED PARTICLES BETWEEN LAMBDA = 1 AND LAMBDA = 1
Info: FEP BOND ACTIVE FOR EXNIHILATED PARTICLES BETWEEN LAMBDA = 0 AND LAMBDA = 0
Info: LANGEVIN DYNAMICS ACTIVE
Info: LANGEVIN TEMPERATURE   300
Info: LANGEVIN USING BBK INTEGRATOR
Info: LANGEVIN DAMPING COEFFICIENT IS 1 INVERSE PS
Info: LANGEVIN DYNAMICS APPLIED TO HYDROGENS
Info: LANGEVIN PISTON PRESSURE CONTROL ACTIVE
Info:        TARGET PRESSURE IS 1.01325 BAR
Info:     OSCILLATION PERIOD IS 50 FS
Info:             DECAY TIME IS 25 FS
Info:     PISTON TEMPERATURE IS 300 K
Info:       PRESSURE CONTROL IS GROUP-BASED
Info:    INITIAL STRAIN RATE IS -2.61061e-05 -2.61061e-05 -2.61061e-05
Info:       CELL FLUCTUATION IS ISOTROPIC
Info: PARTICLE MESH EWALD (PME) ACTIVE
Info: PME TOLERANCE               1e-06
Info: PME EWALD COEFFICIENT       0.348832
Info: PME INTERPOLATION ORDER     4
Info: PME GRID DIMENSIONS         36 32 32
Info: PME MAXIMUM GRID SPACING    1
Info: PME CALCULATION WILL BE PERFORMED ON GPU
Info: FULL ELECTROSTATIC EVALUATION FREQUENCY      2
Info: USING VERLET I (r-RESPA) MTS SCHEME.
Info: C1 SPLITTING OF LONG RANGE ELECTROSTATICS
Info: PLACING ATOMS IN PATCHES BY HYDROGEN GROUPS
Info: RIGID BONDS TO HYDROGEN : ALL
Info:         ERROR TOLERANCE : 1e-08
Info:          MAX ITERATIONS : 100
Info: RIGID WATER USING SETTLE ALGORITHM
Info: RANDOM NUMBER SEED     1743574675
Info: USE HYDROGEN BONDS?    NO
Info: Using AMBER format force field!
Info: AMBER PARM FILE        mobley_7794077.prmtop
Info: COORDINATE PDB         mobley_7794077.pdb
Info: Exclusions will be read from PARM file!
Info: SCNB (VDW SCALING)     2
Info: USING ARITHMETIC MEAN TO COMBINE L-J SIGMA PARAMETERS
Info: BINARY COORDINATES     mobley_7794077_equil.coor
Info: SUMMARY OF PARAMETERS:
Info: 11 BONDS
Info: 16 ANGLES
Info:   16 HARMONIC
Info:   0 COSINE-BASED
Info: 8 DIHEDRAL
Info: 0 IMPROPER
Info: 0 CROSSTERM
Info: 0 VDW
Info: 45 VDW_PAIRS
Info: 0 NBTHOLE_PAIRS
Info: To read alchdata from file: mobley_7794077.pdb
Info: To read alchflag data from column: 5
Info: STRUCTURE SUMMARY:
Info: 2964 ATOMS
Info: 2964 BONDS
Info: 24 ANGLES
Info: 39 DIHEDRALS
Info: 0 IMPROPERS
Info: 0 CROSSTERMS
Info: 3015 EXCLUSIONS
Info: 2952 RIGID BONDS
Info: ALCH: 0 ATOMS TO DISAPPEAR IN FINAL STATE
Info: ALCH: 15 ATOMS TO APPEAR IN FINAL STATE
Info: 5940 DEGREES OF FREEDOM
Info: 995 HYDROGEN GROUPS
Info: 3 ATOMS IN LARGEST HYDROGEN GROUP
Info: 995 MIGRATION GROUPS
Info: 3 ATOMS IN LARGEST MIGRATION GROUP
Info: TOTAL MASS = 17889.8 amu
Info: TOTAL CHARGE = 9.98527e-05 e
Info: MASS DENSITY = 0.96686 g/cm^3
Info: ATOM DENSITY = 0.0964665 atoms/A^3
Info: ADDED 0 IMPLICIT EXCLUSIONS
Info: NONBONDED TABLE R-SQUARED SPACING: 0.0625
Info: NONBONDED TABLE SIZE: 705 POINTS
Info: REMOVING COM VELOCITY -0.163311 0.198465 0.0351742
Info: Use 3D box decompostion in PME FFT.
Info: Updated CUDA force table with 4096 elements.
Info: Updated CUDA LJ table with 9 x 9 elements.
Info: Found 17 unique exclusion lists needing 40 bytes
TCL: Running for 1500000 steps
ETITLE: TS BOND ANGLE DIHED IMPRP ELECT VDW BOUNDARY MISC KINETIC TOTAL TEMP POTENTIAL TOTALAVG TEMPAVG PRESSURE GPRESSURE VOLUME PRESSAVG GPRESSAVG
ENERGY: 0 2.1884 8.2852 14.1126 0.0000 -10956.9078 1431.9131 0.0000 0.0000 1708.5665 -7791.8419 289.4915 -9500.4085 -7791.8419 289.4915 -428.9173 -345.1589 30725.7045 -428.9173 -345.1589
ENERGY: 300000 6.4502 6.7030 15.9289 0.0000 -11013.4928 1436.0784 0.0000 0.0000 1768.5231 -7779.8092 299.6503 -9548.3323 -7756.6553 297.6371 -276.2799 -290.4051 30476.4677 -260.1621 -210.6049
ENERGY: 600000 4.2629 4.7761 13.6829 0.0000 -10914.6610 1421.2739 0.0000 0.0000 1746.9976 -7723.6676 296.0031 -9470.6652 -7719.2944 300.0164 -201.8523 -89.8944 30348.1236 -74.1984 -3.6257
ENERGY: 900000 6.5224 6.1828 15.4287 0.0000 -10898.2152 1369.7175 0.0000 0.0000 1716.2513 -7784.1126 290.7936 -9500.3639 -7713.7805 300.0121 -892.7012 -747.4807 30536.0463 -112.2928 -36.4377
ENERGY: 1200000 4.0550 5.1098 13.0704 0.0000 -11108.2159 1540.2609 0.0000 0.0000 1789.6874 -7756.0324 303.2362 -9545.7198 -7713.3828 300.3899 636.1502 686.5140 29940.9768 -15.2445 58.6505
ENERGY: 1500000 7.2041 9.6227 14.4673 0.0000 -10889.6876 1352.1375 0.0000 0.0000 1745.0460 -7761.2099 295.6724 -9506.2560 -7716.9630 301.0068 -899.8796 -854.0768 30191.9107 -63.8192 4.6807
TCL: Running FEP window   2: Lambda1 0.05   Lambda2 0.1    [dLambda 0.05  ]
TCL: Setting parameter firsttimestep to 0
TCL: Setting parameter alchLambda to 0.05
Info: NONBONDED TABLE R-SQUARED SPACING: 0.0625
Info: NONBONDED TABLE SIZE: 705 POINTS
TCL: Setting parameter alchLambda2 to 0.1
Info: NONBONDED TABLE R-SQUARED SPACING: 0.0625
Info: NONBONDED TABLE SIZE: 705 POINTS
TCL: Running for 1500000 steps
ETITLE: TS BOND ANGLE DIHED IMPRP ELECT VDW BOUNDARY MISC KINETIC TOTAL TEMP POTENTIAL TOTALAVG TEMPAVG PRESSURE GPRESSURE VOLUME PRESSAVG GPRESSAVG
ENERGY: 0 7.2042 9.6227 14.4673 0.0000 -10889.6875 1355.0202 0.0000 0.0000 1744.1498 -7759.2233 295.5206 -9503.3732 -7759.2233 295.5206 -918.8784 -846.4769 30191.9107 -918.8784 -846.4769
ENERGY: 300000 7.7606 8.8258 16.8735 0.0000 -10885.9222 1402.8359 0.0000 0.0000 1773.1164 -7676.5100 300.4285 -9449.6264 -7718.7117 299.1694 -460.7603 -370.1302 30650.6407 -287.2028 -213.7048
ENERGY: 600000 4.4386 6.9204 16.0684 0.0000 -10802.2695 1300.0220 0.0000 0.0000 1763.9606 -7710.8596 298.8772 -9474.8202 -7695.2119 300.0067 -1267.1465 -1241.9677 30458.7283 -362.3331 -296.8091
ENERGY: 900000 4.1093 4.6491 13.2809 0.0000 -10945.7669 1366.2629 0.0000 0.0000 1694.7874 -7862.6773 287.1568 -9557.4647 -7715.9018 296.6066 -797.6267 -752.0920 30137.3920 -298.1076 -235.8738
ENERGY: 1200000 3.3298 4.3650 15.9538 0.0000 -10823.3042 1405.0021 0.0000 0.0000 1791.9436 -7602.7100 303.6185 -9394.6536 -7702.7240 297.8723 -487.8298 -383.6589 30996.2532 -300.9889 -234.3680
ENERGY: 1500000 4.4278 7.9671 15.3089 0.0000 -11133.7369 1558.3370 0.0000 0.0000 1733.3274 -7814.3687 293.6869 -9547.6961 -7706.4969 298.3767 794.0782 820.0657 30154.4517 -184.3190 -123.2409
TCL: Running FEP window   3: Lambda1 0.1    Lambda2 0.15000000000000002 [dLambda 0.05000000000000002]
TCL: Setting parameter firsttimestep to 0
TCL: Setting parameter alchLambda to 0.1
Info: NONBONDED TABLE R-SQUARED SPACING: 0.0625
Info: NONBONDED TABLE SIZE: 705 POINTS
TCL: Setting parameter alchLambda2 to 0.15000000000000002
Info: NONBONDED TABLE R-SQUARED SPACING: 0.0625
Info: NONBONDED TABLE SIZE: 705 POINTS
TCL: Running for 1500000 steps
ETITLE: TS BOND ANGLE DIHED IMPRP ELECT VDW BOUNDARY MISC KINETIC TOTAL TEMP POTENTIAL TOTALAVG TEMPAVG PRESSURE GPRESSURE VOLUME PRESSAVG GPRESSAVG
ENERGY: 0 4.4278 7.9671 15.3089 0.0000 -11133.7381 1563.9901 0.0000 0.0000 1732.4841 -7809.5600 293.5440 -9542.0441 -7809.5600 293.5440 744.5304 836.9698 30154.4517 744.5304 836.9698
ENERGY: 300000 9.6531 3.0863 15.1132 0.0000 -11021.5591 1475.3964 0.0000 0.0000 1767.8369 -7750.4731 299.5340 -9518.3100 -7756.1612 300.4184 -30.2297 94.2619 30341.8328 410.3511 457.9927
ENERGY: 600000 4.2119 4.4570 12.7227 0.0000 -10940.9937 1444.9451 0.0000 0.0000 1795.1178 -7679.5392 304.1563 -9474.6570 -7738.5259 298.8477 18.9310 70.5822 30127.8109 342.6580 382.6712
ENERGY: 900000 3.2777 6.9985 13.5082 0.0000 -10966.1469 1397.4302 0.0000 0.0000 1806.1323 -7738.8001 306.0226 -9544.9324 -7733.2965 300.5333 -414.0091 -310.1559 30109.9869 67.2444 117.6337
ENERGY: 1200000 6.4470 3.1280 14.9191 0.0000 -10967.1160 1452.3959 0.0000 0.0000 1746.8635 -7743.3626 295.9804 -9490.2261 -7730.8248 299.3202 21.5352 79.4089 30527.2879 79.6111 131.3790
ENERGY: 1500000 7.8453 8.5263 15.0556 0.0000 -10896.2472 1428.4658 0.0000 0.0000 1745.8201 -7690.5342 295.8036 -9436.3543 -7725.8127 298.8839 -10.2653 -4.4868 30346.2334 75.2964 120.7848
TCL: Running FEP window   4: Lambda1 0.15000000000000002 Lambda2 0.2    [dLambda 0.04999999999999999]
TCL: Setting parameter firsttimestep to 0
TCL: Setting parameter alchLambda to 0.15000000000000002
Info: NONBONDED TABLE R-SQUARED SPACING: 0.0625
Info: NONBONDED TABLE SIZE: 705 POINTS
TCL: Setting parameter alchLambda2 to 0.2
Info: NONBONDED TABLE R-SQUARED SPACING: 0.0625
Info: NONBONDED TABLE SIZE: 705 POINTS
TCL: Running for 1500000 steps
ETITLE: TS BOND ANGLE DIHED IMPRP ELECT VDW BOUNDARY MISC KINETIC TOTAL TEMP POTENTIAL TOTALAVG TEMPAVG PRESSURE GPRESSURE VOLUME PRESSAVG GPRESSAVG
ENERGY: 0 7.8452 8.5263 15.0556 0.0000 -10896.2464 1429.4509 0.0000 0.0000 1744.9448 -7690.4236 295.6553 -9435.3684 -7690.4236 295.6553 -64.0954 1.1788 30346.2334 -64.0954 1.1788
ENERGY: 300000 4.0983 4.4557 13.9852 0.0000 -11027.4658 1502.5178 0.0000 0.0000 1792.6730 -7709.7359 303.7421 -9502.4089 -7703.8817 298.2795 375.7797 496.6571 30110.8353 7.8227 68.4721
ENERGY: 600000 3.3305 3.4858 16.5395 0.0000 -11063.3225 1560.2667 0.0000 0.0000 1776.0979 -7703.6021 300.9337 -9479.7000 -7691.7356 300.4502 698.2278 775.4635 30538.8935 95.7650 153.3455
ENERGY: 900000 4.0682 4.8952 13.9875 0.0000 -11029.7691 1492.7850 0.0000 0.0000 1776.8340 -7737.1992 301.0584 -9514.0332 -7697.7967 298.9646 555.0121 599.0430 29929.9098 45.1945 101.6186
ENERGY: 1200000 4.1633 6.6696 15.8617 0.0000 -11144.9076 1578.2394 0.0000 0.0000 1835.7117 -7704.2619 311.0344 -9539.9736 -7701.3543 299.8718 1190.9573 1288.3677 29821.3343 153.9738 216.3474
ENERGY: 1500000 4.7975 4.6371 14.8700 0.0000 -10935.3283 1400.8600 0.0000 0.0000 1702.2724 -7807.8913 288.4251 -9510.1637 -7705.6770 299.7600 -368.7024 -229.1481 30211.1906 81.0743 152.1470
TCL: Running FEP window   5: Lambda1 0.2    Lambda2 0.25   [dLambda 0.04999999999999999]
TCL: Setting parameter firsttimestep to 0
TCL: Setting parameter alchLambda to 0.2
Info: NONBONDED TABLE R-SQUARED SPACING: 0.0625
Info: NONBONDED TABLE SIZE: 705 POINTS
TCL: Setting parameter alchLambda2 to 0.25
Info: NONBONDED TABLE R-SQUARED SPACING: 0.0625
Info: NONBONDED TABLE SIZE: 705 POINTS
TCL: Running for 1500000 steps
ETITLE: TS BOND ANGLE DIHED IMPRP ELECT VDW BOUNDARY MISC KINETIC TOTAL TEMP POTENTIAL TOTALAVG TEMPAVG PRESSURE GPRESSURE VOLUME PRESSAVG GPRESSAVG
ENERGY: 0 4.7975 4.6371 14.8700 0.0000 -10935.3286 1401.2174 0.0000 0.0000 1701.4026 -7808.4039 288.2777 -9509.8065 -7808.4039 288.2777 -318.7780 -224.3023 30211.1906 -318.7780 -224.3023
ENERGY: 300000 2.4622 4.3740 14.6665 0.0000 -10863.5339 1430.5694 0.0000 0.0000 1792.0420 -7619.4199 303.6352 -9411.4619 -7691.3453 300.3807 63.2582 57.7403 30247.4647 -61.1985 -1.9584
ENERGY: 600000 3.4449 6.4004 14.2661 0.0000 -10884.2023 1337.5992 0.0000 0.0000 1808.3598 -7714.1319 306.4000 -9522.4917 -7693.5513 301.0973 -1126.9980 -1024.7772 30777.6268 -83.5348 -19.9250
ENERGY: 900000 3.4413 4.4677 15.0428 0.0000 -10910.6464 1398.3229 0.0000 0.0000 1775.3478 -7714.0239 300.8066 -9489.3717 -7700.3976 301.1513 -469.8729 -432.7115 30526.4192 -99.2783 -34.1394
ENERGY: 1200000 3.4079 6.1076 15.3862 0.0000 -10925.7998 1470.1979 0.0000 0.0000 1751.5293 -7679.1710 296.7709 -9430.7003 -7705.5820 300.2854 182.4767 175.6591 30447.9663 -138.2250 -80.3590
ENERGY: 1500000 5.1518 5.7528 13.8009 0.0000 -10852.3904 1423.3651 0.0000 0.0000 1709.2624 -7695.0574 289.6094 -9404.3199 -7697.5527 299.8189 -340.5380 -138.8078 30534.4488 -176.1601 -113.0378
TCL: Running FEP window   6: Lambda1 0.25   Lambda2 0.3    [dLambda 0.04999999999999999]
TCL: Setting parameter firsttimestep to 0
TCL: Setting parameter alchLambda to 0.25
Info: NONBONDED TABLE R-SQUARED SPACING: 0.0625
Info: NONBONDED TABLE SIZE: 705 POINTS
TCL: Setting parameter alchLambda2 to 0.3
Info: NONBONDED TABLE R-SQUARED SPACING: 0.0625
Info: NONBONDED TABLE SIZE: 705 POINTS
TCL: Running for 1500000 steps
ETITLE: TS BOND ANGLE DIHED IMPRP ELECT VDW BOUNDARY MISC KINETIC TOTAL TEMP POTENTIAL TOTALAVG TEMPAVG PRESSURE GPRESSURE VOLUME PRESSAVG GPRESSAVG
ENERGY: 0 5.1518 5.7528 13.8009 0.0000 -10852.3896 1423.2181 0.0000 0.0000 1708.3772 -7696.0888 289.4594 -9404.4660 -7696.0888 289.4594 -235.7145 -138.8759 30534.4488 -235.7145 -138.8759
ENERGY: 300000 7.8813 4.0811 15.1636 0.0000 -10964.0316 1519.9726 0.0000 0.0000 1809.0443 -7607.8887 306.5160 -9416.9331 -7714.5930 297.0088 641.3802 693.7149 30811.6837 471.4882 559.3707
ENERGY: 600000 5.5371 4.7693 12.6707 0.0000 -10938.0667 1426.8604 0.0000 0.0000 1821.3388 -7666.8903 308.5991 -9488.2291 -7715.6517 298.3808 -142.0853 -117.7859 30371.3708 173.4696 240.2656
ENERGY: 900000 3.1706 6.7774 17.1503 0.0000 -10822.6810 1318.6699 0.0000 0.0000 1822.2155 -7654.6973 308.7477 -9476.9128 -7711.2310 299.3027 -1087.5992 -990.3083 30622.8944 15.5817 84.7702
ENERGY: 1200000 5.2240 2.0429 16.3915 0.0000 -11038.4360 1485.4828 0.0000 0.0000 1744.6249 -7784.6700 295.6011 -9529.2949 -7719.4126 299.0487 223.2233 321.3013 30442.7172 -34.7213 36.8289
ENERGY: 1500000 4.1904 4.1253 13.4805 0.0000 -11007.6319 1480.3154 0.0000 0.0000 1765.5649 -7739.9553 299.1491 -9505.5202 -7724.2214 298.7776 270.3433 362.1321 30432.3112 -61.0582 8.0517
TCL: Running FEP window   7: Lambda1 0.3    Lambda2 0.35   [dLambda 0.04999999999999999]
TCL: Setting parameter firsttimestep to 0
TCL: Setting parameter alchLambda to 0.3
Info: NONBONDED TABLE R-SQUARED SPACING: 0.0625
Info: NONBONDED TABLE SIZE: 705 POINTS
TCL: Setting parameter alchLambda2 to 0.35
Info: NONBONDED TABLE R-SQUARED SPACING: 0.0625
Info: NONBONDED TABLE SIZE: 705 POINTS
TCL: Running for 1500000 steps
ETITLE: TS BOND ANGLE DIHED IMPRP ELECT VDW BOUNDARY MISC KINETIC TOTAL TEMP POTENTIAL TOTALAVG TEMPAVG PRESSURE GPRESSURE VOLUME PRESSAVG GPRESSAVG
ENERGY: 0 4.1904 4.1253 13.4805 0.0000 -11007.6309 1479.7074 0.0000 0.0000 1764.6780 -7741.4493 298.9988 -9506.1273 -7741.4493 298.9988 283.4625 360.9256 30432.3112 283.4625 360.9256
ENERGY: 300000 6.6562 3.7903 14.6104 0.0000 -10986.2026 1544.0674 0.0000 0.0000 1759.0114 -7658.0670 298.0387 -9417.0783 -7692.1802 296.9534 952.5418 995.9330 30122.8819 316.0168 372.2855
ENERGY: 600000 2.9511 5.1843 13.9975 0.0000 -10851.5588 1393.0146 0.0000 0.0000 1757.4828 -7678.9284 297.7797 -9436.4112 -7703.9100 296.1929 -514.3781 -489.1993 30656.6844 10.8759 66.1515
ENERGY: 900000 6.7598 6.5623 13.9560 0.0000 -10904.6048 1422.8040 0.0000 0.0000 1810.4570 -7644.0659 306.7554 -9454.5229 -7691.7631 298.1137 -9.3804 34.9118 30630.4805 42.0519 100.6580
ENERGY: 1200000 3.0813 3.0092 13.7622 0.0000 -11059.5175 1498.2449 0.0000 0.0000 1763.8223 -7777.5976 298.8538 -9541.4199 -7698.6316 298.7672 261.4041 352.2677 30326.6541 -79.4445 -14.1030
ENERGY: 1500000 4.6025 5.1747 14.7340 0.0000 -10939.5754 1461.2138 0.0000 0.0000 1775.7765 -7678.0740 300.8792 -9453.8505 -7700.6635 298.9813 126.1802 248.9304 30705.3398 -60.4163 3.4379
TCL: Running FEP window   8: Lambda1 0.35   Lambda2 0.39999999999999997 [dLambda 0.04999999999999999]
TCL: Setting parameter firsttimestep to 0
TCL: Setting parameter alchLambda to 0.35
Info: NONBONDED TABLE R-SQUARED SPACING: 0.0625
Info: NONBONDED TABLE SIZE: 705 POINTS
TCL: Setting parameter alchLambda2 to 0.39999999999999997
Info: NONBONDED TABLE R-SQUARED SPACING: 0.0625
Info: NONBONDED TABLE SIZE: 705 POINTS
TCL: Running for 1500000 steps
ETITLE: TS BOND ANGLE DIHED IMPRP ELECT VDW BOUNDARY MISC KINETIC TOTAL TEMP POTENTIAL TOTALAVG TEMPAVG PRESSURE GPRESSURE VOLUME PRESSAVG GPRESSAVG
ENERGY: 0 4.6025 5.1747 14.7340 0.0000 -10939.5758 1461.2028 0.0000 0.0000 1774.8942 -7678.9677 300.7298 -9453.8619 -7678.9677 300.7298 168.3833 254.3591 30705.3398 168.3833 254.3591
ENERGY: 300000 7.4575 4.4168 15.6815 0.0000 -10947.0596 1409.8635 0.0000 0.0000 1850.5325 -7659.1077 313.5456 -9509.6402 -7665.0700 302.4447 -85.3705 -48.4231 30254.3416 -56.0644 -0.2126
ENERGY: 600000 3.5900 3.7319 16.0860 0.0000 -10940.9356 1416.7325 0.0000 0.0000 1809.5386 -7691.2567 306.5997 -9500.7952 -7698.3418 303.6154 -352.7962 -238.0866 30304.3004 -236.5261 -177.0801
ENERGY: 900000 2.0244 5.4848 15.1366 0.0000 -11000.3630 1449.2318 0.0000 0.0000 1741.9550 -7786.5306 295.1487 -9528.4856 -7715.3242 301.7577 -344.5310 -289.2810 30820.1478 -233.3217 -169.3891
ENERGY: 1200000 4.2321 10.3758 14.5063 0.0000 -11045.6167 1514.7668 0.0000 0.0000 1817.4628 -7684.2729 307.9424 -9501.7357 -7691.7475 303.5577 797.0159 845.4274 30353.8909 -209.9695 -140.0142
ENERGY: 1500000 3.2142 6.9899 16.0484 0.0000 -11059.3694 1507.5194 0.0000 0.0000 1776.5219 -7749.0757 301.0055 -9525.5975 -7692.4246 303.5817 407.7784 451.9622 30341.7037 -214.5314 -147.6469
TCL: Running FEP window   9: Lambda1 0.39999999999999997 Lambda2 0.44999999999999996 [dLambda 0.04999999999999999]
TCL: Setting parameter firsttimestep to 0
TCL: Setting parameter alchLambda to 0.39999999999999997
Info: NONBONDED TABLE R-SQUARED SPACING: 0.0625
Info: NONBONDED TABLE SIZE: 705 POINTS
TCL: Setting parameter alchLambda2 to 0.44999999999999996
Info: NONBONDED TABLE R-SQUARED SPACING: 0.0625
Info: NONBONDED TABLE SIZE: 705 POINTS
TCL: Running for 1500000 steps
ETITLE: TS BOND ANGLE DIHED IMPRP ELECT VDW BOUNDARY MISC KINETIC TOTAL TEMP POTENTIAL TOTALAVG TEMPAVG PRESSURE GPRESSURE VOLUME PRESSAVG GPRESSAVG
ENERGY: 0 3.2142 6.9899 16.0484 0.0000 -11059.3694 1507.5137 0.0000 0.0000 1775.6505 -7749.9527 300.8579 -9525.6032 -7749.9527 300.8579 380.4378 455.9157 30341.7037 380.4378 455.9157
ENERGY: 300000 2.1711 6.0698 14.9398 0.0000 -10964.8549 1425.4818 0.0000 0.0000 1776.5004 -7739.6919 301.0019 -9516.1923 -7726.1941 302.9729 -491.4496 -402.6753 30892.8373 -125.9472 -33.7986
ENERGY: 600000 4.6877 9.2054 14.7264 0.0000 -10935.0919 1456.4044 0.0000 0.0000 1808.6981 -7641.3700 306.4573 -9450.0681 -7720.5111 303.1468 274.7863 292.7172 30640.2823 -204.5371 -137.3389
ENERGY: 900000 3.0465 8.1395 15.2279 0.0000 -11012.9049 1503.0342 0.0000 0.0000 1738.4048 -7745.0521 294.5472 -9483.4569 -7711.0177 301.3969 147.6451 250.8814 30559.5986 -145.4253 -73.9293
ENERGY: 1200000 5.3922 7.3007 14.8057 0.0000 -10785.4129 1393.5807 0.0000 0.0000 1740.6124 -7623.7212 294.9212 -9364.3336 -7696.3720 301.4882 -221.6310 -233.7158 30771.1883 -136.2687 -73.0441
ENERGY: 1500000 3.5038 6.2516 14.4870 0.0000 -11004.4022 1505.2185 0.0000 0.0000 1742.4181 -7732.5232 295.2272 -9474.9413 -7692.4549 301.5326 184.5768 270.3549 30661.6522 -134.2183 -68.6829
TCL: Running FEP window  10: Lambda1 0.44999999999999996 Lambda2 0.49999999999999994 [dLambda 0.04999999999999999]
TCL: Setting parameter firsttimestep to 0
TCL: Setting parameter alchLambda to 0.44999999999999996
Info: NONBONDED TABLE R-SQUARED SPACING: 0.0625
Info: NONBONDED TABLE SIZE: 705 POINTS
TCL: Setting parameter alchLambda2 to 0.49999999999999994
Info: NONBONDED TABLE R-SQUARED SPACING: 0.0625
Info: NONBONDED TABLE SIZE: 705 POINTS
TCL: Running for 1500000 steps
ETITLE: TS BOND ANGLE DIHED IMPRP ELECT VDW BOUNDARY MISC KINETIC TOTAL TEMP POTENTIAL TOTALAVG TEMPAVG PRESSURE GPRESSURE VOLUME PRESSAVG GPRESSAVG
ENERGY: 0 3.5038 6.2516 14.4871 0.0000 -11004.4024 1506.2828 0.0000 0.0000 1741.5383 -7732.3389 295.0781 -9473.8772 -7732.3389 295.0781 194.3615 280.8138 30661.6522 194.3615 280.8138
ENERGY: 300000 2.6596 12.9539 20.0783 0.0000 -10964.1301 1438.3345 0.0000 0.0000 1762.3692 -7727.7346 298.6076 -9490.1037 -7723.9134 299.2619 -340.4624 -265.1720 30433.5971 -273.4200 -200.9245
ENERGY: 600000 7.6146 5.3849 14.5839 0.0000 -10895.0024 1437.8249 0.0000 0.0000 1815.1683 -7614.4258 307.5536 -9429.5941 -7696.4265 299.6617 -26.0680 18.6419 31024.4517 -181.6224 -118.9812
ENERGY: 900000 6.9019 5.3618 15.0405 0.0000 -11037.6263 1526.7566 0.0000 0.0000 1797.2882 -7686.2773 304.5241 -9483.5655 -7705.7205 299.7336 748.4715 783.6929 30330.2523 126.0028 178.6247
ENERGY: 1200000 4.2931 3.3258 14.5675 0.0000 -10945.8156 1460.2879 0.0000 0.0000 1783.0452 -7680.2962 302.1108 -9463.3414 -7700.9178 300.2968 170.1546 294.6915 30495.0353 121.9553 175.5335
ENERGY: 1500000 5.0213 7.2912 15.2304 0.0000 -10995.2919 1518.9651 0.0000 0.0000 1771.2456 -7677.5383 300.1116 -9448.7839 -7703.3438 300.1500 843.9160 836.6452 30361.5167 128.5730 183.9601
TCL: Running FEP window  11: Lambda1 0.49999999999999994 Lambda2 0.5499999999999999 [dLambda 0.04999999999999999]
TCL: Setting parameter firsttimestep to 0
TCL: Setting parameter alchLambda to 0.49999999999999994
Info: NONBONDED TABLE R-SQUARED SPACING: 0.0625
Info: NONBONDED TABLE SIZE: 705 POINTS
TCL: Setting parameter alchLambda2 to 0.5499999999999999
Info: NONBONDED TABLE R-SQUARED SPACING: 0.0625
Info: NONBONDED TABLE SIZE: 705 POINTS
TCL: Running for 1500000 steps
ETITLE: TS BOND ANGLE DIHED IMPRP ELECT VDW BOUNDARY MISC KINETIC TOTAL TEMP POTENTIAL TOTALAVG TEMPAVG PRESSURE GPRESSURE VOLUME PRESSAVG GPRESSAVG
ENERGY: 0 5.0213 7.2912 15.2304 0.0000 -10995.2917 1518.7955 0.0000 0.0000 1770.3684 -7678.5849 299.9629 -9448.9533 -7678.5849 299.9629 756.9994 843.3671 30361.5167 756.9994 843.3671
ENERGY: 300000 7.4772 4.7025 15.7851 0.0000 -11031.1923 1544.2077 0.0000 0.0000 1770.9042 -7688.1156 300.0537 -9459.0198 -7697.1824 299.4779 724.3444 762.3117 30849.4793 798.7167 864.4987
ENERGY: 600000 8.7326 9.4302 14.8616 0.0000 -11153.5958 1598.4996 0.0000 0.0000 1771.4672 -7750.6047 300.1491 -9522.0719 -7724.5397 298.2700 794.8959 865.2059 31059.9457 485.8178 560.6575
ENERGY: 900000 5.4282 6.2596 17.9270 0.0000 -10866.0709 1415.0444 0.0000 0.0000 1736.8089 -7684.6028 294.2768 -9421.4118 -7709.5954 300.1666 -411.6557 -343.7365 30893.6177 408.1288 485.5851
ENERGY: 1200000 5.8202 6.3970 12.9376 0.0000 -10817.0884 1346.7668 0.0000 0.0000 1740.3933 -7704.7734 294.8841 -9445.1667 -7708.9336 300.1306 -606.9164 -583.6579 30674.7800 301.9744 370.6682
ENERGY: 1500000 3.4927 4.9259 13.3719 0.0000 -10919.0664 1434.7302 0.0000 0.0000 1777.2384 -7685.3073 301.1270 -9462.5457 -7704.8176 300.9963 -372.3465 -268.7458 31214.9919 239.2854 303.4739
TCL: Running FEP window  12: Lambda1 0.5499999999999999 Lambda2 0.6    [dLambda 0.050000000000000044]
TCL: Setting parameter firsttimestep to 0
TCL: Setting parameter alchLambda to 0.5499999999999999
Info: NONBONDED TABLE R-SQUARED SPACING: 0.0625
Info: NONBONDED TABLE SIZE: 705 POINTS
TCL: Setting parameter alchLambda2 to 0.6
Info: NONBONDED TABLE R-SQUARED SPACING: 0.0625
Info: NONBONDED TABLE SIZE: 705 POINTS
TCL: Running for 1500000 steps
ETITLE: TS BOND ANGLE DIHED IMPRP ELECT VDW BOUNDARY MISC KINETIC TOTAL TEMP POTENTIAL TOTALAVG TEMPAVG PRESSURE GPRESSURE VOLUME PRESSAVG GPRESSAVG
ENERGY: 0 3.4927 4.9259 13.3719 0.0000 -10919.7683 1434.9173 0.0000 0.0000 1776.3632 -7686.6973 300.9787 -9463.0605 -7686.6973 300.9787 -338.1904 -264.7735 31214.9919 -338.1904 -264.7735
ENERGY: 300000 4.4859 4.5778 14.4448 0.0000 -10914.6524 1365.7198 0.0000 0.0000 1744.1861 -7781.2379 295.5267 -9525.4241 -7738.9519 298.6878 -757.9281 -764.4825 30432.1449 -460.2972 -430.8102
ENERGY: 600000 3.5721 5.7282 14.5915 0.0000 -11036.5857 1428.7500 0.0000 0.0000 1800.2175 -7783.7264 305.0204 -9583.9439 -7726.2689 300.6100 -483.2765 -457.8953 30546.0786 -376.1345 -340.4574
ENERGY: 900000 4.8506 5.0413 16.7960 0.0000 -10817.1568 1357.0933 0.0000 0.0000 1782.3563 -7651.0191 301.9941 -9433.3754 -7720.0387 299.8960 -546.7710 -511.7007 30553.6523 -356.6531 -307.7704
ENERGY: 1200000 4.2389 5.2186 13.8835 0.0000 -10880.7292 1413.5150 0.0000 0.0000 1799.3135 -7644.5597 304.8673 -9443.8732 -7723.5321 299.0048 -515.4046 -427.5618 31127.3911 -299.9898 -243.9442
ENERGY: 1500000 8.2602 6.5589 14.1423 0.0000 -10902.3137 1385.4915 0.0000 0.0000 1765.9688 -7721.8921 299.2175 -9487.8609 -7729.1178 299.1279 -410.0404 -316.6142 30565.0486 -287.8235 -237.9861
TCL: Running FEP window  13: Lambda1 0.6    Lambda2 0.65   [dLambda 0.050000000000000044]
TCL: Setting parameter firsttimestep to 0
TCL: Setting parameter alchLambda to 0.6
Info: NONBONDED TABLE R-SQUARED SPACING: 0.0625
Info: NONBONDED TABLE SIZE: 705 POINTS
TCL: Setting parameter alchLambda2 to 0.65
Info: NONBONDED TABLE R-SQUARED SPACING: 0.0625
Info: NONBONDED TABLE SIZE: 705 POINTS
TCL: Running for 1500000 steps
ETITLE: TS BOND ANGLE DIHED IMPRP ELECT VDW BOUNDARY MISC KINETIC TOTAL TEMP POTENTIAL TOTALAVG TEMPAVG PRESSURE GPRESSURE VOLUME PRESSAVG GPRESSAVG
ENERGY: 0 8.2602 6.5589 14.1423 0.0000 -10903.2091 1387.1106 0.0000 0.0000 1765.1082 -7722.0290 299.0717 -9487.1372 -7722.0290 299.0717 -385.3380 -294.4304 30565.0486 -385.3380 -294.4304
ENERGY: 300000 4.7951 4.0322 13.3448 0.0000 -10857.0793 1357.6471 0.0000 0.0000 1813.3238 -7663.9362 307.2411 -9477.2600 -7700.6137 301.0310 -621.7247 -546.4679 30610.1903 -206.5633 -126.8690
ENERGY: 600000 2.2515 7.7858 14.3126 0.0000 -10944.4883 1435.3483 0.0000 0.0000 1795.4122 -7689.3779 304.2062 -9484.7901 -7700.1887 301.5260 22.9293 121.4981 30419.5910 -68.6597 13.5180
ENERGY: 900000 3.8029 6.6290 14.5813 0.0000 -10902.2122 1416.3760 0.0000 0.0000 1735.1654 -7725.6576 293.9983 -9460.8230 -7689.7380 300.4770 -215.0101 -267.8886 30724.7589 16.8986 84.2976
ENERGY: 1200000 5.8622 5.3146 15.6966 0.0000 -10930.0710 1420.4576 0.0000 0.0000 1791.2508 -7691.4892 303.5012 -9482.7400 -7702.4514 300.4677 -251.4101 -174.9970 30490.8945 109.2987 175.2032
ENERGY: 1500000 4.9717 6.5805 13.9735 0.0000 -10964.6847 1399.8789 0.0000 0.0000 1738.7771 -7800.5031 294.6103 -9539.2802 -7706.5835 299.8384 -1078.4748 -950.5894 31236.0531 113.8328 186.3465
TCL: Running FEP window  14: Lambda1 0.65   Lambda2 0.7000000000000001 [dLambda 0.050000000000000044]
TCL: Setting parameter firsttimestep to 0
TCL: Setting parameter alchLambda to 0.65
Info: NONBONDED TABLE R-SQUARED SPACING: 0.0625
Info: NONBONDED TABLE SIZE: 705 POINTS
TCL: Setting parameter alchLambda2 to 0.7000000000000001
Info: NONBONDED TABLE R-SQUARED SPACING: 0.0625
Info: NONBONDED TABLE SIZE: 705 POINTS
TCL: Running for 1500000 steps
ETITLE: TS BOND ANGLE DIHED IMPRP ELECT VDW BOUNDARY MISC KINETIC TOTAL TEMP POTENTIAL TOTALAVG TEMPAVG PRESSURE GPRESSURE VOLUME PRESSAVG GPRESSAVG
ENERGY: 0 4.9717 6.5805 13.9735 0.0000 -10965.1589 1400.3493 0.0000 0.0000 1737.8899 -7801.3941 294.4599 -9539.2840 -7801.3941 294.4599 -1024.9697 -936.8112 31236.0531 -1024.9697 -936.8112
ENERGY: 300000 1.7579 6.1331 15.6082 0.0000 -10940.1359 1440.7304 0.0000 0.0000 1841.2046 -7634.7017 311.9651 -9475.9063 -7733.7233 299.7745 346.9474 423.6164 30219.5983 -480.2506 -426.5707
ENERGY: 600000 2.8751 4.5805 13.2707 0.0000 -11014.5611 1517.9300 0.0000 0.0000 1755.7109 -7720.1940 297.4794 -9475.9049 -7756.2636 296.6331 477.5642 596.0748 30127.2264 -248.3446 -171.5437
ENERGY: 900000 5.7073 7.9417 14.9501 0.0000 -11028.8053 1428.9443 0.0000 0.0000 1794.6468 -7776.6152 304.0765 -9571.2619 -7756.2640 297.2853 -154.2414 -191.1864 30403.1502 -243.7050 -174.9332
ENERGY: 1200000 3.2328 7.3765 13.1483 0.0000 -10951.9311 1448.8512 0.0000 0.0000 1765.1581 -7714.1642 299.0801 -9479.3223 -7743.7618 297.3384 -40.3578 -15.2643 30706.1951 -71.0994 -7.9276
ENERGY: 1500000 4.7130 6.0727 15.0078 0.0000 -10953.4402 1426.6320 0.0000 0.0000 1764.8433 -7736.1714 299.0268 -9501.0147 -7736.0350 297.4814 -279.5239 -229.7717 30834.2386 -97.8612 -35.0077
TCL: Running FEP window  15: Lambda1 0.7000000000000001 Lambda2 0.7500000000000001 [dLambda 0.050000000000000044]
TCL: Setting parameter firsttimestep to 0
TCL: Setting parameter alchLambda to 0.7000000000000001
Info: NONBONDED TABLE R-SQUARED SPACING: 0.0625
Info: NONBONDED TABLE SIZE: 705 POINTS
TCL: Setting parameter alchLambda2 to 0.7500000000000001
Info: NONBONDED TABLE R-SQUARED SPACING: 0.0625
Info: NONBONDED TABLE SIZE: 705 POINTS
TCL: Running for 1500000 steps
ETITLE: TS BOND ANGLE DIHED IMPRP ELECT VDW BOUNDARY MISC KINETIC TOTAL TEMP POTENTIAL TOTALAVG TEMPAVG PRESSURE GPRESSURE VOLUME PRESSAVG GPRESSAVG
ENERGY: 0 4.7130 6.0727 15.0078 0.0000 -10955.6461 1426.8642 0.0000 0.0000 1763.9470 -7739.0414 298.8749 -9502.9884 -7739.0414 298.8749 -316.8896 -223.5296 30834.2386 -316.8896 -223.5296
ENERGY: 300000 4.1866 5.9781 14.1068 0.0000 -11100.7087 1514.7552 0.0000 0.0000 1798.1200 -7763.5619 304.6650 -9561.6820 -7728.4154 297.7934 20.2214 28.9319 31262.2715 -245.1438 -159.3047
ENERGY: 600000 4.1883 6.0543 13.5901 0.0000 -11085.3996 1505.5202 0.0000 0.0000 1713.5365 -7842.5101 290.3336 -9556.0466 -7727.3987 299.2746 288.6133 297.2157 30415.7444 -117.8181 -51.6205
ENERGY: 900000 8.3624 4.3016 13.9047 0.0000 -10976.8874 1458.6601 0.0000 0.0000 1718.9537 -7772.7049 291.2515 -9491.6586 -7731.7476 297.0136 395.6850 500.7493 30347.5535 18.0805 89.3345
ENERGY: 1200000 3.5714 2.7753 15.1459 0.0000 -11000.7688 1429.7552 0.0000 0.0000 1751.1020 -7798.4190 296.6985 -9549.5210 -7730.5469 298.0221 -181.8473 -146.5496 30387.8186 -47.7752 18.6929
ENERGY: 1500000 7.9123 9.4300 16.4761 0.0000 -10855.9365 1356.3203 0.0000 0.0000 1752.4777 -7713.3202 296.9316 -9465.7978 -7728.3198 297.9724 -455.0030 -348.8627 30156.6389 -50.9988 20.3136
TCL: Running FEP window  16: Lambda1 0.7500000000000001 Lambda2 0.8000000000000002 [dLambda 0.050000000000000044]
TCL: Setting parameter firsttimestep to 0
TCL: Setting parameter alchLambda to 0.7500000000000001
Info: NONBONDED TABLE R-SQUARED SPACING: 0.0625
Info: NONBONDED TABLE SIZE: 705 POINTS
TCL: Setting parameter alchLambda2 to 0.8000000000000002
Info: NONBONDED TABLE R-SQUARED SPACING: 0.0625
Info: NONBONDED TABLE SIZE: 705 POINTS
TCL: Running for 1500000 steps
ETITLE: TS BOND ANGLE DIHED IMPRP ELECT VDW BOUNDARY MISC KINETIC TOTAL TEMP POTENTIAL TOTALAVG TEMPAVG PRESSURE GPRESSURE VOLUME PRESSAVG GPRESSAVG
ENERGY: 0 7.9123 9.4300 16.4761 0.0000 -10860.0578 1356.8873 0.0000 0.0000 1751.6079 -7717.7441 296.7842 -9469.3521 -7717.7441 296.7842 -411.9863 -340.2415 30156.6389 -411.9863 -340.2415
ENERGY: 300000 5.0530 7.5020 14.2231 0.0000 -10907.3820 1471.4204 0.0000 0.0000 1754.7854 -7654.3982 297.3226 -9409.1835 -7695.7644 299.3421 736.9111 790.7280 30132.1010 118.1730 199.1676
ENERGY: 600000 3.4402 3.8083 15.4314 0.0000 -10837.4139 1338.5455 0.0000 0.0000 1774.5382 -7701.6503 300.6694 -9476.1885 -7712.4191 300.9072 -986.3150 -1015.7361 30776.5625 -74.4708 5.2077
ENERGY: 900000 5.8175 3.9102 14.7102 0.0000 -11195.9701 1656.5440 0.0000 0.0000 1819.0646 -7695.9236 308.2138 -9514.9881 -7712.7781 301.0663 1729.8812 1859.1192 30185.5079 46.0257 130.5305
ENERGY: 1200000 9.8230 4.2753 15.8480 0.0000 -11094.5178 1521.4546 0.0000 0.0000 1755.5063 -7787.6105 297.4448 -9543.1168 -7713.4584 301.2286 783.7830 841.4785 30064.0467 188.8613 270.7935
ENERGY: 1500000 4.9608 7.6729 13.2786 0.0000 -11109.0968 1507.1465 0.0000 0.0000 1777.1016 -7798.9363 301.1038 -9576.0379 -7713.3728 301.3387 29.5826 82.9372 30590.8644 146.5118 222.8838
TCL: Running FEP window  17: Lambda1 0.8000000000000002 Lambda2 0.8500000000000002 [dLambda 0.050000000000000044]
TCL: Setting parameter firsttimestep to 0
TCL: Setting parameter alchLambda to 0.8000000000000002
Info: NONBONDED TABLE R-SQUARED SPACING: 0.0625
Info: NONBONDED TABLE SIZE: 705 POINTS
TCL: Setting parameter alchLambda2 to 0.8500000000000002
Info: NONBONDED TABLE R-SQUARED SPACING: 0.0625
Info: NONBONDED TABLE SIZE: 705 POINTS
TCL: Running for 1500000 steps
ETITLE: TS BOND ANGLE DIHED IMPRP ELECT VDW BOUNDARY MISC KINETIC TOTAL TEMP POTENTIAL TOTALAVG TEMPAVG PRESSURE GPRESSURE VOLUME PRESSAVG GPRESSAVG
ENERGY: 0 4.9608 7.6729 13.2786 0.0000 -11110.8218 1507.1724 0.0000 0.0000 1776.2450 -7801.4920 300.9586 -9577.7371 -7801.4920 300.9586 22.1171 90.3242 30590.8644 22.1171 90.3242
ENERGY: 300000 5.4354 5.3784 15.5240 0.0000 -11118.0153 1493.0479 0.0000 0.0000 1794.7618 -7803.8678 304.0960 -9598.6297 -7743.9247 301.6234 233.0640 300.5326 30309.6450 -102.6395 -51.9713
ENERGY: 600000 1.5621 3.6048 15.0248 0.0000 -11056.9435 1481.4018 0.0000 0.0000 1829.1041 -7726.2460 309.9148 -9555.3501 -7751.0715 302.1827 -124.2023 -16.6505 30706.6554 -46.3117 8.8774
ENERGY: 900000 4.8025 3.1203 15.1073 0.0000 -10944.0485 1444.3366 0.0000 0.0000 1781.7875 -7694.8943 301.8977 -9476.6818 -7747.7801 300.5868 51.0289 76.9017 30674.5636 -128.3970 -60.8029
ENERGY: 1200000 5.2966 4.1777 14.1282 0.0000 -11079.3890 1529.6105 0.0000 0.0000 1779.0545 -7747.1216 301.4347 -9526.1761 -7751.9695 300.0696 599.3789 732.9678 30087.3378 54.2084 121.0373
ENERGY: 1500000 4.5668 5.3476 13.8694 0.0000 -11012.5830 1483.8279 0.0000 0.0000 1774.0434 -7730.9280 300.5856 -9504.9714 -7745.1658 300.4301 526.9630 568.7663 30304.8389 101.8721 160.9450
TCL: Running FEP window  18: Lambda1 0.8500000000000002 Lambda2 0.9000000000000002 [dLambda 0.050000000000000044]
TCL: Setting parameter firsttimestep to 0
TCL: Setting parameter alchLambda to 0.8500000000000002
Info: NONBONDED TABLE R-SQUARED SPACING: 0.0625
Info: NONBONDED TABLE SIZE: 705 POINTS
TCL: Setting parameter alchLambda2 to 0.9000000000000002
Info: NONBONDED TABLE R-SQUARED SPACING: 0.0625
Info: NONBONDED TABLE SIZE: 705 POINTS
TCL: Running for 1500000 steps
ETITLE: TS BOND ANGLE DIHED IMPRP ELECT VDW BOUNDARY MISC KINETIC TOTAL TEMP POTENTIAL TOTALAVG TEMPAVG PRESSURE GPRESSURE VOLUME PRESSAVG GPRESSAVG
ENERGY: 0 4.5668 5.3476 13.8694 0.0000 -11015.4277 1483.9914 0.0000 0.0000 1773.1828 -7734.4698 300.4398 -9507.6526 -7734.4698 300.4398 479.3055 578.1434 30304.8389 479.3055 578.1434
ENERGY: 300000 4.9642 8.0092 14.2941 0.0000 -11001.9578 1449.5078 0.0000 0.0000 1808.5171 -7716.6654 306.4267 -9525.1825 -7719.3079 306.0210 35.0381 48.3100 30474.4362 169.1212 211.5946
ENERGY: 600000 6.2897 5.4513 15.8944 0.0000 -10934.5654 1441.0046 0.0000 0.0000 1795.3859 -7670.5395 304.2018 -9465.9254 -7713.7129 302.4602 104.2080 151.8586 30233.5013 319.6920 371.5633
ENERGY: 900000 6.1400 7.6620 15.8235 0.0000 -10911.7168 1404.0064 0.0000 0.0000 1773.6604 -7704.4245 300.5207 -9478.0849 -7723.3596 301.2050 -127.9368 -98.3078 30113.0500 221.4787 267.7584
ENERGY: 1200000 3.8268 4.1727 14.2763 0.0000 -10965.6370 1437.8365 0.0000 0.0000 1751.8521 -7753.6725 296.8256 -9505.5247 -7733.1760 301.5101 76.8037 204.2833 30133.7496 149.0720 203.1669
ENERGY: 1500000 4.0940 5.2498 13.6466 0.0000 -11059.4130 1451.0018 0.0000 0.0000 1751.1615 -7834.2593 296.7086 -9585.4208 -7730.2274 301.3421 -36.3986 46.4212 30317.4509 91.3865 140.3267
TCL: Running FEP window  19: Lambda1 0.9000000000000002 Lambda2 0.9500000000000003 [dLambda 0.050000000000000044]
TCL: Setting parameter firsttimestep to 0
TCL: Setting parameter alchLambda to 0.9000000000000002
Info: NONBONDED TABLE R-SQUARED SPACING: 0.0625
Info: NONBONDED TABLE SIZE: 705 POINTS
TCL: Setting parameter alchLambda2 to 0.9500000000000003
Info: NONBONDED TABLE R-SQUARED SPACING: 0.0625
Info: NONBONDED TABLE SIZE: 705 POINTS
TCL: Running for 1500000 steps
ETITLE: TS BOND ANGLE DIHED IMPRP ELECT VDW BOUNDARY MISC KINETIC TOTAL TEMP POTENTIAL TOTALAVG TEMPAVG PRESSURE GPRESSURE VOLUME PRESSAVG GPRESSAVG
ENERGY: 0 4.0940 5.2498 13.6466 0.0000 -11061.5868 1451.2256 0.0000 0.0000 1750.2950 -7837.0758 296.5618 -9587.3708 -7837.0758 296.5618 -21.8278 58.3922 30317.4509 -21.8278 58.3922
ENERGY: 300000 7.0316 7.0382 14.0850 0.0000 -11106.6663 1538.5585 0.0000 0.0000 1725.3927 -7814.5604 292.3425 -9539.9531 -7751.8473 297.1662 906.0543 935.2243 29972.2762 -57.8890 8.3881
ENERGY: 600000 2.1821 7.8028 15.0633 0.0000 -10908.5839 1408.7803 0.0000 0.0000 1791.2741 -7683.4814 303.5051 -9474.7555 -7741.4784 297.3018 -341.8999 -298.5698 30642.8011 -173.4594 -111.4892
ENERGY: 900000 5.7485 7.7667 13.0105 0.0000 -10753.3656 1295.8795 0.0000 0.0000 1788.8900 -7642.0704 303.1011 -9430.9604 -7738.6934 297.5594 -1181.2242 -1169.6750 31152.1173 -163.0209 -107.6788
ENERGY: 1200000 5.4478 5.4741 13.9444 0.0000 -11049.7777 1471.3330 0.0000 0.0000 1750.1700 -7803.4084 296.5406 -9553.5784 -7734.4969 297.9509 318.4356 392.9259 30216.5538 -99.2021 -48.0014
ENERGY: 1500000 5.0313 4.4473 12.9204 0.0000 -11023.4593 1466.1754 0.0000 0.0000 1784.5499 -7750.3350 302.3658 -9534.8849 -7740.0030 298.0359 -220.0551 -126.9442 30936.3638 -57.9610 -6.0251
TCL: Running FEP window  20: Lambda1 0.9500000000000003 Lambda2 1.0    [dLambda 0.04999999999999971]
TCL: Setting parameter firsttimestep to 0
TCL: Setting parameter alchLambda to 0.9500000000000003
Info: NONBONDED TABLE R-SQUARED SPACING: 0.0625
Info: NONBONDED TABLE SIZE: 705 POINTS
TCL: Setting parameter alchLambda2 to 1.0
Info: NONBONDED TABLE R-SQUARED SPACING: 0.0625
Info: NONBONDED TABLE SIZE: 705 POINTS
TCL: Running for 1500000 steps
ETITLE: TS BOND ANGLE DIHED IMPRP ELECT VDW BOUNDARY MISC KINETIC TOTAL TEMP POTENTIAL TOTALAVG TEMPAVG PRESSURE GPRESSURE VOLUME PRESSAVG GPRESSAVG
ENERGY: 0 5.0313 4.4473 12.9204 0.0000 -11026.4035 1465.7538 0.0000 0.0000 1783.6954 -7754.5553 302.2210 -9538.2507 -7754.5553 302.2210 -201.6207 -127.8123 30936.3638 -201.6207 -127.8123
ENERGY: 300000 5.3628 12.2884 15.2188 0.0000 -11175.4869 1529.5392 0.0000 0.0000 1797.7964 -7815.2813 304.6102 -9613.0776 -7738.3870 306.8365 438.4294 480.9630 30339.6524 247.4647 311.5311
ENERGY: 600000 8.0318 5.8486 15.3168 0.0000 -10960.6879 1478.2496 0.0000 0.0000 1758.0039 -7695.2371 297.8679 -9453.2410 -7723.3282 305.1191 418.4998 513.2822 30660.7401 106.7274 183.2828
ENERGY: 900000 2.8306 8.7929 14.9626 0.0000 -10946.1373 1412.2359 0.0000 0.0000 1755.5547 -7751.7607 297.4530 -9507.3154 -7734.0718 303.3418 -158.8740 -126.2009 30155.4860 97.5587 164.8533
ENERGY: 1200000 4.0579 6.2194 13.6050 0.0000 -11184.8556 1510.8845 0.0000 0.0000 1825.8293 -7824.2596 309.3600 -9650.0888 -7732.3319 303.5332 212.6068 311.4693 30286.3636 -4.6727 64.1030
ENERGY: 1500000 6.8878 9.9026 15.1542 0.0000 -11014.7059 1471.0699 0.0000 0.0000 1786.8982 -7724.7933 302.7637 -9511.6914 -7729.7952 303.1870 247.6536 322.6742 30700.2321 45.2215 113.9132
TCL: Exiting due to exit command.
