Info: SIMULATION PARAMETERS:
Info: TIMESTEP               2
Info: NUMBER OF STEPS        0
Info: STEPS PER CYCLE        10
Info: PERIODIC CELL BASIS 1  31.2183 0 0
Info: PERIODIC CELL BASIS 2  0 29.7862 0
Info: PERIODIC CELL BASIS 3  0 0 33.1667
Info: PERIODIC CELL CENTER   0 0 0
Info: WRAPPING WATERS AROUND PERIODIC BOUNDARIES ON OUTPUT.
Info: WRAPPING ALL CLUSTERS AROUND PERIODIC BOUNDARIES ON OUTPUT.
Info: FIRST LDB TIMESTEP     50
Info: LAST LDB TIMESTEP     -1
Info: HOM BACKGROUND SCALING 1
Info: PME BACKGROUND SCALING 1
Info: MIN ATOMS PER PATCH    40
Info: EMPTY PATCH LOAD       40 ATOMS
Info: VELOCITY FILE          mobley_4035953_equil.vel
Info: CENTER OF MASS MOVING INITIALLY? NO
Info: DIELECTRIC             1
Info: EXCLUDE                SCALED ONE-FOUR
Info: 1-4 ELECTROSTATICS SCALED BY 0.833333
Info: MODIFIED 1-4 VDW PARAMETERS WILL BE USED
Info: DCD FILENAME           mobley_4035953_prod.dcd
Info: DCD FREQUENCY          100000
Info: DCD FIRST STEP         100000
Info: DCD FILE WILL CONTAIN UNIT CELL DATA
Info: XST FILENAME           mobley_4035953_prod.xst
Info: XST FREQUENCY          100000
Info: NO VELOCITY DCD OUTPUT
Info: NO FORCE DCD OUTPUT
Info: OUTPUT FILENAME        mobley_4035953_prod
Info: BINARY OUTPUT FILES WILL BE USED
Info: RESTART FILENAME       mobley_4035953_prod.restart
Info: RESTART FREQUENCY      100000
Info: BINARY RESTART FILES WILL BE USED
Info: CUTOFF                 9
Info: PAIRLIST DISTANCE      11
Info: PAIRLIST SHRINK RATE   0.01
Info: PAIRLIST GROW RATE     0.01
Info: PAIRLIST TRIGGER       0.3
Info: PAIRLISTS PER CYCLE    2
Info: PAIRLISTS ENABLED
Info: MARGIN                 2
Info: HYDROGEN GROUP CUTOFF  2.5
Info: PATCH DIMENSION        15.5
Info: ENERGY OUTPUT STEPS    100000
Info: ENERGY EVALUATION STEPS    100000
Info: OUTPUT ENERGY PRECISION 4
Info: CROSSTERM ENERGY INCLUDED IN DIHEDRAL
Info: TIMING OUTPUT STEPS    1000000
Info: PRESSURE OUTPUT STEPS  100000
Info: ALCHEMICAL FEP ON
Info: FEP CURRENT LAMBDA VALUE     1
Info: FEP COMPARISON LAMBDA VALUE  0.95
Info: FEP INTRA-ALCHEMICAL NON-BONDED INTERACTIONS WILL BE RETAINED
Info: FEP INTRA-ALCHEMICAL BONDED INTERACTIONS WILL BE RETAINED
Info: FEP VDW SHIFTING COEFFICIENT 5
Info: FEP ELEC. ACTIVE FOR ANNIHILATED PARTICLES BETWEEN LAMBDA = 0 AND LAMBDA = 0.5
Info: FEP ELEC. ACTIVE FOR EXNIHILATED PARTICLES BETWEEN LAMBDA = 0.5 AND LAMBDA = 1
Info: FEP VDW ACTIVE FOR ANNIHILATED PARTICLES BETWEEN LAMBDA = 0 AND LAMBDA = 1
Info: FEP VDW ACTIVE FOR EXNIHILATED PARTICLES BETWEEN LAMBDA = 0 AND LAMBDA = 1
Info: FEP BOND ACTIVE FOR ANNIHILATED PARTICLES BETWEEN LAMBDA = 1 AND LAMBDA = 1
Info: FEP BOND ACTIVE FOR EXNIHILATED PARTICLES BETWEEN LAMBDA = 0 AND LAMBDA = 0
Info: LANGEVIN DYNAMICS ACTIVE
Info: LANGEVIN TEMPERATURE   300
Info: LANGEVIN USING BBK INTEGRATOR
Info: LANGEVIN DAMPING COEFFICIENT IS 1 INVERSE PS
Info: LANGEVIN DYNAMICS APPLIED TO HYDROGENS
Info: LANGEVIN PISTON PRESSURE CONTROL ACTIVE
Info:        TARGET PRESSURE IS 1.01325 BAR
Info:     OSCILLATION PERIOD IS 50 FS
Info:             DECAY TIME IS 25 FS
Info:     PISTON TEMPERATURE IS 300 K
Info:       PRESSURE CONTROL IS GROUP-BASED
Info:    INITIAL STRAIN RATE IS 0.000118557 0.000118557 0.000118557
Info:       CELL FLUCTUATION IS ISOTROPIC
Info: PARTICLE MESH EWALD (PME) ACTIVE
Info: PME TOLERANCE               1e-06
Info: PME EWALD COEFFICIENT       0.348832
Info: PME INTERPOLATION ORDER     4
Info: PME GRID DIMENSIONS         32 32 36
Info: PME MAXIMUM GRID SPACING    1
Info: PME CALCULATION WILL BE PERFORMED ON GPU
Info: FULL ELECTROSTATIC EVALUATION FREQUENCY      2
Info: USING VERLET I (r-RESPA) MTS SCHEME.
Info: C1 SPLITTING OF LONG RANGE ELECTROSTATICS
Info: PLACING ATOMS IN PATCHES BY HYDROGEN GROUPS
Info: RIGID BONDS TO HYDROGEN : ALL
Info:         ERROR TOLERANCE : 1e-08
Info:          MAX ITERATIONS : 100
Info: RIGID WATER USING SETTLE ALGORITHM
Info: RANDOM NUMBER SEED     1743597291
Info: USE HYDROGEN BONDS?    NO
Info: Using AMBER format force field!
Info: AMBER PARM FILE        mobley_4035953.prmtop
Info: COORDINATE PDB         mobley_4035953.pdb
Info: Exclusions will be read from PARM file!
Info: SCNB (VDW SCALING)     2
Info: USING ARITHMETIC MEAN TO COMBINE L-J SIGMA PARAMETERS
Info: BINARY COORDINATES     mobley_4035953_equil.coor
Info: SUMMARY OF PARAMETERS:
Info: 8 BONDS
Info: 7 ANGLES
Info:   7 HARMONIC
Info:   0 COSINE-BASED
Info: 4 DIHEDRAL
Info: 0 IMPROPER
Info: 0 CROSSTERM
Info: 0 VDW
Info: 28 VDW_PAIRS
Info: 0 NBTHOLE_PAIRS
Info: To read alchdata from file: mobley_4035953.pdb
Info: To read alchflag data from column: 5
Info: STRUCTURE SUMMARY:
Info: 2959 ATOMS
Info: 2959 BONDS
Info: 25 ANGLES
Info: 38 DIHEDRALS
Info: 0 IMPROPERS
Info: 0 CROSSTERMS
Info: 3013 EXCLUSIONS
Info: 2951 RIGID BONDS
Info: ALCH: 0 ATOMS TO DISAPPEAR IN FINAL STATE
Info: ALCH: 16 ATOMS TO APPEAR IN FINAL STATE
Info: 5926 DEGREES OF FREEDOM
Info: 989 HYDROGEN GROUPS
Info: 4 ATOMS IN LARGEST HYDROGEN GROUP
Info: 989 MIGRATION GROUPS
Info: 4 ATOMS IN LARGEST MIGRATION GROUP
Info: TOTAL MASS = 17781.8 amu
Info: TOTAL CHARGE = -9.99942e-05 e
Info: MASS DENSITY = 0.957434 g/cm^3
Info: ATOM DENSITY = 0.095944 atoms/A^3
Info: ADDED 0 IMPLICIT EXCLUSIONS
Info: NONBONDED TABLE R-SQUARED SPACING: 0.0625
Info: NONBONDED TABLE SIZE: 705 POINTS
Info: REMOVING COM VELOCITY -0.0807663 -0.0959548 0.135277
Info: Use 3D box decompostion in PME FFT.
Info: Updated CUDA force table with 4096 elements.
Info: Updated CUDA LJ table with 7 x 7 elements.
Info: Found 15 unique exclusion lists needing 32 bytes
TCL: Running for 1500000 steps
ETITLE: TS BOND ANGLE DIHED IMPRP ELECT VDW BOUNDARY MISC KINETIC TOTAL TEMP POTENTIAL TOTALAVG TEMPAVG PRESSURE GPRESSURE VOLUME PRESSAVG GPRESSAVG
ENERGY: 0 1.9996 10.3077 6.9097 0.0000 -10764.5811 1454.1089 0.0000 0.0000 1772.0623 -7519.1931 300.9593 -9291.2553 -7519.1931 300.9593 -78.5635 0.9323 30840.8970 -78.5635 0.9323
ENERGY: 300000 1.8109 5.4689 1.6235 0.0000 -10585.1290 1385.9252 0.0000 0.0000 1752.3120 -7437.9886 297.6050 -9190.3006 -7439.8184 302.9063 -36.5029 -36.0866 30584.6887 202.9145 253.8967
ENERGY: 600000 2.5652 5.8448 2.3124 0.0000 -10750.1256 1425.4480 0.0000 0.0000 1770.7831 -7543.1721 300.7420 -9313.9552 -7464.3480 303.1895 -386.9842 -321.1007 30697.3760 102.7724 156.1903
ENERGY: 900000 3.4551 2.9431 2.0692 0.0000 -10805.9164 1437.5924 0.0000 0.0000 1719.3136 -7640.5430 292.0007 -9359.8565 -7496.3417 300.8527 -450.3166 -319.0874 30499.0332 -61.4758 0.6643
ENERGY: 1200000 3.1368 2.9663 1.3484 0.0000 -10478.3784 1270.3991 0.0000 0.0000 1768.3758 -7432.1521 300.3332 -9200.5279 -7487.2218 302.0095 -1196.8877 -1102.5928 30633.9294 -150.4350 -86.6355
ENERGY: 1500000 1.8210 3.5246 2.9384 0.0000 -10672.0769 1362.7199 0.0000 0.0000 1792.1722 -7508.9008 304.3746 -9301.0730 -7498.7175 301.8958 -709.0925 -619.5827 30477.5034 -223.4359 -154.8078
TCL: Running FEP window   2: Lambda1 0.95   Lambda2 0.8999999999999999 [dLambda -0.050000000000000044]
TCL: Setting parameter firsttimestep to 0
TCL: Setting parameter alchLambda to 0.95
Info: NONBONDED TABLE R-SQUARED SPACING: 0.0625
Info: NONBONDED TABLE SIZE: 705 POINTS
TCL: Setting parameter alchLambda2 to 0.8999999999999999
Info: NONBONDED TABLE R-SQUARED SPACING: 0.0625
Info: NONBONDED TABLE SIZE: 705 POINTS
TCL: Running for 1500000 steps
ETITLE: TS BOND ANGLE DIHED IMPRP ELECT VDW BOUNDARY MISC KINETIC TOTAL TEMP POTENTIAL TOTALAVG TEMPAVG PRESSURE GPRESSURE VOLUME PRESSAVG GPRESSAVG
ENERGY: 0 1.8210 3.5246 2.9384 0.0000 -10670.5000 1362.0042 0.0000 0.0000 1791.2990 -7508.9127 304.2264 -9300.2118 -7508.9127 304.2264 -718.7499 -635.7570 30477.5034 -718.7499 -635.7570
ENERGY: 300000 0.9658 3.7728 1.2021 0.0000 -10696.0542 1421.2228 0.0000 0.0000 1740.7371 -7528.1537 295.6391 -9268.8908 -7549.3517 301.4090 -3.5226 16.3814 30194.7603 -9.2353 39.7389
ENERGY: 600000 3.7210 3.8843 4.3798 0.0000 -10554.6198 1333.8346 0.0000 0.0000 1737.0489 -7471.7512 295.0128 -9208.8001 -7545.0868 300.4446 -627.1996 -564.0993 30412.6923 -75.7125 -18.1150
ENERGY: 900000 3.6940 5.7807 3.0261 0.0000 -10721.3526 1365.6846 0.0000 0.0000 1778.6984 -7564.4687 302.0863 -9343.1671 -7545.9125 300.6387 -684.8084 -592.6300 30282.8088 -298.4057 -242.2970
ENERGY: 1200000 2.1179 7.5636 6.8227 0.0000 -10798.5388 1484.7429 0.0000 0.0000 1757.6476 -7539.6442 298.5111 -9297.2917 -7546.7625 300.6637 67.6277 98.0965 30574.9302 -186.7372 -133.8145
ENERGY: 1500000 1.6782 5.3533 3.7678 0.0000 -10526.9593 1283.6857 0.0000 0.0000 1856.0429 -7376.4313 315.2222 -9232.4742 -7536.3029 301.5974 -1162.1207 -1114.6342 30919.1801 -191.0019 -135.7481
TCL: Running FEP window   3: Lambda1 0.8999999999999999 Lambda2 0.8499999999999999 [dLambda -0.050000000000000044]
TCL: Setting parameter firsttimestep to 0
TCL: Setting parameter alchLambda to 0.8999999999999999
Info: NONBONDED TABLE R-SQUARED SPACING: 0.0625
Info: NONBONDED TABLE SIZE: 705 POINTS
TCL: Setting parameter alchLambda2 to 0.8499999999999999
Info: NONBONDED TABLE R-SQUARED SPACING: 0.0625
Info: NONBONDED TABLE SIZE: 705 POINTS
TCL: Running for 1500000 steps
ETITLE: TS BOND ANGLE DIHED IMPRP ELECT VDW BOUNDARY MISC KINETIC TOTAL TEMP POTENTIAL TOTALAVG TEMPAVG PRESSURE GPRESSURE VOLUME PRESSAVG GPRESSAVG
ENERGY: 0 1.6782 5.3533 3.7678 0.0000 -10525.3841 1282.8330 0.0000 0.0000 1855.1483 -7376.6034 315.0702 -9231.7518 -7376.6034 315.0702 -1203.0867 -1133.0650 30919.1801 -1203.0867 -1133.0650
ENERGY: 300000 1.0446 3.6729 2.1162 0.0000 -10706.2418 1380.3802 0.0000 0.0000 1729.3958 -7589.6320 293.7130 -9319.0278 -7497.3760 303.6275 -544.6555 -525.0688 30315.1353 -242.2421 -197.7286
ENERGY: 600000 1.6013 6.4563 2.5861 0.0000 -10702.7592 1438.2649 0.0000 0.0000 1767.6643 -7486.1863 300.2123 -9253.8506 -7498.2111 301.7928 129.7279 187.6655 30490.7172 88.5101 132.6075
ENERGY: 900000 2.7653 1.7028 4.5729 0.0000 -10599.0794 1337.8725 0.0000 0.0000 1753.1258 -7499.0400 297.7432 -9252.1658 -7511.7792 300.3853 -743.9031 -689.3269 30686.1105 -73.9071 -33.4737
ENERGY: 1200000 0.8122 4.5922 2.6060 0.0000 -10731.7081 1436.6031 0.0000 0.0000 1813.3157 -7473.7789 307.9656 -9287.0946 -7497.9294 300.1628 166.2166 253.4773 30427.4935 -93.3815 -46.9133
ENERGY: 1500000 2.3198 4.2100 2.8537 0.0000 -10625.2398 1398.7691 0.0000 0.0000 1735.4432 -7481.6440 294.7400 -9217.0872 -7503.0487 299.8341 -272.5002 -218.6936 30544.9335 -92.3076 -40.1036
TCL: Running FEP window   4: Lambda1 0.8499999999999999 Lambda2 0.7999999999999998 [dLambda -0.050000000000000044]
TCL: Setting parameter firsttimestep to 0
TCL: Setting parameter alchLambda to 0.8499999999999999
Info: NONBONDED TABLE R-SQUARED SPACING: 0.0625
Info: NONBONDED TABLE SIZE: 705 POINTS
TCL: Setting parameter alchLambda2 to 0.7999999999999998
Info: NONBONDED TABLE R-SQUARED SPACING: 0.0625
Info: NONBONDED TABLE SIZE: 705 POINTS
TCL: Running for 1500000 steps
ETITLE: TS BOND ANGLE DIHED IMPRP ELECT VDW BOUNDARY MISC KINETIC TOTAL TEMP POTENTIAL TOTALAVG TEMPAVG PRESSURE GPRESSURE VOLUME PRESSAVG GPRESSAVG
ENERGY: 0 2.3198 4.2100 2.8537 0.0000 -10623.0286 1397.5849 0.0000 0.0000 1734.5697 -7481.4905 294.5917 -9216.0602 -7481.4905 294.5917 -313.4158 -235.5057 30544.9335 -313.4158 -235.5057
ENERGY: 300000 2.3158 2.9146 4.0383 0.0000 -10912.2659 1564.1616 0.0000 0.0000 1765.8222 -7573.0134 299.8995 -9338.8355 -7507.4495 298.9017 808.1404 900.5354 30228.8520 -117.9070 -26.9039
ENERGY: 600000 3.8446 3.6227 3.2988 0.0000 -10579.4552 1327.0438 0.0000 0.0000 1753.0225 -7488.6229 297.7256 -9241.6454 -7508.3398 299.1451 -1103.7339 -1030.7463 31086.6523 -111.3539 -34.3787
ENERGY: 900000 4.2040 5.3558 2.5799 0.0000 -10747.7534 1462.8308 0.0000 0.0000 1751.8027 -7520.9802 297.5185 -9272.7829 -7506.4216 298.3539 110.4860 182.6115 30714.8990 15.6810 93.3767
ENERGY: 1200000 4.4886 4.7004 2.7997 0.0000 -10752.8158 1443.9688 0.0000 0.0000 1753.0337 -7543.8246 297.7275 -9296.8583 -7515.9678 298.0958 -19.5948 38.8316 29861.2259 39.4791 115.2562
ENERGY: 1500000 1.8102 3.3851 2.6544 0.0000 -10625.2649 1374.6976 0.0000 0.0000 1727.7688 -7514.9489 293.4367 -9242.7176 -7516.1594 297.5726 -499.4738 -507.5149 30676.0375 13.2571 82.5255
TCL: Running FEP window   5: Lambda1 0.7999999999999998 Lambda2 0.7499999999999998 [dLambda -0.050000000000000044]
TCL: Setting parameter firsttimestep to 0
TCL: Setting parameter alchLambda to 0.7999999999999998
Info: NONBONDED TABLE R-SQUARED SPACING: 0.0625
Info: NONBONDED TABLE SIZE: 705 POINTS
TCL: Setting parameter alchLambda2 to 0.7499999999999998
Info: NONBONDED TABLE R-SQUARED SPACING: 0.0625
Info: NONBONDED TABLE SIZE: 705 POINTS
TCL: Running for 1500000 steps
ETITLE: TS BOND ANGLE DIHED IMPRP ELECT VDW BOUNDARY MISC KINETIC TOTAL TEMP POTENTIAL TOTALAVG TEMPAVG PRESSURE GPRESSURE VOLUME PRESSAVG GPRESSAVG
ENERGY: 0 1.8102 3.3851 2.6544 0.0000 -10624.7985 1374.7399 0.0000 0.0000 1726.9166 -7515.2923 293.2919 -9242.2089 -7515.2923 293.2919 -606.5299 -517.3160 30676.0375 -606.5299 -517.3160
ENERGY: 300000 4.1917 5.9523 2.7700 0.0000 -10781.8180 1501.2230 0.0000 0.0000 1758.8555 -7508.8254 298.7163 -9267.6809 -7468.7338 301.8854 605.3768 610.2197 30345.5091 -58.4513 -3.2493
ENERGY: 600000 0.8233 6.4551 2.8023 0.0000 -10858.6539 1533.7217 0.0000 0.0000 1790.7539 -7524.0977 304.1338 -9314.8516 -7487.8471 301.6541 810.6754 859.9923 30189.0848 -56.3379 -0.5193
ENERGY: 900000 3.5556 7.2519 2.3007 0.0000 -10711.7943 1416.4727 0.0000 0.0000 1704.9314 -7577.2820 289.5581 -9282.2134 -7493.0733 299.9415 -466.9958 -431.4048 30956.8523 -114.0354 -53.6924
ENERGY: 1200000 2.2823 6.5106 1.5769 0.0000 -10657.3327 1408.0787 0.0000 0.0000 1769.2632 -7469.6211 300.4839 -9238.8843 -7491.6777 299.5991 -567.7736 -468.3622 31404.3708 -189.4269 -122.8268
ENERGY: 1500000 1.8726 4.3219 2.4410 0.0000 -10671.0911 1351.8898 0.0000 0.0000 1777.7027 -7532.8631 301.9172 -9310.5658 -7492.4888 300.3973 -524.3457 -507.8314 30086.5289 -235.4026 -170.4756
TCL: Running FEP window   6: Lambda1 0.7499999999999998 Lambda2 0.6999999999999997 [dLambda -0.050000000000000044]
TCL: Setting parameter firsttimestep to 0
TCL: Setting parameter alchLambda to 0.7499999999999998
Info: NONBONDED TABLE R-SQUARED SPACING: 0.0625
Info: NONBONDED TABLE SIZE: 705 POINTS
TCL: Setting parameter alchLambda2 to 0.6999999999999997
Info: NONBONDED TABLE R-SQUARED SPACING: 0.0625
Info: NONBONDED TABLE SIZE: 705 POINTS
TCL: Running for 1500000 steps
ETITLE: TS BOND ANGLE DIHED IMPRP ELECT VDW BOUNDARY MISC KINETIC TOTAL TEMP POTENTIAL TOTALAVG TEMPAVG PRESSURE GPRESSURE VOLUME PRESSAVG GPRESSAVG
ENERGY: 0 1.8726 4.3219 2.4410 0.0000 -10669.8371 1351.2249 0.0000 0.0000 1776.8059 -7533.1708 301.7649 -9309.9767 -7533.1708 301.7649 -615.0548 -520.1973 30086.5289 -615.0548 -520.1973
ENERGY: 300000 2.2108 3.6780 1.8378 0.0000 -10590.4465 1384.8137 0.0000 0.0000 1778.0810 -7419.8253 301.9815 -9197.9063 -7492.5559 302.9488 -365.0672 -327.8691 30891.5278 -311.2154 -255.1648
ENERGY: 600000 2.0085 3.8361 3.3989 0.0000 -10675.3083 1320.2784 0.0000 0.0000 1788.2320 -7557.5544 303.7055 -9345.7864 -7517.2556 302.5647 -1298.9911 -1267.3992 30624.9863 -396.6619 -336.1139
ENERGY: 900000 2.8826 2.7006 3.6249 0.0000 -10767.6854 1479.6698 0.0000 0.0000 1752.8038 -7526.0037 297.6885 -9278.8075 -7510.4643 302.3368 350.1048 337.5659 30476.4745 -182.9529 -130.8513
ENERGY: 1200000 2.9120 4.5317 3.3400 0.0000 -10528.8016 1274.2946 0.0000 0.0000 1798.0807 -7445.6426 305.3781 -9243.7233 -7497.1894 302.9977 -1246.9913 -1202.4094 30672.4665 -270.3599 -219.3677
ENERGY: 1500000 2.2634 2.8501 3.4125 0.0000 -10739.6925 1444.9730 0.0000 0.0000 1773.2090 -7512.9845 301.1540 -9286.1935 -7494.9242 302.7845 -73.0276 37.2565 30174.2571 -255.0202 -199.9132
TCL: Running FEP window   7: Lambda1 0.6999999999999997 Lambda2 0.6499999999999997 [dLambda -0.050000000000000044]
TCL: Setting parameter firsttimestep to 0
TCL: Setting parameter alchLambda to 0.6999999999999997
Info: NONBONDED TABLE R-SQUARED SPACING: 0.0625
Info: NONBONDED TABLE SIZE: 705 POINTS
TCL: Setting parameter alchLambda2 to 0.6499999999999997
Info: NONBONDED TABLE R-SQUARED SPACING: 0.0625
Info: NONBONDED TABLE SIZE: 705 POINTS
TCL: Running for 1500000 steps
ETITLE: TS BOND ANGLE DIHED IMPRP ELECT VDW BOUNDARY MISC KINETIC TOTAL TEMP POTENTIAL TOTALAVG TEMPAVG PRESSURE GPRESSURE VOLUME PRESSAVG GPRESSAVG
ENERGY: 0 2.2634 2.8501 3.4125 0.0000 -10738.3270 1445.1989 0.0000 0.0000 1772.3366 -7512.2654 301.0059 -9284.6021 -7512.2654 301.0059 -53.8878 32.2508 30174.2571 -53.8878 32.2508
ENERGY: 300000 1.6123 4.9551 3.5317 0.0000 -10792.9012 1474.3080 0.0000 0.0000 1733.1653 -7575.3288 294.3532 -9308.4941 -7500.6299 299.8267 158.1472 217.6921 30266.3436 60.7945 132.7483
ENERGY: 600000 1.9461 4.2169 3.8947 0.0000 -10721.1952 1397.6758 0.0000 0.0000 1716.3554 -7597.1064 291.4982 -9313.4617 -7524.7541 298.2371 -671.6742 -637.0421 30857.8858 -218.4334 -151.5222
ENERGY: 900000 1.6294 3.1213 5.9177 0.0000 -10707.0399 1417.8671 0.0000 0.0000 1750.6795 -7527.8249 297.3277 -9278.5044 -7518.9406 298.0683 -156.3265 -135.2177 30376.9166 -14.0383 41.2343
ENERGY: 1200000 3.2250 3.0786 1.7622 0.0000 -10855.2264 1541.4459 0.0000 0.0000 1755.9026 -7549.8121 298.2148 -9305.7148 -7510.1185 299.0706 755.3874 818.9982 30343.9003 -68.0104 -14.1224
ENERGY: 1500000 2.0809 5.0684 4.6495 0.0000 -10654.5597 1403.7599 0.0000 0.0000 1820.4654 -7418.5356 309.1798 -9239.0010 -7513.4326 299.0414 -125.1581 -41.4794 30591.1773 -37.2637 18.1269
TCL: Running FEP window   8: Lambda1 0.6499999999999997 Lambda2 0.5999999999999996 [dLambda -0.050000000000000044]
TCL: Setting parameter firsttimestep to 0
TCL: Setting parameter alchLambda to 0.6499999999999997
Info: NONBONDED TABLE R-SQUARED SPACING: 0.0625
Info: NONBONDED TABLE SIZE: 705 POINTS
TCL: Setting parameter alchLambda2 to 0.5999999999999996
Info: NONBONDED TABLE R-SQUARED SPACING: 0.0625
Info: NONBONDED TABLE SIZE: 705 POINTS
TCL: Running for 1500000 steps
ETITLE: TS BOND ANGLE DIHED IMPRP ELECT VDW BOUNDARY MISC KINETIC TOTAL TEMP POTENTIAL TOTALAVG TEMPAVG PRESSURE GPRESSURE VOLUME PRESSAVG GPRESSAVG
ENERGY: 0 2.0809 5.0684 4.6495 0.0000 -10652.9806 1403.5651 0.0000 0.0000 1819.5910 -7418.0257 309.0313 -9237.6167 -7418.0257 309.0313 -136.2230 -48.2577 30591.1773 -136.2230 -48.2577
ENERGY: 300000 6.9798 5.5238 1.9938 0.0000 -10773.7414 1429.0425 0.0000 0.0000 1772.7018 -7557.4996 301.0679 -9330.2014 -7515.5731 302.1119 -453.1203 -411.1833 30305.2592 -382.0735 -311.7062
ENERGY: 600000 4.4204 3.6175 4.4346 0.0000 -10737.4441 1406.4029 0.0000 0.0000 1758.6916 -7559.8771 298.6884 -9318.5687 -7519.7333 301.8347 -420.7104 -337.2495 30459.9743 -343.7503 -273.7871
ENERGY: 900000 2.1113 2.6816 2.2970 0.0000 -10662.0743 1357.1443 0.0000 0.0000 1757.4212 -7540.4189 298.4727 -9297.8401 -7529.9641 301.5226 -524.7858 -479.0399 30142.3119 -368.1301 -298.7319
ENERGY: 1200000 5.0993 7.0585 2.1066 0.0000 -10748.9690 1473.4066 0.0000 0.0000 1746.7882 -7514.5098 296.6668 -9261.2980 -7520.5052 300.7766 259.1915 330.9807 30538.7185 -263.2082 -203.2668
ENERGY: 1500000 2.3752 3.6920 2.0616 0.0000 -10596.6466 1406.4575 0.0000 0.0000 1786.3564 -7395.7040 303.3869 -9182.0604 -7506.4519 301.3025 -26.9403 29.2391 30618.2769 -233.7227 -175.7713
TCL: Running FEP window   9: Lambda1 0.5999999999999996 Lambda2 0.5499999999999996 [dLambda -0.050000000000000044]
TCL: Setting parameter firsttimestep to 0
TCL: Setting parameter alchLambda to 0.5999999999999996
Info: NONBONDED TABLE R-SQUARED SPACING: 0.0625
Info: NONBONDED TABLE SIZE: 705 POINTS
TCL: Setting parameter alchLambda2 to 0.5499999999999996
Info: NONBONDED TABLE R-SQUARED SPACING: 0.0625
Info: NONBONDED TABLE SIZE: 705 POINTS
TCL: Running for 1500000 steps
ETITLE: TS BOND ANGLE DIHED IMPRP ELECT VDW BOUNDARY MISC KINETIC TOTAL TEMP POTENTIAL TOTALAVG TEMPAVG PRESSURE GPRESSURE VOLUME PRESSAVG GPRESSAVG
ENERGY: 0 2.3752 3.6920 2.0616 0.0000 -10596.2516 1406.2093 0.0000 0.0000 1785.4866 -7396.4270 303.2392 -9181.9135 -7396.4270 303.2392 -72.0988 17.4841 30618.2769 -72.0988 17.4841
ENERGY: 300000 3.5765 1.7987 3.3058 0.0000 -10618.8535 1353.5541 0.0000 0.0000 1764.1456 -7492.4729 299.6147 -9256.6184 -7494.7016 301.4151 -534.5592 -512.2763 30386.3543 -349.9470 -301.7555
ENERGY: 600000 1.4178 6.6179 2.4024 0.0000 -10703.8503 1405.8927 0.0000 0.0000 1820.5057 -7467.0139 309.1867 -9287.5196 -7487.8712 302.4388 -223.1133 -117.4025 30175.7293 -196.2094 -133.6361
ENERGY: 900000 1.5234 6.8438 3.8122 0.0000 -10737.7328 1442.7707 0.0000 0.0000 1752.4756 -7530.3071 297.6328 -9282.7827 -7491.8662 302.0029 85.5245 154.9216 30059.6045 -59.0064 -7.9495
ENERGY: 1200000 3.9876 4.6367 3.7159 0.0000 -10732.8497 1427.4853 0.0000 0.0000 1782.5428 -7510.4814 302.7392 -9293.0242 -7504.1211 301.2616 -327.3816 -279.6759 30253.2639 -71.9842 -18.9087
ENERGY: 1500000 1.2875 3.2902 5.7337 0.0000 -10652.9143 1429.8888 0.0000 0.0000 1748.7892 -7463.9250 297.0067 -9212.7142 -7507.4394 300.3448 64.2607 111.0332 30703.1363 -59.1955 -7.6887
TCL: Running FEP window  10: Lambda1 0.5499999999999996 Lambda2 0.4999999999999996 [dLambda -0.04999999999999999]
TCL: Setting parameter firsttimestep to 0
TCL: Setting parameter alchLambda to 0.5499999999999996
Info: NONBONDED TABLE R-SQUARED SPACING: 0.0625
Info: NONBONDED TABLE SIZE: 705 POINTS
TCL: Setting parameter alchLambda2 to 0.4999999999999996
Info: NONBONDED TABLE R-SQUARED SPACING: 0.0625
Info: NONBONDED TABLE SIZE: 705 POINTS
TCL: Running for 1500000 steps
ETITLE: TS BOND ANGLE DIHED IMPRP ELECT VDW BOUNDARY MISC KINETIC TOTAL TEMP POTENTIAL TOTALAVG TEMPAVG PRESSURE GPRESSURE VOLUME PRESSAVG GPRESSAVG
ENERGY: 0 1.2875 3.2902 5.7337 0.0000 -10652.8586 1430.3228 0.0000 0.0000 1747.9231 -7464.3014 296.8596 -9212.2245 -7464.3014 296.8596 21.4884 104.9523 30703.1363 21.4884 104.9523
ENERGY: 300000 1.2619 3.0789 3.7907 0.0000 -10661.3442 1457.4123 0.0000 0.0000 1704.6729 -7491.1276 289.5141 -9195.8005 -7502.7303 295.9723 183.7523 278.0285 30645.9103 -155.5735 -53.3765
ENERGY: 600000 2.9985 7.5536 3.2237 0.0000 -10754.8942 1485.4133 0.0000 0.0000 1747.0752 -7508.6300 296.7156 -9255.7052 -7525.6882 297.3939 0.0173 43.8648 30784.7544 -15.9775 64.5498
ENERGY: 900000 2.5070 3.6994 4.5319 0.0000 -10767.4814 1495.0975 0.0000 0.0000 1764.3129 -7497.3327 299.6431 -9261.6456 -7514.9747 298.2802 190.1189 296.0367 30606.8266 -90.2575 -12.2359
ENERGY: 1200000 4.4258 5.4227 3.0424 0.0000 -10782.3358 1485.2048 0.0000 0.0000 1740.9950 -7543.2452 295.6829 -9284.2402 -7526.5653 297.6364 241.2590 315.5045 30412.7149 -33.3003 42.6932
ENERGY: 1500000 2.8003 7.6155 2.6599 0.0000 -10823.2833 1457.0690 0.0000 0.0000 1741.9883 -7611.1503 295.8516 -9353.1386 -7530.0237 297.0875 94.0386 163.4211 30236.9367 6.3625 77.6978
TCL: Running FEP window  11: Lambda1 0.4999999999999996 Lambda2 0.4499999999999996 [dLambda -0.04999999999999999]
TCL: Setting parameter firsttimestep to 0
TCL: Setting parameter alchLambda to 0.4999999999999996
Info: NONBONDED TABLE R-SQUARED SPACING: 0.0625
Info: NONBONDED TABLE SIZE: 705 POINTS
TCL: Setting parameter alchLambda2 to 0.4499999999999996
Info: NONBONDED TABLE R-SQUARED SPACING: 0.0625
Info: NONBONDED TABLE SIZE: 705 POINTS
TCL: Running for 1500000 steps
ETITLE: TS BOND ANGLE DIHED IMPRP ELECT VDW BOUNDARY MISC KINETIC TOTAL TEMP POTENTIAL TOTALAVG TEMPAVG PRESSURE GPRESSURE VOLUME PRESSAVG GPRESSAVG
ENERGY: 0 2.8003 7.6155 2.6599 0.0000 -10823.1994 1457.6239 0.0000 0.0000 1741.1125 -7611.3873 295.7029 -9352.4998 -7611.3873 295.7029 68.2500 160.6995 30236.9367 68.2500 160.6995
ENERGY: 300000 1.0405 4.1643 3.3039 0.0000 -10565.3708 1321.9439 0.0000 0.0000 1735.0366 -7499.8816 294.6710 -9234.9182 -7529.8263 298.3173 -800.8555 -674.8517 30492.5147 12.3927 93.6512
ENERGY: 600000 1.1287 4.1882 3.0332 0.0000 -10694.8490 1394.9159 0.0000 0.0000 1825.5124 -7466.0708 310.0370 -9291.5831 -7507.5439 301.5042 -151.0762 -63.9886 29853.3231 5.8796 83.4213
ENERGY: 900000 1.0188 3.4216 3.4032 0.0000 -10596.4113 1423.2846 0.0000 0.0000 1794.6912 -7370.5920 304.8025 -9165.2831 -7502.2092 302.1875 433.8646 451.0869 30264.3640 139.6586 201.1594
ENERGY: 1200000 2.7473 6.0443 1.3584 0.0000 -10650.0286 1396.8238 0.0000 0.0000 1729.0722 -7513.9826 293.6580 -9243.0548 -7502.7089 301.5450 -427.9064 -403.6518 30813.2227 -10.0806 46.4160
ENERGY: 1500000 2.1512 3.5616 1.7171 0.0000 -10798.0307 1446.5855 0.0000 0.0000 1770.2977 -7573.7176 300.6596 -9344.0153 -7503.3962 301.8628 8.5402 -19.1973 30212.8944 -115.5056 -62.2227
TCL: Running FEP window  12: Lambda1 0.4499999999999996 Lambda2 0.39999999999999963 [dLambda -0.04999999999999999]
TCL: Setting parameter firsttimestep to 0
TCL: Setting parameter alchLambda to 0.4499999999999996
Info: NONBONDED TABLE R-SQUARED SPACING: 0.0625
Info: NONBONDED TABLE SIZE: 705 POINTS
TCL: Setting parameter alchLambda2 to 0.39999999999999963
Info: NONBONDED TABLE R-SQUARED SPACING: 0.0625
Info: NONBONDED TABLE SIZE: 705 POINTS
TCL: Running for 1500000 steps
ETITLE: TS BOND ANGLE DIHED IMPRP ELECT VDW BOUNDARY MISC KINETIC TOTAL TEMP POTENTIAL TOTALAVG TEMPAVG PRESSURE GPRESSURE VOLUME PRESSAVG GPRESSAVG
ENERGY: 0 2.1512 3.5616 1.7171 0.0000 -10798.0297 1446.4252 0.0000 0.0000 1769.4134 -7574.7611 300.5094 -9344.1746 -7574.7611 300.5094 -106.3988 -25.2657 30212.8944 -106.3988 -25.2657
ENERGY: 300000 4.2606 3.3527 5.2219 0.0000 -10715.8419 1424.3607 0.0000 0.0000 1826.5684 -7452.0777 310.2163 -9278.6461 -7497.7710 308.2398 -143.9549 -100.6605 30513.5879 -219.8882 -146.9258
ENERGY: 600000 0.8125 7.1554 2.3672 0.0000 -10831.9558 1505.9076 0.0000 0.0000 1747.9787 -7567.7344 296.8690 -9315.7131 -7504.5518 304.8027 281.2435 298.1465 30564.1411 -117.3032 -56.2753
ENERGY: 900000 3.4398 3.6890 0.6711 0.0000 -10731.7638 1453.8844 0.0000 0.0000 1736.9353 -7533.1444 294.9934 -9270.0796 -7504.7696 302.1148 9.3334 90.2917 30247.4050 -111.3286 -50.3408
ENERGY: 1200000 2.6211 3.2709 2.5016 0.0000 -10812.7462 1481.5285 0.0000 0.0000 1764.7882 -7558.0359 299.7239 -9322.8241 -7513.5546 300.9996 35.8426 98.4312 30450.5861 -92.0989 -33.8691
ENERGY: 1500000 1.9091 5.8457 3.5424 0.0000 -10660.7553 1427.6637 0.0000 0.0000 1738.5705 -7483.2238 295.2712 -9221.7944 -7513.7688 299.9559 -20.0686 71.8467 30409.1377 -104.1822 -41.5120
TCL: Running FEP window  13: Lambda1 0.39999999999999963 Lambda2 0.34999999999999964 [dLambda -0.04999999999999999]
TCL: Setting parameter firsttimestep to 0
TCL: Setting parameter alchLambda to 0.39999999999999963
Info: NONBONDED TABLE R-SQUARED SPACING: 0.0625
Info: NONBONDED TABLE SIZE: 705 POINTS
TCL: Setting parameter alchLambda2 to 0.34999999999999964
Info: NONBONDED TABLE R-SQUARED SPACING: 0.0625
Info: NONBONDED TABLE SIZE: 705 POINTS
TCL: Running for 1500000 steps
ETITLE: TS BOND ANGLE DIHED IMPRP ELECT VDW BOUNDARY MISC KINETIC TOTAL TEMP POTENTIAL TOTALAVG TEMPAVG PRESSURE GPRESSURE VOLUME PRESSAVG GPRESSAVG
ENERGY: 0 1.9091 5.8457 3.5424 0.0000 -10660.7576 1427.9465 0.0000 0.0000 1737.6893 -7483.8247 295.1215 -9221.5139 -7483.8247 295.1215 -3.8339 71.0312 30409.1377 -3.8339 71.0312
ENERGY: 300000 1.7685 7.3505 1.4398 0.0000 -10628.2598 1409.7761 0.0000 0.0000 1763.9996 -7443.9252 299.5899 -9207.9248 -7474.4888 297.8823 -325.7241 -272.6969 30686.1832 1.5390 60.2854
ENERGY: 600000 1.6655 5.4699 4.4700 0.0000 -10838.3776 1522.8708 0.0000 0.0000 1740.6615 -7563.2398 295.6263 -9303.9013 -7510.2651 297.6975 502.2437 566.7829 30413.0729 225.2095 287.5639
ENERGY: 900000 2.0982 5.9946 3.4927 0.0000 -10716.4155 1454.6866 0.0000 0.0000 1755.4915 -7494.6519 298.1450 -9250.1435 -7507.1509 298.6362 -15.6437 63.4321 30529.6708 -28.1589 42.8480
ENERGY: 1200000 1.3652 2.3236 7.3380 0.0000 -10861.8291 1561.5497 0.0000 0.0000 1791.4710 -7497.7816 304.2556 -9289.2526 -7505.9481 299.8266 1001.1181 1078.2490 30086.0207 96.4432 173.3448
ENERGY: 1500000 1.0038 6.8276 4.3358 0.0000 -10721.0166 1434.7226 0.0000 0.0000 1778.3519 -7495.7749 302.0275 -9274.1268 -7498.6623 299.9372 -68.1196 1.4194 30276.1082 46.8859 113.6958
TCL: Running FEP window  14: Lambda1 0.34999999999999964 Lambda2 0.29999999999999966 [dLambda -0.04999999999999999]
TCL: Setting parameter firsttimestep to 0
TCL: Setting parameter alchLambda to 0.34999999999999964
Info: NONBONDED TABLE R-SQUARED SPACING: 0.0625
Info: NONBONDED TABLE SIZE: 705 POINTS
TCL: Setting parameter alchLambda2 to 0.29999999999999966
Info: NONBONDED TABLE R-SQUARED SPACING: 0.0625
Info: NONBONDED TABLE SIZE: 705 POINTS
TCL: Running for 1500000 steps
ETITLE: TS BOND ANGLE DIHED IMPRP ELECT VDW BOUNDARY MISC KINETIC TOTAL TEMP POTENTIAL TOTALAVG TEMPAVG PRESSURE GPRESSURE VOLUME PRESSAVG GPRESSAVG
ENERGY: 0 1.0038 6.8276 4.3358 0.0000 -10721.0186 1435.1964 0.0000 0.0000 1777.4645 -7496.1904 301.8768 -9273.6550 -7496.1904 301.8768 -107.4025 2.0130 30276.1082 -107.4025 2.0130
ENERGY: 300000 2.0510 5.0792 1.5283 0.0000 -10973.4155 1525.6432 0.0000 0.0000 1800.7046 -7638.4093 305.8238 -9439.1139 -7513.1704 302.5070 250.3285 300.5886 29910.2135 -210.1727 -161.6163
ENERGY: 600000 4.7340 2.5867 1.7090 0.0000 -10688.3428 1443.0494 0.0000 0.0000 1729.6731 -7506.5905 293.7601 -9236.2637 -7505.8907 300.1122 -335.0443 -326.8172 30984.0388 -154.8626 -99.1431
ENERGY: 900000 4.5526 3.5962 2.5961 0.0000 -10754.8809 1434.6198 0.0000 0.0000 1755.9373 -7553.5789 298.2207 -9309.5162 -7518.0039 300.9018 -145.8311 -67.9791 29890.4453 -23.0051 32.6004
ENERGY: 1200000 3.8609 4.8301 2.6412 0.0000 -10869.5826 1514.6467 0.0000 0.0000 1729.5936 -7614.0101 293.7466 -9343.6037 -7528.5823 299.9189 409.7344 422.2142 30425.6290 -38.3614 15.2442
ENERGY: 1500000 2.8351 2.1123 1.4871 0.0000 -10690.5770 1484.3621 0.0000 0.0000 1808.9408 -7390.8396 307.2226 -9199.7804 -7512.7179 300.7651 739.2860 807.9089 30101.2843 -4.3069 56.2584
TCL: Running FEP window  15: Lambda1 0.29999999999999966 Lambda2 0.24999999999999967 [dLambda -0.04999999999999999]
TCL: Setting parameter firsttimestep to 0
TCL: Setting parameter alchLambda to 0.29999999999999966
Info: NONBONDED TABLE R-SQUARED SPACING: 0.0625
Info: NONBONDED TABLE SIZE: 705 POINTS
TCL: Setting parameter alchLambda2 to 0.24999999999999967
Info: NONBONDED TABLE R-SQUARED SPACING: 0.0625
Info: NONBONDED TABLE SIZE: 705 POINTS
TCL: Running for 1500000 steps
ETITLE: TS BOND ANGLE DIHED IMPRP ELECT VDW BOUNDARY MISC KINETIC TOTAL TEMP POTENTIAL TOTALAVG TEMPAVG PRESSURE GPRESSURE VOLUME PRESSAVG GPRESSAVG
ENERGY: 0 2.8351 2.1123 1.4871 0.0000 -10690.5770 1484.8320 0.0000 0.0000 1808.0668 -7391.2437 307.0741 -9199.3105 -7391.2437 307.0741 711.2263 805.1031 30101.2843 711.2263 805.1031
ENERGY: 300000 1.5364 5.0367 3.3819 0.0000 -10692.4012 1451.9992 0.0000 0.0000 1732.0744 -7498.3725 294.1679 -9230.4470 -7460.3581 299.8471 -138.5248 -96.2442 30879.9688 -114.9564 -58.1856
ENERGY: 600000 2.4138 3.8693 5.1032 0.0000 -10745.8753 1426.2975 0.0000 0.0000 1740.0312 -7568.1603 295.5192 -9308.1915 -7506.3062 299.3604 -383.0935 -257.0907 30297.4621 -30.4960 38.5831
ENERGY: 900000 3.2972 2.5630 3.5328 0.0000 -10869.5686 1508.3098 0.0000 0.0000 1782.4854 -7569.3803 302.7295 -9351.8657 -7514.3180 300.1186 300.7251 343.7489 30261.5212 102.0637 159.9222
ENERGY: 1200000 6.6190 5.4348 3.8042 0.0000 -10707.5247 1414.7675 0.0000 0.0000 1724.3091 -7552.5902 292.8491 -9276.8992 -7519.9169 299.4751 -409.4987 -384.3640 30766.0094 67.4348 118.9312
ENERGY: 1500000 4.1995 3.2990 2.9097 0.0000 -10530.0013 1321.5145 0.0000 0.0000 1741.8895 -7456.1890 295.8348 -9198.0785 -7520.2468 298.7657 -733.1506 -687.6685 30520.4317 -9.0524 38.9820
TCL: Running FEP window  16: Lambda1 0.24999999999999967 Lambda2 0.19999999999999968 [dLambda -0.04999999999999999]
TCL: Setting parameter firsttimestep to 0
TCL: Setting parameter alchLambda to 0.24999999999999967
Info: NONBONDED TABLE R-SQUARED SPACING: 0.0625
Info: NONBONDED TABLE SIZE: 705 POINTS
TCL: Setting parameter alchLambda2 to 0.19999999999999968
Info: NONBONDED TABLE R-SQUARED SPACING: 0.0625
Info: NONBONDED TABLE SIZE: 705 POINTS
TCL: Running for 1500000 steps
ETITLE: TS BOND ANGLE DIHED IMPRP ELECT VDW BOUNDARY MISC KINETIC TOTAL TEMP POTENTIAL TOTALAVG TEMPAVG PRESSURE GPRESSURE VOLUME PRESSAVG GPRESSAVG
ENERGY: 0 4.1995 3.2990 2.9097 0.0000 -10530.0025 1321.8273 0.0000 0.0000 1741.0257 -7456.7413 295.6882 -9197.7670 -7456.7413 295.6882 -776.9354 -689.2367 30520.4317 -776.9354 -689.2367
ENERGY: 300000 2.0861 2.9085 2.7124 0.0000 -10939.3569 1541.4702 0.0000 0.0000 1777.6793 -7612.5003 301.9132 -9390.1795 -7516.3954 299.3057 340.3311 383.7140 30285.5180 -6.5905 96.2731
ENERGY: 600000 2.0648 5.8893 3.3847 0.0000 -10646.1809 1427.1977 0.0000 0.0000 1797.7386 -7409.9058 305.3200 -9207.6444 -7482.6130 300.7868 26.8716 98.0957 30750.1201 4.6709 90.2710
ENERGY: 900000 1.4932 5.8989 3.3163 0.0000 -10739.9083 1448.8199 0.0000 0.0000 1655.5908 -7624.7892 281.1783 -9280.3800 -7493.1659 299.0130 -227.4515 -135.7637 30500.3153 -19.5890 69.2481
ENERGY: 1200000 2.0397 5.7569 3.2501 0.0000 -10801.4097 1525.9904 0.0000 0.0000 1791.3906 -7472.9820 304.2419 -9264.3725 -7503.3945 299.2566 548.6147 542.6879 30542.4799 -89.6864 -21.8790
ENERGY: 1500000 2.8845 4.7234 2.4928 0.0000 -10861.2643 1490.8934 0.0000 0.0000 1746.7878 -7613.4824 296.6668 -9360.2701 -7509.8842 299.6874 20.6544 28.3181 30441.4586 -63.9509 1.7587
TCL: Running FEP window  17: Lambda1 0.19999999999999968 Lambda2 0.1499999999999997 [dLambda -0.04999999999999999]
TCL: Setting parameter firsttimestep to 0
TCL: Setting parameter alchLambda to 0.19999999999999968
Info: NONBONDED TABLE R-SQUARED SPACING: 0.0625
Info: NONBONDED TABLE SIZE: 705 POINTS
TCL: Setting parameter alchLambda2 to 0.1499999999999997
Info: NONBONDED TABLE R-SQUARED SPACING: 0.0625
Info: NONBONDED TABLE SIZE: 705 POINTS
TCL: Running for 1500000 steps
ETITLE: TS BOND ANGLE DIHED IMPRP ELECT VDW BOUNDARY MISC KINETIC TOTAL TEMP POTENTIAL TOTALAVG TEMPAVG PRESSURE GPRESSURE VOLUME PRESSAVG GPRESSAVG
ENERGY: 0 2.8845 4.7234 2.4928 0.0000 -10861.2656 1490.9151 0.0000 0.0000 1745.9388 -7614.3110 296.5226 -9360.2497 -7614.3110 296.5226 -61.6432 25.5221 30441.4586 -61.6432 25.5221
ENERGY: 300000 1.0604 5.7523 3.1593 0.0000 -10603.1310 1407.8834 0.0000 0.0000 1797.1102 -7388.1654 305.2133 -9185.2755 -7495.0868 301.4757 -140.1668 -141.9851 30419.1720 -370.8878 -344.6285
ENERGY: 600000 0.5229 3.5512 3.5110 0.0000 -10595.8792 1370.2119 0.0000 0.0000 1682.9647 -7535.1175 285.8273 -9218.0821 -7500.6214 299.3796 -665.2703 -535.7899 30897.0871 -259.7264 -198.7523
ENERGY: 900000 3.3669 5.0519 3.2004 0.0000 -10681.8788 1377.0640 0.0000 0.0000 1744.5939 -7548.6018 296.2941 -9293.1957 -7501.1594 300.1868 -972.2669 -903.9064 30648.0807 -278.5745 -215.0705
ENERGY: 1200000 1.5326 3.6224 5.6581 0.0000 -10818.8070 1538.1600 0.0000 0.0000 1745.6369 -7524.1970 296.4713 -9269.8339 -7498.1729 299.8118 814.4237 860.8589 30240.8134 -157.5374 -88.4810
ENERGY: 1500000 3.7831 2.4285 3.4330 0.0000 -10626.8352 1374.1071 0.0000 0.0000 1793.0185 -7450.0651 304.5184 -9243.0836 -7492.4755 299.8477 -573.1266 -507.1073 30136.6015 -125.8233 -55.4688
TCL: Running FEP window  18: Lambda1 0.1499999999999997 Lambda2 0.09999999999999969 [dLambda -0.05 ]
TCL: Setting parameter firsttimestep to 0
TCL: Setting parameter alchLambda to 0.1499999999999997
Info: NONBONDED TABLE R-SQUARED SPACING: 0.0625
Info: NONBONDED TABLE SIZE: 705 POINTS
TCL: Setting parameter alchLambda2 to 0.09999999999999969
Info: NONBONDED TABLE R-SQUARED SPACING: 0.0625
Info: NONBONDED TABLE SIZE: 705 POINTS
TCL: Running for 1500000 steps
ETITLE: TS BOND ANGLE DIHED IMPRP ELECT VDW BOUNDARY MISC KINETIC TOTAL TEMP POTENTIAL TOTALAVG TEMPAVG PRESSURE GPRESSURE VOLUME PRESSAVG GPRESSAVG
ENERGY: 0 3.7831 2.4285 3.4330 0.0000 -10626.8355 1373.9468 0.0000 0.0000 1792.1575 -7451.0867 304.3721 -9243.2442 -7451.0867 304.3721 -577.8749 -509.1265 30136.6015 -577.8749 -509.1265
ENERGY: 300000 4.2090 3.1118 4.0980 0.0000 -10674.0629 1403.3126 0.0000 0.0000 1802.9735 -7456.3580 306.2091 -9259.3315 -7487.6746 304.2375 -392.7992 -347.4284 30513.6558 -440.2126 -377.7520
ENERGY: 600000 2.7065 4.1419 2.1581 0.0000 -10633.4866 1361.8896 0.0000 0.0000 1763.5887 -7499.0018 299.5202 -9262.5905 -7490.5306 303.8139 -585.4518 -523.3340 30231.6393 -240.6444 -173.1969
ENERGY: 900000 4.0710 4.8889 5.1773 0.0000 -10701.5199 1412.4966 0.0000 0.0000 1754.7084 -7520.1777 298.0120 -9274.8861 -7481.9105 303.0229 -339.3036 -279.0901 30555.2858 -232.8629 -164.5286
ENERGY: 1200000 2.7553 8.7794 3.8014 0.0000 -10777.8662 1483.8539 0.0000 0.0000 1735.2092 -7543.4671 294.7003 -9278.6763 -7486.6757 302.1631 34.8613 128.7830 30322.4892 -173.8676 -103.9735
ENERGY: 1500000 1.7678 3.5722 2.5958 0.0000 -10765.0880 1482.3190 0.0000 0.0000 1729.1369 -7545.6962 293.6690 -9274.8331 -7501.4513 300.7730 356.4298 434.8003 29991.7526 -201.6293 -135.3930
TCL: Running FEP window  19: Lambda1 0.09999999999999969 Lambda2 0.049999999999999684 [dLambda -0.05 ]
TCL: Setting parameter firsttimestep to 0
TCL: Setting parameter alchLambda to 0.09999999999999969
Info: NONBONDED TABLE R-SQUARED SPACING: 0.0625
Info: NONBONDED TABLE SIZE: 705 POINTS
TCL: Setting parameter alchLambda2 to 0.049999999999999684
Info: NONBONDED TABLE R-SQUARED SPACING: 0.0625
Info: NONBONDED TABLE SIZE: 705 POINTS
TCL: Running for 1500000 steps
ETITLE: TS BOND ANGLE DIHED IMPRP ELECT VDW BOUNDARY MISC KINETIC TOTAL TEMP POTENTIAL TOTALAVG TEMPAVG PRESSURE GPRESSURE VOLUME PRESSAVG GPRESSAVG
ENERGY: 0 1.7678 3.5722 2.5958 0.0000 -10765.0873 1482.3681 0.0000 0.0000 1728.2777 -7546.5056 293.5231 -9274.7833 -7546.5056 293.5231 352.6459 435.9596 29991.7526 352.6459 435.9596
ENERGY: 300000 3.4899 5.8854 4.0260 0.0000 -10644.6795 1373.3944 0.0000 0.0000 1778.0845 -7479.7993 301.9820 -9257.8838 -7500.5307 301.7670 -692.5124 -637.5080 30526.8474 132.1741 179.9033
ENERGY: 600000 0.2667 8.0063 2.1594 0.0000 -10802.5820 1536.1711 0.0000 0.0000 1766.1211 -7489.8573 299.9502 -9255.9785 -7487.0359 302.5376 826.3869 883.4826 30051.9840 367.3012 433.6895
ENERGY: 900000 1.3771 4.9795 5.6745 0.0000 -10679.6703 1433.9682 0.0000 0.0000 1812.3066 -7421.3644 307.7942 -9233.6710 -7487.6595 302.1727 242.8713 234.4236 29962.5313 294.5943 358.4995
ENERGY: 1200000 2.1561 2.4792 4.0192 0.0000 -10655.1497 1377.4155 0.0000 0.0000 1794.8897 -7474.1900 304.8362 -9269.0797 -7496.6669 301.4682 -384.9617 -350.4309 30515.7783 162.6494 226.7085
ENERGY: 1500000 0.4435 7.0460 2.8307 0.0000 -10886.4299 1525.0452 0.0000 0.0000 1785.1994 -7565.8649 303.1904 -9351.0644 -7499.1674 301.4597 334.3897 379.7175 30382.6270 146.2674 210.5397
TCL: Running FEP window  20: Lambda1 0.049999999999999684 Lambda2 0.0    [dLambda -0.049999999999999684]
TCL: Setting parameter firsttimestep to 0
TCL: Setting parameter alchLambda to 0.049999999999999684
Info: NONBONDED TABLE R-SQUARED SPACING: 0.0625
Info: NONBONDED TABLE SIZE: 705 POINTS
TCL: Setting parameter alchLambda2 to 0.0
Info: NONBONDED TABLE R-SQUARED SPACING: 0.0625
Info: NONBONDED TABLE SIZE: 705 POINTS
TCL: Running for 1500000 steps
ETITLE: TS BOND ANGLE DIHED IMPRP ELECT VDW BOUNDARY MISC KINETIC TOTAL TEMP POTENTIAL TOTALAVG TEMPAVG PRESSURE GPRESSURE VOLUME PRESSAVG GPRESSAVG
ENERGY: 0 0.4435 7.0460 2.8307 0.0000 -10886.4286 1524.9126 0.0000 0.0000 1784.3221 -7566.8736 303.0414 -9351.1957 -7566.8736 303.0414 297.3455 376.7317 30382.6270 297.3455 376.7317
ENERGY: 300000 6.9840 3.0777 0.7349 0.0000 -10654.3702 1356.8386 0.0000 0.0000 1782.5478 -7504.1872 302.7401 -9286.7350 -7539.7168 300.1342 -871.0783 -817.0682 30310.1771 -25.3094 38.7782
ENERGY: 600000 4.0006 5.9386 3.1514 0.0000 -10808.6642 1427.6635 0.0000 0.0000 1759.7808 -7608.1293 298.8734 -9367.9101 -7540.9841 300.8209 -270.7909 -206.3239 29756.4297 50.4368 114.8594
ENERGY: 900000 1.8059 3.4906 3.4952 0.0000 -10697.0692 1445.9951 0.0000 0.0000 1819.2734 -7423.0089 308.9774 -9242.2823 -7515.9629 302.6167 269.9338 285.0896 30035.0078 -22.6224 31.9447
ENERGY: 1200000 1.2741 5.5098 4.8657 0.0000 -10711.9954 1443.2378 0.0000 0.0000 1736.1273 -7520.9808 294.8562 -9257.1081 -7513.8835 301.7938 62.8000 122.0323 30086.3042 33.6002 86.6236
ENERGY: 1500000 2.8110 2.7623 1.7567 0.0000 -10645.4102 1401.2541 0.0000 0.0000 1760.8854 -7475.9406 299.0610 -9236.8261 -7509.8011 301.8618 -43.5308 35.0626 29890.7114 84.3303 135.4399
TCL: Exiting due to exit command.
