Info: SIMULATION PARAMETERS:
Info: TIMESTEP               2
Info: NUMBER OF STEPS        0
Info: STEPS PER CYCLE        10
Info: PERIODIC CELL BASIS 1  31.1279 0 0
Info: PERIODIC CELL BASIS 2  0 29.7203 0
Info: PERIODIC CELL BASIS 3  0 0 33.0933
Info: PERIODIC CELL CENTER   0 0 0
Info: WRAPPING WATERS AROUND PERIODIC BOUNDARIES ON OUTPUT.
Info: WRAPPING ALL CLUSTERS AROUND PERIODIC BOUNDARIES ON OUTPUT.
Info: FIRST LDB TIMESTEP     50
Info: LAST LDB TIMESTEP     -1
Info: HOM BACKGROUND SCALING 1
Info: PME BACKGROUND SCALING 1
Info: MIN ATOMS PER PATCH    40
Info: EMPTY PATCH LOAD       40 ATOMS
Info: VELOCITY FILE          mobley_4883284_equil.vel
Info: CENTER OF MASS MOVING INITIALLY? NO
Info: DIELECTRIC             1
Info: EXCLUDE                SCALED ONE-FOUR
Info: 1-4 ELECTROSTATICS SCALED BY 0.833333
Info: MODIFIED 1-4 VDW PARAMETERS WILL BE USED
Info: DCD FILENAME           mobley_4883284_prod.dcd
Info: DCD FREQUENCY          100000
Info: DCD FIRST STEP         100000
Info: DCD FILE WILL CONTAIN UNIT CELL DATA
Info: XST FILENAME           mobley_4883284_prod.xst
Info: XST FREQUENCY          100000
Info: NO VELOCITY DCD OUTPUT
Info: NO FORCE DCD OUTPUT
Info: OUTPUT FILENAME        mobley_4883284_prod
Info: BINARY OUTPUT FILES WILL BE USED
Info: RESTART FILENAME       mobley_4883284_prod.restart
Info: RESTART FREQUENCY      100000
Info: BINARY RESTART FILES WILL BE USED
Info: CUTOFF                 9
Info: PAIRLIST DISTANCE      11
Info: PAIRLIST SHRINK RATE   0.01
Info: PAIRLIST GROW RATE     0.01
Info: PAIRLIST TRIGGER       0.3
Info: PAIRLISTS PER CYCLE    2
Info: PAIRLISTS ENABLED
Info: MARGIN                 2
Info: HYDROGEN GROUP CUTOFF  2.5
Info: PATCH DIMENSION        15.5
Info: ENERGY OUTPUT STEPS    100000
Info: ENERGY EVALUATION STEPS    100000
Info: OUTPUT ENERGY PRECISION 4
Info: CROSSTERM ENERGY INCLUDED IN DIHEDRAL
Info: TIMING OUTPUT STEPS    1000000
Info: PRESSURE OUTPUT STEPS  100000
Info: ALCHEMICAL FEP ON
Info: FEP CURRENT LAMBDA VALUE     1
Info: FEP COMPARISON LAMBDA VALUE  0.95
Info: FEP INTRA-ALCHEMICAL NON-BONDED INTERACTIONS WILL BE RETAINED
Info: FEP INTRA-ALCHEMICAL BONDED INTERACTIONS WILL BE RETAINED
Info: FEP VDW SHIFTING COEFFICIENT 5
Info: FEP ELEC. ACTIVE FOR ANNIHILATED PARTICLES BETWEEN LAMBDA = 0 AND LAMBDA = 0.5
Info: FEP ELEC. ACTIVE FOR EXNIHILATED PARTICLES BETWEEN LAMBDA = 0.5 AND LAMBDA = 1
Info: FEP VDW ACTIVE FOR ANNIHILATED PARTICLES BETWEEN LAMBDA = 0 AND LAMBDA = 1
Info: FEP VDW ACTIVE FOR EXNIHILATED PARTICLES BETWEEN LAMBDA = 0 AND LAMBDA = 1
Info: FEP BOND ACTIVE FOR ANNIHILATED PARTICLES BETWEEN LAMBDA = 1 AND LAMBDA = 1
Info: FEP BOND ACTIVE FOR EXNIHILATED PARTICLES BETWEEN LAMBDA = 0 AND LAMBDA = 0
Info: LANGEVIN DYNAMICS ACTIVE
Info: LANGEVIN TEMPERATURE   300
Info: LANGEVIN USING BBK INTEGRATOR
Info: LANGEVIN DAMPING COEFFICIENT IS 1 INVERSE PS
Info: LANGEVIN DYNAMICS APPLIED TO HYDROGENS
Info: LANGEVIN PISTON PRESSURE CONTROL ACTIVE
Info:        TARGET PRESSURE IS 1.01325 BAR
Info:     OSCILLATION PERIOD IS 50 FS
Info:             DECAY TIME IS 25 FS
Info:     PISTON TEMPERATURE IS 300 K
Info:       PRESSURE CONTROL IS GROUP-BASED
Info:    INITIAL STRAIN RATE IS 5.93221e-05 5.93221e-05 5.93221e-05
Info:       CELL FLUCTUATION IS ISOTROPIC
Info: PARTICLE MESH EWALD (PME) ACTIVE
Info: PME TOLERANCE               1e-06
Info: PME EWALD COEFFICIENT       0.348832
Info: PME INTERPOLATION ORDER     4
Info: PME GRID DIMENSIONS         32 32 36
Info: PME MAXIMUM GRID SPACING    1
Info: PME CALCULATION WILL BE PERFORMED ON GPU
Info: FULL ELECTROSTATIC EVALUATION FREQUENCY      2
Info: USING VERLET I (r-RESPA) MTS SCHEME.
Info: C1 SPLITTING OF LONG RANGE ELECTROSTATICS
Info: PLACING ATOMS IN PATCHES BY HYDROGEN GROUPS
Info: RIGID BONDS TO HYDROGEN : ALL
Info:         ERROR TOLERANCE : 1e-08
Info:          MAX ITERATIONS : 100
Info: RIGID WATER USING SETTLE ALGORITHM
Info: RANDOM NUMBER SEED     1743577807
Info: USE HYDROGEN BONDS?    NO
Info: Using AMBER format force field!
Info: AMBER PARM FILE        mobley_4883284.prmtop
Info: COORDINATE PDB         mobley_4883284.pdb
Info: Exclusions will be read from PARM file!
Info: SCNB (VDW SCALING)     2
Info: USING ARITHMETIC MEAN TO COMBINE L-J SIGMA PARAMETERS
Info: BINARY COORDINATES     mobley_4883284_equil.coor
Info: SUMMARY OF PARAMETERS:
Info: 6 BONDS
Info: 5 ANGLES
Info:   5 HARMONIC
Info:   0 COSINE-BASED
Info: 3 DIHEDRAL
Info: 0 IMPROPER
Info: 0 CROSSTERM
Info: 0 VDW
Info: 21 VDW_PAIRS
Info: 0 NBTHOLE_PAIRS
Info: To read alchdata from file: mobley_4883284.pdb
Info: To read alchflag data from column: 5
Info: STRUCTURE SUMMARY:
Info: 2963 ATOMS
Info: 2963 BONDS
Info: 21 ANGLES
Info: 35 DIHEDRALS
Info: 0 IMPROPERS
Info: 0 CROSSTERMS
Info: 3009 EXCLUSIONS
Info: 2956 RIGID BONDS
Info: ALCH: 0 ATOMS TO DISAPPEAR IN FINAL STATE
Info: ALCH: 14 ATOMS TO APPEAR IN FINAL STATE
Info: 5933 DEGREES OF FREEDOM
Info: 990 HYDROGEN GROUPS
Info: 3 ATOMS IN LARGEST HYDROGEN GROUP
Info: 990 MIGRATION GROUPS
Info: 3 ATOMS IN LARGEST MIGRATION GROUP
Info: TOTAL MASS = 17802.9 amu
Info: TOTAL CHARGE = 0.000299931 e
Info: MASS DENSITY = 0.965619 g/cm^3
Info: ATOM DENSITY = 0.0967807 atoms/A^3
Info: ADDED 0 IMPLICIT EXCLUSIONS
Info: NONBONDED TABLE R-SQUARED SPACING: 0.0625
Info: NONBONDED TABLE SIZE: 705 POINTS
Info: REMOVING COM VELOCITY 0.0351757 -0.320467 -0.134118
Info: Use 3D box decompostion in PME FFT.
Info: Updated CUDA force table with 4096 elements.
Info: Updated CUDA LJ table with 6 x 6 elements.
Info: Found 16 unique exclusion lists needing 32 bytes
TCL: Running for 1500000 steps
ETITLE: TS BOND ANGLE DIHED IMPRP ELECT VDW BOUNDARY MISC KINETIC TOTAL TEMP POTENTIAL TOTALAVG TEMPAVG PRESSURE GPRESSURE VOLUME PRESSAVG GPRESSAVG
ENERGY: 0 2.1372 5.0801 4.9137 0.0000 -10901.8324 1510.5090 0.0000 0.0000 1731.8993 -7647.2931 293.7911 -9379.1923 -7647.2931 293.7911 302.5643 376.2105 30615.6169 302.5643 376.2105
ENERGY: 300000 2.4025 2.7887 4.8813 0.0000 -10660.2400 1413.4887 0.0000 0.0000 1779.6474 -7457.0313 301.8909 -9236.6788 -7575.8005 295.7156 -276.4460 -239.9608 31043.4671 32.6808 76.6495
ENERGY: 600000 3.4166 5.3279 5.6752 0.0000 -10798.4486 1432.0450 0.0000 0.0000 1830.8778 -7521.1061 310.5814 -9351.9839 -7579.3049 297.0134 -241.9930 -249.6993 30561.8187 -18.5867 16.1437
ENERGY: 900000 1.5733 3.1663 3.9516 0.0000 -10815.7799 1491.6353 0.0000 0.0000 1720.4008 -7595.0526 291.8406 -9315.4534 -7577.4856 296.6880 120.8258 194.2910 30722.9007 88.9866 127.5789
ENERGY: 1200000 1.1537 2.7892 5.5857 0.0000 -10795.9600 1489.1342 0.0000 0.0000 1751.1311 -7546.1661 297.0535 -9297.2973 -7573.3652 297.4284 167.8434 227.6169 30895.3313 78.1621 117.3534
ENERGY: 1500000 0.5852 3.2277 3.7672 0.0000 -10748.7179 1433.8243 0.0000 0.0000 1807.5788 -7499.7347 306.6290 -9307.3135 -7552.9810 299.3777 -179.7515 -109.3187 30667.4547 170.6647 212.3417
TCL: Running FEP window   2: Lambda1 0.95   Lambda2 0.8999999999999999 [dLambda -0.050000000000000044]
TCL: Setting parameter firsttimestep to 0
TCL: Setting parameter alchLambda to 0.95
Info: NONBONDED TABLE R-SQUARED SPACING: 0.0625
Info: NONBONDED TABLE SIZE: 705 POINTS
TCL: Setting parameter alchLambda2 to 0.8999999999999999
Info: NONBONDED TABLE R-SQUARED SPACING: 0.0625
Info: NONBONDED TABLE SIZE: 705 POINTS
TCL: Running for 1500000 steps
ETITLE: TS BOND ANGLE DIHED IMPRP ELECT VDW BOUNDARY MISC KINETIC TOTAL TEMP POTENTIAL TOTALAVG TEMPAVG PRESSURE GPRESSURE VOLUME PRESSAVG GPRESSAVG
ENERGY: 0 0.5852 3.2277 3.7672 0.0000 -10747.4226 1433.5167 0.0000 0.0000 1806.7173 -7499.6086 306.4829 -9306.3259 -7499.6086 306.4829 -200.0740 -121.6628 30667.4547 -200.0740 -121.6628
ENERGY: 300000 3.6353 6.8615 2.2207 0.0000 -10667.2448 1404.1571 0.0000 0.0000 1759.4052 -7490.9651 298.4571 -9250.3703 -7484.3557 301.9420 -192.8385 -113.1995 30854.9642 -17.1156 48.8226
ENERGY: 600000 2.6651 2.0942 4.1142 0.0000 -10805.8682 1415.5480 0.0000 0.0000 1757.3160 -7624.1307 298.1027 -9381.4467 -7531.0668 300.3937 -591.8516 -545.6608 30792.3812 -63.6106 -12.4745
ENERGY: 900000 3.4684 3.3051 5.7183 0.0000 -10892.7161 1582.6844 0.0000 0.0000 1707.9346 -7589.6054 289.7259 -9297.5399 -7530.9880 300.3466 997.5762 1038.5880 30418.8630 98.1262 143.0011
ENERGY: 1200000 2.1680 3.1181 6.1165 0.0000 -10735.2657 1482.0680 0.0000 0.0000 1825.5434 -7416.2516 309.6765 -9241.7950 -7521.4729 300.6430 523.3548 624.2962 30514.1162 81.8100 133.3572
ENERGY: 1500000 3.8348 2.6220 2.2131 0.0000 -10795.9493 1451.9873 0.0000 0.0000 1802.7157 -7532.5764 305.8041 -9335.2921 -7519.1144 301.2812 -62.2643 24.5033 30397.5713 18.7225 73.4948
TCL: Running FEP window   3: Lambda1 0.8999999999999999 Lambda2 0.8499999999999999 [dLambda -0.050000000000000044]
TCL: Setting parameter firsttimestep to 0
TCL: Setting parameter alchLambda to 0.8999999999999999
Info: NONBONDED TABLE R-SQUARED SPACING: 0.0625
Info: NONBONDED TABLE SIZE: 705 POINTS
TCL: Setting parameter alchLambda2 to 0.8499999999999999
Info: NONBONDED TABLE R-SQUARED SPACING: 0.0625
Info: NONBONDED TABLE SIZE: 705 POINTS
TCL: Running for 1500000 steps
ETITLE: TS BOND ANGLE DIHED IMPRP ELECT VDW BOUNDARY MISC KINETIC TOTAL TEMP POTENTIAL TOTALAVG TEMPAVG PRESSURE GPRESSURE VOLUME PRESSAVG GPRESSAVG
ENERGY: 0 3.8348 2.6220 2.2131 0.0000 -10794.7671 1451.7737 0.0000 0.0000 1801.8921 -7532.4315 305.6644 -9334.3235 -7532.4315 305.6644 -80.7159 13.0275 30397.5713 -80.7159 13.0275
ENERGY: 300000 4.4919 3.2775 3.7200 0.0000 -10840.3930 1468.9677 0.0000 0.0000 1767.4533 -7592.4826 299.8223 -9359.9359 -7521.2606 302.2311 31.6107 144.7157 30217.6221 53.4877 116.5822
ENERGY: 600000 2.0832 5.5001 5.2555 0.0000 -10836.7630 1483.4373 0.0000 0.0000 1765.9482 -7574.5388 299.5670 -9340.4870 -7538.6521 300.7267 41.7960 76.8271 30658.9546 -233.1746 -176.9585
ENERGY: 900000 1.9618 3.5328 3.8174 0.0000 -10748.7857 1429.0824 0.0000 0.0000 1770.6982 -7539.6931 300.3728 -9310.3913 -7537.3420 300.4346 -152.7653 -107.9615 30552.7446 -190.5833 -131.4622
ENERGY: 1200000 1.5617 5.1924 3.3128 0.0000 -10690.0783 1472.6511 0.0000 0.0000 1704.8260 -7502.5344 289.1985 -9207.3604 -7546.0600 298.1835 418.9378 450.5347 30978.4026 -135.9727 -80.1970
ENERGY: 1500000 1.8424 1.8396 4.4931 0.0000 -10739.4106 1405.7510 0.0000 0.0000 1750.5833 -7574.9013 296.9606 -9325.4845 -7544.0039 298.4593 -108.3079 -71.1706 30147.8272 -132.8182 -72.7238
TCL: Running FEP window   4: Lambda1 0.8499999999999999 Lambda2 0.7999999999999998 [dLambda -0.050000000000000044]
TCL: Setting parameter firsttimestep to 0
TCL: Setting parameter alchLambda to 0.8499999999999999
Info: NONBONDED TABLE R-SQUARED SPACING: 0.0625
Info: NONBONDED TABLE SIZE: 705 POINTS
TCL: Setting parameter alchLambda2 to 0.7999999999999998
Info: NONBONDED TABLE R-SQUARED SPACING: 0.0625
Info: NONBONDED TABLE SIZE: 705 POINTS
TCL: Running for 1500000 steps
ETITLE: TS BOND ANGLE DIHED IMPRP ELECT VDW BOUNDARY MISC KINETIC TOTAL TEMP POTENTIAL TOTALAVG TEMPAVG PRESSURE GPRESSURE VOLUME PRESSAVG GPRESSAVG
ENERGY: 0 1.8424 1.8396 4.4931 0.0000 -10737.6273 1404.8774 0.0000 0.0000 1749.7130 -7574.8618 296.8130 -9324.5748 -7574.8618 296.8130 -193.0636 -88.4590 30147.8272 -193.0636 -88.4590
ENERGY: 300000 1.4129 4.7652 6.6001 0.0000 -10708.4480 1463.6677 0.0000 0.0000 1824.0710 -7407.9312 309.4267 -9232.0022 -7522.4559 299.3396 689.3607 703.7754 30210.2448 -51.3406 16.0924
ENERGY: 600000 1.6180 3.8124 3.3041 0.0000 -10747.1924 1416.9119 0.0000 0.0000 1752.6133 -7568.9327 297.3049 -9321.5460 -7548.6904 299.9684 -166.7560 -83.3711 30409.2320 53.5762 124.2824
ENERGY: 900000 2.0715 4.4438 1.9462 0.0000 -10589.7955 1363.2310 0.0000 0.0000 1754.7045 -7463.3984 297.6597 -9218.1029 -7538.7272 300.8795 -86.1074 -46.9811 30264.0864 2.5361 63.1054
ENERGY: 1200000 1.3338 4.7216 4.3087 0.0000 -10815.9918 1435.2204 0.0000 0.0000 1773.2611 -7597.1462 300.8075 -9370.4073 -7542.0494 301.5379 -228.9819 -189.2937 30554.3456 -8.1339 53.6517
ENERGY: 1500000 0.5478 2.1503 5.3802 0.0000 -10741.9285 1452.3450 0.0000 0.0000 1819.2709 -7462.2342 308.6124 -9281.5052 -7535.2215 302.1248 382.7087 437.2503 30418.4754 -17.0435 44.7429
TCL: Running FEP window   5: Lambda1 0.7999999999999998 Lambda2 0.7499999999999998 [dLambda -0.050000000000000044]
TCL: Setting parameter firsttimestep to 0
TCL: Setting parameter alchLambda to 0.7999999999999998
Info: NONBONDED TABLE R-SQUARED SPACING: 0.0625
Info: NONBONDED TABLE SIZE: 705 POINTS
TCL: Setting parameter alchLambda2 to 0.7499999999999998
Info: NONBONDED TABLE R-SQUARED SPACING: 0.0625
Info: NONBONDED TABLE SIZE: 705 POINTS
TCL: Running for 1500000 steps
ETITLE: TS BOND ANGLE DIHED IMPRP ELECT VDW BOUNDARY MISC KINETIC TOTAL TEMP POTENTIAL TOTALAVG TEMPAVG PRESSURE GPRESSURE VOLUME PRESSAVG GPRESSAVG
ENERGY: 0 0.5478 2.1503 5.3802 0.0000 -10740.2341 1451.8879 0.0000 0.0000 1818.3463 -7461.9216 308.4556 -9280.2679 -7461.9216 308.4556 340.8900 428.8049 30418.4754 340.8900 428.8049
ENERGY: 300000 2.5478 3.4239 2.2233 0.0000 -10737.4638 1446.7743 0.0000 0.0000 1765.1275 -7517.3670 299.4278 -9282.4945 -7522.2348 299.3217 -37.6505 15.1879 30737.9569 -208.7762 -149.9225
ENERGY: 600000 2.5820 4.6755 3.5117 0.0000 -10675.7805 1413.6629 0.0000 0.0000 1826.4509 -7424.8974 309.8304 -9251.3484 -7526.0311 300.4826 -36.8505 32.7715 30483.6500 -84.2296 -24.8838
ENERGY: 900000 3.1136 2.4974 3.7926 0.0000 -10876.5064 1480.0676 0.0000 0.0000 1771.3672 -7615.6681 300.4863 -9387.0353 -7551.5876 300.1432 137.2078 175.6438 30407.7630 -41.6697 19.2204
ENERGY: 1200000 3.0510 5.8932 7.3790 0.0000 -10763.1774 1443.3678 0.0000 0.0000 1740.4941 -7562.9923 295.2491 -9303.4864 -7547.4697 299.5366 -107.0148 -94.3477 30916.9080 -63.1649 -5.2947
ENERGY: 1500000 1.1628 4.1840 5.9796 0.0000 -10837.4246 1458.6302 0.0000 0.0000 1737.2585 -7630.2096 294.7002 -9367.4681 -7551.7809 298.7428 -24.4013 87.6359 30339.3118 -90.7740 -27.5603
TCL: Running FEP window   6: Lambda1 0.7499999999999998 Lambda2 0.6999999999999997 [dLambda -0.050000000000000044]
TCL: Setting parameter firsttimestep to 0
TCL: Setting parameter alchLambda to 0.7499999999999998
Info: NONBONDED TABLE R-SQUARED SPACING: 0.0625
Info: NONBONDED TABLE SIZE: 705 POINTS
TCL: Setting parameter alchLambda2 to 0.6999999999999997
Info: NONBONDED TABLE R-SQUARED SPACING: 0.0625
Info: NONBONDED TABLE SIZE: 705 POINTS
TCL: Running for 1500000 steps
ETITLE: TS BOND ANGLE DIHED IMPRP ELECT VDW BOUNDARY MISC KINETIC TOTAL TEMP POTENTIAL TOTALAVG TEMPAVG PRESSURE GPRESSURE VOLUME PRESSAVG GPRESSAVG
ENERGY: 0 1.1628 4.1840 5.9796 0.0000 -10835.7289 1458.4369 0.0000 0.0000 1736.3487 -7629.6170 294.5459 -9365.9658 -7629.6170 294.5459 -0.1335 82.6722 30339.3118 -0.1335 82.6722
ENERGY: 300000 2.4707 2.0734 5.8374 0.0000 -10903.8821 1548.4603 0.0000 0.0000 1761.1329 -7583.9075 298.7502 -9345.0404 -7600.3995 297.0546 484.0261 493.5479 30610.5485 61.8459 140.7017
ENERGY: 600000 3.8043 3.1947 7.1501 0.0000 -10660.7479 1332.7551 0.0000 0.0000 1811.8220 -7502.0217 307.3488 -9313.8437 -7549.3876 302.3208 -922.9607 -816.0934 30509.8029 89.8214 157.7551
ENERGY: 900000 2.8304 7.4759 4.5510 0.0000 -10796.3801 1426.7648 0.0000 0.0000 1758.8164 -7595.9415 298.3572 -9354.7580 -7547.2293 301.1283 -146.2376 -84.4777 30460.5216 -82.9196 -17.0343
ENERGY: 1200000 1.6004 4.1210 2.6962 0.0000 -10684.9397 1405.8020 0.0000 0.0000 1748.7003 -7522.0198 296.6412 -9270.7201 -7543.3336 300.2822 -205.8509 -174.9441 30789.3761 -7.0136 58.8019
ENERGY: 1500000 1.6190 3.7716 2.8371 0.0000 -10839.0953 1535.2728 0.0000 0.0000 1825.5480 -7470.0468 309.6772 -9295.5948 -7537.8681 300.6570 728.1126 805.3798 30208.2934 83.1916 152.3710
TCL: Running FEP window   7: Lambda1 0.6999999999999997 Lambda2 0.6499999999999997 [dLambda -0.050000000000000044]
TCL: Setting parameter firsttimestep to 0
TCL: Setting parameter alchLambda to 0.6999999999999997
Info: NONBONDED TABLE R-SQUARED SPACING: 0.0625
Info: NONBONDED TABLE SIZE: 705 POINTS
TCL: Setting parameter alchLambda2 to 0.6499999999999997
Info: NONBONDED TABLE R-SQUARED SPACING: 0.0625
Info: NONBONDED TABLE SIZE: 705 POINTS
TCL: Running for 1500000 steps
ETITLE: TS BOND ANGLE DIHED IMPRP ELECT VDW BOUNDARY MISC KINETIC TOTAL TEMP POTENTIAL TOTALAVG TEMPAVG PRESSURE GPRESSURE VOLUME PRESSAVG GPRESSAVG
ENERGY: 0 1.6190 3.7716 2.8371 0.0000 -10837.7784 1535.1186 0.0000 0.0000 1824.6945 -7469.7377 309.5325 -9294.4322 -7469.7377 309.5325 735.1711 799.7543 30208.2934 735.1711 799.7543
ENERGY: 300000 2.6239 2.1417 6.3488 0.0000 -10929.4393 1530.4417 0.0000 0.0000 1765.2284 -7622.6549 299.4449 -9387.8832 -7505.4440 304.5455 301.1436 328.6291 30509.7558 415.7889 466.9053
ENERGY: 600000 3.5607 4.0083 4.7912 0.0000 -10821.9366 1480.8103 0.0000 0.0000 1771.3940 -7557.3722 300.4908 -9328.7662 -7514.5359 303.3649 458.2125 533.6846 30090.0806 366.0442 422.1328
ENERGY: 900000 2.2359 6.5809 3.8890 0.0000 -10689.7640 1399.0092 0.0000 0.0000 1703.1278 -7574.9212 288.9105 -9278.0491 -7521.2153 301.0746 -333.7617 -267.7939 30449.6841 108.8765 162.6728
ENERGY: 1200000 2.9007 4.6147 1.9253 0.0000 -10605.9892 1283.3105 0.0000 0.0000 1768.2107 -7545.0273 299.9508 -9313.2380 -7533.3215 300.5389 -1329.8198 -1293.2496 30796.2336 73.8573 125.5399
ENERGY: 1500000 1.2355 3.2581 6.3678 0.0000 -10650.0316 1400.5045 0.0000 0.0000 1726.6505 -7512.0153 292.9007 -9238.6657 -7534.9784 300.0403 -332.5760 -259.2400 30895.0790 25.4089 73.0071
TCL: Running FEP window   8: Lambda1 0.6499999999999997 Lambda2 0.5999999999999996 [dLambda -0.050000000000000044]
TCL: Setting parameter firsttimestep to 0
TCL: Setting parameter alchLambda to 0.6499999999999997
Info: NONBONDED TABLE R-SQUARED SPACING: 0.0625
Info: NONBONDED TABLE SIZE: 705 POINTS
TCL: Setting parameter alchLambda2 to 0.5999999999999996
Info: NONBONDED TABLE R-SQUARED SPACING: 0.0625
Info: NONBONDED TABLE SIZE: 705 POINTS
TCL: Running for 1500000 steps
ETITLE: TS BOND ANGLE DIHED IMPRP ELECT VDW BOUNDARY MISC KINETIC TOTAL TEMP POTENTIAL TOTALAVG TEMPAVG PRESSURE GPRESSURE VOLUME PRESSAVG GPRESSAVG
ENERGY: 0 1.2355 3.2581 6.3678 0.0000 -10649.3220 1400.8865 0.0000 0.0000 1725.7725 -7511.8016 292.7518 -9237.5741 -7511.8016 292.7518 -330.7661 -259.4533 30895.0790 -330.7661 -259.4533
ENERGY: 300000 3.0844 4.9103 1.9367 0.0000 -10651.4179 1327.9102 0.0000 0.0000 1775.6550 -7537.9212 301.2136 -9313.5762 -7526.3567 298.4775 -1182.1095 -1155.1646 30944.5519 -382.2298 -355.3001
ENERGY: 600000 2.2113 3.9281 2.1509 0.0000 -10871.7583 1434.5660 0.0000 0.0000 1735.5393 -7693.3627 294.4086 -9428.9020 -7542.9929 301.0078 -343.4849 -225.7716 30053.2493 -275.1341 -228.2738
ENERGY: 900000 6.0105 4.8127 5.5522 0.0000 -10811.2542 1419.2783 0.0000 0.0000 1811.8675 -7563.7331 307.3565 -9375.6006 -7535.3327 302.6265 -343.8689 -282.9258 30407.3851 -289.7137 -242.5111
ENERGY: 1200000 2.1684 8.0378 3.6032 0.0000 -10903.3147 1550.4710 0.0000 0.0000 1766.0896 -7572.9445 299.5910 -9339.0342 -7524.6272 301.7055 761.8047 827.3026 30265.7270 -180.9795 -133.5869
ENERGY: 1500000 0.6442 4.1770 3.9043 0.0000 -10622.3887 1327.8954 0.0000 0.0000 1721.2335 -7564.5343 291.9818 -9285.7678 -7528.1813 300.8884 -896.4477 -831.7869 30795.5774 -255.4166 -208.9825
TCL: Running FEP window   9: Lambda1 0.5999999999999996 Lambda2 0.5499999999999996 [dLambda -0.050000000000000044]
TCL: Setting parameter firsttimestep to 0
TCL: Setting parameter alchLambda to 0.5999999999999996
Info: NONBONDED TABLE R-SQUARED SPACING: 0.0625
Info: NONBONDED TABLE SIZE: 705 POINTS
TCL: Setting parameter alchLambda2 to 0.5499999999999996
Info: NONBONDED TABLE R-SQUARED SPACING: 0.0625
Info: NONBONDED TABLE SIZE: 705 POINTS
TCL: Running for 1500000 steps
ETITLE: TS BOND ANGLE DIHED IMPRP ELECT VDW BOUNDARY MISC KINETIC TOTAL TEMP POTENTIAL TOTALAVG TEMPAVG PRESSURE GPRESSURE VOLUME PRESSAVG GPRESSAVG
ENERGY: 0 0.6442 4.1770 3.9043 0.0000 -10620.8816 1327.2931 0.0000 0.0000 1720.3519 -7564.5111 291.8323 -9284.8630 -7564.5111 291.8323 -923.9924 -836.2740 30795.5774 -923.9924 -836.2740
ENERGY: 300000 1.1013 4.0984 2.5341 0.0000 -10737.6254 1475.9633 0.0000 0.0000 1807.7158 -7446.2126 306.6523 -9253.9284 -7532.7180 298.5230 404.9486 410.8321 30369.0477 -208.4644 -139.5099
ENERGY: 600000 2.8573 2.4235 5.6844 0.0000 -10722.1000 1470.2404 0.0000 0.0000 1759.0587 -7481.8358 298.3983 -9240.8945 -7498.9497 299.4841 647.9079 678.2015 29969.7050 -106.9641 -42.1628
ENERGY: 900000 1.5704 6.2393 6.1205 0.0000 -10741.5401 1380.5600 0.0000 0.0000 1745.6036 -7601.4463 296.1159 -9347.0499 -7522.6215 298.1617 -448.4396 -397.3380 29888.8089 -18.0286 46.0775
ENERGY: 1200000 2.6534 4.5980 5.5241 0.0000 -10793.7690 1435.3202 0.0000 0.0000 1820.7369 -7524.9364 308.8611 -9345.6733 -7526.4091 299.3449 -47.0960 -4.8440 30177.3544 -27.6125 36.6433
ENERGY: 1500000 1.7745 3.8081 3.5117 0.0000 -10698.0807 1415.5495 0.0000 0.0000 1762.7325 -7510.7045 299.0215 -9273.4371 -7523.4650 299.8051 -102.8154 -26.2769 30703.8954 61.4424 124.2562
TCL: Running FEP window  10: Lambda1 0.5499999999999996 Lambda2 0.4999999999999996 [dLambda -0.04999999999999999]
TCL: Setting parameter firsttimestep to 0
TCL: Setting parameter alchLambda to 0.5499999999999996
Info: NONBONDED TABLE R-SQUARED SPACING: 0.0625
Info: NONBONDED TABLE SIZE: 705 POINTS
TCL: Setting parameter alchLambda2 to 0.4999999999999996
Info: NONBONDED TABLE R-SQUARED SPACING: 0.0625
Info: NONBONDED TABLE SIZE: 705 POINTS
TCL: Running for 1500000 steps
ETITLE: TS BOND ANGLE DIHED IMPRP ELECT VDW BOUNDARY MISC KINETIC TOTAL TEMP POTENTIAL TOTALAVG TEMPAVG PRESSURE GPRESSURE VOLUME PRESSAVG GPRESSAVG
ENERGY: 0 1.7745 3.8081 3.5117 0.0000 -10697.3924 1415.5146 0.0000 0.0000 1761.8319 -7510.9517 298.8687 -9272.7836 -7510.9517 298.8687 -118.2622 -32.6423 30703.8954 -118.2622 -32.6423
ENERGY: 300000 0.9674 3.5486 6.3378 0.0000 -10843.7449 1500.6709 0.0000 0.0000 1755.8385 -7576.3816 297.8521 -9332.2201 -7548.7813 300.9075 204.0141 323.3302 30494.2418 -15.2240 73.1010
ENERGY: 600000 1.5219 3.9192 1.9189 0.0000 -10697.3827 1444.1526 0.0000 0.0000 1699.4817 -7546.3884 288.2920 -9245.8700 -7519.7226 299.4501 142.3265 144.6644 30680.2209 -31.7141 41.7476
ENERGY: 900000 2.5373 4.6730 4.0532 0.0000 -10695.5872 1351.1370 0.0000 0.0000 1755.6184 -7577.5683 297.8147 -9333.1867 -7522.0832 300.1806 -968.3963 -958.2434 30680.9323 -113.4910 -49.8552
ENERGY: 1200000 1.3442 3.0826 5.2711 0.0000 -10809.4688 1499.7673 0.0000 0.0000 1868.5086 -7431.4949 316.9649 -9300.0036 -7517.2820 302.1266 641.4022 711.2805 30039.0451 -134.7269 -66.8765
ENERGY: 1500000 2.3742 3.1866 2.9326 0.0000 -10585.6481 1337.1213 0.0000 0.0000 1781.3718 -7458.6617 302.1834 -9240.0334 -7511.1048 301.7616 -1011.6519 -986.3884 31029.3920 -217.4561 -150.2345
TCL: Running FEP window  11: Lambda1 0.4999999999999996 Lambda2 0.4499999999999996 [dLambda -0.04999999999999999]
TCL: Setting parameter firsttimestep to 0
TCL: Setting parameter alchLambda to 0.4999999999999996
Info: NONBONDED TABLE R-SQUARED SPACING: 0.0625
Info: NONBONDED TABLE SIZE: 705 POINTS
TCL: Setting parameter alchLambda2 to 0.4499999999999996
Info: NONBONDED TABLE R-SQUARED SPACING: 0.0625
Info: NONBONDED TABLE SIZE: 705 POINTS
TCL: Running for 1500000 steps
ETITLE: TS BOND ANGLE DIHED IMPRP ELECT VDW BOUNDARY MISC KINETIC TOTAL TEMP POTENTIAL TOTALAVG TEMPAVG PRESSURE GPRESSURE VOLUME PRESSAVG GPRESSAVG
ENERGY: 0 2.3742 3.1866 2.9326 0.0000 -10586.1274 1337.2864 0.0000 0.0000 1780.5298 -7459.8177 302.0406 -9240.3476 -7459.8177 302.0406 -1078.6390 -991.9191 31029.3920 -1078.6390 -991.9191
ENERGY: 300000 3.7174 5.8132 2.8043 0.0000 -10736.4509 1476.9747 0.0000 0.0000 1792.9139 -7454.2274 304.1414 -9247.1413 -7508.5207 301.2046 330.3772 331.7363 30591.3506 -250.2723 -199.4593
ENERGY: 600000 3.9286 2.7324 4.9851 0.0000 -10888.3668 1539.2148 0.0000 0.0000 1767.5341 -7569.9719 299.8360 -9337.5059 -7534.2268 301.5522 754.3485 805.3669 30177.4101 32.1156 95.5700
ENERGY: 900000 2.2487 2.9295 2.4875 0.0000 -10741.4603 1430.7765 0.0000 0.0000 1791.5696 -7511.4484 303.9133 -9303.0180 -7529.6077 301.5388 -234.1971 -154.3911 30619.9439 -118.0514 -51.8937
ENERGY: 1200000 1.8699 2.7622 3.5179 0.0000 -10678.9018 1403.9062 0.0000 0.0000 1747.4178 -7519.4277 296.4236 -9266.8456 -7538.0118 300.4087 -258.5500 -152.5016 30322.1484 -102.2277 -33.6189
ENERGY: 1500000 1.6808 1.8063 3.8890 0.0000 -10630.3346 1397.0169 0.0000 0.0000 1737.1707 -7488.7709 294.6853 -9225.9416 -7541.8384 299.9184 -492.8915 -393.5162 30864.8525 -171.9243 -100.3754
TCL: Running FEP window  12: Lambda1 0.4499999999999996 Lambda2 0.39999999999999963 [dLambda -0.04999999999999999]
TCL: Setting parameter firsttimestep to 0
TCL: Setting parameter alchLambda to 0.4499999999999996
Info: NONBONDED TABLE R-SQUARED SPACING: 0.0625
Info: NONBONDED TABLE SIZE: 705 POINTS
TCL: Setting parameter alchLambda2 to 0.39999999999999963
Info: NONBONDED TABLE R-SQUARED SPACING: 0.0625
Info: NONBONDED TABLE SIZE: 705 POINTS
TCL: Running for 1500000 steps
ETITLE: TS BOND ANGLE DIHED IMPRP ELECT VDW BOUNDARY MISC KINETIC TOTAL TEMP POTENTIAL TOTALAVG TEMPAVG PRESSURE GPRESSURE VOLUME PRESSAVG GPRESSAVG
ENERGY: 0 1.6808 1.8063 3.8890 0.0000 -10630.3345 1396.9583 0.0000 0.0000 1736.2741 -7489.7260 294.5332 -9226.0001 -7489.7260 294.5332 -496.0268 -399.8250 30864.8525 -496.0268 -399.8250
ENERGY: 300000 1.5868 2.8208 1.4673 0.0000 -10802.7575 1459.5392 0.0000 0.0000 1812.1539 -7525.1894 307.4051 -9337.3432 -7505.6119 301.6182 -125.4927 -103.4612 30556.8333 -343.6137 -298.1563
ENERGY: 600000 1.9878 2.1521 3.0434 0.0000 -10710.7789 1402.5671 0.0000 0.0000 1798.2027 -7502.8258 305.0385 -9301.0286 -7528.1012 300.9911 -468.8417 -419.3555 30684.7422 -180.8458 -128.6928
ENERGY: 900000 2.6393 3.2945 5.5777 0.0000 -10716.2330 1421.8540 0.0000 0.0000 1775.4944 -7507.3732 301.1864 -9282.8676 -7529.9342 300.9119 -383.9380 -322.1777 30488.3580 -175.9466 -118.4604
ENERGY: 1200000 3.1395 2.8934 2.2927 0.0000 -10778.7405 1449.0239 0.0000 0.0000 1824.5100 -7496.8809 309.5012 -9321.3909 -7535.9709 300.8516 226.3582 243.2487 29824.5150 -95.9053 -41.8924
ENERGY: 1500000 3.0951 1.2606 3.4320 0.0000 -10713.0333 1433.3743 0.0000 0.0000 1765.2831 -7506.5883 299.4542 -9271.8713 -7529.7689 300.8587 144.3341 204.8693 30407.7481 -124.3179 -68.9444
TCL: Running FEP window  13: Lambda1 0.39999999999999963 Lambda2 0.34999999999999964 [dLambda -0.04999999999999999]
TCL: Setting parameter firsttimestep to 0
TCL: Setting parameter alchLambda to 0.39999999999999963
Info: NONBONDED TABLE R-SQUARED SPACING: 0.0625
Info: NONBONDED TABLE SIZE: 705 POINTS
TCL: Setting parameter alchLambda2 to 0.34999999999999964
Info: NONBONDED TABLE R-SQUARED SPACING: 0.0625
Info: NONBONDED TABLE SIZE: 705 POINTS
TCL: Running for 1500000 steps
ETITLE: TS BOND ANGLE DIHED IMPRP ELECT VDW BOUNDARY MISC KINETIC TOTAL TEMP POTENTIAL TOTALAVG TEMPAVG PRESSURE GPRESSURE VOLUME PRESSAVG GPRESSAVG
ENERGY: 0 3.0951 1.2606 3.4320 0.0000 -10713.0330 1433.3662 0.0000 0.0000 1764.4102 -7507.4689 299.3061 -9271.8791 -7507.4689 299.3061 132.3646 202.9187 30407.7481 132.3646 202.9187
ENERGY: 300000 0.6441 6.2741 5.3037 0.0000 -10830.4615 1461.7507 0.0000 0.0000 1771.9314 -7584.5576 300.5820 -9356.4889 -7573.1784 298.2087 479.6793 537.3371 29438.0601 267.5258 329.1450
ENERGY: 600000 2.0802 3.4561 4.1084 0.0000 -10776.5636 1454.5316 0.0000 0.0000 1742.4369 -7569.9504 295.5787 -9312.3873 -7542.9548 299.0983 32.8014 85.3424 30303.7797 96.7648 165.1497
ENERGY: 900000 2.8699 2.1256 3.7699 0.0000 -10624.2642 1307.6828 0.0000 0.0000 1745.3649 -7562.4511 296.0754 -9307.8160 -7519.8712 300.8258 -1012.4148 -934.6336 30447.3392 10.6127 71.7007
ENERGY: 1200000 1.6622 3.7789 6.3488 0.0000 -10613.7358 1335.4898 0.0000 0.0000 1693.1967 -7573.2594 287.2258 -9266.4561 -7530.6664 298.7376 -1083.1954 -943.4400 30717.5334 -104.6678 -32.0494
ENERGY: 1500000 1.4599 1.6134 4.8591 0.0000 -10769.4360 1499.8202 0.0000 0.0000 1767.7899 -7493.8934 299.8794 -9261.6833 -7529.6053 299.0190 464.5401 533.0258 30404.5262 -128.0366 -57.1983
TCL: Running FEP window  14: Lambda1 0.34999999999999964 Lambda2 0.29999999999999966 [dLambda -0.04999999999999999]
TCL: Setting parameter firsttimestep to 0
TCL: Setting parameter alchLambda to 0.34999999999999964
Info: NONBONDED TABLE R-SQUARED SPACING: 0.0625
Info: NONBONDED TABLE SIZE: 705 POINTS
TCL: Setting parameter alchLambda2 to 0.29999999999999966
Info: NONBONDED TABLE R-SQUARED SPACING: 0.0625
Info: NONBONDED TABLE SIZE: 705 POINTS
TCL: Running for 1500000 steps
ETITLE: TS BOND ANGLE DIHED IMPRP ELECT VDW BOUNDARY MISC KINETIC TOTAL TEMP POTENTIAL TOTALAVG TEMPAVG PRESSURE GPRESSURE VOLUME PRESSAVG GPRESSAVG
ENERGY: 0 1.4599 1.6134 4.8591 0.0000 -10769.4361 1499.0618 0.0000 0.0000 1766.9146 -7495.5271 299.7310 -9262.4418 -7495.5271 299.7310 429.4030 519.2795 30404.5262 429.4030 519.2795
ENERGY: 300000 1.6511 1.7054 6.4117 0.0000 -10704.7043 1381.0187 0.0000 0.0000 1840.6317 -7473.2857 312.2360 -9313.9174 -7510.1380 303.4086 -586.9044 -441.7879 30395.5332 65.8310 128.1889
ENERGY: 600000 1.7913 5.3334 5.3594 0.0000 -10810.5841 1472.7113 0.0000 0.0000 1746.6360 -7578.7526 296.2910 -9325.3886 -7526.6104 302.2395 257.8912 378.0719 30298.2648 -50.6752 12.2158
ENERGY: 900000 1.4819 3.2870 4.8095 0.0000 -10617.7461 1349.5963 0.0000 0.0000 1748.9247 -7509.6467 296.6792 -9258.5714 -7515.3040 301.9468 -520.6486 -432.4779 30162.5266 2.6391 65.5447
ENERGY: 1200000 1.6011 4.7703 2.0466 0.0000 -10771.6237 1452.3239 0.0000 0.0000 1681.3875 -7629.4944 285.2225 -9310.8818 -7530.3214 300.7625 -130.2751 -67.9343 30371.3813 -54.1411 6.5480
ENERGY: 1500000 0.8684 4.5384 7.1614 0.0000 -10800.2938 1522.4937 0.0000 0.0000 1782.5806 -7482.6513 302.3885 -9265.2319 -7528.7031 300.6769 844.3166 910.0175 30113.4193 70.7653 130.0701
TCL: Running FEP window  15: Lambda1 0.29999999999999966 Lambda2 0.24999999999999967 [dLambda -0.04999999999999999]
TCL: Setting parameter firsttimestep to 0
TCL: Setting parameter alchLambda to 0.29999999999999966
Info: NONBONDED TABLE R-SQUARED SPACING: 0.0625
Info: NONBONDED TABLE SIZE: 705 POINTS
TCL: Setting parameter alchLambda2 to 0.24999999999999967
Info: NONBONDED TABLE R-SQUARED SPACING: 0.0625
Info: NONBONDED TABLE SIZE: 705 POINTS
TCL: Running for 1500000 steps
ETITLE: TS BOND ANGLE DIHED IMPRP ELECT VDW BOUNDARY MISC KINETIC TOTAL TEMP POTENTIAL TOTALAVG TEMPAVG PRESSURE GPRESSURE VOLUME PRESSAVG GPRESSAVG
ENERGY: 0 0.8684 4.5384 7.1614 0.0000 -10800.2926 1522.6759 0.0000 0.0000 1781.7013 -7483.3472 302.2393 -9265.0485 -7483.3472 302.2393 839.8106 907.3004 30113.4193 839.8106 907.3004
ENERGY: 300000 2.0021 4.2498 4.4601 0.0000 -10747.8236 1394.8773 0.0000 0.0000 1710.9335 -7631.3007 290.2346 -9342.2342 -7575.0297 295.6198 -614.4991 -584.6285 30613.5883 87.1533 159.4826
ENERGY: 600000 1.4390 3.7779 4.7767 0.0000 -10615.5436 1345.1564 0.0000 0.0000 1791.0114 -7469.3822 303.8186 -9260.3936 -7560.9639 297.7537 -714.9312 -617.4005 30461.4880 -72.7650 0.5343
ENERGY: 900000 1.0768 6.1029 6.7281 0.0000 -10734.5026 1372.4348 0.0000 0.0000 1720.5435 -7627.6166 291.8648 -9348.1600 -7563.9663 296.1162 -708.2409 -659.1237 30441.3383 -169.5343 -102.3003
ENERGY: 1200000 1.7409 1.1631 3.2184 0.0000 -10761.2427 1421.6469 0.0000 0.0000 1801.0966 -7532.3768 305.5294 -9333.4734 -7558.7817 297.2632 -461.1188 -389.5250 30614.9759 -145.1863 -66.2986
ENERGY: 1500000 2.4491 5.8577 1.6329 0.0000 -10746.6605 1434.4299 0.0000 0.0000 1783.9853 -7518.3057 302.6267 -9302.2910 -7558.8905 297.5180 -55.5821 42.3694 30300.2934 -45.6033 31.5067
TCL: Running FEP window  16: Lambda1 0.24999999999999967 Lambda2 0.19999999999999968 [dLambda -0.04999999999999999]
TCL: Setting parameter firsttimestep to 0
TCL: Setting parameter alchLambda to 0.24999999999999967
Info: NONBONDED TABLE R-SQUARED SPACING: 0.0625
Info: NONBONDED TABLE SIZE: 705 POINTS
TCL: Setting parameter alchLambda2 to 0.19999999999999968
Info: NONBONDED TABLE R-SQUARED SPACING: 0.0625
Info: NONBONDED TABLE SIZE: 705 POINTS
TCL: Running for 1500000 steps
ETITLE: TS BOND ANGLE DIHED IMPRP ELECT VDW BOUNDARY MISC KINETIC TOTAL TEMP POTENTIAL TOTALAVG TEMPAVG PRESSURE GPRESSURE VOLUME PRESSAVG GPRESSAVG
ENERGY: 0 2.4491 5.8577 1.6329 0.0000 -10746.6601 1434.3071 0.0000 0.0000 1783.0990 -7519.3144 302.4764 -9302.4134 -7519.3144 302.4764 -41.4520 38.5747 30300.2934 -41.4520 38.5747
ENERGY: 300000 1.3152 2.7587 2.6669 0.0000 -10715.1506 1423.5538 0.0000 0.0000 1751.3721 -7533.4840 297.0944 -9284.8561 -7516.1624 300.9663 -182.5219 -133.2682 30363.7161 -380.3581 -324.7004
ENERGY: 600000 2.6536 4.3055 3.5829 0.0000 -10632.7336 1393.8608 0.0000 0.0000 1778.2549 -7450.0759 301.6547 -9228.3307 -7501.3761 300.5947 -303.3872 -298.3181 30831.0702 -189.0114 -131.8027
ENERGY: 900000 5.0323 3.6973 4.6268 0.0000 -10937.8878 1579.5647 0.0000 0.0000 1750.5670 -7594.3998 296.9578 -9344.9667 -7529.1112 300.7459 814.0442 883.0770 30282.6729 -123.0366 -61.2416
ENERGY: 1200000 1.8711 3.8434 4.4938 0.0000 -10786.9175 1478.1625 0.0000 0.0000 1746.8718 -7551.6748 296.3310 -9298.5467 -7532.3614 299.8226 386.2992 472.5996 30030.0412 -48.2951 14.1421
ENERGY: 1500000 1.1268 2.5803 6.7163 0.0000 -10616.1460 1454.3767 0.0000 0.0000 1812.4673 -7338.8786 307.4583 -9151.3459 -7521.1007 299.8469 531.3244 558.5579 30267.3932 18.0688 79.8369
TCL: Running FEP window  17: Lambda1 0.19999999999999968 Lambda2 0.1499999999999997 [dLambda -0.04999999999999999]
TCL: Setting parameter firsttimestep to 0
TCL: Setting parameter alchLambda to 0.19999999999999968
Info: NONBONDED TABLE R-SQUARED SPACING: 0.0625
Info: NONBONDED TABLE SIZE: 705 POINTS
TCL: Setting parameter alchLambda2 to 0.1499999999999997
Info: NONBONDED TABLE R-SQUARED SPACING: 0.0625
Info: NONBONDED TABLE SIZE: 705 POINTS
TCL: Running for 1500000 steps
ETITLE: TS BOND ANGLE DIHED IMPRP ELECT VDW BOUNDARY MISC KINETIC TOTAL TEMP POTENTIAL TOTALAVG TEMPAVG PRESSURE GPRESSURE VOLUME PRESSAVG GPRESSAVG
ENERGY: 0 1.1268 2.5803 6.7163 0.0000 -10616.1462 1453.8117 0.0000 0.0000 1811.5713 -7340.3397 307.3063 -9151.9111 -7340.3397 307.3063 470.1522 552.8616 30267.3932 470.1522 552.8616
ENERGY: 300000 1.8617 4.2944 3.6626 0.0000 -10786.6022 1447.8151 0.0000 0.0000 1773.9701 -7554.9982 300.9278 -9328.9683 -7471.7841 303.7080 -218.4498 -197.7913 30458.3544 53.9744 102.0635
ENERGY: 600000 4.6254 1.6490 2.4938 0.0000 -10690.9305 1414.4551 0.0000 0.0000 1778.0357 -7489.6715 301.6175 -9267.7072 -7498.5035 302.7943 -321.8179 -271.6824 30713.6299 60.3880 102.3681
ENERGY: 900000 1.1994 3.4579 4.6566 0.0000 -10754.8671 1458.1821 0.0000 0.0000 1737.3679 -7550.0031 294.7188 -9287.3710 -7509.3307 301.2777 164.3235 154.5196 30396.1056 -12.3159 26.3775
ENERGY: 1200000 1.6243 2.5014 4.8472 0.0000 -10720.4087 1378.0225 0.0000 0.0000 1780.8499 -7552.5635 302.0949 -9333.4134 -7518.1126 299.6641 -910.8795 -847.5971 30781.2453 -63.6389 -14.6007
ENERGY: 1500000 1.2108 4.2173 3.6970 0.0000 -10779.2717 1432.5437 0.0000 0.0000 1740.4170 -7597.1860 295.2360 -9337.6030 -7529.7308 299.7303 -227.4187 -191.7331 30383.8528 -57.3133 -11.7480
TCL: Running FEP window  18: Lambda1 0.1499999999999997 Lambda2 0.09999999999999969 [dLambda -0.05 ]
TCL: Setting parameter firsttimestep to 0
TCL: Setting parameter alchLambda to 0.1499999999999997
Info: NONBONDED TABLE R-SQUARED SPACING: 0.0625
Info: NONBONDED TABLE SIZE: 705 POINTS
TCL: Setting parameter alchLambda2 to 0.09999999999999969
Info: NONBONDED TABLE R-SQUARED SPACING: 0.0625
Info: NONBONDED TABLE SIZE: 705 POINTS
TCL: Running for 1500000 steps
ETITLE: TS BOND ANGLE DIHED IMPRP ELECT VDW BOUNDARY MISC KINETIC TOTAL TEMP POTENTIAL TOTALAVG TEMPAVG PRESSURE GPRESSURE VOLUME PRESSAVG GPRESSAVG
ENERGY: 0 1.2108 4.2173 3.6970 0.0000 -10779.2723 1432.5632 0.0000 0.0000 1739.5332 -7598.0508 295.0861 -9337.5841 -7598.0508 295.0861 -292.6425 -192.9790 30383.8528 -292.6425 -192.9790
ENERGY: 300000 1.9322 3.5196 1.8083 0.0000 -10702.6628 1365.1733 0.0000 0.0000 1713.3443 -7616.8852 290.6435 -9330.2295 -7558.3999 297.8325 -932.7238 -841.9667 30752.7363 -289.5416 -192.1805
ENERGY: 600000 2.6990 5.3088 2.9423 0.0000 -10799.9162 1429.0568 0.0000 0.0000 1707.7709 -7652.1383 289.6981 -9359.9092 -7563.8911 297.0104 -220.2941 -179.1871 30226.4702 -147.2041 -61.7860
ENERGY: 900000 2.6355 3.6847 4.8427 0.0000 -10705.8412 1351.8575 0.0000 0.0000 1800.8907 -7541.9301 305.4945 -9342.8208 -7564.1569 297.8089 -770.1660 -739.7377 30211.2254 -231.5625 -153.5785
ENERGY: 1200000 1.5024 2.1935 3.2929 0.0000 -10633.3706 1347.8076 0.0000 0.0000 1755.3178 -7523.2564 297.7637 -9278.5742 -7556.0976 299.1680 -763.7209 -750.9339 30802.6381 -232.1465 -166.4325
ENERGY: 1500000 1.1777 4.9434 2.5571 0.0000 -10716.3083 1430.8889 0.0000 0.0000 1751.9084 -7524.8328 297.1854 -9276.7412 -7550.2056 299.2817 77.7224 138.6202 30218.1547 -136.4953 -80.9701
TCL: Running FEP window  19: Lambda1 0.09999999999999969 Lambda2 0.049999999999999684 [dLambda -0.05 ]
TCL: Setting parameter firsttimestep to 0
TCL: Setting parameter alchLambda to 0.09999999999999969
Info: NONBONDED TABLE R-SQUARED SPACING: 0.0625
Info: NONBONDED TABLE SIZE: 705 POINTS
TCL: Setting parameter alchLambda2 to 0.049999999999999684
Info: NONBONDED TABLE R-SQUARED SPACING: 0.0625
Info: NONBONDED TABLE SIZE: 705 POINTS
TCL: Running for 1500000 steps
ETITLE: TS BOND ANGLE DIHED IMPRP ELECT VDW BOUNDARY MISC KINETIC TOTAL TEMP POTENTIAL TOTALAVG TEMPAVG PRESSURE GPRESSURE VOLUME PRESSAVG GPRESSAVG
ENERGY: 0 1.1777 4.9434 2.5571 0.0000 -10716.3067 1430.9258 0.0000 0.0000 1751.0222 -7525.6805 297.0350 -9276.7027 -7525.6805 297.0350 52.3699 138.2436 30218.1547 52.3699 138.2436
ENERGY: 300000 2.4993 6.5819 3.4022 0.0000 -10892.8248 1533.3963 0.0000 0.0000 1807.4338 -7539.5113 306.6044 -9346.9451 -7507.4423 302.5906 429.1805 528.8710 30174.0686 409.2956 461.3175
ENERGY: 600000 1.1792 3.6444 5.5220 0.0000 -10812.1424 1473.0557 0.0000 0.0000 1724.0127 -7604.7284 292.4533 -9328.7411 -7515.7299 301.2126 -60.4443 2.2733 30562.8970 206.3942 267.8107
ENERGY: 900000 3.9536 5.0411 4.1350 0.0000 -10599.8192 1350.2041 0.0000 0.0000 1812.1944 -7424.2911 307.4120 -9236.4855 -7516.5055 302.2747 -503.6700 -450.8828 30386.7149 118.1401 182.1726
ENERGY: 1200000 6.8675 3.8326 3.7053 0.0000 -10771.7805 1458.7523 0.0000 0.0000 1737.0514 -7561.5716 294.6651 -9298.6229 -7520.6193 301.2668 336.5461 360.2560 29826.1550 117.5477 176.5303
ENERGY: 1500000 3.9028 2.9845 3.8989 0.0000 -10769.8006 1441.3319 0.0000 0.0000 1737.7371 -7579.9455 294.7814 -9317.6825 -7521.3460 300.5462 -123.6699 -87.6562 30538.6047 97.0404 157.8484
TCL: Running FEP window  20: Lambda1 0.049999999999999684 Lambda2 0.0    [dLambda -0.049999999999999684]
TCL: Setting parameter firsttimestep to 0
TCL: Setting parameter alchLambda to 0.049999999999999684
Info: NONBONDED TABLE R-SQUARED SPACING: 0.0625
Info: NONBONDED TABLE SIZE: 705 POINTS
TCL: Setting parameter alchLambda2 to 0.0
Info: NONBONDED TABLE R-SQUARED SPACING: 0.0625
Info: NONBONDED TABLE SIZE: 705 POINTS
TCL: Running for 1500000 steps
ETITLE: TS BOND ANGLE DIHED IMPRP ELECT VDW BOUNDARY MISC KINETIC TOTAL TEMP POTENTIAL TOTALAVG TEMPAVG PRESSURE GPRESSURE VOLUME PRESSAVG GPRESSAVG
ENERGY: 0 3.9028 2.9845 3.8989 0.0000 -10769.7999 1441.2573 0.0000 0.0000 1736.8539 -7580.9025 294.6316 -9317.7564 -7580.9025 294.6316 -180.2003 -90.0840 30538.6047 -180.2003 -90.0840
ENERGY: 300000 1.3264 3.9458 2.6321 0.0000 -10818.8073 1529.3014 0.0000 0.0000 1820.6304 -7460.9712 308.8431 -9281.6016 -7519.0743 302.2486 998.0629 1049.8747 29973.5639 138.9160 214.0864
ENERGY: 600000 1.8975 3.2787 1.5916 0.0000 -10850.5589 1497.3102 0.0000 0.0000 1804.1767 -7542.3041 306.0519 -9346.4808 -7524.3851 301.2129 496.8013 537.3453 30043.5064 53.6914 120.7015
ENERGY: 900000 2.3243 1.4269 2.7140 0.0000 -10640.7761 1409.5284 0.0000 0.0000 1770.3126 -7454.4698 300.3074 -9224.7825 -7517.2921 301.9287 -111.7868 -22.9387 30391.5341 -49.4438 23.3334
ENERGY: 1200000 2.8162 2.4729 5.1362 0.0000 -10779.0983 1431.5160 0.0000 0.0000 1822.9396 -7514.2173 309.2348 -9337.1569 -7524.8139 301.1142 -139.7482 -130.0055 30067.2181 -100.3916 -32.7010
ENERGY: 1500000 2.3460 4.7553 4.7864 0.0000 -10755.0376 1452.1640 0.0000 0.0000 1736.5500 -7554.4359 294.5800 -9290.9859 -7525.6458 300.8445 -177.1602 -58.6746 30641.3333 -131.0142 -63.2078
TCL: Exiting due to exit command.
