Info: SIMULATION PARAMETERS:
Info: TIMESTEP               2
Info: NUMBER OF STEPS        0
Info: STEPS PER CYCLE        10
Info: PERIODIC CELL BASIS 1  30.9436 0 0
Info: PERIODIC CELL BASIS 2  0 29.5444 0
Info: PERIODIC CELL BASIS 3  0 0 32.8973
Info: PERIODIC CELL CENTER   0 0 0
Info: WRAPPING WATERS AROUND PERIODIC BOUNDARIES ON OUTPUT.
Info: WRAPPING ALL CLUSTERS AROUND PERIODIC BOUNDARIES ON OUTPUT.
Info: FIRST LDB TIMESTEP     50
Info: LAST LDB TIMESTEP     -1
Info: HOM BACKGROUND SCALING 1
Info: PME BACKGROUND SCALING 1
Info: MIN ATOMS PER PATCH    40
Info: EMPTY PATCH LOAD       40 ATOMS
Info: VELOCITY FILE          mobley_4483973_equil.vel
Info: CENTER OF MASS MOVING INITIALLY? NO
Info: DIELECTRIC             1
Info: EXCLUDE                SCALED ONE-FOUR
Info: 1-4 ELECTROSTATICS SCALED BY 0.833333
Info: MODIFIED 1-4 VDW PARAMETERS WILL BE USED
Info: DCD FILENAME           mobley_4483973_prod.dcd
Info: DCD FREQUENCY          100000
Info: DCD FIRST STEP         100000
Info: DCD FILE WILL CONTAIN UNIT CELL DATA
Info: XST FILENAME           mobley_4483973_prod.xst
Info: XST FREQUENCY          100000
Info: NO VELOCITY DCD OUTPUT
Info: NO FORCE DCD OUTPUT
Info: OUTPUT FILENAME        mobley_4483973_prod
Info: BINARY OUTPUT FILES WILL BE USED
Info: RESTART FILENAME       mobley_4483973_prod.restart
Info: RESTART FREQUENCY      100000
Info: BINARY RESTART FILES WILL BE USED
Info: CUTOFF                 9
Info: PAIRLIST DISTANCE      11
Info: PAIRLIST SHRINK RATE   0.01
Info: PAIRLIST GROW RATE     0.01
Info: PAIRLIST TRIGGER       0.3
Info: PAIRLISTS PER CYCLE    2
Info: PAIRLISTS ENABLED
Info: MARGIN                 2
Info: HYDROGEN GROUP CUTOFF  2.5
Info: PATCH DIMENSION        15.5
Info: ENERGY OUTPUT STEPS    100000
Info: ENERGY EVALUATION STEPS    100000
Info: OUTPUT ENERGY PRECISION 4
Info: CROSSTERM ENERGY INCLUDED IN DIHEDRAL
Info: TIMING OUTPUT STEPS    1000000
Info: PRESSURE OUTPUT STEPS  100000
Info: ALCHEMICAL FEP ON
Info: FEP CURRENT LAMBDA VALUE     0
Info: FEP COMPARISON LAMBDA VALUE  0.05
Info: FEP INTRA-ALCHEMICAL NON-BONDED INTERACTIONS WILL BE RETAINED
Info: FEP INTRA-ALCHEMICAL BONDED INTERACTIONS WILL BE RETAINED
Info: FEP VDW SHIFTING COEFFICIENT 5
Info: FEP ELEC. ACTIVE FOR ANNIHILATED PARTICLES BETWEEN LAMBDA = 0 AND LAMBDA = 0.5
Info: FEP ELEC. ACTIVE FOR EXNIHILATED PARTICLES BETWEEN LAMBDA = 0.5 AND LAMBDA = 1
Info: FEP VDW ACTIVE FOR ANNIHILATED PARTICLES BETWEEN LAMBDA = 0 AND LAMBDA = 1
Info: FEP VDW ACTIVE FOR EXNIHILATED PARTICLES BETWEEN LAMBDA = 0 AND LAMBDA = 1
Info: FEP BOND ACTIVE FOR ANNIHILATED PARTICLES BETWEEN LAMBDA = 1 AND LAMBDA = 1
Info: FEP BOND ACTIVE FOR EXNIHILATED PARTICLES BETWEEN LAMBDA = 0 AND LAMBDA = 0
Info: LANGEVIN DYNAMICS ACTIVE
Info: LANGEVIN TEMPERATURE   300
Info: LANGEVIN USING BBK INTEGRATOR
Info: LANGEVIN DAMPING COEFFICIENT IS 1 INVERSE PS
Info: LANGEVIN DYNAMICS APPLIED TO HYDROGENS
Info: LANGEVIN PISTON PRESSURE CONTROL ACTIVE
Info:        TARGET PRESSURE IS 1.01325 BAR
Info:     OSCILLATION PERIOD IS 50 FS
Info:             DECAY TIME IS 25 FS
Info:     PISTON TEMPERATURE IS 300 K
Info:       PRESSURE CONTROL IS GROUP-BASED
Info:    INITIAL STRAIN RATE IS 0.000537175 0.000537175 0.000537175
Info:       CELL FLUCTUATION IS ISOTROPIC
Info: PARTICLE MESH EWALD (PME) ACTIVE
Info: PME TOLERANCE               1e-06
Info: PME EWALD COEFFICIENT       0.348832
Info: PME INTERPOLATION ORDER     4
Info: PME GRID DIMENSIONS         32 32 36
Info: PME MAXIMUM GRID SPACING    1
Info: PME CALCULATION WILL BE PERFORMED ON GPU
Info: FULL ELECTROSTATIC EVALUATION FREQUENCY      2
Info: USING VERLET I (r-RESPA) MTS SCHEME.
Info: C1 SPLITTING OF LONG RANGE ELECTROSTATICS
Info: PLACING ATOMS IN PATCHES BY HYDROGEN GROUPS
Info: RIGID BONDS TO HYDROGEN : ALL
Info:         ERROR TOLERANCE : 1e-08
Info:          MAX ITERATIONS : 100
Info: RIGID WATER USING SETTLE ALGORITHM
Info: RANDOM NUMBER SEED     1743529190
Info: USE HYDROGEN BONDS?    NO
Info: Using AMBER format force field!
Info: AMBER PARM FILE        mobley_4483973.prmtop
Info: COORDINATE PDB         mobley_4483973.pdb
Info: Exclusions will be read from PARM file!
Info: SCNB (VDW SCALING)     2
Info: USING ARITHMETIC MEAN TO COMBINE L-J SIGMA PARAMETERS
Info: BINARY COORDINATES     mobley_4483973_equil.coor
Info: SUMMARY OF PARAMETERS:
Info: 5 BONDS
Info: 3 ANGLES
Info:   3 HARMONIC
Info:   0 COSINE-BASED
Info: 2 DIHEDRAL
Info: 0 IMPROPER
Info: 0 CROSSTERM
Info: 0 VDW
Info: 15 VDW_PAIRS
Info: 0 NBTHOLE_PAIRS
Info: To read alchdata from file: mobley_4483973.pdb
Info: To read alchflag data from column: 5
Info: STRUCTURE SUMMARY:
Info: 2943 ATOMS
Info: 2943 BONDS
Info: 18 ANGLES
Info: 30 DIHEDRALS
Info: 0 IMPROPERS
Info: 0 CROSSTERMS
Info: 2982 EXCLUSIONS
Info: 2936 RIGID BONDS
Info: ALCH: 0 ATOMS TO DISAPPEAR IN FINAL STATE
Info: ALCH: 12 ATOMS TO APPEAR IN FINAL STATE
Info: 5893 DEGREES OF FREEDOM
Info: 984 HYDROGEN GROUPS
Info: 3 ATOMS IN LARGEST HYDROGEN GROUP
Info: 984 MIGRATION GROUPS
Info: 3 ATOMS IN LARGEST MIGRATION GROUP
Info: TOTAL MASS = 17697.7 amu
Info: TOTAL CHARGE = 0 e
Info: MASS DENSITY = 0.977172 g/cm^3
Info: ATOM DENSITY = 0.0978553 atoms/A^3
Info: ADDED 0 IMPLICIT EXCLUSIONS
Info: NONBONDED TABLE R-SQUARED SPACING: 0.0625
Info: NONBONDED TABLE SIZE: 705 POINTS
Info: REMOVING COM VELOCITY 0.117704 -0.143412 -0.00952545
Info: Use 3D box decompostion in PME FFT.
Info: Updated CUDA force table with 4096 elements.
Info: Updated CUDA LJ table with 5 x 5 elements.
Info: Found 14 unique exclusion lists needing 24 bytes
TCL: Running for 1500000 steps
ETITLE: TS BOND ANGLE DIHED IMPRP ELECT VDW BOUNDARY MISC KINETIC TOTAL TEMP POTENTIAL TOTALAVG TEMPAVG PRESSURE GPRESSURE VOLUME PRESSAVG GPRESSAVG
ENERGY: 0 0.8369 5.9515 0.9784 0.0000 -10660.9045 1414.6630 0.0000 0.0000 1725.3189 -7513.1559 294.6614 -9238.4748 -7513.1559 294.6614 -347.9727 -267.0988 30075.0174 -347.9727 -267.0988
ENERGY: 300000 1.3606 5.4481 4.4225 0.0000 -10676.9564 1488.6439 0.0000 0.0000 1747.2678 -7429.8135 298.4100 -9177.0813 -7476.4400 298.0160 254.5081 401.2854 30492.1336 161.4342 242.0308
ENERGY: 600000 3.9313 3.1781 1.2559 0.0000 -10626.8992 1416.8830 0.0000 0.0000 1859.6551 -7341.9959 317.6043 -9201.6509 -7451.2437 301.3344 -356.0457 -292.3071 30636.0217 23.9957 97.0587
ENERGY: 900000 1.5094 2.4563 1.7003 0.0000 -10839.3016 1490.7504 0.0000 0.0000 1768.4917 -7574.3936 302.0348 -9342.8852 -7478.5815 300.3371 88.2001 59.7147 29996.0438 159.2878 213.9247
ENERGY: 1200000 3.0162 4.7364 1.2051 0.0000 -10672.6529 1462.7690 0.0000 0.0000 1754.1181 -7446.8080 299.5800 -9200.9261 -7483.1906 299.9807 -89.8326 -6.5433 30395.4911 98.6114 160.2116
ENERGY: 1500000 1.1319 1.1963 3.9964 0.0000 -10674.6850 1410.9635 0.0000 0.0000 1765.4156 -7491.9813 301.5094 -9257.3969 -7480.3174 300.6351 -401.8459 -380.6798 30379.3096 58.1059 122.3360
TCL: Running FEP window   2: Lambda1 0.05   Lambda2 0.1    [dLambda 0.05  ]
TCL: Setting parameter firsttimestep to 0
TCL: Setting parameter alchLambda to 0.05
Info: NONBONDED TABLE R-SQUARED SPACING: 0.0625
Info: NONBONDED TABLE SIZE: 705 POINTS
TCL: Setting parameter alchLambda2 to 0.1
Info: NONBONDED TABLE R-SQUARED SPACING: 0.0625
Info: NONBONDED TABLE SIZE: 705 POINTS
TCL: Running for 1500000 steps
ETITLE: TS BOND ANGLE DIHED IMPRP ELECT VDW BOUNDARY MISC KINETIC TOTAL TEMP POTENTIAL TOTALAVG TEMPAVG PRESSURE GPRESSURE VOLUME PRESSAVG GPRESSAVG
ENERGY: 0 1.1319 1.1963 3.9964 0.0000 -10674.6843 1411.8556 0.0000 0.0000 1764.5119 -7491.9922 301.3551 -9256.5041 -7491.9922 301.3551 -453.4855 -378.4052 30379.3096 -453.4855 -378.4052
ENERGY: 300000 2.0302 5.7172 3.8743 0.0000 -10532.1633 1382.2877 0.0000 0.0000 1756.8322 -7381.4217 300.0435 -9138.2539 -7409.0133 303.0121 -671.4180 -507.0326 30401.2996 -37.8129 46.1097
ENERGY: 600000 1.8887 2.2446 3.1202 0.0000 -10691.8577 1456.1160 0.0000 0.0000 1794.9824 -7433.5058 306.5591 -9228.4882 -7416.7787 303.7164 254.9518 329.7860 30029.5858 187.1544 256.9339
ENERGY: 900000 1.1010 1.5395 4.5256 0.0000 -10640.9114 1469.4871 0.0000 0.0000 1773.2819 -7390.9762 302.8529 -9164.2581 -7421.9608 303.0475 217.5462 306.2712 30535.9860 193.7021 265.3244
ENERGY: 1200000 2.1065 0.4586 1.8499 0.0000 -10394.8275 1305.9164 0.0000 0.0000 1787.6863 -7296.8099 305.3130 -9084.4961 -7421.4738 302.3393 -793.0113 -736.5276 30604.4988 69.0872 140.9671
ENERGY: 1500000 3.6002 2.5369 2.8687 0.0000 -10573.9117 1390.3471 0.0000 0.0000 1755.7196 -7418.8392 299.8535 -9174.5588 -7426.8652 301.5439 -460.0233 -332.6090 30374.6307 50.9998 129.0550
TCL: Running FEP window   3: Lambda1 0.1    Lambda2 0.15000000000000002 [dLambda 0.05000000000000002]
TCL: Setting parameter firsttimestep to 0
TCL: Setting parameter alchLambda to 0.1
Info: NONBONDED TABLE R-SQUARED SPACING: 0.0625
Info: NONBONDED TABLE SIZE: 705 POINTS
TCL: Setting parameter alchLambda2 to 0.15000000000000002
Info: NONBONDED TABLE R-SQUARED SPACING: 0.0625
Info: NONBONDED TABLE SIZE: 705 POINTS
TCL: Running for 1500000 steps
ETITLE: TS BOND ANGLE DIHED IMPRP ELECT VDW BOUNDARY MISC KINETIC TOTAL TEMP POTENTIAL TOTALAVG TEMPAVG PRESSURE GPRESSURE VOLUME PRESSAVG GPRESSAVG
ENERGY: 0 3.6002 2.5369 2.8687 0.0000 -10573.9113 1393.5670 0.0000 0.0000 1754.8416 -7416.4968 299.7035 -9171.3384 -7416.4968 299.7035 -402.0431 -325.5894 30374.6307 -402.0431 -325.5894
ENERGY: 300000 0.6787 3.1382 4.8765 0.0000 -10670.0391 1443.3786 0.0000 0.0000 1726.5531 -7491.4139 294.8722 -9217.9670 -7520.6026 291.0390 168.0324 277.6755 29756.8955 -58.2070 32.6313
ENERGY: 600000 4.0398 2.3901 2.9961 0.0000 -10539.9493 1275.1629 0.0000 0.0000 1727.4943 -7527.8661 295.0330 -9255.3604 -7517.6856 292.8628 -1319.4259 -1280.9169 30001.5541 -78.3193 -11.9520
ENERGY: 900000 1.6236 4.1340 2.7838 0.0000 -10738.9190 1488.4082 0.0000 0.0000 1746.0514 -7495.9182 298.2023 -9241.9695 -7516.1229 295.1829 498.5977 521.2004 30019.2422 258.2239 309.9764
ENERGY: 1200000 1.5266 2.0676 0.8628 0.0000 -10834.1749 1592.3671 0.0000 0.0000 1730.4015 -7506.9494 295.5295 -9237.3509 -7500.3078 297.6390 1478.4476 1563.9913 29719.2536 225.2395 278.3419
ENERGY: 1500000 1.0433 2.5748 5.9577 0.0000 -10643.5835 1395.7075 0.0000 0.0000 1756.8893 -7481.4108 300.0532 -9238.3001 -7500.4765 298.1438 -287.7342 -215.7151 29980.3558 190.8252 246.1513
TCL: Running FEP window   4: Lambda1 0.15000000000000002 Lambda2 0.2    [dLambda 0.04999999999999999]
TCL: Setting parameter firsttimestep to 0
TCL: Setting parameter alchLambda to 0.15000000000000002
Info: NONBONDED TABLE R-SQUARED SPACING: 0.0625
Info: NONBONDED TABLE SIZE: 705 POINTS
TCL: Setting parameter alchLambda2 to 0.2
Info: NONBONDED TABLE R-SQUARED SPACING: 0.0625
Info: NONBONDED TABLE SIZE: 705 POINTS
TCL: Running for 1500000 steps
ETITLE: TS BOND ANGLE DIHED IMPRP ELECT VDW BOUNDARY MISC KINETIC TOTAL TEMP POTENTIAL TOTALAVG TEMPAVG PRESSURE GPRESSURE VOLUME PRESSAVG GPRESSAVG
ENERGY: 0 1.0433 2.5748 5.9577 0.0000 -10643.5840 1396.8319 0.0000 0.0000 1755.9902 -7481.1861 299.8997 -9237.1762 -7481.1861 299.8997 -293.3814 -209.9072 29980.3558 -293.3814 -209.9072
ENERGY: 300000 0.6806 2.4972 2.6289 0.0000 -10638.8408 1370.0817 0.0000 0.0000 1776.2385 -7486.7138 303.3578 -9262.9523 -7475.0871 300.9099 -431.0139 -373.6747 29872.4234 65.7417 135.9858
ENERGY: 600000 2.4215 3.6117 1.9290 0.0000 -10691.9423 1469.3752 0.0000 0.0000 1812.1989 -7402.4061 309.4994 -9214.6050 -7435.7273 303.4313 128.2019 250.1978 30389.1268 -199.3762 -113.9920
ENERGY: 900000 5.8806 2.2648 1.5330 0.0000 -10669.0038 1452.9171 0.0000 0.0000 1804.6119 -7401.7965 308.2036 -9206.4083 -7436.2926 303.7134 451.2665 470.7521 29823.8552 -254.0129 -181.9530
ENERGY: 1200000 0.2422 1.9455 3.8529 0.0000 -10734.3228 1473.3951 0.0000 0.0000 1797.7829 -7457.1042 307.0373 -9254.8871 -7443.8318 303.6944 328.4329 402.8415 29983.7778 -127.6924 -58.3782
ENERGY: 1500000 2.0408 2.2778 1.2301 0.0000 -10591.6829 1428.5905 0.0000 0.0000 1747.3643 -7410.1794 298.4265 -9157.5437 -7445.1787 302.8026 -223.9546 -153.7207 30780.7816 -183.2754 -112.7922
TCL: Running FEP window   5: Lambda1 0.2    Lambda2 0.25   [dLambda 0.04999999999999999]
TCL: Setting parameter firsttimestep to 0
TCL: Setting parameter alchLambda to 0.2
Info: NONBONDED TABLE R-SQUARED SPACING: 0.0625
Info: NONBONDED TABLE SIZE: 705 POINTS
TCL: Setting parameter alchLambda2 to 0.25
Info: NONBONDED TABLE R-SQUARED SPACING: 0.0625
Info: NONBONDED TABLE SIZE: 705 POINTS
TCL: Running for 1500000 steps
ETITLE: TS BOND ANGLE DIHED IMPRP ELECT VDW BOUNDARY MISC KINETIC TOTAL TEMP POTENTIAL TOTALAVG TEMPAVG PRESSURE GPRESSURE VOLUME PRESSAVG GPRESSAVG
ENERGY: 0 2.0408 2.2778 1.2301 0.0000 -10591.6812 1429.4343 0.0000 0.0000 1746.4533 -7410.2450 298.2709 -9156.6983 -7410.2450 298.2709 -231.9357 -144.2352 30780.7816 -231.9357 -144.2352
ENERGY: 300000 1.3740 1.7818 1.6710 0.0000 -10718.5127 1435.6469 0.0000 0.0000 1807.8023 -7470.2367 308.7485 -9278.0390 -7454.2401 300.9085 205.0368 278.7972 29524.3745 -79.9480 -8.4051
ENERGY: 600000 0.5718 2.7344 2.4375 0.0000 -10767.9433 1552.3988 0.0000 0.0000 1748.5610 -7461.2397 298.6309 -9209.8007 -7450.4984 301.2803 1116.6603 1161.8422 29696.3607 157.9460 220.6218
ENERGY: 900000 2.4342 1.7692 3.2125 0.0000 -10685.4369 1462.5495 0.0000 0.0000 1749.0863 -7466.3852 298.7206 -9215.4714 -7447.9414 300.5394 584.2008 602.5733 29485.8884 121.1470 168.1707
ENERGY: 1200000 1.4483 2.9607 1.6811 0.0000 -10555.9932 1347.4444 0.0000 0.0000 1738.0078 -7464.4507 296.8286 -9202.4585 -7452.5596 299.9720 -603.0522 -618.9935 30232.1688 -8.7051 34.3334
ENERGY: 1500000 2.8845 1.7543 3.9676 0.0000 -10719.1288 1420.2689 0.0000 0.0000 1779.0394 -7511.2140 303.8362 -9290.2534 -7457.1228 300.3946 -438.1493 -421.7855 30295.6019 -74.0979 -26.1087
TCL: Running FEP window   6: Lambda1 0.25   Lambda2 0.3    [dLambda 0.04999999999999999]
TCL: Setting parameter firsttimestep to 0
TCL: Setting parameter alchLambda to 0.25
Info: NONBONDED TABLE R-SQUARED SPACING: 0.0625
Info: NONBONDED TABLE SIZE: 705 POINTS
TCL: Setting parameter alchLambda2 to 0.3
Info: NONBONDED TABLE R-SQUARED SPACING: 0.0625
Info: NONBONDED TABLE SIZE: 705 POINTS
TCL: Running for 1500000 steps
ETITLE: TS BOND ANGLE DIHED IMPRP ELECT VDW BOUNDARY MISC KINETIC TOTAL TEMP POTENTIAL TOTALAVG TEMPAVG PRESSURE GPRESSURE VOLUME PRESSAVG GPRESSAVG
ENERGY: 0 2.8845 1.7543 3.9676 0.0000 -10719.1298 1420.5195 0.0000 0.0000 1778.1164 -7511.8875 303.6786 -9290.0039 -7511.8875 303.6786 -499.2501 -419.5260 30295.6019 -499.2501 -419.5260
ENERGY: 300000 2.2185 3.5975 2.0652 0.0000 -10639.8886 1387.2896 0.0000 0.0000 1763.7918 -7480.9260 301.2321 -9244.7177 -7480.7678 302.0152 -421.1546 -359.2335 30244.7764 -423.9536 -342.4550
ENERGY: 600000 1.0765 5.5306 4.7635 0.0000 -10668.7560 1508.1319 0.0000 0.0000 1770.2159 -7379.0376 302.3293 -9149.2534 -7462.5191 300.3954 886.6153 858.0678 30211.2304 -166.9427 -122.9359
ENERGY: 900000 2.0888 1.9033 1.4772 0.0000 -10667.3701 1461.4367 0.0000 0.0000 1726.4479 -7474.0162 294.8543 -9200.4642 -7466.9687 301.4470 190.4536 220.0497 30290.4418 -88.6334 -40.9577
ENERGY: 1200000 2.7928 3.8396 1.5385 0.0000 -10658.4905 1406.4155 0.0000 0.0000 1747.4993 -7496.4048 298.4496 -9243.9041 -7466.3978 301.0724 -570.0033 -472.6659 30419.5877 -163.7677 -106.3706
ENERGY: 1500000 3.1990 2.1227 1.0432 0.0000 -10761.2495 1453.0044 0.0000 0.0000 1718.6446 -7583.2357 293.5216 -9301.8803 -7473.4780 300.8489 -280.6812 -244.1125 30478.8126 -175.9944 -120.5145
TCL: Running FEP window   7: Lambda1 0.3    Lambda2 0.35   [dLambda 0.04999999999999999]
TCL: Setting parameter firsttimestep to 0
TCL: Setting parameter alchLambda to 0.3
Info: NONBONDED TABLE R-SQUARED SPACING: 0.0625
Info: NONBONDED TABLE SIZE: 705 POINTS
TCL: Setting parameter alchLambda2 to 0.35
Info: NONBONDED TABLE R-SQUARED SPACING: 0.0625
Info: NONBONDED TABLE SIZE: 705 POINTS
TCL: Running for 1500000 steps
ETITLE: TS BOND ANGLE DIHED IMPRP ELECT VDW BOUNDARY MISC KINETIC TOTAL TEMP POTENTIAL TOTALAVG TEMPAVG PRESSURE GPRESSURE VOLUME PRESSAVG GPRESSAVG
ENERGY: 0 3.1990 2.1227 1.0432 0.0000 -10761.2493 1452.5963 0.0000 0.0000 1717.7296 -7584.5586 293.3653 -9302.2882 -7584.5586 293.3653 -332.2475 -244.7657 30478.8126 -332.2475 -244.7657
ENERGY: 300000 1.4511 1.9953 1.3973 0.0000 -10622.0072 1409.1606 0.0000 0.0000 1747.2185 -7460.7844 298.4016 -9208.0029 -7491.3813 297.4158 -494.4259 -493.0296 30860.2969 -73.6034 -23.4909
ENERGY: 600000 1.2810 2.5010 2.0263 0.0000 -10680.8651 1370.4168 0.0000 0.0000 1767.1883 -7537.4518 301.8122 -9304.6401 -7476.4495 297.9932 -724.4872 -698.2678 30303.0158 -51.0286 -5.1627
ENERGY: 900000 3.2563 2.1251 3.5669 0.0000 -10756.5454 1539.8429 0.0000 0.0000 1810.6954 -7397.0588 309.2426 -9207.7542 -7480.9925 299.2874 1004.7016 1058.8983 30115.3790 109.1279 149.9674
ENERGY: 1200000 5.1349 6.6149 1.4018 0.0000 -10714.4260 1412.2861 0.0000 0.0000 1713.5391 -7575.4492 292.6496 -9288.9882 -7480.3075 299.5083 -412.6192 -445.5164 29970.1538 -1.5415 34.6145
ENERGY: 1500000 1.5877 3.1663 8.8218 0.0000 -10687.8846 1439.8081 0.0000 0.0000 1779.7797 -7454.7209 303.9626 -9234.5006 -7479.1224 299.6603 32.4789 114.2308 30210.8353 19.0048 66.2601
TCL: Running FEP window   8: Lambda1 0.35   Lambda2 0.39999999999999997 [dLambda 0.04999999999999999]
TCL: Setting parameter firsttimestep to 0
TCL: Setting parameter alchLambda to 0.35
Info: NONBONDED TABLE R-SQUARED SPACING: 0.0625
Info: NONBONDED TABLE SIZE: 705 POINTS
TCL: Setting parameter alchLambda2 to 0.39999999999999997
Info: NONBONDED TABLE R-SQUARED SPACING: 0.0625
Info: NONBONDED TABLE SIZE: 705 POINTS
TCL: Running for 1500000 steps
ETITLE: TS BOND ANGLE DIHED IMPRP ELECT VDW BOUNDARY MISC KINETIC TOTAL TEMP POTENTIAL TOTALAVG TEMPAVG PRESSURE GPRESSURE VOLUME PRESSAVG GPRESSAVG
ENERGY: 0 1.5877 3.1663 8.8218 0.0000 -10687.8842 1439.8168 0.0000 0.0000 1778.8864 -7455.6051 303.8101 -9234.4915 -7455.6051 303.8101 28.6856 116.4442 30210.8353 28.6856 116.4442
ENERGY: 300000 1.5902 3.9094 3.6261 0.0000 -10646.5912 1462.3204 0.0000 0.0000 1747.8914 -7427.2536 298.5165 -9175.1450 -7432.4562 300.3738 283.2952 372.7736 29947.9400 -25.7175 57.4054
ENERGY: 600000 1.5204 2.8889 5.4955 0.0000 -10683.3712 1412.1616 0.0000 0.0000 1764.3169 -7496.9878 301.3218 -9261.3047 -7465.4002 300.1508 -324.1522 -294.6290 30528.7064 -136.6226 -59.6216
ENERGY: 900000 1.4403 1.7808 2.8565 0.0000 -10626.2923 1471.2063 0.0000 0.0000 1758.5092 -7390.4992 300.3299 -9149.0084 -7449.0673 300.2584 573.7989 612.2954 30213.4751 -50.4413 24.8790
ENERGY: 1200000 2.4879 5.1340 2.8469 0.0000 -10681.1784 1488.8362 0.0000 0.0000 1770.5696 -7411.3038 302.3897 -9181.8734 -7448.0821 300.8607 215.7450 285.4060 30586.3616 -21.8042 57.0143
ENERGY: 1500000 1.8556 3.9471 2.8648 0.0000 -10597.4752 1411.5429 0.0000 0.0000 1746.4193 -7430.8456 298.2651 -9177.2648 -7451.0612 300.1140 -330.4235 -331.8123 30613.9736 5.1714 74.0635
TCL: Running FEP window   9: Lambda1 0.39999999999999997 Lambda2 0.44999999999999996 [dLambda 0.04999999999999999]
TCL: Setting parameter firsttimestep to 0
TCL: Setting parameter alchLambda to 0.39999999999999997
Info: NONBONDED TABLE R-SQUARED SPACING: 0.0625
Info: NONBONDED TABLE SIZE: 705 POINTS
TCL: Setting parameter alchLambda2 to 0.44999999999999996
Info: NONBONDED TABLE R-SQUARED SPACING: 0.0625
Info: NONBONDED TABLE SIZE: 705 POINTS
TCL: Running for 1500000 steps
ETITLE: TS BOND ANGLE DIHED IMPRP ELECT VDW BOUNDARY MISC KINETIC TOTAL TEMP POTENTIAL TOTALAVG TEMPAVG PRESSURE GPRESSURE VOLUME PRESSAVG GPRESSAVG
ENERGY: 0 1.8556 3.9471 2.8648 0.0000 -10597.4743 1411.5604 0.0000 0.0000 1745.5996 -7431.6468 298.1251 -9177.2464 -7431.6468 298.1251 -408.9245 -328.0852 30613.9736 -408.9245 -328.0852
ENERGY: 300000 1.7569 2.8470 1.6374 0.0000 -10721.9636 1451.8727 0.0000 0.0000 1747.1304 -7516.7192 298.3866 -9263.8496 -7490.9158 299.4513 416.0496 489.2542 29629.3800 86.9880 145.1126
ENERGY: 600000 2.7341 2.2555 3.0891 0.0000 -10675.7950 1510.8732 0.0000 0.0000 1777.9879 -7378.8552 303.6566 -9156.8432 -7464.9222 300.0872 726.1480 814.7150 30190.4473 69.2508 136.3498
ENERGY: 900000 4.8523 5.2026 4.7287 0.0000 -10674.1161 1464.5781 0.0000 0.0000 1734.7949 -7459.9596 296.2798 -9194.7545 -7454.1272 299.4918 223.8455 244.8431 30270.2124 48.5966 114.6794
ENERGY: 1200000 2.4639 2.9316 2.1122 0.0000 -10754.9025 1506.9093 0.0000 0.0000 1719.5770 -7520.9085 293.6808 -9240.4855 -7461.2532 299.4119 345.6421 451.2182 30168.5000 169.0091 239.8467
ENERGY: 1500000 1.1652 3.5230 0.6864 0.0000 -10626.0730 1450.8243 0.0000 0.0000 1758.4837 -7411.3903 300.3256 -9169.8740 -7466.2224 298.7798 80.4150 92.8335 30385.4325 121.0867 189.9805
TCL: Running FEP window  10: Lambda1 0.44999999999999996 Lambda2 0.49999999999999994 [dLambda 0.04999999999999999]
TCL: Setting parameter firsttimestep to 0
TCL: Setting parameter alchLambda to 0.44999999999999996
Info: NONBONDED TABLE R-SQUARED SPACING: 0.0625
Info: NONBONDED TABLE SIZE: 705 POINTS
TCL: Setting parameter alchLambda2 to 0.49999999999999994
Info: NONBONDED TABLE R-SQUARED SPACING: 0.0625
Info: NONBONDED TABLE SIZE: 705 POINTS
TCL: Running for 1500000 steps
ETITLE: TS BOND ANGLE DIHED IMPRP ELECT VDW BOUNDARY MISC KINETIC TOTAL TEMP POTENTIAL TOTALAVG TEMPAVG PRESSURE GPRESSURE VOLUME PRESSAVG GPRESSAVG
ENERGY: 0 1.1652 3.5230 0.6864 0.0000 -10626.0727 1450.6152 0.0000 0.0000 1757.5945 -7412.4885 300.1737 -9170.0830 -7412.4885 300.1737 9.0226 96.5244 30385.4325 9.0226 96.5244
ENERGY: 300000 0.9769 4.3986 1.5681 0.0000 -10502.8443 1319.8084 0.0000 0.0000 1764.2257 -7411.8667 301.3062 -9176.0924 -7422.6646 301.3076 -1064.4625 -959.1764 30956.0723 -251.6636 -173.6082
ENERGY: 600000 3.0997 3.0348 6.1368 0.0000 -10864.3329 1562.4605 0.0000 0.0000 1788.8764 -7500.7246 305.5162 -9289.6010 -7449.2287 302.6459 739.0866 852.6845 30012.9816 29.0858 109.4444
ENERGY: 900000 2.0503 2.1655 2.4376 0.0000 -10611.8415 1384.5505 0.0000 0.0000 1821.7766 -7398.8609 311.1351 -9220.6375 -7448.7121 303.9843 -432.3195 -352.9614 30213.4756 -106.8201 -31.4105
ENERGY: 1200000 0.8971 1.3271 4.0471 0.0000 -10736.1202 1476.4330 0.0000 0.0000 1801.9684 -7451.4475 307.7522 -9253.4158 -7441.9568 304.9398 362.9404 440.8500 29969.5894 -62.7938 7.7445
ENERGY: 1500000 3.5716 3.6897 2.4593 0.0000 -10572.4511 1397.7024 0.0000 0.0000 1781.9625 -7383.0658 304.3354 -9165.0282 -7437.5080 303.6015 -385.9149 -366.8917 30502.6767 -161.0729 -98.1641
TCL: Running FEP window  11: Lambda1 0.49999999999999994 Lambda2 0.5499999999999999 [dLambda 0.04999999999999999]
TCL: Setting parameter firsttimestep to 0
TCL: Setting parameter alchLambda to 0.49999999999999994
Info: NONBONDED TABLE R-SQUARED SPACING: 0.0625
Info: NONBONDED TABLE SIZE: 705 POINTS
TCL: Setting parameter alchLambda2 to 0.5499999999999999
Info: NONBONDED TABLE R-SQUARED SPACING: 0.0625
Info: NONBONDED TABLE SIZE: 705 POINTS
TCL: Running for 1500000 steps
ETITLE: TS BOND ANGLE DIHED IMPRP ELECT VDW BOUNDARY MISC KINETIC TOTAL TEMP POTENTIAL TOTALAVG TEMPAVG PRESSURE GPRESSURE VOLUME PRESSAVG GPRESSAVG
ENERGY: 0 3.5716 3.6897 2.4593 0.0000 -10572.4516 1397.5298 0.0000 0.0000 1781.0855 -7384.1159 304.1856 -9165.2014 -7384.1159 304.1856 -443.8475 -361.7349 30502.6767 -443.8475 -361.7349
ENERGY: 300000 3.1235 2.4394 2.2082 0.0000 -10662.6455 1419.6291 0.0000 0.0000 1779.3285 -7455.9168 303.8856 -9235.2453 -7453.6997 302.5854 -63.5589 -10.4828 30064.0285 -537.0167 -484.1444
ENERGY: 600000 1.2465 2.4013 3.2269 0.0000 -10729.1470 1528.2668 0.0000 0.0000 1797.8215 -7396.1840 307.0439 -9194.0055 -7443.0793 303.9147 747.8150 835.9113 30147.9147 -288.0511 -228.1361
ENERGY: 900000 0.5340 5.8047 1.3270 0.0000 -10563.8687 1396.9990 0.0000 0.0000 1714.5875 -7444.6164 292.8287 -9159.2039 -7447.0838 302.7464 -48.3178 -8.7642 30130.9943 -300.3209 -243.8330
ENERGY: 1200000 1.4224 4.7676 2.0723 0.0000 -10520.8401 1426.3991 0.0000 0.0000 1794.0507 -7292.1280 306.3999 -9086.1787 -7435.3908 303.0711 61.2603 194.1520 30766.3787 -286.4061 -224.8252
ENERGY: 1500000 1.2071 1.4242 2.5182 0.0000 -10782.3627 1521.9650 0.0000 0.0000 1758.4031 -7496.8450 300.3118 -9255.2481 -7446.1747 302.3601 803.4966 877.0686 29807.7227 -187.8677 -125.5766
TCL: Running FEP window  12: Lambda1 0.5499999999999999 Lambda2 0.6    [dLambda 0.050000000000000044]
TCL: Setting parameter firsttimestep to 0
TCL: Setting parameter alchLambda to 0.5499999999999999
Info: NONBONDED TABLE R-SQUARED SPACING: 0.0625
Info: NONBONDED TABLE SIZE: 705 POINTS
TCL: Setting parameter alchLambda2 to 0.6
Info: NONBONDED TABLE R-SQUARED SPACING: 0.0625
Info: NONBONDED TABLE SIZE: 705 POINTS
TCL: Running for 1500000 steps
ETITLE: TS BOND ANGLE DIHED IMPRP ELECT VDW BOUNDARY MISC KINETIC TOTAL TEMP POTENTIAL TOTALAVG TEMPAVG PRESSURE GPRESSURE VOLUME PRESSAVG GPRESSAVG
ENERGY: 0 1.2071 1.4242 2.5182 0.0000 -10782.1973 1521.8423 0.0000 0.0000 1757.5307 -7497.6748 300.1628 -9255.2054 -7497.6748 300.1628 781.4785 879.9202 29807.7227 781.4785 879.9202
ENERGY: 300000 5.0041 8.5466 1.4839 0.0000 -10614.6371 1414.9596 0.0000 0.0000 1737.1488 -7447.4941 296.6818 -9184.6428 -7447.6024 300.1413 -204.1337 -105.5693 30553.6476 -103.1652 -30.5070
ENERGY: 600000 0.9333 4.0040 3.8016 0.0000 -10678.0922 1440.5782 0.0000 0.0000 1755.4969 -7473.2781 299.8155 -9228.7750 -7461.4194 299.4971 27.9931 36.7860 30401.7918 -44.5064 21.5307
ENERGY: 900000 1.1079 1.3565 1.5851 0.0000 -10768.9834 1479.6935 0.0000 0.0000 1781.7307 -7503.5097 304.2958 -9285.2404 -7463.4426 300.0811 78.6963 91.8471 30518.1178 99.7438 149.2171
ENERGY: 1200000 2.4816 3.3749 1.6877 0.0000 -10625.5585 1422.2722 0.0000 0.0000 1768.4060 -7427.3360 302.0202 -9195.7420 -7458.1062 300.3646 -410.3515 -355.6521 30798.0355 72.0697 120.1282
ENERGY: 1500000 1.3129 1.9547 4.3071 0.0000 -10414.1057 1319.2522 0.0000 0.0000 1743.7629 -7343.5158 297.8114 -9087.2787 -7455.8774 299.8246 -737.1769 -659.9866 30915.6679 -14.5514 35.0134
TCL: Running FEP window  13: Lambda1 0.6    Lambda2 0.65   [dLambda 0.050000000000000044]
TCL: Setting parameter firsttimestep to 0
TCL: Setting parameter alchLambda to 0.6
Info: NONBONDED TABLE R-SQUARED SPACING: 0.0625
Info: NONBONDED TABLE SIZE: 705 POINTS
TCL: Setting parameter alchLambda2 to 0.65
Info: NONBONDED TABLE R-SQUARED SPACING: 0.0625
Info: NONBONDED TABLE SIZE: 705 POINTS
TCL: Running for 1500000 steps
ETITLE: TS BOND ANGLE DIHED IMPRP ELECT VDW BOUNDARY MISC KINETIC TOTAL TEMP POTENTIAL TOTALAVG TEMPAVG PRESSURE GPRESSURE VOLUME PRESSAVG GPRESSAVG
ENERGY: 0 1.3129 1.9547 4.3071 0.0000 -10413.9652 1318.8046 0.0000 0.0000 1742.8814 -7344.7046 297.6609 -9087.5860 -7344.7046 297.6609 -726.7804 -657.4977 30915.6679 -726.7804 -657.4977
ENERGY: 300000 1.0460 5.7878 3.3120 0.0000 -10611.6186 1410.2481 0.0000 0.0000 1762.7053 -7428.5193 301.0466 -9191.2247 -7425.0004 303.1909 -36.3660 32.1955 30285.7765 -221.3902 -158.7040
ENERGY: 600000 0.9168 6.2743 1.6748 0.0000 -10590.3229 1359.1440 0.0000 0.0000 1766.8797 -7455.4332 301.7595 -9222.3129 -7464.3635 302.2657 -439.8008 -395.5092 30276.0782 -18.6325 42.7643
ENERGY: 900000 0.7907 1.8435 3.1067 0.0000 -10763.0374 1497.4605 0.0000 0.0000 1776.9542 -7482.8818 303.4801 -9259.8360 -7451.2255 301.7542 413.7656 503.9952 30177.3783 137.6494 200.7876
ENERGY: 1200000 2.5625 5.1549 6.1738 0.0000 -10623.7558 1407.5485 0.0000 0.0000 1791.4622 -7410.8539 305.9579 -9202.3161 -7448.2933 302.1130 -2.4863 146.0759 30042.8486 78.7731 151.0112
ENERGY: 1500000 1.9790 1.1857 4.8912 0.0000 -10718.9240 1440.9791 0.0000 0.0000 1697.1143 -7572.7747 289.8445 -9269.8890 -7457.0414 301.3128 -11.9224 72.2463 30153.3704 23.8893 92.2085
TCL: Running FEP window  14: Lambda1 0.65   Lambda2 0.7000000000000001 [dLambda 0.050000000000000044]
TCL: Setting parameter firsttimestep to 0
TCL: Setting parameter alchLambda to 0.65
Info: NONBONDED TABLE R-SQUARED SPACING: 0.0625
Info: NONBONDED TABLE SIZE: 705 POINTS
TCL: Setting parameter alchLambda2 to 0.7000000000000001
Info: NONBONDED TABLE R-SQUARED SPACING: 0.0625
Info: NONBONDED TABLE SIZE: 705 POINTS
TCL: Running for 1500000 steps
ETITLE: TS BOND ANGLE DIHED IMPRP ELECT VDW BOUNDARY MISC KINETIC TOTAL TEMP POTENTIAL TOTALAVG TEMPAVG PRESSURE GPRESSURE VOLUME PRESSAVG GPRESSAVG
ENERGY: 0 1.9790 1.1857 4.8912 0.0000 -10718.9261 1440.9521 0.0000 0.0000 1696.2920 -7573.6261 289.7040 -9269.9181 -7573.6261 289.7040 1.2663 80.8800 30153.3704 1.2663 80.8800
ENERGY: 300000 2.5048 2.6193 1.4348 0.0000 -10831.6980 1484.9308 0.0000 0.0000 1733.7372 -7606.4712 296.0992 -9340.2083 -7517.0240 295.4355 52.4963 144.9227 30091.4322 -86.9999 -40.3156
ENERGY: 600000 1.4518 1.1453 1.8485 0.0000 -10646.2148 1433.3452 0.0000 0.0000 1771.0688 -7437.3551 302.4749 -9208.4239 -7468.0764 299.8394 99.3226 180.7280 30221.2379 70.6801 123.0127
ENERGY: 900000 3.9191 3.5505 1.5641 0.0000 -10768.4974 1469.7316 0.0000 0.0000 1750.5792 -7539.1527 298.9756 -9289.7319 -7487.7816 299.1411 166.9359 231.9249 29726.5020 214.6096 268.4755
ENERGY: 1200000 1.6180 1.7881 1.1432 0.0000 -10448.5478 1292.2946 0.0000 0.0000 1757.9710 -7393.7328 300.2380 -9151.7038 -7464.7714 299.4175 -881.3662 -834.8219 30151.4647 4.4978 56.1515
ENERGY: 1500000 1.1608 3.9013 0.5066 0.0000 -10709.6720 1463.9606 0.0000 0.0000 1747.4850 -7492.6577 298.4471 -9240.1427 -7470.5735 299.2743 235.7565 260.5007 30299.8425 24.4905 75.4786
TCL: Running FEP window  15: Lambda1 0.7000000000000001 Lambda2 0.7500000000000001 [dLambda 0.050000000000000044]
TCL: Setting parameter firsttimestep to 0
TCL: Setting parameter alchLambda to 0.7000000000000001
Info: NONBONDED TABLE R-SQUARED SPACING: 0.0625
Info: NONBONDED TABLE SIZE: 705 POINTS
TCL: Setting parameter alchLambda2 to 0.7500000000000001
Info: NONBONDED TABLE R-SQUARED SPACING: 0.0625
Info: NONBONDED TABLE SIZE: 705 POINTS
TCL: Running for 1500000 steps
ETITLE: TS BOND ANGLE DIHED IMPRP ELECT VDW BOUNDARY MISC KINETIC TOTAL TEMP POTENTIAL TOTALAVG TEMPAVG PRESSURE GPRESSURE VOLUME PRESSAVG GPRESSAVG
ENERGY: 0 1.1608 3.9013 0.5066 0.0000 -10709.9104 1463.5049 0.0000 0.0000 1746.6511 -7494.1856 298.3047 -9240.8368 -7494.1856 298.3047 187.8313 261.8774 30299.8425 187.8313 261.8774
ENERGY: 300000 2.1204 2.1192 2.0609 0.0000 -10724.2282 1442.3974 0.0000 0.0000 1787.1060 -7488.4243 305.2139 -9275.5303 -7497.6869 299.7966 198.6352 198.0195 29975.4949 140.4722 170.6221
ENERGY: 600000 1.6878 4.1680 2.9869 0.0000 -10723.9800 1421.6657 0.0000 0.0000 1789.5994 -7503.8722 305.6397 -9293.4716 -7466.3781 302.6365 -98.0573 -52.7946 30025.3816 61.8153 94.5825
ENERGY: 900000 3.6163 4.0263 3.6457 0.0000 -10744.6883 1489.8210 0.0000 0.0000 1763.9473 -7479.6316 301.2587 -9243.5790 -7474.6899 301.5008 276.6985 349.3225 30074.2571 19.0650 69.9997
ENERGY: 1200000 0.7686 3.0717 3.9593 0.0000 -10654.0529 1407.6677 0.0000 0.0000 1733.1501 -7505.4356 295.9989 -9238.5857 -7482.2392 299.8347 -453.5634 -392.1739 30646.9444 -123.8871 -67.8316
ENERGY: 1500000 1.6604 3.0187 3.8455 0.0000 -10628.3214 1411.9454 0.0000 0.0000 1774.4293 -7433.4221 303.0489 -9207.8514 -7470.3894 300.4495 -170.4470 -111.3956 30202.1132 -155.7352 -101.1853
TCL: Running FEP window  16: Lambda1 0.7500000000000001 Lambda2 0.8000000000000002 [dLambda 0.050000000000000044]
TCL: Setting parameter firsttimestep to 0
TCL: Setting parameter alchLambda to 0.7500000000000001
Info: NONBONDED TABLE R-SQUARED SPACING: 0.0625
Info: NONBONDED TABLE SIZE: 705 POINTS
TCL: Setting parameter alchLambda2 to 0.8000000000000002
Info: NONBONDED TABLE R-SQUARED SPACING: 0.0625
Info: NONBONDED TABLE SIZE: 705 POINTS
TCL: Running for 1500000 steps
ETITLE: TS BOND ANGLE DIHED IMPRP ELECT VDW BOUNDARY MISC KINETIC TOTAL TEMP POTENTIAL TOTALAVG TEMPAVG PRESSURE GPRESSURE VOLUME PRESSAVG GPRESSAVG
ENERGY: 0 1.6604 3.0187 3.8455 0.0000 -10628.4784 1412.5591 0.0000 0.0000 1773.5480 -7433.8467 302.8983 -9207.3947 -7433.8467 302.8983 -179.8966 -97.1154 30202.1132 -179.8966 -97.1154
ENERGY: 300000 1.2207 1.9289 2.6645 0.0000 -10684.2323 1442.0117 0.0000 0.0000 1801.6942 -7434.7122 307.7053 -9236.4064 -7435.2980 303.7620 161.6742 200.1753 30120.5597 -172.8309 -123.7817
ENERGY: 600000 1.2618 1.9142 3.2855 0.0000 -10663.8896 1436.9628 0.0000 0.0000 1777.2425 -7443.2227 303.5293 -9220.4652 -7460.7650 302.1511 -64.8009 8.7622 30502.4349 -205.5192 -150.0299
ENERGY: 900000 3.7977 1.1485 4.6782 0.0000 -10685.4229 1398.1382 0.0000 0.0000 1729.9107 -7547.7495 295.4457 -9277.6602 -7457.8073 301.6830 -312.2523 -243.6521 30120.4012 -376.5202 -315.7053
ENERGY: 1200000 0.7513 2.4148 2.4584 0.0000 -10628.4974 1414.2067 0.0000 0.0000 1787.2350 -7421.4311 305.2359 -9208.6662 -7448.3232 301.0223 -12.0973 36.1309 30244.9254 -331.1879 -270.1498
ENERGY: 1500000 2.2597 4.5690 2.2697 0.0000 -10563.8992 1397.6965 0.0000 0.0000 1812.7921 -7344.3122 309.6007 -9157.1043 -7435.5007 302.1705 -329.7504 -228.5017 30953.9856 -393.5860 -328.5518
TCL: Running FEP window  17: Lambda1 0.8000000000000002 Lambda2 0.8500000000000002 [dLambda 0.050000000000000044]
TCL: Setting parameter firsttimestep to 0
TCL: Setting parameter alchLambda to 0.8000000000000002
Info: NONBONDED TABLE R-SQUARED SPACING: 0.0625
Info: NONBONDED TABLE SIZE: 705 POINTS
TCL: Setting parameter alchLambda2 to 0.8500000000000002
Info: NONBONDED TABLE R-SQUARED SPACING: 0.0625
Info: NONBONDED TABLE SIZE: 705 POINTS
TCL: Running for 1500000 steps
ETITLE: TS BOND ANGLE DIHED IMPRP ELECT VDW BOUNDARY MISC KINETIC TOTAL TEMP POTENTIAL TOTALAVG TEMPAVG PRESSURE GPRESSURE VOLUME PRESSAVG GPRESSAVG
ENERGY: 0 2.2597 4.5690 2.2697 0.0000 -10564.3944 1397.7858 0.0000 0.0000 1811.9404 -7345.5698 309.4553 -9157.5102 -7345.5698 309.4553 -297.0676 -222.4879 30953.9856 -297.0676 -222.4879
ENERGY: 300000 2.8950 2.2350 1.9185 0.0000 -10750.2157 1432.1144 0.0000 0.0000 1742.2735 -7568.7793 297.5571 -9311.0527 -7427.2929 302.3971 -338.7401 -216.8113 30240.4974 -176.7048 -82.6924
ENERGY: 600000 2.9216 1.7638 1.4276 0.0000 -10598.6896 1409.4292 0.0000 0.0000 1738.2443 -7444.9031 296.8689 -9183.1474 -7441.2868 299.9688 -159.3688 -140.3602 30261.9753 -147.2867 -58.4777
ENERGY: 900000 2.3262 1.6438 2.5370 0.0000 -10663.7530 1441.9328 0.0000 0.0000 1784.0284 -7431.2848 304.6882 -9215.3132 -7437.3188 299.6037 124.3966 211.8702 30364.0753 -123.0562 -44.1568
ENERGY: 1200000 1.6876 2.8641 1.5417 0.0000 -10609.5867 1377.5770 0.0000 0.0000 1800.4767 -7425.4396 307.4974 -9225.9164 -7441.4940 299.8571 -228.4658 -186.5623 30168.2108 -122.7840 -47.6805
ENERGY: 1500000 1.8066 2.7364 0.9299 0.0000 -10573.6022 1339.0431 0.0000 0.0000 1744.8436 -7484.2427 297.9960 -9229.0863 -7454.5986 299.3014 -972.7034 -863.1325 30492.6367 -204.3352 -132.2671
TCL: Running FEP window  18: Lambda1 0.8500000000000002 Lambda2 0.9000000000000002 [dLambda 0.050000000000000044]
TCL: Setting parameter firsttimestep to 0
TCL: Setting parameter alchLambda to 0.8500000000000002
Info: NONBONDED TABLE R-SQUARED SPACING: 0.0625
Info: NONBONDED TABLE SIZE: 705 POINTS
TCL: Setting parameter alchLambda2 to 0.9000000000000002
Info: NONBONDED TABLE R-SQUARED SPACING: 0.0625
Info: NONBONDED TABLE SIZE: 705 POINTS
TCL: Running for 1500000 steps
ETITLE: TS BOND ANGLE DIHED IMPRP ELECT VDW BOUNDARY MISC KINETIC TOTAL TEMP POTENTIAL TOTALAVG TEMPAVG PRESSURE GPRESSURE VOLUME PRESSAVG GPRESSAVG
ENERGY: 0 1.8066 2.7364 0.9299 0.0000 -10574.1393 1339.4616 0.0000 0.0000 1743.9857 -7485.2191 297.8495 -9229.2048 -7485.2191 297.8495 -933.2669 -847.0580 30492.6367 -933.2669 -847.0580
ENERGY: 300000 2.4704 4.5907 1.3970 0.0000 -10523.6603 1347.1555 0.0000 0.0000 1748.7895 -7419.2572 298.6699 -9168.0467 -7468.9754 299.3166 -749.6061 -632.4256 30596.9898 -795.4183 -727.7499
ENERGY: 600000 3.1444 6.2812 2.4353 0.0000 -10531.2215 1330.8695 0.0000 0.0000 1764.4326 -7424.0584 301.3416 -9188.4911 -7462.5757 300.2131 -748.3536 -711.6729 30476.8651 -677.6237 -609.4388
ENERGY: 900000 2.7162 2.0767 2.4285 0.0000 -10562.0297 1417.1240 0.0000 0.0000 1705.1576 -7432.5267 291.2182 -9137.6844 -7454.9637 299.0832 139.0312 151.1874 30499.3919 -510.0306 -449.4094
ENERGY: 1200000 3.8921 3.8059 0.8864 0.0000 -10652.1000 1390.5961 0.0000 0.0000 1721.4877 -7531.4317 294.0071 -9252.9194 -7455.8950 299.8102 -486.5699 -462.0849 30350.2856 -336.5737 -285.4223
ENERGY: 1500000 2.2009 2.8788 1.8571 0.0000 -10470.2281 1284.4330 0.0000 0.0000 1740.6598 -7438.1986 297.2815 -9178.8584 -7455.7202 299.3720 -981.9617 -904.8552 30302.8842 -248.5862 -196.5132
TCL: Running FEP window  19: Lambda1 0.9000000000000002 Lambda2 0.9500000000000003 [dLambda 0.050000000000000044]
TCL: Setting parameter firsttimestep to 0
TCL: Setting parameter alchLambda to 0.9000000000000002
Info: NONBONDED TABLE R-SQUARED SPACING: 0.0625
Info: NONBONDED TABLE SIZE: 705 POINTS
TCL: Setting parameter alchLambda2 to 0.9500000000000003
Info: NONBONDED TABLE R-SQUARED SPACING: 0.0625
Info: NONBONDED TABLE SIZE: 705 POINTS
TCL: Running for 1500000 steps
ETITLE: TS BOND ANGLE DIHED IMPRP ELECT VDW BOUNDARY MISC KINETIC TOTAL TEMP POTENTIAL TOTALAVG TEMPAVG PRESSURE GPRESSURE VOLUME PRESSAVG GPRESSAVG
ENERGY: 0 2.2009 2.8788 1.8571 0.0000 -10470.5679 1284.1867 0.0000 0.0000 1739.7511 -7439.6933 297.1263 -9179.4444 -7439.6933 297.1263 -992.5770 -903.2405 30302.8842 -992.5770 -903.2405
ENERGY: 300000 0.5350 2.5868 3.1728 0.0000 -10494.6965 1336.7899 0.0000 0.0000 1722.0225 -7429.5894 294.0985 -9151.6119 -7415.6496 300.5694 -709.3207 -692.8757 30868.8922 -488.9019 -437.4861
ENERGY: 600000 4.6081 1.6538 2.1416 0.0000 -10558.5149 1437.4705 0.0000 0.0000 1756.1582 -7356.4828 299.9284 -9112.6410 -7443.9343 299.6364 266.3784 381.3586 30385.9225 -278.7791 -221.7195
ENERGY: 900000 3.3606 1.4488 2.5771 0.0000 -10598.7007 1393.1500 0.0000 0.0000 1790.1306 -7408.0336 305.7304 -9198.1641 -7433.8119 300.5754 -102.5553 -41.9514 30238.2443 -282.2460 -226.1922
ENERGY: 1200000 0.9520 1.8641 1.7511 0.0000 -10602.8650 1393.2946 0.0000 0.0000 1706.5246 -7498.4785 291.4516 -9205.0032 -7436.2547 300.1125 -153.1883 -152.6679 30203.1109 -194.2829 -135.6869
ENERGY: 1500000 2.6652 2.1780 3.0173 0.0000 -10565.1916 1407.6546 0.0000 0.0000 1713.4671 -7436.2094 292.6373 -9149.6765 -7434.4010 299.4948 -193.5668 -82.9573 30359.4695 -152.5096 -95.9109
TCL: Running FEP window  20: Lambda1 0.9500000000000003 Lambda2 1.0    [dLambda 0.04999999999999971]
TCL: Setting parameter firsttimestep to 0
TCL: Setting parameter alchLambda to 0.9500000000000003
Info: NONBONDED TABLE R-SQUARED SPACING: 0.0625
Info: NONBONDED TABLE SIZE: 705 POINTS
TCL: Setting parameter alchLambda2 to 1.0
Info: NONBONDED TABLE R-SQUARED SPACING: 0.0625
Info: NONBONDED TABLE SIZE: 705 POINTS
TCL: Running for 1500000 steps
ETITLE: TS BOND ANGLE DIHED IMPRP ELECT VDW BOUNDARY MISC KINETIC TOTAL TEMP POTENTIAL TOTALAVG TEMPAVG PRESSURE GPRESSURE VOLUME PRESSAVG GPRESSAVG
ENERGY: 0 2.6652 2.1780 3.0173 0.0000 -10565.6536 1407.4108 0.0000 0.0000 1712.5165 -7437.8658 292.4750 -9150.3823 -7437.8658 292.4750 -158.4897 -76.7919 30359.4695 -158.4897 -76.7919
ENERGY: 300000 2.4441 3.0362 5.5818 0.0000 -10548.8688 1387.7549 0.0000 0.0000 1801.5814 -7348.4704 307.6861 -9150.0518 -7428.5620 303.1973 -279.3465 -239.9293 30846.9721 -143.3598 -83.0698
ENERGY: 600000 0.8348 1.7273 1.5731 0.0000 -10677.0056 1452.7317 0.0000 0.0000 1759.9383 -7460.2005 300.5740 -9220.1388 -7437.4524 302.6725 48.5888 95.0539 30715.3817 -31.5646 35.0352
ENERGY: 900000 4.4868 2.2792 1.7247 0.0000 -10682.5672 1437.8585 0.0000 0.0000 1719.4924 -7516.7257 293.6664 -9236.2181 -7450.6084 300.7656 104.4624 172.2008 30195.8117 55.8375 124.1808
ENERGY: 1200000 3.2880 3.4786 1.6983 0.0000 -10694.6634 1432.9235 0.0000 0.0000 1700.1269 -7553.1481 290.3590 -9253.2750 -7463.7466 299.5530 -32.3143 59.6831 30288.2157 -13.0890 51.4183
ENERGY: 1500000 2.3261 2.0821 3.2677 0.0000 -10842.8896 1497.7022 0.0000 0.0000 1773.0209 -7564.4906 302.8083 -9337.5115 -7483.6599 299.6161 431.7580 548.4045 29619.5906 17.5796 84.9323
TCL: Exiting due to exit command.
