Info: SIMULATION PARAMETERS:
Info: TIMESTEP               2
Info: NUMBER OF STEPS        0
Info: STEPS PER CYCLE        10
Info: PERIODIC CELL BASIS 1  32.3442 0 0
Info: PERIODIC CELL BASIS 2  0 30.2829 0
Info: PERIODIC CELL BASIS 3  0 0 31.576
Info: PERIODIC CELL CENTER   0 0 0
Info: WRAPPING WATERS AROUND PERIODIC BOUNDARIES ON OUTPUT.
Info: WRAPPING ALL CLUSTERS AROUND PERIODIC BOUNDARIES ON OUTPUT.
Info: FIRST LDB TIMESTEP     50
Info: LAST LDB TIMESTEP     -1
Info: HOM BACKGROUND SCALING 1
Info: PME BACKGROUND SCALING 1
Info: MIN ATOMS PER PATCH    40
Info: EMPTY PATCH LOAD       40 ATOMS
Info: VELOCITY FILE          mobley_2123854_equil.vel
Info: CENTER OF MASS MOVING INITIALLY? NO
Info: DIELECTRIC             1
Info: EXCLUDE                SCALED ONE-FOUR
Info: 1-4 ELECTROSTATICS SCALED BY 0.833333
Info: MODIFIED 1-4 VDW PARAMETERS WILL BE USED
Info: DCD FILENAME           mobley_2123854_prod.dcd
Info: DCD FREQUENCY          100000
Info: DCD FIRST STEP         100000
Info: DCD FILE WILL CONTAIN UNIT CELL DATA
Info: XST FILENAME           mobley_2123854_prod.xst
Info: XST FREQUENCY          100000
Info: NO VELOCITY DCD OUTPUT
Info: NO FORCE DCD OUTPUT
Info: OUTPUT FILENAME        mobley_2123854_prod
Info: BINARY OUTPUT FILES WILL BE USED
Info: RESTART FILENAME       mobley_2123854_prod.restart
Info: RESTART FREQUENCY      100000
Info: BINARY RESTART FILES WILL BE USED
Info: CUTOFF                 9
Info: PAIRLIST DISTANCE      11
Info: PAIRLIST SHRINK RATE   0.01
Info: PAIRLIST GROW RATE     0.01
Info: PAIRLIST TRIGGER       0.3
Info: PAIRLISTS PER CYCLE    2
Info: PAIRLISTS ENABLED
Info: MARGIN                 2
Info: HYDROGEN GROUP CUTOFF  2.5
Info: PATCH DIMENSION        15.5
Info: ENERGY OUTPUT STEPS    100000
Info: ENERGY EVALUATION STEPS    100000
Info: OUTPUT ENERGY PRECISION 4
Info: CROSSTERM ENERGY INCLUDED IN DIHEDRAL
Info: TIMING OUTPUT STEPS    1000000
Info: PRESSURE OUTPUT STEPS  100000
Info: ALCHEMICAL FEP ON
Info: FEP CURRENT LAMBDA VALUE     0
Info: FEP COMPARISON LAMBDA VALUE  0.05
Info: FEP INTRA-ALCHEMICAL NON-BONDED INTERACTIONS WILL BE RETAINED
Info: FEP INTRA-ALCHEMICAL BONDED INTERACTIONS WILL BE RETAINED
Info: FEP VDW SHIFTING COEFFICIENT 5
Info: FEP ELEC. ACTIVE FOR ANNIHILATED PARTICLES BETWEEN LAMBDA = 0 AND LAMBDA = 0.5
Info: FEP ELEC. ACTIVE FOR EXNIHILATED PARTICLES BETWEEN LAMBDA = 0.5 AND LAMBDA = 1
Info: FEP VDW ACTIVE FOR ANNIHILATED PARTICLES BETWEEN LAMBDA = 0 AND LAMBDA = 1
Info: FEP VDW ACTIVE FOR EXNIHILATED PARTICLES BETWEEN LAMBDA = 0 AND LAMBDA = 1
Info: FEP BOND ACTIVE FOR ANNIHILATED PARTICLES BETWEEN LAMBDA = 1 AND LAMBDA = 1
Info: FEP BOND ACTIVE FOR EXNIHILATED PARTICLES BETWEEN LAMBDA = 0 AND LAMBDA = 0
Info: LANGEVIN DYNAMICS ACTIVE
Info: LANGEVIN TEMPERATURE   300
Info: LANGEVIN USING BBK INTEGRATOR
Info: LANGEVIN DAMPING COEFFICIENT IS 1 INVERSE PS
Info: LANGEVIN DYNAMICS APPLIED TO HYDROGENS
Info: LANGEVIN PISTON PRESSURE CONTROL ACTIVE
Info:        TARGET PRESSURE IS 1.01325 BAR
Info:     OSCILLATION PERIOD IS 50 FS
Info:             DECAY TIME IS 25 FS
Info:     PISTON TEMPERATURE IS 300 K
Info:       PRESSURE CONTROL IS GROUP-BASED
Info:    INITIAL STRAIN RATE IS 0.000184586 0.000184586 0.000184586
Info:       CELL FLUCTUATION IS ISOTROPIC
Info: PARTICLE MESH EWALD (PME) ACTIVE
Info: PME TOLERANCE               1e-06
Info: PME EWALD COEFFICIENT       0.348832
Info: PME INTERPOLATION ORDER     4
Info: PME GRID DIMENSIONS         36 32 32
Info: PME MAXIMUM GRID SPACING    1
Info: PME CALCULATION WILL BE PERFORMED ON GPU
Info: FULL ELECTROSTATIC EVALUATION FREQUENCY      2
Info: USING VERLET I (r-RESPA) MTS SCHEME.
Info: C1 SPLITTING OF LONG RANGE ELECTROSTATICS
Info: PLACING ATOMS IN PATCHES BY HYDROGEN GROUPS
Info: RIGID BONDS TO HYDROGEN : ALL
Info:         ERROR TOLERANCE : 1e-08
Info:          MAX ITERATIONS : 100
Info: RIGID WATER USING SETTLE ALGORITHM
Info: RANDOM NUMBER SEED     1743559253
Info: USE HYDROGEN BONDS?    NO
Info: Using AMBER format force field!
Info: AMBER PARM FILE        mobley_2123854.prmtop
Info: COORDINATE PDB         mobley_2123854.pdb
Info: Exclusions will be read from PARM file!
Info: SCNB (VDW SCALING)     2
Info: USING ARITHMETIC MEAN TO COMBINE L-J SIGMA PARAMETERS
Info: BINARY COORDINATES     mobley_2123854_equil.coor
Info: SUMMARY OF PARAMETERS:
Info: 8 BONDS
Info: 6 ANGLES
Info:   6 HARMONIC
Info:   0 COSINE-BASED
Info: 4 DIHEDRAL
Info: 0 IMPROPER
Info: 0 CROSSTERM
Info: 0 VDW
Info: 28 VDW_PAIRS
Info: 0 NBTHOLE_PAIRS
Info: To read alchdata from file: mobley_2123854.pdb
Info: To read alchflag data from column: 5
Info: STRUCTURE SUMMARY:
Info: 2960 ATOMS
Info: 2960 BONDS
Info: 20 ANGLES
Info: 34 DIHEDRALS
Info: 0 IMPROPERS
Info: 0 CROSSTERMS
Info: 3005 EXCLUSIONS
Info: 2951 RIGID BONDS
Info: ALCH: 0 ATOMS TO DISAPPEAR IN FINAL STATE
Info: ALCH: 14 ATOMS TO APPEAR IN FINAL STATE
Info: 5929 DEGREES OF FREEDOM
Info: 991 HYDROGEN GROUPS
Info: 3 ATOMS IN LARGEST HYDROGEN GROUP
Info: 991 MIGRATION GROUPS
Info: 3 ATOMS IN LARGEST MIGRATION GROUP
Info: TOTAL MASS = 17810.8 amu
Info: TOTAL CHARGE = -0.000100009 e
Info: MASS DENSITY = 0.956298 g/cm^3
Info: ATOM DENSITY = 0.0957065 atoms/A^3
Info: ADDED 0 IMPLICIT EXCLUSIONS
Info: NONBONDED TABLE R-SQUARED SPACING: 0.0625
Info: NONBONDED TABLE SIZE: 705 POINTS
Info: REMOVING COM VELOCITY -0.31892 0.0485024 -0.178223
Info: Use 3D box decompostion in PME FFT.
Info: Updated CUDA force table with 4096 elements.
Info: Updated CUDA LJ table with 7 x 7 elements.
Info: Found 15 unique exclusion lists needing 32 bytes
TCL: Running for 1500000 steps
ETITLE: TS BOND ANGLE DIHED IMPRP ELECT VDW BOUNDARY MISC KINETIC TOTAL TEMP POTENTIAL TOTALAVG TEMPAVG PRESSURE GPRESSURE VOLUME PRESSAVG GPRESSAVG
ENERGY: 0 1.2582 5.3552 2.8639 0.0000 -10836.9639 1474.5562 0.0000 0.0000 1693.1263 -7659.8041 287.4076 -9352.9304 -7659.8041 287.4076 -268.9856 -187.0177 30927.8848 -268.9856 -187.0177
ENERGY: 300000 3.4437 2.7986 4.9407 0.0000 -10720.1245 1449.8015 0.0000 0.0000 1731.6881 -7527.4520 293.9535 -9259.1401 -7543.0662 295.7671 263.6609 296.8207 30204.1345 -94.7316 -47.0642
ENERGY: 600000 3.9358 4.1021 2.7991 0.0000 -10651.6616 1353.6619 0.0000 0.0000 1767.6625 -7519.5001 300.0601 -9287.1626 -7523.0383 298.1798 -767.5988 -763.4330 30376.6091 -37.6699 0.8726
ENERGY: 900000 1.6056 3.1415 5.2625 0.0000 -10794.9968 1513.7661 0.0000 0.0000 1826.1600 -7445.0611 309.9901 -9271.2211 -7517.4900 299.5264 499.0446 581.6501 30192.1992 -7.3198 42.7007
ENERGY: 1200000 2.4769 3.9172 3.5735 0.0000 -10721.2683 1406.7510 0.0000 0.0000 1752.5457 -7552.0040 297.4940 -9304.5496 -7517.6463 299.0213 -441.6406 -386.4235 30490.1428 -33.7382 12.9335
ENERGY: 1500000 3.7503 4.3023 2.1225 0.0000 -10654.1732 1396.2363 0.0000 0.0000 1748.3202 -7499.4415 296.7768 -9247.7617 -7517.3517 299.2962 -472.0377 -440.8556 30546.0659 -36.6115 10.1553
TCL: Running FEP window   2: Lambda1 0.05   Lambda2 0.1    [dLambda 0.05  ]
TCL: Setting parameter firsttimestep to 0
TCL: Setting parameter alchLambda to 0.05
Info: NONBONDED TABLE R-SQUARED SPACING: 0.0625
Info: NONBONDED TABLE SIZE: 705 POINTS
TCL: Setting parameter alchLambda2 to 0.1
Info: NONBONDED TABLE R-SQUARED SPACING: 0.0625
Info: NONBONDED TABLE SIZE: 705 POINTS
TCL: Running for 1500000 steps
ETITLE: TS BOND ANGLE DIHED IMPRP ELECT VDW BOUNDARY MISC KINETIC TOTAL TEMP POTENTIAL TOTALAVG TEMPAVG PRESSURE GPRESSURE VOLUME PRESSAVG GPRESSAVG
ENERGY: 0 3.7503 4.3023 2.1225 0.0000 -10654.1743 1400.0233 0.0000 0.0000 1747.4159 -7496.5601 296.6233 -9243.9759 -7496.5601 296.6233 -510.3176 -432.7219 30546.0659 -510.3176 -432.7219
ENERGY: 300000 3.4686 2.3601 4.6312 0.0000 -10812.3669 1480.6458 0.0000 0.0000 1757.1608 -7564.1005 298.2775 -9321.2613 -7539.3470 299.1828 81.6879 98.3843 30261.1162 -263.5695 -215.2487
ENERGY: 600000 3.3833 4.0258 2.0870 0.0000 -10765.4193 1459.7660 0.0000 0.0000 1765.6229 -7530.5343 299.7139 -9296.1572 -7534.0825 299.2656 -211.5474 -105.3897 30464.1305 -220.9403 -172.1668
ENERGY: 900000 2.4100 3.3219 3.8551 0.0000 -10723.5932 1446.2290 0.0000 0.0000 1761.4927 -7506.2845 299.0128 -9267.7772 -7524.8477 298.6124 -213.8028 -94.7689 30676.0339 -239.6345 -183.3894
ENERGY: 1200000 4.1172 2.0220 2.2803 0.0000 -10807.2725 1460.3973 0.0000 0.0000 1754.5728 -7583.8828 297.8382 -9338.4556 -7523.2155 299.1963 16.3392 61.3096 30373.2425 -232.3295 -175.9416
ENERGY: 1500000 2.8445 3.0087 3.9473 0.0000 -10751.3387 1470.8963 0.0000 0.0000 1721.3228 -7549.3191 292.1940 -9270.6419 -7525.7515 298.8977 143.9851 161.1437 30583.9986 -144.0683 -88.4792
TCL: Running FEP window   3: Lambda1 0.1    Lambda2 0.15000000000000002 [dLambda 0.05000000000000002]
TCL: Setting parameter firsttimestep to 0
TCL: Setting parameter alchLambda to 0.1
Info: NONBONDED TABLE R-SQUARED SPACING: 0.0625
Info: NONBONDED TABLE SIZE: 705 POINTS
TCL: Setting parameter alchLambda2 to 0.15000000000000002
Info: NONBONDED TABLE R-SQUARED SPACING: 0.0625
Info: NONBONDED TABLE SIZE: 705 POINTS
TCL: Running for 1500000 steps
ETITLE: TS BOND ANGLE DIHED IMPRP ELECT VDW BOUNDARY MISC KINETIC TOTAL TEMP POTENTIAL TOTALAVG TEMPAVG PRESSURE GPRESSURE VOLUME PRESSAVG GPRESSAVG
ENERGY: 0 2.8445 3.0087 3.9473 0.0000 -10751.3379 1471.3012 0.0000 0.0000 1720.4080 -7549.8283 292.0387 -9270.2362 -7549.8283 292.0387 66.4408 166.0224 30583.9986 66.4408 166.0224
ENERGY: 300000 3.6682 4.0806 3.5796 0.0000 -10610.7268 1332.1269 0.0000 0.0000 1802.5252 -7464.7464 305.9781 -9267.2716 -7537.9425 299.3911 -1000.8768 -995.4131 30676.9515 -153.9561 -79.5293
ENERGY: 600000 5.2154 1.7834 2.5897 0.0000 -10677.0202 1417.1418 0.0000 0.0000 1796.6147 -7453.6752 304.9748 -9250.2899 -7522.6565 299.5804 -384.3227 -388.5122 30825.3538 -265.4416 -202.4366
ENERGY: 900000 5.3658 1.2022 3.0122 0.0000 -10673.9537 1401.4276 0.0000 0.0000 1795.6911 -7467.2547 304.8180 -9262.9458 -7506.7458 300.5566 -352.7706 -301.6668 30592.7822 -261.4977 -200.1386
ENERGY: 1200000 3.2379 5.9031 2.8249 0.0000 -10657.2520 1434.9816 0.0000 0.0000 1808.7075 -7401.5970 307.0275 -9210.3045 -7502.6404 301.0452 -68.4015 -35.6761 30584.5994 -150.3303 -97.7287
ENERGY: 1500000 2.8734 3.0302 4.2004 0.0000 -10715.9156 1351.1814 0.0000 0.0000 1803.1733 -7551.4568 306.0881 -9354.6301 -7502.8195 301.7209 -1090.7769 -1029.8298 30690.8909 -240.5707 -186.2030
TCL: Running FEP window   4: Lambda1 0.15000000000000002 Lambda2 0.2    [dLambda 0.04999999999999999]
TCL: Setting parameter firsttimestep to 0
TCL: Setting parameter alchLambda to 0.15000000000000002
Info: NONBONDED TABLE R-SQUARED SPACING: 0.0625
Info: NONBONDED TABLE SIZE: 705 POINTS
TCL: Setting parameter alchLambda2 to 0.2
Info: NONBONDED TABLE R-SQUARED SPACING: 0.0625
Info: NONBONDED TABLE SIZE: 705 POINTS
TCL: Running for 1500000 steps
ETITLE: TS BOND ANGLE DIHED IMPRP ELECT VDW BOUNDARY MISC KINETIC TOTAL TEMP POTENTIAL TOTALAVG TEMPAVG PRESSURE GPRESSURE VOLUME PRESSAVG GPRESSAVG
ENERGY: 0 2.8734 3.0302 4.2004 0.0000 -10715.9144 1353.1262 0.0000 0.0000 1802.3089 -7550.3752 305.9413 -9352.6841 -7550.3752 305.9413 -1095.7861 -1017.5810 30690.8909 -1095.7861 -1017.5810
ENERGY: 300000 2.7168 4.2471 1.4533 0.0000 -10682.0237 1353.9438 0.0000 0.0000 1767.1905 -7552.4723 299.9800 -9319.6627 -7529.5688 297.6130 -994.0749 -915.2584 30584.7654 -464.3191 -381.5914
ENERGY: 600000 2.0086 2.6339 3.3951 0.0000 -10707.4934 1410.8812 0.0000 0.0000 1780.2753 -7508.2992 302.2011 -9288.5745 -7533.8916 298.3343 -177.0245 -145.2485 30370.5344 -403.6659 -316.3777
ENERGY: 900000 1.5218 3.6692 2.8497 0.0000 -10744.8584 1428.3867 0.0000 0.0000 1767.0736 -7541.3574 299.9602 -9308.4310 -7532.0899 299.2578 -361.5987 -274.8244 30598.4165 -381.6073 -308.4192
ENERGY: 1200000 0.6936 7.3575 3.4271 0.0000 -10755.9858 1517.1180 0.0000 0.0000 1769.0272 -7458.3624 300.2918 -9227.3897 -7528.1986 298.8847 839.4467 895.5007 30208.7207 -219.2593 -146.4782
ENERGY: 1500000 4.6101 2.5926 3.9744 0.0000 -10635.5019 1361.1629 0.0000 0.0000 1768.5430 -7494.6189 300.2096 -9263.1619 -7518.6859 299.7994 -798.8856 -729.6449 30513.9836 -198.4867 -124.7132
TCL: Running FEP window   5: Lambda1 0.2    Lambda2 0.25   [dLambda 0.04999999999999999]
TCL: Setting parameter firsttimestep to 0
TCL: Setting parameter alchLambda to 0.2
Info: NONBONDED TABLE R-SQUARED SPACING: 0.0625
Info: NONBONDED TABLE SIZE: 705 POINTS
TCL: Setting parameter alchLambda2 to 0.25
Info: NONBONDED TABLE R-SQUARED SPACING: 0.0625
Info: NONBONDED TABLE SIZE: 705 POINTS
TCL: Running for 1500000 steps
ETITLE: TS BOND ANGLE DIHED IMPRP ELECT VDW BOUNDARY MISC KINETIC TOTAL TEMP POTENTIAL TOTALAVG TEMPAVG PRESSURE GPRESSURE VOLUME PRESSAVG GPRESSAVG
ENERGY: 0 4.6101 2.5926 3.9744 0.0000 -10635.5042 1362.4564 0.0000 0.0000 1767.6524 -7494.2184 300.0584 -9261.8708 -7494.2184 300.0584 -792.5586 -720.0641 30513.9836 -792.5586 -720.0641
ENERGY: 300000 2.3294 2.7835 2.2741 0.0000 -10904.7811 1522.8067 0.0000 0.0000 1803.9970 -7570.5905 306.2279 -9374.5875 -7498.1509 301.9816 347.6743 397.5933 30407.2216 -273.1498 -209.6575
ENERGY: 600000 0.9077 4.9663 5.3688 0.0000 -10633.4533 1368.2500 0.0000 0.0000 1785.7599 -7468.2006 303.1322 -9253.9606 -7508.2079 300.2485 -428.7562 -434.4525 30408.7580 -275.3586 -230.4389
ENERGY: 900000 1.5801 6.0579 1.8686 0.0000 -10735.7972 1485.4722 0.0000 0.0000 1741.3138 -7499.5045 295.5874 -9240.8184 -7508.6082 299.0121 338.3544 384.8587 30443.9595 -242.6367 -189.7913
ENERGY: 1200000 1.6925 1.6764 2.0661 0.0000 -10764.0124 1477.3032 0.0000 0.0000 1717.1710 -7564.1032 291.4892 -9281.2743 -7511.3269 297.8872 348.4134 333.6098 30437.5300 -144.8493 -100.1225
ENERGY: 1500000 1.9001 1.8777 4.8008 0.0000 -10594.3454 1384.5923 0.0000 0.0000 1730.2101 -7470.9645 293.7026 -9201.1745 -7509.7518 297.0973 -248.6515 -205.6733 30536.6503 -125.0009 -79.8042
TCL: Running FEP window   6: Lambda1 0.25   Lambda2 0.3    [dLambda 0.04999999999999999]
TCL: Setting parameter firsttimestep to 0
TCL: Setting parameter alchLambda to 0.25
Info: NONBONDED TABLE R-SQUARED SPACING: 0.0625
Info: NONBONDED TABLE SIZE: 705 POINTS
TCL: Setting parameter alchLambda2 to 0.3
Info: NONBONDED TABLE R-SQUARED SPACING: 0.0625
Info: NONBONDED TABLE SIZE: 705 POINTS
TCL: Running for 1500000 steps
ETITLE: TS BOND ANGLE DIHED IMPRP ELECT VDW BOUNDARY MISC KINETIC TOTAL TEMP POTENTIAL TOTALAVG TEMPAVG PRESSURE GPRESSURE VOLUME PRESSAVG GPRESSAVG
ENERGY: 0 1.9001 1.8777 4.8008 0.0000 -10594.3454 1384.7218 0.0000 0.0000 1729.3036 -7471.7414 293.5487 -9201.0450 -7471.7414 293.5487 -291.7292 -202.5033 30536.6503 -291.7292 -202.5033
ENERGY: 300000 2.4468 4.2838 4.6973 0.0000 -10697.0936 1436.0939 0.0000 0.0000 1774.0134 -7475.5584 301.1382 -9249.5718 -7477.9752 297.4097 -256.6924 -159.4766 30781.2541 -164.3548 -120.1960
ENERGY: 600000 2.4308 3.7578 3.6662 0.0000 -10936.9166 1539.0203 0.0000 0.0000 1729.9620 -7658.0795 293.6605 -9388.0415 -7520.8805 297.1760 645.0181 719.7480 29826.2089 47.5886 109.0625
ENERGY: 900000 3.4975 5.7293 2.3236 0.0000 -10884.8971 1500.2526 0.0000 0.0000 1772.5282 -7600.5658 300.8861 -9373.0940 -7532.1430 298.0735 -143.2220 -90.6562 30650.3514 -123.3184 -67.8674
ENERGY: 1200000 2.6027 2.5962 4.4068 0.0000 -10734.8464 1479.6255 0.0000 0.0000 1783.3538 -7462.2615 302.7237 -9245.6152 -7518.7647 299.5073 292.4365 351.2308 30485.0574 -49.7745 2.9105
ENERGY: 1500000 4.5070 4.1673 2.0065 0.0000 -10657.7584 1487.6855 0.0000 0.0000 1728.3989 -7430.9932 293.3951 -9159.3921 -7513.9523 298.9727 414.4177 528.5382 30692.6201 -78.2703 -20.9409
TCL: Running FEP window   7: Lambda1 0.3    Lambda2 0.35   [dLambda 0.04999999999999999]
TCL: Setting parameter firsttimestep to 0
TCL: Setting parameter alchLambda to 0.3
Info: NONBONDED TABLE R-SQUARED SPACING: 0.0625
Info: NONBONDED TABLE SIZE: 705 POINTS
TCL: Setting parameter alchLambda2 to 0.35
Info: NONBONDED TABLE R-SQUARED SPACING: 0.0625
Info: NONBONDED TABLE SIZE: 705 POINTS
TCL: Running for 1500000 steps
ETITLE: TS BOND ANGLE DIHED IMPRP ELECT VDW BOUNDARY MISC KINETIC TOTAL TEMP POTENTIAL TOTALAVG TEMPAVG PRESSURE GPRESSURE VOLUME PRESSAVG GPRESSAVG
ENERGY: 0 4.5070 4.1673 2.0065 0.0000 -10657.7570 1487.8729 0.0000 0.0000 1727.5062 -7431.6971 293.2436 -9159.2033 -7431.6971 293.2436 450.2864 535.5021 30692.6201 450.2864 535.5021
ENERGY: 300000 2.1642 2.9979 3.1677 0.0000 -10777.8276 1460.4643 0.0000 0.0000 1754.6284 -7554.4051 297.8476 -9309.0335 -7492.2263 299.7235 -76.8593 -29.9437 30774.3314 -117.7883 -54.1714
ENERGY: 600000 3.0784 2.2950 1.0310 0.0000 -10705.2931 1425.2941 0.0000 0.0000 1751.8772 -7521.7173 297.3806 -9273.5945 -7502.1317 300.5264 -361.6599 -330.1116 30992.4148 -103.4740 -44.0631
ENERGY: 900000 1.2679 2.9278 3.9187 0.0000 -10792.1754 1441.8202 0.0000 0.0000 1757.2985 -7584.9423 298.3008 -9342.2408 -7500.1640 301.1805 -288.3878 -250.3680 30459.6103 -93.8590 -36.0311
ENERGY: 1200000 4.6385 2.8438 2.0740 0.0000 -10679.1331 1437.6754 0.0000 0.0000 1753.0991 -7478.8023 297.5880 -9231.9014 -7499.0458 300.7231 -114.2969 -71.8389 30275.4174 -66.8721 -8.0084
ENERGY: 1500000 3.9125 4.0212 3.0176 0.0000 -10642.1696 1393.3126 0.0000 0.0000 1764.6709 -7473.2347 299.5523 -9237.9056 -7501.5023 300.5729 -363.2553 -292.3003 30493.7649 -28.0291 29.1733
TCL: Running FEP window   8: Lambda1 0.35   Lambda2 0.39999999999999997 [dLambda 0.04999999999999999]
TCL: Setting parameter firsttimestep to 0
TCL: Setting parameter alchLambda to 0.35
Info: NONBONDED TABLE R-SQUARED SPACING: 0.0625
Info: NONBONDED TABLE SIZE: 705 POINTS
TCL: Setting parameter alchLambda2 to 0.39999999999999997
Info: NONBONDED TABLE R-SQUARED SPACING: 0.0625
Info: NONBONDED TABLE SIZE: 705 POINTS
TCL: Running for 1500000 steps
ETITLE: TS BOND ANGLE DIHED IMPRP ELECT VDW BOUNDARY MISC KINETIC TOTAL TEMP POTENTIAL TOTALAVG TEMPAVG PRESSURE GPRESSURE VOLUME PRESSAVG GPRESSAVG
ENERGY: 0 3.9125 4.0212 3.0176 0.0000 -10642.1700 1393.6977 0.0000 0.0000 1763.7515 -7473.7696 299.3962 -9237.5211 -7473.7696 299.3962 -375.6406 -283.5727 30493.7649 -375.6406 -283.5727
ENERGY: 300000 3.1245 4.0445 0.9732 0.0000 -10827.2887 1464.5680 0.0000 0.0000 1771.3128 -7583.2657 300.6798 -9354.5785 -7521.9266 299.2348 8.4605 82.0986 30271.2372 -137.5019 -61.9123
ENERGY: 600000 1.4365 1.2828 2.8118 0.0000 -10706.4282 1458.4411 0.0000 0.0000 1780.2855 -7462.1705 302.2029 -9242.4560 -7510.8138 300.2036 108.0850 167.3937 30634.9001 -86.1129 -24.4108
ENERGY: 900000 2.1621 6.5652 6.1238 0.0000 -10775.9100 1500.1082 0.0000 0.0000 1761.4440 -7499.5067 299.0045 -9260.9507 -7491.8108 301.0205 309.8859 354.7117 30678.4111 -103.3149 -37.8727
ENERGY: 1200000 5.4424 7.2978 2.3589 0.0000 -10651.0348 1376.0420 0.0000 0.0000 1766.3108 -7493.5828 299.8307 -9259.8936 -7496.9887 300.2082 -553.7065 -476.3336 30520.4626 -114.5169 -37.3502
ENERGY: 1500000 3.6377 3.5284 2.7144 0.0000 -10741.9927 1401.6716 0.0000 0.0000 1747.4774 -7582.9632 296.6337 -9330.4406 -7504.6073 299.6479 -670.2536 -662.9361 30476.4415 -146.1946 -76.1988
TCL: Running FEP window   9: Lambda1 0.39999999999999997 Lambda2 0.44999999999999996 [dLambda 0.04999999999999999]
TCL: Setting parameter firsttimestep to 0
TCL: Setting parameter alchLambda to 0.39999999999999997
Info: NONBONDED TABLE R-SQUARED SPACING: 0.0625
Info: NONBONDED TABLE SIZE: 705 POINTS
TCL: Setting parameter alchLambda2 to 0.44999999999999996
Info: NONBONDED TABLE R-SQUARED SPACING: 0.0625
Info: NONBONDED TABLE SIZE: 705 POINTS
TCL: Running for 1500000 steps
ETITLE: TS BOND ANGLE DIHED IMPRP ELECT VDW BOUNDARY MISC KINETIC TOTAL TEMP POTENTIAL TOTALAVG TEMPAVG PRESSURE GPRESSURE VOLUME PRESSAVG GPRESSAVG
ENERGY: 0 3.6377 3.5284 2.7144 0.0000 -10741.9924 1401.2999 0.0000 0.0000 1746.5685 -7584.2435 296.4794 -9330.8120 -7584.2435 296.4794 -747.5206 -661.2868 30476.4415 -747.5206 -661.2868
ENERGY: 300000 3.0621 6.1756 2.5702 0.0000 -10896.2364 1511.6734 0.0000 0.0000 1814.9769 -7557.7782 308.0917 -9372.7552 -7539.4008 302.5520 472.0912 603.1241 29789.3931 229.4378 320.0492
ENERGY: 600000 4.2444 4.8585 2.0373 0.0000 -10655.3519 1413.8236 0.0000 0.0000 1777.6324 -7452.7557 301.7525 -9230.3881 -7507.3364 301.6790 -328.4167 -214.6318 30668.7874 159.6043 245.0814
ENERGY: 900000 6.1377 3.8813 2.0151 0.0000 -10783.2971 1417.9373 0.0000 0.0000 1743.4491 -7609.8766 295.9499 -9353.3257 -7515.6911 301.1907 -746.7410 -685.9325 30666.7648 -34.1133 45.3171
ENERGY: 1200000 3.9841 6.0458 5.1795 0.0000 -10623.7808 1386.7463 0.0000 0.0000 1775.2634 -7446.5617 301.3504 -9221.8251 -7508.9480 300.7833 -424.5986 -386.1597 30297.3921 2.5206 72.1189
ENERGY: 1500000 2.1445 3.8948 4.5906 0.0000 -10768.0421 1415.1510 0.0000 0.0000 1744.1926 -7598.0687 296.0761 -9342.2613 -7509.5794 300.9510 -335.0892 -332.2108 30142.4244 -1.3359 58.6374
TCL: Running FEP window  10: Lambda1 0.44999999999999996 Lambda2 0.49999999999999994 [dLambda 0.04999999999999999]
TCL: Setting parameter firsttimestep to 0
TCL: Setting parameter alchLambda to 0.44999999999999996
Info: NONBONDED TABLE R-SQUARED SPACING: 0.0625
Info: NONBONDED TABLE SIZE: 705 POINTS
TCL: Setting parameter alchLambda2 to 0.49999999999999994
Info: NONBONDED TABLE R-SQUARED SPACING: 0.0625
Info: NONBONDED TABLE SIZE: 705 POINTS
TCL: Running for 1500000 steps
ETITLE: TS BOND ANGLE DIHED IMPRP ELECT VDW BOUNDARY MISC KINETIC TOTAL TEMP POTENTIAL TOTALAVG TEMPAVG PRESSURE GPRESSURE VOLUME PRESSAVG GPRESSAVG
ENERGY: 0 2.1445 3.8948 4.5906 0.0000 -10768.0424 1416.5231 0.0000 0.0000 1743.3277 -7597.5617 295.9293 -9340.8894 -7597.5617 295.9293 -400.8463 -313.8470 30142.4244 -400.8463 -313.8470
ENERGY: 300000 3.0302 2.3243 4.3262 0.0000 -10761.7438 1408.4384 0.0000 0.0000 1711.3555 -7632.2691 290.5020 -9343.6246 -7557.7945 296.2658 -484.8450 -426.0533 30312.8446 22.5024 105.2402
ENERGY: 600000 4.1622 3.3644 1.9284 0.0000 -10900.7380 1526.2925 0.0000 0.0000 1726.7788 -7638.2116 293.1201 -9364.9905 -7555.7272 298.2325 323.6006 366.3519 30283.1256 -70.3763 -7.5154
ENERGY: 900000 2.7157 1.4698 5.6172 0.0000 -10680.2035 1394.2115 0.0000 0.0000 1790.7837 -7485.4055 303.9849 -9276.1893 -7549.4870 299.6209 -438.5773 -463.5986 30776.8195 -9.4708 43.3628
ENERGY: 1200000 3.9018 3.3269 1.5579 0.0000 -10822.2156 1491.7081 0.0000 0.0000 1737.7450 -7583.9760 294.9816 -9321.7210 -7548.1389 298.2925 306.0222 342.8552 30044.8295 -44.1004 14.1923
ENERGY: 1500000 3.0743 4.6632 2.0563 0.0000 -10663.3896 1382.3375 0.0000 0.0000 1757.4308 -7513.8276 298.3233 -9271.2584 -7533.8636 299.1023 -234.9180 -276.8156 30330.3319 -129.0788 -81.2160
TCL: Running FEP window  11: Lambda1 0.49999999999999994 Lambda2 0.5499999999999999 [dLambda 0.04999999999999999]
TCL: Setting parameter firsttimestep to 0
TCL: Setting parameter alchLambda to 0.49999999999999994
Info: NONBONDED TABLE R-SQUARED SPACING: 0.0625
Info: NONBONDED TABLE SIZE: 705 POINTS
TCL: Setting parameter alchLambda2 to 0.5499999999999999
Info: NONBONDED TABLE R-SQUARED SPACING: 0.0625
Info: NONBONDED TABLE SIZE: 705 POINTS
TCL: Running for 1500000 steps
ETITLE: TS BOND ANGLE DIHED IMPRP ELECT VDW BOUNDARY MISC KINETIC TOTAL TEMP POTENTIAL TOTALAVG TEMPAVG PRESSURE GPRESSURE VOLUME PRESSAVG GPRESSAVG
ENERGY: 0 3.0742 4.6632 2.0563 0.0000 -10663.3886 1384.3516 0.0000 0.0000 1756.5296 -7512.7137 298.1703 -9269.2433 -7512.7137 298.1703 -330.2799 -253.4038 30330.3319 -330.2799 -253.4038
ENERGY: 300000 2.6453 6.1517 3.4123 0.0000 -10704.7994 1402.4271 0.0000 0.0000 1750.4124 -7539.7506 297.1319 -9290.1630 -7510.2911 297.2601 -620.1927 -596.8758 30742.5667 -335.6381 -303.9530
ENERGY: 600000 4.0889 2.7646 2.5808 0.0000 -10642.9137 1381.6968 0.0000 0.0000 1711.5735 -7540.2091 290.5390 -9251.7826 -7527.9906 297.5093 -375.2218 -336.2552 30665.9726 -79.4390 -33.1945
ENERGY: 900000 2.5770 2.5593 3.1331 0.0000 -10661.9265 1375.1574 0.0000 0.0000 1729.9406 -7548.5590 293.6568 -9278.4996 -7520.6622 298.5193 -713.9027 -572.4954 31082.5399 -209.4484 -145.3872
ENERGY: 1200000 2.2558 4.1596 2.5525 0.0000 -10666.0257 1420.5221 0.0000 0.0000 1769.9618 -7466.5740 300.4504 -9236.5358 -7508.3127 299.4469 -87.5627 14.4501 30402.4802 -203.8052 -131.2677
ENERGY: 1500000 3.0734 4.0026 6.4971 0.0000 -10615.2476 1442.5840 0.0000 0.0000 1785.7032 -7373.3874 303.1225 -9159.0906 -7507.5920 298.9530 429.1210 434.9434 30321.1752 -101.4521 -37.8496
TCL: Running FEP window  12: Lambda1 0.5499999999999999 Lambda2 0.6    [dLambda 0.050000000000000044]
TCL: Setting parameter firsttimestep to 0
TCL: Setting parameter alchLambda to 0.5499999999999999
Info: NONBONDED TABLE R-SQUARED SPACING: 0.0625
Info: NONBONDED TABLE SIZE: 705 POINTS
TCL: Setting parameter alchLambda2 to 0.6
Info: NONBONDED TABLE R-SQUARED SPACING: 0.0625
Info: NONBONDED TABLE SIZE: 705 POINTS
TCL: Running for 1500000 steps
ETITLE: TS BOND ANGLE DIHED IMPRP ELECT VDW BOUNDARY MISC KINETIC TOTAL TEMP POTENTIAL TOTALAVG TEMPAVG PRESSURE GPRESSURE VOLUME PRESSAVG GPRESSAVG
ENERGY: 0 3.0734 4.0026 6.4971 0.0000 -10614.6611 1442.7427 0.0000 0.0000 1784.8203 -7373.5251 302.9726 -9158.3454 -7373.5251 302.9726 358.0635 445.1176 30321.1752 358.0635 445.1176
ENERGY: 300000 2.8750 1.6179 4.4698 0.0000 -10855.2109 1482.2224 0.0000 0.0000 1767.7026 -7596.3233 300.0669 -9364.0259 -7511.3125 300.5762 259.3774 358.8130 30216.3987 547.0952 618.0882
ENERGY: 600000 1.4383 1.9113 3.4872 0.0000 -10643.0850 1342.8329 0.0000 0.0000 1746.7311 -7546.6842 296.5070 -9293.4153 -7510.4922 299.6859 -1069.6864 -955.5251 30856.1443 117.4823 180.3145
ENERGY: 900000 1.4078 3.0817 3.8821 0.0000 -10654.3391 1392.9088 0.0000 0.0000 1819.5049 -7433.5538 308.8604 -9253.0587 -7503.9796 300.5724 -93.4296 -26.3347 30120.5641 174.0748 230.0755
ENERGY: 1200000 3.5709 3.8628 4.2492 0.0000 -10705.4418 1417.6709 0.0000 0.0000 1793.2129 -7482.8752 304.3973 -9276.0880 -7505.2455 300.6262 -8.3964 29.3526 30110.8510 87.4073 137.2734
ENERGY: 1500000 2.0726 5.0748 3.1998 0.0000 -10806.7168 1506.7902 0.0000 0.0000 1743.6616 -7545.9177 295.9860 -9289.5794 -7507.9810 300.2998 554.8354 622.6179 30364.7964 71.8755 117.7537
TCL: Running FEP window  13: Lambda1 0.6    Lambda2 0.65   [dLambda 0.050000000000000044]
TCL: Setting parameter firsttimestep to 0
TCL: Setting parameter alchLambda to 0.6
Info: NONBONDED TABLE R-SQUARED SPACING: 0.0625
Info: NONBONDED TABLE SIZE: 705 POINTS
TCL: Setting parameter alchLambda2 to 0.65
Info: NONBONDED TABLE R-SQUARED SPACING: 0.0625
Info: NONBONDED TABLE SIZE: 705 POINTS
TCL: Running for 1500000 steps
ETITLE: TS BOND ANGLE DIHED IMPRP ELECT VDW BOUNDARY MISC KINETIC TOTAL TEMP POTENTIAL TOTALAVG TEMPAVG PRESSURE GPRESSURE VOLUME PRESSAVG GPRESSAVG
ENERGY: 0 2.0726 5.0748 3.1998 0.0000 -10806.9804 1508.1015 0.0000 0.0000 1742.7536 -7545.7781 295.8319 -9288.5317 -7545.7781 295.8319 556.3964 638.9644 30364.7964 556.3964 638.9644
ENERGY: 300000 5.6920 3.4271 3.6236 0.0000 -10688.7993 1381.4053 0.0000 0.0000 1759.4141 -7535.2371 298.6600 -9294.6512 -7487.4084 305.1956 -86.7315 -82.4546 30093.1417 -63.8863 4.1412
ENERGY: 600000 3.3234 3.0588 2.3519 0.0000 -10788.3624 1518.4541 0.0000 0.0000 1819.8711 -7441.3030 308.9225 -9261.1741 -7465.2383 305.1679 716.1051 738.3210 30420.8382 -63.5868 0.6448
ENERGY: 900000 1.4644 3.6047 3.4421 0.0000 -10769.1683 1426.1274 0.0000 0.0000 1777.0598 -7557.4699 301.6553 -9334.5297 -7490.6535 303.4711 -467.0370 -402.2597 30807.4978 1.1929 60.1404
ENERGY: 1200000 1.0006 2.5164 2.3060 0.0000 -10746.1551 1488.7300 0.0000 0.0000 1778.6702 -7472.9320 301.9287 -9251.6021 -7503.3050 302.1133 157.9015 255.3326 30914.9511 25.2626 94.5157
ENERGY: 1500000 3.8130 5.5230 3.2221 0.0000 -10811.5625 1481.2874 0.0000 0.0000 1802.9050 -7514.8120 306.0425 -9317.7170 -7510.4323 302.3416 479.3199 552.9687 29810.8551 79.3070 146.1738
TCL: Running FEP window  14: Lambda1 0.65   Lambda2 0.7000000000000001 [dLambda 0.050000000000000044]
TCL: Setting parameter firsttimestep to 0
TCL: Setting parameter alchLambda to 0.65
Info: NONBONDED TABLE R-SQUARED SPACING: 0.0625
Info: NONBONDED TABLE SIZE: 705 POINTS
TCL: Setting parameter alchLambda2 to 0.7000000000000001
Info: NONBONDED TABLE R-SQUARED SPACING: 0.0625
Info: NONBONDED TABLE SIZE: 705 POINTS
TCL: Running for 1500000 steps
ETITLE: TS BOND ANGLE DIHED IMPRP ELECT VDW BOUNDARY MISC KINETIC TOTAL TEMP POTENTIAL TOTALAVG TEMPAVG PRESSURE GPRESSURE VOLUME PRESSAVG GPRESSAVG
ENERGY: 0 3.8130 5.5230 3.2221 0.0000 -10812.5689 1480.8407 0.0000 0.0000 1802.0186 -7517.1514 305.8921 -9319.1700 -7517.1514 305.8921 468.1334 555.3651 29810.8551 468.1334 555.3651
ENERGY: 300000 2.9616 4.1606 4.1751 0.0000 -10713.4893 1395.7078 0.0000 0.0000 1744.3069 -7562.1773 296.0955 -9306.4842 -7506.4380 299.8684 -513.2245 -478.0941 30565.6253 -76.6444 -14.0499
ENERGY: 600000 3.0740 1.9958 3.4672 0.0000 -10804.7196 1449.0470 0.0000 0.0000 1782.4812 -7564.6543 302.5756 -9347.1356 -7528.0881 299.5951 66.6452 107.2782 30277.2892 9.0045 79.9078
ENERGY: 900000 3.2926 7.8293 2.1752 0.0000 -10712.0577 1463.3947 0.0000 0.0000 1826.5982 -7408.7678 310.0644 -9235.3660 -7513.1240 301.1916 114.9804 163.8907 30688.4095 -27.8459 43.4428
ENERGY: 1200000 2.2018 3.3819 3.0234 0.0000 -10596.9201 1365.1613 0.0000 0.0000 1779.3100 -7443.8417 302.0373 -9223.1517 -7518.6711 300.4578 -320.8988 -302.3103 30462.1645 -40.8252 24.9630
ENERGY: 1500000 4.2148 3.1490 6.4470 0.0000 -10726.4855 1438.4371 0.0000 0.0000 1781.2097 -7493.0280 302.3597 -9274.2377 -7514.8785 300.7984 -279.8167 -194.2479 31132.5249 -66.2505 0.2936
TCL: Running FEP window  15: Lambda1 0.7000000000000001 Lambda2 0.7500000000000001 [dLambda 0.050000000000000044]
TCL: Setting parameter firsttimestep to 0
TCL: Setting parameter alchLambda to 0.7000000000000001
Info: NONBONDED TABLE R-SQUARED SPACING: 0.0625
Info: NONBONDED TABLE SIZE: 705 POINTS
TCL: Setting parameter alchLambda2 to 0.7500000000000001
Info: NONBONDED TABLE R-SQUARED SPACING: 0.0625
Info: NONBONDED TABLE SIZE: 705 POINTS
TCL: Running for 1500000 steps
ETITLE: TS BOND ANGLE DIHED IMPRP ELECT VDW BOUNDARY MISC KINETIC TOTAL TEMP POTENTIAL TOTALAVG TEMPAVG PRESSURE GPRESSURE VOLUME PRESSAVG GPRESSAVG
ENERGY: 0 4.2148 3.1490 6.4470 0.0000 -10727.0555 1438.0457 0.0000 0.0000 1780.3251 -7494.8740 302.2096 -9275.1990 -7494.8740 302.2096 -276.6069 -193.1160 31132.5249 -276.6069 -193.1160
ENERGY: 300000 5.3676 4.9174 8.2800 0.0000 -10616.9727 1460.9702 0.0000 0.0000 1781.4800 -7355.9576 302.4056 -9137.4375 -7455.8257 303.1139 341.2626 445.1766 30362.6500 -521.5587 -426.0084
ENERGY: 600000 2.6693 4.7931 2.4700 0.0000 -10661.1859 1353.0627 0.0000 0.0000 1750.9068 -7547.2840 297.2158 -9298.1908 -7493.9401 299.3120 -861.3941 -751.4625 30696.4919 -392.1154 -312.7597
ENERGY: 900000 2.1161 2.3477 3.6417 0.0000 -10768.4809 1479.8315 0.0000 0.0000 1793.2303 -7487.3136 304.4002 -9280.5439 -7501.9690 301.0578 338.7412 396.0608 30364.1561 -290.8674 -217.1805
ENERGY: 1200000 3.3467 6.7666 4.5335 0.0000 -10781.5202 1472.6078 0.0000 0.0000 1702.5871 -7591.6787 289.0136 -9294.2657 -7513.5868 300.8319 -4.7909 53.5026 30668.7493 -237.6370 -172.6935
ENERGY: 1500000 3.2937 3.2074 3.4131 0.0000 -10734.2819 1417.0414 0.0000 0.0000 1794.5508 -7512.7755 304.6244 -9307.3263 -7517.8091 301.4314 -32.5705 -16.2590 30111.2638 -221.9346 -160.6184
TCL: Running FEP window  16: Lambda1 0.7500000000000001 Lambda2 0.8000000000000002 [dLambda 0.050000000000000044]
TCL: Setting parameter firsttimestep to 0
TCL: Setting parameter alchLambda to 0.7500000000000001
Info: NONBONDED TABLE R-SQUARED SPACING: 0.0625
Info: NONBONDED TABLE SIZE: 705 POINTS
TCL: Setting parameter alchLambda2 to 0.8000000000000002
Info: NONBONDED TABLE R-SQUARED SPACING: 0.0625
Info: NONBONDED TABLE SIZE: 705 POINTS
TCL: Running for 1500000 steps
ETITLE: TS BOND ANGLE DIHED IMPRP ELECT VDW BOUNDARY MISC KINETIC TOTAL TEMP POTENTIAL TOTALAVG TEMPAVG PRESSURE GPRESSURE VOLUME PRESSAVG GPRESSAVG
ENERGY: 0 3.2937 3.2074 3.4131 0.0000 -10735.6856 1418.0782 0.0000 0.0000 1793.7006 -7513.9926 304.4801 -9307.6931 -7513.9926 304.4801 -58.6673 4.6471 30111.2638 -58.6673 4.6471
ENERGY: 300000 2.9116 1.7619 3.9268 0.0000 -10699.0974 1511.5947 0.0000 0.0000 1832.6658 -7346.2365 311.0944 -9178.9024 -7457.7119 306.5914 749.5792 783.8037 30787.0384 252.6697 317.0336
ENERGY: 600000 4.4901 2.7874 4.0632 0.0000 -10837.1340 1566.6683 0.0000 0.0000 1794.9291 -7464.1960 304.6886 -9259.1251 -7468.6688 304.1091 899.9582 936.4878 30912.0463 290.3464 344.7307
ENERGY: 900000 2.7208 3.9394 3.1792 0.0000 -10749.2761 1383.0591 0.0000 0.0000 1762.2179 -7594.1597 299.1359 -9356.3776 -7483.4434 303.3460 -473.0824 -476.3293 30529.0049 185.8963 228.4979
ENERGY: 1200000 1.3468 2.4570 3.3015 0.0000 -10659.0336 1348.5641 0.0000 0.0000 1771.9933 -7531.3708 300.7953 -9303.3641 -7489.8701 302.8334 -898.6721 -810.6782 30690.4075 14.9711 73.9166
ENERGY: 1500000 6.0605 2.0905 3.1130 0.0000 -10683.7285 1368.7849 0.0000 0.0000 1772.0692 -7531.6103 300.8082 -9303.6795 -7493.1412 303.3432 -540.6585 -484.9505 30532.8498 -83.2758 -28.1294
TCL: Running FEP window  17: Lambda1 0.8000000000000002 Lambda2 0.8500000000000002 [dLambda 0.050000000000000044]
TCL: Setting parameter firsttimestep to 0
TCL: Setting parameter alchLambda to 0.8000000000000002
Info: NONBONDED TABLE R-SQUARED SPACING: 0.0625
Info: NONBONDED TABLE SIZE: 705 POINTS
TCL: Setting parameter alchLambda2 to 0.8500000000000002
Info: NONBONDED TABLE R-SQUARED SPACING: 0.0625
Info: NONBONDED TABLE SIZE: 705 POINTS
TCL: Running for 1500000 steps
ETITLE: TS BOND ANGLE DIHED IMPRP ELECT VDW BOUNDARY MISC KINETIC TOTAL TEMP POTENTIAL TOTALAVG TEMPAVG PRESSURE GPRESSURE VOLUME PRESSAVG GPRESSAVG
ENERGY: 0 6.0605 2.0905 3.1130 0.0000 -10684.6148 1368.9317 0.0000 0.0000 1771.1910 -7533.2281 300.6591 -9304.4190 -7533.2281 300.6591 -562.0239 -476.4182 30532.8498 -562.0239 -476.4182
ENERGY: 300000 0.9109 1.9380 3.1740 0.0000 -10775.1450 1438.6873 0.0000 0.0000 1720.0899 -7610.3449 291.9847 -9330.4348 -7548.0775 299.1446 -50.0703 6.1508 30349.9898 -204.1497 -122.8989
ENERGY: 600000 3.2165 6.7394 4.2866 0.0000 -10693.2539 1400.3919 0.0000 0.0000 1818.2112 -7460.4083 308.6408 -9278.6195 -7519.3478 301.7907 73.1499 102.9718 30180.8428 -41.2545 21.8147
ENERGY: 900000 0.7327 2.6657 4.5182 0.0000 -10774.0899 1468.4455 0.0000 0.0000 1762.5963 -7535.1315 299.2001 -9297.7278 -7520.2402 301.3529 274.8692 317.9210 30249.7924 -89.8704 -28.7709
ENERGY: 1200000 2.6878 1.8316 2.8151 0.0000 -10713.6089 1448.5198 0.0000 0.0000 1736.8686 -7520.8860 294.8329 -9257.7546 -7518.0056 301.2633 -56.3195 -19.8725 30833.0382 -150.4087 -79.0432
ENERGY: 1500000 2.2709 2.1538 2.7739 0.0000 -10783.2123 1402.0024 0.0000 0.0000 1822.9311 -7551.0803 309.4419 -9374.0115 -7521.1355 301.1562 -274.9590 -246.2224 30285.1631 -161.1685 -97.5062
TCL: Running FEP window  18: Lambda1 0.8500000000000002 Lambda2 0.9000000000000002 [dLambda 0.050000000000000044]
TCL: Setting parameter firsttimestep to 0
TCL: Setting parameter alchLambda to 0.8500000000000002
Info: NONBONDED TABLE R-SQUARED SPACING: 0.0625
Info: NONBONDED TABLE SIZE: 705 POINTS
TCL: Setting parameter alchLambda2 to 0.9000000000000002
Info: NONBONDED TABLE R-SQUARED SPACING: 0.0625
Info: NONBONDED TABLE SIZE: 705 POINTS
TCL: Running for 1500000 steps
ETITLE: TS BOND ANGLE DIHED IMPRP ELECT VDW BOUNDARY MISC KINETIC TOTAL TEMP POTENTIAL TOTALAVG TEMPAVG PRESSURE GPRESSURE VOLUME PRESSAVG GPRESSAVG
ENERGY: 0 2.2709 2.1538 2.7739 0.0000 -10785.8123 1402.6050 0.0000 0.0000 1822.0493 -7553.9596 309.2923 -9376.0088 -7553.9596 309.2923 -320.1189 -234.0388 30285.1631 -320.1189 -234.0388
ENERGY: 300000 4.3318 3.1120 2.8898 0.0000 -10818.7025 1447.6478 0.0000 0.0000 1716.0276 -7644.6935 291.2951 -9360.7211 -7563.6381 299.3848 -133.5027 -102.5916 30157.9975 -123.0737 -53.8805
ENERGY: 600000 2.8366 6.1164 4.3589 0.0000 -10630.2601 1362.8800 0.0000 0.0000 1784.4543 -7469.6139 302.9105 -9254.0682 -7552.1123 299.3374 -497.2111 -469.4286 30532.6244 -121.2045 -54.7708
ENERGY: 900000 3.8744 3.2530 1.7515 0.0000 -10755.2953 1389.8753 0.0000 0.0000 1715.4625 -7641.0786 291.1992 -9356.5411 -7566.2172 298.0112 -721.2881 -621.2293 30655.2815 -287.8542 -220.2420
ENERGY: 1200000 4.7280 6.3280 4.5014 0.0000 -10691.0363 1421.4442 0.0000 0.0000 1803.2606 -7450.7741 306.1029 -9254.0347 -7552.5063 298.8067 162.8282 223.5225 30168.1832 -235.3976 -166.3628
ENERGY: 1500000 3.6469 5.9380 3.6418 0.0000 -10626.6885 1343.7566 0.0000 0.0000 1708.6341 -7561.0712 290.0401 -9269.7052 -7548.0746 299.0899 -372.5160 -393.2097 30310.0498 -213.2897 -149.5099
TCL: Running FEP window  19: Lambda1 0.9000000000000002 Lambda2 0.9500000000000003 [dLambda 0.050000000000000044]
TCL: Setting parameter firsttimestep to 0
TCL: Setting parameter alchLambda to 0.9000000000000002
Info: NONBONDED TABLE R-SQUARED SPACING: 0.0625
Info: NONBONDED TABLE SIZE: 705 POINTS
TCL: Setting parameter alchLambda2 to 0.9500000000000003
Info: NONBONDED TABLE R-SQUARED SPACING: 0.0625
Info: NONBONDED TABLE SIZE: 705 POINTS
TCL: Running for 1500000 steps
ETITLE: TS BOND ANGLE DIHED IMPRP ELECT VDW BOUNDARY MISC KINETIC TOTAL TEMP POTENTIAL TOTALAVG TEMPAVG PRESSURE GPRESSURE VOLUME PRESSAVG GPRESSAVG
ENERGY: 0 3.6469 5.9380 3.6418 0.0000 -10629.4758 1345.0320 0.0000 0.0000 1707.7580 -7563.4591 289.8914 -9271.2171 -7563.4591 289.8914 -454.4002 -374.8387 30310.0498 -454.4002 -374.8387
ENERGY: 300000 3.3717 1.6043 4.3679 0.0000 -10703.5027 1422.3694 0.0000 0.0000 1757.7791 -7514.0103 298.3824 -9271.7894 -7514.3200 297.6678 -134.0894 -78.6000 30408.3207 -82.7051 -9.5113
ENERGY: 600000 3.3268 3.2077 2.3348 0.0000 -10768.1740 1408.8161 0.0000 0.0000 1718.3511 -7632.1374 291.6895 -9350.4885 -7551.4896 295.6243 -588.0846 -515.1390 30355.9774 -151.2848 -81.9893
ENERGY: 900000 3.5060 6.0871 2.9351 0.0000 -10746.0468 1433.5037 0.0000 0.0000 1752.7850 -7547.2297 297.5347 -9300.0147 -7551.5714 295.7311 -160.4580 -57.5043 30248.9696 -121.6484 -39.1308
ENERGY: 1200000 1.6254 4.1410 3.3335 0.0000 -10792.4985 1456.1422 0.0000 0.0000 1805.6903 -7521.5660 306.5153 -9327.2563 -7552.0842 296.6243 88.4162 166.9952 30286.2559 -122.5528 -46.2422
ENERGY: 1500000 8.2624 5.2114 5.0317 0.0000 -10766.9827 1508.8325 0.0000 0.0000 1742.0594 -7497.5853 295.7140 -9239.6447 -7543.5721 297.3134 497.0855 588.2226 30884.7462 -115.3761 -33.2442
TCL: Running FEP window  20: Lambda1 0.9500000000000003 Lambda2 1.0    [dLambda 0.04999999999999971]
TCL: Setting parameter firsttimestep to 0
TCL: Setting parameter alchLambda to 0.9500000000000003
Info: NONBONDED TABLE R-SQUARED SPACING: 0.0625
Info: NONBONDED TABLE SIZE: 705 POINTS
TCL: Setting parameter alchLambda2 to 1.0
Info: NONBONDED TABLE R-SQUARED SPACING: 0.0625
Info: NONBONDED TABLE SIZE: 705 POINTS
TCL: Running for 1500000 steps
ETITLE: TS BOND ANGLE DIHED IMPRP ELECT VDW BOUNDARY MISC KINETIC TOTAL TEMP POTENTIAL TOTALAVG TEMPAVG PRESSURE GPRESSURE VOLUME PRESSAVG GPRESSAVG
ENERGY: 0 8.2624 5.2114 5.0317 0.0000 -10769.0879 1510.3954 0.0000 0.0000 1741.1810 -7499.0060 295.5649 -9240.1870 -7499.0060 295.5649 538.1970 614.5068 30884.7462 538.1970 614.5068
ENERGY: 300000 3.1383 4.8134 3.9045 0.0000 -10834.9989 1478.2745 0.0000 0.0000 1761.0742 -7583.7940 298.9418 -9344.8682 -7543.3035 299.0548 279.0107 363.7975 30192.9498 228.7415 297.7219
ENERGY: 600000 3.0230 2.5796 1.5125 0.0000 -10595.2799 1337.4271 0.0000 0.0000 1774.1567 -7476.5812 301.1625 -9250.7378 -7518.5462 300.0274 -695.7895 -606.7765 30849.2413 -75.2016 -3.9707
ENERGY: 900000 2.6599 3.7879 3.0010 0.0000 -10764.5565 1428.8291 0.0000 0.0000 1760.2922 -7565.9863 298.8090 -9326.2785 -7524.6969 299.4963 -614.7169 -525.7992 30780.3466 -95.5004 -24.9464
ENERGY: 1200000 4.4331 1.6291 2.7773 0.0000 -10693.8916 1415.1795 0.0000 0.0000 1726.6576 -7543.2150 293.0995 -9269.8726 -7525.7380 299.4630 -72.2514 -29.0927 30634.2306 -32.5039 35.5538
ENERGY: 1500000 2.0873 1.9263 1.3621 0.0000 -10787.1415 1408.7048 0.0000 0.0000 1758.1758 -7614.8853 298.4498 -9373.0611 -7525.7436 299.8018 -200.1980 -111.5808 30067.3838 -6.6410 59.0899
TCL: Exiting due to exit command.
