Info: SIMULATION PARAMETERS:
Info: TIMESTEP               2
Info: NUMBER OF STEPS        0
Info: STEPS PER CYCLE        10
Info: PERIODIC CELL BASIS 1  30.8927 0 0
Info: PERIODIC CELL BASIS 2  0 31.5712 0
Info: PERIODIC CELL BASIS 3  0 0 31.4521
Info: PERIODIC CELL CENTER   0 0 0
Info: WRAPPING WATERS AROUND PERIODIC BOUNDARIES ON OUTPUT.
Info: WRAPPING ALL CLUSTERS AROUND PERIODIC BOUNDARIES ON OUTPUT.
Info: FIRST LDB TIMESTEP     50
Info: LAST LDB TIMESTEP     -1
Info: HOM BACKGROUND SCALING 1
Info: PME BACKGROUND SCALING 1
Info: MIN ATOMS PER PATCH    40
Info: EMPTY PATCH LOAD       40 ATOMS
Info: VELOCITY FILE          mobley_1650157_equil.vel
Info: CENTER OF MASS MOVING INITIALLY? NO
Info: DIELECTRIC             1
Info: EXCLUDE                SCALED ONE-FOUR
Info: 1-4 ELECTROSTATICS SCALED BY 0.833333
Info: MODIFIED 1-4 VDW PARAMETERS WILL BE USED
Info: DCD FILENAME           mobley_1650157_prod.dcd
Info: DCD FREQUENCY          100000
Info: DCD FIRST STEP         100000
Info: DCD FILE WILL CONTAIN UNIT CELL DATA
Info: XST FILENAME           mobley_1650157_prod.xst
Info: XST FREQUENCY          100000
Info: NO VELOCITY DCD OUTPUT
Info: NO FORCE DCD OUTPUT
Info: OUTPUT FILENAME        mobley_1650157_prod
Info: BINARY OUTPUT FILES WILL BE USED
Info: RESTART FILENAME       mobley_1650157_prod.restart
Info: RESTART FREQUENCY      100000
Info: BINARY RESTART FILES WILL BE USED
Info: CUTOFF                 9
Info: PAIRLIST DISTANCE      11
Info: PAIRLIST SHRINK RATE   0.01
Info: PAIRLIST GROW RATE     0.01
Info: PAIRLIST TRIGGER       0.3
Info: PAIRLISTS PER CYCLE    2
Info: PAIRLISTS ENABLED
Info: MARGIN                 2
Info: HYDROGEN GROUP CUTOFF  2.5
Info: PATCH DIMENSION        15.5
Info: ENERGY OUTPUT STEPS    100000
Info: ENERGY EVALUATION STEPS    100000
Info: OUTPUT ENERGY PRECISION 4
Info: CROSSTERM ENERGY INCLUDED IN DIHEDRAL
Info: TIMING OUTPUT STEPS    1000000
Info: PRESSURE OUTPUT STEPS  100000
Info: ALCHEMICAL FEP ON
Info: FEP CURRENT LAMBDA VALUE     0
Info: FEP COMPARISON LAMBDA VALUE  0.05
Info: FEP INTRA-ALCHEMICAL NON-BONDED INTERACTIONS WILL BE RETAINED
Info: FEP INTRA-ALCHEMICAL BONDED INTERACTIONS WILL BE RETAINED
Info: FEP VDW SHIFTING COEFFICIENT 5
Info: FEP ELEC. ACTIVE FOR ANNIHILATED PARTICLES BETWEEN LAMBDA = 0 AND LAMBDA = 0.5
Info: FEP ELEC. ACTIVE FOR EXNIHILATED PARTICLES BETWEEN LAMBDA = 0.5 AND LAMBDA = 1
Info: FEP VDW ACTIVE FOR ANNIHILATED PARTICLES BETWEEN LAMBDA = 0 AND LAMBDA = 1
Info: FEP VDW ACTIVE FOR EXNIHILATED PARTICLES BETWEEN LAMBDA = 0 AND LAMBDA = 1
Info: FEP BOND ACTIVE FOR ANNIHILATED PARTICLES BETWEEN LAMBDA = 1 AND LAMBDA = 1
Info: FEP BOND ACTIVE FOR EXNIHILATED PARTICLES BETWEEN LAMBDA = 0 AND LAMBDA = 0
Info: LANGEVIN DYNAMICS ACTIVE
Info: LANGEVIN TEMPERATURE   300
Info: LANGEVIN USING BBK INTEGRATOR
Info: LANGEVIN DAMPING COEFFICIENT IS 1 INVERSE PS
Info: LANGEVIN DYNAMICS APPLIED TO HYDROGENS
Info: LANGEVIN PISTON PRESSURE CONTROL ACTIVE
Info:        TARGET PRESSURE IS 1.01325 BAR
Info:     OSCILLATION PERIOD IS 50 FS
Info:             DECAY TIME IS 25 FS
Info:     PISTON TEMPERATURE IS 300 K
Info:       PRESSURE CONTROL IS GROUP-BASED
Info:    INITIAL STRAIN RATE IS -0.000394474 -0.000394474 -0.000394474
Info:       CELL FLUCTUATION IS ISOTROPIC
Info: PARTICLE MESH EWALD (PME) ACTIVE
Info: PME TOLERANCE               1e-06
Info: PME EWALD COEFFICIENT       0.348832
Info: PME INTERPOLATION ORDER     4
Info: PME GRID DIMENSIONS         32 32 32
Info: PME MAXIMUM GRID SPACING    1
Info: PME CALCULATION WILL BE PERFORMED ON GPU
Info: FULL ELECTROSTATIC EVALUATION FREQUENCY      2
Info: USING VERLET I (r-RESPA) MTS SCHEME.
Info: C1 SPLITTING OF LONG RANGE ELECTROSTATICS
Info: PLACING ATOMS IN PATCHES BY HYDROGEN GROUPS
Info: RIGID BONDS TO HYDROGEN : ALL
Info:         ERROR TOLERANCE : 1e-08
Info:          MAX ITERATIONS : 100
Info: RIGID WATER USING SETTLE ALGORITHM
Info: RANDOM NUMBER SEED     1743570308
Info: USE HYDROGEN BONDS?    NO
Info: Using AMBER format force field!
Info: AMBER PARM FILE        mobley_1650157.prmtop
Info: COORDINATE PDB         mobley_1650157.pdb
Info: Exclusions will be read from PARM file!
Info: SCNB (VDW SCALING)     2
Info: USING ARITHMETIC MEAN TO COMBINE L-J SIGMA PARAMETERS
Info: BINARY COORDINATES     mobley_1650157_equil.coor
Info: SUMMARY OF PARAMETERS:
Info: 6 BONDS
Info: 5 ANGLES
Info:   5 HARMONIC
Info:   0 COSINE-BASED
Info: 3 DIHEDRAL
Info: 0 IMPROPER
Info: 0 CROSSTERM
Info: 0 VDW
Info: 15 VDW_PAIRS
Info: 0 NBTHOLE_PAIRS
Info: To read alchdata from file: mobley_1650157.pdb
Info: To read alchflag data from column: 5
Info: STRUCTURE SUMMARY:
Info: 2970 ATOMS
Info: 2969 BONDS
Info: 25 ANGLES
Info: 42 DIHEDRALS
Info: 0 IMPROPERS
Info: 0 CROSSTERMS
Info: 3024 EXCLUSIONS
Info: 2965 RIGID BONDS
Info: ALCH: 0 ATOMS TO DISAPPEAR IN FINAL STATE
Info: ALCH: 15 ATOMS TO APPEAR IN FINAL STATE
Info: 5945 DEGREES OF FREEDOM
Info: 990 HYDROGEN GROUPS
Info: 4 ATOMS IN LARGEST HYDROGEN GROUP
Info: 990 MIGRATION GROUPS
Info: 4 ATOMS IN LARGEST MIGRATION GROUP
Info: TOTAL MASS = 17819.9 amu
Info: TOTAL CHARGE = 0.000100017 e
Info: MASS DENSITY = 0.964645 g/cm^3
Info: ATOM DENSITY = 0.0968189 atoms/A^3
Info: ADDED 0 IMPLICIT EXCLUSIONS
Info: NONBONDED TABLE R-SQUARED SPACING: 0.0625
Info: NONBONDED TABLE SIZE: 705 POINTS
Info: REMOVING COM VELOCITY -0.0337908 0.0279377 -0.114636
Info: Use 3D box decompostion in PME FFT.
Info: Updated CUDA force table with 4096 elements.
Info: Updated CUDA LJ table with 5 x 5 elements.
Info: Found 18 unique exclusion lists needing 40 bytes
TCL: Running for 1500000 steps
ETITLE: TS BOND ANGLE DIHED IMPRP ELECT VDW BOUNDARY MISC KINETIC TOTAL TEMP POTENTIAL TOTALAVG TEMPAVG PRESSURE GPRESSURE VOLUME PRESSAVG GPRESSAVG
ENERGY: 0 1.1873 5.2509 4.3583 0.0000 -10801.2790 1435.1677 0.0000 0.0000 1809.1402 -7546.1746 306.2744 -9355.3148 -7546.1746 306.2744 -255.9393 -167.8732 30675.8428 -255.9393 -167.8732
ENERGY: 300000 3.4927 5.4614 3.5738 0.0000 -10799.6017 1452.9058 0.0000 0.0000 1839.0758 -7495.0922 311.3423 -9334.1680 -7560.6140 300.8777 75.8338 139.3864 30100.8391 -361.2621 -290.4912
ENERGY: 600000 1.0173 6.0994 3.5374 0.0000 -10847.2811 1511.4063 0.0000 0.0000 1738.9768 -7586.2438 294.3963 -9325.2206 -7566.3784 299.2205 508.8655 578.2175 30144.8177 -246.6007 -185.2723
ENERGY: 900000 0.8479 6.2686 3.9154 0.0000 -10736.5207 1408.1842 0.0000 0.0000 1838.8246 -7478.4800 311.2998 -9317.3046 -7551.2030 301.5273 -44.4279 -21.2977 30192.1557 -167.0886 -104.6537
ENERGY: 1200000 1.3616 6.4546 3.3670 0.0000 -10985.3429 1528.9891 0.0000 0.0000 1837.4765 -7607.6942 311.0716 -9445.1707 -7548.0953 302.6335 245.2571 300.3298 30430.0236 -138.9094 -78.1703
ENERGY: 1500000 0.7014 7.8624 3.3322 0.0000 -10808.3659 1437.4969 0.0000 0.0000 1791.6886 -7567.2844 303.3200 -9358.9729 -7552.1079 302.2051 -23.2676 13.0554 30195.0493 -79.8615 -21.5883
TCL: Running FEP window   2: Lambda1 0.05   Lambda2 0.1    [dLambda 0.05  ]
TCL: Setting parameter firsttimestep to 0
TCL: Setting parameter alchLambda to 0.05
Info: NONBONDED TABLE R-SQUARED SPACING: 0.0625
Info: NONBONDED TABLE SIZE: 705 POINTS
TCL: Setting parameter alchLambda2 to 0.1
Info: NONBONDED TABLE R-SQUARED SPACING: 0.0625
Info: NONBONDED TABLE SIZE: 705 POINTS
TCL: Running for 1500000 steps
ETITLE: TS BOND ANGLE DIHED IMPRP ELECT VDW BOUNDARY MISC KINETIC TOTAL TEMP POTENTIAL TOTALAVG TEMPAVG PRESSURE GPRESSURE VOLUME PRESSAVG GPRESSAVG
ENERGY: 0 0.7014 7.8624 3.3322 0.0000 -10808.3662 1437.5160 0.0000 0.0000 1790.8318 -7568.1224 303.1750 -9358.9542 -7568.1224 303.1750 -51.4943 14.1782 30195.0493 -51.4943 14.1782
ENERGY: 300000 1.5392 9.1762 4.0991 0.0000 -10752.3799 1435.3293 0.0000 0.0000 1738.8044 -7563.4318 294.3671 -9302.2362 -7552.7038 301.7006 -23.6743 67.0134 30216.0950 -58.9269 24.6215
ENERGY: 600000 1.9360 6.9663 3.2841 0.0000 -10784.8972 1459.0352 0.0000 0.0000 1734.8296 -7578.8462 293.6942 -9313.6757 -7551.5841 301.2134 102.7459 134.7101 30132.4306 63.8508 133.7107
ENERGY: 900000 1.0684 6.9616 3.1234 0.0000 -10726.3357 1387.6831 0.0000 0.0000 1784.5931 -7542.9060 302.1188 -9327.4991 -7545.1460 300.9325 -307.7921 -226.5986 30164.5739 52.0209 110.2722
ENERGY: 1200000 1.3339 5.9035 3.1515 0.0000 -10657.9973 1457.7157 0.0000 0.0000 1867.9745 -7321.9183 316.2347 -9189.8928 -7519.0661 302.6087 251.4074 338.0817 30766.6960 -31.7012 35.9921
ENERGY: 1500000 1.1834 12.1086 5.1758 0.0000 -10791.9744 1429.4841 0.0000 0.0000 1783.0724 -7560.9501 301.8613 -9344.0225 -7520.9089 302.8087 -382.0437 -265.7169 30399.7073 -0.9496 73.1239
TCL: Running FEP window   3: Lambda1 0.1    Lambda2 0.15000000000000002 [dLambda 0.05000000000000002]
TCL: Setting parameter firsttimestep to 0
TCL: Setting parameter alchLambda to 0.1
Info: NONBONDED TABLE R-SQUARED SPACING: 0.0625
Info: NONBONDED TABLE SIZE: 705 POINTS
TCL: Setting parameter alchLambda2 to 0.15000000000000002
Info: NONBONDED TABLE R-SQUARED SPACING: 0.0625
Info: NONBONDED TABLE SIZE: 705 POINTS
TCL: Running for 1500000 steps
ETITLE: TS BOND ANGLE DIHED IMPRP ELECT VDW BOUNDARY MISC KINETIC TOTAL TEMP POTENTIAL TOTALAVG TEMPAVG PRESSURE GPRESSURE VOLUME PRESSAVG GPRESSAVG
ENERGY: 0 1.1834 12.1086 5.1758 0.0000 -10791.9766 1429.4160 0.0000 0.0000 1782.2133 -7561.8795 301.7159 -9344.0928 -7561.8795 301.7159 -372.0431 -265.8799 30399.7073 -372.0431 -265.8799
ENERGY: 300000 0.4725 8.0591 3.4603 0.0000 -10733.8099 1454.0508 0.0000 0.0000 1763.4233 -7504.3438 298.5349 -9267.7671 -7515.8794 301.1797 -48.4955 -33.1685 31082.2912 319.0763 387.7737
ENERGY: 600000 2.3057 6.6663 3.4587 0.0000 -10827.3347 1485.2320 0.0000 0.0000 1700.3864 -7629.2856 287.8632 -9329.6720 -7543.9727 298.3920 279.5223 358.1077 30105.4962 57.4855 133.1026
ENERGY: 900000 3.3391 6.3363 3.1692 0.0000 -10664.2577 1319.2803 0.0000 0.0000 1841.4599 -7490.6730 311.7459 -9332.1329 -7533.0617 299.7507 -851.5366 -738.1882 30016.9170 -34.7085 38.6907
ENERGY: 1200000 0.4278 4.9104 4.4050 0.0000 -10804.5934 1469.4820 0.0000 0.0000 1760.4572 -7564.9110 298.0327 -9325.3682 -7542.2690 299.7687 139.1453 175.7718 30303.3321 -3.4318 61.5187
ENERGY: 1500000 0.8700 7.9001 4.1435 0.0000 -10756.5393 1440.3797 0.0000 0.0000 1755.2933 -7547.9527 297.1585 -9303.2460 -7546.0379 299.1045 -232.2262 -139.6871 30535.2356 -9.4190 60.4545
TCL: Running FEP window   4: Lambda1 0.15000000000000002 Lambda2 0.2    [dLambda 0.04999999999999999]
TCL: Setting parameter firsttimestep to 0
TCL: Setting parameter alchLambda to 0.15000000000000002
Info: NONBONDED TABLE R-SQUARED SPACING: 0.0625
Info: NONBONDED TABLE SIZE: 705 POINTS
TCL: Setting parameter alchLambda2 to 0.2
Info: NONBONDED TABLE R-SQUARED SPACING: 0.0625
Info: NONBONDED TABLE SIZE: 705 POINTS
TCL: Running for 1500000 steps
ETITLE: TS BOND ANGLE DIHED IMPRP ELECT VDW BOUNDARY MISC KINETIC TOTAL TEMP POTENTIAL TOTALAVG TEMPAVG PRESSURE GPRESSURE VOLUME PRESSAVG GPRESSAVG
ENERGY: 0 0.8700 7.9001 4.1435 0.0000 -10756.5397 1442.1386 0.0000 0.0000 1754.3966 -7547.0910 297.0067 -9301.4876 -7547.0910 297.0067 -216.8161 -130.5486 30535.2356 -216.8161 -130.5486
ENERGY: 300000 0.7980 6.9737 4.1639 0.0000 -10916.6935 1542.4779 0.0000 0.0000 1759.4863 -7602.7936 297.8684 -9362.2800 -7529.8315 302.5785 974.7954 1075.3880 29815.6217 34.2443 110.8220
ENERGY: 600000 1.7641 5.4357 3.7419 0.0000 -10774.8432 1417.8909 0.0000 0.0000 1790.1283 -7555.8822 303.0559 -9346.0105 -7514.7071 302.4405 -371.4015 -316.9584 30812.1858 -107.6235 -46.3285
ENERGY: 900000 0.4272 3.3753 3.3416 0.0000 -10932.7614 1549.2443 0.0000 0.0000 1710.1974 -7666.1757 289.5241 -9376.3730 -7529.3683 301.0405 694.8304 710.3289 30158.7351 -96.6457 -40.8154
ENERGY: 1200000 0.9685 7.0483 3.5710 0.0000 -10715.0747 1418.1743 0.0000 0.0000 1747.6864 -7537.6262 295.8707 -9285.3125 -7533.7243 300.4650 -173.4770 -97.1638 30543.3911 -163.9314 -106.6510
ENERGY: 1500000 1.1480 5.4158 3.8313 0.0000 -10808.9669 1464.7282 0.0000 0.0000 1763.6670 -7570.1766 298.5761 -9333.8435 -7532.7145 301.0596 75.6257 122.5361 30455.8041 -136.4602 -76.5310
TCL: Running FEP window   5: Lambda1 0.2    Lambda2 0.25   [dLambda 0.04999999999999999]
TCL: Setting parameter firsttimestep to 0
TCL: Setting parameter alchLambda to 0.2
Info: NONBONDED TABLE R-SQUARED SPACING: 0.0625
Info: NONBONDED TABLE SIZE: 705 POINTS
TCL: Setting parameter alchLambda2 to 0.25
Info: NONBONDED TABLE R-SQUARED SPACING: 0.0625
Info: NONBONDED TABLE SIZE: 705 POINTS
TCL: Running for 1500000 steps
ETITLE: TS BOND ANGLE DIHED IMPRP ELECT VDW BOUNDARY MISC KINETIC TOTAL TEMP POTENTIAL TOTALAVG TEMPAVG PRESSURE GPRESSURE VOLUME PRESSAVG GPRESSAVG
ENERGY: 0 1.1480 5.4158 3.8313 0.0000 -10808.9682 1467.0116 0.0000 0.0000 1762.7882 -7568.7732 298.4274 -9331.5615 -7568.7732 298.4274 48.1949 135.6831 30455.8041 48.1949 135.6831
ENERGY: 300000 0.9685 4.1683 3.2483 0.0000 -10783.5082 1480.1800 0.0000 0.0000 1749.3677 -7545.5753 296.1554 -9294.9429 -7539.6645 300.9331 298.2593 361.1386 30329.8061 30.9773 63.5884
ENERGY: 600000 1.8921 4.1705 4.0368 0.0000 -10687.7384 1392.2109 0.0000 0.0000 1780.9648 -7504.4633 301.5045 -9285.4281 -7530.0548 300.5502 -321.4437 -237.3913 30331.9925 -69.7561 -23.5960
ENERGY: 900000 0.9210 9.2476 3.6070 0.0000 -10713.2922 1448.4950 0.0000 0.0000 1798.6934 -7452.3283 304.5059 -9251.0216 -7513.6602 301.0604 226.9955 323.4670 30406.0636 -47.5853 9.3266
ENERGY: 1200000 0.5577 8.1198 3.2513 0.0000 -10752.7700 1463.6938 0.0000 0.0000 1789.7139 -7487.4334 302.9857 -9277.1473 -7516.0913 301.0184 163.8461 210.2953 30704.5674 -141.9940 -83.1492
ENERGY: 1500000 0.8206 7.3761 4.3774 0.0000 -10853.6965 1489.2451 0.0000 0.0000 1789.1751 -7562.7021 302.8945 -9351.8772 -7522.0354 300.9116 155.2984 217.7615 30262.7932 -84.3031 -23.6252
TCL: Running FEP window   6: Lambda1 0.25   Lambda2 0.3    [dLambda 0.04999999999999999]
TCL: Setting parameter firsttimestep to 0
TCL: Setting parameter alchLambda to 0.25
Info: NONBONDED TABLE R-SQUARED SPACING: 0.0625
Info: NONBONDED TABLE SIZE: 705 POINTS
TCL: Setting parameter alchLambda2 to 0.3
Info: NONBONDED TABLE R-SQUARED SPACING: 0.0625
Info: NONBONDED TABLE SIZE: 705 POINTS
TCL: Running for 1500000 steps
ETITLE: TS BOND ANGLE DIHED IMPRP ELECT VDW BOUNDARY MISC KINETIC TOTAL TEMP POTENTIAL TOTALAVG TEMPAVG PRESSURE GPRESSURE VOLUME PRESSAVG GPRESSAVG
ENERGY: 0 0.8206 7.3761 4.3774 0.0000 -10853.6973 1491.7776 0.0000 0.0000 1788.2977 -7561.0479 302.7459 -9349.3455 -7561.0479 302.7459 141.7046 229.3983 30262.7932 141.7046 229.3983
ENERGY: 300000 0.8363 9.1388 3.7257 0.0000 -10764.8653 1406.9589 0.0000 0.0000 1738.4941 -7605.7115 294.3146 -9344.2056 -7595.4621 296.0391 -188.5067 -164.4075 29839.9383 184.1510 224.0380
ENERGY: 600000 1.1223 7.5742 3.7755 0.0000 -10698.6699 1392.4380 0.0000 0.0000 1795.7486 -7498.0113 304.0073 -9293.7599 -7574.8607 296.8967 -661.9639 -600.4814 31010.0755 -50.3444 0.9488
ENERGY: 900000 2.7797 7.8325 3.4667 0.0000 -10799.9079 1457.4877 0.0000 0.0000 1805.3004 -7523.0409 305.6244 -9328.3413 -7560.5818 299.1585 32.4115 90.9869 30330.5007 40.7487 97.5874
ENERGY: 1200000 1.3153 8.5527 4.1351 0.0000 -10689.0699 1299.1174 0.0000 0.0000 1739.3445 -7636.6050 294.4585 -9375.9495 -7554.8100 299.6769 -1594.5527 -1490.3895 30725.9421 -35.6041 22.5028
ENERGY: 1500000 1.1897 6.9769 4.0267 0.0000 -10837.9539 1476.1612 0.0000 0.0000 1747.8882 -7601.7111 295.9049 -9349.5993 -7558.6329 299.0086 69.7422 162.6668 30439.3668 -79.3492 -21.5090
TCL: Running FEP window   7: Lambda1 0.3    Lambda2 0.35   [dLambda 0.04999999999999999]
TCL: Setting parameter firsttimestep to 0
TCL: Setting parameter alchLambda to 0.3
Info: NONBONDED TABLE R-SQUARED SPACING: 0.0625
Info: NONBONDED TABLE SIZE: 705 POINTS
TCL: Setting parameter alchLambda2 to 0.35
Info: NONBONDED TABLE R-SQUARED SPACING: 0.0625
Info: NONBONDED TABLE SIZE: 705 POINTS
TCL: Running for 1500000 steps
ETITLE: TS BOND ANGLE DIHED IMPRP ELECT VDW BOUNDARY MISC KINETIC TOTAL TEMP POTENTIAL TOTALAVG TEMPAVG PRESSURE GPRESSURE VOLUME PRESSAVG GPRESSAVG
ENERGY: 0 1.1897 6.9769 4.0267 0.0000 -10837.9536 1476.7215 0.0000 0.0000 1746.9867 -7602.0522 295.7523 -9349.0388 -7602.0522 295.7523 84.1272 166.9573 30439.3668 84.1272 166.9573
ENERGY: 300000 1.6045 6.0682 4.3173 0.0000 -10787.2866 1459.0809 0.0000 0.0000 1820.3692 -7495.8465 308.1754 -9316.2157 -7551.2374 300.5090 80.2211 94.9656 30628.8562 -72.5987 -31.1408
ENERGY: 600000 0.6002 9.0397 3.3909 0.0000 -10649.9723 1388.3931 0.0000 0.0000 1739.3771 -7509.1713 294.4641 -9248.5485 -7553.7744 298.8294 -643.1672 -559.8139 30771.5955 20.2485 55.6201
ENERGY: 900000 1.3223 6.9965 3.4553 0.0000 -10784.5170 1450.1309 0.0000 0.0000 1772.0604 -7550.5515 299.9971 -9322.6120 -7544.9706 299.2775 12.8326 75.4109 30480.4146 64.2135 97.3529
ENERGY: 1200000 0.7082 6.8400 3.4515 0.0000 -10675.0813 1414.6086 0.0000 0.0000 1823.7944 -7425.6787 308.7553 -9249.4731 -7533.3336 300.4611 -21.9125 12.9444 30717.8932 -7.0420 24.2417
ENERGY: 1500000 2.1509 6.6519 3.3889 0.0000 -10763.6976 1449.4965 0.0000 0.0000 1771.5769 -7530.4325 299.9152 -9302.0094 -7531.7078 300.5350 -64.2800 19.7761 30674.0153 -46.4969 -4.3139
TCL: Running FEP window   8: Lambda1 0.35   Lambda2 0.39999999999999997 [dLambda 0.04999999999999999]
TCL: Setting parameter firsttimestep to 0
TCL: Setting parameter alchLambda to 0.35
Info: NONBONDED TABLE R-SQUARED SPACING: 0.0625
Info: NONBONDED TABLE SIZE: 705 POINTS
TCL: Setting parameter alchLambda2 to 0.39999999999999997
Info: NONBONDED TABLE R-SQUARED SPACING: 0.0625
Info: NONBONDED TABLE SIZE: 705 POINTS
TCL: Running for 1500000 steps
ETITLE: TS BOND ANGLE DIHED IMPRP ELECT VDW BOUNDARY MISC KINETIC TOTAL TEMP POTENTIAL TOTALAVG TEMPAVG PRESSURE GPRESSURE VOLUME PRESSAVG GPRESSAVG
ENERGY: 0 2.1509 6.6519 3.3889 0.0000 -10763.6978 1449.5617 0.0000 0.0000 1770.6657 -7531.2787 299.7610 -9301.9444 -7531.2787 299.7610 -77.9283 23.8096 30674.0153 -77.9283 23.8096
ENERGY: 300000 2.2144 3.7149 4.3140 0.0000 -10746.5855 1419.3259 0.0000 0.0000 1800.1159 -7516.9003 304.7467 -9317.0162 -7546.2296 300.9622 -279.8717 -193.6657 30532.2428 15.9905 129.6084
ENERGY: 600000 1.2107 4.8204 3.8409 0.0000 -10738.5801 1438.5252 0.0000 0.0000 1740.9190 -7549.2639 294.7251 -9290.1829 -7583.7833 297.8410 38.8372 68.7203 30636.9970 -48.0319 32.8846
ENERGY: 900000 1.1811 9.0772 4.5390 0.0000 -10745.0155 1449.3064 0.0000 0.0000 1764.0563 -7516.8555 298.6421 -9280.9118 -7563.2182 298.6835 98.0091 188.9543 30674.0778 -53.6597 35.0012
ENERGY: 1200000 0.9286 6.8087 3.7357 0.0000 -10753.7291 1385.1708 0.0000 0.0000 1767.6634 -7589.4219 299.2527 -9357.0852 -7570.8182 298.9527 -568.1044 -438.6377 30350.1344 -158.5615 -76.3625
ENERGY: 1500000 0.1986 5.4455 3.6629 0.0000 -10774.8185 1400.5297 0.0000 0.0000 1713.0317 -7651.9501 290.0040 -9364.9818 -7585.8500 298.5182 -584.1766 -567.2551 30554.3677 -199.1477 -123.2778
TCL: Running FEP window   9: Lambda1 0.39999999999999997 Lambda2 0.44999999999999996 [dLambda 0.04999999999999999]
TCL: Setting parameter firsttimestep to 0
TCL: Setting parameter alchLambda to 0.39999999999999997
Info: NONBONDED TABLE R-SQUARED SPACING: 0.0625
Info: NONBONDED TABLE SIZE: 705 POINTS
TCL: Setting parameter alchLambda2 to 0.44999999999999996
Info: NONBONDED TABLE R-SQUARED SPACING: 0.0625
Info: NONBONDED TABLE SIZE: 705 POINTS
TCL: Running for 1500000 steps
ETITLE: TS BOND ANGLE DIHED IMPRP ELECT VDW BOUNDARY MISC KINETIC TOTAL TEMP POTENTIAL TOTALAVG TEMPAVG PRESSURE GPRESSURE VOLUME PRESSAVG GPRESSAVG
ENERGY: 0 0.1986 5.4455 3.6629 0.0000 -10774.8193 1400.7601 0.0000 0.0000 1712.1503 -7652.6019 289.8547 -9364.7522 -7652.6019 289.8547 -638.0700 -560.6864 30554.3677 -638.0700 -560.6864
ENERGY: 300000 4.1178 8.0474 4.3171 0.0000 -10840.6089 1472.8609 0.0000 0.0000 1792.1187 -7559.1469 303.3928 -9351.2656 -7590.7345 294.2522 72.6534 180.9947 30038.5940 -322.6158 -235.1572
ENERGY: 600000 1.2929 6.2593 3.8996 0.0000 -10728.8996 1396.0188 0.0000 0.0000 1786.4119 -7535.0171 302.4267 -9321.4290 -7573.5160 296.2384 -206.0779 -114.7244 30208.8885 -62.1917 18.4421
ENERGY: 900000 1.7755 4.4316 3.7390 0.0000 -10622.9612 1321.3386 0.0000 0.0000 1748.2362 -7543.4404 295.9638 -9291.6766 -7568.9175 297.2654 -1166.8553 -1114.1736 31063.5076 -152.1568 -74.5745
ENERGY: 1200000 0.4494 7.6422 6.1534 0.0000 -10908.8143 1553.9246 0.0000 0.0000 1788.3224 -7552.3223 302.7501 -9340.6447 -7561.6233 298.4204 890.4084 1020.8896 30110.5917 -65.4484 9.4811
ENERGY: 1500000 1.8625 6.2769 3.5559 0.0000 -10713.5614 1416.0801 0.0000 0.0000 1780.7939 -7504.9922 301.4756 -9285.7860 -7553.7963 298.7114 -222.4989 -183.4879 30573.4165 -69.6325 3.1130
TCL: Running FEP window  10: Lambda1 0.44999999999999996 Lambda2 0.49999999999999994 [dLambda 0.04999999999999999]
TCL: Setting parameter firsttimestep to 0
TCL: Setting parameter alchLambda to 0.44999999999999996
Info: NONBONDED TABLE R-SQUARED SPACING: 0.0625
Info: NONBONDED TABLE SIZE: 705 POINTS
TCL: Setting parameter alchLambda2 to 0.49999999999999994
Info: NONBONDED TABLE R-SQUARED SPACING: 0.0625
Info: NONBONDED TABLE SIZE: 705 POINTS
TCL: Running for 1500000 steps
ETITLE: TS BOND ANGLE DIHED IMPRP ELECT VDW BOUNDARY MISC KINETIC TOTAL TEMP POTENTIAL TOTALAVG TEMPAVG PRESSURE GPRESSURE VOLUME PRESSAVG GPRESSAVG
ENERGY: 0 1.8625 6.2769 3.5559 0.0000 -10713.5613 1416.2731 0.0000 0.0000 1779.9037 -7505.6892 301.3249 -9285.5930 -7505.6892 301.3249 -253.7914 -176.9693 30573.4165 -253.7914 -176.9693
ENERGY: 300000 0.9759 7.5201 6.4650 0.0000 -10708.9948 1441.3535 0.0000 0.0000 1834.7576 -7417.9227 310.6113 -9252.6803 -7477.3028 307.6527 73.7776 199.2478 30578.9093 -67.6644 13.2681
ENERGY: 600000 1.1521 4.7110 4.3617 0.0000 -10824.7235 1441.4916 0.0000 0.0000 1784.5604 -7588.4468 302.1132 -9373.0071 -7522.0774 303.5418 -464.5066 -371.8963 30634.1643 -331.5492 -246.8741
ENERGY: 900000 2.3341 5.4061 3.8373 0.0000 -10776.0263 1430.6131 0.0000 0.0000 1800.1112 -7533.7244 304.7459 -9333.8357 -7527.5610 303.0397 -197.6949 -63.7562 30229.4064 -319.6093 -238.7997
ENERGY: 1200000 2.9172 6.5788 3.9335 0.0000 -10654.4984 1345.6488 0.0000 0.0000 1730.1395 -7565.2805 292.9002 -9295.4200 -7539.4720 301.0685 -941.1030 -837.5109 30574.8121 -294.9186 -217.1788
ENERGY: 1500000 1.6936 5.4023 5.4229 0.0000 -10935.6060 1553.8299 0.0000 0.0000 1787.3240 -7581.9334 302.5811 -9369.2574 -7544.0715 300.9133 778.5933 784.5326 30210.4152 -173.2601 -107.0311
TCL: Running FEP window  11: Lambda1 0.49999999999999994 Lambda2 0.5499999999999999 [dLambda 0.04999999999999999]
TCL: Setting parameter firsttimestep to 0
TCL: Setting parameter alchLambda to 0.49999999999999994
Info: NONBONDED TABLE R-SQUARED SPACING: 0.0625
Info: NONBONDED TABLE SIZE: 705 POINTS
TCL: Setting parameter alchLambda2 to 0.5499999999999999
Info: NONBONDED TABLE R-SQUARED SPACING: 0.0625
Info: NONBONDED TABLE SIZE: 705 POINTS
TCL: Running for 1500000 steps
ETITLE: TS BOND ANGLE DIHED IMPRP ELECT VDW BOUNDARY MISC KINETIC TOTAL TEMP POTENTIAL TOTALAVG TEMPAVG PRESSURE GPRESSURE VOLUME PRESSAVG GPRESSAVG
ENERGY: 0 1.6936 5.4023 5.4229 0.0000 -10935.6069 1553.3217 0.0000 0.0000 1786.4510 -7583.3154 302.4333 -9369.7664 -7583.3154 302.4333 706.7483 785.9717 30210.4152 706.7483 785.9717
ENERGY: 300000 0.8338 7.9333 3.3906 0.0000 -10902.4684 1482.6044 0.0000 0.0000 1752.9890 -7654.7173 296.7684 -9407.7063 -7550.7622 300.1034 157.9317 169.0171 30355.2457 57.1093 131.9643
ENERGY: 600000 0.9436 4.6915 3.5495 0.0000 -10809.4938 1457.5249 0.0000 0.0000 1779.9905 -7562.7938 301.3396 -9342.7842 -7542.7152 301.2824 -112.8937 -41.9301 30676.6412 90.5312 163.2321
ENERGY: 900000 3.0775 5.3452 3.6316 0.0000 -10840.8997 1445.6507 0.0000 0.0000 1800.8447 -7582.3500 304.8701 -9383.1948 -7538.4467 301.8982 -123.9058 -39.1900 30099.9946 -137.3947 -63.8800
ENERGY: 1200000 1.8220 4.9563 4.2795 0.0000 -10747.5156 1329.0328 0.0000 0.0000 1776.8057 -7630.6193 300.8004 -9407.4250 -7538.4356 302.4697 -1511.7178 -1433.3987 30818.8775 -138.5643 -64.8710
ENERGY: 1500000 1.0278 5.2527 4.1008 0.0000 -10678.1483 1386.3287 0.0000 0.0000 1803.0212 -7478.4172 305.2385 -9281.4384 -7534.3019 302.9113 -554.3005 -489.7552 30912.3355 -166.5703 -94.1682
TCL: Running FEP window  12: Lambda1 0.5499999999999999 Lambda2 0.6    [dLambda 0.050000000000000044]
TCL: Setting parameter firsttimestep to 0
TCL: Setting parameter alchLambda to 0.5499999999999999
Info: NONBONDED TABLE R-SQUARED SPACING: 0.0625
Info: NONBONDED TABLE SIZE: 705 POINTS
TCL: Setting parameter alchLambda2 to 0.6
Info: NONBONDED TABLE R-SQUARED SPACING: 0.0625
Info: NONBONDED TABLE SIZE: 705 POINTS
TCL: Running for 1500000 steps
ETITLE: TS BOND ANGLE DIHED IMPRP ELECT VDW BOUNDARY MISC KINETIC TOTAL TEMP POTENTIAL TOTALAVG TEMPAVG PRESSURE GPRESSURE VOLUME PRESSAVG GPRESSAVG
ENERGY: 0 1.0278 5.2527 4.1008 0.0000 -10678.2488 1386.1190 0.0000 0.0000 1802.1707 -7479.5777 305.0946 -9281.7485 -7479.5777 305.0946 -576.3162 -485.9775 30912.3355 -576.3162 -485.9775
ENERGY: 300000 0.3348 6.8365 3.5352 0.0000 -10901.5317 1502.7810 0.0000 0.0000 1813.8044 -7574.2398 307.0640 -9388.0441 -7532.9008 304.2608 460.3823 533.7034 29995.6535 172.9880 249.9867
ENERGY: 600000 0.3734 5.6656 4.9804 0.0000 -10819.6593 1488.6252 0.0000 0.0000 1758.7191 -7561.2957 297.7385 -9320.0148 -7521.7419 302.6144 511.7060 557.7494 30394.0662 -42.5980 28.2931
ENERGY: 900000 2.2211 5.4263 4.8775 0.0000 -10710.9619 1440.0980 0.0000 0.0000 1768.6806 -7489.6585 299.4249 -9258.3391 -7519.5368 302.6741 233.9450 260.6465 30361.0928 -71.8031 -12.3203
ENERGY: 1200000 1.8075 6.0547 3.5617 0.0000 -10674.1600 1366.7277 0.0000 0.0000 1791.1199 -7504.8886 303.2237 -9296.0085 -7528.1752 301.8512 -491.8818 -425.7102 30868.3990 -88.4228 -28.0714
ENERGY: 1500000 1.5683 6.1706 3.5421 0.0000 -10798.9878 1437.3090 0.0000 0.0000 1779.5598 -7570.8379 301.2667 -9350.3977 -7544.6231 300.8850 -497.7664 -370.2670 30756.9610 -58.0311 1.6344
TCL: Running FEP window  13: Lambda1 0.6    Lambda2 0.65   [dLambda 0.050000000000000044]
TCL: Setting parameter firsttimestep to 0
TCL: Setting parameter alchLambda to 0.6
Info: NONBONDED TABLE R-SQUARED SPACING: 0.0625
Info: NONBONDED TABLE SIZE: 705 POINTS
TCL: Setting parameter alchLambda2 to 0.65
Info: NONBONDED TABLE R-SQUARED SPACING: 0.0625
Info: NONBONDED TABLE SIZE: 705 POINTS
TCL: Running for 1500000 steps
ETITLE: TS BOND ANGLE DIHED IMPRP ELECT VDW BOUNDARY MISC KINETIC TOTAL TEMP POTENTIAL TOTALAVG TEMPAVG PRESSURE GPRESSURE VOLUME PRESSAVG GPRESSAVG
ENERGY: 0 1.5683 6.1706 3.5421 0.0000 -10799.1231 1437.4535 0.0000 0.0000 1778.6620 -7571.7265 301.1147 -9350.3886 -7571.7265 301.1147 -443.0306 -362.0476 30756.9610 -443.0306 -362.0476
ENERGY: 300000 4.5482 6.7445 3.4211 0.0000 -10812.0218 1457.5931 0.0000 0.0000 1764.5040 -7575.2109 298.7179 -9339.7149 -7512.3578 301.9744 45.2247 62.3925 30392.1234 48.6115 119.0564
ENERGY: 600000 1.0438 3.7509 3.9211 0.0000 -10867.8429 1501.1218 0.0000 0.0000 1793.8002 -7564.2050 303.6775 -9358.0053 -7542.4716 300.4354 502.7556 475.4415 30301.1022 136.2767 181.9432
ENERGY: 900000 0.1527 4.4904 3.5950 0.0000 -10647.9757 1376.6616 0.0000 0.0000 1769.2091 -7493.8669 299.5144 -9263.0760 -7532.7579 300.0424 -227.5696 -194.6270 30235.8324 -84.1685 -34.5796
ENERGY: 1200000 1.8933 4.3215 4.4860 0.0000 -10763.6044 1424.5045 0.0000 0.0000 1767.9345 -7560.4646 299.2986 -9328.3992 -7546.9282 300.1548 -262.6408 -183.4975 30469.5631 -60.3786 -4.2038
ENERGY: 1500000 0.4216 9.7254 4.6075 0.0000 -10721.9075 1417.6618 0.0000 0.0000 1763.0745 -7526.4168 298.4758 -9289.4912 -7551.9916 299.2754 -269.7810 -155.6585 30494.0828 33.6376 97.4656
TCL: Running FEP window  14: Lambda1 0.65   Lambda2 0.7000000000000001 [dLambda 0.050000000000000044]
TCL: Setting parameter firsttimestep to 0
TCL: Setting parameter alchLambda to 0.65
Info: NONBONDED TABLE R-SQUARED SPACING: 0.0625
Info: NONBONDED TABLE SIZE: 705 POINTS
TCL: Setting parameter alchLambda2 to 0.7000000000000001
Info: NONBONDED TABLE R-SQUARED SPACING: 0.0625
Info: NONBONDED TABLE SIZE: 705 POINTS
TCL: Running for 1500000 steps
ETITLE: TS BOND ANGLE DIHED IMPRP ELECT VDW BOUNDARY MISC KINETIC TOTAL TEMP POTENTIAL TOTALAVG TEMPAVG PRESSURE GPRESSURE VOLUME PRESSAVG GPRESSAVG
ENERGY: 0 0.4216 9.7254 4.6075 0.0000 -10722.7609 1417.6787 0.0000 0.0000 1762.2198 -7528.1079 298.3311 -9290.3277 -7528.1079 298.3311 -241.4378 -153.0665 30494.0828 -241.4378 -153.0665
ENERGY: 300000 1.5824 6.0207 4.1000 0.0000 -10871.5491 1498.9280 0.0000 0.0000 1790.5389 -7570.3790 303.1254 -9360.9180 -7537.7602 302.5531 484.4072 556.4684 29837.7656 -118.5883 -43.5294
ENERGY: 600000 0.2544 9.9119 5.2645 0.0000 -10883.7185 1551.8083 0.0000 0.0000 1765.8090 -7550.6703 298.9388 -9316.4794 -7554.2516 300.4736 625.5800 654.2680 30852.1666 67.4652 135.6587
ENERGY: 900000 1.8183 5.3063 3.2530 0.0000 -10832.6129 1491.7707 0.0000 0.0000 1751.1024 -7579.3622 296.4491 -9330.4646 -7540.2095 300.0148 98.3606 245.3352 30636.9489 28.9716 106.5067
ENERGY: 1200000 0.6766 6.8548 4.1300 0.0000 -10661.7273 1381.7240 0.0000 0.0000 1832.2166 -7436.1253 310.1811 -9268.3419 -7536.2404 300.3380 -288.6292 -245.9561 30624.4284 -55.7788 18.3471
ENERGY: 1500000 0.5507 7.6553 4.0137 0.0000 -10776.5066 1431.6167 0.0000 0.0000 1768.7165 -7563.9538 299.4310 -9332.6703 -7533.8327 300.4565 38.7704 106.0099 30186.6202 -74.4429 -5.9838
TCL: Running FEP window  15: Lambda1 0.7000000000000001 Lambda2 0.7500000000000001 [dLambda 0.050000000000000044]
TCL: Setting parameter firsttimestep to 0
TCL: Setting parameter alchLambda to 0.7000000000000001
Info: NONBONDED TABLE R-SQUARED SPACING: 0.0625
Info: NONBONDED TABLE SIZE: 705 POINTS
TCL: Setting parameter alchLambda2 to 0.7500000000000001
Info: NONBONDED TABLE R-SQUARED SPACING: 0.0625
Info: NONBONDED TABLE SIZE: 705 POINTS
TCL: Running for 1500000 steps
ETITLE: TS BOND ANGLE DIHED IMPRP ELECT VDW BOUNDARY MISC KINETIC TOTAL TEMP POTENTIAL TOTALAVG TEMPAVG PRESSURE GPRESSURE VOLUME PRESSAVG GPRESSAVG
ENERGY: 0 0.5507 7.6553 4.0137 0.0000 -10777.9162 1432.6449 0.0000 0.0000 1767.7992 -7565.2525 299.2757 -9333.0517 -7565.2525 299.2757 38.0005 118.9424 30186.6202 38.0005 118.9424
ENERGY: 300000 3.7416 6.0968 5.0924 0.0000 -10776.7004 1464.3930 0.0000 0.0000 1774.5727 -7522.8039 300.4224 -9297.3766 -7545.1022 301.3900 -53.0160 -7.3933 30692.6326 290.0831 340.5327
ENERGY: 600000 0.3934 9.4597 5.1276 0.0000 -10732.5496 1431.1371 0.0000 0.0000 1760.6605 -7525.7712 298.0672 -9286.4318 -7547.2795 299.9681 -191.4756 -111.4835 30967.0265 220.7821 282.6986
ENERGY: 900000 4.6180 3.8276 3.2502 0.0000 -10806.7980 1501.2424 0.0000 0.0000 1784.1587 -7509.7011 302.0452 -9293.8598 -7543.5844 300.2764 586.8642 678.5517 30037.4230 160.4228 227.7776
ENERGY: 1200000 0.9909 6.5897 4.3413 0.0000 -10746.5400 1395.0188 0.0000 0.0000 1763.9165 -7575.6828 298.6184 -9339.5993 -7550.0441 299.7428 -632.4238 -655.7455 30896.3975 113.9944 167.9061
ENERGY: 1500000 0.8275 5.8697 3.5638 0.0000 -10697.9731 1413.8352 0.0000 0.0000 1796.3826 -7477.4942 304.1147 -9273.8768 -7547.7419 300.4199 -302.1458 -296.1042 30706.5013 110.9393 167.2020
TCL: Running FEP window  16: Lambda1 0.7500000000000001 Lambda2 0.8000000000000002 [dLambda 0.050000000000000044]
TCL: Setting parameter firsttimestep to 0
TCL: Setting parameter alchLambda to 0.7500000000000001
Info: NONBONDED TABLE R-SQUARED SPACING: 0.0625
Info: NONBONDED TABLE SIZE: 705 POINTS
TCL: Setting parameter alchLambda2 to 0.8000000000000002
Info: NONBONDED TABLE R-SQUARED SPACING: 0.0625
Info: NONBONDED TABLE SIZE: 705 POINTS
TCL: Running for 1500000 steps
ETITLE: TS BOND ANGLE DIHED IMPRP ELECT VDW BOUNDARY MISC KINETIC TOTAL TEMP POTENTIAL TOTALAVG TEMPAVG PRESSURE GPRESSURE VOLUME PRESSAVG GPRESSAVG
ENERGY: 0 0.8275 5.8697 3.5638 0.0000 -10699.6135 1414.6028 0.0000 0.0000 1795.4864 -7479.2632 303.9629 -9274.7496 -7479.2632 303.9629 -367.9119 -286.3214 30706.5013 -367.9119 -286.3214
ENERGY: 300000 1.2778 6.6566 4.7848 0.0000 -10650.2126 1338.9799 0.0000 0.0000 1750.8302 -7547.6834 296.4030 -9298.5135 -7543.6574 302.9280 -1058.3590 -910.7912 30832.0290 -267.5578 -174.7490
ENERGY: 600000 1.2558 5.4694 3.3255 0.0000 -10728.1625 1461.9785 0.0000 0.0000 1778.2612 -7477.8722 301.0468 -9256.1334 -7546.7995 300.0503 450.0613 466.7273 30445.9517 -48.5995 23.8734
ENERGY: 900000 1.0647 7.0595 4.7168 0.0000 -10730.9045 1458.1070 0.0000 0.0000 1805.6533 -7454.3032 305.6841 -9259.9564 -7535.6757 299.8943 209.3846 207.4295 30968.7693 -19.6246 35.9094
ENERGY: 1200000 0.5162 4.0356 3.4788 0.0000 -10925.4479 1484.3981 0.0000 0.0000 1789.6086 -7643.4104 302.9679 -9433.0191 -7552.9735 299.3041 110.2707 180.2798 30160.0230 -7.5987 41.1864
ENERGY: 1500000 0.2740 7.5370 3.4361 0.0000 -10560.4470 1301.0569 0.0000 0.0000 1740.3094 -7507.8336 294.6219 -9248.1430 -7552.0392 298.3022 -873.4075 -872.4267 30652.6208 -143.6215 -88.2062
TCL: Running FEP window  17: Lambda1 0.8000000000000002 Lambda2 0.8500000000000002 [dLambda 0.050000000000000044]
TCL: Setting parameter firsttimestep to 0
TCL: Setting parameter alchLambda to 0.8000000000000002
Info: NONBONDED TABLE R-SQUARED SPACING: 0.0625
Info: NONBONDED TABLE SIZE: 705 POINTS
TCL: Setting parameter alchLambda2 to 0.8500000000000002
Info: NONBONDED TABLE R-SQUARED SPACING: 0.0625
Info: NONBONDED TABLE SIZE: 705 POINTS
TCL: Running for 1500000 steps
ETITLE: TS BOND ANGLE DIHED IMPRP ELECT VDW BOUNDARY MISC KINETIC TOTAL TEMP POTENTIAL TOTALAVG TEMPAVG PRESSURE GPRESSURE VOLUME PRESSAVG GPRESSAVG
ENERGY: 0 0.2740 7.5370 3.4361 0.0000 -10561.2517 1301.4090 0.0000 0.0000 1739.4408 -7509.1547 294.4748 -9248.5955 -7509.1547 294.4748 -954.8371 -863.2287 30652.6208 -954.8371 -863.2287
ENERGY: 300000 2.4622 7.9501 3.6213 0.0000 -10832.8989 1434.8574 0.0000 0.0000 1812.0119 -7571.9960 306.7606 -9384.0080 -7536.4776 298.1920 -168.0975 -104.0158 30609.8624 -293.6434 -210.0107
ENERGY: 600000 1.7294 8.7359 4.1745 0.0000 -10719.2502 1415.0587 0.0000 0.0000 1790.9296 -7498.6221 303.1915 -9289.5517 -7546.0680 299.2878 -246.2263 -154.5921 30675.3113 -247.3008 -162.5438
ENERGY: 900000 3.9118 4.8335 3.5036 0.0000 -10907.7242 1558.7804 0.0000 0.0000 1819.9271 -7516.7678 308.1006 -9336.6949 -7530.3491 300.4215 852.7233 938.7193 30446.6010 -125.1454 -54.5678
ENERGY: 1200000 0.9796 7.3935 3.2417 0.0000 -10594.5622 1314.2412 0.0000 0.0000 1757.3887 -7511.3175 297.5133 -9268.7061 -7515.8603 300.9953 -1080.1035 -969.0070 30814.1482 -142.1128 -67.4953
ENERGY: 1500000 1.7747 4.6683 3.9041 0.0000 -10816.7909 1467.4538 0.0000 0.0000 1812.9049 -7526.0852 306.9118 -9338.9901 -7517.8313 301.2467 -10.1809 46.5129 30699.0706 -143.8639 -74.7403
TCL: Running FEP window  18: Lambda1 0.8500000000000002 Lambda2 0.9000000000000002 [dLambda 0.050000000000000044]
TCL: Setting parameter firsttimestep to 0
TCL: Setting parameter alchLambda to 0.8500000000000002
Info: NONBONDED TABLE R-SQUARED SPACING: 0.0625
Info: NONBONDED TABLE SIZE: 705 POINTS
TCL: Setting parameter alchLambda2 to 0.9000000000000002
Info: NONBONDED TABLE R-SQUARED SPACING: 0.0625
Info: NONBONDED TABLE SIZE: 705 POINTS
TCL: Running for 1500000 steps
ETITLE: TS BOND ANGLE DIHED IMPRP ELECT VDW BOUNDARY MISC KINETIC TOTAL TEMP POTENTIAL TOTALAVG TEMPAVG PRESSURE GPRESSURE VOLUME PRESSAVG GPRESSAVG
ENERGY: 0 1.7747 4.6683 3.9041 0.0000 -10817.9318 1469.3100 0.0000 0.0000 1811.9843 -7526.2904 306.7559 -9338.2747 -7526.2904 306.7559 -6.4411 74.6595 30699.0706 -6.4411 74.6595
ENERGY: 300000 1.3663 6.9040 4.0925 0.0000 -10780.6395 1489.6306 0.0000 0.0000 1834.3058 -7444.3403 310.5348 -9278.6461 -7526.1950 304.1792 377.1620 489.7213 30830.0245 -111.3877 -15.9924
ENERGY: 600000 1.5428 5.3526 3.3332 0.0000 -10869.4418 1477.8848 0.0000 0.0000 1790.6365 -7590.6920 303.1419 -9381.3285 -7545.9706 301.9033 172.0692 229.3405 30025.6659 -35.9851 58.1634
ENERGY: 900000 0.4767 4.3556 5.0805 0.0000 -10813.1715 1484.9366 0.0000 0.0000 1768.2685 -7550.0535 299.3552 -9318.3221 -7558.8054 300.4183 419.2688 455.6996 30590.9766 58.8268 147.5438
ENERGY: 1200000 2.6457 7.5535 4.4196 0.0000 -10772.3612 1421.0417 0.0000 0.0000 1808.3660 -7528.3347 306.1434 -9336.7007 -7560.2652 299.6608 -564.6198 -502.0048 30820.1421 -36.7788 44.1393
ENERGY: 1500000 0.0777 6.7411 4.0884 0.0000 -10813.7320 1444.5337 0.0000 0.0000 1762.8783 -7595.4128 298.4426 -9358.2911 -7570.7554 298.6024 -238.1924 -217.5137 30770.5569 -46.5681 30.1452
TCL: Running FEP window  19: Lambda1 0.9000000000000002 Lambda2 0.9500000000000003 [dLambda 0.050000000000000044]
TCL: Setting parameter firsttimestep to 0
TCL: Setting parameter alchLambda to 0.9000000000000002
Info: NONBONDED TABLE R-SQUARED SPACING: 0.0625
Info: NONBONDED TABLE SIZE: 705 POINTS
TCL: Setting parameter alchLambda2 to 0.9500000000000003
Info: NONBONDED TABLE R-SQUARED SPACING: 0.0625
Info: NONBONDED TABLE SIZE: 705 POINTS
TCL: Running for 1500000 steps
ETITLE: TS BOND ANGLE DIHED IMPRP ELECT VDW BOUNDARY MISC KINETIC TOTAL TEMP POTENTIAL TOTALAVG TEMPAVG PRESSURE GPRESSURE VOLUME PRESSAVG GPRESSAVG
ENERGY: 0 0.0777 6.7411 4.0884 0.0000 -10815.9775 1445.7290 0.0000 0.0000 1761.9501 -7597.3912 298.2855 -9359.3413 -7597.3912 298.2855 -275.9669 -202.7989 30770.5569 -275.9669 -202.7989
ENERGY: 300000 2.1815 8.1598 3.3900 0.0000 -10845.1283 1462.5688 0.0000 0.0000 1788.8038 -7580.0244 302.8316 -9368.8282 -7556.1320 300.0975 140.2622 213.5832 30477.5100 -297.6797 -242.6254
ENERGY: 600000 0.8534 4.0362 4.7550 0.0000 -10851.9028 1499.4154 0.0000 0.0000 1803.5870 -7539.2559 305.3343 -9342.8429 -7565.8012 299.8623 247.6438 309.5609 30707.3792 -109.2999 -43.9125
ENERGY: 900000 0.8617 5.4318 3.4726 0.0000 -10743.9465 1412.8211 0.0000 0.0000 1797.8320 -7523.5273 304.3600 -9321.3593 -7568.3188 299.5846 -560.6496 -464.3112 30999.0488 -210.3661 -140.4822
ENERGY: 1200000 0.1431 6.3325 4.6805 0.0000 -10784.3488 1440.5705 0.0000 0.0000 1779.1452 -7553.4771 301.1965 -9332.6223 -7564.7723 300.3689 -83.7941 -40.6764 30791.5033 -189.8449 -124.4432
ENERGY: 1500000 1.3952 6.9321 3.9524 0.0000 -10798.2402 1498.9194 0.0000 0.0000 1748.8048 -7538.2364 296.0601 -9287.0412 -7554.3664 299.4021 300.6724 393.9082 30631.7702 -123.2020 -50.8361
TCL: Running FEP window  20: Lambda1 0.9500000000000003 Lambda2 1.0    [dLambda 0.04999999999999971]
TCL: Setting parameter firsttimestep to 0
TCL: Setting parameter alchLambda to 0.9500000000000003
Info: NONBONDED TABLE R-SQUARED SPACING: 0.0625
Info: NONBONDED TABLE SIZE: 705 POINTS
TCL: Setting parameter alchLambda2 to 1.0
Info: NONBONDED TABLE R-SQUARED SPACING: 0.0625
Info: NONBONDED TABLE SIZE: 705 POINTS
TCL: Running for 1500000 steps
ETITLE: TS BOND ANGLE DIHED IMPRP ELECT VDW BOUNDARY MISC KINETIC TOTAL TEMP POTENTIAL TOTALAVG TEMPAVG PRESSURE GPRESSURE VOLUME PRESSAVG GPRESSAVG
ENERGY: 0 1.3952 6.9321 3.9524 0.0000 -10799.8248 1500.7060 0.0000 0.0000 1747.8944 -7538.9448 295.9060 -9286.8391 -7538.9448 295.9060 353.2809 423.6422 30631.7702 353.2809 423.6422
ENERGY: 300000 0.4183 4.8921 3.3619 0.0000 -10716.5114 1439.2193 0.0000 0.0000 1759.4541 -7509.1657 297.8629 -9268.6198 -7519.3834 300.2006 -101.6046 -87.1646 30967.5110 -38.0761 6.7307
ENERGY: 600000 1.3772 5.9857 3.4462 0.0000 -10702.5748 1385.2852 0.0000 0.0000 1747.2425 -7559.2379 295.7956 -9306.4805 -7554.0567 300.2681 -648.0099 -604.4803 30986.8350 -286.2092 -236.7288
ENERGY: 900000 2.2098 5.3723 3.5749 0.0000 -10719.7554 1419.2265 0.0000 0.0000 1738.4912 -7550.8807 294.3141 -9289.3719 -7555.2265 299.8883 -336.5686 -247.8117 30927.1804 -185.5682 -128.5551
ENERGY: 1200000 0.1347 8.4781 4.6661 0.0000 -10797.8363 1476.1961 0.0000 0.0000 1750.4980 -7557.8633 296.3467 -9308.3613 -7564.3303 300.4383 331.5857 334.6883 30458.9295 -104.4655 -55.3002
ENERGY: 1500000 1.9345 8.4828 4.8965 0.0000 -10824.4937 1411.4842 0.0000 0.0000 1778.4180 -7619.2778 301.0734 -9397.6957 -7567.1615 300.2371 -445.6112 -364.2756 30478.0844 -171.7104 -120.0089
TCL: Exiting due to exit command.
