Info: SIMULATION PARAMETERS:
Info: TIMESTEP               2
Info: NUMBER OF STEPS        0
Info: STEPS PER CYCLE        10
Info: PERIODIC CELL BASIS 1  32.7398 0 0
Info: PERIODIC CELL BASIS 2  0 32.2795 0
Info: PERIODIC CELL BASIS 3  0 0 28.0862
Info: PERIODIC CELL CENTER   0 0 0
Info: WRAPPING WATERS AROUND PERIODIC BOUNDARIES ON OUTPUT.
Info: WRAPPING ALL CLUSTERS AROUND PERIODIC BOUNDARIES ON OUTPUT.
Info: FIRST LDB TIMESTEP     50
Info: LAST LDB TIMESTEP     -1
Info: HOM BACKGROUND SCALING 1
Info: PME BACKGROUND SCALING 1
Info: MIN ATOMS PER PATCH    40
Info: EMPTY PATCH LOAD       40 ATOMS
Info: VELOCITY FILE          mobley_3663158_equil.vel
Info: CENTER OF MASS MOVING INITIALLY? NO
Info: DIELECTRIC             1
Info: EXCLUDE                SCALED ONE-FOUR
Info: 1-4 ELECTROSTATICS SCALED BY 0.833333
Info: MODIFIED 1-4 VDW PARAMETERS WILL BE USED
Info: DCD FILENAME           mobley_3663158_prod.dcd
Info: DCD FREQUENCY          100000
Info: DCD FIRST STEP         100000
Info: DCD FILE WILL CONTAIN UNIT CELL DATA
Info: XST FILENAME           mobley_3663158_prod.xst
Info: XST FREQUENCY          100000
Info: NO VELOCITY DCD OUTPUT
Info: NO FORCE DCD OUTPUT
Info: OUTPUT FILENAME        mobley_3663158_prod
Info: BINARY OUTPUT FILES WILL BE USED
Info: RESTART FILENAME       mobley_3663158_prod.restart
Info: RESTART FREQUENCY      100000
Info: BINARY RESTART FILES WILL BE USED
Info: CUTOFF                 9
Info: PAIRLIST DISTANCE      11
Info: PAIRLIST SHRINK RATE   0.01
Info: PAIRLIST GROW RATE     0.01
Info: PAIRLIST TRIGGER       0.3
Info: PAIRLISTS PER CYCLE    2
Info: PAIRLISTS ENABLED
Info: MARGIN                 2
Info: HYDROGEN GROUP CUTOFF  2.5
Info: PATCH DIMENSION        15.5
Info: ENERGY OUTPUT STEPS    100000
Info: ENERGY EVALUATION STEPS    100000
Info: OUTPUT ENERGY PRECISION 4
Info: CROSSTERM ENERGY INCLUDED IN DIHEDRAL
Info: TIMING OUTPUT STEPS    1000000
Info: PRESSURE OUTPUT STEPS  100000
Info: ALCHEMICAL FEP ON
Info: FEP CURRENT LAMBDA VALUE     0
Info: FEP COMPARISON LAMBDA VALUE  0.05
Info: FEP INTRA-ALCHEMICAL NON-BONDED INTERACTIONS WILL BE RETAINED
Info: FEP INTRA-ALCHEMICAL BONDED INTERACTIONS WILL BE RETAINED
Info: FEP VDW SHIFTING COEFFICIENT 5
Info: FEP ELEC. ACTIVE FOR ANNIHILATED PARTICLES BETWEEN LAMBDA = 0 AND LAMBDA = 0.5
Info: FEP ELEC. ACTIVE FOR EXNIHILATED PARTICLES BETWEEN LAMBDA = 0.5 AND LAMBDA = 1
Info: FEP VDW ACTIVE FOR ANNIHILATED PARTICLES BETWEEN LAMBDA = 0 AND LAMBDA = 1
Info: FEP VDW ACTIVE FOR EXNIHILATED PARTICLES BETWEEN LAMBDA = 0 AND LAMBDA = 1
Info: FEP BOND ACTIVE FOR ANNIHILATED PARTICLES BETWEEN LAMBDA = 1 AND LAMBDA = 1
Info: FEP BOND ACTIVE FOR EXNIHILATED PARTICLES BETWEEN LAMBDA = 0 AND LAMBDA = 0
Info: LANGEVIN DYNAMICS ACTIVE
Info: LANGEVIN TEMPERATURE   300
Info: LANGEVIN USING BBK INTEGRATOR
Info: LANGEVIN DAMPING COEFFICIENT IS 1 INVERSE PS
Info: LANGEVIN DYNAMICS APPLIED TO HYDROGENS
Info: LANGEVIN PISTON PRESSURE CONTROL ACTIVE
Info:        TARGET PRESSURE IS 1.01325 BAR
Info:     OSCILLATION PERIOD IS 50 FS
Info:             DECAY TIME IS 25 FS
Info:     PISTON TEMPERATURE IS 300 K
Info:       PRESSURE CONTROL IS GROUP-BASED
Info:    INITIAL STRAIN RATE IS -5.84687e-05 -5.84687e-05 -5.84687e-05
Info:       CELL FLUCTUATION IS ISOTROPIC
Info: PARTICLE MESH EWALD (PME) ACTIVE
Info: PME TOLERANCE               1e-06
Info: PME EWALD COEFFICIENT       0.348832
Info: PME INTERPOLATION ORDER     4
Info: PME GRID DIMENSIONS         36 36 32
Info: PME MAXIMUM GRID SPACING    1
Info: PME CALCULATION WILL BE PERFORMED ON GPU
Info: FULL ELECTROSTATIC EVALUATION FREQUENCY      2
Info: USING VERLET I (r-RESPA) MTS SCHEME.
Info: C1 SPLITTING OF LONG RANGE ELECTROSTATICS
Info: PLACING ATOMS IN PATCHES BY HYDROGEN GROUPS
Info: RIGID BONDS TO HYDROGEN : ALL
Info:         ERROR TOLERANCE : 1e-08
Info:          MAX ITERATIONS : 100
Info: RIGID WATER USING SETTLE ALGORITHM
Info: RANDOM NUMBER SEED     1743610219
Info: USE HYDROGEN BONDS?    NO
Info: Using AMBER format force field!
Info: AMBER PARM FILE        mobley_3663158.prmtop
Info: COORDINATE PDB         mobley_3663158.pdb
Info: Exclusions will be read from PARM file!
Info: SCNB (VDW SCALING)     2
Info: USING ARITHMETIC MEAN TO COMBINE L-J SIGMA PARAMETERS
Info: BINARY COORDINATES     mobley_3663158_equil.coor
Info: SUMMARY OF PARAMETERS:
Info: 6 BONDS
Info: 4 ANGLES
Info:   4 HARMONIC
Info:   0 COSINE-BASED
Info: 3 DIHEDRAL
Info: 0 IMPROPER
Info: 0 CROSSTERM
Info: 0 VDW
Info: 15 VDW_PAIRS
Info: 0 NBTHOLE_PAIRS
Info: To read alchdata from file: mobley_3663158.pdb
Info: To read alchflag data from column: 5
Info: STRUCTURE SUMMARY:
Info: 2902 ATOMS
Info: 2903 BONDS
Info: 31 ANGLES
Info: 56 DIHEDRALS
Info: 0 IMPROPERS
Info: 0 CROSSTERMS
Info: 2974 EXCLUSIONS
Info: 2891 RIGID BONDS
Info: ALCH: 0 ATOMS TO DISAPPEAR IN FINAL STATE
Info: ALCH: 19 ATOMS TO APPEAR IN FINAL STATE
Info: 5815 DEGREES OF FREEDOM
Info: 972 HYDROGEN GROUPS
Info: 3 ATOMS IN LARGEST HYDROGEN GROUP
Info: 972 MIGRATION GROUPS
Info: 3 ATOMS IN LARGEST MIGRATION GROUP
Info: TOTAL MASS = 17457.5 amu
Info: TOTAL CHARGE = -3.53903e-08 e
Info: MASS DENSITY = 0.976668 g/cm^3
Info: ATOM DENSITY = 0.0977692 atoms/A^3
Info: ADDED 0 IMPLICIT EXCLUSIONS
Info: NONBONDED TABLE R-SQUARED SPACING: 0.0625
Info: NONBONDED TABLE SIZE: 705 POINTS
Info: REDUCING NUMBER OF PATCHES TO IMPROVE LOAD BALANCE
Info: REMOVING COM VELOCITY 0.0620116 -0.108416 -0.200891
Info: Use 3D box decompostion in PME FFT.
Info: Updated CUDA force table with 4096 elements.
Info: Updated CUDA LJ table with 5 x 5 elements.
Info: Found 20 unique exclusion lists needing 52 bytes
TCL: Running for 1500000 steps
ETITLE: TS BOND ANGLE DIHED IMPRP ELECT VDW BOUNDARY MISC KINETIC TOTAL TEMP POTENTIAL TOTALAVG TEMPAVG PRESSURE GPRESSURE VOLUME PRESSAVG GPRESSAVG
ENERGY: 0 2.8809 7.3435 2.1039 0.0000 -10713.6130 1589.1778 0.0000 0.0000 1774.4115 -7337.6954 307.1107 -9112.1069 -7337.6954 307.1107 1169.5215 1245.2146 29682.1606 1169.5215 1245.2146
ENERGY: 300000 2.5667 4.1559 6.6573 0.0000 -10505.7762 1457.1525 0.0000 0.0000 1768.8354 -7266.4085 306.1456 -9035.2439 -7316.4800 305.4355 662.8775 666.0204 29741.9924 504.1721 550.8644
ENERGY: 600000 5.1455 3.9134 5.5440 0.0000 -10398.6766 1394.1821 0.0000 0.0000 1675.9084 -7313.9832 290.0621 -8989.8916 -7315.6877 302.0226 -107.0997 -26.7634 29993.5396 250.0109 298.3424
ENERGY: 900000 2.1364 3.0161 5.3142 0.0000 -10522.6929 1402.0029 0.0000 0.0000 1721.4899 -7388.7333 297.9512 -9110.2233 -7336.2093 301.0218 -271.3760 -179.9221 29552.7372 105.4457 176.5756
ENERGY: 1200000 2.6562 2.3251 5.6110 0.0000 -10505.1842 1390.7318 0.0000 0.0000 1743.7151 -7360.1449 301.7979 -9103.8600 -7340.6443 299.9895 -145.4562 -84.2208 29730.7705 -1.0375 65.0535
ENERGY: 1500000 7.1200 5.0058 2.4138 0.0000 -10488.3580 1412.0367 0.0000 0.0000 1779.7553 -7282.0263 308.0356 -9061.7816 -7333.1606 300.9400 -264.4893 -203.1934 30004.2153 -61.4673 -4.3707
TCL: Running FEP window   2: Lambda1 0.05   Lambda2 0.1    [dLambda 0.05  ]
TCL: Setting parameter firsttimestep to 0
TCL: Setting parameter alchLambda to 0.05
Info: NONBONDED TABLE R-SQUARED SPACING: 0.0625
Info: NONBONDED TABLE SIZE: 705 POINTS
TCL: Setting parameter alchLambda2 to 0.1
Info: NONBONDED TABLE R-SQUARED SPACING: 0.0625
Info: NONBONDED TABLE SIZE: 705 POINTS
TCL: Running for 1500000 steps
ETITLE: TS BOND ANGLE DIHED IMPRP ELECT VDW BOUNDARY MISC KINETIC TOTAL TEMP POTENTIAL TOTALAVG TEMPAVG PRESSURE GPRESSURE VOLUME PRESSAVG GPRESSAVG
ENERGY: 0 7.1200 5.0058 2.4138 0.0000 -10488.3577 1418.4660 0.0000 0.0000 1778.8672 -7276.4847 307.8819 -9055.3519 -7276.4847 307.8819 -273.2621 -194.1844 30004.2153 -273.2621 -194.1844
ENERGY: 300000 2.6306 6.5197 5.5464 0.0000 -10484.4885 1415.7832 0.0000 0.0000 1745.2437 -7308.7649 302.0625 -9054.0086 -7371.3422 300.3377 -133.1801 -12.8447 29967.4087 -6.4779 55.3304
ENERGY: 600000 3.6360 2.1787 5.1614 0.0000 -10639.7546 1522.3371 0.0000 0.0000 1726.1859 -7380.2555 298.7640 -9106.4414 -7357.0632 299.1925 963.1244 1026.5477 29079.8336 265.3031 320.0500
ENERGY: 900000 4.3452 3.7101 5.4266 0.0000 -10621.4328 1469.5854 0.0000 0.0000 1726.2835 -7412.0819 298.7809 -9138.3655 -7363.8056 298.6695 -60.8838 7.9053 29748.8103 145.4272 203.1558
ENERGY: 1200000 1.3308 4.8823 6.4539 0.0000 -10566.2451 1513.0135 0.0000 0.0000 1748.4603 -7292.1042 302.6192 -9040.5646 -7353.3277 299.2802 616.3564 717.2174 29989.3658 153.7019 216.5009
ENERGY: 1500000 4.0398 1.5314 6.9183 0.0000 -10425.4240 1333.3763 0.0000 0.0000 1757.2816 -7322.2765 304.1459 -9079.5581 -7346.1276 300.2604 -402.0459 -397.4098 29182.0528 46.5690 104.4077
TCL: Running FEP window   3: Lambda1 0.1    Lambda2 0.15000000000000002 [dLambda 0.05000000000000002]
TCL: Setting parameter firsttimestep to 0
TCL: Setting parameter alchLambda to 0.1
Info: NONBONDED TABLE R-SQUARED SPACING: 0.0625
Info: NONBONDED TABLE SIZE: 705 POINTS
TCL: Setting parameter alchLambda2 to 0.15000000000000002
Info: NONBONDED TABLE R-SQUARED SPACING: 0.0625
Info: NONBONDED TABLE SIZE: 705 POINTS
TCL: Running for 1500000 steps
ETITLE: TS BOND ANGLE DIHED IMPRP ELECT VDW BOUNDARY MISC KINETIC TOTAL TEMP POTENTIAL TOTALAVG TEMPAVG PRESSURE GPRESSURE VOLUME PRESSAVG GPRESSAVG
ENERGY: 0 4.0398 1.5314 6.9183 0.0000 -10425.4244 1337.6414 0.0000 0.0000 1756.3796 -7318.9139 303.9898 -9075.2934 -7318.9139 303.9898 -456.3701 -380.7777 29182.0528 -456.3701 -380.7777
ENERGY: 300000 3.0924 3.6507 5.7335 0.0000 -10643.4858 1517.7204 0.0000 0.0000 1799.9036 -7313.3853 311.5228 -9113.2888 -7346.2054 303.2263 892.4081 937.5842 29505.4804 -50.8266 12.1850
ENERGY: 600000 4.1010 2.7526 3.3726 0.0000 -10418.2868 1280.4621 0.0000 0.0000 1776.6532 -7350.9453 307.4987 -9127.5985 -7350.5447 303.4910 -1136.4709 -1112.3261 29839.2429 -222.8083 -159.3647
ENERGY: 900000 4.1427 5.8888 6.3601 0.0000 -10495.2718 1380.5399 0.0000 0.0000 1773.0373 -7325.3030 306.8729 -9098.3403 -7343.3539 304.3156 -583.5873 -490.5365 30032.7136 -316.4366 -260.8294
ENERGY: 1200000 4.5475 3.8659 6.9896 0.0000 -10536.8116 1461.0593 0.0000 0.0000 1753.0451 -7307.3043 303.4127 -9060.3494 -7344.5141 304.1401 482.0622 462.2046 29685.8558 -180.6434 -128.5120
ENERGY: 1500000 5.4821 5.3899 2.4647 0.0000 -10462.0724 1417.0614 0.0000 0.0000 1757.8097 -7273.8647 304.2373 -9031.6744 -7337.9728 303.5311 -288.6201 -184.6124 30209.9026 -210.0058 -152.6259
TCL: Running FEP window   4: Lambda1 0.15000000000000002 Lambda2 0.2    [dLambda 0.04999999999999999]
TCL: Setting parameter firsttimestep to 0
TCL: Setting parameter alchLambda to 0.15000000000000002
Info: NONBONDED TABLE R-SQUARED SPACING: 0.0625
Info: NONBONDED TABLE SIZE: 705 POINTS
TCL: Setting parameter alchLambda2 to 0.2
Info: NONBONDED TABLE R-SQUARED SPACING: 0.0625
Info: NONBONDED TABLE SIZE: 705 POINTS
TCL: Running for 1500000 steps
ETITLE: TS BOND ANGLE DIHED IMPRP ELECT VDW BOUNDARY MISC KINETIC TOTAL TEMP POTENTIAL TOTALAVG TEMPAVG PRESSURE GPRESSURE VOLUME PRESSAVG GPRESSAVG
ENERGY: 0 5.4821 5.3899 2.4647 0.0000 -10462.0736 1419.2570 0.0000 0.0000 1756.9923 -7272.4876 304.0959 -9029.4800 -7272.4876 304.0959 -251.4024 -168.4353 30209.9026 -251.4024 -168.4353
ENERGY: 300000 5.5344 3.7072 3.8828 0.0000 -10627.2811 1482.3240 0.0000 0.0000 1778.1612 -7353.6716 307.7597 -9131.8328 -7335.8390 303.5301 195.3446 248.5379 29894.9246 48.2276 129.8494
ENERGY: 600000 3.7867 4.8977 4.4466 0.0000 -10598.2992 1511.3628 0.0000 0.0000 1698.6848 -7375.1205 294.0042 -9073.8054 -7353.0535 302.0254 731.9825 679.8232 29976.8850 359.3027 416.1064
ENERGY: 900000 3.3162 6.6020 4.6095 0.0000 -10296.5795 1289.3069 0.0000 0.0000 1706.4774 -7286.2676 295.3529 -8992.7450 -7350.2946 299.7541 -561.0856 -502.6720 29429.2536 235.1372 303.4834
ENERGY: 1200000 2.4454 3.0707 5.4900 0.0000 -10487.8645 1441.8915 0.0000 0.0000 1769.2554 -7265.7114 306.2183 -9034.9669 -7343.1292 299.5207 259.3283 292.8465 29683.4639 140.9976 207.1661
ENERGY: 1500000 4.5180 5.1951 2.6633 0.0000 -10566.9259 1436.4552 0.0000 0.0000 1722.3271 -7395.7672 298.0961 -9118.0943 -7342.4298 299.5278 -160.4636 -100.4140 29837.7923 52.8329 119.4119
TCL: Running FEP window   5: Lambda1 0.2    Lambda2 0.25   [dLambda 0.04999999999999999]
TCL: Setting parameter firsttimestep to 0
TCL: Setting parameter alchLambda to 0.2
Info: NONBONDED TABLE R-SQUARED SPACING: 0.0625
Info: NONBONDED TABLE SIZE: 705 POINTS
TCL: Setting parameter alchLambda2 to 0.25
Info: NONBONDED TABLE R-SQUARED SPACING: 0.0625
Info: NONBONDED TABLE SIZE: 705 POINTS
TCL: Running for 1500000 steps
ETITLE: TS BOND ANGLE DIHED IMPRP ELECT VDW BOUNDARY MISC KINETIC TOTAL TEMP POTENTIAL TOTALAVG TEMPAVG PRESSURE GPRESSURE VOLUME PRESSAVG GPRESSAVG
ENERGY: 0 4.5180 5.1951 2.6633 0.0000 -10566.9261 1437.3115 0.0000 0.0000 1721.4606 -7395.7776 297.9461 -9117.2382 -7395.7776 297.9461 -201.1521 -92.6391 29837.7923 -201.1521 -92.6391
ENERGY: 300000 5.4705 5.4482 5.0618 0.0000 -10388.7563 1344.5657 0.0000 0.0000 1723.8962 -7304.3140 298.3677 -9028.2102 -7329.9392 302.3632 -577.8563 -495.6987 29987.4018 -387.5164 -318.5142
ENERGY: 600000 3.7768 3.8301 3.9094 0.0000 -10569.9615 1440.8474 0.0000 0.0000 1778.8400 -7338.7579 307.8772 -9117.5979 -7352.2035 301.6250 205.3388 230.2902 29733.7730 -188.3275 -128.7798
ENERGY: 900000 3.0813 3.2936 2.8693 0.0000 -10505.7634 1360.1139 0.0000 0.0000 1775.2650 -7361.1403 307.2585 -9136.4053 -7349.0514 303.1240 -604.3253 -567.9358 29705.7729 -127.9033 -67.3133
ENERGY: 1200000 5.9290 4.8337 4.0155 0.0000 -10510.2894 1376.9181 0.0000 0.0000 1724.4300 -7394.1630 298.4601 -9118.5930 -7351.0755 302.5522 -427.0019 -371.4218 29607.2821 -101.5030 -39.1558
ENERGY: 1500000 5.8411 4.4039 4.9204 0.0000 -10548.3767 1462.7307 0.0000 0.0000 1747.2623 -7323.2182 302.4118 -9070.4805 -7360.6057 301.3744 250.0463 312.2011 29620.5716 -119.6631 -57.6126
TCL: Running FEP window   6: Lambda1 0.25   Lambda2 0.3    [dLambda 0.04999999999999999]
TCL: Setting parameter firsttimestep to 0
TCL: Setting parameter alchLambda to 0.25
Info: NONBONDED TABLE R-SQUARED SPACING: 0.0625
Info: NONBONDED TABLE SIZE: 705 POINTS
TCL: Setting parameter alchLambda2 to 0.3
Info: NONBONDED TABLE R-SQUARED SPACING: 0.0625
Info: NONBONDED TABLE SIZE: 705 POINTS
TCL: Running for 1500000 steps
ETITLE: TS BOND ANGLE DIHED IMPRP ELECT VDW BOUNDARY MISC KINETIC TOTAL TEMP POTENTIAL TOTALAVG TEMPAVG PRESSURE GPRESSURE VOLUME PRESSAVG GPRESSAVG
ENERGY: 0 5.8411 4.4039 4.9204 0.0000 -10548.3779 1463.8078 0.0000 0.0000 1746.4494 -7322.9553 302.2711 -9069.4047 -7322.9553 302.2711 246.5001 321.7962 29620.5716 246.5001 321.7962
ENERGY: 300000 2.9044 2.2565 4.7662 0.0000 -10463.7544 1366.8973 0.0000 0.0000 1743.6248 -7343.3052 301.7823 -9086.9300 -7328.0434 299.6574 -664.6731 -590.5041 29997.5339 -374.6646 -311.8602
ENERGY: 600000 4.2132 7.0032 1.8269 0.0000 -10573.2114 1495.6515 0.0000 0.0000 1774.4590 -7290.0576 307.1190 -9064.5166 -7320.9093 302.1100 767.8578 765.3628 29808.7936 27.1585 64.9554
ENERGY: 900000 3.0153 7.4680 2.8057 0.0000 -10460.4135 1386.0975 0.0000 0.0000 1717.8164 -7343.2105 297.3154 -9061.0269 -7344.8850 300.7283 -106.3567 -70.9259 30029.6867 -61.7434 -21.8221
ENERGY: 1200000 3.1217 6.4309 4.2245 0.0000 -10408.9268 1374.6091 0.0000 0.0000 1765.3350 -7255.2056 305.5398 -9020.5406 -7334.4423 301.2555 -201.8915 -144.2887 30157.4319 -64.8401 -17.4256
ENERGY: 1500000 3.1097 3.4015 4.1616 0.0000 -10506.6490 1382.7498 0.0000 0.0000 1750.3039 -7362.9225 302.9383 -9113.2264 -7340.3546 301.1397 -529.4522 -449.2958 29915.2228 -79.6181 -33.1549
TCL: Running FEP window   7: Lambda1 0.3    Lambda2 0.35   [dLambda 0.04999999999999999]
TCL: Setting parameter firsttimestep to 0
TCL: Setting parameter alchLambda to 0.3
Info: NONBONDED TABLE R-SQUARED SPACING: 0.0625
Info: NONBONDED TABLE SIZE: 705 POINTS
TCL: Setting parameter alchLambda2 to 0.35
Info: NONBONDED TABLE R-SQUARED SPACING: 0.0625
Info: NONBONDED TABLE SIZE: 705 POINTS
TCL: Running for 1500000 steps
ETITLE: TS BOND ANGLE DIHED IMPRP ELECT VDW BOUNDARY MISC KINETIC TOTAL TEMP POTENTIAL TOTALAVG TEMPAVG PRESSURE GPRESSURE VOLUME PRESSAVG GPRESSAVG
ENERGY: 0 3.1097 3.4015 4.1616 0.0000 -10506.6497 1383.3156 0.0000 0.0000 1749.4301 -7363.2312 302.7870 -9112.6613 -7363.2312 302.7870 -529.8386 -440.3486 29915.2228 -529.8386 -440.3486
ENERGY: 300000 4.2244 3.1971 6.1290 0.0000 -10507.4819 1388.9093 0.0000 0.0000 1693.0741 -7411.9480 293.0331 -9105.0221 -7354.3174 299.5886 -270.0711 -232.7061 29444.4494 -266.2222 -188.7708
ENERGY: 600000 4.8349 6.3485 4.6594 0.0000 -10448.8622 1371.6709 0.0000 0.0000 1722.8201 -7338.5284 298.1814 -9061.3485 -7332.1895 300.5206 -253.5208 -255.3488 29362.9905 -133.9446 -69.3428
ENERGY: 900000 1.1506 5.8542 4.2985 0.0000 -10589.3969 1414.3064 0.0000 0.0000 1752.6851 -7411.1022 303.3504 -9163.7873 -7335.9152 300.0942 -377.1211 -320.8973 29814.5100 -113.6736 -52.7479
ENERGY: 1200000 2.5930 5.1990 5.8517 0.0000 -10525.9292 1408.9301 0.0000 0.0000 1724.8765 -7378.4789 298.5373 -9103.3554 -7346.1489 299.7334 -181.7835 -153.1749 29824.2471 -51.9343 8.3498
ENERGY: 1500000 3.4271 3.5106 3.5948 0.0000 -10529.7190 1463.9913 0.0000 0.0000 1728.0796 -7327.1156 299.0917 -9055.1952 -7341.8117 300.4867 404.5486 475.3221 29592.2152 -42.1793 19.0134
TCL: Running FEP window   8: Lambda1 0.35   Lambda2 0.39999999999999997 [dLambda 0.04999999999999999]
TCL: Setting parameter firsttimestep to 0
TCL: Setting parameter alchLambda to 0.35
Info: NONBONDED TABLE R-SQUARED SPACING: 0.0625
Info: NONBONDED TABLE SIZE: 705 POINTS
TCL: Setting parameter alchLambda2 to 0.39999999999999997
Info: NONBONDED TABLE R-SQUARED SPACING: 0.0625
Info: NONBONDED TABLE SIZE: 705 POINTS
TCL: Running for 1500000 steps
ETITLE: TS BOND ANGLE DIHED IMPRP ELECT VDW BOUNDARY MISC KINETIC TOTAL TEMP POTENTIAL TOTALAVG TEMPAVG PRESSURE GPRESSURE VOLUME PRESSAVG GPRESSAVG
ENERGY: 0 3.4271 3.5106 3.5948 0.0000 -10529.7180 1464.5544 0.0000 0.0000 1727.1993 -7327.4319 298.9394 -9054.6312 -7327.4319 298.9394 392.9746 488.3724 29592.2152 392.9746 488.3724
ENERGY: 300000 5.6234 3.3372 5.1243 0.0000 -10474.9118 1385.6959 0.0000 0.0000 1739.9896 -7335.1414 301.1531 -9075.1310 -7336.6930 303.4446 -397.5620 -311.0234 29778.3832 -146.5491 -75.8483
ENERGY: 600000 3.2436 3.5971 3.6735 0.0000 -10526.0127 1372.2578 0.0000 0.0000 1719.2990 -7423.9417 297.5720 -9143.2406 -7350.6906 302.1367 -648.7983 -544.5268 29729.3353 -175.8539 -109.0791
ENERGY: 900000 5.8424 2.6686 7.3940 0.0000 -10520.5160 1393.1023 0.0000 0.0000 1822.5349 -7288.9738 315.4398 -9111.5087 -7349.9392 303.4395 17.1398 38.7469 29142.0444 -156.7924 -95.2582
ENERGY: 1200000 4.3101 4.5366 6.0132 0.0000 -10594.0414 1424.6086 0.0000 0.0000 1775.0587 -7379.5142 307.2228 -9154.5729 -7352.8402 302.9226 -375.9217 -330.7813 30008.8383 -181.7819 -118.7597
ENERGY: 1500000 5.4102 4.4195 8.9627 0.0000 -10609.8532 1497.3674 0.0000 0.0000 1769.5675 -7324.1259 306.2724 -9093.6934 -7357.3092 302.5799 389.2509 472.8334 30042.0646 -82.5209 -20.4044
TCL: Running FEP window   9: Lambda1 0.39999999999999997 Lambda2 0.44999999999999996 [dLambda 0.04999999999999999]
TCL: Setting parameter firsttimestep to 0
TCL: Setting parameter alchLambda to 0.39999999999999997
Info: NONBONDED TABLE R-SQUARED SPACING: 0.0625
Info: NONBONDED TABLE SIZE: 705 POINTS
TCL: Setting parameter alchLambda2 to 0.44999999999999996
Info: NONBONDED TABLE R-SQUARED SPACING: 0.0625
Info: NONBONDED TABLE SIZE: 705 POINTS
TCL: Running for 1500000 steps
ETITLE: TS BOND ANGLE DIHED IMPRP ELECT VDW BOUNDARY MISC KINETIC TOTAL TEMP POTENTIAL TOTALAVG TEMPAVG PRESSURE GPRESSURE VOLUME PRESSAVG GPRESSAVG
ENERGY: 0 5.4101 4.4195 8.9627 0.0000 -10609.8526 1497.2079 0.0000 0.0000 1768.7451 -7325.1073 306.1300 -9093.8524 -7325.1073 306.1300 380.0162 479.8524 30042.0646 380.0162 479.8524
ENERGY: 300000 3.1570 2.6985 2.4427 0.0000 -10620.0059 1556.4575 0.0000 0.0000 1710.4703 -7344.7799 296.0440 -9055.2502 -7361.2818 297.8114 1265.9939 1306.7238 29575.6284 374.3274 442.2449
ENERGY: 600000 3.2747 4.6438 3.3677 0.0000 -10449.1130 1337.4863 0.0000 0.0000 1746.0725 -7354.2680 302.2059 -9100.3405 -7368.5286 298.3740 -832.9826 -749.5509 30065.5118 158.7356 231.7898
ENERGY: 900000 3.9038 4.2724 3.7028 0.0000 -10536.4202 1455.3154 0.0000 0.0000 1765.7521 -7303.4736 305.6120 -9069.2258 -7362.6780 299.1647 515.6687 553.9769 29768.9796 175.0776 242.7060
ENERGY: 1200000 2.1864 4.8656 5.2885 0.0000 -10533.7863 1417.9798 0.0000 0.0000 1740.6778 -7362.7882 301.2722 -9103.4660 -7356.2551 299.4998 205.1353 235.2935 29607.3512 133.1627 193.1387
ENERGY: 1500000 4.0716 2.2379 4.4441 0.0000 -10347.2509 1285.4632 0.0000 0.0000 1718.1076 -7332.9265 297.3658 -9051.0341 -7360.2799 298.8156 -1016.0146 -962.5244 29905.2490 -27.9764 32.4684
TCL: Running FEP window  10: Lambda1 0.44999999999999996 Lambda2 0.49999999999999994 [dLambda 0.04999999999999999]
TCL: Setting parameter firsttimestep to 0
TCL: Setting parameter alchLambda to 0.44999999999999996
Info: NONBONDED TABLE R-SQUARED SPACING: 0.0625
Info: NONBONDED TABLE SIZE: 705 POINTS
TCL: Setting parameter alchLambda2 to 0.49999999999999994
Info: NONBONDED TABLE R-SQUARED SPACING: 0.0625
Info: NONBONDED TABLE SIZE: 705 POINTS
TCL: Running for 1500000 steps
ETITLE: TS BOND ANGLE DIHED IMPRP ELECT VDW BOUNDARY MISC KINETIC TOTAL TEMP POTENTIAL TOTALAVG TEMPAVG PRESSURE GPRESSURE VOLUME PRESSAVG GPRESSAVG
ENERGY: 0 4.0716 2.2379 4.4441 0.0000 -10347.2519 1285.2861 0.0000 0.0000 1717.2137 -7333.9985 297.2111 -9051.2122 -7333.9985 297.2111 -1044.8892 -957.1827 29905.2490 -1044.8892 -957.1827
ENERGY: 300000 2.1462 3.3476 6.4962 0.0000 -10611.7675 1461.4564 0.0000 0.0000 1795.6836 -7342.6375 310.7925 -9138.3211 -7359.2662 303.0687 580.9877 608.2269 29364.7083 -401.5871 -350.1208
ENERGY: 600000 3.6125 3.2336 3.8370 0.0000 -10588.7448 1525.6740 0.0000 0.0000 1664.4130 -7387.9746 288.0725 -9052.3877 -7377.1519 299.3084 867.0337 913.7258 30202.9588 -177.2972 -128.8567
ENERGY: 900000 2.6197 6.1832 3.4361 0.0000 -10567.1084 1457.6082 0.0000 0.0000 1776.6321 -7320.6292 307.4951 -9097.2612 -7362.3385 300.0723 207.9035 231.1895 30277.5388 -226.5410 -176.5110
ENERGY: 1200000 2.9673 4.2292 4.6020 0.0000 -10381.8599 1381.7382 0.0000 0.0000 1774.2734 -7214.0497 307.0868 -8988.3231 -7353.0208 300.3368 -40.7520 55.3081 29823.2607 -71.8446 -18.6189
ENERGY: 1500000 1.3394 6.3590 8.1338 0.0000 -10502.5252 1391.2018 0.0000 0.0000 1759.4931 -7335.9982 304.5287 -9095.4913 -7355.7281 300.4170 -82.0958 -36.4389 29648.4159 -0.7277 56.2489
TCL: Running FEP window  11: Lambda1 0.49999999999999994 Lambda2 0.5499999999999999 [dLambda 0.04999999999999999]
TCL: Setting parameter firsttimestep to 0
TCL: Setting parameter alchLambda to 0.49999999999999994
Info: NONBONDED TABLE R-SQUARED SPACING: 0.0625
Info: NONBONDED TABLE SIZE: 705 POINTS
TCL: Setting parameter alchLambda2 to 0.5499999999999999
Info: NONBONDED TABLE R-SQUARED SPACING: 0.0625
Info: NONBONDED TABLE SIZE: 705 POINTS
TCL: Running for 1500000 steps
ETITLE: TS BOND ANGLE DIHED IMPRP ELECT VDW BOUNDARY MISC KINETIC TOTAL TEMP POTENTIAL TOTALAVG TEMPAVG PRESSURE GPRESSURE VOLUME PRESSAVG GPRESSAVG
ENERGY: 0 1.3394 6.3590 8.1338 0.0000 -10502.5286 1391.6667 0.0000 0.0000 1758.5899 -7336.4399 304.3724 -9095.0298 -7336.4399 304.3724 -101.8069 -23.8490 29648.4159 -101.8069 -23.8490
ENERGY: 300000 4.0161 3.5703 5.5903 0.0000 -10543.1528 1411.0498 0.0000 0.0000 1755.4127 -7363.5136 303.8225 -9118.9263 -7313.0886 304.0586 38.3292 78.0793 29467.4396 82.9431 130.0146
ENERGY: 600000 4.1117 4.8954 4.4883 0.0000 -10395.8465 1407.6312 0.0000 0.0000 1710.6486 -7264.0713 296.0748 -8974.7198 -7305.3659 303.3955 -50.4817 10.6306 30107.3987 16.1578 72.8476
ENERGY: 900000 7.0318 4.7520 3.6719 0.0000 -10400.7186 1276.3858 0.0000 0.0000 1690.6979 -7418.1792 292.6218 -9108.8771 -7327.2736 301.0015 -1244.3051 -1193.7793 29787.4116 -132.9576 -66.8797
ENERGY: 1200000 4.2019 4.7718 4.2886 0.0000 -10482.3516 1401.5657 0.0000 0.0000 1712.8629 -7354.6607 296.4581 -9067.5236 -7332.0423 300.7478 -114.3574 -86.6924 29938.8098 -124.5156 -67.9600
ENERGY: 1500000 3.1964 6.2129 4.9628 0.0000 -10546.6801 1436.1634 0.0000 0.0000 1789.2613 -7306.8833 309.6809 -9096.1446 -7327.3870 301.9039 226.3302 331.9331 29772.4123 -110.6294 -54.0263
TCL: Running FEP window  12: Lambda1 0.5499999999999999 Lambda2 0.6    [dLambda 0.050000000000000044]
TCL: Setting parameter firsttimestep to 0
TCL: Setting parameter alchLambda to 0.5499999999999999
Info: NONBONDED TABLE R-SQUARED SPACING: 0.0625
Info: NONBONDED TABLE SIZE: 705 POINTS
TCL: Setting parameter alchLambda2 to 0.6
Info: NONBONDED TABLE R-SQUARED SPACING: 0.0625
Info: NONBONDED TABLE SIZE: 705 POINTS
TCL: Running for 1500000 steps
ETITLE: TS BOND ANGLE DIHED IMPRP ELECT VDW BOUNDARY MISC KINETIC TOTAL TEMP POTENTIAL TOTALAVG TEMPAVG PRESSURE GPRESSURE VOLUME PRESSAVG GPRESSAVG
ENERGY: 0 3.1964 6.2129 4.9628 0.0000 -10546.9261 1436.2085 0.0000 0.0000 1788.4548 -7307.8909 309.5413 -9096.3456 -7307.8909 309.5413 249.2204 339.3493 29772.4123 249.2204 339.3493
ENERGY: 300000 3.7443 4.8823 4.4092 0.0000 -10466.6169 1398.7445 0.0000 0.0000 1687.0586 -7367.7781 291.9919 -9054.8367 -7348.0172 298.2204 -232.1854 -155.7241 29903.6097 -111.1892 -20.4018
ENERGY: 600000 5.2330 3.7117 6.3376 0.0000 -10622.7025 1470.6782 0.0000 0.0000 1765.9101 -7370.8319 305.6393 -9136.7420 -7335.3108 301.0425 489.6937 516.3434 29542.9176 -312.7899 -247.1453
ENERGY: 900000 1.5116 8.5918 5.6703 0.0000 -10475.5214 1422.0586 0.0000 0.0000 1781.0200 -7256.6690 308.2545 -9037.6891 -7328.3528 301.7514 381.7698 460.8180 29731.3749 -140.1528 -67.7579
ENERGY: 1200000 7.3167 3.9358 5.0698 0.0000 -10475.3794 1403.0394 0.0000 0.0000 1716.8066 -7339.2112 297.1406 -9056.0178 -7330.1683 302.9170 -131.1280 14.9488 29618.9289 -110.7028 -38.6036
ENERGY: 1500000 3.5655 5.1116 6.5597 0.0000 -10473.9134 1415.6878 0.0000 0.0000 1737.3269 -7305.6619 300.6922 -9042.9888 -7323.9840 302.4617 170.8739 218.2055 29707.1236 -159.8946 -90.7321
TCL: Running FEP window  13: Lambda1 0.6    Lambda2 0.65   [dLambda 0.050000000000000044]
TCL: Setting parameter firsttimestep to 0
TCL: Setting parameter alchLambda to 0.6
Info: NONBONDED TABLE R-SQUARED SPACING: 0.0625
Info: NONBONDED TABLE SIZE: 705 POINTS
TCL: Setting parameter alchLambda2 to 0.65
Info: NONBONDED TABLE R-SQUARED SPACING: 0.0625
Info: NONBONDED TABLE SIZE: 705 POINTS
TCL: Running for 1500000 steps
ETITLE: TS BOND ANGLE DIHED IMPRP ELECT VDW BOUNDARY MISC KINETIC TOTAL TEMP POTENTIAL TOTALAVG TEMPAVG PRESSURE GPRESSURE VOLUME PRESSAVG GPRESSAVG
ENERGY: 0 3.5655 5.1116 6.5597 0.0000 -10474.3406 1415.8642 0.0000 0.0000 1736.4480 -7306.7916 300.5401 -9043.2396 -7306.7916 300.5401 143.6280 225.0683 29707.1236 143.6280 225.0683
ENERGY: 300000 4.3262 2.5626 6.5016 0.0000 -10404.9663 1332.7250 0.0000 0.0000 1707.5940 -7351.2569 295.5461 -9058.8509 -7336.1219 299.9053 -674.4617 -620.9670 29925.7715 -9.0412 53.0315
ENERGY: 600000 1.5582 2.1906 6.6081 0.0000 -10465.3768 1374.3448 0.0000 0.0000 1724.7739 -7355.9013 298.5196 -9080.6752 -7334.0704 300.0156 -262.1746 -232.5697 30152.0737 -0.3347 56.8940
ENERGY: 900000 5.2063 3.1604 8.9238 0.0000 -10599.1181 1492.5686 0.0000 0.0000 1705.0402 -7384.2187 295.1041 -9089.2590 -7336.4492 300.3440 591.3450 628.9723 29810.9316 -13.6136 43.1413
ENERGY: 1200000 5.5922 9.2237 6.2716 0.0000 -10418.6345 1333.4367 0.0000 0.0000 1728.8822 -7335.2281 299.2306 -9064.1103 -7335.6136 299.9476 -737.6791 -732.4370 30101.9044 -198.2788 -140.6565
ENERGY: 1500000 3.3690 7.0629 2.7784 0.0000 -10430.8392 1328.5013 0.0000 0.0000 1721.3069 -7367.8206 297.9195 -9089.1276 -7335.5193 300.8081 -882.1085 -825.5246 30288.1990 -206.7194 -139.6905
TCL: Running FEP window  14: Lambda1 0.65   Lambda2 0.7000000000000001 [dLambda 0.050000000000000044]
TCL: Setting parameter firsttimestep to 0
TCL: Setting parameter alchLambda to 0.65
Info: NONBONDED TABLE R-SQUARED SPACING: 0.0625
Info: NONBONDED TABLE SIZE: 705 POINTS
TCL: Setting parameter alchLambda2 to 0.7000000000000001
Info: NONBONDED TABLE R-SQUARED SPACING: 0.0625
Info: NONBONDED TABLE SIZE: 705 POINTS
TCL: Running for 1500000 steps
ETITLE: TS BOND ANGLE DIHED IMPRP ELECT VDW BOUNDARY MISC KINETIC TOTAL TEMP POTENTIAL TOTALAVG TEMPAVG PRESSURE GPRESSURE VOLUME PRESSAVG GPRESSAVG
ENERGY: 0 3.3690 7.0629 2.7784 0.0000 -10431.0947 1328.1852 0.0000 0.0000 1720.4634 -7369.2358 297.7735 -9089.6992 -7369.2358 297.7735 -896.2500 -821.7026 30288.1990 -896.2500 -821.7026
ENERGY: 300000 6.8169 4.8979 5.8067 0.0000 -10449.6946 1350.8647 0.0000 0.0000 1664.0242 -7417.2843 288.0052 -9081.3085 -7360.0203 297.2273 -931.2841 -873.5243 30488.2886 -375.2198 -309.8235
ENERGY: 600000 4.6797 4.6077 3.9845 0.0000 -10466.7453 1354.9481 0.0000 0.0000 1733.8722 -7364.6531 300.0943 -9098.5253 -7359.6733 298.4233 -628.3963 -612.4271 29977.2233 -328.0197 -270.7809
ENERGY: 900000 2.1035 5.2900 3.7633 0.0000 -10528.1464 1425.9913 0.0000 0.0000 1759.0078 -7331.9906 304.4447 -9090.9983 -7363.0538 299.5979 134.7419 213.5645 30029.9466 -166.0552 -107.0764
ENERGY: 1200000 2.6507 3.5916 6.7416 0.0000 -10535.5660 1430.2800 0.0000 0.0000 1751.1616 -7341.1406 303.0867 -9092.3021 -7362.3561 299.9598 -186.5278 -157.0538 30224.8614 -166.3815 -111.6429
ENERGY: 1500000 1.2975 4.6918 1.9257 0.0000 -10446.9154 1377.3028 0.0000 0.0000 1736.8063 -7324.8913 300.6021 -9061.6976 -7352.2919 300.3080 119.0032 234.3666 29467.0055 -89.2999 -30.1858
TCL: Running FEP window  15: Lambda1 0.7000000000000001 Lambda2 0.7500000000000001 [dLambda 0.050000000000000044]
TCL: Setting parameter firsttimestep to 0
TCL: Setting parameter alchLambda to 0.7000000000000001
Info: NONBONDED TABLE R-SQUARED SPACING: 0.0625
Info: NONBONDED TABLE SIZE: 705 POINTS
TCL: Setting parameter alchLambda2 to 0.7500000000000001
Info: NONBONDED TABLE R-SQUARED SPACING: 0.0625
Info: NONBONDED TABLE SIZE: 705 POINTS
TCL: Running for 1500000 steps
ETITLE: TS BOND ANGLE DIHED IMPRP ELECT VDW BOUNDARY MISC KINETIC TOTAL TEMP POTENTIAL TOTALAVG TEMPAVG PRESSURE GPRESSURE VOLUME PRESSAVG GPRESSAVG
ENERGY: 0 1.2975 4.6918 1.9257 0.0000 -10448.1622 1377.8400 0.0000 0.0000 1735.9578 -7326.4495 300.4553 -9062.4073 -7326.4495 300.4553 151.3886 248.0931 29467.0055 151.3886 248.0931
ENERGY: 300000 5.6172 2.5996 4.2200 0.0000 -10545.6808 1411.5082 0.0000 0.0000 1790.1263 -7331.6095 309.8306 -9121.7358 -7332.1202 304.4467 -260.1400 -182.6693 29816.8535 195.6845 270.5513
ENERGY: 600000 3.3344 4.3827 8.6856 0.0000 -10412.6395 1320.0361 0.0000 0.0000 1703.7155 -7372.4852 294.8749 -9076.2007 -7341.9794 302.8091 -837.6454 -771.5943 29880.9809 -94.5798 -28.3161
ENERGY: 900000 6.1195 5.3779 3.8558 0.0000 -10617.2250 1483.8140 0.0000 0.0000 1744.2534 -7373.8043 301.8911 -9118.0577 -7348.0407 302.3723 310.3303 421.6355 29913.6330 9.0595 72.8039
ENERGY: 1200000 1.1864 6.9688 3.0686 0.0000 -10518.4292 1425.8187 0.0000 0.0000 1675.1455 -7406.2410 289.9300 -9081.3866 -7348.3314 300.9590 -155.6684 -67.0748 30299.9633 72.3122 137.5142
ENERGY: 1500000 5.4999 8.4058 3.7423 0.0000 -10495.6750 1421.1791 0.0000 0.0000 1772.9364 -7283.9114 306.8554 -9056.8477 -7341.9163 300.9717 78.7023 39.9951 29948.3111 18.4780 72.7298
TCL: Running FEP window  16: Lambda1 0.7500000000000001 Lambda2 0.8000000000000002 [dLambda 0.050000000000000044]
TCL: Setting parameter firsttimestep to 0
TCL: Setting parameter alchLambda to 0.7500000000000001
Info: NONBONDED TABLE R-SQUARED SPACING: 0.0625
Info: NONBONDED TABLE SIZE: 705 POINTS
TCL: Setting parameter alchLambda2 to 0.8000000000000002
Info: NONBONDED TABLE R-SQUARED SPACING: 0.0625
Info: NONBONDED TABLE SIZE: 705 POINTS
TCL: Running for 1500000 steps
ETITLE: TS BOND ANGLE DIHED IMPRP ELECT VDW BOUNDARY MISC KINETIC TOTAL TEMP POTENTIAL TOTALAVG TEMPAVG PRESSURE GPRESSURE VOLUME PRESSAVG GPRESSAVG
ENERGY: 0 5.4999 8.4058 3.7424 0.0000 -10496.8568 1421.0286 0.0000 0.0000 1772.0509 -7286.1293 306.7022 -9058.1802 -7286.1293 306.7022 -34.4150 45.9212 29948.3111 -34.4150 45.9212
ENERGY: 300000 6.2497 3.2654 3.8418 0.0000 -10547.4743 1416.0094 0.0000 0.0000 1669.4173 -7448.6907 288.9386 -9118.1080 -7343.3715 298.1374 -242.1065 -75.2278 29897.3601 -413.1378 -318.1779
ENERGY: 600000 2.4551 3.1336 8.3099 0.0000 -10363.0033 1327.2702 0.0000 0.0000 1757.6767 -7264.1578 304.2143 -9021.8345 -7336.9041 298.4445 -399.1808 -399.9938 29947.4580 -356.5449 -284.7274
ENERGY: 900000 4.1686 4.3916 5.5735 0.0000 -10557.6306 1487.3869 0.0000 0.0000 1719.4179 -7336.6921 297.5926 -9056.1100 -7324.1773 299.0322 678.3993 768.9462 29916.9468 -209.2463 -129.9642
ENERGY: 1200000 3.4116 4.8078 4.7837 0.0000 -10517.7369 1435.7284 0.0000 0.0000 1747.3279 -7321.6777 302.4232 -9069.0055 -7323.7245 300.5658 151.9400 227.0900 29808.4428 -220.6673 -142.2072
ENERGY: 1500000 5.6420 1.8974 4.5600 0.0000 -10442.6917 1375.7526 0.0000 0.0000 1690.7067 -7364.1329 292.6233 -9054.8396 -7331.6780 300.2243 -591.2080 -498.7145 30418.9570 -289.6449 -215.5424
TCL: Running FEP window  17: Lambda1 0.8000000000000002 Lambda2 0.8500000000000002 [dLambda 0.050000000000000044]
TCL: Setting parameter firsttimestep to 0
TCL: Setting parameter alchLambda to 0.8000000000000002
Info: NONBONDED TABLE R-SQUARED SPACING: 0.0625
Info: NONBONDED TABLE SIZE: 705 POINTS
TCL: Setting parameter alchLambda2 to 0.8500000000000002
Info: NONBONDED TABLE R-SQUARED SPACING: 0.0625
Info: NONBONDED TABLE SIZE: 705 POINTS
TCL: Running for 1500000 steps
ETITLE: TS BOND ANGLE DIHED IMPRP ELECT VDW BOUNDARY MISC KINETIC TOTAL TEMP POTENTIAL TOTALAVG TEMPAVG PRESSURE GPRESSURE VOLUME PRESSAVG GPRESSAVG
ENERGY: 0 5.6420 1.8974 4.5600 0.0000 -10444.4969 1377.5267 0.0000 0.0000 1689.8755 -7364.9953 292.4795 -9054.8707 -7364.9953 292.4795 -550.7753 -471.9246 30418.9570 -550.7753 -471.9246
ENERGY: 300000 6.6918 4.6674 4.4627 0.0000 -10448.7511 1393.5760 0.0000 0.0000 1770.6105 -7268.7427 306.4529 -9039.3533 -7338.5975 300.8787 -277.1521 -245.6097 30253.0539 -141.1799 -78.1939
ENERGY: 600000 1.0964 1.9430 3.3084 0.0000 -10685.6618 1553.1927 0.0000 0.0000 1708.8136 -7417.3077 295.7572 -9126.1213 -7342.1272 301.9061 1108.5319 1111.7415 29809.4887 95.0782 140.9790
ENERGY: 900000 3.0302 3.4337 2.2838 0.0000 -10448.0514 1386.2921 0.0000 0.0000 1695.9326 -7357.0791 293.5278 -9053.0117 -7357.2257 301.0370 -326.1060 -186.8863 30251.6183 25.7345 88.9816
ENERGY: 1200000 2.9945 7.1724 3.3971 0.0000 -10501.3405 1435.4926 0.0000 0.0000 1731.7034 -7320.5806 299.7189 -9052.2840 -7360.5815 300.1992 -30.6707 138.1747 30050.7289 96.7066 167.7910
ENERGY: 1500000 4.1352 8.2258 3.5220 0.0000 -10530.8121 1402.4082 0.0000 0.0000 1682.9356 -7429.5853 291.2783 -9112.5209 -7366.2150 299.1773 -210.9660 -130.9446 29860.6581 37.5059 108.1462
TCL: Running FEP window  18: Lambda1 0.8500000000000002 Lambda2 0.9000000000000002 [dLambda 0.050000000000000044]
TCL: Setting parameter firsttimestep to 0
TCL: Setting parameter alchLambda to 0.8500000000000002
Info: NONBONDED TABLE R-SQUARED SPACING: 0.0625
Info: NONBONDED TABLE SIZE: 705 POINTS
TCL: Setting parameter alchLambda2 to 0.9000000000000002
Info: NONBONDED TABLE R-SQUARED SPACING: 0.0625
Info: NONBONDED TABLE SIZE: 705 POINTS
TCL: Running for 1500000 steps
ETITLE: TS BOND ANGLE DIHED IMPRP ELECT VDW BOUNDARY MISC KINETIC TOTAL TEMP POTENTIAL TOTALAVG TEMPAVG PRESSURE GPRESSURE VOLUME PRESSAVG GPRESSAVG
ENERGY: 0 4.1352 8.2258 3.5220 0.0000 -10532.1774 1402.4925 0.0000 0.0000 1682.0913 -7431.7106 291.1322 -9113.8019 -7431.7106 291.1322 -213.1314 -119.6902 29860.6581 -213.1314 -119.6902
ENERGY: 300000 3.2968 5.9977 5.4384 0.0000 -10432.5808 1320.8373 0.0000 0.0000 1694.3975 -7402.6131 293.2621 -9097.0106 -7388.1024 297.7030 -1085.7874 -1020.5668 30515.5354 -217.6546 -143.7697
ENERGY: 600000 4.6006 4.3216 4.7501 0.0000 -10506.1655 1440.7074 0.0000 0.0000 1729.6335 -7322.1523 299.3607 -9051.7858 -7374.6176 296.8184 311.3971 344.9363 29994.1964 -170.1856 -105.4828
ENERGY: 900000 3.5898 3.8843 3.7468 0.0000 -10430.2746 1349.9994 0.0000 0.0000 1793.5737 -7275.4806 310.4273 -9069.0542 -7357.0588 298.9447 -149.8812 -87.7986 29550.3363 -29.5268 38.1789
ENERGY: 1200000 4.1417 2.7748 2.4665 0.0000 -10634.5220 1490.9449 0.0000 0.0000 1724.8875 -7409.3065 298.5393 -9134.1940 -7358.5610 299.6603 254.1757 384.1793 29839.4284 -33.8941 40.4825
ENERGY: 1500000 2.7670 5.7578 4.0910 0.0000 -10482.4256 1422.3794 0.0000 0.0000 1754.9478 -7292.4828 303.7420 -9047.4305 -7354.1467 300.7109 130.5693 168.7864 30149.2798 -31.9292 32.1669
TCL: Running FEP window  19: Lambda1 0.9000000000000002 Lambda2 0.9500000000000003 [dLambda 0.050000000000000044]
TCL: Setting parameter firsttimestep to 0
TCL: Setting parameter alchLambda to 0.9000000000000002
Info: NONBONDED TABLE R-SQUARED SPACING: 0.0625
Info: NONBONDED TABLE SIZE: 705 POINTS
TCL: Setting parameter alchLambda2 to 0.9500000000000003
Info: NONBONDED TABLE R-SQUARED SPACING: 0.0625
Info: NONBONDED TABLE SIZE: 705 POINTS
TCL: Running for 1500000 steps
ETITLE: TS BOND ANGLE DIHED IMPRP ELECT VDW BOUNDARY MISC KINETIC TOTAL TEMP POTENTIAL TOTALAVG TEMPAVG PRESSURE GPRESSURE VOLUME PRESSAVG GPRESSAVG
ENERGY: 0 2.7670 5.7578 4.0910 0.0000 -10484.4648 1422.4339 0.0000 0.0000 1754.0863 -7295.3288 303.5929 -9049.4151 -7295.3288 303.5929 97.0028 176.3942 30149.2798 97.0028 176.3942
ENERGY: 300000 5.7598 5.5408 4.2627 0.0000 -10495.7185 1410.7973 0.0000 0.0000 1651.8000 -7417.5580 285.8894 -9069.3580 -7373.9563 293.0395 4.4856 65.3983 29902.0506 -266.9980 -193.7772
ENERGY: 600000 4.6544 5.8293 3.0582 0.0000 -10514.6975 1419.5600 0.0000 0.0000 1716.9433 -7364.6522 297.1643 -9081.5955 -7381.6044 293.9672 342.0150 420.4730 29703.8271 -183.9281 -109.8277
ENERGY: 900000 3.1397 4.1367 9.1207 0.0000 -10453.9030 1316.4478 0.0000 0.0000 1756.6583 -7364.3998 304.0381 -9121.0581 -7375.8522 297.1628 -1123.9010 -1104.0051 30086.6932 -270.2396 -199.1696
ENERGY: 1200000 1.8594 5.6999 3.5839 0.0000 -10310.4278 1341.7912 0.0000 0.0000 1684.8246 -7272.6688 291.6053 -8957.4933 -7363.7763 297.9176 -169.2703 -69.9065 30123.7580 -213.5328 -143.5085
ENERGY: 1500000 3.4969 6.0327 7.9548 0.0000 -10404.4259 1359.3300 0.0000 0.0000 1733.2903 -7294.3213 299.9936 -9027.6115 -7355.2420 299.2974 -410.4156 -359.0858 30292.2145 -226.1939 -159.7811
TCL: Running FEP window  20: Lambda1 0.9500000000000003 Lambda2 1.0    [dLambda 0.04999999999999971]
TCL: Setting parameter firsttimestep to 0
TCL: Setting parameter alchLambda to 0.9500000000000003
Info: NONBONDED TABLE R-SQUARED SPACING: 0.0625
Info: NONBONDED TABLE SIZE: 705 POINTS
TCL: Setting parameter alchLambda2 to 1.0
Info: NONBONDED TABLE R-SQUARED SPACING: 0.0625
Info: NONBONDED TABLE SIZE: 705 POINTS
TCL: Running for 1500000 steps
ETITLE: TS BOND ANGLE DIHED IMPRP ELECT VDW BOUNDARY MISC KINETIC TOTAL TEMP POTENTIAL TOTALAVG TEMPAVG PRESSURE GPRESSURE VOLUME PRESSAVG GPRESSAVG
ENERGY: 0 3.4969 6.0327 7.9548 0.0000 -10406.1026 1359.7321 0.0000 0.0000 1732.4115 -7296.4747 299.8415 -9028.8862 -7296.4747 299.8415 -427.0640 -345.2405 30292.2145 -427.0640 -345.2405
ENERGY: 300000 3.6331 2.5825 5.0583 0.0000 -10389.8344 1344.0931 0.0000 0.0000 1797.7191 -7236.7482 311.1448 -9034.4673 -7313.7207 301.4438 -289.4393 -254.4381 29820.8637 -115.7990 -60.5027
ENERGY: 600000 5.7120 4.5368 5.6104 0.0000 -10502.0454 1386.4978 0.0000 0.0000 1713.6911 -7385.9972 296.6014 -9099.6884 -7344.3463 298.5610 -476.3012 -367.4133 30156.8101 -200.8282 -136.9177
ENERGY: 900000 2.2377 4.7162 7.8767 0.0000 -10594.0294 1490.4899 0.0000 0.0000 1730.1748 -7358.5342 299.4544 -9088.7089 -7332.2128 300.2921 638.5598 666.8196 30018.2431 -262.6287 -208.8279
ENERGY: 1200000 2.1989 6.5581 6.9607 0.0000 -10455.7473 1424.6787 0.0000 0.0000 1734.2690 -7281.0818 300.1630 -9015.3508 -7331.3673 299.8206 605.3420 662.4549 29273.7055 -176.0162 -116.4284
ENERGY: 1500000 3.6326 2.2837 6.3466 0.0000 -10392.6341 1349.1323 0.0000 0.0000 1702.4519 -7328.7870 294.6561 -9031.2389 -7333.5687 299.8287 -571.2486 -456.8656 30324.0636 -155.7775 -95.6405
TCL: Exiting due to exit command.
