Info: SIMULATION PARAMETERS:
Info: TIMESTEP               2
Info: NUMBER OF STEPS        0
Info: STEPS PER CYCLE        10
Info: PERIODIC CELL BASIS 1  32.4144 0 0
Info: PERIODIC CELL BASIS 2  0 32.565 0
Info: PERIODIC CELL BASIS 3  0 0 29.3104
Info: PERIODIC CELL CENTER   0 0 0
Info: WRAPPING WATERS AROUND PERIODIC BOUNDARIES ON OUTPUT.
Info: WRAPPING ALL CLUSTERS AROUND PERIODIC BOUNDARIES ON OUTPUT.
Info: FIRST LDB TIMESTEP     50
Info: LAST LDB TIMESTEP     -1
Info: HOM BACKGROUND SCALING 1
Info: PME BACKGROUND SCALING 1
Info: MIN ATOMS PER PATCH    40
Info: EMPTY PATCH LOAD       40 ATOMS
Info: VELOCITY FILE          mobley_7039935_equil.vel
Info: CENTER OF MASS MOVING INITIALLY? NO
Info: DIELECTRIC             1
Info: EXCLUDE                SCALED ONE-FOUR
Info: 1-4 ELECTROSTATICS SCALED BY 0.833333
Info: MODIFIED 1-4 VDW PARAMETERS WILL BE USED
Info: DCD FILENAME           mobley_7039935_prod.dcd
Info: DCD FREQUENCY          100000
Info: DCD FIRST STEP         100000
Info: DCD FILE WILL CONTAIN UNIT CELL DATA
Info: XST FILENAME           mobley_7039935_prod.xst
Info: XST FREQUENCY          100000
Info: NO VELOCITY DCD OUTPUT
Info: NO FORCE DCD OUTPUT
Info: OUTPUT FILENAME        mobley_7039935_prod
Info: BINARY OUTPUT FILES WILL BE USED
Info: RESTART FILENAME       mobley_7039935_prod.restart
Info: RESTART FREQUENCY      100000
Info: BINARY RESTART FILES WILL BE USED
Info: CUTOFF                 9
Info: PAIRLIST DISTANCE      11
Info: PAIRLIST SHRINK RATE   0.01
Info: PAIRLIST GROW RATE     0.01
Info: PAIRLIST TRIGGER       0.3
Info: PAIRLISTS PER CYCLE    2
Info: PAIRLISTS ENABLED
Info: MARGIN                 2
Info: HYDROGEN GROUP CUTOFF  2.5
Info: PATCH DIMENSION        15.5
Info: ENERGY OUTPUT STEPS    100000
Info: ENERGY EVALUATION STEPS    100000
Info: OUTPUT ENERGY PRECISION 4
Info: CROSSTERM ENERGY INCLUDED IN DIHEDRAL
Info: TIMING OUTPUT STEPS    1000000
Info: PRESSURE OUTPUT STEPS  100000
Info: ALCHEMICAL FEP ON
Info: FEP CURRENT LAMBDA VALUE     1
Info: FEP COMPARISON LAMBDA VALUE  0.95
Info: FEP INTRA-ALCHEMICAL NON-BONDED INTERACTIONS WILL BE RETAINED
Info: FEP INTRA-ALCHEMICAL BONDED INTERACTIONS WILL BE RETAINED
Info: FEP VDW SHIFTING COEFFICIENT 5
Info: FEP ELEC. ACTIVE FOR ANNIHILATED PARTICLES BETWEEN LAMBDA = 0 AND LAMBDA = 0.5
Info: FEP ELEC. ACTIVE FOR EXNIHILATED PARTICLES BETWEEN LAMBDA = 0.5 AND LAMBDA = 1
Info: FEP VDW ACTIVE FOR ANNIHILATED PARTICLES BETWEEN LAMBDA = 0 AND LAMBDA = 1
Info: FEP VDW ACTIVE FOR EXNIHILATED PARTICLES BETWEEN LAMBDA = 0 AND LAMBDA = 1
Info: FEP BOND ACTIVE FOR ANNIHILATED PARTICLES BETWEEN LAMBDA = 1 AND LAMBDA = 1
Info: FEP BOND ACTIVE FOR EXNIHILATED PARTICLES BETWEEN LAMBDA = 0 AND LAMBDA = 0
Info: LANGEVIN DYNAMICS ACTIVE
Info: LANGEVIN TEMPERATURE   300
Info: LANGEVIN USING BBK INTEGRATOR
Info: LANGEVIN DAMPING COEFFICIENT IS 1 INVERSE PS
Info: LANGEVIN DYNAMICS APPLIED TO HYDROGENS
Info: LANGEVIN PISTON PRESSURE CONTROL ACTIVE
Info:        TARGET PRESSURE IS 1.01325 BAR
Info:     OSCILLATION PERIOD IS 50 FS
Info:             DECAY TIME IS 25 FS
Info:     PISTON TEMPERATURE IS 300 K
Info:       PRESSURE CONTROL IS GROUP-BASED
Info:    INITIAL STRAIN RATE IS 0.000380673 0.000380673 0.000380673
Info:       CELL FLUCTUATION IS ISOTROPIC
Info: PARTICLE MESH EWALD (PME) ACTIVE
Info: PME TOLERANCE               1e-06
Info: PME EWALD COEFFICIENT       0.348832
Info: PME INTERPOLATION ORDER     4
Info: PME GRID DIMENSIONS         36 36 32
Info: PME MAXIMUM GRID SPACING    1
Info: PME CALCULATION WILL BE PERFORMED ON GPU
Info: FULL ELECTROSTATIC EVALUATION FREQUENCY      2
Info: USING VERLET I (r-RESPA) MTS SCHEME.
Info: C1 SPLITTING OF LONG RANGE ELECTROSTATICS
Info: PLACING ATOMS IN PATCHES BY HYDROGEN GROUPS
Info: RIGID BONDS TO HYDROGEN : ALL
Info:         ERROR TOLERANCE : 1e-08
Info:          MAX ITERATIONS : 100
Info: RIGID WATER USING SETTLE ALGORITHM
Info: RANDOM NUMBER SEED     1743629886
Info: USE HYDROGEN BONDS?    NO
Info: Using AMBER format force field!
Info: AMBER PARM FILE        mobley_7039935.prmtop
Info: COORDINATE PDB         mobley_7039935.pdb
Info: Exclusions will be read from PARM file!
Info: SCNB (VDW SCALING)     2
Info: USING ARITHMETIC MEAN TO COMBINE L-J SIGMA PARAMETERS
Info: BINARY COORDINATES     mobley_7039935_equil.coor
Info: SUMMARY OF PARAMETERS:
Info: 6 BONDS
Info: 4 ANGLES
Info:   4 HARMONIC
Info:   0 COSINE-BASED
Info: 3 DIHEDRAL
Info: 0 IMPROPER
Info: 0 CROSSTERM
Info: 0 VDW
Info: 15 VDW_PAIRS
Info: 0 NBTHOLE_PAIRS
Info: To read alchdata from file: mobley_7039935.pdb
Info: To read alchflag data from column: 5
Info: STRUCTURE SUMMARY:
Info: 2947 ATOMS
Info: 2948 BONDS
Info: 31 ANGLES
Info: 56 DIHEDRALS
Info: 0 IMPROPERS
Info: 0 CROSSTERMS
Info: 3019 EXCLUSIONS
Info: 2936 RIGID BONDS
Info: ALCH: 0 ATOMS TO DISAPPEAR IN FINAL STATE
Info: ALCH: 19 ATOMS TO APPEAR IN FINAL STATE
Info: 5905 DEGREES OF FREEDOM
Info: 987 HYDROGEN GROUPS
Info: 3 ATOMS IN LARGEST HYDROGEN GROUP
Info: 987 MIGRATION GROUPS
Info: 3 ATOMS IN LARGEST MIGRATION GROUP
Info: TOTAL MASS = 17727.8 amu
Info: TOTAL CHARGE = 0.00019999 e
Info: MASS DENSITY = 0.951487 g/cm^3
Info: ATOM DENSITY = 0.095251 atoms/A^3
Info: ADDED 0 IMPLICIT EXCLUSIONS
Info: NONBONDED TABLE R-SQUARED SPACING: 0.0625
Info: NONBONDED TABLE SIZE: 705 POINTS
Info: REDUCING NUMBER OF PATCHES TO IMPROVE LOAD BALANCE
Info: REMOVING COM VELOCITY 0.0714369 0.12735 -0.136958
Info: Use 3D box decompostion in PME FFT.
Info: Updated CUDA force table with 4096 elements.
Info: Updated CUDA LJ table with 5 x 5 elements.
Info: Found 20 unique exclusion lists needing 52 bytes
TCL: Running for 1500000 steps
ETITLE: TS BOND ANGLE DIHED IMPRP ELECT VDW BOUNDARY MISC KINETIC TOTAL TEMP POTENTIAL TOTALAVG TEMPAVG PRESSURE GPRESSURE VOLUME PRESSAVG GPRESSAVG
ENERGY: 0 2.6654 3.5805 5.0143 0.0000 -10632.0738 1389.1461 0.0000 0.0000 1765.4098 -7466.2578 300.8957 -9231.6675 -7466.2578 300.8957 -439.1349 -349.0291 30939.3041 -439.1349 -349.0291
ENERGY: 300000 2.4559 2.3294 2.8351 0.0000 -10674.5297 1431.3585 0.0000 0.0000 1795.3702 -7440.1806 306.0022 -9235.5508 -7501.4543 303.5557 70.4950 89.5825 30511.4159 142.8150 196.2966
ENERGY: 600000 2.8324 3.3300 4.9471 0.0000 -10586.8291 1379.6684 0.0000 0.0000 1746.0287 -7450.0225 297.5924 -9196.0512 -7478.9506 300.6746 -526.2167 -447.1151 30647.2306 -10.7703 53.7817
ENERGY: 900000 5.0229 7.8493 2.0171 0.0000 -10674.1458 1492.3487 0.0000 0.0000 1820.3545 -7346.5533 310.2605 -9166.9078 -7469.1677 301.3463 967.2420 1021.4595 30533.7024 -18.0801 45.5648
ENERGY: 1200000 4.0402 4.2277 4.8115 0.0000 -10493.2063 1303.2234 0.0000 0.0000 1787.9730 -7388.9305 304.7414 -9176.9035 -7463.5180 301.6181 -675.9646 -638.8421 30332.0284 -44.6770 10.0012
ENERGY: 1500000 3.2249 7.6934 4.3282 0.0000 -10557.0929 1359.1900 0.0000 0.0000 1775.7033 -7406.9531 302.6501 -9182.6564 -7466.4545 301.4318 -510.5849 -478.1936 30603.8749 -82.6462 -25.9018
TCL: Running FEP window   2: Lambda1 0.95   Lambda2 0.8999999999999999 [dLambda -0.050000000000000044]
TCL: Setting parameter firsttimestep to 0
TCL: Setting parameter alchLambda to 0.95
Info: NONBONDED TABLE R-SQUARED SPACING: 0.0625
Info: NONBONDED TABLE SIZE: 705 POINTS
TCL: Setting parameter alchLambda2 to 0.8999999999999999
Info: NONBONDED TABLE R-SQUARED SPACING: 0.0625
Info: NONBONDED TABLE SIZE: 705 POINTS
TCL: Running for 1500000 steps
ETITLE: TS BOND ANGLE DIHED IMPRP ELECT VDW BOUNDARY MISC KINETIC TOTAL TEMP POTENTIAL TOTALAVG TEMPAVG PRESSURE GPRESSURE VOLUME PRESSAVG GPRESSAVG
ENERGY: 0 3.2249 7.6934 4.3282 0.0000 -10555.8793 1359.6328 0.0000 0.0000 1774.8581 -7406.1418 302.5061 -9181.0000 -7406.1418 302.5061 -576.9168 -486.7353 30603.8749 -576.9168 -486.7353
ENERGY: 300000 4.7010 3.7238 4.8379 0.0000 -10721.2686 1441.6328 0.0000 0.0000 1824.4882 -7441.8849 310.9650 -9266.3731 -7432.9984 308.0989 -171.8976 -86.9449 30451.1863 25.3051 93.5770
ENERGY: 600000 4.0373 4.0721 6.0672 0.0000 -10764.0069 1523.5128 0.0000 0.0000 1750.7968 -7475.5206 298.4051 -9226.3175 -7436.3710 304.4058 440.7603 517.2557 30379.5439 -70.3503 6.1505
ENERGY: 900000 2.8108 3.4270 1.7515 0.0000 -10559.1071 1382.4181 0.0000 0.0000 1759.6987 -7409.0012 299.9223 -9168.6998 -7432.3983 303.6684 -312.7232 -252.4933 30712.1680 -61.3925 21.3976
ENERGY: 1200000 4.1764 6.8783 1.8206 0.0000 -10644.8004 1420.4183 0.0000 0.0000 1762.9808 -7448.5260 300.4817 -9211.5068 -7446.3349 302.5123 317.9627 368.7521 30106.1879 -7.3881 80.2755
ENERGY: 1500000 3.0929 3.3768 8.9393 0.0000 -10554.5075 1352.6417 0.0000 0.0000 1739.5897 -7446.8672 296.4949 -9186.4568 -7446.1695 301.7145 -571.3241 -494.6600 30511.1053 -23.0505 66.5661
TCL: Running FEP window   3: Lambda1 0.8999999999999999 Lambda2 0.8499999999999999 [dLambda -0.050000000000000044]
TCL: Setting parameter firsttimestep to 0
TCL: Setting parameter alchLambda to 0.8999999999999999
Info: NONBONDED TABLE R-SQUARED SPACING: 0.0625
Info: NONBONDED TABLE SIZE: 705 POINTS
TCL: Setting parameter alchLambda2 to 0.8499999999999999
Info: NONBONDED TABLE R-SQUARED SPACING: 0.0625
Info: NONBONDED TABLE SIZE: 705 POINTS
TCL: Running for 1500000 steps
ETITLE: TS BOND ANGLE DIHED IMPRP ELECT VDW BOUNDARY MISC KINETIC TOTAL TEMP POTENTIAL TOTALAVG TEMPAVG PRESSURE GPRESSURE VOLUME PRESSAVG GPRESSAVG
ENERGY: 0 3.0929 3.3768 8.9393 0.0000 -10552.6215 1352.8211 0.0000 0.0000 1738.7130 -7445.6785 296.3455 -9184.3915 -7445.6785 296.3455 -593.3415 -501.3022 30511.1053 -593.3415 -501.3022
ENERGY: 300000 2.0623 3.0163 4.8279 0.0000 -10621.2775 1417.8698 0.0000 0.0000 1747.6575 -7445.8438 297.8700 -9193.5013 -7463.6730 295.9634 -87.2799 -59.2570 30392.9071 -78.7664 -23.3324
ENERGY: 600000 6.1456 5.6403 2.9328 0.0000 -10669.1839 1473.8379 0.0000 0.0000 1779.5859 -7401.0414 303.3119 -9180.6273 -7474.1024 297.7019 497.9885 580.0279 30422.3435 -86.9099 -33.9052
ENERGY: 900000 3.0981 3.9314 7.7670 0.0000 -10603.2876 1366.3188 0.0000 0.0000 1734.8938 -7487.2784 295.6946 -9222.1723 -7479.0176 298.8621 -469.5339 -339.9280 30270.7279 -138.5888 -70.5128
ENERGY: 1200000 6.8493 3.9289 3.9955 0.0000 -10726.4836 1466.1658 0.0000 0.0000 1848.3869 -7397.1572 315.0383 -9245.5440 -7471.3660 300.0221 198.9612 236.2833 30130.6704 -121.3754 -56.4250
ENERGY: 1500000 8.9634 4.7300 6.8773 0.0000 -10822.8522 1467.7179 0.0000 0.0000 1768.7264 -7565.8373 301.4610 -9334.5636 -7473.2655 300.7072 -476.9616 -452.7932 30430.4352 -124.3387 -55.6762
TCL: Running FEP window   4: Lambda1 0.8499999999999999 Lambda2 0.7999999999999998 [dLambda -0.050000000000000044]
TCL: Setting parameter firsttimestep to 0
TCL: Setting parameter alchLambda to 0.8499999999999999
Info: NONBONDED TABLE R-SQUARED SPACING: 0.0625
Info: NONBONDED TABLE SIZE: 705 POINTS
TCL: Setting parameter alchLambda2 to 0.7999999999999998
Info: NONBONDED TABLE R-SQUARED SPACING: 0.0625
Info: NONBONDED TABLE SIZE: 705 POINTS
TCL: Running for 1500000 steps
ETITLE: TS BOND ANGLE DIHED IMPRP ELECT VDW BOUNDARY MISC KINETIC TOTAL TEMP POTENTIAL TOTALAVG TEMPAVG PRESSURE GPRESSURE VOLUME PRESSAVG GPRESSAVG
ENERGY: 0 8.9634 4.7300 6.8773 0.0000 -10821.2384 1467.9566 0.0000 0.0000 1767.9161 -7564.7950 301.3229 -9332.7111 -7564.7950 301.3229 -558.2462 -459.6369 30430.4352 -558.2462 -459.6369
ENERGY: 300000 2.6530 4.5059 7.7414 0.0000 -10700.5941 1444.9097 0.0000 0.0000 1763.6384 -7477.1456 300.5938 -9240.7841 -7501.1499 298.6221 24.6881 110.9361 30375.1622 -307.9896 -228.8797
ENERGY: 600000 3.6336 5.8561 5.5122 0.0000 -10864.1905 1542.0735 0.0000 0.0000 1707.2281 -7599.8869 290.9793 -9307.1150 -7494.4480 297.6289 681.1866 790.8848 29962.9000 -43.3656 32.0715
ENERGY: 900000 2.4488 3.7193 4.3938 0.0000 -10693.1046 1478.0400 0.0000 0.0000 1756.4840 -7448.0187 299.3744 -9204.5027 -7481.9584 298.5473 183.2971 247.9302 30685.5005 108.2855 183.8986
ENERGY: 1200000 2.7132 4.2530 4.8481 0.0000 -10775.8954 1526.4695 0.0000 0.0000 1835.5018 -7402.1098 312.8422 -9237.6116 -7470.8604 299.6164 1045.3977 1040.6092 29887.7807 164.3331 229.5402
ENERGY: 1500000 5.3039 2.7977 5.3768 0.0000 -10692.5714 1412.1198 0.0000 0.0000 1759.8606 -7507.1125 299.9499 -9266.9731 -7480.9164 299.3254 -174.4057 -88.2097 29883.4334 144.7299 209.5429
TCL: Running FEP window   5: Lambda1 0.7999999999999998 Lambda2 0.7499999999999998 [dLambda -0.050000000000000044]
TCL: Setting parameter firsttimestep to 0
TCL: Setting parameter alchLambda to 0.7999999999999998
Info: NONBONDED TABLE R-SQUARED SPACING: 0.0625
Info: NONBONDED TABLE SIZE: 705 POINTS
TCL: Setting parameter alchLambda2 to 0.7499999999999998
Info: NONBONDED TABLE R-SQUARED SPACING: 0.0625
Info: NONBONDED TABLE SIZE: 705 POINTS
TCL: Running for 1500000 steps
ETITLE: TS BOND ANGLE DIHED IMPRP ELECT VDW BOUNDARY MISC KINETIC TOTAL TEMP POTENTIAL TOTALAVG TEMPAVG PRESSURE GPRESSURE VOLUME PRESSAVG GPRESSAVG
ENERGY: 0 5.3039 2.7977 5.3768 0.0000 -10690.3400 1411.9180 0.0000 0.0000 1758.9931 -7505.9505 299.8021 -9264.9435 -7505.9505 299.8021 -190.2749 -93.5246 29883.4334 -190.2749 -93.5246
ENERGY: 300000 3.1429 6.6775 3.6404 0.0000 -10660.9606 1416.7741 0.0000 0.0000 1772.0987 -7458.6269 302.0358 -9230.7256 -7485.0995 300.4779 -90.1878 -65.8477 30323.4813 -90.8951 -32.8505
ENERGY: 600000 4.8654 6.1221 5.0648 0.0000 -10621.4130 1374.9704 0.0000 0.0000 1749.0682 -7481.3221 298.1105 -9230.3903 -7469.0322 302.0933 -570.9455 -565.7371 30541.3542 93.9562 144.6036
ENERGY: 900000 6.8324 5.8552 6.6265 0.0000 -10824.8989 1508.0399 0.0000 0.0000 1697.7810 -7599.7639 289.3691 -9297.5449 -7483.7930 301.9709 255.2476 317.6085 30019.2059 2.7337 61.7016
ENERGY: 1200000 2.5245 2.6723 4.7249 0.0000 -10708.0776 1452.2427 0.0000 0.0000 1784.5648 -7461.3485 304.1605 -9245.9133 -7479.5145 301.6492 -24.7222 73.1780 30517.7078 -14.2065 46.6697
ENERGY: 1500000 2.3582 1.8516 8.7290 0.0000 -10586.8686 1401.4075 0.0000 0.0000 1783.5782 -7388.9442 303.9923 -9172.5224 -7480.2412 300.8252 -53.3541 -7.0179 30519.5108 -28.1766 37.4182
TCL: Running FEP window   6: Lambda1 0.7499999999999998 Lambda2 0.6999999999999997 [dLambda -0.050000000000000044]
TCL: Setting parameter firsttimestep to 0
TCL: Setting parameter alchLambda to 0.7499999999999998
Info: NONBONDED TABLE R-SQUARED SPACING: 0.0625
Info: NONBONDED TABLE SIZE: 705 POINTS
TCL: Setting parameter alchLambda2 to 0.6999999999999997
Info: NONBONDED TABLE R-SQUARED SPACING: 0.0625
Info: NONBONDED TABLE SIZE: 705 POINTS
TCL: Running for 1500000 steps
ETITLE: TS BOND ANGLE DIHED IMPRP ELECT VDW BOUNDARY MISC KINETIC TOTAL TEMP POTENTIAL TOTALAVG TEMPAVG PRESSURE GPRESSURE VOLUME PRESSAVG GPRESSAVG
ENERGY: 0 2.3582 1.8516 8.7290 0.0000 -10583.4884 1399.8359 0.0000 0.0000 1782.7118 -7388.0020 303.8447 -9170.7139 -7388.0020 303.8447 -115.8926 -24.3012 30519.5108 -115.8926 -24.3012
ENERGY: 300000 3.2898 3.7023 7.4135 0.0000 -10590.4850 1325.9567 0.0000 0.0000 1768.1464 -7481.9763 301.3622 -9250.1227 -7466.4078 301.1557 -1133.9021 -1082.0644 30335.7935 -649.4888 -573.8301
ENERGY: 600000 6.8415 4.9134 4.5695 0.0000 -10691.2021 1425.5578 0.0000 0.0000 1715.0639 -7534.2560 292.3148 -9249.3199 -7500.3638 297.2319 -376.1533 -306.5021 30358.7661 -594.0003 -522.8627
ENERGY: 900000 2.6803 4.7923 4.3084 0.0000 -10576.4318 1386.3185 0.0000 0.0000 1791.6091 -7386.7232 305.3611 -9178.3324 -7478.5375 298.9153 -634.7852 -518.3651 30759.1845 -544.6811 -474.4918
ENERGY: 1200000 3.0681 4.9418 7.1231 0.0000 -10696.6602 1376.4154 0.0000 0.0000 1730.9665 -7574.1451 295.0252 -9305.1117 -7490.2421 298.0827 -619.6411 -573.5173 30410.7197 -423.7760 -356.4925
ENERGY: 1500000 6.4340 4.9130 5.9130 0.0000 -10588.0376 1349.8833 0.0000 0.0000 1765.9972 -7454.8970 300.9958 -9220.8943 -7487.4316 297.7001 -751.9740 -715.6753 30626.1316 -390.2191 -323.6355
TCL: Running FEP window   7: Lambda1 0.6999999999999997 Lambda2 0.6499999999999997 [dLambda -0.050000000000000044]
TCL: Setting parameter firsttimestep to 0
TCL: Setting parameter alchLambda to 0.6999999999999997
Info: NONBONDED TABLE R-SQUARED SPACING: 0.0625
Info: NONBONDED TABLE SIZE: 705 POINTS
TCL: Setting parameter alchLambda2 to 0.6499999999999997
Info: NONBONDED TABLE R-SQUARED SPACING: 0.0625
Info: NONBONDED TABLE SIZE: 705 POINTS
TCL: Running for 1500000 steps
ETITLE: TS BOND ANGLE DIHED IMPRP ELECT VDW BOUNDARY MISC KINETIC TOTAL TEMP POTENTIAL TOTALAVG TEMPAVG PRESSURE GPRESSURE VOLUME PRESSAVG GPRESSAVG
ENERGY: 0 6.4340 4.9130 5.9130 0.0000 -10586.4634 1350.1890 0.0000 0.0000 1765.1296 -7453.8849 300.8480 -9219.0145 -7453.8849 300.8480 -797.9627 -719.7267 30626.1316 -797.9627 -719.7267
ENERGY: 300000 4.6701 5.7271 5.8332 0.0000 -10710.2523 1458.3706 0.0000 0.0000 1748.9129 -7486.7385 298.0840 -9235.6514 -7438.2996 301.2134 197.6635 250.9527 30336.6535 176.9423 279.2355
ENERGY: 600000 4.4632 3.5281 9.0502 0.0000 -10586.5423 1381.9871 0.0000 0.0000 1714.2363 -7473.2775 292.1737 -9187.5138 -7447.1181 299.7396 -693.3741 -624.2665 30520.1154 11.1738 78.8804
ENERGY: 900000 6.4839 2.4532 9.9801 0.0000 -10665.1526 1424.8551 0.0000 0.0000 1787.9003 -7433.4801 304.7290 -9221.3804 -7441.0598 300.8316 -563.0136 -540.5447 30886.1373 -41.6614 14.5049
ENERGY: 1200000 1.3858 5.3632 4.5080 0.0000 -10656.8679 1434.5240 0.0000 0.0000 1762.4843 -7448.6027 300.3971 -9211.0870 -7436.3832 301.7855 12.8145 21.8638 30218.8965 -63.7054 -6.6695
ENERGY: 1500000 5.9373 5.1826 5.1729 0.0000 -10939.8108 1625.0925 0.0000 0.0000 1767.8813 -7530.5442 301.3170 -9298.4255 -7444.7862 301.9789 1390.2797 1451.8469 29762.9285 -22.0167 39.9954
TCL: Running FEP window   8: Lambda1 0.6499999999999997 Lambda2 0.5999999999999996 [dLambda -0.050000000000000044]
TCL: Setting parameter firsttimestep to 0
TCL: Setting parameter alchLambda to 0.6499999999999997
Info: NONBONDED TABLE R-SQUARED SPACING: 0.0625
Info: NONBONDED TABLE SIZE: 705 POINTS
TCL: Setting parameter alchLambda2 to 0.5999999999999996
Info: NONBONDED TABLE R-SQUARED SPACING: 0.0625
Info: NONBONDED TABLE SIZE: 705 POINTS
TCL: Running for 1500000 steps
ETITLE: TS BOND ANGLE DIHED IMPRP ELECT VDW BOUNDARY MISC KINETIC TOTAL TEMP POTENTIAL TOTALAVG TEMPAVG PRESSURE GPRESSURE VOLUME PRESSAVG GPRESSAVG
ENERGY: 0 5.9373 5.1826 5.1729 0.0000 -10938.9951 1624.8329 0.0000 0.0000 1766.9693 -7530.9002 301.1615 -9297.8694 -7530.9002 301.1615 1352.8962 1441.2950 29762.9285 1352.8962 1441.2950
ENERGY: 300000 4.9549 4.0929 5.2657 0.0000 -10622.6845 1395.0230 0.0000 0.0000 1737.7441 -7475.6039 296.1804 -9213.3481 -7485.9402 297.0679 -351.9606 -238.3098 30306.6479 476.7470 559.9663
ENERGY: 600000 4.1042 5.0552 4.4628 0.0000 -10726.5398 1453.3206 0.0000 0.0000 1773.9282 -7485.6689 302.3476 -9259.5971 -7468.8066 300.1884 9.6708 51.2602 30294.7632 209.8872 273.8212
ENERGY: 900000 6.6917 3.4704 5.2225 0.0000 -10692.6852 1408.9036 0.0000 0.0000 1744.5728 -7523.8242 297.3443 -9268.3970 -7478.6439 300.2653 -628.2408 -513.7288 30437.7543 144.8353 218.5624
ENERGY: 1200000 4.0830 3.4540 8.4254 0.0000 -10769.5073 1519.3366 0.0000 0.0000 1781.6178 -7452.5905 303.6582 -9234.2082 -7471.2926 301.2155 654.5466 718.8816 29976.4736 146.6285 217.0099
ENERGY: 1500000 7.1772 1.9579 2.3284 0.0000 -10725.8288 1441.1366 0.0000 0.0000 1755.6488 -7517.5799 299.2321 -9273.2287 -7473.5695 301.0309 -489.2444 -444.4950 30456.9356 144.9575 212.3330
TCL: Running FEP window   9: Lambda1 0.5999999999999996 Lambda2 0.5499999999999996 [dLambda -0.050000000000000044]
TCL: Setting parameter firsttimestep to 0
TCL: Setting parameter alchLambda to 0.5999999999999996
Info: NONBONDED TABLE R-SQUARED SPACING: 0.0625
Info: NONBONDED TABLE SIZE: 705 POINTS
TCL: Setting parameter alchLambda2 to 0.5499999999999996
Info: NONBONDED TABLE R-SQUARED SPACING: 0.0625
Info: NONBONDED TABLE SIZE: 705 POINTS
TCL: Running for 1500000 steps
ETITLE: TS BOND ANGLE DIHED IMPRP ELECT VDW BOUNDARY MISC KINETIC TOTAL TEMP POTENTIAL TOTALAVG TEMPAVG PRESSURE GPRESSURE VOLUME PRESSAVG GPRESSAVG
ENERGY: 0 7.1772 1.9579 2.3284 0.0000 -10725.1820 1441.3834 0.0000 0.0000 1754.7979 -7517.5372 299.0870 -9272.3352 -7517.5372 299.0870 -521.3906 -452.5806 30456.9356 -521.3906 -452.5806
ENERGY: 300000 1.6989 7.4590 2.2089 0.0000 -10627.7832 1422.2674 0.0000 0.0000 1762.0657 -7432.0832 300.3258 -9194.1489 -7425.2765 299.7540 -143.2405 -72.4961 30751.2431 -28.3813 45.1772
ENERGY: 600000 3.7979 5.6518 4.0940 0.0000 -10529.5648 1329.1247 0.0000 0.0000 1699.7068 -7487.1896 289.6973 -9186.8964 -7436.5145 296.8964 -926.9189 -878.8081 30580.1553 -142.2273 -77.0855
ENERGY: 900000 0.9375 4.6965 2.8777 0.0000 -10641.3580 1413.8064 0.0000 0.0000 1747.6098 -7471.4301 297.8619 -9219.0398 -7426.6321 298.3801 49.7731 103.4619 30091.2595 -249.8993 -183.2079
ENERGY: 1200000 4.5482 3.4225 7.7323 0.0000 -10672.2999 1460.8147 0.0000 0.0000 1776.7469 -7419.0354 302.8280 -9195.7823 -7433.4752 299.4295 195.3879 242.2935 30613.1845 -225.1114 -166.3641
ENERGY: 1500000 6.6140 6.2827 8.1940 0.0000 -10715.0944 1413.8071 0.0000 0.0000 1793.9875 -7486.2091 305.7665 -9280.1966 -7437.3887 300.5036 -605.0062 -601.0925 30491.6413 -250.4167 -195.3825
TCL: Running FEP window  10: Lambda1 0.5499999999999996 Lambda2 0.4999999999999996 [dLambda -0.04999999999999999]
TCL: Setting parameter firsttimestep to 0
TCL: Setting parameter alchLambda to 0.5499999999999996
Info: NONBONDED TABLE R-SQUARED SPACING: 0.0625
Info: NONBONDED TABLE SIZE: 705 POINTS
TCL: Setting parameter alchLambda2 to 0.4999999999999996
Info: NONBONDED TABLE R-SQUARED SPACING: 0.0625
Info: NONBONDED TABLE SIZE: 705 POINTS
TCL: Running for 1500000 steps
ETITLE: TS BOND ANGLE DIHED IMPRP ELECT VDW BOUNDARY MISC KINETIC TOTAL TEMP POTENTIAL TOTALAVG TEMPAVG PRESSURE GPRESSURE VOLUME PRESSAVG GPRESSAVG
ENERGY: 0 6.6140 6.2827 8.1940 0.0000 -10715.2080 1414.2284 0.0000 0.0000 1793.1400 -7486.7490 305.6220 -9279.8890 -7486.7490 305.6220 -677.1434 -603.8760 30491.6413 -677.1434 -603.8760
ENERGY: 300000 3.4597 3.7960 4.6160 0.0000 -10485.1868 1288.0552 0.0000 0.0000 1763.8995 -7421.3604 300.6383 -9185.2598 -7459.6064 301.8557 -1304.3485 -1222.7852 30680.9639 -723.9139 -671.7532
ENERGY: 600000 3.9709 4.4417 3.8659 0.0000 -10540.2413 1350.1586 0.0000 0.0000 1701.7410 -7476.0631 290.0440 -9177.8041 -7467.9443 299.3039 -918.9604 -798.5130 30561.5277 -423.1546 -366.5906
ENERGY: 900000 5.7972 5.2264 4.5369 0.0000 -10900.2053 1600.8238 0.0000 0.0000 1751.4844 -7532.3366 298.5223 -9283.8210 -7482.0337 298.5620 1357.2497 1453.7939 29687.3014 -78.4291 -19.1269
ENERGY: 1200000 3.8796 6.8799 3.9241 0.0000 -10577.5647 1415.1304 0.0000 0.0000 1702.4490 -7445.3016 290.1647 -9147.7506 -7470.9726 298.3125 -76.0559 75.5221 30468.5375 -233.5120 -168.1471
ENERGY: 1500000 2.0372 2.8562 4.1344 0.0000 -10694.6761 1452.3494 0.0000 0.0000 1789.0535 -7444.2455 304.9255 -9233.2989 -7468.4921 299.0187 24.3195 51.5525 30648.1685 -229.3237 -169.9600
TCL: Running FEP window  11: Lambda1 0.4999999999999996 Lambda2 0.4499999999999996 [dLambda -0.04999999999999999]
TCL: Setting parameter firsttimestep to 0
TCL: Setting parameter alchLambda to 0.4999999999999996
Info: NONBONDED TABLE R-SQUARED SPACING: 0.0625
Info: NONBONDED TABLE SIZE: 705 POINTS
TCL: Setting parameter alchLambda2 to 0.4499999999999996
Info: NONBONDED TABLE R-SQUARED SPACING: 0.0625
Info: NONBONDED TABLE SIZE: 705 POINTS
TCL: Running for 1500000 steps
ETITLE: TS BOND ANGLE DIHED IMPRP ELECT VDW BOUNDARY MISC KINETIC TOTAL TEMP POTENTIAL TOTALAVG TEMPAVG PRESSURE GPRESSURE VOLUME PRESSAVG GPRESSAVG
ENERGY: 0 2.0372 2.8562 4.1344 0.0000 -10694.5474 1452.8120 0.0000 0.0000 1788.1154 -7444.5922 304.7657 -9232.7076 -7444.5922 304.7657 -9.7993 46.0435 30648.1685 -9.7993 46.0435
ENERGY: 300000 3.0821 2.4156 5.1630 0.0000 -10551.8338 1338.7761 0.0000 0.0000 1799.5464 -7402.8506 306.7139 -9202.3970 -7436.2990 301.6602 -626.8291 -614.3162 30250.6756 -195.7243 -155.4980
ENERGY: 600000 5.2506 4.6831 2.8849 0.0000 -10599.3747 1438.3587 0.0000 0.0000 1761.1849 -7387.0124 300.1756 -9148.1973 -7426.0740 300.8989 -91.6646 41.3058 30461.8603 -253.6987 -178.7012
ENERGY: 900000 7.3377 4.9121 4.3611 0.0000 -10619.0423 1390.3836 0.0000 0.0000 1711.4429 -7500.6049 291.6976 -9212.0479 -7451.5550 300.1476 -472.7105 -358.0117 30261.0300 -203.6718 -123.1439
ENERGY: 1200000 3.9971 3.7018 4.0960 0.0000 -10707.4098 1423.6057 0.0000 0.0000 1730.9628 -7541.0464 295.0246 -9272.0092 -7453.6251 300.5321 -495.1070 -501.4548 30608.7875 -90.0009 -21.0092
ENERGY: 1500000 4.8262 4.9193 8.0564 0.0000 -10736.5117 1500.5392 0.0000 0.0000 1700.0392 -7518.1314 289.7540 -9218.1706 -7461.6026 299.8910 493.9551 512.2321 29802.3693 -23.4438 38.9090
TCL: Running FEP window  12: Lambda1 0.4499999999999996 Lambda2 0.39999999999999963 [dLambda -0.04999999999999999]
TCL: Setting parameter firsttimestep to 0
TCL: Setting parameter alchLambda to 0.4499999999999996
Info: NONBONDED TABLE R-SQUARED SPACING: 0.0625
Info: NONBONDED TABLE SIZE: 705 POINTS
TCL: Setting parameter alchLambda2 to 0.39999999999999963
Info: NONBONDED TABLE R-SQUARED SPACING: 0.0625
Info: NONBONDED TABLE SIZE: 705 POINTS
TCL: Running for 1500000 steps
ETITLE: TS BOND ANGLE DIHED IMPRP ELECT VDW BOUNDARY MISC KINETIC TOTAL TEMP POTENTIAL TOTALAVG TEMPAVG PRESSURE GPRESSURE VOLUME PRESSAVG GPRESSAVG
ENERGY: 0 4.8262 4.9193 8.0564 0.0000 -10736.5113 1501.0092 0.0000 0.0000 1699.1460 -7518.5542 289.6017 -9217.7001 -7518.5542 289.6017 434.5856 510.9060 29802.3693 434.5856 510.9060
ENERGY: 300000 1.3285 4.7943 3.3952 0.0000 -10687.0207 1481.0318 0.0000 0.0000 1786.3610 -7410.1098 304.4666 -9196.4708 -7488.2824 298.2703 737.7425 861.7354 29747.7876 130.0652 214.6549
ENERGY: 600000 2.3373 4.8559 3.3867 0.0000 -10702.9313 1514.5790 0.0000 0.0000 1764.4320 -7413.3402 300.7291 -9177.7722 -7463.9468 298.9918 779.9927 796.4721 30123.7178 207.3412 274.3293
ENERGY: 900000 4.7434 2.5172 3.3975 0.0000 -10542.6056 1382.2342 0.0000 0.0000 1777.4614 -7372.2519 302.9498 -9149.7133 -7443.2498 300.0579 -468.7889 -384.4367 30772.7759 123.2608 188.1063
ENERGY: 1200000 1.5903 4.9537 7.1978 0.0000 -10693.7430 1495.3318 0.0000 0.0000 1738.0532 -7446.6163 296.2331 -9184.6695 -7451.7680 300.8295 501.0449 557.9613 30325.2815 215.5043 273.5524
ENERGY: 1500000 3.3840 2.4635 3.3399 0.0000 -10728.8171 1453.3238 0.0000 0.0000 1771.6592 -7494.6467 301.9609 -9266.3059 -7453.3136 300.3271 -229.9496 -175.7797 30691.2463 186.2234 242.9176
TCL: Running FEP window  13: Lambda1 0.39999999999999963 Lambda2 0.34999999999999964 [dLambda -0.04999999999999999]
TCL: Setting parameter firsttimestep to 0
TCL: Setting parameter alchLambda to 0.39999999999999963
Info: NONBONDED TABLE R-SQUARED SPACING: 0.0625
Info: NONBONDED TABLE SIZE: 705 POINTS
TCL: Setting parameter alchLambda2 to 0.34999999999999964
Info: NONBONDED TABLE R-SQUARED SPACING: 0.0625
Info: NONBONDED TABLE SIZE: 705 POINTS
TCL: Running for 1500000 steps
ETITLE: TS BOND ANGLE DIHED IMPRP ELECT VDW BOUNDARY MISC KINETIC TOTAL TEMP POTENTIAL TOTALAVG TEMPAVG PRESSURE GPRESSURE VOLUME PRESSAVG GPRESSAVG
ENERGY: 0 3.3840 2.4635 3.3399 0.0000 -10728.8166 1453.7748 0.0000 0.0000 1770.8038 -7495.0506 301.8151 -9265.8544 -7495.0506 301.8151 -269.0406 -180.4525 30691.2463 -269.0406 -180.4525
ENERGY: 300000 2.1311 2.7640 5.0192 0.0000 -10642.9145 1366.6394 0.0000 0.0000 1776.4624 -7489.8984 302.7795 -9266.3608 -7462.0569 305.5148 -829.8102 -710.1982 30372.0084 -691.1683 -617.6832
ENERGY: 600000 4.0526 3.7735 5.6866 0.0000 -10660.2438 1447.6780 0.0000 0.0000 1711.2337 -7487.8193 291.6620 -9199.0530 -7451.1146 302.4060 84.9566 151.4192 30053.3598 -329.0600 -263.9976
ENERGY: 900000 3.9609 5.1690 5.8301 0.0000 -10754.9806 1487.4537 0.0000 0.0000 1821.6992 -7430.8678 310.4897 -9252.5670 -7452.7968 303.2203 8.9195 67.3477 30623.5809 -308.2579 -237.7515
ENERGY: 1200000 3.7611 5.8267 5.2559 0.0000 -10784.2016 1538.8796 0.0000 0.0000 1792.6031 -7437.8752 305.5305 -9230.4783 -7458.7329 302.7041 887.6602 985.0835 29923.4425 -146.1309 -80.1126
ENERGY: 1500000 3.8768 5.1305 4.3839 0.0000 -10735.3704 1511.8122 0.0000 0.0000 1855.2526 -7354.9144 316.2085 -9210.1670 -7450.4000 302.9289 397.2960 498.0651 30419.6666 -23.7982 39.8702
TCL: Running FEP window  14: Lambda1 0.34999999999999964 Lambda2 0.29999999999999966 [dLambda -0.04999999999999999]
TCL: Setting parameter firsttimestep to 0
TCL: Setting parameter alchLambda to 0.34999999999999964
Info: NONBONDED TABLE R-SQUARED SPACING: 0.0625
Info: NONBONDED TABLE SIZE: 705 POINTS
TCL: Setting parameter alchLambda2 to 0.29999999999999966
Info: NONBONDED TABLE R-SQUARED SPACING: 0.0625
Info: NONBONDED TABLE SIZE: 705 POINTS
TCL: Running for 1500000 steps
ETITLE: TS BOND ANGLE DIHED IMPRP ELECT VDW BOUNDARY MISC KINETIC TOTAL TEMP POTENTIAL TOTALAVG TEMPAVG PRESSURE GPRESSURE VOLUME PRESSAVG GPRESSAVG
ENERGY: 0 3.8768 5.1305 4.3839 0.0000 -10735.3679 1511.6313 0.0000 0.0000 1854.3616 -7355.9837 316.0566 -9210.3453 -7355.9837 316.0566 405.2222 493.9085 30419.6666 405.2222 493.9085
ENERGY: 300000 2.6046 4.3015 9.9518 0.0000 -10747.6779 1532.9849 0.0000 0.0000 1763.3118 -7434.5233 300.5381 -9197.8351 -7444.9965 301.9474 910.5755 964.9199 30065.0554 400.3034 443.3362
ENERGY: 600000 7.1204 4.4747 2.2522 0.0000 -10833.5368 1493.8825 0.0000 0.0000 1727.8955 -7597.9115 294.5018 -9325.8069 -7475.5293 302.0907 -30.6752 77.9508 30057.6950 327.8492 372.8652
ENERGY: 900000 3.5661 4.7027 4.4843 0.0000 -10700.6268 1507.2192 0.0000 0.0000 1756.7372 -7423.9172 299.4176 -9180.6544 -7442.4744 303.1821 832.2502 879.6161 29639.2094 337.5363 382.3882
ENERGY: 1200000 4.3518 5.1840 8.5698 0.0000 -10565.2770 1402.2844 0.0000 0.0000 1711.8697 -7433.0173 291.7704 -9144.8870 -7437.8799 301.8815 -223.5812 -135.5193 30419.2049 326.6577 377.4723
ENERGY: 1500000 4.5382 4.9272 6.3627 0.0000 -10651.0907 1433.6893 0.0000 0.0000 1773.7650 -7427.8083 302.3198 -9201.5733 -7440.9703 301.4056 42.0911 94.9291 30043.3680 183.1376 232.8293
TCL: Running FEP window  15: Lambda1 0.29999999999999966 Lambda2 0.24999999999999967 [dLambda -0.04999999999999999]
TCL: Setting parameter firsttimestep to 0
TCL: Setting parameter alchLambda to 0.29999999999999966
Info: NONBONDED TABLE R-SQUARED SPACING: 0.0625
Info: NONBONDED TABLE SIZE: 705 POINTS
TCL: Setting parameter alchLambda2 to 0.24999999999999967
Info: NONBONDED TABLE R-SQUARED SPACING: 0.0625
Info: NONBONDED TABLE SIZE: 705 POINTS
TCL: Running for 1500000 steps
ETITLE: TS BOND ANGLE DIHED IMPRP ELECT VDW BOUNDARY MISC KINETIC TOTAL TEMP POTENTIAL TOTALAVG TEMPAVG PRESSURE GPRESSURE VOLUME PRESSAVG GPRESSAVG
ENERGY: 0 4.5382 4.9272 6.3627 0.0000 -10651.0925 1434.1659 0.0000 0.0000 1772.9091 -7428.1895 302.1739 -9201.0986 -7428.1895 302.1739 2.3548 91.4082 30043.3680 2.3548 91.4082
ENERGY: 300000 2.0038 5.3889 5.5396 0.0000 -10743.9061 1447.8013 0.0000 0.0000 1757.9700 -7525.2025 299.6277 -9283.1725 -7458.5477 304.0634 -280.4638 -235.6353 30417.1601 -208.6107 -126.6289
ENERGY: 600000 4.4052 5.3378 9.4750 0.0000 -10490.8706 1350.3877 0.0000 0.0000 1780.0382 -7341.2268 303.3890 -9121.2649 -7434.4942 302.8144 -413.0982 -287.1789 30059.8990 -205.4408 -115.3185
ENERGY: 900000 2.3066 2.7479 2.7901 0.0000 -10606.7521 1422.6465 0.0000 0.0000 1769.2113 -7407.0496 301.5437 -9176.2609 -7428.1255 302.5421 14.3659 46.4842 30049.1622 -160.1176 -83.6366
ENERGY: 1200000 3.8854 7.5343 2.4792 0.0000 -10680.6784 1449.1635 0.0000 0.0000 1766.4330 -7451.1829 301.0701 -9217.6160 -7431.6448 301.9940 89.1575 205.7257 30199.4353 -77.3231 -4.1387
ENERGY: 1500000 3.4880 2.8016 4.9469 0.0000 -10701.0805 1447.4356 0.0000 0.0000 1740.4529 -7501.9555 296.6421 -9242.4084 -7440.5780 301.1717 -10.6729 20.9483 30114.5053 -78.5882 -9.1445
TCL: Running FEP window  16: Lambda1 0.24999999999999967 Lambda2 0.19999999999999968 [dLambda -0.04999999999999999]
TCL: Setting parameter firsttimestep to 0
TCL: Setting parameter alchLambda to 0.24999999999999967
Info: NONBONDED TABLE R-SQUARED SPACING: 0.0625
Info: NONBONDED TABLE SIZE: 705 POINTS
TCL: Setting parameter alchLambda2 to 0.19999999999999968
Info: NONBONDED TABLE R-SQUARED SPACING: 0.0625
Info: NONBONDED TABLE SIZE: 705 POINTS
TCL: Running for 1500000 steps
ETITLE: TS BOND ANGLE DIHED IMPRP ELECT VDW BOUNDARY MISC KINETIC TOTAL TEMP POTENTIAL TOTALAVG TEMPAVG PRESSURE GPRESSURE VOLUME PRESSAVG GPRESSAVG
ENERGY: 0 3.4880 2.8016 4.9469 0.0000 -10701.0786 1447.4904 0.0000 0.0000 1739.6069 -7502.7447 296.4979 -9242.3516 -7502.7447 296.4979 -63.4491 14.8534 30114.5053 -63.4491 14.8534
ENERGY: 300000 1.9002 5.0395 4.1586 0.0000 -10791.9269 1521.6554 0.0000 0.0000 1840.9149 -7418.2584 313.7648 -9259.1733 -7454.0495 299.0358 663.6503 717.7321 30022.9843 -111.1603 -50.1536
ENERGY: 600000 2.9982 2.1614 3.3255 0.0000 -10677.9870 1434.1765 0.0000 0.0000 1797.7782 -7437.5473 306.4126 -9235.3255 -7473.4717 298.0162 -215.5761 -141.1339 30314.1334 -185.2825 -128.5145
ENERGY: 900000 3.7186 4.8768 2.4750 0.0000 -10624.1774 1409.8084 0.0000 0.0000 1766.1215 -7437.1771 301.0170 -9203.2987 -7473.5798 298.3696 -398.5117 -297.2242 30379.8452 -37.2541 25.7453
ENERGY: 1200000 3.1014 5.2810 4.9603 0.0000 -10552.0258 1294.4627 0.0000 0.0000 1790.8627 -7453.3577 305.2339 -9244.2203 -7463.9787 299.8216 -952.3699 -956.4033 30375.4958 -159.1409 -92.0685
ENERGY: 1500000 3.6185 5.6640 3.6924 0.0000 -10680.7763 1466.7612 0.0000 0.0000 1789.9197 -7411.1204 305.0732 -9201.0402 -7459.4668 299.7731 438.6990 517.1413 30200.4403 -136.7398 -69.0794
TCL: Running FEP window  17: Lambda1 0.19999999999999968 Lambda2 0.1499999999999997 [dLambda -0.04999999999999999]
TCL: Setting parameter firsttimestep to 0
TCL: Setting parameter alchLambda to 0.19999999999999968
Info: NONBONDED TABLE R-SQUARED SPACING: 0.0625
Info: NONBONDED TABLE SIZE: 705 POINTS
TCL: Setting parameter alchLambda2 to 0.1499999999999997
Info: NONBONDED TABLE R-SQUARED SPACING: 0.0625
Info: NONBONDED TABLE SIZE: 705 POINTS
TCL: Running for 1500000 steps
ETITLE: TS BOND ANGLE DIHED IMPRP ELECT VDW BOUNDARY MISC KINETIC TOTAL TEMP POTENTIAL TOTALAVG TEMPAVG PRESSURE GPRESSURE VOLUME PRESSAVG GPRESSAVG
ENERGY: 0 3.6185 5.6640 3.6924 0.0000 -10680.7777 1467.0861 0.0000 0.0000 1789.0416 -7411.6751 304.9235 -9200.7167 -7411.6751 304.9235 430.6830 515.9406 30200.4403 430.6830 515.9406
ENERGY: 300000 5.0153 3.0026 4.9720 0.0000 -10666.6578 1430.3688 0.0000 0.0000 1812.5051 -7410.7940 308.9226 -9223.2991 -7404.2081 303.6973 -367.8927 -256.2138 30337.1101 71.8056 148.7149
ENERGY: 600000 2.0030 6.2441 3.0104 0.0000 -10775.2876 1452.5225 0.0000 0.0000 1751.2035 -7560.3041 298.4744 -9311.5076 -7446.3793 301.1587 -65.8758 -24.1645 29996.3427 90.3241 154.7306
ENERGY: 900000 4.0966 4.8408 7.1534 0.0000 -10653.6843 1452.0442 0.0000 0.0000 1786.9980 -7398.5514 304.5752 -9185.5493 -7436.6030 302.8622 222.8381 284.5186 30267.3123 95.9261 171.6080
ENERGY: 1200000 2.0626 3.3063 5.3773 0.0000 -10668.6562 1417.0772 0.0000 0.0000 1769.5059 -7471.3270 301.5939 -9240.8329 -7430.8367 303.7329 -98.5301 -64.1438 30002.5403 53.8140 133.2797
ENERGY: 1500000 2.2009 2.2338 5.8163 0.0000 -10666.2574 1461.1600 0.0000 0.0000 1777.4434 -7417.4030 302.9467 -9194.8464 -7430.1489 303.3258 373.0897 450.4236 30049.1549 -28.4281 49.2379
TCL: Running FEP window  18: Lambda1 0.1499999999999997 Lambda2 0.09999999999999969 [dLambda -0.05 ]
TCL: Setting parameter firsttimestep to 0
TCL: Setting parameter alchLambda to 0.1499999999999997
Info: NONBONDED TABLE R-SQUARED SPACING: 0.0625
Info: NONBONDED TABLE SIZE: 705 POINTS
TCL: Setting parameter alchLambda2 to 0.09999999999999969
Info: NONBONDED TABLE R-SQUARED SPACING: 0.0625
Info: NONBONDED TABLE SIZE: 705 POINTS
TCL: Running for 1500000 steps
ETITLE: TS BOND ANGLE DIHED IMPRP ELECT VDW BOUNDARY MISC KINETIC TOTAL TEMP POTENTIAL TOTALAVG TEMPAVG PRESSURE GPRESSURE VOLUME PRESSAVG GPRESSAVG
ENERGY: 0 2.2009 2.2338 5.8163 0.0000 -10666.2597 1461.1927 0.0000 0.0000 1776.5732 -7418.2429 302.7984 -9194.8161 -7418.2429 302.7984 357.7050 447.8745 30049.1549 357.7050 447.8745
ENERGY: 300000 3.8107 5.1882 6.1956 0.0000 -10748.8591 1521.6874 0.0000 0.0000 1769.2528 -7442.7243 301.5507 -9211.9772 -7430.0780 301.7131 754.1877 753.2466 30195.9775 171.5021 231.0865
ENERGY: 600000 7.0267 7.9931 5.4371 0.0000 -10751.2342 1542.1856 0.0000 0.0000 1758.8615 -7429.7301 299.7796 -9188.5916 -7446.8754 298.8906 933.2543 967.2000 30457.4894 334.8071 399.1527
ENERGY: 900000 3.1002 2.8404 3.6541 0.0000 -10728.5676 1457.9209 0.0000 0.0000 1705.2868 -7555.7653 290.6484 -9261.0521 -7464.8894 297.6778 -260.6917 -214.5490 30554.8127 458.6989 516.8560
ENERGY: 1200000 4.3122 3.6214 5.0091 0.0000 -10613.9678 1394.0851 0.0000 0.0000 1825.5467 -7381.3934 311.1454 -9206.9401 -7449.7943 299.3301 -257.4087 -245.3318 29908.5003 318.3481 380.5117
ENERGY: 1500000 2.2783 2.6987 5.4408 0.0000 -10634.3155 1367.5930 0.0000 0.0000 1732.9061 -7523.3986 295.3558 -9256.3047 -7445.1386 299.1653 -733.2109 -693.4978 30356.8640 110.6109 169.6105
TCL: Running FEP window  19: Lambda1 0.09999999999999969 Lambda2 0.049999999999999684 [dLambda -0.05 ]
TCL: Setting parameter firsttimestep to 0
TCL: Setting parameter alchLambda to 0.09999999999999969
Info: NONBONDED TABLE R-SQUARED SPACING: 0.0625
Info: NONBONDED TABLE SIZE: 705 POINTS
TCL: Setting parameter alchLambda2 to 0.049999999999999684
Info: NONBONDED TABLE R-SQUARED SPACING: 0.0625
Info: NONBONDED TABLE SIZE: 705 POINTS
TCL: Running for 1500000 steps
ETITLE: TS BOND ANGLE DIHED IMPRP ELECT VDW BOUNDARY MISC KINETIC TOTAL TEMP POTENTIAL TOTALAVG TEMPAVG PRESSURE GPRESSURE VOLUME PRESSAVG GPRESSAVG
ENERGY: 0 2.2782 2.6987 5.4408 0.0000 -10634.3150 1367.5967 0.0000 0.0000 1732.0349 -7524.2656 295.2073 -9256.3005 -7524.2656 295.2073 -780.9931 -694.5320 30356.8640 -780.9931 -694.5320
ENERGY: 300000 4.2453 7.1083 3.8722 0.0000 -10590.7553 1420.0425 0.0000 0.0000 1786.6454 -7368.8415 304.5151 -9155.4869 -7425.4567 299.2973 -235.4194 -151.4206 30452.2601 68.8394 140.8178
ENERGY: 600000 5.0491 4.3523 4.0988 0.0000 -10749.0961 1532.2719 0.0000 0.0000 1750.4978 -7452.8262 298.3541 -9203.3239 -7438.1628 299.2531 406.6041 524.2707 30359.6941 174.4551 263.4371
ENERGY: 900000 5.5469 4.1957 4.0714 0.0000 -10564.1370 1346.4246 0.0000 0.0000 1776.5393 -7427.3591 302.7926 -9203.8984 -7431.6029 299.8146 -766.4590 -670.6554 30640.9530 98.0831 186.1751
ENERGY: 1200000 3.5096 5.3357 5.9082 0.0000 -10668.1833 1426.0604 0.0000 0.0000 1802.1974 -7425.1719 307.1658 -9227.3693 -7425.3933 301.1768 -211.1070 -201.9722 30171.4538 101.7821 180.6352
ENERGY: 1500000 3.6126 4.0294 3.2640 0.0000 -10648.2310 1447.6734 0.0000 0.0000 1763.1592 -7426.4924 300.5121 -9189.6516 -7423.9329 302.1061 49.1987 162.2984 30266.6701 179.9765 259.4986
TCL: Running FEP window  20: Lambda1 0.049999999999999684 Lambda2 0.0    [dLambda -0.049999999999999684]
TCL: Setting parameter firsttimestep to 0
TCL: Setting parameter alchLambda to 0.049999999999999684
Info: NONBONDED TABLE R-SQUARED SPACING: 0.0625
Info: NONBONDED TABLE SIZE: 705 POINTS
TCL: Setting parameter alchLambda2 to 0.0
Info: NONBONDED TABLE R-SQUARED SPACING: 0.0625
Info: NONBONDED TABLE SIZE: 705 POINTS
TCL: Running for 1500000 steps
ETITLE: TS BOND ANGLE DIHED IMPRP ELECT VDW BOUNDARY MISC KINETIC TOTAL TEMP POTENTIAL TOTALAVG TEMPAVG PRESSURE GPRESSURE VOLUME PRESSAVG GPRESSAVG
ENERGY: 0 3.6126 4.0294 3.2640 0.0000 -10648.2315 1447.1490 0.0000 0.0000 1762.2765 -7427.9000 300.3617 -9190.1765 -7427.9000 300.3617 69.4141 158.9816 30266.6701 69.4141 158.9816
ENERGY: 300000 3.4708 5.1187 5.7722 0.0000 -10630.7519 1464.9133 0.0000 0.0000 1749.2697 -7402.2071 298.1448 -9151.4768 -7427.3678 299.9394 468.0263 517.2762 30116.8524 413.7952 496.8004
ENERGY: 600000 2.5305 2.4424 3.1518 0.0000 -10870.8495 1568.7428 0.0000 0.0000 1741.0501 -7552.9319 296.7439 -9293.9820 -7461.1861 300.6091 1095.9265 1148.0814 29591.7774 513.0125 586.8969
ENERGY: 900000 5.9358 4.0553 4.4792 0.0000 -10618.8231 1424.4769 0.0000 0.0000 1747.8193 -7432.0565 297.8976 -9179.8758 -7465.7141 299.5016 -107.8946 -85.7191 30138.6685 232.0186 310.1470
ENERGY: 1200000 6.8514 2.6152 1.7143 0.0000 -10603.1580 1431.8046 0.0000 0.0000 1759.7327 -7400.4398 299.9281 -9160.1725 -7453.1413 299.8583 -16.7440 120.2923 30279.6714 177.0646 255.5410
ENERGY: 1500000 1.1842 4.8959 6.1423 0.0000 -10702.2211 1439.0238 0.0000 0.0000 1748.2593 -7502.7155 297.9726 -9250.9748 -7465.4125 299.4076 -15.7471 72.2407 29870.9408 222.2507 297.6740
TCL: Exiting due to exit command.
