Info: SIMULATION PARAMETERS:
Info: TIMESTEP               2
Info: NUMBER OF STEPS        0
Info: STEPS PER CYCLE        10
Info: PERIODIC CELL BASIS 1  31.1085 0 0
Info: PERIODIC CELL BASIS 2  0 30.4421 0
Info: PERIODIC CELL BASIS 3  0 0 31.742
Info: PERIODIC CELL CENTER   0 0 0
Info: WRAPPING WATERS AROUND PERIODIC BOUNDARIES ON OUTPUT.
Info: WRAPPING ALL CLUSTERS AROUND PERIODIC BOUNDARIES ON OUTPUT.
Info: FIRST LDB TIMESTEP     50
Info: LAST LDB TIMESTEP     -1
Info: HOM BACKGROUND SCALING 1
Info: PME BACKGROUND SCALING 1
Info: MIN ATOMS PER PATCH    40
Info: EMPTY PATCH LOAD       40 ATOMS
Info: VELOCITY FILE          mobley_5346580_equil.vel
Info: CENTER OF MASS MOVING INITIALLY? NO
Info: DIELECTRIC             1
Info: EXCLUDE                SCALED ONE-FOUR
Info: 1-4 ELECTROSTATICS SCALED BY 0.833333
Info: MODIFIED 1-4 VDW PARAMETERS WILL BE USED
Info: DCD FILENAME           mobley_5346580_prod.dcd
Info: DCD FREQUENCY          100000
Info: DCD FIRST STEP         100000
Info: DCD FILE WILL CONTAIN UNIT CELL DATA
Info: XST FILENAME           mobley_5346580_prod.xst
Info: XST FREQUENCY          100000
Info: NO VELOCITY DCD OUTPUT
Info: NO FORCE DCD OUTPUT
Info: OUTPUT FILENAME        mobley_5346580_prod
Info: BINARY OUTPUT FILES WILL BE USED
Info: RESTART FILENAME       mobley_5346580_prod.restart
Info: RESTART FREQUENCY      100000
Info: BINARY RESTART FILES WILL BE USED
Info: CUTOFF                 9
Info: PAIRLIST DISTANCE      11
Info: PAIRLIST SHRINK RATE   0.01
Info: PAIRLIST GROW RATE     0.01
Info: PAIRLIST TRIGGER       0.3
Info: PAIRLISTS PER CYCLE    2
Info: PAIRLISTS ENABLED
Info: MARGIN                 2
Info: HYDROGEN GROUP CUTOFF  2.5
Info: PATCH DIMENSION        15.5
Info: ENERGY OUTPUT STEPS    100000
Info: ENERGY EVALUATION STEPS    100000
Info: OUTPUT ENERGY PRECISION 4
Info: CROSSTERM ENERGY INCLUDED IN DIHEDRAL
Info: TIMING OUTPUT STEPS    1000000
Info: PRESSURE OUTPUT STEPS  100000
Info: ALCHEMICAL FEP ON
Info: FEP CURRENT LAMBDA VALUE     0
Info: FEP COMPARISON LAMBDA VALUE  0.05
Info: FEP INTRA-ALCHEMICAL NON-BONDED INTERACTIONS WILL BE RETAINED
Info: FEP INTRA-ALCHEMICAL BONDED INTERACTIONS WILL BE RETAINED
Info: FEP VDW SHIFTING COEFFICIENT 5
Info: FEP ELEC. ACTIVE FOR ANNIHILATED PARTICLES BETWEEN LAMBDA = 0 AND LAMBDA = 0.5
Info: FEP ELEC. ACTIVE FOR EXNIHILATED PARTICLES BETWEEN LAMBDA = 0.5 AND LAMBDA = 1
Info: FEP VDW ACTIVE FOR ANNIHILATED PARTICLES BETWEEN LAMBDA = 0 AND LAMBDA = 1
Info: FEP VDW ACTIVE FOR EXNIHILATED PARTICLES BETWEEN LAMBDA = 0 AND LAMBDA = 1
Info: FEP BOND ACTIVE FOR ANNIHILATED PARTICLES BETWEEN LAMBDA = 1 AND LAMBDA = 1
Info: FEP BOND ACTIVE FOR EXNIHILATED PARTICLES BETWEEN LAMBDA = 0 AND LAMBDA = 0
Info: LANGEVIN DYNAMICS ACTIVE
Info: LANGEVIN TEMPERATURE   300
Info: LANGEVIN USING BBK INTEGRATOR
Info: LANGEVIN DAMPING COEFFICIENT IS 1 INVERSE PS
Info: LANGEVIN DYNAMICS APPLIED TO HYDROGENS
Info: LANGEVIN PISTON PRESSURE CONTROL ACTIVE
Info:        TARGET PRESSURE IS 1.01325 BAR
Info:     OSCILLATION PERIOD IS 50 FS
Info:             DECAY TIME IS 25 FS
Info:     PISTON TEMPERATURE IS 300 K
Info:       PRESSURE CONTROL IS GROUP-BASED
Info:    INITIAL STRAIN RATE IS 0.000598474 0.000598474 0.000598474
Info:       CELL FLUCTUATION IS ISOTROPIC
Info: PARTICLE MESH EWALD (PME) ACTIVE
Info: PME TOLERANCE               1e-06
Info: PME EWALD COEFFICIENT       0.348832
Info: PME INTERPOLATION ORDER     4
Info: PME GRID DIMENSIONS         32 32 32
Info: PME MAXIMUM GRID SPACING    1
Info: PME CALCULATION WILL BE PERFORMED ON GPU
Info: FULL ELECTROSTATIC EVALUATION FREQUENCY      2
Info: USING VERLET I (r-RESPA) MTS SCHEME.
Info: C1 SPLITTING OF LONG RANGE ELECTROSTATICS
Info: PLACING ATOMS IN PATCHES BY HYDROGEN GROUPS
Info: RIGID BONDS TO HYDROGEN : ALL
Info:         ERROR TOLERANCE : 1e-08
Info:          MAX ITERATIONS : 100
Info: RIGID WATER USING SETTLE ALGORITHM
Info: RANDOM NUMBER SEED     1743611273
Info: USE HYDROGEN BONDS?    NO
Info: Using AMBER format force field!
Info: AMBER PARM FILE        mobley_5346580.prmtop
Info: COORDINATE PDB         mobley_5346580.pdb
Info: Exclusions will be read from PARM file!
Info: SCNB (VDW SCALING)     2
Info: USING ARITHMETIC MEAN TO COMBINE L-J SIGMA PARAMETERS
Info: BINARY COORDINATES     mobley_5346580_equil.coor
Info: SUMMARY OF PARAMETERS:
Info: 6 BONDS
Info: 7 ANGLES
Info:   7 HARMONIC
Info:   0 COSINE-BASED
Info: 7 DIHEDRAL
Info: 0 IMPROPER
Info: 0 CROSSTERM
Info: 0 VDW
Info: 21 VDW_PAIRS
Info: 0 NBTHOLE_PAIRS
Info: To read alchdata from file: mobley_5346580.pdb
Info: To read alchflag data from column: 5
Info: STRUCTURE SUMMARY:
Info: 2923 ATOMS
Info: 2922 BONDS
Info: 33 ANGLES
Info: 46 DIHEDRALS
Info: 0 IMPROPERS
Info: 0 CROSSTERMS
Info: 2994 EXCLUSIONS
Info: 2916 RIGID BONDS
Info: ALCH: 0 ATOMS TO DISAPPEAR IN FINAL STATE
Info: ALCH: 19 ATOMS TO APPEAR IN FINAL STATE
Info: 5853 DEGREES OF FREEDOM
Info: 975 HYDROGEN GROUPS
Info: 4 ATOMS IN LARGEST HYDROGEN GROUP
Info: 975 MIGRATION GROUPS
Info: 4 ATOMS IN LARGEST MIGRATION GROUP
Info: TOTAL MASS = 17539.6 amu
Info: TOTAL CHARGE = -9.99793e-05 e
Info: MASS DENSITY = 0.968931 g/cm^3
Info: ATOM DENSITY = 0.0972392 atoms/A^3
Info: ADDED 0 IMPLICIT EXCLUSIONS
Info: NONBONDED TABLE R-SQUARED SPACING: 0.0625
Info: NONBONDED TABLE SIZE: 705 POINTS
Info: REMOVING COM VELOCITY 0.176082 -0.129184 0.0977595
Info: Use 3D box decompostion in PME FFT.
Info: Updated CUDA force table with 4096 elements.
Info: Updated CUDA LJ table with 6 x 6 elements.
Info: Found 19 unique exclusion lists needing 48 bytes
TCL: Running for 1500000 steps
ETITLE: TS BOND ANGLE DIHED IMPRP ELECT VDW BOUNDARY MISC KINETIC TOTAL TEMP POTENTIAL TOTALAVG TEMPAVG PRESSURE GPRESSURE VOLUME PRESSAVG GPRESSAVG
ENERGY: 0 0.5553 6.2617 3.3391 0.0000 -10540.5215 1422.4253 0.0000 0.0000 1749.2102 -7358.7298 300.7834 -9107.9399 -7358.7298 300.7834 70.3467 153.1899 30059.8860 70.3467 153.1899
ENERGY: 300000 2.4241 11.0981 3.6494 0.0000 -10635.1020 1479.2174 0.0000 0.0000 1739.3163 -7399.3967 299.0821 -9138.7131 -7409.7301 296.7723 324.9063 410.7793 29998.7527 336.2587 406.6407
ENERGY: 600000 2.4686 6.0942 4.2493 0.0000 -10461.2467 1361.4238 0.0000 0.0000 1741.0985 -7345.9123 299.3886 -9087.0108 -7386.0290 298.8753 -333.8736 -217.5515 29487.1896 -65.0940 21.6297
ENERGY: 900000 1.5871 7.7093 3.5610 0.0000 -10471.1936 1421.1627 0.0000 0.0000 1778.1534 -7259.0200 305.7603 -9037.1734 -7372.6676 300.3959 227.2506 284.1851 29918.1582 -33.9199 39.1991
ENERGY: 1200000 3.2937 8.1278 2.5798 0.0000 -10542.3622 1401.3773 0.0000 0.0000 1801.5098 -7325.4737 309.7765 -9126.9836 -7370.6180 300.4933 -430.2412 -371.2783 30293.8811 -79.4554 -13.9260
ENERGY: 1500000 3.4400 9.6475 2.8940 0.0000 -10594.6522 1416.9173 0.0000 0.0000 1755.8082 -7405.9451 301.9180 -9161.7534 -7372.4692 299.8372 -56.8191 1.6723 29765.2855 -164.5452 -102.7580
TCL: Running FEP window   2: Lambda1 0.05   Lambda2 0.1    [dLambda 0.05  ]
TCL: Setting parameter firsttimestep to 0
TCL: Setting parameter alchLambda to 0.05
Info: NONBONDED TABLE R-SQUARED SPACING: 0.0625
Info: NONBONDED TABLE SIZE: 705 POINTS
TCL: Setting parameter alchLambda2 to 0.1
Info: NONBONDED TABLE R-SQUARED SPACING: 0.0625
Info: NONBONDED TABLE SIZE: 705 POINTS
TCL: Running for 1500000 steps
ETITLE: TS BOND ANGLE DIHED IMPRP ELECT VDW BOUNDARY MISC KINETIC TOTAL TEMP POTENTIAL TOTALAVG TEMPAVG PRESSURE GPRESSURE VOLUME PRESSAVG GPRESSAVG
ENERGY: 0 3.4400 9.6475 2.8940 0.0000 -10594.6520 1418.6671 0.0000 0.0000 1754.9354 -7405.0679 301.7679 -9160.0033 -7405.0679 301.7679 -79.9961 9.2461 29765.2855 -79.9961 9.2461
ENERGY: 300000 3.5820 6.8142 3.1976 0.0000 -10384.3183 1373.8382 0.0000 0.0000 1731.7554 -7265.1309 297.7820 -8996.8863 -7394.2403 296.9433 -419.1977 -353.5998 30532.0908 -229.2106 -144.5370
ENERGY: 600000 0.4298 11.3348 2.7726 0.0000 -10548.2922 1423.2903 0.0000 0.0000 1746.2087 -7364.2560 300.2673 -9110.4647 -7383.1721 300.0926 423.3308 484.9129 29489.2853 -219.0284 -133.2511
ENERGY: 900000 1.9596 12.3612 3.1537 0.0000 -10628.2804 1454.7919 0.0000 0.0000 1783.6421 -7372.3720 306.7041 -9156.0141 -7382.9161 301.1620 163.3495 199.0305 30093.2801 -142.8988 -68.6676
ENERGY: 1200000 2.1268 12.1999 2.9160 0.0000 -10446.5023 1336.3423 0.0000 0.0000 1745.5812 -7347.3362 300.1594 -9092.9173 -7379.9221 300.6264 -725.8751 -664.4993 30358.5256 -148.7356 -73.5943
ENERGY: 1500000 1.3565 9.4715 3.7396 0.0000 -10546.9280 1427.0539 0.0000 0.0000 1712.1337 -7393.1729 294.4079 -9105.3066 -7385.5924 300.0079 55.9962 151.9490 29805.4547 -128.5882 -56.7141
TCL: Running FEP window   3: Lambda1 0.1    Lambda2 0.15000000000000002 [dLambda 0.05000000000000002]
TCL: Setting parameter firsttimestep to 0
TCL: Setting parameter alchLambda to 0.1
Info: NONBONDED TABLE R-SQUARED SPACING: 0.0625
Info: NONBONDED TABLE SIZE: 705 POINTS
TCL: Setting parameter alchLambda2 to 0.15000000000000002
Info: NONBONDED TABLE R-SQUARED SPACING: 0.0625
Info: NONBONDED TABLE SIZE: 705 POINTS
TCL: Running for 1500000 steps
ETITLE: TS BOND ANGLE DIHED IMPRP ELECT VDW BOUNDARY MISC KINETIC TOTAL TEMP POTENTIAL TOTALAVG TEMPAVG PRESSURE GPRESSURE VOLUME PRESSAVG GPRESSAVG
ENERGY: 0 1.3564 9.4715 3.7396 0.0000 -10546.9284 1428.7428 0.0000 0.0000 1711.2457 -7392.3724 294.2553 -9103.6181 -7392.3724 294.2553 75.2053 160.0062 29805.4547 75.2053 160.0062
ENERGY: 300000 2.8032 7.9376 3.3286 0.0000 -10510.5475 1417.2988 0.0000 0.0000 1763.9250 -7315.2542 303.3137 -9079.1792 -7357.4785 300.6318 162.3261 168.0387 30075.9554 -19.1228 22.8843
ENERGY: 600000 2.1014 11.5468 2.9010 0.0000 -10571.5809 1410.7806 0.0000 0.0000 1730.9561 -7413.2949 297.6445 -9144.2510 -7385.8262 299.9685 1.2752 34.3268 29475.0330 88.5010 118.1988
ENERGY: 900000 3.0262 8.1516 3.1562 0.0000 -10657.9067 1493.7996 0.0000 0.0000 1782.6280 -7367.1450 306.5297 -9149.7730 -7379.6980 301.2693 437.5581 525.0968 29444.8312 142.3187 197.0010
ENERGY: 1200000 0.7325 10.8384 2.9403 0.0000 -10614.6692 1437.1954 0.0000 0.0000 1778.6255 -7384.3371 305.8415 -9162.9626 -7377.9792 301.6106 212.8028 259.7550 29830.6771 117.7089 174.2149
ENERGY: 1500000 2.4064 6.5796 3.5585 0.0000 -10499.7668 1365.4191 0.0000 0.0000 1724.0506 -7397.7526 296.4571 -9121.8031 -7384.5089 300.7891 -658.7728 -521.8440 30222.7714 34.2234 99.2124
TCL: Running FEP window   4: Lambda1 0.15000000000000002 Lambda2 0.2    [dLambda 0.04999999999999999]
TCL: Setting parameter firsttimestep to 0
TCL: Setting parameter alchLambda to 0.15000000000000002
Info: NONBONDED TABLE R-SQUARED SPACING: 0.0625
Info: NONBONDED TABLE SIZE: 705 POINTS
TCL: Setting parameter alchLambda2 to 0.2
Info: NONBONDED TABLE R-SQUARED SPACING: 0.0625
Info: NONBONDED TABLE SIZE: 705 POINTS
TCL: Running for 1500000 steps
ETITLE: TS BOND ANGLE DIHED IMPRP ELECT VDW BOUNDARY MISC KINETIC TOTAL TEMP POTENTIAL TOTALAVG TEMPAVG PRESSURE GPRESSURE VOLUME PRESSAVG GPRESSAVG
ENERGY: 0 2.4064 6.5796 3.5585 0.0000 -10499.7668 1366.5528 0.0000 0.0000 1723.1608 -7397.5086 296.3041 -9120.6694 -7397.5086 296.3041 -589.0254 -512.0113 30222.7714 -589.0254 -512.0113
ENERGY: 300000 2.1150 7.9682 3.1961 0.0000 -10561.8293 1447.5971 0.0000 0.0000 1757.2623 -7343.6905 302.1680 -9100.9528 -7378.6342 299.9618 472.8253 509.0889 29544.0264 147.7660 191.7057
ENERGY: 600000 1.8561 4.4216 3.4955 0.0000 -10629.7131 1403.7263 0.0000 0.0000 1731.2283 -7484.9853 297.6913 -9216.2136 -7393.5682 300.2540 -429.3376 -327.3254 30025.7973 -53.8463 -1.2074
ENERGY: 900000 1.8271 10.2192 3.3093 0.0000 -10661.7430 1484.6275 0.0000 0.0000 1727.9953 -7433.7646 297.1354 -9161.7599 -7394.2389 300.1025 180.5494 235.7866 30059.3032 -4.7229 47.8296
ENERGY: 1200000 0.8292 9.8619 3.6884 0.0000 -10534.6701 1360.4211 0.0000 0.0000 1782.5004 -7377.3691 306.5078 -9159.8696 -7417.6786 299.4172 -622.2173 -573.6014 30122.9224 -48.1022 -1.2626
ENERGY: 1500000 0.7491 7.2528 3.0955 0.0000 -10595.2801 1406.8544 0.0000 0.0000 1749.0061 -7428.3222 300.7483 -9177.3283 -7412.6162 299.5667 -379.0804 -349.3400 30214.7616 -36.9131 13.9875
TCL: Running FEP window   5: Lambda1 0.2    Lambda2 0.25   [dLambda 0.04999999999999999]
TCL: Setting parameter firsttimestep to 0
TCL: Setting parameter alchLambda to 0.2
Info: NONBONDED TABLE R-SQUARED SPACING: 0.0625
Info: NONBONDED TABLE SIZE: 705 POINTS
TCL: Setting parameter alchLambda2 to 0.25
Info: NONBONDED TABLE R-SQUARED SPACING: 0.0625
Info: NONBONDED TABLE SIZE: 705 POINTS
TCL: Running for 1500000 steps
ETITLE: TS BOND ANGLE DIHED IMPRP ELECT VDW BOUNDARY MISC KINETIC TOTAL TEMP POTENTIAL TOTALAVG TEMPAVG PRESSURE GPRESSURE VOLUME PRESSAVG GPRESSAVG
ENERGY: 0 0.7491 7.2528 3.0955 0.0000 -10595.2809 1406.8117 0.0000 0.0000 1748.0957 -7429.2761 300.5918 -9177.3719 -7429.2761 300.5918 -421.4919 -345.9007 30214.7616 -421.4919 -345.9007
ENERGY: 300000 2.1238 10.6600 3.6229 0.0000 -10621.4931 1491.0190 0.0000 0.0000 1751.3828 -7362.6846 301.1570 -9114.0674 -7413.7368 299.7183 324.8914 432.0044 30232.0088 -38.9033 13.7432
ENERGY: 600000 2.3096 11.4078 2.8550 0.0000 -10573.4531 1410.6455 0.0000 0.0000 1721.8421 -7424.3931 296.0774 -9146.2353 -7403.1471 299.3063 -12.9831 43.1608 29754.0909 -68.8417 -14.3845
ENERGY: 900000 9.2768 12.9332 3.1461 0.0000 -10558.2121 1360.3162 0.0000 0.0000 1809.0503 -7363.4895 311.0731 -9172.5399 -7407.0390 300.5585 -727.5014 -659.2562 30037.0563 -111.2822 -62.4642
ENERGY: 1200000 2.5885 10.8453 2.9313 0.0000 -10552.4332 1383.9169 0.0000 0.0000 1717.3655 -7434.7857 295.3076 -9152.1512 -7409.4579 300.1810 -371.3627 -288.6457 29732.8830 -126.2610 -73.7228
ENERGY: 1500000 0.8720 9.9189 3.3595 0.0000 -10415.2159 1348.4779 0.0000 0.0000 1723.7913 -7328.7963 296.4125 -9052.5876 -7404.8192 299.8606 -751.8088 -662.2652 30670.7090 -99.4444 -38.2827
TCL: Running FEP window   6: Lambda1 0.25   Lambda2 0.3    [dLambda 0.04999999999999999]
TCL: Setting parameter firsttimestep to 0
TCL: Setting parameter alchLambda to 0.25
Info: NONBONDED TABLE R-SQUARED SPACING: 0.0625
Info: NONBONDED TABLE SIZE: 705 POINTS
TCL: Setting parameter alchLambda2 to 0.3
Info: NONBONDED TABLE R-SQUARED SPACING: 0.0625
Info: NONBONDED TABLE SIZE: 705 POINTS
TCL: Running for 1500000 steps
ETITLE: TS BOND ANGLE DIHED IMPRP ELECT VDW BOUNDARY MISC KINETIC TOTAL TEMP POTENTIAL TOTALAVG TEMPAVG PRESSURE GPRESSURE VOLUME PRESSAVG GPRESSAVG
ENERGY: 0 0.8720 9.9189 3.3595 0.0000 -10415.2153 1348.6767 0.0000 0.0000 1722.9273 -7329.4609 296.2639 -9052.3882 -7329.4609 296.2639 -754.1152 -659.4339 30670.7090 -754.1152 -659.4339
ENERGY: 300000 2.0951 10.0792 3.2114 0.0000 -10691.6259 1468.5606 0.0000 0.0000 1759.8208 -7447.8588 302.6079 -9207.6796 -7415.2073 299.6975 110.2944 158.5112 29932.4279 -278.6555 -198.4493
ENERGY: 600000 0.5683 8.6004 3.2546 0.0000 -10584.1551 1435.5811 0.0000 0.0000 1736.6987 -7399.4521 298.6320 -9136.1507 -7375.1518 302.1861 230.9059 267.8635 29888.7858 -150.8092 -70.6956
ENERGY: 900000 2.3548 10.9593 4.2977 0.0000 -10616.7435 1413.0593 0.0000 0.0000 1790.6236 -7395.4487 307.9046 -9186.0723 -7375.0027 300.8027 -515.8334 -453.8577 30192.7876 -99.4072 -31.8410
ENERGY: 1200000 5.0944 6.5881 3.1962 0.0000 -10500.5828 1308.9517 0.0000 0.0000 1703.2049 -7473.5475 292.8726 -9176.7524 -7375.2835 299.7961 -1354.8554 -1234.3980 30337.5275 -215.0274 -145.2799
ENERGY: 1500000 4.7282 9.0190 3.0234 0.0000 -10749.4948 1582.7443 0.0000 0.0000 1786.8723 -7363.1075 307.2595 -9149.9799 -7369.7557 300.2342 1254.3942 1364.6173 29698.6856 -93.9917 -29.6682
TCL: Running FEP window   7: Lambda1 0.3    Lambda2 0.35   [dLambda 0.04999999999999999]
TCL: Setting parameter firsttimestep to 0
TCL: Setting parameter alchLambda to 0.3
Info: NONBONDED TABLE R-SQUARED SPACING: 0.0625
Info: NONBONDED TABLE SIZE: 705 POINTS
TCL: Setting parameter alchLambda2 to 0.35
Info: NONBONDED TABLE R-SQUARED SPACING: 0.0625
Info: NONBONDED TABLE SIZE: 705 POINTS
TCL: Running for 1500000 steps
ETITLE: TS BOND ANGLE DIHED IMPRP ELECT VDW BOUNDARY MISC KINETIC TOTAL TEMP POTENTIAL TOTALAVG TEMPAVG PRESSURE GPRESSURE VOLUME PRESSAVG GPRESSAVG
ENERGY: 0 4.7282 9.0190 3.0234 0.0000 -10749.4937 1583.2814 0.0000 0.0000 1786.0279 -7363.4138 307.1143 -9149.4417 -7363.4138 307.1143 1294.2807 1369.2131 29698.6856 1294.2807 1369.2131
ENERGY: 300000 1.8387 11.0302 3.4666 0.0000 -10617.0214 1468.8299 0.0000 0.0000 1843.4026 -7288.4534 316.9801 -9131.8560 -7348.8396 308.5837 570.2444 655.3738 29720.2792 444.7307 522.5108
ENERGY: 600000 1.9939 6.8537 3.1924 0.0000 -10598.0120 1404.9063 0.0000 0.0000 1773.5191 -7407.5466 304.9634 -9181.0657 -7370.7607 307.1288 -34.4081 -35.6813 29906.3998 165.5397 236.9597
ENERGY: 900000 1.2522 7.1609 4.0467 0.0000 -10520.2177 1377.5473 0.0000 0.0000 1747.2013 -7383.0091 300.4380 -9130.2105 -7378.8470 304.9372 -432.6054 -321.2253 29919.7820 72.0021 152.2269
ENERGY: 1200000 1.6128 5.4396 2.7769 0.0000 -10443.7533 1301.6759 0.0000 0.0000 1735.4203 -7396.8278 298.4122 -9132.2481 -7389.4596 303.7128 -912.4010 -842.5356 29979.2252 -66.6341 9.8930
ENERGY: 1500000 1.0253 10.3282 2.7426 0.0000 -10562.1894 1405.3089 0.0000 0.0000 1756.4778 -7386.3066 302.0331 -9142.7844 -7391.1051 303.0078 -215.4350 -193.1242 30051.3601 -118.7249 -49.0835
TCL: Running FEP window   8: Lambda1 0.35   Lambda2 0.39999999999999997 [dLambda 0.04999999999999999]
TCL: Setting parameter firsttimestep to 0
TCL: Setting parameter alchLambda to 0.35
Info: NONBONDED TABLE R-SQUARED SPACING: 0.0625
Info: NONBONDED TABLE SIZE: 705 POINTS
TCL: Setting parameter alchLambda2 to 0.39999999999999997
Info: NONBONDED TABLE R-SQUARED SPACING: 0.0625
Info: NONBONDED TABLE SIZE: 705 POINTS
TCL: Running for 1500000 steps
ETITLE: TS BOND ANGLE DIHED IMPRP ELECT VDW BOUNDARY MISC KINETIC TOTAL TEMP POTENTIAL TOTALAVG TEMPAVG PRESSURE GPRESSURE VOLUME PRESSAVG GPRESSAVG
ENERGY: 0 1.0253 10.3282 2.7426 0.0000 -10562.1900 1405.6922 0.0000 0.0000 1755.6013 -7386.8004 301.8824 -9142.4017 -7386.8004 301.8824 -270.0688 -183.8926 30051.3601 -270.0688 -183.8926
ENERGY: 300000 1.5020 8.4473 2.8700 0.0000 -10532.3932 1430.5150 0.0000 0.0000 1780.4977 -7308.5611 306.1634 -9089.0588 -7359.7825 304.4454 325.4795 413.3871 29928.4211 -19.5097 38.4861
ENERGY: 600000 0.8274 5.0972 3.0588 0.0000 -10547.2859 1431.5070 0.0000 0.0000 1757.8973 -7348.8982 302.2772 -9106.7955 -7359.8588 302.0354 315.0304 380.4679 29939.5605 70.6764 131.8823
ENERGY: 900000 1.7746 8.8162 3.0454 0.0000 -10481.3609 1361.6637 0.0000 0.0000 1800.7826 -7305.2783 309.6515 -9106.0610 -7375.5435 302.0477 -384.2917 -375.9823 30350.2137 -123.6736 -69.6570
ENERGY: 1200000 3.2958 14.2259 2.9714 0.0000 -10535.4078 1412.1662 0.0000 0.0000 1764.1242 -7338.6241 303.3479 -9102.7483 -7374.0232 302.3488 -54.0965 14.8218 29945.7227 -62.2422 -8.7756
ENERGY: 1500000 3.2367 7.8871 2.7329 0.0000 -10514.7595 1365.9972 0.0000 0.0000 1765.3113 -7369.5942 303.5520 -9134.9055 -7376.1660 301.8734 -529.4110 -463.5599 30126.5878 -106.5304 -57.5566
TCL: Running FEP window   9: Lambda1 0.39999999999999997 Lambda2 0.44999999999999996 [dLambda 0.04999999999999999]
TCL: Setting parameter firsttimestep to 0
TCL: Setting parameter alchLambda to 0.39999999999999997
Info: NONBONDED TABLE R-SQUARED SPACING: 0.0625
Info: NONBONDED TABLE SIZE: 705 POINTS
TCL: Setting parameter alchLambda2 to 0.44999999999999996
Info: NONBONDED TABLE R-SQUARED SPACING: 0.0625
Info: NONBONDED TABLE SIZE: 705 POINTS
TCL: Running for 1500000 steps
ETITLE: TS BOND ANGLE DIHED IMPRP ELECT VDW BOUNDARY MISC KINETIC TOTAL TEMP POTENTIAL TOTALAVG TEMPAVG PRESSURE GPRESSURE VOLUME PRESSAVG GPRESSAVG
ENERGY: 0 3.2367 7.8871 2.7329 0.0000 -10514.7601 1366.7666 0.0000 0.0000 1764.4309 -7369.7058 303.4006 -9134.1367 -7369.7058 303.4006 -522.7136 -452.5126 30126.5878 -522.7136 -452.5126
ENERGY: 300000 3.9292 10.9530 2.6850 0.0000 -10650.9812 1467.3000 0.0000 0.0000 1751.7395 -7414.3745 301.2183 -9166.1140 -7405.5333 301.3154 106.0908 160.2041 30224.4580 25.4596 88.0994
ENERGY: 600000 1.6631 8.6491 2.9742 0.0000 -10489.9624 1392.1640 0.0000 0.0000 1715.0375 -7369.4746 294.9073 -9084.5121 -7399.3086 298.6709 -292.5109 -156.5783 30344.9471 -19.3182 48.6886
ENERGY: 900000 0.8132 9.6545 2.8981 0.0000 -10727.4605 1549.4157 0.0000 0.0000 1734.6071 -7430.0719 298.2723 -9164.6790 -7406.7989 297.2285 1052.0856 1109.6988 29640.9681 97.2558 165.7730
ENERGY: 1200000 2.0647 14.1980 3.0522 0.0000 -10479.8232 1415.2127 0.0000 0.0000 1775.8067 -7269.4889 305.3568 -9045.2956 -7401.1212 298.0544 80.0774 202.6154 30386.9769 5.8115 78.7024
ENERGY: 1500000 1.7199 6.4640 3.8836 0.0000 -10557.8686 1399.5771 0.0000 0.0000 1766.6240 -7379.6000 303.7778 -9146.2241 -7399.0298 298.7914 -170.7673 -136.1061 29814.1836 -43.7583 26.3674
TCL: Running FEP window  10: Lambda1 0.44999999999999996 Lambda2 0.49999999999999994 [dLambda 0.04999999999999999]
TCL: Setting parameter firsttimestep to 0
TCL: Setting parameter alchLambda to 0.44999999999999996
Info: NONBONDED TABLE R-SQUARED SPACING: 0.0625
Info: NONBONDED TABLE SIZE: 705 POINTS
TCL: Setting parameter alchLambda2 to 0.49999999999999994
Info: NONBONDED TABLE R-SQUARED SPACING: 0.0625
Info: NONBONDED TABLE SIZE: 705 POINTS
TCL: Running for 1500000 steps
ETITLE: TS BOND ANGLE DIHED IMPRP ELECT VDW BOUNDARY MISC KINETIC TOTAL TEMP POTENTIAL TOTALAVG TEMPAVG PRESSURE GPRESSURE VOLUME PRESSAVG GPRESSAVG
ENERGY: 0 1.7199 6.4640 3.8836 0.0000 -10557.8673 1400.1024 0.0000 0.0000 1765.7313 -7379.9661 303.6243 -9145.6974 -7379.9661 303.6243 -209.7212 -124.4744 29814.1836 -209.7212 -124.4744
ENERGY: 300000 4.1766 6.4910 4.1919 0.0000 -10694.7079 1500.5760 0.0000 0.0000 1730.5313 -7448.7411 297.5715 -9179.2724 -7370.9222 304.7697 484.7971 484.8422 30022.7835 -234.7973 -188.6410
ENERGY: 600000 0.4473 9.4273 3.6224 0.0000 -10581.6736 1452.8388 0.0000 0.0000 1703.3061 -7412.0318 292.8900 -9115.3379 -7393.8457 301.5039 399.4546 503.1359 29999.5734 -184.5847 -120.2891
ENERGY: 900000 0.8333 16.2405 3.1754 0.0000 -10676.9807 1425.4554 0.0000 0.0000 1774.8722 -7456.4039 305.1961 -9231.2761 -7403.1660 302.0824 -393.6132 -280.0299 30206.0920 -206.5602 -141.7484
ENERGY: 1200000 1.6634 8.6133 4.0399 0.0000 -10707.1631 1459.1985 0.0000 0.0000 1751.7793 -7481.8687 301.2252 -9233.6480 -7415.4756 300.9861 135.5359 125.7386 29697.9287 -283.4710 -222.5091
ENERGY: 1500000 3.5991 8.0544 2.7808 0.0000 -10501.9331 1407.8418 0.0000 0.0000 1745.0607 -7334.5963 300.0699 -9079.6571 -7404.9780 300.1865 -191.7753 -114.4330 30589.1257 -246.2155 -188.1962
TCL: Running FEP window  11: Lambda1 0.49999999999999994 Lambda2 0.5499999999999999 [dLambda 0.04999999999999999]
TCL: Setting parameter firsttimestep to 0
TCL: Setting parameter alchLambda to 0.49999999999999994
Info: NONBONDED TABLE R-SQUARED SPACING: 0.0625
Info: NONBONDED TABLE SIZE: 705 POINTS
TCL: Setting parameter alchLambda2 to 0.5499999999999999
Info: NONBONDED TABLE R-SQUARED SPACING: 0.0625
Info: NONBONDED TABLE SIZE: 705 POINTS
TCL: Running for 1500000 steps
ETITLE: TS BOND ANGLE DIHED IMPRP ELECT VDW BOUNDARY MISC KINETIC TOTAL TEMP POTENTIAL TOTALAVG TEMPAVG PRESSURE GPRESSURE VOLUME PRESSAVG GPRESSAVG
ENERGY: 0 3.5991 8.0544 2.7808 0.0000 -10501.9331 1407.2822 0.0000 0.0000 1744.1709 -7336.0458 299.9169 -9080.2167 -7336.0458 299.9169 -181.4129 -111.2055 30589.1257 -181.4129 -111.2055
ENERGY: 300000 7.2195 7.6529 3.4551 0.0000 -10547.9300 1431.4798 0.0000 0.0000 1734.0265 -7364.0963 298.1725 -9098.1228 -7364.8822 300.6246 -217.0566 -156.4280 30421.7460 -59.1855 -23.5929
ENERGY: 600000 2.1141 13.7910 3.2530 0.0000 -10636.8934 1456.0582 0.0000 0.0000 1721.1043 -7440.5728 295.9505 -9161.6770 -7389.6430 299.1456 62.3419 179.2979 30099.1401 13.3433 68.0744
ENERGY: 900000 2.6708 6.3562 3.1656 0.0000 -10574.5450 1407.0653 0.0000 0.0000 1775.9370 -7379.3501 305.3792 -9155.2871 -7372.6318 300.5404 -272.3911 -226.8630 30336.4836 0.3510 56.7357
ENERGY: 1200000 0.8384 10.1409 3.0663 0.0000 -10516.8200 1383.3143 0.0000 0.0000 1746.3216 -7373.1385 300.2867 -9119.4601 -7374.3649 300.7164 -536.7249 -485.6853 30735.3672 -136.7009 -83.0120
ENERGY: 1500000 4.6159 7.2027 6.5161 0.0000 -10619.7771 1457.7683 0.0000 0.0000 1823.9315 -7319.7426 313.6320 -9143.6742 -7376.8593 301.3133 313.4431 323.8762 29940.4485 -116.1934 -65.2711
TCL: Running FEP window  12: Lambda1 0.5499999999999999 Lambda2 0.6    [dLambda 0.050000000000000044]
TCL: Setting parameter firsttimestep to 0
TCL: Setting parameter alchLambda to 0.5499999999999999
Info: NONBONDED TABLE R-SQUARED SPACING: 0.0625
Info: NONBONDED TABLE SIZE: 705 POINTS
TCL: Setting parameter alchLambda2 to 0.6
Info: NONBONDED TABLE R-SQUARED SPACING: 0.0625
Info: NONBONDED TABLE SIZE: 705 POINTS
TCL: Running for 1500000 steps
ETITLE: TS BOND ANGLE DIHED IMPRP ELECT VDW BOUNDARY MISC KINETIC TOTAL TEMP POTENTIAL TOTALAVG TEMPAVG PRESSURE GPRESSURE VOLUME PRESSAVG GPRESSAVG
ENERGY: 0 4.6159 7.2027 6.5161 0.0000 -10619.9570 1458.0750 0.0000 0.0000 1823.0391 -7320.5083 313.4786 -9143.5474 -7320.5083 313.4786 259.3575 332.0241 29940.4485 259.3575 332.0241
ENERGY: 300000 2.7290 6.1063 3.4874 0.0000 -10570.8656 1442.9919 0.0000 0.0000 1735.4997 -7380.0514 298.4258 -9115.5510 -7380.9146 301.6249 170.5773 264.1668 29894.4187 232.8492 314.8543
ENERGY: 600000 3.4105 12.6922 3.4883 0.0000 -10610.6337 1387.2558 0.0000 0.0000 1732.0237 -7471.7633 297.8281 -9203.7870 -7393.6064 300.5162 -512.8498 -412.3970 29805.5152 99.7640 186.4003
ENERGY: 900000 2.8878 7.4718 4.0588 0.0000 -10673.8255 1499.6840 0.0000 0.0000 1778.9617 -7380.7614 305.8993 -9159.7231 -7406.7994 300.6386 250.0371 320.2900 30444.9663 35.5259 106.8768
ENERGY: 1200000 2.7149 10.9972 3.5066 0.0000 -10489.3733 1331.5975 0.0000 0.0000 1725.9761 -7414.5809 296.7882 -9140.5570 -7407.5080 299.7895 -834.9262 -764.7398 30223.5946 -40.9702 36.2754
ENERGY: 1500000 4.4695 9.9992 3.1947 0.0000 -10709.5882 1488.8463 0.0000 0.0000 1665.6014 -7537.4771 286.4066 -9203.0786 -7404.5307 299.4944 383.8025 443.8921 29606.5381 -8.5036 63.8878
TCL: Running FEP window  13: Lambda1 0.6    Lambda2 0.65   [dLambda 0.050000000000000044]
TCL: Setting parameter firsttimestep to 0
TCL: Setting parameter alchLambda to 0.6
Info: NONBONDED TABLE R-SQUARED SPACING: 0.0625
Info: NONBONDED TABLE SIZE: 705 POINTS
TCL: Setting parameter alchLambda2 to 0.65
Info: NONBONDED TABLE R-SQUARED SPACING: 0.0625
Info: NONBONDED TABLE SIZE: 705 POINTS
TCL: Running for 1500000 steps
ETITLE: TS BOND ANGLE DIHED IMPRP ELECT VDW BOUNDARY MISC KINETIC TOTAL TEMP POTENTIAL TOTALAVG TEMPAVG PRESSURE GPRESSURE VOLUME PRESSAVG GPRESSAVG
ENERGY: 0 4.4695 9.9992 3.1947 0.0000 -10709.6441 1489.1720 0.0000 0.0000 1664.7732 -7538.0355 286.2641 -9202.8087 -7538.0355 286.2641 371.3614 453.1403 29606.5381 371.3614 453.1403
ENERGY: 300000 1.0256 10.3013 3.1199 0.0000 -10696.4317 1599.2183 0.0000 0.0000 1721.6760 -7361.0906 296.0488 -9082.7666 -7448.7267 293.4620 1378.4740 1481.5639 29931.3218 450.5021 519.9728
ENERGY: 600000 1.6064 15.9589 4.5813 0.0000 -10557.8915 1457.0241 0.0000 0.0000 1845.3018 -7233.4190 317.3067 -9078.7208 -7407.1891 299.9556 463.5158 450.5648 30271.1947 233.7988 298.2468
ENERGY: 900000 2.2978 10.4941 3.2160 0.0000 -10532.9180 1439.5175 0.0000 0.0000 1774.4487 -7302.9438 305.1233 -9077.3925 -7397.4541 300.0084 378.9345 336.5301 30348.3880 266.4738 319.0124
ENERGY: 1200000 2.5888 7.4425 4.5818 0.0000 -10593.9997 1492.1872 0.0000 0.0000 1720.9613 -7366.2381 295.9259 -9087.1994 -7398.6597 299.3296 929.8950 951.9428 29657.9470 321.9310 367.5916
ENERGY: 1500000 1.2031 7.5874 3.1113 0.0000 -10688.4086 1538.0950 0.0000 0.0000 1810.2723 -7328.1396 311.2833 -9138.4118 -7389.8650 300.6225 1259.2234 1332.5870 29695.4010 309.6413 364.5757
TCL: Running FEP window  14: Lambda1 0.65   Lambda2 0.7000000000000001 [dLambda 0.050000000000000044]
TCL: Setting parameter firsttimestep to 0
TCL: Setting parameter alchLambda to 0.65
Info: NONBONDED TABLE R-SQUARED SPACING: 0.0625
Info: NONBONDED TABLE SIZE: 705 POINTS
TCL: Setting parameter alchLambda2 to 0.7000000000000001
Info: NONBONDED TABLE R-SQUARED SPACING: 0.0625
Info: NONBONDED TABLE SIZE: 705 POINTS
TCL: Running for 1500000 steps
ETITLE: TS BOND ANGLE DIHED IMPRP ELECT VDW BOUNDARY MISC KINETIC TOTAL TEMP POTENTIAL TOTALAVG TEMPAVG PRESSURE GPRESSURE VOLUME PRESSAVG GPRESSAVG
ENERGY: 0 1.2031 7.5874 3.1113 0.0000 -10688.7003 1538.0186 0.0000 0.0000 1809.4146 -7329.3653 311.1358 -9138.7800 -7329.3653 311.1358 1247.9820 1341.8994 29695.4010 1247.9820 1341.8994
ENERGY: 300000 1.6200 8.3080 3.0730 0.0000 -10542.4162 1398.7687 0.0000 0.0000 1774.2135 -7356.4330 305.0828 -9130.6465 -7361.0368 302.3318 -42.5275 -6.1321 29861.8681 33.1463 99.5180
ENERGY: 600000 1.3569 11.2862 3.9178 0.0000 -10514.8194 1427.4593 0.0000 0.0000 1700.8359 -7369.9633 292.4653 -9070.7992 -7369.9911 299.0935 63.5386 123.8458 30416.9326 -141.0931 -81.4452
ENERGY: 900000 1.7208 7.0097 3.1552 0.0000 -10518.0786 1373.4643 0.0000 0.0000 1744.6685 -7388.0600 300.0024 -9132.7285 -7383.8274 299.5165 -592.7363 -542.2627 30370.8808 -227.7079 -170.4694
ENERGY: 1200000 0.7183 7.3696 3.3617 0.0000 -10424.8409 1346.9238 0.0000 0.0000 1809.6622 -7256.8052 311.1783 -9066.4674 -7366.5936 300.7985 -693.4987 -540.3463 30424.9056 -246.1734 -181.3578
ENERGY: 1500000 1.6332 7.5159 2.7366 0.0000 -10472.9406 1366.8533 0.0000 0.0000 1717.8720 -7376.3296 295.3947 -9094.2016 -7366.7118 300.6400 -64.3108 21.2254 29693.8494 -262.6089 -200.5764
TCL: Running FEP window  15: Lambda1 0.7000000000000001 Lambda2 0.7500000000000001 [dLambda 0.050000000000000044]
TCL: Setting parameter firsttimestep to 0
TCL: Setting parameter alchLambda to 0.7000000000000001
Info: NONBONDED TABLE R-SQUARED SPACING: 0.0625
Info: NONBONDED TABLE SIZE: 705 POINTS
TCL: Setting parameter alchLambda2 to 0.7500000000000001
Info: NONBONDED TABLE R-SQUARED SPACING: 0.0625
Info: NONBONDED TABLE SIZE: 705 POINTS
TCL: Running for 1500000 steps
ETITLE: TS BOND ANGLE DIHED IMPRP ELECT VDW BOUNDARY MISC KINETIC TOTAL TEMP POTENTIAL TOTALAVG TEMPAVG PRESSURE GPRESSURE VOLUME PRESSAVG GPRESSAVG
ENERGY: 0 1.6332 7.5159 2.7366 0.0000 -10473.6323 1367.4977 0.0000 0.0000 1717.0116 -7377.2373 295.2467 -9094.2489 -7377.2373 295.2467 -51.1109 39.9761 29693.8494 -51.1109 39.9761
ENERGY: 300000 2.1292 11.9138 4.4725 0.0000 -10670.7411 1569.4220 0.0000 0.0000 1817.9203 -7264.8833 312.5984 -9082.8036 -7353.1043 301.7268 1637.6549 1630.6595 29616.5692 388.5459 452.0725
ENERGY: 600000 2.4534 9.3562 2.8753 0.0000 -10672.3713 1486.7111 0.0000 0.0000 1797.9915 -7372.9838 309.1715 -9170.9753 -7371.9582 302.1241 298.6664 384.6337 30124.5839 246.8303 306.1525
ENERGY: 900000 2.3058 8.7507 3.0088 0.0000 -10594.1519 1450.6271 0.0000 0.0000 1743.9406 -7385.5187 299.8773 -9129.4594 -7379.8811 301.6976 120.1748 139.5520 30271.7539 89.0385 143.4144
ENERGY: 1200000 2.4946 6.6044 2.7828 0.0000 -10531.8580 1369.3329 0.0000 0.0000 1765.9840 -7384.6593 303.6677 -9150.6433 -7388.4018 301.5442 -458.4713 -361.5532 29971.4209 57.4058 104.7426
ENERGY: 1500000 3.1817 12.1227 3.2213 0.0000 -10553.9223 1378.1987 0.0000 0.0000 1690.0497 -7467.1482 290.6105 -9157.1979 -7396.2968 300.4027 -463.9061 -421.4973 30407.2873 -15.9823 40.4870
TCL: Running FEP window  16: Lambda1 0.7500000000000001 Lambda2 0.8000000000000002 [dLambda 0.050000000000000044]
TCL: Setting parameter firsttimestep to 0
TCL: Setting parameter alchLambda to 0.7500000000000001
Info: NONBONDED TABLE R-SQUARED SPACING: 0.0625
Info: NONBONDED TABLE SIZE: 705 POINTS
TCL: Setting parameter alchLambda2 to 0.8000000000000002
Info: NONBONDED TABLE R-SQUARED SPACING: 0.0625
Info: NONBONDED TABLE SIZE: 705 POINTS
TCL: Running for 1500000 steps
ETITLE: TS BOND ANGLE DIHED IMPRP ELECT VDW BOUNDARY MISC KINETIC TOTAL TEMP POTENTIAL TOTALAVG TEMPAVG PRESSURE GPRESSURE VOLUME PRESSAVG GPRESSAVG
ENERGY: 0 3.1817 12.1227 3.2213 0.0000 -10554.7391 1378.3093 0.0000 0.0000 1689.2001 -7468.7041 290.4644 -9157.9041 -7468.7041 290.4644 -485.7250 -409.6665 30407.2873 -485.7250 -409.6665
ENERGY: 300000 2.3826 5.7807 3.0047 0.0000 -10670.4002 1467.8802 0.0000 0.0000 1752.0488 -7439.3032 301.2715 -9191.3520 -7443.3694 296.2267 235.7153 315.7156 29876.9809 -140.0357 -74.1716
ENERGY: 600000 1.9358 6.9673 3.3262 0.0000 -10633.0658 1497.1367 0.0000 0.0000 1688.9200 -7434.7798 290.4163 -9123.6998 -7438.5012 296.8014 632.3635 664.0697 29953.1825 17.8567 66.8926
ENERGY: 900000 2.2877 10.4763 3.8387 0.0000 -10629.0353 1437.4742 0.0000 0.0000 1788.6407 -7386.3177 307.5636 -9174.9584 -7435.8786 298.3581 119.3880 247.2719 29997.6741 79.0525 123.0471
ENERGY: 1200000 1.4973 7.4727 3.2423 0.0000 -10580.1924 1400.6687 0.0000 0.0000 1729.5554 -7437.7559 297.4037 -9167.3113 -7423.5563 298.6435 -454.7899 -333.0814 30368.4451 -56.9995 -3.8837
ENERGY: 1500000 2.3215 7.8128 3.4292 0.0000 -10612.1225 1469.7647 0.0000 0.0000 1743.1516 -7385.6428 299.7416 -9128.7944 -7405.4952 299.2430 262.5249 276.9683 30166.7359 -99.3919 -45.3423
TCL: Running FEP window  17: Lambda1 0.8000000000000002 Lambda2 0.8500000000000002 [dLambda 0.050000000000000044]
TCL: Setting parameter firsttimestep to 0
TCL: Setting parameter alchLambda to 0.8000000000000002
Info: NONBONDED TABLE R-SQUARED SPACING: 0.0625
Info: NONBONDED TABLE SIZE: 705 POINTS
TCL: Setting parameter alchLambda2 to 0.8500000000000002
Info: NONBONDED TABLE R-SQUARED SPACING: 0.0625
Info: NONBONDED TABLE SIZE: 705 POINTS
TCL: Running for 1500000 steps
ETITLE: TS BOND ANGLE DIHED IMPRP ELECT VDW BOUNDARY MISC KINETIC TOTAL TEMP POTENTIAL TOTALAVG TEMPAVG PRESSURE GPRESSURE VOLUME PRESSAVG GPRESSAVG
ENERGY: 0 2.3214 7.8128 3.4292 0.0000 -10612.4571 1469.2366 0.0000 0.0000 1742.2778 -7387.3792 299.5914 -9129.6570 -7387.3792 299.5914 195.6125 280.4205 30166.7359 195.6125 280.4205
ENERGY: 300000 1.2303 12.3680 2.8846 0.0000 -10695.2261 1458.6691 0.0000 0.0000 1771.5464 -7448.5277 304.6242 -9220.0741 -7369.7552 302.0014 -46.8561 60.1109 30021.3907 55.8561 118.7511
ENERGY: 600000 3.0712 7.6850 2.6637 0.0000 -10576.8755 1427.8934 0.0000 0.0000 1755.1409 -7380.4213 301.8032 -9135.5622 -7367.5518 301.6588 -64.5299 60.0731 30190.8773 21.8184 84.1410
ENERGY: 900000 2.2184 8.8949 3.0681 0.0000 -10554.8938 1410.4896 0.0000 0.0000 1706.1030 -7424.1200 293.3709 -9130.2230 -7371.1649 300.6241 -296.0199 -239.5085 30394.2253 15.9570 81.3422
ENERGY: 1200000 2.4780 8.6675 3.3376 0.0000 -10550.5728 1408.2547 0.0000 0.0000 1717.4058 -7410.4291 295.3145 -9127.8349 -7376.7498 301.2819 72.2143 121.4482 29992.2604 11.4861 88.0800
ENERGY: 1500000 2.9477 10.1995 2.7851 0.0000 -10467.2599 1404.2784 0.0000 0.0000 1764.5711 -7282.4781 303.4248 -9047.0493 -7375.2757 301.1575 -354.7424 -282.8769 30917.2936 -43.7600 35.7757
TCL: Running FEP window  18: Lambda1 0.8500000000000002 Lambda2 0.9000000000000002 [dLambda 0.050000000000000044]
TCL: Setting parameter firsttimestep to 0
TCL: Setting parameter alchLambda to 0.8500000000000002
Info: NONBONDED TABLE R-SQUARED SPACING: 0.0625
Info: NONBONDED TABLE SIZE: 705 POINTS
TCL: Setting parameter alchLambda2 to 0.9000000000000002
Info: NONBONDED TABLE R-SQUARED SPACING: 0.0625
Info: NONBONDED TABLE SIZE: 705 POINTS
TCL: Running for 1500000 steps
ETITLE: TS BOND ANGLE DIHED IMPRP ELECT VDW BOUNDARY MISC KINETIC TOTAL TEMP POTENTIAL TOTALAVG TEMPAVG PRESSURE GPRESSURE VOLUME PRESSAVG GPRESSAVG
ENERGY: 0 2.9477 10.1995 2.7851 0.0000 -10468.3320 1404.3532 0.0000 0.0000 1763.6950 -7284.3517 303.2741 -9048.0466 -7284.3517 303.2741 -352.1214 -274.4398 30917.2936 -352.1214 -274.4398
ENERGY: 300000 1.6756 8.4622 2.8598 0.0000 -10551.8401 1423.7751 0.0000 0.0000 1715.2419 -7399.8255 294.9424 -9115.0674 -7413.9391 295.4164 -13.6595 40.9050 30220.0772 -424.8908 -379.2005
ENERGY: 600000 4.2147 8.6019 3.2066 0.0000 -10634.6520 1452.4471 0.0000 0.0000 1763.8542 -7402.3275 303.3015 -9166.1818 -7420.7569 297.0626 122.6520 209.2793 30230.5876 -137.3713 -96.4866
ENERGY: 900000 2.1198 13.4204 3.0492 0.0000 -10498.6975 1398.1727 0.0000 0.0000 1744.3699 -7337.5655 299.9511 -9081.9355 -7415.8417 297.9957 -145.0232 -51.2157 30189.6209 -167.5443 -114.9723
ENERGY: 1200000 1.8094 8.5818 2.9965 0.0000 -10734.3427 1540.4997 0.0000 0.0000 1733.1842 -7447.2711 298.0277 -9180.4553 -7410.3981 298.3414 713.2495 878.5183 29839.0772 -54.8399 1.9519
ENERGY: 1500000 1.6122 11.4136 2.9275 0.0000 -10592.7142 1398.8541 0.0000 0.0000 1732.1977 -7445.7090 297.8580 -9177.9067 -7408.4282 298.4268 -317.6410 -262.6254 30193.2759 -25.7653 26.1708
TCL: Running FEP window  19: Lambda1 0.9000000000000002 Lambda2 0.9500000000000003 [dLambda 0.050000000000000044]
TCL: Setting parameter firsttimestep to 0
TCL: Setting parameter alchLambda to 0.9000000000000002
Info: NONBONDED TABLE R-SQUARED SPACING: 0.0625
Info: NONBONDED TABLE SIZE: 705 POINTS
TCL: Setting parameter alchLambda2 to 0.9500000000000003
Info: NONBONDED TABLE R-SQUARED SPACING: 0.0625
Info: NONBONDED TABLE SIZE: 705 POINTS
TCL: Running for 1500000 steps
ETITLE: TS BOND ANGLE DIHED IMPRP ELECT VDW BOUNDARY MISC KINETIC TOTAL TEMP POTENTIAL TOTALAVG TEMPAVG PRESSURE GPRESSURE VOLUME PRESSAVG GPRESSAVG
ENERGY: 0 1.6122 11.4136 2.9275 0.0000 -10594.0202 1400.6599 0.0000 0.0000 1731.3481 -7446.0589 297.7119 -9177.4070 -7446.0589 297.7119 -313.1113 -235.1748 30193.2759 -313.1113 -235.1748
ENERGY: 300000 3.2857 9.4680 3.0091 0.0000 -10534.4039 1337.7597 0.0000 0.0000 1725.9798 -7454.9016 296.7888 -9180.8815 -7432.9268 296.7916 -780.5587 -733.1803 30270.4857 -250.5300 -195.6502
ENERGY: 600000 4.5021 5.8885 2.9878 0.0000 -10708.7112 1516.0104 0.0000 0.0000 1744.2571 -7435.0653 299.9317 -9179.3224 -7435.6892 297.4714 607.0813 689.5606 29850.9412 1.4717 61.5443
ENERGY: 900000 1.3428 9.7130 4.7334 0.0000 -10399.5726 1286.9802 0.0000 0.0000 1857.0125 -7239.7907 319.3204 -9096.8032 -7423.6131 298.7628 -960.5110 -874.9325 30453.9908 -77.0444 -8.2505
ENERGY: 1200000 3.1749 11.8667 2.6550 0.0000 -10490.8454 1391.9482 0.0000 0.0000 1705.2712 -7375.9295 293.2279 -9081.2007 -7417.5557 298.5611 -226.5249 -107.2063 30167.3423 -187.4698 -110.0196
ENERGY: 1500000 2.7345 7.5402 2.7241 0.0000 -10659.9627 1512.7482 0.0000 0.0000 1750.7495 -7383.4662 301.0481 -9134.2157 -7404.8076 299.0118 695.3130 816.1175 29976.7999 -165.0599 -85.2234
TCL: Running FEP window  20: Lambda1 0.9500000000000003 Lambda2 1.0    [dLambda 0.04999999999999971]
TCL: Setting parameter firsttimestep to 0
TCL: Setting parameter alchLambda to 0.9500000000000003
Info: NONBONDED TABLE R-SQUARED SPACING: 0.0625
Info: NONBONDED TABLE SIZE: 705 POINTS
TCL: Setting parameter alchLambda2 to 1.0
Info: NONBONDED TABLE R-SQUARED SPACING: 0.0625
Info: NONBONDED TABLE SIZE: 705 POINTS
TCL: Running for 1500000 steps
ETITLE: TS BOND ANGLE DIHED IMPRP ELECT VDW BOUNDARY MISC KINETIC TOTAL TEMP POTENTIAL TOTALAVG TEMPAVG PRESSURE GPRESSURE VOLUME PRESSAVG GPRESSAVG
ENERGY: 0 2.7345 7.5402 2.7241 0.0000 -10660.8802 1512.4090 0.0000 0.0000 1749.8282 -7385.6441 300.8897 -9135.4723 -7385.6441 300.8897 742.9877 821.1383 29976.7999 742.9877 821.1383
ENERGY: 300000 3.2882 11.0866 2.8967 0.0000 -10393.0149 1267.1547 0.0000 0.0000 1785.7890 -7322.7998 307.0733 -9108.5888 -7396.0338 298.9558 -1305.4781 -1196.6982 30508.7372 -597.3289 -498.8813
ENERGY: 600000 2.2877 7.0124 2.7760 0.0000 -10635.8585 1475.1005 0.0000 0.0000 1716.0785 -7432.6034 295.0863 -9148.6819 -7399.3534 299.9838 116.7388 161.3319 30487.0694 -416.9311 -339.1041
ENERGY: 900000 1.5362 12.9526 3.1053 0.0000 -10619.4066 1389.4274 0.0000 0.0000 1798.8665 -7413.5186 309.3220 -9212.3851 -7398.8770 300.6130 -522.0864 -437.2749 29992.1357 -377.0709 -316.5900
ENERGY: 1200000 1.1882 10.8771 2.7835 0.0000 -10447.6423 1369.2045 0.0000 0.0000 1721.9338 -7341.6552 296.0931 -9063.5890 -7389.3005 301.2479 -366.6358 -286.5843 30413.5032 -321.9550 -263.9058
ENERGY: 1500000 3.8499 7.0476 3.0214 0.0000 -10534.8079 1352.7391 0.0000 0.0000 1733.3062 -7434.8437 298.0486 -9168.1499 -7391.6243 300.6929 -892.0902 -822.8534 30381.9353 -385.5891 -326.8568
TCL: Exiting due to exit command.
