Info: SIMULATION PARAMETERS:
Info: TIMESTEP               2
Info: NUMBER OF STEPS        0
Info: STEPS PER CYCLE        10
Info: PERIODIC CELL BASIS 1  30.8933 0 0
Info: PERIODIC CELL BASIS 2  0 31.2686 0
Info: PERIODIC CELL BASIS 3  0 0 31.4744
Info: PERIODIC CELL CENTER   0 0 0
Info: WRAPPING WATERS AROUND PERIODIC BOUNDARIES ON OUTPUT.
Info: WRAPPING ALL CLUSTERS AROUND PERIODIC BOUNDARIES ON OUTPUT.
Info: FIRST LDB TIMESTEP     50
Info: LAST LDB TIMESTEP     -1
Info: HOM BACKGROUND SCALING 1
Info: PME BACKGROUND SCALING 1
Info: MIN ATOMS PER PATCH    40
Info: EMPTY PATCH LOAD       40 ATOMS
Info: VELOCITY FILE          mobley_1328465_equil.vel
Info: CENTER OF MASS MOVING INITIALLY? NO
Info: DIELECTRIC             1
Info: EXCLUDE                SCALED ONE-FOUR
Info: 1-4 ELECTROSTATICS SCALED BY 0.833333
Info: MODIFIED 1-4 VDW PARAMETERS WILL BE USED
Info: DCD FILENAME           mobley_1328465_prod.dcd
Info: DCD FREQUENCY          100000
Info: DCD FIRST STEP         100000
Info: DCD FILE WILL CONTAIN UNIT CELL DATA
Info: XST FILENAME           mobley_1328465_prod.xst
Info: XST FREQUENCY          100000
Info: NO VELOCITY DCD OUTPUT
Info: NO FORCE DCD OUTPUT
Info: OUTPUT FILENAME        mobley_1328465_prod
Info: BINARY OUTPUT FILES WILL BE USED
Info: RESTART FILENAME       mobley_1328465_prod.restart
Info: RESTART FREQUENCY      100000
Info: BINARY RESTART FILES WILL BE USED
Info: CUTOFF                 9
Info: PAIRLIST DISTANCE      11
Info: PAIRLIST SHRINK RATE   0.01
Info: PAIRLIST GROW RATE     0.01
Info: PAIRLIST TRIGGER       0.3
Info: PAIRLISTS PER CYCLE    2
Info: PAIRLISTS ENABLED
Info: MARGIN                 2
Info: HYDROGEN GROUP CUTOFF  2.5
Info: PATCH DIMENSION        15.5
Info: ENERGY OUTPUT STEPS    100000
Info: ENERGY EVALUATION STEPS    100000
Info: OUTPUT ENERGY PRECISION 4
Info: CROSSTERM ENERGY INCLUDED IN DIHEDRAL
Info: TIMING OUTPUT STEPS    1000000
Info: PRESSURE OUTPUT STEPS  100000
Info: ALCHEMICAL FEP ON
Info: FEP CURRENT LAMBDA VALUE     1
Info: FEP COMPARISON LAMBDA VALUE  0.95
Info: FEP INTRA-ALCHEMICAL NON-BONDED INTERACTIONS WILL BE RETAINED
Info: FEP INTRA-ALCHEMICAL BONDED INTERACTIONS WILL BE RETAINED
Info: FEP VDW SHIFTING COEFFICIENT 5
Info: FEP ELEC. ACTIVE FOR ANNIHILATED PARTICLES BETWEEN LAMBDA = 0 AND LAMBDA = 0.5
Info: FEP ELEC. ACTIVE FOR EXNIHILATED PARTICLES BETWEEN LAMBDA = 0.5 AND LAMBDA = 1
Info: FEP VDW ACTIVE FOR ANNIHILATED PARTICLES BETWEEN LAMBDA = 0 AND LAMBDA = 1
Info: FEP VDW ACTIVE FOR EXNIHILATED PARTICLES BETWEEN LAMBDA = 0 AND LAMBDA = 1
Info: FEP BOND ACTIVE FOR ANNIHILATED PARTICLES BETWEEN LAMBDA = 1 AND LAMBDA = 1
Info: FEP BOND ACTIVE FOR EXNIHILATED PARTICLES BETWEEN LAMBDA = 0 AND LAMBDA = 0
Info: LANGEVIN DYNAMICS ACTIVE
Info: LANGEVIN TEMPERATURE   300
Info: LANGEVIN USING BBK INTEGRATOR
Info: LANGEVIN DAMPING COEFFICIENT IS 1 INVERSE PS
Info: LANGEVIN DYNAMICS APPLIED TO HYDROGENS
Info: LANGEVIN PISTON PRESSURE CONTROL ACTIVE
Info:        TARGET PRESSURE IS 1.01325 BAR
Info:     OSCILLATION PERIOD IS 50 FS
Info:             DECAY TIME IS 25 FS
Info:     PISTON TEMPERATURE IS 300 K
Info:       PRESSURE CONTROL IS GROUP-BASED
Info:    INITIAL STRAIN RATE IS 0.000145208 0.000145208 0.000145208
Info:       CELL FLUCTUATION IS ISOTROPIC
Info: PARTICLE MESH EWALD (PME) ACTIVE
Info: PME TOLERANCE               1e-06
Info: PME EWALD COEFFICIENT       0.348832
Info: PME INTERPOLATION ORDER     4
Info: PME GRID DIMENSIONS         32 32 32
Info: PME MAXIMUM GRID SPACING    1
Info: PME CALCULATION WILL BE PERFORMED ON GPU
Info: FULL ELECTROSTATIC EVALUATION FREQUENCY      2
Info: USING VERLET I (r-RESPA) MTS SCHEME.
Info: C1 SPLITTING OF LONG RANGE ELECTROSTATICS
Info: PLACING ATOMS IN PATCHES BY HYDROGEN GROUPS
Info: RIGID BONDS TO HYDROGEN : ALL
Info:         ERROR TOLERANCE : 1e-08
Info:          MAX ITERATIONS : 100
Info: RIGID WATER USING SETTLE ALGORITHM
Info: RANDOM NUMBER SEED     1743667191
Info: USE HYDROGEN BONDS?    NO
Info: Using AMBER format force field!
Info: AMBER PARM FILE        mobley_1328465.prmtop
Info: COORDINATE PDB         mobley_1328465.pdb
Info: Exclusions will be read from PARM file!
Info: SCNB (VDW SCALING)     2
Info: USING ARITHMETIC MEAN TO COMBINE L-J SIGMA PARAMETERS
Info: BINARY COORDINATES     mobley_1328465_equil.coor
Info: SUMMARY OF PARAMETERS:
Info: 6 BONDS
Info: 7 ANGLES
Info:   7 HARMONIC
Info:   0 COSINE-BASED
Info: 4 DIHEDRAL
Info: 0 IMPROPER
Info: 0 CROSSTERM
Info: 0 VDW
Info: 21 VDW_PAIRS
Info: 0 NBTHOLE_PAIRS
Info: To read alchdata from file: mobley_1328465.pdb
Info: To read alchflag data from column: 5
Info: STRUCTURE SUMMARY:
Info: 2951 ATOMS
Info: 2950 BONDS
Info: 12 ANGLES
Info: 15 DIHEDRALS
Info: 0 IMPROPERS
Info: 0 CROSSTERMS
Info: 2971 EXCLUSIONS
Info: 2946 RIGID BONDS
Info: ALCH: 0 ATOMS TO DISAPPEAR IN FINAL STATE
Info: ALCH: 8 ATOMS TO APPEAR IN FINAL STATE
Info: 5907 DEGREES OF FREEDOM
Info: 986 HYDROGEN GROUPS
Info: 3 ATOMS IN LARGEST HYDROGEN GROUP
Info: 986 MIGRATION GROUPS
Info: 3 ATOMS IN LARGEST MIGRATION GROUP
Info: TOTAL MASS = 17807.1 amu
Info: TOTAL CHARGE = -1.86265e-08 e
Info: MASS DENSITY = 0.972573 g/cm^3
Info: ATOM DENSITY = 0.0970597 atoms/A^3
Info: ADDED 0 IMPLICIT EXCLUSIONS
Info: NONBONDED TABLE R-SQUARED SPACING: 0.0625
Info: NONBONDED TABLE SIZE: 705 POINTS
Info: REMOVING COM VELOCITY -0.0945259 -0.118172 -0.0840528
Info: Use 3D box decompostion in PME FFT.
Info: Updated CUDA force table with 4096 elements.
Info: Updated CUDA LJ table with 6 x 6 elements.
Info: Found 11 unique exclusion lists needing 16 bytes
TCL: Running for 1500000 steps
ETITLE: TS BOND ANGLE DIHED IMPRP ELECT VDW BOUNDARY MISC KINETIC TOTAL TEMP POTENTIAL TOTALAVG TEMPAVG PRESSURE GPRESSURE VOLUME PRESSAVG GPRESSAVG
ENERGY: 0 1.0518 4.0705 1.2187 0.0000 -10658.6840 1385.0677 0.0000 0.0000 1797.9400 -7469.3352 306.3364 -9267.2752 -7469.3352 306.3364 -475.3198 -386.5401 30403.9544 -475.3198 -386.5401
ENERGY: 300000 2.5919 4.1825 2.4748 0.0000 -10807.3855 1484.8035 0.0000 0.0000 1717.5761 -7595.7566 292.6439 -9313.3327 -7498.5788 301.7057 116.6573 166.9520 30312.5271 113.1264 170.9293
ENERGY: 600000 1.6322 3.6060 2.1786 0.0000 -10953.3174 1556.4105 0.0000 0.0000 1730.5304 -7658.9597 294.8510 -9389.4901 -7510.8599 299.8891 569.9777 650.6361 30112.7200 91.6057 156.1344
ENERGY: 900000 1.6559 3.7742 1.3258 0.0000 -10774.9034 1474.8923 0.0000 0.0000 1780.4259 -7512.8293 303.3523 -9293.2552 -7513.1046 299.7115 460.4673 561.9747 29804.1592 99.3286 177.6215
ENERGY: 1200000 2.3273 3.2940 2.4859 0.0000 -10744.3400 1443.2850 0.0000 0.0000 1828.7654 -7464.1824 311.5885 -9292.9478 -7500.5225 301.7572 -80.2622 6.3840 30696.0788 48.9790 126.1090
ENERGY: 1500000 1.6206 0.9114 2.6025 0.0000 -10542.2051 1277.3656 0.0000 0.0000 1702.8065 -7556.8986 290.1274 -9259.7051 -7505.0301 300.6183 -1429.5311 -1318.4901 30826.9128 -53.6612 18.1758
TCL: Running FEP window   2: Lambda1 0.95   Lambda2 0.8999999999999999 [dLambda -0.050000000000000044]
TCL: Setting parameter firsttimestep to 0
TCL: Setting parameter alchLambda to 0.95
Info: NONBONDED TABLE R-SQUARED SPACING: 0.0625
Info: NONBONDED TABLE SIZE: 705 POINTS
TCL: Setting parameter alchLambda2 to 0.8999999999999999
Info: NONBONDED TABLE R-SQUARED SPACING: 0.0625
Info: NONBONDED TABLE SIZE: 705 POINTS
TCL: Running for 1500000 steps
ETITLE: TS BOND ANGLE DIHED IMPRP ELECT VDW BOUNDARY MISC KINETIC TOTAL TEMP POTENTIAL TOTALAVG TEMPAVG PRESSURE GPRESSURE VOLUME PRESSAVG GPRESSAVG
ENERGY: 0 1.6206 0.9114 2.6025 0.0000 -10541.7035 1277.6180 0.0000 0.0000 1701.9303 -7557.0208 289.9781 -9258.9511 -7557.0208 289.9781 -1413.6299 -1327.5316 30826.9128 -1413.6299 -1327.5316
ENERGY: 300000 1.2450 1.3562 2.6750 0.0000 -10735.6797 1469.5640 0.0000 0.0000 1804.4513 -7456.3882 307.4458 -9260.8395 -7514.3518 298.9078 339.4251 449.1607 30470.5110 -181.8109 -95.9414
ENERGY: 600000 1.2581 4.8571 2.1377 0.0000 -10640.0247 1385.1192 0.0000 0.0000 1729.5572 -7517.0954 294.6852 -9246.6525 -7498.0123 300.5224 -427.9163 -304.0211 30533.4706 -229.4591 -152.8654
ENERGY: 900000 3.2259 3.8849 1.2349 0.0000 -10737.0215 1464.5504 0.0000 0.0000 1776.1571 -7487.9684 302.6250 -9264.1254 -7505.3736 300.7066 226.0255 228.4048 30329.8515 -162.9714 -113.1780
ENERGY: 1200000 2.1151 2.3134 2.7554 0.0000 -10708.9462 1487.4799 0.0000 0.0000 1780.2836 -7433.9988 303.3281 -9214.2824 -7499.5562 300.9522 449.3333 429.2375 30630.0632 -71.8220 -25.9789
ENERGY: 1500000 1.1893 1.7423 2.1735 0.0000 -10698.5120 1461.3006 0.0000 0.0000 1773.9840 -7458.1223 302.2547 -9232.1063 -7500.0683 300.8992 251.6477 305.0783 30452.4933 -23.1410 20.5225
TCL: Running FEP window   3: Lambda1 0.8999999999999999 Lambda2 0.8499999999999999 [dLambda -0.050000000000000044]
TCL: Setting parameter firsttimestep to 0
TCL: Setting parameter alchLambda to 0.8999999999999999
Info: NONBONDED TABLE R-SQUARED SPACING: 0.0625
Info: NONBONDED TABLE SIZE: 705 POINTS
TCL: Setting parameter alchLambda2 to 0.8499999999999999
Info: NONBONDED TABLE R-SQUARED SPACING: 0.0625
Info: NONBONDED TABLE SIZE: 705 POINTS
TCL: Running for 1500000 steps
ETITLE: TS BOND ANGLE DIHED IMPRP ELECT VDW BOUNDARY MISC KINETIC TOTAL TEMP POTENTIAL TOTALAVG TEMPAVG PRESSURE GPRESSURE VOLUME PRESSAVG GPRESSAVG
ENERGY: 0 1.1893 1.7423 2.1735 0.0000 -10697.7722 1461.3207 0.0000 0.0000 1773.1054 -7458.2410 302.1050 -9231.3464 -7458.2410 302.1050 216.4839 294.6343 30452.4933 216.4839 294.6343
ENERGY: 300000 0.4707 3.1262 2.2391 0.0000 -10583.1261 1325.9047 0.0000 0.0000 1693.7295 -7557.6559 288.5808 -9251.3854 -7523.1226 294.2441 -901.3777 -833.2871 30295.3610 -221.9708 -142.4829
ENERGY: 600000 1.3691 3.4675 2.9520 0.0000 -10641.2657 1382.5710 0.0000 0.0000 1796.8777 -7454.0285 306.1554 -9250.9061 -7511.8383 296.1072 -441.0955 -384.2929 30670.1569 -105.4941 -30.2823
ENERGY: 900000 1.6307 4.5591 1.2567 0.0000 -10795.4185 1524.2195 0.0000 0.0000 1800.7868 -7462.9657 306.8214 -9263.7525 -7503.7864 298.0117 962.3669 1038.8046 29840.3883 -29.0593 43.3113
ENERGY: 1200000 1.6198 2.0057 2.2814 0.0000 -10566.7474 1369.4419 0.0000 0.0000 1754.7007 -7436.6979 298.9692 -9191.3986 -7501.9457 298.3393 -255.2476 -118.6460 30198.8280 39.4034 111.7249
ENERGY: 1500000 1.3327 3.7620 2.6394 0.0000 -10672.3374 1385.1478 0.0000 0.0000 1818.6006 -7460.8549 309.8566 -9279.4555 -7494.3236 299.3724 -588.0737 -502.5123 30874.0041 -88.0988 -10.4899
TCL: Running FEP window   4: Lambda1 0.8499999999999999 Lambda2 0.7999999999999998 [dLambda -0.050000000000000044]
TCL: Setting parameter firsttimestep to 0
TCL: Setting parameter alchLambda to 0.8499999999999999
Info: NONBONDED TABLE R-SQUARED SPACING: 0.0625
Info: NONBONDED TABLE SIZE: 705 POINTS
TCL: Setting parameter alchLambda2 to 0.7999999999999998
Info: NONBONDED TABLE R-SQUARED SPACING: 0.0625
Info: NONBONDED TABLE SIZE: 705 POINTS
TCL: Running for 1500000 steps
ETITLE: TS BOND ANGLE DIHED IMPRP ELECT VDW BOUNDARY MISC KINETIC TOTAL TEMP POTENTIAL TOTALAVG TEMPAVG PRESSURE GPRESSURE VOLUME PRESSAVG GPRESSAVG
ENERGY: 0 1.3327 3.7620 2.6394 0.0000 -10671.9679 1385.4253 0.0000 0.0000 1817.7099 -7461.0986 309.7048 -9278.8085 -7461.0986 309.7048 -580.6487 -506.5338 30874.0041 -580.6487 -506.5338
ENERGY: 300000 0.6596 1.3698 2.2343 0.0000 -10648.7224 1434.3466 0.0000 0.0000 1713.4876 -7496.6246 291.9472 -9210.1122 -7473.2992 302.2049 151.4515 184.4751 30494.9575 43.5790 79.0481
ENERGY: 600000 1.5006 4.4915 2.2960 0.0000 -10577.2099 1368.7276 0.0000 0.0000 1766.2565 -7433.9378 300.9381 -9200.1943 -7475.1704 301.4312 -687.8006 -590.0153 31122.0483 -101.7218 -49.6279
ENERGY: 900000 0.7456 2.1767 3.0521 0.0000 -10696.4408 1460.7915 0.0000 0.0000 1782.8743 -7446.8005 303.7695 -9229.6749 -7486.5598 300.4414 358.7787 391.2538 30596.9784 -72.4789 -24.8348
ENERGY: 1200000 1.5554 3.6439 2.5578 0.0000 -10803.0836 1454.6619 0.0000 0.0000 1778.2193 -7562.4452 302.9763 -9340.6645 -7503.6997 300.8795 -35.4172 17.3597 30418.1121 -86.3818 -43.9461
ENERGY: 1500000 1.3158 6.0399 1.1951 0.0000 -10846.4757 1498.5024 0.0000 0.0000 1785.5763 -7553.8463 304.2298 -9339.4225 -7513.0237 300.3382 15.6064 96.0528 30535.0135 -70.3083 -23.3841
TCL: Running FEP window   5: Lambda1 0.7999999999999998 Lambda2 0.7499999999999998 [dLambda -0.050000000000000044]
TCL: Setting parameter firsttimestep to 0
TCL: Setting parameter alchLambda to 0.7999999999999998
Info: NONBONDED TABLE R-SQUARED SPACING: 0.0625
Info: NONBONDED TABLE SIZE: 705 POINTS
TCL: Setting parameter alchLambda2 to 0.7499999999999998
Info: NONBONDED TABLE R-SQUARED SPACING: 0.0625
Info: NONBONDED TABLE SIZE: 705 POINTS
TCL: Running for 1500000 steps
ETITLE: TS BOND ANGLE DIHED IMPRP ELECT VDW BOUNDARY MISC KINETIC TOTAL TEMP POTENTIAL TOTALAVG TEMPAVG PRESSURE GPRESSURE VOLUME PRESSAVG GPRESSAVG
ENERGY: 0 1.3158 6.0399 1.1951 0.0000 -10845.8263 1498.8750 0.0000 0.0000 1784.7124 -7553.6881 304.0827 -9338.4005 -7553.6881 304.0827 15.8734 92.3333 30535.0135 15.8734 92.3333
ENERGY: 300000 0.3016 2.5893 2.3380 0.0000 -10751.9521 1434.1545 0.0000 0.0000 1762.7669 -7549.8017 300.3435 -9312.5686 -7555.8238 297.3335 -108.9134 -24.6886 30393.3753 51.9026 115.7524
ENERGY: 600000 0.5411 4.5468 2.1230 0.0000 -10567.8183 1416.5475 0.0000 0.0000 1799.6295 -7344.4305 306.6243 -9144.0600 -7529.0881 297.3101 -203.2699 -109.2023 31324.2176 104.1076 173.7215
ENERGY: 900000 2.4993 2.8188 1.3111 0.0000 -10852.3633 1549.7886 0.0000 0.0000 1685.3814 -7610.5642 287.1585 -9295.9456 -7527.9213 297.0482 1105.2845 1148.6357 29864.2750 186.4227 242.8300
ENERGY: 1200000 1.8414 2.4624 1.3343 0.0000 -10817.3385 1481.8833 0.0000 0.0000 1760.6059 -7569.2111 299.9753 -9329.8170 -7527.9026 297.8090 124.2738 155.2279 30499.3771 186.0231 236.8028
ENERGY: 1500000 0.7728 3.2407 2.4947 0.0000 -10806.8381 1428.0814 0.0000 0.0000 1727.8807 -7644.3679 294.3996 -9372.2485 -7531.3533 297.4156 -352.5374 -290.5679 30003.8176 141.8925 198.2055
TCL: Running FEP window   6: Lambda1 0.7499999999999998 Lambda2 0.6999999999999997 [dLambda -0.050000000000000044]
TCL: Setting parameter firsttimestep to 0
TCL: Setting parameter alchLambda to 0.7499999999999998
Info: NONBONDED TABLE R-SQUARED SPACING: 0.0625
Info: NONBONDED TABLE SIZE: 705 POINTS
TCL: Setting parameter alchLambda2 to 0.6999999999999997
Info: NONBONDED TABLE R-SQUARED SPACING: 0.0625
Info: NONBONDED TABLE SIZE: 705 POINTS
TCL: Running for 1500000 steps
ETITLE: TS BOND ANGLE DIHED IMPRP ELECT VDW BOUNDARY MISC KINETIC TOTAL TEMP POTENTIAL TOTALAVG TEMPAVG PRESSURE GPRESSURE VOLUME PRESSAVG GPRESSAVG
ENERGY: 0 0.7728 3.2407 2.4947 0.0000 -10806.5458 1428.5697 0.0000 0.0000 1727.0135 -7644.4544 294.2518 -9371.4679 -7644.4544 294.2518 -368.9102 -292.6831 30003.8176 -368.9102 -292.6831
ENERGY: 300000 0.9866 2.0637 2.5969 0.0000 -10670.0260 1448.9329 0.0000 0.0000 1803.1983 -7412.2476 307.2323 -9215.4459 -7531.8742 299.2755 392.7322 448.8858 30514.2174 198.9297 268.8281
ENERGY: 600000 1.7745 3.4483 1.2950 0.0000 -10750.8445 1421.8358 0.0000 0.0000 1822.8898 -7499.6012 310.5874 -9322.4910 -7508.2584 302.7180 -446.2046 -366.8858 30408.8961 -39.7970 22.6880
ENERGY: 900000 0.2568 3.1157 3.0029 0.0000 -10672.2703 1388.2243 0.0000 0.0000 1790.3016 -7487.3690 305.0350 -9277.6706 -7528.0369 300.9963 -466.6635 -351.2431 30615.7520 -27.4686 35.2865
ENERGY: 1200000 1.7592 3.2791 2.2457 0.0000 -10626.5842 1349.1733 0.0000 0.0000 1836.0115 -7434.1155 312.8231 -9270.1270 -7514.7339 302.0844 -820.8242 -778.6238 31004.5820 -156.6329 -94.3391
ENERGY: 1500000 1.5995 3.1969 2.5941 0.0000 -10781.4856 1452.6493 0.0000 0.0000 1726.9820 -7594.4638 294.2464 -9321.4458 -7526.4858 300.1061 4.9932 45.9263 30516.9437 -226.4686 -168.4958
TCL: Running FEP window   7: Lambda1 0.6999999999999997 Lambda2 0.6499999999999997 [dLambda -0.050000000000000044]
TCL: Setting parameter firsttimestep to 0
TCL: Setting parameter alchLambda to 0.6999999999999997
Info: NONBONDED TABLE R-SQUARED SPACING: 0.0625
Info: NONBONDED TABLE SIZE: 705 POINTS
TCL: Setting parameter alchLambda2 to 0.6499999999999997
Info: NONBONDED TABLE R-SQUARED SPACING: 0.0625
Info: NONBONDED TABLE SIZE: 705 POINTS
TCL: Running for 1500000 steps
ETITLE: TS BOND ANGLE DIHED IMPRP ELECT VDW BOUNDARY MISC KINETIC TOTAL TEMP POTENTIAL TOTALAVG TEMPAVG PRESSURE GPRESSURE VOLUME PRESSAVG GPRESSAVG
ENERGY: 0 1.5995 3.1970 2.5941 0.0000 -10781.2110 1452.6819 0.0000 0.0000 1726.1070 -7595.0316 294.0974 -9321.1386 -7595.0316 294.0974 -36.2610 40.7906 30516.9437 -36.2610 40.7906
ENERGY: 300000 3.4319 1.8507 2.3311 0.0000 -10739.9882 1434.1368 0.0000 0.0000 1740.8009 -7557.4368 296.6009 -9298.2376 -7579.9583 295.6546 -123.9241 -52.7721 30238.6446 -73.9825 8.1291
ENERGY: 600000 1.8053 3.0998 2.3338 0.0000 -10662.2896 1431.6863 0.0000 0.0000 1719.4897 -7503.8746 292.9699 -9223.3643 -7543.4162 297.3378 -270.9857 -197.4184 31038.1181 -82.1191 -6.1009
ENERGY: 900000 0.0261 3.7317 1.3095 0.0000 -10661.5991 1428.6152 0.0000 0.0000 1802.2290 -7425.6876 307.0672 -9227.9166 -7515.9451 299.4993 -84.3887 -32.3103 30790.0337 -157.5861 -91.5822
ENERGY: 1200000 0.4832 2.4723 2.4056 0.0000 -10710.3211 1466.5139 0.0000 0.0000 1826.8640 -7411.5821 311.2645 -9238.4461 -7514.4559 299.7496 528.5724 561.5340 30166.5056 -39.6423 24.2318
ENERGY: 1500000 1.6573 2.8502 1.3551 0.0000 -10568.7044 1365.0476 0.0000 0.0000 1734.9571 -7462.8372 295.6053 -9197.7943 -7513.2079 299.0120 -385.4489 -315.0590 30574.0638 -92.8961 -26.9633
TCL: Running FEP window   8: Lambda1 0.6499999999999997 Lambda2 0.5999999999999996 [dLambda -0.050000000000000044]
TCL: Setting parameter firsttimestep to 0
TCL: Setting parameter alchLambda to 0.6499999999999997
Info: NONBONDED TABLE R-SQUARED SPACING: 0.0625
Info: NONBONDED TABLE SIZE: 705 POINTS
TCL: Setting parameter alchLambda2 to 0.5999999999999996
Info: NONBONDED TABLE R-SQUARED SPACING: 0.0625
Info: NONBONDED TABLE SIZE: 705 POINTS
TCL: Running for 1500000 steps
ETITLE: TS BOND ANGLE DIHED IMPRP ELECT VDW BOUNDARY MISC KINETIC TOTAL TEMP POTENTIAL TOTALAVG TEMPAVG PRESSURE GPRESSURE VOLUME PRESSAVG GPRESSAVG
ENERGY: 0 1.6573 2.8502 1.3551 0.0000 -10568.3840 1364.7231 0.0000 0.0000 1734.0547 -7463.7436 295.4515 -9197.7983 -7463.7436 295.4515 -411.2958 -327.1196 30574.0638 -411.2958 -327.1196
ENERGY: 300000 3.0772 1.3243 2.3193 0.0000 -10806.1757 1518.7809 0.0000 0.0000 1771.6892 -7508.9849 301.8637 -9280.6740 -7513.2138 298.6112 277.2707 367.0828 30648.5678 -59.5543 28.1565
ENERGY: 600000 2.3514 2.6197 2.6199 0.0000 -10620.0556 1387.7022 0.0000 0.0000 1718.6616 -7506.1009 292.8288 -9224.7624 -7502.0685 298.1656 -200.3413 -88.4167 29881.9158 -270.4788 -185.7674
ENERGY: 900000 0.5312 2.3248 2.3675 0.0000 -10716.3709 1488.2084 0.0000 0.0000 1746.8293 -7476.1097 297.6281 -9222.9390 -7518.0696 297.6965 234.6280 298.3465 30732.4629 -205.2696 -125.9553
ENERGY: 1200000 1.8662 4.7036 2.3572 0.0000 -10643.0725 1339.4806 0.0000 0.0000 1683.2057 -7611.4592 286.7877 -9294.6649 -7532.2424 295.5037 -1160.1159 -1101.6192 30941.5698 -326.5803 -249.6247
ENERGY: 1500000 0.8834 3.3589 3.2220 0.0000 -10776.7984 1478.2472 0.0000 0.0000 1758.4751 -7532.6117 299.6123 -9291.0869 -7524.6253 297.1831 208.7709 228.7185 30426.9077 -209.0750 -138.4420
TCL: Running FEP window   9: Lambda1 0.5999999999999996 Lambda2 0.5499999999999996 [dLambda -0.050000000000000044]
TCL: Setting parameter firsttimestep to 0
TCL: Setting parameter alchLambda to 0.5999999999999996
Info: NONBONDED TABLE R-SQUARED SPACING: 0.0625
Info: NONBONDED TABLE SIZE: 705 POINTS
TCL: Setting parameter alchLambda2 to 0.5499999999999996
Info: NONBONDED TABLE R-SQUARED SPACING: 0.0625
Info: NONBONDED TABLE SIZE: 705 POINTS
TCL: Running for 1500000 steps
ETITLE: TS BOND ANGLE DIHED IMPRP ELECT VDW BOUNDARY MISC KINETIC TOTAL TEMP POTENTIAL TOTALAVG TEMPAVG PRESSURE GPRESSURE VOLUME PRESSAVG GPRESSAVG
ENERGY: 0 0.8834 3.3589 3.2220 0.0000 -10776.8131 1478.5087 0.0000 0.0000 1757.5574 -7533.2827 299.4559 -9290.8401 -7533.2827 299.4559 134.3027 226.8383 30426.9077 134.3027 226.8383
ENERGY: 300000 0.0762 3.2494 2.6269 0.0000 -10687.9982 1389.4153 0.0000 0.0000 1764.3805 -7528.2498 300.6185 -9292.6303 -7539.1388 297.8306 -551.7703 -386.8751 30283.7089 -288.9412 -203.6225
ENERGY: 600000 0.5857 1.5060 2.8501 0.0000 -10737.2041 1439.3641 0.0000 0.0000 1788.5090 -7504.3892 304.7295 -9292.8982 -7511.4386 300.6825 202.2776 241.5873 30161.5412 -306.6896 -214.7731
ENERGY: 900000 1.0578 1.9979 1.2799 0.0000 -10595.0232 1333.6241 0.0000 0.0000 1755.7829 -7501.2806 299.1536 -9257.0634 -7503.3942 300.1484 -786.1143 -703.8898 30363.7737 -331.4557 -253.8835
ENERGY: 1200000 0.4733 2.2074 3.2115 0.0000 -10693.5815 1385.2630 0.0000 0.0000 1724.2225 -7578.2039 293.7763 -9302.4264 -7500.8144 299.7173 -486.5073 -445.5254 30393.8624 -268.0039 -193.5145
ENERGY: 1500000 0.6244 1.1617 1.8667 0.0000 -10602.8981 1357.6143 0.0000 0.0000 1762.7793 -7478.8517 300.3457 -9241.6310 -7494.4323 300.0931 -802.1499 -713.3405 30715.3769 -416.1137 -347.3363
TCL: Running FEP window  10: Lambda1 0.5499999999999996 Lambda2 0.4999999999999996 [dLambda -0.04999999999999999]
TCL: Setting parameter firsttimestep to 0
TCL: Setting parameter alchLambda to 0.5499999999999996
Info: NONBONDED TABLE R-SQUARED SPACING: 0.0625
Info: NONBONDED TABLE SIZE: 705 POINTS
TCL: Setting parameter alchLambda2 to 0.4999999999999996
Info: NONBONDED TABLE R-SQUARED SPACING: 0.0625
Info: NONBONDED TABLE SIZE: 705 POINTS
TCL: Running for 1500000 steps
ETITLE: TS BOND ANGLE DIHED IMPRP ELECT VDW BOUNDARY MISC KINETIC TOTAL TEMP POTENTIAL TOTALAVG TEMPAVG PRESSURE GPRESSURE VOLUME PRESSAVG GPRESSAVG
ENERGY: 0 0.6244 1.1617 1.8667 0.0000 -10602.8574 1357.9112 0.0000 0.0000 1761.8752 -7479.4182 300.1916 -9241.2934 -7479.4182 300.1916 -805.0245 -717.1276 30715.3769 -805.0245 -717.1276
ENERGY: 300000 1.5521 3.1088 2.2520 0.0000 -10699.0728 1422.5693 0.0000 0.0000 1740.5791 -7529.0116 296.5631 -9269.5906 -7518.6774 296.2527 -14.8719 63.6001 30287.2414 -132.6816 -54.5092
ENERGY: 600000 1.1577 2.9319 2.4214 0.0000 -10806.9221 1504.5970 0.0000 0.0000 1735.9279 -7559.8861 295.7707 -9295.8141 -7528.1010 297.5180 269.1783 283.5159 30684.9906 -5.5816 63.9452
ENERGY: 900000 1.3662 6.8506 2.5987 0.0000 -10751.2553 1462.4077 0.0000 0.0000 1757.7441 -7520.2879 299.4877 -9278.0320 -7513.7794 297.8919 -22.9272 37.7004 30526.6780 -128.6418 -63.5859
ENERGY: 1200000 1.8943 3.5716 2.5241 0.0000 -10742.6409 1439.0264 0.0000 0.0000 1790.9236 -7504.7010 305.1409 -9295.6246 -7506.0095 299.0288 0.4707 15.7761 30195.7037 -34.4768 26.7408
ENERGY: 1500000 3.3445 1.8592 2.3177 0.0000 -10707.2752 1359.2072 0.0000 0.0000 1752.2474 -7588.2993 298.5512 -9340.5467 -7513.6893 299.3149 -747.3833 -664.5807 29893.6503 -80.0058 -19.1165
TCL: Running FEP window  11: Lambda1 0.4999999999999996 Lambda2 0.4499999999999996 [dLambda -0.04999999999999999]
TCL: Setting parameter firsttimestep to 0
TCL: Setting parameter alchLambda to 0.4999999999999996
Info: NONBONDED TABLE R-SQUARED SPACING: 0.0625
Info: NONBONDED TABLE SIZE: 705 POINTS
TCL: Setting parameter alchLambda2 to 0.4499999999999996
Info: NONBONDED TABLE R-SQUARED SPACING: 0.0625
Info: NONBONDED TABLE SIZE: 705 POINTS
TCL: Running for 1500000 steps
ETITLE: TS BOND ANGLE DIHED IMPRP ELECT VDW BOUNDARY MISC KINETIC TOTAL TEMP POTENTIAL TOTALAVG TEMPAVG PRESSURE GPRESSURE VOLUME PRESSAVG GPRESSAVG
ENERGY: 0 3.3445 1.8592 2.3177 0.0000 -10706.8853 1358.5572 0.0000 0.0000 1751.3274 -7589.4794 298.3945 -9340.8068 -7589.4794 298.3945 -770.0348 -672.3293 29893.6503 -770.0348 -672.3293
ENERGY: 300000 1.6425 3.9505 1.2952 0.0000 -10714.3060 1448.5367 0.0000 0.0000 1733.0195 -7525.8617 295.2751 -9258.8812 -7535.6952 295.6128 -49.0026 15.3626 30404.5533 -605.8858 -550.8886
ENERGY: 600000 0.6558 2.7842 2.3360 0.0000 -10643.2682 1405.3659 0.0000 0.0000 1734.0262 -7498.1001 295.4466 -9232.1263 -7527.2177 298.0110 394.9023 390.1380 29688.6063 -126.4154 -75.7202
ENERGY: 900000 1.6318 3.0169 2.2711 0.0000 -10821.5406 1501.8469 0.0000 0.0000 1737.3602 -7575.4137 296.0147 -9312.7739 -7529.2775 297.0941 545.3274 580.4457 30039.6023 -35.1980 17.6996
ENERGY: 1200000 0.0598 2.2520 2.5396 0.0000 -10636.1051 1400.5184 0.0000 0.0000 1770.2148 -7460.5204 301.6125 -9230.7352 -7518.1574 297.6559 -331.1667 -295.8011 30860.2548 -39.7115 14.6561
ENERGY: 1500000 1.7796 2.3135 2.3117 0.0000 -10745.9831 1439.2661 0.0000 0.0000 1776.1005 -7524.2118 302.6153 -9300.3123 -7515.9525 298.4058 -151.2275 -77.7969 30046.5311 -63.2888 -11.4984
TCL: Running FEP window  12: Lambda1 0.4499999999999996 Lambda2 0.39999999999999963 [dLambda -0.04999999999999999]
TCL: Setting parameter firsttimestep to 0
TCL: Setting parameter alchLambda to 0.4499999999999996
Info: NONBONDED TABLE R-SQUARED SPACING: 0.0625
Info: NONBONDED TABLE SIZE: 705 POINTS
TCL: Setting parameter alchLambda2 to 0.39999999999999963
Info: NONBONDED TABLE R-SQUARED SPACING: 0.0625
Info: NONBONDED TABLE SIZE: 705 POINTS
TCL: Running for 1500000 steps
ETITLE: TS BOND ANGLE DIHED IMPRP ELECT VDW BOUNDARY MISC KINETIC TOTAL TEMP POTENTIAL TOTALAVG TEMPAVG PRESSURE GPRESSURE VOLUME PRESSAVG GPRESSAVG
ENERGY: 0 1.7796 2.3135 2.3117 0.0000 -10745.9829 1439.7519 0.0000 0.0000 1775.2269 -7524.5993 302.4665 -9299.8263 -7524.5993 302.4665 -176.5420 -79.8450 30046.5311 -176.5420 -79.8450
ENERGY: 300000 1.0058 4.7938 2.3195 0.0000 -10763.9549 1482.8142 0.0000 0.0000 1799.6752 -7473.3464 306.6320 -9273.0216 -7483.5225 305.1536 198.2624 275.3122 30421.0221 146.9969 223.4643
ENERGY: 600000 1.8818 2.4911 2.2833 0.0000 -10558.9073 1349.0863 0.0000 0.0000 1759.9791 -7443.1857 299.8686 -9203.1648 -7476.4089 305.4056 -646.2838 -569.9990 30831.9533 -32.5666 32.8577
ENERGY: 900000 0.0364 3.1671 1.4856 0.0000 -10770.4882 1454.0220 0.0000 0.0000 1786.7443 -7525.0328 304.4289 -9311.7771 -7483.4070 302.8678 342.9675 426.1443 29724.1574 -1.5479 66.3987
ENERGY: 1200000 0.5129 2.9495 2.6345 0.0000 -10701.8739 1376.6892 0.0000 0.0000 1792.3241 -7526.7637 305.3796 -9319.0878 -7491.7690 302.1605 -786.1614 -654.6461 30586.9180 -63.0501 1.9968
ENERGY: 1500000 0.3084 2.7163 2.3952 0.0000 -10767.0717 1423.5749 0.0000 0.0000 1808.5535 -7529.5234 308.1448 -9338.0769 -7493.3472 302.8021 -345.3644 -276.9179 30574.8173 -30.6768 30.8081
TCL: Running FEP window  13: Lambda1 0.39999999999999963 Lambda2 0.34999999999999964 [dLambda -0.04999999999999999]
TCL: Setting parameter firsttimestep to 0
TCL: Setting parameter alchLambda to 0.39999999999999963
Info: NONBONDED TABLE R-SQUARED SPACING: 0.0625
Info: NONBONDED TABLE SIZE: 705 POINTS
TCL: Setting parameter alchLambda2 to 0.34999999999999964
Info: NONBONDED TABLE R-SQUARED SPACING: 0.0625
Info: NONBONDED TABLE SIZE: 705 POINTS
TCL: Running for 1500000 steps
ETITLE: TS BOND ANGLE DIHED IMPRP ELECT VDW BOUNDARY MISC KINETIC TOTAL TEMP POTENTIAL TOTALAVG TEMPAVG PRESSURE GPRESSURE VOLUME PRESSAVG GPRESSAVG
ENERGY: 0 0.3084 2.7163 2.3952 0.0000 -10767.0722 1423.7639 0.0000 0.0000 1807.6608 -7530.2276 307.9927 -9337.8884 -7530.2276 307.9927 -368.8628 -278.1185 30574.8173 -368.8628 -278.1185
ENERGY: 300000 0.5240 1.2426 1.2734 0.0000 -10664.0692 1406.3058 0.0000 0.0000 1803.0581 -7451.6653 307.2084 -9254.7233 -7511.0582 304.8697 -343.3231 -251.7140 30460.9023 -318.0732 -247.5226
ENERGY: 600000 0.1083 3.1576 2.4536 0.0000 -10756.2465 1489.0329 0.0000 0.0000 1754.6163 -7506.8779 298.9548 -9261.4942 -7515.2674 302.0633 430.8865 456.5089 30259.1554 75.3442 129.9411
ENERGY: 900000 0.8663 2.5510 2.3249 0.0000 -10704.0880 1415.7153 0.0000 0.0000 1768.4555 -7514.1750 301.3128 -9282.6305 -7516.4273 302.3484 -18.6275 8.0449 30034.4586 -5.6028 47.9525
ENERGY: 1200000 0.8568 2.5375 2.3681 0.0000 -10880.9026 1500.3702 0.0000 0.0000 1788.4777 -7586.2923 304.7242 -9374.7699 -7531.2225 301.0529 249.3027 287.0298 30359.6444 -34.2968 12.0093
ENERGY: 1500000 0.7833 1.5435 1.2917 0.0000 -10677.9347 1434.4409 0.0000 0.0000 1756.5891 -7483.2862 299.2910 -9239.8753 -7516.1245 300.8629 -64.2917 18.2717 30281.4845 -66.9350 -12.4257
TCL: Running FEP window  14: Lambda1 0.34999999999999964 Lambda2 0.29999999999999966 [dLambda -0.04999999999999999]
TCL: Setting parameter firsttimestep to 0
TCL: Setting parameter alchLambda to 0.34999999999999964
Info: NONBONDED TABLE R-SQUARED SPACING: 0.0625
Info: NONBONDED TABLE SIZE: 705 POINTS
TCL: Setting parameter alchLambda2 to 0.29999999999999966
Info: NONBONDED TABLE R-SQUARED SPACING: 0.0625
Info: NONBONDED TABLE SIZE: 705 POINTS
TCL: Running for 1500000 steps
ETITLE: TS BOND ANGLE DIHED IMPRP ELECT VDW BOUNDARY MISC KINETIC TOTAL TEMP POTENTIAL TOTALAVG TEMPAVG PRESSURE GPRESSURE VOLUME PRESSAVG GPRESSAVG
ENERGY: 0 0.7833 1.5435 1.2917 0.0000 -10677.9339 1434.4782 0.0000 0.0000 1755.7130 -7484.1242 299.1417 -9239.8372 -7484.1242 299.1417 -83.1814 17.5271 30281.4845 -83.1814 17.5271
ENERGY: 300000 3.7746 2.6139 1.9133 0.0000 -10615.8858 1444.6093 0.0000 0.0000 1790.4638 -7372.5108 305.0626 -9162.9746 -7440.7791 299.9597 -3.0073 113.3861 30678.7475 221.7085 307.8577
ENERGY: 600000 1.4494 5.5044 2.4036 0.0000 -10903.0533 1537.8462 0.0000 0.0000 1752.5411 -7603.3086 298.6013 -9355.8497 -7487.6236 298.9808 769.9889 786.5175 29666.6674 197.6013 251.4780
ENERGY: 900000 3.5142 5.2035 2.7269 0.0000 -10570.2690 1328.6591 0.0000 0.0000 1759.8709 -7470.2943 299.8501 -9230.1652 -7495.2872 297.5532 -856.5560 -804.4654 30731.7471 102.7223 162.9303
ENERGY: 1200000 0.6843 2.3499 1.3787 0.0000 -10801.2714 1552.1393 0.0000 0.0000 1730.3812 -7514.3380 294.8256 -9244.7192 -7498.0019 297.5438 1039.3824 1085.7289 30141.5878 78.4767 131.7262
ENERGY: 1500000 0.6906 3.8740 2.3136 0.0000 -10705.7169 1391.6901 0.0000 0.0000 1747.8178 -7559.3308 297.7965 -9307.1486 -7502.2842 297.8709 -560.0674 -551.3051 30354.5628 34.6500 79.4115
TCL: Running FEP window  15: Lambda1 0.29999999999999966 Lambda2 0.24999999999999967 [dLambda -0.04999999999999999]
TCL: Setting parameter firsttimestep to 0
TCL: Setting parameter alchLambda to 0.29999999999999966
Info: NONBONDED TABLE R-SQUARED SPACING: 0.0625
Info: NONBONDED TABLE SIZE: 705 POINTS
TCL: Setting parameter alchLambda2 to 0.24999999999999967
Info: NONBONDED TABLE R-SQUARED SPACING: 0.0625
Info: NONBONDED TABLE SIZE: 705 POINTS
TCL: Running for 1500000 steps
ETITLE: TS BOND ANGLE DIHED IMPRP ELECT VDW BOUNDARY MISC KINETIC TOTAL TEMP POTENTIAL TOTALAVG TEMPAVG PRESSURE GPRESSURE VOLUME PRESSAVG GPRESSAVG
ENERGY: 0 0.6906 3.8740 2.3136 0.0000 -10705.7157 1391.8673 0.0000 0.0000 1746.9569 -7560.0133 297.6498 -9306.9702 -7560.0133 297.6498 -632.1950 -553.8296 30354.5628 -632.1950 -553.8296
ENERGY: 300000 2.4209 2.4188 1.7895 0.0000 -10703.7292 1442.4888 0.0000 0.0000 1748.7371 -7505.8742 297.9531 -9254.6113 -7543.1864 299.1343 -176.6295 -122.1178 30562.7857 -2.8676 26.5324
ENERGY: 600000 1.4193 1.6739 3.0266 0.0000 -10699.7798 1435.3847 0.0000 0.0000 1741.7506 -7516.5247 296.7627 -9258.2752 -7517.6013 299.8215 -185.5304 -119.0636 30670.9969 30.6586 80.9654
ENERGY: 900000 0.5115 2.2073 2.4264 0.0000 -10684.7642 1417.3629 0.0000 0.0000 1737.2899 -7524.9662 296.0027 -9262.2561 -7498.7583 300.8719 70.6155 104.3002 30023.4982 76.0930 128.4461
ENERGY: 1200000 2.6073 3.1060 3.3199 0.0000 -10645.8226 1452.5206 0.0000 0.0000 1767.4504 -7416.8184 301.1415 -9184.2688 -7487.5290 301.6831 465.2665 533.5799 29903.3384 175.5727 222.7628
ENERGY: 1500000 1.6059 2.8502 2.2995 0.0000 -10600.4368 1353.2125 0.0000 0.0000 1725.6257 -7514.8431 294.0153 -9240.4687 -7500.2725 300.8545 -840.6669 -801.2679 30857.2818 96.6382 145.4804
TCL: Running FEP window  16: Lambda1 0.24999999999999967 Lambda2 0.19999999999999968 [dLambda -0.04999999999999999]
TCL: Setting parameter firsttimestep to 0
TCL: Setting parameter alchLambda to 0.24999999999999967
Info: NONBONDED TABLE R-SQUARED SPACING: 0.0625
Info: NONBONDED TABLE SIZE: 705 POINTS
TCL: Setting parameter alchLambda2 to 0.19999999999999968
Info: NONBONDED TABLE R-SQUARED SPACING: 0.0625
Info: NONBONDED TABLE SIZE: 705 POINTS
TCL: Running for 1500000 steps
ETITLE: TS BOND ANGLE DIHED IMPRP ELECT VDW BOUNDARY MISC KINETIC TOTAL TEMP POTENTIAL TOTALAVG TEMPAVG PRESSURE GPRESSURE VOLUME PRESSAVG GPRESSAVG
ENERGY: 0 1.6059 2.8502 2.2995 0.0000 -10600.4375 1353.5272 0.0000 0.0000 1724.7144 -7515.4403 293.8601 -9240.1547 -7515.4403 293.8601 -866.4284 -799.9671 30857.2818 -866.4284 -799.9671
ENERGY: 300000 1.2884 3.2344 2.3667 0.0000 -10736.0826 1438.9798 0.0000 0.0000 1792.1265 -7498.0867 305.3459 -9290.2133 -7506.8467 299.4343 105.1348 212.2371 30083.3429 -535.4316 -455.8283
ENERGY: 600000 0.4640 2.5718 2.4936 0.0000 -10674.5499 1359.3107 0.0000 0.0000 1736.4106 -7573.2993 295.8529 -9309.7099 -7515.0192 301.0605 -587.2621 -518.0368 29717.4177 -320.6335 -246.5118
ENERGY: 900000 3.0620 1.6389 3.4474 0.0000 -10765.8446 1450.5391 0.0000 0.0000 1783.1997 -7523.9577 303.8249 -9307.1573 -7507.6209 302.1741 72.3240 121.6272 30374.6599 -268.0395 -200.8066
ENERGY: 1200000 3.3617 3.4695 2.9628 0.0000 -10702.0943 1459.1250 0.0000 0.0000 1724.8218 -7508.3537 293.8784 -9233.1754 -7505.3309 301.1881 -125.0817 -101.3665 30787.3257 -322.1622 -259.1868
ENERGY: 1500000 0.6940 2.2729 3.2885 0.0000 -10758.7839 1413.7396 0.0000 0.0000 1791.3337 -7547.4552 305.2108 -9338.7889 -7511.3641 301.2635 -595.1844 -513.3977 30520.6069 -230.9265 -167.7807
TCL: Running FEP window  17: Lambda1 0.19999999999999968 Lambda2 0.1499999999999997 [dLambda -0.04999999999999999]
TCL: Setting parameter firsttimestep to 0
TCL: Setting parameter alchLambda to 0.19999999999999968
Info: NONBONDED TABLE R-SQUARED SPACING: 0.0625
Info: NONBONDED TABLE SIZE: 705 POINTS
TCL: Setting parameter alchLambda2 to 0.1499999999999997
Info: NONBONDED TABLE R-SQUARED SPACING: 0.0625
Info: NONBONDED TABLE SIZE: 705 POINTS
TCL: Running for 1500000 steps
ETITLE: TS BOND ANGLE DIHED IMPRP ELECT VDW BOUNDARY MISC KINETIC TOTAL TEMP POTENTIAL TOTALAVG TEMPAVG PRESSURE GPRESSURE VOLUME PRESSAVG GPRESSAVG
ENERGY: 0 0.6940 2.2729 3.2885 0.0000 -10758.7835 1414.0763 0.0000 0.0000 1790.4508 -7548.0010 305.0604 -9338.4518 -7548.0010 305.0604 -592.8072 -517.5762 30520.6069 -592.8072 -517.5762
ENERGY: 300000 2.6027 3.5551 2.2048 0.0000 -10724.3988 1417.5677 0.0000 0.0000 1797.9314 -7500.5371 306.3349 -9298.4685 -7510.5815 305.9943 -211.0402 -154.7987 30138.0292 -280.1848 -209.0024
ENERGY: 600000 0.8997 2.7004 1.2878 0.0000 -10724.4232 1418.1333 0.0000 0.0000 1709.7168 -7591.6851 291.3048 -9301.4019 -7513.4185 302.5107 -235.8704 -188.7494 30278.3928 -44.2580 30.6279
ENERGY: 900000 0.7885 3.2804 2.5498 0.0000 -10697.5986 1372.5030 0.0000 0.0000 1756.4299 -7562.0470 299.2638 -9318.4768 -7502.4183 302.1313 -666.3120 -627.3736 30248.7436 -26.8855 37.5968
ENERGY: 1200000 0.7071 1.0780 2.6069 0.0000 -10626.9724 1309.2184 0.0000 0.0000 1744.8518 -7568.5101 297.2911 -9313.3620 -7504.9859 301.4449 -1483.0143 -1434.3981 31067.3350 -88.4626 -25.4543
ENERGY: 1500000 1.4529 1.6169 3.3827 0.0000 -10559.1521 1336.0783 0.0000 0.0000 1753.8598 -7462.7616 298.8259 -9216.6214 -7510.1267 300.9442 -862.1815 -807.4099 30625.4580 -106.2200 -41.0662
TCL: Running FEP window  18: Lambda1 0.1499999999999997 Lambda2 0.09999999999999969 [dLambda -0.05 ]
TCL: Setting parameter firsttimestep to 0
TCL: Setting parameter alchLambda to 0.1499999999999997
Info: NONBONDED TABLE R-SQUARED SPACING: 0.0625
Info: NONBONDED TABLE SIZE: 705 POINTS
TCL: Setting parameter alchLambda2 to 0.09999999999999969
Info: NONBONDED TABLE R-SQUARED SPACING: 0.0625
Info: NONBONDED TABLE SIZE: 705 POINTS
TCL: Running for 1500000 steps
ETITLE: TS BOND ANGLE DIHED IMPRP ELECT VDW BOUNDARY MISC KINETIC TOTAL TEMP POTENTIAL TOTALAVG TEMPAVG PRESSURE GPRESSURE VOLUME PRESSAVG GPRESSAVG
ENERGY: 0 1.4528 1.6169 3.3827 0.0000 -10559.1522 1335.2020 0.0000 0.0000 1752.9758 -7464.5220 298.6753 -9217.4978 -7464.5220 298.6753 -909.4281 -813.4700 30625.4580 -909.4281 -813.4700
ENERGY: 300000 1.0545 4.7396 2.2223 0.0000 -10764.5026 1530.3903 0.0000 0.0000 1746.2386 -7479.8574 297.5274 -9226.0959 -7461.9323 303.1720 678.1650 758.4934 30326.6520 94.2111 154.0150
ENERGY: 600000 0.5115 4.7328 3.0039 0.0000 -10805.1170 1517.4650 0.0000 0.0000 1760.6836 -7518.7202 299.9886 -9279.4038 -7492.1455 300.6662 478.2475 559.8742 30562.1775 10.8630 65.5188
ENERGY: 900000 4.9966 5.6078 2.2049 0.0000 -10717.0585 1429.4000 0.0000 0.0000 1788.9602 -7485.8891 304.8064 -9274.8493 -7496.5302 299.5993 -80.0135 -71.4897 30484.0352 30.1723 80.6444
ENERGY: 1200000 0.5393 0.7505 2.6134 0.0000 -10766.8921 1409.5502 0.0000 0.0000 1701.5287 -7651.9100 289.9097 -9353.4387 -7513.2617 298.5156 -471.2482 -396.8195 30366.3795 -63.4963 -5.7198
ENERGY: 1500000 1.1493 2.1511 2.4104 0.0000 -10742.8036 1457.3968 0.0000 0.0000 1779.4189 -7500.2770 303.1807 -9279.6959 -7509.7664 299.2899 397.6399 377.6968 30095.5547 31.3324 83.0794
TCL: Running FEP window  19: Lambda1 0.09999999999999969 Lambda2 0.049999999999999684 [dLambda -0.05 ]
TCL: Setting parameter firsttimestep to 0
TCL: Setting parameter alchLambda to 0.09999999999999969
Info: NONBONDED TABLE R-SQUARED SPACING: 0.0625
Info: NONBONDED TABLE SIZE: 705 POINTS
TCL: Setting parameter alchLambda2 to 0.049999999999999684
Info: NONBONDED TABLE R-SQUARED SPACING: 0.0625
Info: NONBONDED TABLE SIZE: 705 POINTS
TCL: Running for 1500000 steps
ETITLE: TS BOND ANGLE DIHED IMPRP ELECT VDW BOUNDARY MISC KINETIC TOTAL TEMP POTENTIAL TOTALAVG TEMPAVG PRESSURE GPRESSURE VOLUME PRESSAVG GPRESSAVG
ENERGY: 0 1.1493 2.1511 2.4104 0.0000 -10742.8032 1457.6281 0.0000 0.0000 1778.5625 -7500.9017 303.0348 -9279.4642 -7500.9017 303.0348 297.5154 376.5527 30095.5547 297.5154 376.5527
ENERGY: 300000 1.8527 2.0951 3.0109 0.0000 -10861.4598 1529.6455 0.0000 0.0000 1711.6199 -7613.2357 291.6290 -9324.8556 -7535.2277 297.7093 649.1013 670.7673 30131.4739 172.9774 234.1752
ENERGY: 600000 2.4732 5.0084 2.2760 0.0000 -10746.2594 1460.5875 0.0000 0.0000 1752.6141 -7523.3002 298.6137 -9275.9143 -7495.6887 299.3200 -144.7997 -73.2641 30757.0303 75.9641 148.7262
ENERGY: 900000 3.2110 5.5604 1.2762 0.0000 -10767.9496 1461.2826 0.0000 0.0000 1728.6106 -7568.0089 294.5239 -9296.6195 -7499.4568 300.4328 325.3352 306.3016 29969.4355 130.7358 197.0559
ENERGY: 1200000 1.1204 4.1290 3.3350 0.0000 -10961.1289 1558.8865 0.0000 0.0000 1767.4783 -7626.1796 301.1463 -9393.6579 -7508.5935 300.5198 720.4022 807.5883 29732.7944 121.4554 187.8325
ENERGY: 1500000 1.5448 1.6976 2.3152 0.0000 -10559.0155 1332.0869 0.0000 0.0000 1816.6154 -7404.7556 309.5184 -9221.3710 -7507.6387 300.4378 -754.5915 -706.4350 30396.5556 101.3092 168.4047
TCL: Running FEP window  20: Lambda1 0.049999999999999684 Lambda2 0.0    [dLambda -0.049999999999999684]
TCL: Setting parameter firsttimestep to 0
TCL: Setting parameter alchLambda to 0.049999999999999684
Info: NONBONDED TABLE R-SQUARED SPACING: 0.0625
Info: NONBONDED TABLE SIZE: 705 POINTS
TCL: Setting parameter alchLambda2 to 0.0
Info: NONBONDED TABLE R-SQUARED SPACING: 0.0625
Info: NONBONDED TABLE SIZE: 705 POINTS
TCL: Running for 1500000 steps
ETITLE: TS BOND ANGLE DIHED IMPRP ELECT VDW BOUNDARY MISC KINETIC TOTAL TEMP POTENTIAL TOTALAVG TEMPAVG PRESSURE GPRESSURE VOLUME PRESSAVG GPRESSAVG
ENERGY: 0 1.5448 1.6976 2.3152 0.0000 -10559.0163 1332.1553 0.0000 0.0000 1815.6985 -7405.6050 309.3621 -9221.3035 -7405.6050 309.3621 -789.1638 -706.3705 30396.5556 -789.1638 -706.3705
ENERGY: 300000 0.9156 3.6796 2.3140 0.0000 -10731.0958 1442.6494 0.0000 0.0000 1707.3048 -7574.2324 290.8938 -9281.5372 -7540.6614 297.6923 -210.8657 -145.3460 30653.1960 -157.7534 -58.0623
ENERGY: 600000 0.9541 2.7304 2.3289 0.0000 -10840.4575 1539.2623 0.0000 0.0000 1760.0675 -7535.1142 299.8836 -9295.1817 -7543.8941 298.0941 655.5668 717.7276 30193.7826 90.2096 189.8188
ENERGY: 900000 1.3008 6.5552 2.6077 0.0000 -10693.6994 1486.8205 0.0000 0.0000 1781.8950 -7414.5201 303.6026 -9196.4152 -7518.6820 299.6835 507.2979 540.5248 30267.3487 -93.2271 -8.4449
ENERGY: 1200000 0.5363 5.1931 2.2291 0.0000 -10690.8588 1368.6098 0.0000 0.0000 1789.3075 -7524.9830 304.8656 -9314.2904 -7512.0253 300.8526 -585.3845 -571.5763 30383.7801 -41.5809 29.7440
ENERGY: 1500000 0.9777 4.8682 1.4867 0.0000 -10725.2720 1425.7213 0.0000 0.0000 1686.4345 -7605.7835 287.3379 -9292.2181 -7508.4329 300.0617 -312.4977 -264.4310 30280.7046 -57.6510 13.8117
TCL: Exiting due to exit command.
