Info: SIMULATION PARAMETERS:
Info: TIMESTEP               2
Info: NUMBER OF STEPS        0
Info: STEPS PER CYCLE        10
Info: PERIODIC CELL BASIS 1  30.8476 0 0
Info: PERIODIC CELL BASIS 2  0 29.3733 0
Info: PERIODIC CELL BASIS 3  0 0 33.1859
Info: PERIODIC CELL CENTER   0 0 0
Info: WRAPPING WATERS AROUND PERIODIC BOUNDARIES ON OUTPUT.
Info: WRAPPING ALL CLUSTERS AROUND PERIODIC BOUNDARIES ON OUTPUT.
Info: FIRST LDB TIMESTEP     50
Info: LAST LDB TIMESTEP     -1
Info: HOM BACKGROUND SCALING 1
Info: PME BACKGROUND SCALING 1
Info: MIN ATOMS PER PATCH    40
Info: EMPTY PATCH LOAD       40 ATOMS
Info: VELOCITY FILE          mobley_3398536_equil.vel
Info: CENTER OF MASS MOVING INITIALLY? NO
Info: DIELECTRIC             1
Info: EXCLUDE                SCALED ONE-FOUR
Info: 1-4 ELECTROSTATICS SCALED BY 0.833333
Info: MODIFIED 1-4 VDW PARAMETERS WILL BE USED
Info: DCD FILENAME           mobley_3398536_prod.dcd
Info: DCD FREQUENCY          100000
Info: DCD FIRST STEP         100000
Info: DCD FILE WILL CONTAIN UNIT CELL DATA
Info: XST FILENAME           mobley_3398536_prod.xst
Info: XST FREQUENCY          100000
Info: NO VELOCITY DCD OUTPUT
Info: NO FORCE DCD OUTPUT
Info: OUTPUT FILENAME        mobley_3398536_prod
Info: BINARY OUTPUT FILES WILL BE USED
Info: RESTART FILENAME       mobley_3398536_prod.restart
Info: RESTART FREQUENCY      100000
Info: BINARY RESTART FILES WILL BE USED
Info: CUTOFF                 9
Info: PAIRLIST DISTANCE      11
Info: PAIRLIST SHRINK RATE   0.01
Info: PAIRLIST GROW RATE     0.01
Info: PAIRLIST TRIGGER       0.3
Info: PAIRLISTS PER CYCLE    2
Info: PAIRLISTS ENABLED
Info: MARGIN                 2
Info: HYDROGEN GROUP CUTOFF  2.5
Info: PATCH DIMENSION        15.5
Info: ENERGY OUTPUT STEPS    100000
Info: ENERGY EVALUATION STEPS    100000
Info: OUTPUT ENERGY PRECISION 4
Info: CROSSTERM ENERGY INCLUDED IN DIHEDRAL
Info: TIMING OUTPUT STEPS    1000000
Info: PRESSURE OUTPUT STEPS  100000
Info: ALCHEMICAL FEP ON
Info: FEP CURRENT LAMBDA VALUE     1
Info: FEP COMPARISON LAMBDA VALUE  0.95
Info: FEP INTRA-ALCHEMICAL NON-BONDED INTERACTIONS WILL BE RETAINED
Info: FEP INTRA-ALCHEMICAL BONDED INTERACTIONS WILL BE RETAINED
Info: FEP VDW SHIFTING COEFFICIENT 5
Info: FEP ELEC. ACTIVE FOR ANNIHILATED PARTICLES BETWEEN LAMBDA = 0 AND LAMBDA = 0.5
Info: FEP ELEC. ACTIVE FOR EXNIHILATED PARTICLES BETWEEN LAMBDA = 0.5 AND LAMBDA = 1
Info: FEP VDW ACTIVE FOR ANNIHILATED PARTICLES BETWEEN LAMBDA = 0 AND LAMBDA = 1
Info: FEP VDW ACTIVE FOR EXNIHILATED PARTICLES BETWEEN LAMBDA = 0 AND LAMBDA = 1
Info: FEP BOND ACTIVE FOR ANNIHILATED PARTICLES BETWEEN LAMBDA = 1 AND LAMBDA = 1
Info: FEP BOND ACTIVE FOR EXNIHILATED PARTICLES BETWEEN LAMBDA = 0 AND LAMBDA = 0
Info: LANGEVIN DYNAMICS ACTIVE
Info: LANGEVIN TEMPERATURE   300
Info: LANGEVIN USING BBK INTEGRATOR
Info: LANGEVIN DAMPING COEFFICIENT IS 1 INVERSE PS
Info: LANGEVIN DYNAMICS APPLIED TO HYDROGENS
Info: LANGEVIN PISTON PRESSURE CONTROL ACTIVE
Info:        TARGET PRESSURE IS 1.01325 BAR
Info:     OSCILLATION PERIOD IS 50 FS
Info:             DECAY TIME IS 25 FS
Info:     PISTON TEMPERATURE IS 300 K
Info:       PRESSURE CONTROL IS GROUP-BASED
Info:    INITIAL STRAIN RATE IS -0.000172596 -0.000172596 -0.000172596
Info:       CELL FLUCTUATION IS ISOTROPIC
Info: PARTICLE MESH EWALD (PME) ACTIVE
Info: PME TOLERANCE               1e-06
Info: PME EWALD COEFFICIENT       0.348832
Info: PME INTERPOLATION ORDER     4
Info: PME GRID DIMENSIONS         32 32 36
Info: PME MAXIMUM GRID SPACING    1
Info: PME CALCULATION WILL BE PERFORMED ON GPU
Info: FULL ELECTROSTATIC EVALUATION FREQUENCY      2
Info: USING VERLET I (r-RESPA) MTS SCHEME.
Info: C1 SPLITTING OF LONG RANGE ELECTROSTATICS
Info: PLACING ATOMS IN PATCHES BY HYDROGEN GROUPS
Info: RIGID BONDS TO HYDROGEN : ALL
Info:         ERROR TOLERANCE : 1e-08
Info:          MAX ITERATIONS : 100
Info: RIGID WATER USING SETTLE ALGORITHM
Info: RANDOM NUMBER SEED     1743541839
Info: USE HYDROGEN BONDS?    NO
Info: Using AMBER format force field!
Info: AMBER PARM FILE        mobley_3398536.prmtop
Info: COORDINATE PDB         mobley_3398536.pdb
Info: Exclusions will be read from PARM file!
Info: SCNB (VDW SCALING)     2
Info: USING ARITHMETIC MEAN TO COMBINE L-J SIGMA PARAMETERS
Info: BINARY COORDINATES     mobley_3398536_equil.coor
Info: SUMMARY OF PARAMETERS:
Info: 5 BONDS
Info: 3 ANGLES
Info:   3 HARMONIC
Info:   0 COSINE-BASED
Info: 2 DIHEDRAL
Info: 0 IMPROPER
Info: 0 CROSSTERM
Info: 0 VDW
Info: 15 VDW_PAIRS
Info: 0 NBTHOLE_PAIRS
Info: To read alchdata from file: mobley_3398536.pdb
Info: To read alchflag data from column: 5
Info: STRUCTURE SUMMARY:
Info: 2925 ATOMS
Info: 2925 BONDS
Info: 18 ANGLES
Info: 30 DIHEDRALS
Info: 0 IMPROPERS
Info: 0 CROSSTERMS
Info: 2964 EXCLUSIONS
Info: 2918 RIGID BONDS
Info: ALCH: 0 ATOMS TO DISAPPEAR IN FINAL STATE
Info: ALCH: 12 ATOMS TO APPEAR IN FINAL STATE
Info: 5857 DEGREES OF FREEDOM
Info: 978 HYDROGEN GROUPS
Info: 3 ATOMS IN LARGEST HYDROGEN GROUP
Info: 978 MIGRATION GROUPS
Info: 3 ATOMS IN LARGEST MIGRATION GROUP
Info: TOTAL MASS = 17697.5 amu
Info: TOTAL CHARGE = 0.000100022 e
Info: MASS DENSITY = 0.977339 g/cm^3
Info: ATOM DENSITY = 0.0972745 atoms/A^3
Info: ADDED 0 IMPLICIT EXCLUSIONS
Info: NONBONDED TABLE R-SQUARED SPACING: 0.0625
Info: NONBONDED TABLE SIZE: 705 POINTS
Info: REMOVING COM VELOCITY -0.10009 -0.13332 -0.157372
Info: Use 3D box decompostion in PME FFT.
Info: Updated CUDA force table with 4096 elements.
Info: Updated CUDA LJ table with 5 x 5 elements.
Info: Found 14 unique exclusion lists needing 24 bytes
TCL: Running for 1500000 steps
ETITLE: TS BOND ANGLE DIHED IMPRP ELECT VDW BOUNDARY MISC KINETIC TOTAL TEMP POTENTIAL TOTALAVG TEMPAVG PRESSURE GPRESSURE VOLUME PRESSAVG GPRESSAVG
ENERGY: 0 1.8204 3.0428 1.6690 0.0000 -10622.2853 1447.5645 0.0000 0.0000 1739.6551 -7428.5335 298.9361 -9168.1886 -7428.5335 298.9361 318.0553 395.5687 30069.5502 318.0553 395.5687
ENERGY: 300000 2.5652 1.9671 3.6284 0.0000 -10657.6220 1459.0268 0.0000 0.0000 1717.5153 -7472.9192 295.1316 -9190.4345 -7438.2027 298.5836 98.4897 131.0491 30502.6021 334.2530 380.3892
ENERGY: 600000 2.1759 3.9945 1.2909 0.0000 -10672.2890 1443.6912 0.0000 0.0000 1803.2622 -7417.8743 309.8661 -9221.1365 -7439.0539 299.7686 -35.2533 53.1375 30186.1609 -57.3340 12.0773
ENERGY: 900000 2.9460 3.6531 4.8508 0.0000 -10517.4093 1345.7017 0.0000 0.0000 1812.2109 -7348.0467 311.4038 -9160.2576 -7421.7313 301.8995 -419.0244 -314.7874 30013.2808 -86.9747 -16.3053
ENERGY: 1200000 4.2823 3.7988 3.0193 0.0000 -10549.5167 1389.5667 0.0000 0.0000 1777.7293 -7371.1202 305.4786 -9148.8495 -7417.9920 302.8442 -422.9246 -363.2031 30479.7430 -98.7375 -30.1788
ENERGY: 1500000 2.7100 5.2278 1.7004 0.0000 -10818.0888 1598.5207 0.0000 0.0000 1732.0246 -7477.9054 297.6249 -9209.9299 -7426.2786 302.5908 1359.2574 1448.0056 29846.6444 -48.4385 21.0804
TCL: Running FEP window   2: Lambda1 0.95   Lambda2 0.8999999999999999 [dLambda -0.050000000000000044]
TCL: Setting parameter firsttimestep to 0
TCL: Setting parameter alchLambda to 0.95
Info: NONBONDED TABLE R-SQUARED SPACING: 0.0625
Info: NONBONDED TABLE SIZE: 705 POINTS
TCL: Setting parameter alchLambda2 to 0.8999999999999999
Info: NONBONDED TABLE R-SQUARED SPACING: 0.0625
Info: NONBONDED TABLE SIZE: 705 POINTS
TCL: Running for 1500000 steps
ETITLE: TS BOND ANGLE DIHED IMPRP ELECT VDW BOUNDARY MISC KINETIC TOTAL TEMP POTENTIAL TOTALAVG TEMPAVG PRESSURE GPRESSURE VOLUME PRESSAVG GPRESSAVG
ENERGY: 0 2.7100 5.2278 1.7004 0.0000 -10817.4945 1598.1725 0.0000 0.0000 1731.2018 -7478.4820 297.4835 -9209.6837 -7478.4820 297.4835 1341.7099 1428.6783 29846.6444 1341.7099 1428.6783
ENERGY: 300000 2.6390 1.9959 1.7156 0.0000 -10556.2370 1376.5717 0.0000 0.0000 1736.4633 -7436.8516 298.3876 -9173.3149 -7460.5010 297.0273 -611.3089 -523.9589 30337.2576 130.4562 217.7496
ENERGY: 600000 4.3168 3.5920 3.6611 0.0000 -10579.5778 1435.5924 0.0000 0.0000 1736.1617 -7396.2539 298.3358 -9132.4156 -7449.1114 298.6706 105.8857 152.0490 30313.7134 174.9357 253.6523
ENERGY: 900000 1.4934 1.3403 4.0979 0.0000 -10657.7170 1490.2823 0.0000 0.0000 1696.9321 -7463.5710 291.5947 -9160.5031 -7457.3422 297.8412 895.3986 902.8894 29623.9486 307.4070 374.4430
ENERGY: 1200000 2.2818 1.8778 2.1755 0.0000 -10523.2098 1359.1392 0.0000 0.0000 1769.2648 -7388.4707 304.0241 -9157.7354 -7444.9608 299.1432 -851.5254 -777.9242 30699.4869 222.8706 285.2770
ENERGY: 1500000 3.0134 3.0483 2.9706 0.0000 -10608.5148 1372.3311 0.0000 0.0000 1713.3429 -7513.8084 294.4147 -9227.1514 -7448.1416 299.3821 -830.3478 -732.3701 30421.9153 115.4663 188.8789
TCL: Running FEP window   3: Lambda1 0.8999999999999999 Lambda2 0.8499999999999999 [dLambda -0.050000000000000044]
TCL: Setting parameter firsttimestep to 0
TCL: Setting parameter alchLambda to 0.8999999999999999
Info: NONBONDED TABLE R-SQUARED SPACING: 0.0625
Info: NONBONDED TABLE SIZE: 705 POINTS
TCL: Setting parameter alchLambda2 to 0.8499999999999999
Info: NONBONDED TABLE R-SQUARED SPACING: 0.0625
Info: NONBONDED TABLE SIZE: 705 POINTS
TCL: Running for 1500000 steps
ETITLE: TS BOND ANGLE DIHED IMPRP ELECT VDW BOUNDARY MISC KINETIC TOTAL TEMP POTENTIAL TOTALAVG TEMPAVG PRESSURE GPRESSURE VOLUME PRESSAVG GPRESSAVG
ENERGY: 0 3.0134 3.0483 2.9706 0.0000 -10608.2616 1372.6729 0.0000 0.0000 1712.5083 -7514.0481 294.2713 -9226.5564 -7514.0481 294.2713 -810.8581 -735.0429 30421.9153 -810.8581 -735.0429
ENERGY: 300000 1.0259 1.5044 2.5933 0.0000 -10454.9424 1342.9939 0.0000 0.0000 1737.3627 -7369.4621 298.5422 -9106.8248 -7425.7887 299.6469 -418.5216 -344.2921 30127.8973 -428.5333 -352.0202
ENERGY: 600000 2.8205 2.4390 2.2297 0.0000 -10613.3990 1452.2568 0.0000 0.0000 1703.6138 -7450.0392 292.7429 -9153.6530 -7417.2473 300.3895 415.1703 513.9829 29862.3956 -289.3021 -208.9675
ENERGY: 900000 1.6762 0.5091 3.0090 0.0000 -10693.0213 1498.7990 0.0000 0.0000 1766.4005 -7422.6274 303.5319 -9189.0279 -7424.5429 300.8105 677.3083 814.6558 29755.4908 -177.4509 -94.6960
ENERGY: 1200000 0.5365 5.6397 6.4367 0.0000 -10626.3999 1449.1609 0.0000 0.0000 1736.8087 -7427.8175 298.4469 -9164.6261 -7426.6121 300.4865 279.4242 369.5475 29794.7806 -131.1300 -48.7172
ENERGY: 1500000 2.5958 5.6244 1.9056 0.0000 -10602.3881 1381.6098 0.0000 0.0000 1734.8772 -7475.7753 298.1151 -9210.6525 -7426.8414 300.9156 -499.2972 -517.0129 30295.3625 -166.4250 -88.9763
TCL: Running FEP window   4: Lambda1 0.8499999999999999 Lambda2 0.7999999999999998 [dLambda -0.050000000000000044]
TCL: Setting parameter firsttimestep to 0
TCL: Setting parameter alchLambda to 0.8499999999999999
Info: NONBONDED TABLE R-SQUARED SPACING: 0.0625
Info: NONBONDED TABLE SIZE: 705 POINTS
TCL: Setting parameter alchLambda2 to 0.7999999999999998
Info: NONBONDED TABLE R-SQUARED SPACING: 0.0625
Info: NONBONDED TABLE SIZE: 705 POINTS
TCL: Running for 1500000 steps
ETITLE: TS BOND ANGLE DIHED IMPRP ELECT VDW BOUNDARY MISC KINETIC TOTAL TEMP POTENTIAL TOTALAVG TEMPAVG PRESSURE GPRESSURE VOLUME PRESSAVG GPRESSAVG
ENERGY: 0 2.5958 5.6244 1.9056 0.0000 -10602.0061 1381.7310 0.0000 0.0000 1733.9982 -7476.1511 297.9640 -9210.1493 -7476.1511 297.9640 -598.5077 -523.9311 30295.3625 -598.5077 -523.9311
ENERGY: 300000 0.8415 4.1856 3.9803 0.0000 -10554.5030 1394.1813 0.0000 0.0000 1803.6032 -7347.7111 309.9247 -9151.3143 -7446.1001 298.7594 -35.0648 73.0807 29809.5553 -272.8130 -204.3147
ENERGY: 600000 3.2024 4.3753 2.3097 0.0000 -10402.4761 1326.3981 0.0000 0.0000 1700.0827 -7366.1078 292.1361 -9066.1906 -7428.4067 298.5899 -781.0344 -752.7519 30945.1304 -232.4531 -167.5563
ENERGY: 900000 2.1762 0.7484 1.2087 0.0000 -10611.2218 1407.3369 0.0000 0.0000 1731.8330 -7467.9186 297.5919 -9199.7516 -7444.0008 299.0427 -445.7413 -336.6091 30331.6236 -261.4544 -200.4787
ENERGY: 1200000 1.2949 2.3474 1.8603 0.0000 -10346.2696 1297.0357 0.0000 0.0000 1722.5761 -7321.1553 296.0013 -9043.7314 -7428.7494 299.2602 -946.5125 -956.2259 30742.7223 -351.4060 -289.4490
ENERGY: 1500000 2.1287 2.5564 1.8446 0.0000 -10735.1286 1488.7070 0.0000 0.0000 1763.4742 -7476.4177 303.0291 -9239.8920 -7430.0649 298.8978 485.1852 540.2219 30072.8709 -300.4623 -240.3591
TCL: Running FEP window   5: Lambda1 0.7999999999999998 Lambda2 0.7499999999999998 [dLambda -0.050000000000000044]
TCL: Setting parameter firsttimestep to 0
TCL: Setting parameter alchLambda to 0.7999999999999998
Info: NONBONDED TABLE R-SQUARED SPACING: 0.0625
Info: NONBONDED TABLE SIZE: 705 POINTS
TCL: Setting parameter alchLambda2 to 0.7499999999999998
Info: NONBONDED TABLE R-SQUARED SPACING: 0.0625
Info: NONBONDED TABLE SIZE: 705 POINTS
TCL: Running for 1500000 steps
ETITLE: TS BOND ANGLE DIHED IMPRP ELECT VDW BOUNDARY MISC KINETIC TOTAL TEMP POTENTIAL TOTALAVG TEMPAVG PRESSURE GPRESSURE VOLUME PRESSAVG GPRESSAVG
ENERGY: 0 2.1287 2.5564 1.8446 0.0000 -10734.3321 1489.0769 0.0000 0.0000 1762.6052 -7476.1203 302.8797 -9238.7255 -7476.1203 302.8797 448.6528 537.1017 30072.8709 448.6528 537.1017
ENERGY: 300000 2.4727 1.9984 2.6183 0.0000 -10646.2121 1408.2194 0.0000 0.0000 1754.6218 -7476.2814 301.5079 -9230.9032 -7467.8309 298.5723 -475.5019 -444.7860 30434.9620 -139.3643 -75.5800
ENERGY: 600000 4.7612 3.0447 0.5559 0.0000 -10541.4480 1418.9953 0.0000 0.0000 1708.5449 -7405.5459 293.5902 -9114.0908 -7469.0339 298.0061 -52.4816 63.4458 30393.0735 -122.4142 -47.4080
ENERGY: 900000 2.2700 5.1296 3.5878 0.0000 -10626.6059 1421.8124 0.0000 0.0000 1730.0945 -7463.7117 297.2932 -9193.8061 -7475.3138 297.1928 -180.8066 -113.8906 30090.7069 -63.7308 11.3380
ENERGY: 1200000 1.8222 1.7121 2.0492 0.0000 -10640.4555 1473.9436 0.0000 0.0000 1759.1701 -7401.7583 302.2894 -9160.9283 -7459.2090 298.1867 438.0287 521.7464 29971.5312 28.5332 102.6234
ENERGY: 1500000 3.2401 0.8752 2.7182 0.0000 -10594.2785 1406.5150 0.0000 0.0000 1745.4704 -7435.4596 299.9354 -9180.9300 -7445.6175 298.6121 -298.5185 -188.1321 30095.6483 -41.6316 37.1717
TCL: Running FEP window   6: Lambda1 0.7499999999999998 Lambda2 0.6999999999999997 [dLambda -0.050000000000000044]
TCL: Setting parameter firsttimestep to 0
TCL: Setting parameter alchLambda to 0.7499999999999998
Info: NONBONDED TABLE R-SQUARED SPACING: 0.0625
Info: NONBONDED TABLE SIZE: 705 POINTS
TCL: Setting parameter alchLambda2 to 0.6999999999999997
Info: NONBONDED TABLE R-SQUARED SPACING: 0.0625
Info: NONBONDED TABLE SIZE: 705 POINTS
TCL: Running for 1500000 steps
ETITLE: TS BOND ANGLE DIHED IMPRP ELECT VDW BOUNDARY MISC KINETIC TOTAL TEMP POTENTIAL TOTALAVG TEMPAVG PRESSURE GPRESSURE VOLUME PRESSAVG GPRESSAVG
ENERGY: 0 3.2400 0.8752 2.7182 0.0000 -10594.2167 1407.1687 0.0000 0.0000 1744.5816 -7435.6330 299.7826 -9180.2146 -7435.6330 299.7826 -278.8801 -188.9930 30095.6483 -278.8801 -188.9930
ENERGY: 300000 1.6674 3.0914 1.2115 0.0000 -10686.6361 1495.9027 0.0000 0.0000 1778.1772 -7406.5859 305.5556 -9184.7631 -7399.9245 303.5106 639.5572 704.0944 29973.6829 -289.9003 -235.6595
ENERGY: 600000 2.9624 3.5002 2.8771 0.0000 -10570.9044 1390.0921 0.0000 0.0000 1764.6994 -7406.7731 303.2396 -9171.4725 -7396.9297 303.7308 -602.3326 -519.7897 30709.8841 -537.5013 -473.4278
ENERGY: 900000 3.5411 4.4344 3.6172 0.0000 -10687.6844 1427.4180 0.0000 0.0000 1815.2679 -7433.4058 311.9291 -9248.6737 -7403.3133 303.5449 81.3731 56.0379 29840.0911 -357.6718 -298.1728
ENERGY: 1200000 1.6054 2.7446 3.5814 0.0000 -10597.3903 1406.4538 0.0000 0.0000 1773.1554 -7409.8499 304.6926 -9183.0053 -7413.2840 302.7031 53.1664 76.5154 29723.1630 -292.9574 -239.0227
ENERGY: 1500000 3.9481 1.6080 3.6260 0.0000 -10512.9212 1327.6471 0.0000 0.0000 1715.2744 -7460.8177 294.7466 -9176.0920 -7423.0673 300.8735 -891.3940 -839.2116 30201.8282 -313.6432 -253.0542
TCL: Running FEP window   7: Lambda1 0.6999999999999997 Lambda2 0.6499999999999997 [dLambda -0.050000000000000044]
TCL: Setting parameter firsttimestep to 0
TCL: Setting parameter alchLambda to 0.6999999999999997
Info: NONBONDED TABLE R-SQUARED SPACING: 0.0625
Info: NONBONDED TABLE SIZE: 705 POINTS
TCL: Setting parameter alchLambda2 to 0.6499999999999997
Info: NONBONDED TABLE R-SQUARED SPACING: 0.0625
Info: NONBONDED TABLE SIZE: 705 POINTS
TCL: Running for 1500000 steps
ETITLE: TS BOND ANGLE DIHED IMPRP ELECT VDW BOUNDARY MISC KINETIC TOTAL TEMP POTENTIAL TOTALAVG TEMPAVG PRESSURE GPRESSURE VOLUME PRESSAVG GPRESSAVG
ENERGY: 0 3.9481 1.6080 3.6260 0.0000 -10512.4892 1327.7573 0.0000 0.0000 1714.4369 -7461.1130 294.6027 -9175.5499 -7461.1130 294.6027 -916.4414 -847.9972 30201.8282 -916.4414 -847.9972
ENERGY: 300000 3.9926 1.4594 1.7374 0.0000 -10636.8666 1478.3954 0.0000 0.0000 1667.2358 -7484.0461 286.4918 -9151.2819 -7430.6464 295.5100 388.0506 430.4707 30159.3119 -191.9799 -146.3106
ENERGY: 600000 0.8147 1.7885 4.5387 0.0000 -10593.5181 1451.6708 0.0000 0.0000 1730.9713 -7403.7341 297.4439 -9134.7054 -7424.3281 297.8826 -36.7546 60.8930 30484.3443 -231.3425 -175.0779
ENERGY: 900000 0.6250 2.3816 3.2060 0.0000 -10705.7343 1483.5084 0.0000 0.0000 1735.1660 -7480.8472 298.1647 -9216.0132 -7418.4732 298.2526 490.2157 579.9695 29767.3974 -177.8310 -118.0918
ENERGY: 1200000 1.3218 3.7214 0.8206 0.0000 -10645.1555 1476.4911 0.0000 0.0000 1742.3376 -7420.4630 299.3970 -9162.8005 -7412.3967 299.4419 497.9905 573.1387 30017.1276 -135.4171 -74.6858
ENERGY: 1500000 2.7065 3.8904 4.5963 0.0000 -10651.1524 1442.1165 0.0000 0.0000 1751.8575 -7445.9852 301.0329 -9197.8428 -7419.6358 299.2655 148.8134 262.9558 29802.7101 -156.8918 -90.5728
TCL: Running FEP window   8: Lambda1 0.6499999999999997 Lambda2 0.5999999999999996 [dLambda -0.050000000000000044]
TCL: Setting parameter firsttimestep to 0
TCL: Setting parameter alchLambda to 0.6499999999999997
Info: NONBONDED TABLE R-SQUARED SPACING: 0.0625
Info: NONBONDED TABLE SIZE: 705 POINTS
TCL: Setting parameter alchLambda2 to 0.5999999999999996
Info: NONBONDED TABLE R-SQUARED SPACING: 0.0625
Info: NONBONDED TABLE SIZE: 705 POINTS
TCL: Running for 1500000 steps
ETITLE: TS BOND ANGLE DIHED IMPRP ELECT VDW BOUNDARY MISC KINETIC TOTAL TEMP POTENTIAL TOTALAVG TEMPAVG PRESSURE GPRESSURE VOLUME PRESSAVG GPRESSAVG
ENERGY: 0 2.7064 3.8904 4.5963 0.0000 -10650.9052 1442.5200 0.0000 0.0000 1751.0141 -7446.1780 300.8880 -9197.1920 -7446.1780 300.8880 168.0941 259.4255 29802.7101 168.0941 259.4255
ENERGY: 300000 2.3453 1.9611 3.5638 0.0000 -10630.0347 1465.6658 0.0000 0.0000 1678.2768 -7478.2219 288.3890 -9156.4987 -7481.5837 297.3287 223.9745 247.0039 30040.4281 196.9617 256.0118
ENERGY: 600000 3.5567 2.8589 2.0942 0.0000 -10674.6260 1502.7539 0.0000 0.0000 1724.7977 -7438.5645 296.3830 -9163.3622 -7463.4911 297.5448 683.9906 761.5466 29968.9775 86.8203 161.7435
ENERGY: 900000 0.7114 3.1863 1.7003 0.0000 -10614.6052 1483.9168 0.0000 0.0000 1746.0498 -7379.0406 300.0349 -9125.0904 -7443.9471 299.3438 582.2682 601.0614 30171.6684 234.5229 300.5121
ENERGY: 1200000 3.3927 1.4352 4.3157 0.0000 -10831.1224 1552.6161 0.0000 0.0000 1747.8652 -7521.4976 300.3469 -9269.3628 -7450.6983 298.9553 862.3454 925.7144 29861.8600 325.0433 392.3909
ENERGY: 1500000 2.8814 1.5911 0.8223 0.0000 -10619.3109 1444.8078 0.0000 0.0000 1751.3022 -7417.9061 300.9375 -9169.2083 -7446.1995 299.3081 73.2384 161.8107 30336.4923 264.9211 331.7509
TCL: Running FEP window   9: Lambda1 0.5999999999999996 Lambda2 0.5499999999999996 [dLambda -0.050000000000000044]
TCL: Setting parameter firsttimestep to 0
TCL: Setting parameter alchLambda to 0.5999999999999996
Info: NONBONDED TABLE R-SQUARED SPACING: 0.0625
Info: NONBONDED TABLE SIZE: 705 POINTS
TCL: Setting parameter alchLambda2 to 0.5499999999999996
Info: NONBONDED TABLE R-SQUARED SPACING: 0.0625
Info: NONBONDED TABLE SIZE: 705 POINTS
TCL: Running for 1500000 steps
ETITLE: TS BOND ANGLE DIHED IMPRP ELECT VDW BOUNDARY MISC KINETIC TOTAL TEMP POTENTIAL TOTALAVG TEMPAVG PRESSURE GPRESSURE VOLUME PRESSAVG GPRESSAVG
ENERGY: 0 2.8814 1.5911 0.8223 0.0000 -10619.4753 1445.3009 0.0000 0.0000 1750.4318 -7418.4477 300.7879 -9168.8795 -7418.4477 300.7879 90.9464 159.2656 30336.4923 90.9464 159.2656
ENERGY: 300000 1.3360 1.9871 1.2502 0.0000 -10582.4552 1423.3991 0.0000 0.0000 1684.9809 -7469.5018 289.5410 -9154.4827 -7432.3188 297.1365 -60.5079 -46.6318 30138.7197 70.7193 123.5333
ENERGY: 600000 3.7999 1.3893 4.2490 0.0000 -10557.4193 1337.6549 0.0000 0.0000 1663.4147 -7546.9116 285.8352 -9210.3263 -7464.0787 294.0050 -1035.7768 -960.2585 30266.6730 -127.1742 -75.3817
ENERGY: 900000 3.0028 0.8217 1.7059 0.0000 -10725.4611 1498.7991 0.0000 0.0000 1713.4670 -7507.6646 294.4360 -9221.1317 -7452.4279 296.5780 379.9875 422.5338 30090.8165 -104.4330 -43.6894
ENERGY: 1200000 3.3772 1.6263 2.7257 0.0000 -10593.8003 1421.8984 0.0000 0.0000 1790.0145 -7374.1583 307.5896 -9164.1728 -7438.3911 298.5764 58.0910 144.5550 30063.8231 -68.9805 -7.9990
ENERGY: 1500000 2.0058 3.6546 6.3365 0.0000 -10668.5916 1528.3959 0.0000 0.0000 1686.1166 -7442.0821 289.7362 -9128.1988 -7433.7505 298.4653 955.3185 973.1213 29809.0454 -21.2155 34.5054
TCL: Running FEP window  10: Lambda1 0.5499999999999996 Lambda2 0.4999999999999996 [dLambda -0.04999999999999999]
TCL: Setting parameter firsttimestep to 0
TCL: Setting parameter alchLambda to 0.5499999999999996
Info: NONBONDED TABLE R-SQUARED SPACING: 0.0625
Info: NONBONDED TABLE SIZE: 705 POINTS
TCL: Setting parameter alchLambda2 to 0.4999999999999996
Info: NONBONDED TABLE R-SQUARED SPACING: 0.0625
Info: NONBONDED TABLE SIZE: 705 POINTS
TCL: Running for 1500000 steps
ETITLE: TS BOND ANGLE DIHED IMPRP ELECT VDW BOUNDARY MISC KINETIC TOTAL TEMP POTENTIAL TOTALAVG TEMPAVG PRESSURE GPRESSURE VOLUME PRESSAVG GPRESSAVG
ENERGY: 0 2.0058 3.6546 6.3365 0.0000 -10668.0001 1528.4288 0.0000 0.0000 1685.2181 -7442.3563 289.5818 -9127.5744 -7442.3563 289.5818 877.3930 968.2445 29809.0454 877.3930 968.2445
ENERGY: 300000 0.8769 2.6140 1.6612 0.0000 -10662.4406 1461.3779 0.0000 0.0000 1754.9783 -7440.9324 301.5692 -9195.9107 -7457.0767 295.6409 290.2922 413.9571 29750.9530 329.2634 439.0957
ENERGY: 600000 1.6718 5.1093 2.9271 0.0000 -10611.4165 1460.1685 0.0000 0.0000 1743.8761 -7397.6638 299.6614 -9141.5398 -7458.9046 296.8422 310.5960 348.5935 30057.6640 277.6572 368.3532
ENERGY: 900000 4.0709 2.1627 1.8770 0.0000 -10590.7054 1419.2803 0.0000 0.0000 1774.5112 -7388.8033 304.9256 -9163.3145 -7438.1884 298.4091 -73.3033 -30.0176 30203.7013 128.7780 202.4259
ENERGY: 1200000 2.4857 2.8958 2.6256 0.0000 -10547.5392 1372.8563 0.0000 0.0000 1720.5069 -7446.1688 295.6457 -9166.6756 -7435.5457 298.5644 -511.3293 -419.1129 29919.6773 52.7919 122.4280
ENERGY: 1500000 4.8748 3.5261 3.1994 0.0000 -10657.4207 1446.0148 0.0000 0.0000 1752.4370 -7447.3685 301.1325 -9199.8055 -7438.3124 298.1923 11.3649 32.1781 30036.7621 -30.9864 34.4718
TCL: Running FEP window  11: Lambda1 0.4999999999999996 Lambda2 0.4499999999999996 [dLambda -0.04999999999999999]
TCL: Setting parameter firsttimestep to 0
TCL: Setting parameter alchLambda to 0.4999999999999996
Info: NONBONDED TABLE R-SQUARED SPACING: 0.0625
Info: NONBONDED TABLE SIZE: 705 POINTS
TCL: Setting parameter alchLambda2 to 0.4499999999999996
Info: NONBONDED TABLE R-SQUARED SPACING: 0.0625
Info: NONBONDED TABLE SIZE: 705 POINTS
TCL: Running for 1500000 steps
ETITLE: TS BOND ANGLE DIHED IMPRP ELECT VDW BOUNDARY MISC KINETIC TOTAL TEMP POTENTIAL TOTALAVG TEMPAVG PRESSURE GPRESSURE VOLUME PRESSAVG GPRESSAVG
ENERGY: 0 4.8748 3.5261 3.1994 0.0000 -10657.7665 1446.3280 0.0000 0.0000 1751.6070 -7448.2312 300.9898 -9199.8382 -7448.2312 300.9898 -45.5220 29.9069 30036.7621 -45.5220 29.9069
ENERGY: 300000 1.4454 1.9765 4.9128 0.0000 -10612.2506 1447.7211 0.0000 0.0000 1712.8920 -7443.3027 294.3372 -9156.1947 -7447.1779 297.0460 161.3131 229.0065 30426.3016 -69.9245 -16.6033
ENERGY: 600000 2.4394 3.0487 4.1401 0.0000 -10664.9066 1547.2703 0.0000 0.0000 1740.6002 -7367.4079 299.0985 -9108.0081 -7456.4218 296.7188 990.9188 1108.9687 30159.9936 238.5166 305.0979
ENERGY: 900000 1.7357 2.7168 1.8344 0.0000 -10580.9866 1426.4215 0.0000 0.0000 1706.0602 -7442.2180 293.1632 -9148.2781 -7463.3701 294.8399 -10.6603 11.4331 30272.7917 322.6329 373.3387
ENERGY: 1200000 2.6273 4.5560 4.8057 0.0000 -10644.0043 1433.7301 0.0000 0.0000 1760.2715 -7438.0136 302.4787 -9198.2852 -7449.9376 296.6253 -264.3159 -236.1823 30488.0619 222.3835 276.6419
ENERGY: 1500000 0.9562 2.7857 3.5921 0.0000 -10554.0209 1441.7364 0.0000 0.0000 1764.7433 -7340.2072 303.2471 -9104.9505 -7439.7722 298.0688 308.1563 358.6242 30225.9458 218.4176 276.4616
TCL: Running FEP window  12: Lambda1 0.4499999999999996 Lambda2 0.39999999999999963 [dLambda -0.04999999999999999]
TCL: Setting parameter firsttimestep to 0
TCL: Setting parameter alchLambda to 0.4499999999999996
Info: NONBONDED TABLE R-SQUARED SPACING: 0.0625
Info: NONBONDED TABLE SIZE: 705 POINTS
TCL: Setting parameter alchLambda2 to 0.39999999999999963
Info: NONBONDED TABLE R-SQUARED SPACING: 0.0625
Info: NONBONDED TABLE SIZE: 705 POINTS
TCL: Running for 1500000 steps
ETITLE: TS BOND ANGLE DIHED IMPRP ELECT VDW BOUNDARY MISC KINETIC TOTAL TEMP POTENTIAL TOTALAVG TEMPAVG PRESSURE GPRESSURE VOLUME PRESSAVG GPRESSAVG
ENERGY: 0 0.9562 2.7857 3.5921 0.0000 -10554.0211 1441.7562 0.0000 0.0000 1763.8949 -7341.0361 303.1013 -9104.9310 -7341.0361 303.1013 276.9702 352.9282 30225.9458 276.9702 352.9282
ENERGY: 300000 2.6187 1.2492 4.3777 0.0000 -10743.6563 1498.6368 0.0000 0.0000 1757.8916 -7478.8823 302.0698 -9236.7739 -7427.9320 298.0041 516.7018 600.7143 29775.4475 55.5444 130.3773
ENERGY: 600000 3.5097 1.3047 2.3063 0.0000 -10634.1231 1455.7100 0.0000 0.0000 1690.1740 -7481.1184 290.4334 -9171.2924 -7430.1295 297.0347 374.9438 441.3918 29827.5157 -49.2081 12.3927
ENERGY: 900000 2.3511 2.7653 3.2202 0.0000 -10613.1931 1438.6563 0.0000 0.0000 1759.2483 -7406.9519 302.3029 -9166.2002 -7425.3532 297.9505 14.3461 89.4989 30405.8447 -72.4580 -1.2219
ENERGY: 1200000 1.1250 2.5621 1.0380 0.0000 -10655.8279 1491.1427 0.0000 0.0000 1726.3483 -7433.6118 296.6495 -9159.9601 -7420.5866 297.9134 461.5423 468.2061 30124.6241 -3.0221 53.3556
ENERGY: 1500000 3.3042 4.0448 3.3896 0.0000 -10646.5655 1436.6496 0.0000 0.0000 1785.8665 -7413.3108 306.8769 -9199.1773 -7404.9915 299.2970 1.0809 -2.7744 29826.6154 -59.1364 -10.4079
TCL: Running FEP window  13: Lambda1 0.39999999999999963 Lambda2 0.34999999999999964 [dLambda -0.04999999999999999]
TCL: Setting parameter firsttimestep to 0
TCL: Setting parameter alchLambda to 0.39999999999999963
Info: NONBONDED TABLE R-SQUARED SPACING: 0.0625
Info: NONBONDED TABLE SIZE: 705 POINTS
TCL: Setting parameter alchLambda2 to 0.34999999999999964
Info: NONBONDED TABLE R-SQUARED SPACING: 0.0625
Info: NONBONDED TABLE SIZE: 705 POINTS
TCL: Running for 1500000 steps
ETITLE: TS BOND ANGLE DIHED IMPRP ELECT VDW BOUNDARY MISC KINETIC TOTAL TEMP POTENTIAL TOTALAVG TEMPAVG PRESSURE GPRESSURE VOLUME PRESSAVG GPRESSAVG
ENERGY: 0 3.3042 4.0448 3.3896 0.0000 -10646.5664 1437.0188 0.0000 0.0000 1785.0279 -7413.7811 306.7328 -9198.8090 -7413.7811 306.7328 -80.5170 -3.9358 29826.6154 -80.5170 -3.9358
ENERGY: 300000 1.7188 0.9923 2.5950 0.0000 -10597.1554 1382.9685 0.0000 0.0000 1829.4331 -7379.4477 314.3632 -9208.8808 -7419.5098 307.7742 -226.5843 -227.7390 30074.7249 -210.9841 -137.7180
ENERGY: 600000 2.7012 2.1451 5.1947 0.0000 -10552.2394 1455.3856 0.0000 0.0000 1763.1425 -7323.6703 302.9721 -9086.8128 -7408.8503 303.4391 467.2017 549.7042 29750.7775 9.3531 68.0750
ENERGY: 900000 1.8095 2.8678 2.0900 0.0000 -10530.1352 1391.2644 0.0000 0.0000 1707.3426 -7424.7609 293.3836 -9132.1035 -7411.7105 301.5890 -344.2525 -296.3545 30246.5330 -92.2233 -37.9937
ENERGY: 1200000 2.1058 1.6383 2.4439 0.0000 -10741.0768 1477.6206 0.0000 0.0000 1709.3115 -7547.9567 293.7219 -9257.2682 -7437.6722 299.7918 266.3128 257.5098 29864.6440 -67.2892 -13.1593
ENERGY: 1500000 0.8886 4.2630 4.5788 0.0000 -10653.7786 1461.0944 0.0000 0.0000 1739.1429 -7443.8108 298.8481 -9182.9537 -7427.7654 300.7374 246.8610 365.9393 29830.6727 2.2167 65.2466
TCL: Running FEP window  14: Lambda1 0.34999999999999964 Lambda2 0.29999999999999966 [dLambda -0.04999999999999999]
TCL: Setting parameter firsttimestep to 0
TCL: Setting parameter alchLambda to 0.34999999999999964
Info: NONBONDED TABLE R-SQUARED SPACING: 0.0625
Info: NONBONDED TABLE SIZE: 705 POINTS
TCL: Setting parameter alchLambda2 to 0.29999999999999966
Info: NONBONDED TABLE R-SQUARED SPACING: 0.0625
Info: NONBONDED TABLE SIZE: 705 POINTS
TCL: Running for 1500000 steps
ETITLE: TS BOND ANGLE DIHED IMPRP ELECT VDW BOUNDARY MISC KINETIC TOTAL TEMP POTENTIAL TOTALAVG TEMPAVG PRESSURE GPRESSURE VOLUME PRESSAVG GPRESSAVG
ENERGY: 0 0.8886 4.2630 4.5788 0.0000 -10653.7767 1460.3216 0.0000 0.0000 1738.2083 -7445.5164 298.6874 -9183.7246 -7445.5164 298.6874 274.4989 356.0451 29830.6727 274.4989 356.0451
ENERGY: 300000 1.4650 2.0093 3.5743 0.0000 -10612.9505 1470.1415 0.0000 0.0000 1775.3782 -7360.3822 305.0746 -9135.7605 -7380.0334 302.9894 321.3748 457.2620 30122.9007 27.5947 107.8911
ENERGY: 600000 1.4975 1.6143 2.0487 0.0000 -10606.1174 1456.2206 0.0000 0.0000 1797.3479 -7347.3884 308.8498 -9144.7363 -7362.6359 305.6738 492.3452 519.4732 30049.3753 -60.5640 11.2712
ENERGY: 900000 4.4260 4.0523 3.4174 0.0000 -10616.3345 1434.2068 0.0000 0.0000 1779.4301 -7390.8019 305.7709 -9170.2319 -7386.2111 303.7947 -134.3808 -70.1951 29931.1629 -47.3078 21.7497
ENERGY: 1200000 1.6134 1.4955 3.3463 0.0000 -10563.9710 1446.8548 0.0000 0.0000 1748.1472 -7362.5139 300.3953 -9110.6610 -7397.7083 303.0644 116.3300 113.0293 30336.7649 36.5562 98.9570
ENERGY: 1500000 2.8966 3.3415 2.2992 0.0000 -10549.9631 1351.0725 0.0000 0.0000 1780.8275 -7409.5257 306.0110 -9190.3533 -7401.9450 302.5921 -822.8176 -812.3568 30330.4520 -20.2391 39.7171
TCL: Running FEP window  15: Lambda1 0.29999999999999966 Lambda2 0.24999999999999967 [dLambda -0.04999999999999999]
TCL: Setting parameter firsttimestep to 0
TCL: Setting parameter alchLambda to 0.29999999999999966
Info: NONBONDED TABLE R-SQUARED SPACING: 0.0625
Info: NONBONDED TABLE SIZE: 705 POINTS
TCL: Setting parameter alchLambda2 to 0.24999999999999967
Info: NONBONDED TABLE R-SQUARED SPACING: 0.0625
Info: NONBONDED TABLE SIZE: 705 POINTS
TCL: Running for 1500000 steps
ETITLE: TS BOND ANGLE DIHED IMPRP ELECT VDW BOUNDARY MISC KINETIC TOTAL TEMP POTENTIAL TOTALAVG TEMPAVG PRESSURE GPRESSURE VOLUME PRESSAVG GPRESSAVG
ENERGY: 0 2.8966 3.3415 2.2992 0.0000 -10549.9638 1351.1339 0.0000 0.0000 1779.9562 -7410.3365 305.8613 -9190.2926 -7410.3365 305.8613 -896.9855 -817.8946 30330.4520 -896.9855 -817.8946
ENERGY: 300000 0.2378 2.0798 4.1693 0.0000 -10653.9137 1413.1394 0.0000 0.0000 1735.8085 -7498.4790 298.2751 -9234.2875 -7444.9347 300.8767 -537.3692 -449.4725 30282.2006 -263.9273 -188.7370
ENERGY: 600000 3.0915 2.7103 2.8566 0.0000 -10591.2648 1442.9525 0.0000 0.0000 1726.2025 -7413.4514 296.6244 -9139.6539 -7438.3756 299.3127 223.7415 257.4846 29927.0691 -123.0212 -62.3796
ENERGY: 900000 3.1100 2.6943 2.3576 0.0000 -10522.2935 1376.2415 0.0000 0.0000 1788.6172 -7349.2729 307.3495 -9137.8901 -7425.3438 300.3970 -711.2088 -644.6130 30487.7649 -108.8996 -42.9203
ENERGY: 1200000 1.4862 2.6491 3.1156 0.0000 -10537.9776 1392.3060 0.0000 0.0000 1701.0755 -7437.3451 292.3067 -9138.4207 -7413.7582 299.6944 -432.3341 -388.6504 30224.4824 -106.1862 -40.2028
ENERGY: 1500000 3.1643 5.8023 0.9955 0.0000 -10472.2007 1424.7579 0.0000 0.0000 1784.9231 -7252.5576 306.7148 -9037.4807 -7402.9539 300.6224 115.6390 207.3838 30599.1516 -70.3769 -2.1863
TCL: Running FEP window  16: Lambda1 0.24999999999999967 Lambda2 0.19999999999999968 [dLambda -0.04999999999999999]
TCL: Setting parameter firsttimestep to 0
TCL: Setting parameter alchLambda to 0.24999999999999967
Info: NONBONDED TABLE R-SQUARED SPACING: 0.0625
Info: NONBONDED TABLE SIZE: 705 POINTS
TCL: Setting parameter alchLambda2 to 0.19999999999999968
Info: NONBONDED TABLE R-SQUARED SPACING: 0.0625
Info: NONBONDED TABLE SIZE: 705 POINTS
TCL: Running for 1500000 steps
ETITLE: TS BOND ANGLE DIHED IMPRP ELECT VDW BOUNDARY MISC KINETIC TOTAL TEMP POTENTIAL TOTALAVG TEMPAVG PRESSURE GPRESSURE VOLUME PRESSAVG GPRESSAVG
ENERGY: 0 3.1643 5.8023 0.9955 0.0000 -10472.2037 1425.1186 0.0000 0.0000 1784.0822 -7253.0407 306.5703 -9037.1230 -7253.0407 306.5703 112.7024 207.7736 30599.1516 112.7024 207.7736
ENERGY: 300000 5.2907 4.6006 4.7285 0.0000 -10512.1818 1427.3816 0.0000 0.0000 1719.4356 -7350.7448 295.4616 -9070.1804 -7359.9968 300.3724 149.5868 246.2484 30083.6294 -245.1180 -171.5659
ENERGY: 600000 1.6205 2.0730 2.0210 0.0000 -10627.8905 1492.1825 0.0000 0.0000 1797.2822 -7332.7114 308.8385 -9129.9935 -7373.7089 302.8038 943.7805 1032.1714 29518.1123 45.7183 132.3774
ENERGY: 900000 1.7586 2.9220 1.9911 0.0000 -10582.7462 1440.4081 0.0000 0.0000 1703.9490 -7431.7174 292.8005 -9135.6664 -7389.3616 301.2123 391.1420 394.4256 29625.3706 7.7457 86.2379
ENERGY: 1200000 1.5140 3.0050 1.4514 0.0000 -10506.1217 1400.3522 0.0000 0.0000 1716.8968 -7382.9023 295.0254 -9099.7990 -7390.3453 300.4253 -10.8583 29.8180 30010.8750 -43.4673 33.9274
ENERGY: 1500000 4.0784 1.3130 1.9663 0.0000 -10581.8610 1360.5262 0.0000 0.0000 1776.8138 -7437.1634 305.3213 -9213.9771 -7395.1068 301.0139 -977.3481 -945.5399 30245.8647 -127.7296 -54.9172
TCL: Running FEP window  17: Lambda1 0.19999999999999968 Lambda2 0.1499999999999997 [dLambda -0.04999999999999999]
TCL: Setting parameter firsttimestep to 0
TCL: Setting parameter alchLambda to 0.19999999999999968
Info: NONBONDED TABLE R-SQUARED SPACING: 0.0625
Info: NONBONDED TABLE SIZE: 705 POINTS
TCL: Setting parameter alchLambda2 to 0.1499999999999997
Info: NONBONDED TABLE R-SQUARED SPACING: 0.0625
Info: NONBONDED TABLE SIZE: 705 POINTS
TCL: Running for 1500000 steps
ETITLE: TS BOND ANGLE DIHED IMPRP ELECT VDW BOUNDARY MISC KINETIC TOTAL TEMP POTENTIAL TOTALAVG TEMPAVG PRESSURE GPRESSURE VOLUME PRESSAVG GPRESSAVG
ENERGY: 0 4.0784 1.3130 1.9663 0.0000 -10581.8605 1360.7864 0.0000 0.0000 1775.9623 -7437.7541 305.1750 -9213.7164 -7437.7541 305.1750 -1030.6302 -946.5869 30245.8647 -1030.6302 -946.5869
ENERGY: 300000 2.3798 3.5107 2.3065 0.0000 -10586.3538 1463.3997 0.0000 0.0000 1728.8990 -7385.8581 297.0878 -9114.7571 -7411.6497 302.9300 179.7669 231.7008 30341.8747 -28.4039 37.4878
ENERGY: 600000 1.1058 2.0695 4.1964 0.0000 -10661.3695 1423.4291 0.0000 0.0000 1705.6220 -7524.9468 293.0879 -9230.5688 -7444.1041 299.5648 -10.2251 62.6311 29619.6177 -110.4132 -38.2900
ENERGY: 900000 1.2892 4.4841 4.7850 0.0000 -10584.9394 1465.7483 0.0000 0.0000 1774.9170 -7333.7158 304.9953 -9108.6328 -7404.5414 300.8498 665.4333 671.1178 29849.2403 -31.6949 28.4872
ENERGY: 1200000 2.1229 3.3298 5.9033 0.0000 -10772.0342 1590.3815 0.0000 0.0000 1778.0793 -7392.2173 305.5387 -9170.2967 -7411.7441 300.7679 1378.0715 1449.6089 30014.8102 114.9255 176.0668
ENERGY: 1500000 3.4667 1.4037 1.8651 0.0000 -10555.9799 1406.7026 0.0000 0.0000 1754.7212 -7387.8207 301.5250 -9142.5418 -7413.3348 300.6969 -343.8741 -235.2292 30323.0128 113.5560 176.5328
TCL: Running FEP window  18: Lambda1 0.1499999999999997 Lambda2 0.09999999999999969 [dLambda -0.05 ]
TCL: Setting parameter firsttimestep to 0
TCL: Setting parameter alchLambda to 0.1499999999999997
Info: NONBONDED TABLE R-SQUARED SPACING: 0.0625
Info: NONBONDED TABLE SIZE: 705 POINTS
TCL: Setting parameter alchLambda2 to 0.09999999999999969
Info: NONBONDED TABLE R-SQUARED SPACING: 0.0625
Info: NONBONDED TABLE SIZE: 705 POINTS
TCL: Running for 1500000 steps
ETITLE: TS BOND ANGLE DIHED IMPRP ELECT VDW BOUNDARY MISC KINETIC TOTAL TEMP POTENTIAL TOTALAVG TEMPAVG PRESSURE GPRESSURE VOLUME PRESSAVG GPRESSAVG
ENERGY: 0 3.4667 1.4037 1.8651 0.0000 -10555.9803 1407.1863 0.0000 0.0000 1753.8538 -7388.2047 301.3759 -9142.0585 -7388.2047 301.3759 -318.5416 -237.0269 30323.0128 -318.5416 -237.0269
ENERGY: 300000 1.9931 2.5616 1.6913 0.0000 -10675.4533 1528.4475 0.0000 0.0000 1743.3260 -7397.4337 299.5669 -9140.7597 -7376.4013 302.3378 1081.5785 1093.5783 29807.2891 80.0700 115.8321
ENERGY: 600000 1.3529 2.8496 2.7974 0.0000 -10611.6659 1451.8751 0.0000 0.0000 1745.7708 -7407.0202 299.9870 -9152.7910 -7403.9381 302.3186 195.3508 312.4316 29874.2027 11.2346 78.4813
ENERGY: 900000 2.9817 5.9041 2.8047 0.0000 -10666.8600 1440.3696 0.0000 0.0000 1739.6077 -7475.1922 298.9279 -9214.7999 -7418.0724 301.3848 -24.4970 22.5366 30010.2133 -6.0457 52.7679
ENERGY: 1200000 2.7858 2.8876 6.4276 0.0000 -10647.3926 1485.1707 0.0000 0.0000 1754.6059 -7395.5151 301.5051 -9150.1209 -7413.3127 301.3797 315.5224 447.7008 30254.8187 -103.8676 -38.4560
ENERGY: 1500000 2.0161 4.0027 2.2644 0.0000 -10711.0310 1472.6842 0.0000 0.0000 1724.3075 -7505.7562 296.2988 -9230.0636 -7417.1117 301.0774 279.1174 303.2337 29702.8164 -78.6350 -20.5341
TCL: Running FEP window  19: Lambda1 0.09999999999999969 Lambda2 0.049999999999999684 [dLambda -0.05 ]
TCL: Setting parameter firsttimestep to 0
TCL: Setting parameter alchLambda to 0.09999999999999969
Info: NONBONDED TABLE R-SQUARED SPACING: 0.0625
Info: NONBONDED TABLE SIZE: 705 POINTS
TCL: Setting parameter alchLambda2 to 0.049999999999999684
Info: NONBONDED TABLE R-SQUARED SPACING: 0.0625
Info: NONBONDED TABLE SIZE: 705 POINTS
TCL: Running for 1500000 steps
ETITLE: TS BOND ANGLE DIHED IMPRP ELECT VDW BOUNDARY MISC KINETIC TOTAL TEMP POTENTIAL TOTALAVG TEMPAVG PRESSURE GPRESSURE VOLUME PRESSAVG GPRESSAVG
ENERGY: 0 2.0161 4.0027 2.2644 0.0000 -10711.0333 1473.1829 0.0000 0.0000 1723.4204 -7506.1468 296.1463 -9229.5672 -7506.1468 296.1463 236.2523 303.4336 29702.8164 236.2523 303.4336
ENERGY: 300000 1.1783 0.3940 1.0048 0.0000 -10733.4754 1491.9715 0.0000 0.0000 1720.5435 -7518.3833 295.6520 -9238.9267 -7455.6415 297.9453 261.7450 286.7022 29734.7598 6.7809 52.8092
ENERGY: 600000 0.7309 2.5920 3.1038 0.0000 -10663.3566 1482.7864 0.0000 0.0000 1743.1426 -7431.0010 299.5353 -9174.1436 -7428.0996 299.9078 713.1314 773.2026 29442.9479 -22.1395 22.9985
ENERGY: 900000 1.6238 2.3958 4.1452 0.0000 -10488.4164 1361.1070 0.0000 0.0000 1789.6919 -7329.4526 307.5342 -9119.1445 -7425.2793 300.0143 -320.7212 -304.2924 29921.2690 -163.0384 -121.0299
ENERGY: 1200000 3.4880 1.5326 1.0293 0.0000 -10699.3723 1462.1172 0.0000 0.0000 1770.1973 -7461.0078 304.1843 -9231.2051 -7419.4736 300.3678 188.0839 304.5833 29683.3456 -92.2715 -37.3644
ENERGY: 1500000 0.7863 1.5872 2.6450 0.0000 -10443.0613 1314.0984 0.0000 0.0000 1753.1794 -7370.7650 301.2600 -9123.9444 -7416.3687 301.2159 -697.9702 -636.1673 29923.6764 -132.8724 -77.7820
TCL: Running FEP window  20: Lambda1 0.049999999999999684 Lambda2 0.0    [dLambda -0.049999999999999684]
TCL: Setting parameter firsttimestep to 0
TCL: Setting parameter alchLambda to 0.049999999999999684
Info: NONBONDED TABLE R-SQUARED SPACING: 0.0625
Info: NONBONDED TABLE SIZE: 705 POINTS
TCL: Setting parameter alchLambda2 to 0.0
Info: NONBONDED TABLE R-SQUARED SPACING: 0.0625
Info: NONBONDED TABLE SIZE: 705 POINTS
TCL: Running for 1500000 steps
ETITLE: TS BOND ANGLE DIHED IMPRP ELECT VDW BOUNDARY MISC KINETIC TOTAL TEMP POTENTIAL TOTALAVG TEMPAVG PRESSURE GPRESSURE VOLUME PRESSAVG GPRESSAVG
ENERGY: 0 0.7864 1.5872 2.6450 0.0000 -10443.0614 1314.2623 0.0000 0.0000 1752.3285 -7371.4520 301.1138 -9123.7805 -7371.4520 301.1138 -737.3897 -639.3967 29923.6764 -737.3897 -639.3967
ENERGY: 300000 2.7168 1.6825 1.8647 0.0000 -10719.7645 1528.2450 0.0000 0.0000 1746.4498 -7438.8057 300.1036 -9185.2555 -7424.2678 302.7532 1114.2909 1119.4793 29268.1450 1.3516 62.4749
ENERGY: 600000 2.9851 2.8789 2.7722 0.0000 -10569.8175 1358.9388 0.0000 0.0000 1764.8246 -7437.4179 303.2611 -9202.2425 -7419.0805 302.8507 -706.8665 -646.5319 30000.4528 -246.6534 -178.0013
ENERGY: 900000 0.8325 4.2895 3.3203 0.0000 -10472.0463 1303.3119 0.0000 0.0000 1757.7202 -7402.5718 302.0403 -9160.2920 -7430.0806 300.7495 -1107.9675 -1025.2299 30041.5012 -391.5310 -314.3864
ENERGY: 1200000 2.5539 3.2167 2.9285 0.0000 -10536.7625 1451.0817 0.0000 0.0000 1794.3362 -7282.6456 308.3323 -9076.9818 -7412.9452 303.1477 480.2580 571.7319 30021.3167 -205.1568 -122.9340
ENERGY: 1500000 3.1091 6.1654 1.5301 0.0000 -10451.1021 1331.5271 0.0000 0.0000 1741.4443 -7367.3261 299.2435 -9108.7704 -7407.8202 303.1231 -723.2790 -637.0341 30131.8889 -207.2586 -126.8407
TCL: Exiting due to exit command.
