Info: SIMULATION PARAMETERS:
Info: TIMESTEP               2
Info: NUMBER OF STEPS        0
Info: STEPS PER CYCLE        10
Info: PERIODIC CELL BASIS 1  30.9513 0 0
Info: PERIODIC CELL BASIS 2  0 30.1675 0
Info: PERIODIC CELL BASIS 3  0 0 32.0244
Info: PERIODIC CELL CENTER   0 0 0
Info: WRAPPING WATERS AROUND PERIODIC BOUNDARIES ON OUTPUT.
Info: WRAPPING ALL CLUSTERS AROUND PERIODIC BOUNDARIES ON OUTPUT.
Info: FIRST LDB TIMESTEP     50
Info: LAST LDB TIMESTEP     -1
Info: HOM BACKGROUND SCALING 1
Info: PME BACKGROUND SCALING 1
Info: MIN ATOMS PER PATCH    40
Info: EMPTY PATCH LOAD       40 ATOMS
Info: VELOCITY FILE          mobley_2789243_equil.vel
Info: CENTER OF MASS MOVING INITIALLY? NO
Info: DIELECTRIC             1
Info: EXCLUDE                SCALED ONE-FOUR
Info: 1-4 ELECTROSTATICS SCALED BY 0.833333
Info: MODIFIED 1-4 VDW PARAMETERS WILL BE USED
Info: DCD FILENAME           mobley_2789243_prod.dcd
Info: DCD FREQUENCY          100000
Info: DCD FIRST STEP         100000
Info: DCD FILE WILL CONTAIN UNIT CELL DATA
Info: XST FILENAME           mobley_2789243_prod.xst
Info: XST FREQUENCY          100000
Info: NO VELOCITY DCD OUTPUT
Info: NO FORCE DCD OUTPUT
Info: OUTPUT FILENAME        mobley_2789243_prod
Info: BINARY OUTPUT FILES WILL BE USED
Info: RESTART FILENAME       mobley_2789243_prod.restart
Info: RESTART FREQUENCY      100000
Info: BINARY RESTART FILES WILL BE USED
Info: CUTOFF                 9
Info: PAIRLIST DISTANCE      11
Info: PAIRLIST SHRINK RATE   0.01
Info: PAIRLIST GROW RATE     0.01
Info: PAIRLIST TRIGGER       0.3
Info: PAIRLISTS PER CYCLE    2
Info: PAIRLISTS ENABLED
Info: MARGIN                 2
Info: HYDROGEN GROUP CUTOFF  2.5
Info: PATCH DIMENSION        15.5
Info: ENERGY OUTPUT STEPS    100000
Info: ENERGY EVALUATION STEPS    100000
Info: OUTPUT ENERGY PRECISION 4
Info: CROSSTERM ENERGY INCLUDED IN DIHEDRAL
Info: TIMING OUTPUT STEPS    1000000
Info: PRESSURE OUTPUT STEPS  100000
Info: ALCHEMICAL FEP ON
Info: FEP CURRENT LAMBDA VALUE     1
Info: FEP COMPARISON LAMBDA VALUE  0.95
Info: FEP INTRA-ALCHEMICAL NON-BONDED INTERACTIONS WILL BE RETAINED
Info: FEP INTRA-ALCHEMICAL BONDED INTERACTIONS WILL BE RETAINED
Info: FEP VDW SHIFTING COEFFICIENT 5
Info: FEP ELEC. ACTIVE FOR ANNIHILATED PARTICLES BETWEEN LAMBDA = 0 AND LAMBDA = 0.5
Info: FEP ELEC. ACTIVE FOR EXNIHILATED PARTICLES BETWEEN LAMBDA = 0.5 AND LAMBDA = 1
Info: FEP VDW ACTIVE FOR ANNIHILATED PARTICLES BETWEEN LAMBDA = 0 AND LAMBDA = 1
Info: FEP VDW ACTIVE FOR EXNIHILATED PARTICLES BETWEEN LAMBDA = 0 AND LAMBDA = 1
Info: FEP BOND ACTIVE FOR ANNIHILATED PARTICLES BETWEEN LAMBDA = 1 AND LAMBDA = 1
Info: FEP BOND ACTIVE FOR EXNIHILATED PARTICLES BETWEEN LAMBDA = 0 AND LAMBDA = 0
Info: LANGEVIN DYNAMICS ACTIVE
Info: LANGEVIN TEMPERATURE   300
Info: LANGEVIN USING BBK INTEGRATOR
Info: LANGEVIN DAMPING COEFFICIENT IS 1 INVERSE PS
Info: LANGEVIN DYNAMICS APPLIED TO HYDROGENS
Info: LANGEVIN PISTON PRESSURE CONTROL ACTIVE
Info:        TARGET PRESSURE IS 1.01325 BAR
Info:     OSCILLATION PERIOD IS 50 FS
Info:             DECAY TIME IS 25 FS
Info:     PISTON TEMPERATURE IS 300 K
Info:       PRESSURE CONTROL IS GROUP-BASED
Info:    INITIAL STRAIN RATE IS -0.00032779 -0.00032779 -0.00032779
Info:       CELL FLUCTUATION IS ISOTROPIC
Info: PARTICLE MESH EWALD (PME) ACTIVE
Info: PME TOLERANCE               1e-06
Info: PME EWALD COEFFICIENT       0.348832
Info: PME INTERPOLATION ORDER     4
Info: PME GRID DIMENSIONS         32 32 36
Info: PME MAXIMUM GRID SPACING    1
Info: PME CALCULATION WILL BE PERFORMED ON GPU
Info: FULL ELECTROSTATIC EVALUATION FREQUENCY      2
Info: USING VERLET I (r-RESPA) MTS SCHEME.
Info: C1 SPLITTING OF LONG RANGE ELECTROSTATICS
Info: PLACING ATOMS IN PATCHES BY HYDROGEN GROUPS
Info: RIGID BONDS TO HYDROGEN : ALL
Info:         ERROR TOLERANCE : 1e-08
Info:          MAX ITERATIONS : 100
Info: RIGID WATER USING SETTLE ALGORITHM
Info: RANDOM NUMBER SEED     1743526660
Info: USE HYDROGEN BONDS?    NO
Info: Using AMBER format force field!
Info: AMBER PARM FILE        mobley_2789243.prmtop
Info: COORDINATE PDB         mobley_2789243.pdb
Info: Exclusions will be read from PARM file!
Info: SCNB (VDW SCALING)     2
Info: USING ARITHMETIC MEAN TO COMBINE L-J SIGMA PARAMETERS
Info: BINARY COORDINATES     mobley_2789243_equil.coor
Info: SUMMARY OF PARAMETERS:
Info: 7 BONDS
Info: 7 ANGLES
Info:   7 HARMONIC
Info:   0 COSINE-BASED
Info: 3 DIHEDRAL
Info: 0 IMPROPER
Info: 0 CROSSTERM
Info: 0 VDW
Info: 28 VDW_PAIRS
Info: 0 NBTHOLE_PAIRS
Info: To read alchdata from file: mobley_2789243.pdb
Info: To read alchflag data from column: 5
Info: STRUCTURE SUMMARY:
Info: 2915 ATOMS
Info: 2915 BONDS
Info: 16 ANGLES
Info: 25 DIHEDRALS
Info: 0 IMPROPERS
Info: 0 CROSSTERMS
Info: 2948 EXCLUSIONS
Info: 2908 RIGID BONDS
Info: ALCH: 0 ATOMS TO DISAPPEAR IN FINAL STATE
Info: ALCH: 11 ATOMS TO APPEAR IN FINAL STATE
Info: 5837 DEGREES OF FREEDOM
Info: 975 HYDROGEN GROUPS
Info: 3 ATOMS IN LARGEST HYDROGEN GROUP
Info: 975 MIGRATION GROUPS
Info: 3 ATOMS IN LARGEST MIGRATION GROUP
Info: TOTAL MASS = 17553 amu
Info: TOTAL CHARGE = 0.000200003 e
Info: MASS DENSITY = 0.974795 g/cm^3
Info: ATOM DENSITY = 0.0974856 atoms/A^3
Info: ADDED 0 IMPLICIT EXCLUSIONS
Info: NONBONDED TABLE R-SQUARED SPACING: 0.0625
Info: NONBONDED TABLE SIZE: 705 POINTS
Info: REMOVING COM VELOCITY -0.270834 0.0949287 -0.16175
Info: Use 3D box decompostion in PME FFT.
Info: Updated CUDA force table with 4096 elements.
Info: Updated CUDA LJ table with 7 x 7 elements.
Info: Found 14 unique exclusion lists needing 24 bytes
TCL: Running for 1500000 steps
ETITLE: TS BOND ANGLE DIHED IMPRP ELECT VDW BOUNDARY MISC KINETIC TOTAL TEMP POTENTIAL TOTALAVG TEMPAVG PRESSURE GPRESSURE VOLUME PRESSAVG GPRESSAVG
ENERGY: 0 2.1675 2.4038 2.0462 0.0000 -10544.3222 1338.3513 0.0000 0.0000 1757.6383 -7441.7152 303.0611 -9199.3534 -7441.7152 303.0611 -725.5604 -641.1867 29901.8431 -725.5604 -641.1867
ENERGY: 300000 4.1933 3.6194 4.9763 0.0000 -10541.0019 1417.2219 0.0000 0.0000 1723.1673 -7387.8237 297.1174 -9110.9910 -7419.4991 297.8430 68.7724 164.0193 29990.0817 -544.3493 -467.0349
ENERGY: 600000 4.5962 3.0795 1.7165 0.0000 -10656.5122 1429.0315 0.0000 0.0000 1750.6342 -7467.4542 301.8534 -9218.0885 -7408.8356 299.4600 -40.8041 21.4991 29955.6380 -414.9565 -343.2064
ENERGY: 900000 2.6717 4.3106 2.1927 0.0000 -10568.5530 1371.9369 0.0000 0.0000 1654.9900 -7532.4511 285.3619 -9187.4411 -7406.2636 300.1793 -550.8699 -463.5918 29945.7444 -384.8730 -310.4046
ENERGY: 1200000 3.6637 5.3606 3.8526 0.0000 -10490.1827 1345.9035 0.0000 0.0000 1711.5580 -7419.8444 295.1157 -9131.4024 -7406.5740 300.6950 -729.5265 -681.0346 30011.3481 -348.9189 -286.0115
ENERGY: 1500000 2.0140 1.9232 0.7939 0.0000 -10440.9363 1289.1352 0.0000 0.0000 1734.1798 -7412.8901 299.0163 -9147.0699 -7408.4973 300.8574 -1087.7966 -1090.0747 30169.9555 -361.3776 -298.9422
TCL: Running FEP window   2: Lambda1 0.95   Lambda2 0.8999999999999999 [dLambda -0.050000000000000044]
TCL: Setting parameter firsttimestep to 0
TCL: Setting parameter alchLambda to 0.95
Info: NONBONDED TABLE R-SQUARED SPACING: 0.0625
Info: NONBONDED TABLE SIZE: 705 POINTS
TCL: Setting parameter alchLambda2 to 0.8999999999999999
Info: NONBONDED TABLE R-SQUARED SPACING: 0.0625
Info: NONBONDED TABLE SIZE: 705 POINTS
TCL: Running for 1500000 steps
ETITLE: TS BOND ANGLE DIHED IMPRP ELECT VDW BOUNDARY MISC KINETIC TOTAL TEMP POTENTIAL TOTALAVG TEMPAVG PRESSURE GPRESSURE VOLUME PRESSAVG GPRESSAVG
ENERGY: 0 2.0140 1.9232 0.7939 0.0000 -10439.7721 1289.2693 0.0000 0.0000 1733.3106 -7412.4611 298.8664 -9145.7717 -7412.4611 298.8664 -1165.1661 -1095.0864 30169.9555 -1165.1661 -1095.0864
ENERGY: 300000 1.3530 1.3562 1.5515 0.0000 -10632.8651 1497.2955 0.0000 0.0000 1729.7553 -7401.5535 298.2534 -9131.3089 -7416.0518 296.8857 626.3261 632.9252 30424.7788 68.5219 140.1705
ENERGY: 600000 2.0783 3.9618 2.9692 0.0000 -10531.2181 1370.5186 0.0000 0.0000 1701.0381 -7450.6520 293.3018 -9151.6902 -7419.3565 296.4577 -437.9452 -371.1446 30160.9941 -105.6100 -33.5717
ENERGY: 900000 1.6064 2.4530 1.2417 0.0000 -10659.1798 1430.7682 0.0000 0.0000 1758.7797 -7464.3307 303.2579 -9223.1104 -7410.0227 297.8233 26.0861 126.6437 29768.8260 -39.0513 37.3226
ENERGY: 1200000 3.8217 3.1639 1.1764 0.0000 -10688.6637 1497.5952 0.0000 0.0000 1722.9059 -7460.0006 297.0724 -9182.9065 -7413.5981 297.9053 341.5462 391.0068 29987.2897 -51.2833 23.6162
ENERGY: 1500000 2.6307 2.0057 3.5207 0.0000 -10604.4417 1452.3804 0.0000 0.0000 1722.4096 -7421.4947 296.9868 -9143.9043 -7413.0295 298.8225 142.7866 252.9447 30223.6958 -10.0771 61.0919
TCL: Running FEP window   3: Lambda1 0.8999999999999999 Lambda2 0.8499999999999999 [dLambda -0.050000000000000044]
TCL: Setting parameter firsttimestep to 0
TCL: Setting parameter alchLambda to 0.8999999999999999
Info: NONBONDED TABLE R-SQUARED SPACING: 0.0625
Info: NONBONDED TABLE SIZE: 705 POINTS
TCL: Setting parameter alchLambda2 to 0.8499999999999999
Info: NONBONDED TABLE R-SQUARED SPACING: 0.0625
Info: NONBONDED TABLE SIZE: 705 POINTS
TCL: Running for 1500000 steps
ETITLE: TS BOND ANGLE DIHED IMPRP ELECT VDW BOUNDARY MISC KINETIC TOTAL TEMP POTENTIAL TOTALAVG TEMPAVG PRESSURE GPRESSURE VOLUME PRESSAVG GPRESSAVG
ENERGY: 0 2.6307 2.0057 3.5207 0.0000 -10603.5874 1452.5792 0.0000 0.0000 1721.5413 -7421.3099 296.8371 -9142.8512 -7421.3099 296.8371 134.9787 242.1528 30223.6958 134.9787 242.1528
ENERGY: 300000 1.9679 1.6602 3.1834 0.0000 -10360.3934 1298.2841 0.0000 0.0000 1781.8778 -7273.4200 307.2406 -9055.2978 -7360.1930 300.2189 -357.6307 -365.4496 29689.1448 -100.4766 -40.6867
ENERGY: 600000 3.5217 1.6486 1.6524 0.0000 -10661.5008 1508.7828 0.0000 0.0000 1797.1687 -7348.7265 309.8771 -9145.8953 -7383.4409 301.3252 763.3585 824.4053 30156.1334 -15.8274 50.2868
ENERGY: 900000 1.1699 3.0371 1.7114 0.0000 -10762.8776 1544.1480 0.0000 0.0000 1703.9669 -7508.8444 293.8068 -9212.8113 -7398.3894 300.1430 886.0617 944.8165 29725.3614 18.3903 91.8437
ENERGY: 1200000 3.1033 1.7874 5.3584 0.0000 -10685.4356 1468.9104 0.0000 0.0000 1740.0887 -7466.1874 300.0351 -9206.2761 -7412.2111 299.3349 13.9439 111.2604 29997.9594 11.2859 77.0905
ENERGY: 1500000 1.5781 0.8220 5.0536 0.0000 -10590.8397 1436.4722 0.0000 0.0000 1747.5512 -7399.3626 301.3218 -9146.9138 -7409.4326 298.7926 278.0342 282.2425 29985.1994 -21.3309 44.1110
TCL: Running FEP window   4: Lambda1 0.8499999999999999 Lambda2 0.7999999999999998 [dLambda -0.050000000000000044]
TCL: Setting parameter firsttimestep to 0
TCL: Setting parameter alchLambda to 0.8499999999999999
Info: NONBONDED TABLE R-SQUARED SPACING: 0.0625
Info: NONBONDED TABLE SIZE: 705 POINTS
TCL: Setting parameter alchLambda2 to 0.7999999999999998
Info: NONBONDED TABLE R-SQUARED SPACING: 0.0625
Info: NONBONDED TABLE SIZE: 705 POINTS
TCL: Running for 1500000 steps
ETITLE: TS BOND ANGLE DIHED IMPRP ELECT VDW BOUNDARY MISC KINETIC TOTAL TEMP POTENTIAL TOTALAVG TEMPAVG PRESSURE GPRESSURE VOLUME PRESSAVG GPRESSAVG
ENERGY: 0 1.5781 0.8220 5.0536 0.0000 -10589.7556 1436.7081 0.0000 0.0000 1746.6961 -7398.8977 301.1744 -9145.5938 -7398.8977 301.1744 201.0689 275.8679 29985.1994 201.0689 275.8679
ENERGY: 300000 4.2683 3.5663 3.8463 0.0000 -10506.4107 1377.0897 0.0000 0.0000 1753.4152 -7364.2250 302.3329 -9117.6402 -7421.6932 299.3448 -201.0410 -171.9654 29744.1546 -179.4946 -143.8876
ENERGY: 600000 1.0556 1.7132 1.2168 0.0000 -10484.4053 1340.5646 0.0000 0.0000 1686.1743 -7453.6809 290.7389 -9139.8552 -7414.1881 298.6700 -450.7793 -408.6288 29701.7781 -209.4906 -167.5054
ENERGY: 900000 1.7988 3.2302 4.7787 0.0000 -10617.7313 1459.2008 0.0000 0.0000 1784.7507 -7363.9721 307.7360 -9148.7228 -7392.9416 300.6673 119.8644 112.9282 30364.1998 -55.8882 -13.4815
ENERGY: 1200000 1.6177 3.3708 3.3555 0.0000 -10607.4800 1467.1816 0.0000 0.0000 1783.5545 -7348.3999 307.5297 -9131.9544 -7396.3184 301.8749 439.9288 519.4228 29885.9881 58.1369 108.7843
ENERGY: 1500000 7.0448 4.4118 4.1589 0.0000 -10517.3143 1426.0489 0.0000 0.0000 1700.0431 -7375.6067 293.1302 -9075.6499 -7397.4057 301.3262 -102.5632 1.6194 30372.8203 67.5364 124.9679
TCL: Running FEP window   5: Lambda1 0.7999999999999998 Lambda2 0.7499999999999998 [dLambda -0.050000000000000044]
TCL: Setting parameter firsttimestep to 0
TCL: Setting parameter alchLambda to 0.7999999999999998
Info: NONBONDED TABLE R-SQUARED SPACING: 0.0625
Info: NONBONDED TABLE SIZE: 705 POINTS
TCL: Setting parameter alchLambda2 to 0.7499999999999998
Info: NONBONDED TABLE R-SQUARED SPACING: 0.0625
Info: NONBONDED TABLE SIZE: 705 POINTS
TCL: Running for 1500000 steps
ETITLE: TS BOND ANGLE DIHED IMPRP ELECT VDW BOUNDARY MISC KINETIC TOTAL TEMP POTENTIAL TOTALAVG TEMPAVG PRESSURE GPRESSURE VOLUME PRESSAVG GPRESSAVG
ENERGY: 0 7.0448 4.4118 4.1589 0.0000 -10515.8770 1425.6388 0.0000 0.0000 1699.1728 -7375.4499 292.9802 -9074.6227 -7375.4499 292.9802 -90.0611 -7.4211 30372.8203 -90.0611 -7.4211
ENERGY: 300000 2.9560 3.5807 1.6279 0.0000 -10478.5017 1334.5571 0.0000 0.0000 1677.0936 -7458.6864 289.1732 -9135.7799 -7420.3517 293.5724 -525.3239 -499.3255 29934.6273 113.0396 169.5897
ENERGY: 600000 1.3149 1.4267 2.5018 0.0000 -10469.8115 1372.3494 0.0000 0.0000 1748.3838 -7343.8350 301.4654 -9092.2188 -7417.6012 295.5382 -458.5081 -374.1013 30248.1234 32.2345 76.5473
ENERGY: 900000 1.6353 3.7276 1.9273 0.0000 -10575.9942 1475.8854 0.0000 0.0000 1696.4990 -7396.3196 292.5191 -9092.8186 -7412.2765 296.9556 511.6516 513.5999 29966.3358 244.0483 291.2616
ENERGY: 1200000 2.2512 0.3463 2.0145 0.0000 -10654.2642 1415.2086 0.0000 0.0000 1668.1273 -7566.3163 287.6271 -9234.4436 -7437.5347 295.9329 -339.6026 -258.7550 29663.6989 64.9702 111.2468
ENERGY: 1500000 1.5695 2.9581 2.0138 0.0000 -10729.9586 1520.9373 0.0000 0.0000 1690.0973 -7512.3826 291.4153 -9202.4799 -7433.9141 296.5784 552.4939 616.8583 29677.1690 164.5695 216.9881
TCL: Running FEP window   6: Lambda1 0.7499999999999998 Lambda2 0.6999999999999997 [dLambda -0.050000000000000044]
TCL: Setting parameter firsttimestep to 0
TCL: Setting parameter alchLambda to 0.7499999999999998
Info: NONBONDED TABLE R-SQUARED SPACING: 0.0625
Info: NONBONDED TABLE SIZE: 705 POINTS
TCL: Setting parameter alchLambda2 to 0.6999999999999997
Info: NONBONDED TABLE R-SQUARED SPACING: 0.0625
Info: NONBONDED TABLE SIZE: 705 POINTS
TCL: Running for 1500000 steps
ETITLE: TS BOND ANGLE DIHED IMPRP ELECT VDW BOUNDARY MISC KINETIC TOTAL TEMP POTENTIAL TOTALAVG TEMPAVG PRESSURE GPRESSURE VOLUME PRESSAVG GPRESSAVG
ENERGY: 0 1.5695 2.9581 2.0138 0.0000 -10729.6914 1521.1405 0.0000 0.0000 1689.2187 -7512.7909 291.2638 -9202.0096 -7512.7909 291.2638 524.4144 609.9906 29677.1690 524.4144 609.9906
ENERGY: 300000 4.7134 3.5834 1.7417 0.0000 -10541.4242 1434.2621 0.0000 0.0000 1724.0644 -7373.0590 297.2721 -9097.1234 -7414.7874 297.3742 15.0991 31.4837 30109.7298 271.3117 322.9419
ENERGY: 600000 1.9967 2.0890 4.1062 0.0000 -10756.3500 1514.0472 0.0000 0.0000 1702.1424 -7531.9684 293.4922 -9234.1108 -7428.2926 300.1447 390.0900 417.9551 29806.2038 237.0351 283.0972
ENERGY: 900000 2.2146 1.9319 3.1534 0.0000 -10505.0269 1427.8309 0.0000 0.0000 1790.3286 -7279.5674 308.6977 -9069.8960 -7423.6147 300.1104 294.8962 398.2227 29749.1092 129.9351 190.4626
ENERGY: 1200000 2.3056 1.6221 0.8520 0.0000 -10557.2317 1419.3849 0.0000 0.0000 1774.0537 -7359.0134 305.8915 -9133.0671 -7409.3365 300.7004 -125.0858 -144.8298 30211.7612 27.3328 83.1597
ENERGY: 1500000 1.8785 2.6358 4.9989 0.0000 -10519.1282 1408.3360 0.0000 0.0000 1677.8845 -7423.3945 289.3095 -9101.2790 -7408.0519 299.7705 164.8075 269.5985 29685.7060 4.1212 63.6289
TCL: Running FEP window   7: Lambda1 0.6999999999999997 Lambda2 0.6499999999999997 [dLambda -0.050000000000000044]
TCL: Setting parameter firsttimestep to 0
TCL: Setting parameter alchLambda to 0.6999999999999997
Info: NONBONDED TABLE R-SQUARED SPACING: 0.0625
Info: NONBONDED TABLE SIZE: 705 POINTS
TCL: Setting parameter alchLambda2 to 0.6499999999999997
Info: NONBONDED TABLE R-SQUARED SPACING: 0.0625
Info: NONBONDED TABLE SIZE: 705 POINTS
TCL: Running for 1500000 steps
ETITLE: TS BOND ANGLE DIHED IMPRP ELECT VDW BOUNDARY MISC KINETIC TOTAL TEMP POTENTIAL TOTALAVG TEMPAVG PRESSURE GPRESSURE VOLUME PRESSAVG GPRESSAVG
ENERGY: 0 1.8785 2.6358 4.9989 0.0000 -10518.6026 1408.3015 0.0000 0.0000 1677.0295 -7423.7583 289.1621 -9100.7879 -7423.7583 289.1621 170.0316 260.6188 29685.7060 170.0316 260.6188
ENERGY: 300000 1.3355 0.9726 0.9446 0.0000 -10254.4806 1249.7161 0.0000 0.0000 1740.2468 -7261.2649 300.0624 -9001.5117 -7389.6410 298.3520 -1334.8226 -1270.4318 31023.9702 -424.6160 -348.6179
ENERGY: 600000 2.2403 3.4670 2.1561 0.0000 -10638.7806 1428.8411 0.0000 0.0000 1725.6160 -7476.4601 297.5397 -9202.0762 -7395.2673 299.4031 0.3790 43.4289 29699.4870 -242.9143 -176.0236
ENERGY: 900000 1.5833 1.6636 1.5185 0.0000 -10600.4753 1430.7135 0.0000 0.0000 1713.7602 -7451.2364 295.4954 -9164.9965 -7418.3314 297.9398 -19.4673 24.8921 29911.8890 -168.8213 -109.2053
ENERGY: 1200000 1.3577 1.4639 2.3275 0.0000 -10632.5853 1470.3327 0.0000 0.0000 1730.6467 -7426.4568 298.4071 -9157.1035 -7409.9329 298.6727 550.4767 611.8377 29916.5215 -8.1710 53.0848
ENERGY: 1500000 3.7786 1.8106 2.4465 0.0000 -10651.1826 1449.2336 0.0000 0.0000 1751.1242 -7442.7891 301.9379 -9193.9133 -7400.9526 299.7828 -131.0887 -29.3774 30098.1352 -8.4182 54.4249
TCL: Running FEP window   8: Lambda1 0.6499999999999997 Lambda2 0.5999999999999996 [dLambda -0.050000000000000044]
TCL: Setting parameter firsttimestep to 0
TCL: Setting parameter alchLambda to 0.6499999999999997
Info: NONBONDED TABLE R-SQUARED SPACING: 0.0625
Info: NONBONDED TABLE SIZE: 705 POINTS
TCL: Setting parameter alchLambda2 to 0.5999999999999996
Info: NONBONDED TABLE R-SQUARED SPACING: 0.0625
Info: NONBONDED TABLE SIZE: 705 POINTS
TCL: Running for 1500000 steps
ETITLE: TS BOND ANGLE DIHED IMPRP ELECT VDW BOUNDARY MISC KINETIC TOTAL TEMP POTENTIAL TOTALAVG TEMPAVG PRESSURE GPRESSURE VOLUME PRESSAVG GPRESSAVG
ENERGY: 0 3.7786 1.8106 2.4465 0.0000 -10651.1215 1448.9186 0.0000 0.0000 1750.2651 -7443.9022 301.7898 -9194.1672 -7443.9022 301.7898 -131.4787 -39.8914 30098.1352 -131.4787 -39.8914
ENERGY: 300000 3.3868 2.0673 0.5257 0.0000 -10544.4362 1396.5657 0.0000 0.0000 1782.1989 -7359.6918 307.2960 -9141.8907 -7431.0959 302.6420 -71.7663 67.0508 29581.0379 -190.7331 -112.6444
ENERGY: 600000 1.4333 1.8684 2.8770 0.0000 -10619.7526 1457.2619 0.0000 0.0000 1781.4443 -7374.8677 307.1659 -9156.3120 -7415.5804 300.8289 557.2126 561.1888 29504.0860 20.2539 88.6275
ENERGY: 900000 1.8290 3.2878 2.2117 0.0000 -10502.3895 1389.9581 0.0000 0.0000 1776.7022 -7328.4007 306.3482 -9105.1029 -7407.0185 301.5809 -102.7632 -54.1522 30118.2068 -52.6049 2.9646
ENERGY: 1200000 3.3827 2.7216 1.1409 0.0000 -10719.6275 1495.0225 0.0000 0.0000 1782.6377 -7434.7221 307.3716 -9217.3598 -7417.0259 301.4451 560.1657 651.3511 29720.3485 -82.7897 -22.2487
ENERGY: 1500000 2.5776 3.9436 1.0478 0.0000 -10446.4806 1309.2612 0.0000 0.0000 1718.7450 -7410.9054 296.3549 -9129.6504 -7419.6405 300.1274 -1109.6039 -1035.1575 30310.2219 -151.1385 -90.5145
TCL: Running FEP window   9: Lambda1 0.5999999999999996 Lambda2 0.5499999999999996 [dLambda -0.050000000000000044]
TCL: Setting parameter firsttimestep to 0
TCL: Setting parameter alchLambda to 0.5999999999999996
Info: NONBONDED TABLE R-SQUARED SPACING: 0.0625
Info: NONBONDED TABLE SIZE: 705 POINTS
TCL: Setting parameter alchLambda2 to 0.5499999999999996
Info: NONBONDED TABLE R-SQUARED SPACING: 0.0625
Info: NONBONDED TABLE SIZE: 705 POINTS
TCL: Running for 1500000 steps
ETITLE: TS BOND ANGLE DIHED IMPRP ELECT VDW BOUNDARY MISC KINETIC TOTAL TEMP POTENTIAL TOTALAVG TEMPAVG PRESSURE GPRESSURE VOLUME PRESSAVG GPRESSAVG
ENERGY: 0 2.5776 3.9436 1.0478 0.0000 -10446.0533 1309.5445 0.0000 0.0000 1717.8708 -7411.0689 296.2042 -9128.9397 -7411.0689 296.2042 -1095.1907 -1036.6350 30310.2219 -1095.1907 -1036.6350
ENERGY: 300000 2.3822 3.2167 3.6864 0.0000 -10622.7178 1496.4508 0.0000 0.0000 1786.7310 -7330.2508 308.0774 -9116.9817 -7384.4899 299.9592 681.7139 734.2338 30013.8648 -271.3090 -211.3884
ENERGY: 600000 5.0317 3.7888 3.9355 0.0000 -10412.0717 1303.9366 0.0000 0.0000 1757.1670 -7338.2121 302.9798 -9095.3791 -7385.5395 299.4305 -1015.3807 -952.0751 30473.0528 -325.2792 -265.5277
ENERGY: 900000 2.5494 2.0116 2.1258 0.0000 -10588.8434 1467.7092 0.0000 0.0000 1715.2325 -7399.2149 295.7493 -9114.4475 -7374.4838 300.6829 320.7720 389.8314 30271.6165 -259.2096 -193.5706
ENERGY: 1200000 4.9872 4.7877 1.5974 0.0000 -10443.1333 1314.8397 0.0000 0.0000 1793.9872 -7322.9341 309.3286 -9116.9213 -7385.6486 300.3107 -775.4361 -789.2090 30155.7843 -226.9996 -170.0128
ENERGY: 1500000 2.1091 3.1808 1.4776 0.0000 -10487.2346 1381.6338 0.0000 0.0000 1722.1131 -7376.7202 296.9357 -9098.8333 -7382.5440 299.7705 -182.7107 -154.4745 29697.6527 -235.0743 -186.2517
TCL: Running FEP window  10: Lambda1 0.5499999999999996 Lambda2 0.4999999999999996 [dLambda -0.04999999999999999]
TCL: Setting parameter firsttimestep to 0
TCL: Setting parameter alchLambda to 0.5499999999999996
Info: NONBONDED TABLE R-SQUARED SPACING: 0.0625
Info: NONBONDED TABLE SIZE: 705 POINTS
TCL: Setting parameter alchLambda2 to 0.4999999999999996
Info: NONBONDED TABLE R-SQUARED SPACING: 0.0625
Info: NONBONDED TABLE SIZE: 705 POINTS
TCL: Running for 1500000 steps
ETITLE: TS BOND ANGLE DIHED IMPRP ELECT VDW BOUNDARY MISC KINETIC TOTAL TEMP POTENTIAL TOTALAVG TEMPAVG PRESSURE GPRESSURE VOLUME PRESSAVG GPRESSAVG
ENERGY: 0 2.1091 3.1808 1.4776 0.0000 -10486.9549 1381.9046 0.0000 0.0000 1721.2509 -7377.0320 296.7870 -9098.2829 -7377.0320 296.7870 -229.6460 -155.9179 29697.6527 -229.6460 -155.9179
ENERGY: 300000 1.5253 1.5879 2.0490 0.0000 -10486.7357 1384.8647 0.0000 0.0000 1679.4277 -7417.2811 289.5756 -9096.7088 -7391.0654 295.2669 -233.2484 -211.6465 30195.3545 -125.1408 -62.5735
ENERGY: 600000 1.6861 1.4223 1.5592 0.0000 -10445.7863 1432.8792 0.0000 0.0000 1755.7380 -7252.5015 302.7334 -9008.2396 -7377.0256 297.7939 102.3496 207.9668 30642.7273 -179.0248 -113.1161
ENERGY: 900000 1.1652 1.7469 1.7788 0.0000 -10569.4388 1469.3319 0.0000 0.0000 1792.0340 -7303.3820 308.9918 -9095.4160 -7363.1396 299.2388 509.6260 563.3589 29876.1011 -149.7916 -95.6977
ENERGY: 1200000 2.1379 3.2836 4.7027 0.0000 -10554.4859 1371.8193 0.0000 0.0000 1778.3485 -7394.1941 306.6321 -9172.5425 -7367.9890 300.5285 -524.4496 -486.9073 29971.1049 -181.0857 -127.0115
ENERGY: 1500000 2.9208 1.5835 2.5975 0.0000 -10673.2168 1448.4721 0.0000 0.0000 1732.4705 -7485.1724 298.7215 -9217.6428 -7380.7796 300.0795 90.4321 190.0371 29680.3759 -171.6248 -114.1340
TCL: Running FEP window  11: Lambda1 0.4999999999999996 Lambda2 0.4499999999999996 [dLambda -0.04999999999999999]
TCL: Setting parameter firsttimestep to 0
TCL: Setting parameter alchLambda to 0.4999999999999996
Info: NONBONDED TABLE R-SQUARED SPACING: 0.0625
Info: NONBONDED TABLE SIZE: 705 POINTS
TCL: Setting parameter alchLambda2 to 0.4499999999999996
Info: NONBONDED TABLE R-SQUARED SPACING: 0.0625
Info: NONBONDED TABLE SIZE: 705 POINTS
TCL: Running for 1500000 steps
ETITLE: TS BOND ANGLE DIHED IMPRP ELECT VDW BOUNDARY MISC KINETIC TOTAL TEMP POTENTIAL TOTALAVG TEMPAVG PRESSURE GPRESSURE VOLUME PRESSAVG GPRESSAVG
ENERGY: 0 2.9208 1.5835 2.5975 0.0000 -10672.8866 1448.7752 0.0000 0.0000 1731.6548 -7485.3547 298.5809 -9217.0095 -7485.3547 298.5809 96.3599 187.0245 29680.3759 96.3599 187.0245
ENERGY: 300000 2.5595 2.4725 2.4618 0.0000 -10664.7519 1445.2964 0.0000 0.0000 1670.5823 -7541.3795 288.0505 -9211.9618 -7459.7619 297.5737 73.3582 146.8178 29617.0162 110.4339 173.4018
ENERGY: 600000 2.1140 2.1142 1.4855 0.0000 -10556.1935 1354.4048 0.0000 0.0000 1758.2066 -7437.8684 303.1591 -9196.0750 -7440.9051 299.7344 -666.4593 -509.6891 29778.6265 -6.9457 57.9372
ENERGY: 900000 1.5353 1.3606 2.3857 0.0000 -10423.2690 1350.0103 0.0000 0.0000 1747.8747 -7320.1024 301.3776 -9067.9771 -7422.7289 299.0119 -455.1740 -353.1330 30025.1176 142.7398 206.7537
ENERGY: 1200000 0.7949 1.9200 2.5313 0.0000 -10483.6102 1354.7083 0.0000 0.0000 1749.3874 -7374.2683 301.6384 -9123.6557 -7418.0255 299.4439 -553.3075 -512.0055 30300.9884 -11.3131 46.7793
ENERGY: 1500000 0.9930 2.9179 5.7321 0.0000 -10544.8362 1368.0205 0.0000 0.0000 1740.3697 -7426.8031 300.0836 -9167.1728 -7417.2838 299.3641 -562.4650 -503.0663 30062.3644 14.0583 72.1483
TCL: Running FEP window  12: Lambda1 0.4499999999999996 Lambda2 0.39999999999999963 [dLambda -0.04999999999999999]
TCL: Setting parameter firsttimestep to 0
TCL: Setting parameter alchLambda to 0.4499999999999996
Info: NONBONDED TABLE R-SQUARED SPACING: 0.0625
Info: NONBONDED TABLE SIZE: 705 POINTS
TCL: Setting parameter alchLambda2 to 0.39999999999999963
Info: NONBONDED TABLE R-SQUARED SPACING: 0.0625
Info: NONBONDED TABLE SIZE: 705 POINTS
TCL: Running for 1500000 steps
ETITLE: TS BOND ANGLE DIHED IMPRP ELECT VDW BOUNDARY MISC KINETIC TOTAL TEMP POTENTIAL TOTALAVG TEMPAVG PRESSURE GPRESSURE VOLUME PRESSAVG GPRESSAVG
ENERGY: 0 0.9930 2.9179 5.7321 0.0000 -10544.8361 1368.2611 0.0000 0.0000 1739.5238 -7427.4083 299.9377 -9166.9321 -7427.4083 299.9377 -591.8595 -507.3248 30062.3644 -591.8595 -507.3248
ENERGY: 300000 4.0615 1.8292 2.4741 0.0000 -10374.3203 1348.4592 0.0000 0.0000 1768.7738 -7248.7224 304.9811 -9017.4963 -7376.6893 299.7895 -441.4251 -312.1545 30272.5469 -247.6489 -148.8133
ENERGY: 600000 0.8028 1.7799 1.7304 0.0000 -10650.1758 1484.3837 0.0000 0.0000 1781.5244 -7379.9546 307.1797 -9161.4789 -7375.2591 301.3154 430.2093 540.3450 30177.3680 -276.7981 -173.1239
ENERGY: 900000 2.9353 2.9887 2.2527 0.0000 -10538.1703 1359.3038 0.0000 0.0000 1767.0408 -7403.6490 304.6823 -9170.6898 -7385.7943 303.2595 -1034.5457 -995.7315 30656.4502 -335.0111 -241.2827
ENERGY: 1200000 2.7934 7.1930 1.8454 0.0000 -10505.0223 1453.9617 0.0000 0.0000 1772.6860 -7266.5428 305.6557 -9039.2287 -7383.0775 303.1128 116.0983 167.2602 30564.6733 -294.2009 -200.7546
ENERGY: 1500000 1.6405 4.6099 2.9121 0.0000 -10530.6506 1351.9339 0.0000 0.0000 1694.8203 -7474.7339 292.2297 -9169.5542 -7394.8719 301.7712 -890.3217 -854.6564 30418.6005 -337.3184 -251.4115
TCL: Running FEP window  13: Lambda1 0.39999999999999963 Lambda2 0.34999999999999964 [dLambda -0.04999999999999999]
TCL: Setting parameter firsttimestep to 0
TCL: Setting parameter alchLambda to 0.39999999999999963
Info: NONBONDED TABLE R-SQUARED SPACING: 0.0625
Info: NONBONDED TABLE SIZE: 705 POINTS
TCL: Setting parameter alchLambda2 to 0.34999999999999964
Info: NONBONDED TABLE R-SQUARED SPACING: 0.0625
Info: NONBONDED TABLE SIZE: 705 POINTS
TCL: Running for 1500000 steps
ETITLE: TS BOND ANGLE DIHED IMPRP ELECT VDW BOUNDARY MISC KINETIC TOTAL TEMP POTENTIAL TOTALAVG TEMPAVG PRESSURE GPRESSURE VOLUME PRESSAVG GPRESSAVG
ENERGY: 0 1.6405 4.6099 2.9121 0.0000 -10530.6493 1350.7009 0.0000 0.0000 1693.9223 -7476.8635 292.0749 -9170.7858 -7476.8635 292.0749 -953.3426 -868.7299 30418.6005 -953.3426 -868.7299
ENERGY: 300000 0.8512 1.8748 1.8277 0.0000 -10632.4401 1489.3269 0.0000 0.0000 1719.5500 -7419.0095 296.4937 -9138.5595 -7451.7453 297.5401 591.1409 584.9195 29750.8359 -262.3175 -180.6466
ENERGY: 600000 1.9251 2.4311 1.6148 0.0000 -10608.9168 1459.5184 0.0000 0.0000 1758.8377 -7384.5897 303.2679 -9143.4274 -7391.7443 300.9692 308.9847 411.2606 29784.0845 -170.3077 -76.5997
ENERGY: 900000 1.7254 3.7986 0.5113 0.0000 -10507.4257 1377.9136 0.0000 0.0000 1716.8971 -7406.5797 296.0363 -9123.4768 -7387.5843 300.7933 -330.0015 -268.8696 29920.8945 -156.3687 -73.2084
ENERGY: 1200000 1.2674 1.6976 1.8832 0.0000 -10557.8905 1431.8473 0.0000 0.0000 1741.6801 -7379.5149 300.3095 -9121.1950 -7397.2531 300.4907 127.1709 157.8990 29893.1538 -128.5238 -48.1457
ENERGY: 1500000 1.7097 1.9555 2.9805 0.0000 -10513.3926 1424.9292 0.0000 0.0000 1742.9742 -7338.8435 300.5326 -9081.8177 -7393.4719 300.7974 55.1433 144.7995 29975.9174 -96.6707 -14.6940
TCL: Running FEP window  14: Lambda1 0.34999999999999964 Lambda2 0.29999999999999966 [dLambda -0.04999999999999999]
TCL: Setting parameter firsttimestep to 0
TCL: Setting parameter alchLambda to 0.34999999999999964
Info: NONBONDED TABLE R-SQUARED SPACING: 0.0625
Info: NONBONDED TABLE SIZE: 705 POINTS
TCL: Setting parameter alchLambda2 to 0.29999999999999966
Info: NONBONDED TABLE R-SQUARED SPACING: 0.0625
Info: NONBONDED TABLE SIZE: 705 POINTS
TCL: Running for 1500000 steps
ETITLE: TS BOND ANGLE DIHED IMPRP ELECT VDW BOUNDARY MISC KINETIC TOTAL TEMP POTENTIAL TOTALAVG TEMPAVG PRESSURE GPRESSURE VOLUME PRESSAVG GPRESSAVG
ENERGY: 0 1.7097 1.9555 2.9805 0.0000 -10513.3920 1424.8693 0.0000 0.0000 1742.1040 -7339.7730 300.3826 -9081.8770 -7339.7730 300.3826 44.5703 139.5408 29975.9174 44.5703 139.5408
ENERGY: 300000 2.0971 1.9113 0.7548 0.0000 -10735.3972 1538.3576 0.0000 0.0000 1702.5911 -7489.6852 293.5696 -9192.2764 -7429.6151 296.8077 740.4375 826.3382 29878.3552 318.2633 392.7958
ENERGY: 600000 1.8612 2.1838 2.4726 0.0000 -10579.6076 1383.1717 0.0000 0.0000 1719.1368 -7470.7814 296.4225 -9189.9181 -7441.6819 296.2314 -679.7706 -593.5621 30275.4346 26.2619 107.3298
ENERGY: 900000 2.2739 3.0035 3.5676 0.0000 -10482.2326 1339.0213 0.0000 0.0000 1774.8008 -7359.5655 306.0203 -9134.3663 -7431.6526 297.5158 -578.7811 -542.1346 29813.4489 -72.3529 -1.8804
ENERGY: 1200000 1.1561 1.2545 2.4666 0.0000 -10652.5839 1477.2609 0.0000 0.0000 1727.5351 -7442.9107 297.8706 -9170.4458 -7429.9304 297.8480 411.1852 486.1472 29753.2257 16.7440 92.6779
ENERGY: 1500000 2.2939 3.5306 4.3162 0.0000 -10478.8957 1367.7756 0.0000 0.0000 1733.9882 -7366.9913 298.9832 -9100.9795 -7422.7803 298.3789 -346.1569 -332.3594 29959.6909 58.1033 128.0839
TCL: Running FEP window  15: Lambda1 0.29999999999999966 Lambda2 0.24999999999999967 [dLambda -0.04999999999999999]
TCL: Setting parameter firsttimestep to 0
TCL: Setting parameter alchLambda to 0.29999999999999966
Info: NONBONDED TABLE R-SQUARED SPACING: 0.0625
Info: NONBONDED TABLE SIZE: 705 POINTS
TCL: Setting parameter alchLambda2 to 0.24999999999999967
Info: NONBONDED TABLE R-SQUARED SPACING: 0.0625
Info: NONBONDED TABLE SIZE: 705 POINTS
TCL: Running for 1500000 steps
ETITLE: TS BOND ANGLE DIHED IMPRP ELECT VDW BOUNDARY MISC KINETIC TOTAL TEMP POTENTIAL TOTALAVG TEMPAVG PRESSURE GPRESSURE VOLUME PRESSAVG GPRESSAVG
ENERGY: 0 2.2939 3.5306 4.3162 0.0000 -10478.8962 1367.5432 0.0000 0.0000 1733.1116 -7368.1007 298.8321 -9101.2123 -7368.1007 298.8321 -402.1692 -338.1994 29959.6909 -402.1692 -338.1994
ENERGY: 300000 3.9336 1.7914 3.1609 0.0000 -10735.8441 1485.1804 0.0000 0.0000 1714.9406 -7526.8373 295.6989 -9241.7778 -7421.0612 298.5104 70.3038 90.5492 29860.1651 -177.7345 -131.7797
ENERGY: 600000 3.4636 1.5603 1.4629 0.0000 -10513.5380 1392.0065 0.0000 0.0000 1734.8215 -7380.2232 299.1269 -9115.0447 -7435.7232 298.0029 -128.8526 -85.1051 29868.8657 -148.6118 -101.9986
ENERGY: 900000 1.0746 3.5919 3.0275 0.0000 -10653.1051 1429.4927 0.0000 0.0000 1768.4930 -7447.4254 304.9327 -9215.9184 -7432.1555 298.8860 -201.7947 -74.6178 29817.6740 -142.7951 -81.7232
ENERGY: 1200000 1.7248 1.7779 2.8884 0.0000 -10421.3544 1347.6089 0.0000 0.0000 1775.3388 -7292.0156 306.1131 -9067.3544 -7411.7922 300.1177 -517.0381 -415.1582 30363.3359 -145.8217 -81.1954
ENERGY: 1500000 3.8843 3.2056 0.8533 0.0000 -10613.0442 1488.1758 0.0000 0.0000 1755.7575 -7361.1677 302.7368 -9116.9252 -7411.1186 300.4901 332.9919 443.1078 30055.7961 -169.4515 -96.9117
TCL: Running FEP window  16: Lambda1 0.24999999999999967 Lambda2 0.19999999999999968 [dLambda -0.04999999999999999]
TCL: Setting parameter firsttimestep to 0
TCL: Setting parameter alchLambda to 0.24999999999999967
Info: NONBONDED TABLE R-SQUARED SPACING: 0.0625
Info: NONBONDED TABLE SIZE: 705 POINTS
TCL: Setting parameter alchLambda2 to 0.19999999999999968
Info: NONBONDED TABLE R-SQUARED SPACING: 0.0625
Info: NONBONDED TABLE SIZE: 705 POINTS
TCL: Running for 1500000 steps
ETITLE: TS BOND ANGLE DIHED IMPRP ELECT VDW BOUNDARY MISC KINETIC TOTAL TEMP POTENTIAL TOTALAVG TEMPAVG PRESSURE GPRESSURE VOLUME PRESSAVG GPRESSAVG
ENERGY: 0 3.8843 3.2056 0.8533 0.0000 -10613.0429 1488.6830 0.0000 0.0000 1754.8900 -7361.5268 302.5872 -9116.4168 -7361.5268 302.5872 368.8804 445.5302 30055.7961 368.8804 445.5302
ENERGY: 300000 1.8646 3.0069 2.3867 0.0000 -10700.3187 1539.8519 0.0000 0.0000 1726.5265 -7426.6820 297.6966 -9153.2085 -7404.2576 300.4631 881.5211 904.6463 29933.2049 73.2905 132.0710
ENERGY: 600000 2.4598 2.7659 1.0205 0.0000 -10555.5647 1417.9131 0.0000 0.0000 1705.8403 -7425.5651 294.1298 -9131.4054 -7411.2136 299.5015 -38.8516 99.9254 29949.8315 -15.8082 65.5709
ENERGY: 900000 2.7968 3.5910 2.2100 0.0000 -10587.3399 1416.4304 0.0000 0.0000 1717.3018 -7445.0099 296.1061 -9162.3117 -7427.1624 297.5748 -162.5823 -78.2129 29776.8243 32.8291 108.0235
ENERGY: 1200000 0.7719 1.9959 1.2993 0.0000 -10506.8932 1398.2264 0.0000 0.0000 1687.3791 -7417.2206 290.9466 -9104.5997 -7428.5792 296.9032 -555.0216 -463.4526 30669.9170 10.8384 82.0533
ENERGY: 1500000 2.3010 2.9526 1.4898 0.0000 -10592.2444 1361.6780 0.0000 0.0000 1758.0048 -7465.8182 303.1243 -9223.8231 -7423.4708 298.8680 -910.9184 -828.8423 30345.3090 -35.7106 30.5527
TCL: Running FEP window  17: Lambda1 0.19999999999999968 Lambda2 0.1499999999999997 [dLambda -0.04999999999999999]
TCL: Setting parameter firsttimestep to 0
TCL: Setting parameter alchLambda to 0.19999999999999968
Info: NONBONDED TABLE R-SQUARED SPACING: 0.0625
Info: NONBONDED TABLE SIZE: 705 POINTS
TCL: Setting parameter alchLambda2 to 0.1499999999999997
Info: NONBONDED TABLE R-SQUARED SPACING: 0.0625
Info: NONBONDED TABLE SIZE: 705 POINTS
TCL: Running for 1500000 steps
ETITLE: TS BOND ANGLE DIHED IMPRP ELECT VDW BOUNDARY MISC KINETIC TOTAL TEMP POTENTIAL TOTALAVG TEMPAVG PRESSURE GPRESSURE VOLUME PRESSAVG GPRESSAVG
ENERGY: 0 2.3010 2.9526 1.4898 0.0000 -10592.2447 1361.4630 0.0000 0.0000 1757.1201 -7466.9182 302.9718 -9224.0384 -7466.9182 302.9718 -916.6724 -834.5185 30345.3090 -916.6724 -834.5185
ENERGY: 300000 1.1583 2.8834 0.8820 0.0000 -10415.5736 1296.2479 0.0000 0.0000 1766.1357 -7348.2663 304.5263 -9114.4020 -7390.2131 299.8125 -1298.6760 -1275.1869 31138.6858 -502.0859 -450.5912
ENERGY: 600000 3.6018 3.9897 0.9611 0.0000 -10580.3077 1512.9046 0.0000 0.0000 1743.1637 -7315.6869 300.5653 -9058.8506 -7396.3940 297.4363 645.1660 697.2240 30128.9171 -115.9782 -64.1118
ENERGY: 900000 2.5763 3.3329 4.5793 0.0000 -10475.6928 1323.0245 0.0000 0.0000 1764.1785 -7378.0013 304.1888 -9142.1798 -7392.1050 298.1850 -799.5178 -709.5365 29818.5831 -188.6022 -133.4148
ENERGY: 1200000 2.2346 2.7816 2.5172 0.0000 -10641.3283 1433.4654 0.0000 0.0000 1717.0327 -7483.2967 296.0597 -9200.3295 -7402.5700 297.8518 -158.2853 -74.3263 29931.6064 -207.9705 -149.6765
ENERGY: 1500000 1.5173 1.6401 1.3746 0.0000 -10557.6132 1472.3123 0.0000 0.0000 1795.0340 -7285.7349 309.5091 -9080.7689 -7391.2581 298.6480 507.8316 509.6577 30266.1996 -198.7036 -145.3884
TCL: Running FEP window  18: Lambda1 0.1499999999999997 Lambda2 0.09999999999999969 [dLambda -0.05 ]
TCL: Setting parameter firsttimestep to 0
TCL: Setting parameter alchLambda to 0.1499999999999997
Info: NONBONDED TABLE R-SQUARED SPACING: 0.0625
Info: NONBONDED TABLE SIZE: 705 POINTS
TCL: Setting parameter alchLambda2 to 0.09999999999999969
Info: NONBONDED TABLE R-SQUARED SPACING: 0.0625
Info: NONBONDED TABLE SIZE: 705 POINTS
TCL: Running for 1500000 steps
ETITLE: TS BOND ANGLE DIHED IMPRP ELECT VDW BOUNDARY MISC KINETIC TOTAL TEMP POTENTIAL TOTALAVG TEMPAVG PRESSURE GPRESSURE VOLUME PRESSAVG GPRESSAVG
ENERGY: 0 1.5173 1.6401 1.3746 0.0000 -10557.6113 1472.4804 0.0000 0.0000 1794.1705 -7286.4285 309.3602 -9080.5990 -7286.4285 309.3602 417.0628 507.3788 30266.1996 417.0628 507.3788
ENERGY: 300000 1.7315 2.1242 1.2053 0.0000 -10563.5618 1409.8677 0.0000 0.0000 1748.6642 -7399.9689 301.5137 -9148.6331 -7377.1238 303.7900 210.8264 188.8459 29576.7797 165.1145 220.8878
ENERGY: 600000 1.0565 1.2927 4.3588 0.0000 -10641.3405 1449.5164 0.0000 0.0000 1721.0004 -7464.1157 296.7438 -9185.1161 -7373.6964 301.0039 -0.2915 73.8074 29971.7294 -117.1325 -61.5574
ENERGY: 900000 2.8189 1.9169 1.1688 0.0000 -10617.3191 1423.0152 0.0000 0.0000 1726.1629 -7462.2365 297.6339 -9188.3993 -7382.6940 298.7830 -336.4740 -228.3526 29698.3111 -144.7079 -75.6502
ENERGY: 1200000 0.8773 2.3723 2.8966 0.0000 -10499.4785 1402.3232 0.0000 0.0000 1747.7468 -7343.2623 301.3556 -9091.0091 -7390.2411 299.3676 -95.1844 -34.8482 30284.7562 -143.0897 -69.0178
ENERGY: 1500000 3.0938 1.2856 2.9928 0.0000 -10534.4586 1400.4188 0.0000 0.0000 1642.0834 -7484.5842 283.1365 -9126.6676 -7398.8455 298.8220 -351.7986 -320.6296 29776.9057 -142.7848 -78.4803
TCL: Running FEP window  19: Lambda1 0.09999999999999969 Lambda2 0.049999999999999684 [dLambda -0.05 ]
TCL: Setting parameter firsttimestep to 0
TCL: Setting parameter alchLambda to 0.09999999999999969
Info: NONBONDED TABLE R-SQUARED SPACING: 0.0625
Info: NONBONDED TABLE SIZE: 705 POINTS
TCL: Setting parameter alchLambda2 to 0.049999999999999684
Info: NONBONDED TABLE R-SQUARED SPACING: 0.0625
Info: NONBONDED TABLE SIZE: 705 POINTS
TCL: Running for 1500000 steps
ETITLE: TS BOND ANGLE DIHED IMPRP ELECT VDW BOUNDARY MISC KINETIC TOTAL TEMP POTENTIAL TOTALAVG TEMPAVG PRESSURE GPRESSURE VOLUME PRESSAVG GPRESSAVG
ENERGY: 0 3.0938 1.2856 2.9928 0.0000 -10534.4581 1400.6869 0.0000 0.0000 1641.2298 -7485.1692 282.9893 -9126.3991 -7485.1692 282.9893 -407.1693 -321.1528 29776.9057 -407.1693 -321.1528
ENERGY: 300000 1.5104 4.3941 2.1362 0.0000 -10566.2460 1380.7691 0.0000 0.0000 1704.0326 -7473.4036 293.8181 -9177.4362 -7434.5913 294.9091 -180.1735 -175.9049 29568.2374 -110.4003 -57.7864
ENERGY: 600000 3.4352 3.7148 3.4390 0.0000 -10628.0312 1414.1449 0.0000 0.0000 1678.7853 -7524.5120 289.4649 -9203.2972 -7437.5523 296.4840 -64.9034 -56.5321 29423.5427 -97.3335 -48.9927
ENERGY: 900000 1.5957 1.4454 3.3650 0.0000 -10460.0225 1329.0010 0.0000 0.0000 1718.4587 -7406.1566 296.3055 -9124.6153 -7425.1483 297.7501 -1049.9997 -1011.6360 30493.3049 -173.2766 -115.1761
ENERGY: 1200000 0.5198 2.2976 2.3370 0.0000 -10422.8761 1298.1359 0.0000 0.0000 1717.9143 -7401.6715 296.2117 -9119.5859 -7413.4119 297.8403 -905.4447 -863.2788 29968.1094 -188.8839 -129.2630
ENERGY: 1500000 3.9724 3.2973 1.2411 0.0000 -10663.7410 1418.4341 0.0000 0.0000 1771.3231 -7465.4730 305.4207 -9236.7961 -7410.6699 298.1191 -20.0284 49.9774 29620.2201 -173.9821 -114.2051
TCL: Running FEP window  20: Lambda1 0.049999999999999684 Lambda2 0.0    [dLambda -0.049999999999999684]
TCL: Setting parameter firsttimestep to 0
TCL: Setting parameter alchLambda to 0.049999999999999684
Info: NONBONDED TABLE R-SQUARED SPACING: 0.0625
Info: NONBONDED TABLE SIZE: 705 POINTS
TCL: Setting parameter alchLambda2 to 0.0
Info: NONBONDED TABLE R-SQUARED SPACING: 0.0625
Info: NONBONDED TABLE SIZE: 705 POINTS
TCL: Running for 1500000 steps
ETITLE: TS BOND ANGLE DIHED IMPRP ELECT VDW BOUNDARY MISC KINETIC TOTAL TEMP POTENTIAL TOTALAVG TEMPAVG PRESSURE GPRESSURE VOLUME PRESSAVG GPRESSAVG
ENERGY: 0 3.9724 3.2973 1.2411 0.0000 -10663.7428 1418.7903 0.0000 0.0000 1770.4687 -7465.9730 305.2734 -9236.4416 -7465.9730 305.2734 -46.2528 49.9124 29620.2201 -46.2528 49.9124
ENERGY: 300000 0.2443 2.9862 1.5582 0.0000 -10421.1248 1350.9242 0.0000 0.0000 1766.3557 -7299.0563 304.5642 -9065.4120 -7381.7289 303.0117 -509.9620 -405.2990 30152.4978 -17.0645 60.2341
ENERGY: 600000 3.4307 1.9197 2.6877 0.0000 -10648.4212 1476.8257 0.0000 0.0000 1778.3454 -7385.2120 306.6315 -9163.5574 -7386.0057 304.1732 292.1063 358.2109 29550.9473 73.1560 134.2621
ENERGY: 900000 1.8356 2.4222 1.0951 0.0000 -10374.1020 1309.6160 0.0000 0.0000 1763.7717 -7295.3614 304.1187 -9059.1331 -7383.8981 302.7394 -781.4315 -762.7088 30223.0318 -174.3456 -115.4005
ENERGY: 1200000 1.4345 4.3546 1.8404 0.0000 -10594.3927 1452.5888 0.0000 0.0000 1732.3223 -7401.8521 298.6960 -9134.1744 -7386.5643 301.0998 105.5864 135.0163 29854.5980 -154.6643 -99.5023
ENERGY: 1500000 3.1188 2.2475 1.0761 0.0000 -10598.3699 1395.6877 0.0000 0.0000 1752.9711 -7443.2688 302.2564 -9196.2399 -7396.2696 300.0156 -668.3333 -510.8966 30229.8108 -191.5979 -128.0511
TCL: Exiting due to exit command.
