Info: SIMULATION PARAMETERS:
Info: TIMESTEP               2
Info: NUMBER OF STEPS        0
Info: STEPS PER CYCLE        10
Info: PERIODIC CELL BASIS 1  32.8194 0 0
Info: PERIODIC CELL BASIS 2  0 33.4398 0
Info: PERIODIC CELL BASIS 3  0 0 27.7073
Info: PERIODIC CELL CENTER   0 0 0
Info: WRAPPING WATERS AROUND PERIODIC BOUNDARIES ON OUTPUT.
Info: WRAPPING ALL CLUSTERS AROUND PERIODIC BOUNDARIES ON OUTPUT.
Info: FIRST LDB TIMESTEP     50
Info: LAST LDB TIMESTEP     -1
Info: HOM BACKGROUND SCALING 1
Info: PME BACKGROUND SCALING 1
Info: MIN ATOMS PER PATCH    40
Info: EMPTY PATCH LOAD       40 ATOMS
Info: VELOCITY FILE          mobley_5371840_equil.vel
Info: CENTER OF MASS MOVING INITIALLY? NO
Info: DIELECTRIC             1
Info: EXCLUDE                SCALED ONE-FOUR
Info: 1-4 ELECTROSTATICS SCALED BY 0.833333
Info: MODIFIED 1-4 VDW PARAMETERS WILL BE USED
Info: DCD FILENAME           mobley_5371840_prod.dcd
Info: DCD FREQUENCY          100000
Info: DCD FIRST STEP         100000
Info: DCD FILE WILL CONTAIN UNIT CELL DATA
Info: XST FILENAME           mobley_5371840_prod.xst
Info: XST FREQUENCY          100000
Info: NO VELOCITY DCD OUTPUT
Info: NO FORCE DCD OUTPUT
Info: OUTPUT FILENAME        mobley_5371840_prod
Info: BINARY OUTPUT FILES WILL BE USED
Info: RESTART FILENAME       mobley_5371840_prod.restart
Info: RESTART FREQUENCY      100000
Info: BINARY RESTART FILES WILL BE USED
Info: CUTOFF                 9
Info: PAIRLIST DISTANCE      11
Info: PAIRLIST SHRINK RATE   0.01
Info: PAIRLIST GROW RATE     0.01
Info: PAIRLIST TRIGGER       0.3
Info: PAIRLISTS PER CYCLE    2
Info: PAIRLISTS ENABLED
Info: MARGIN                 2
Info: HYDROGEN GROUP CUTOFF  2.5
Info: PATCH DIMENSION        15.5
Info: ENERGY OUTPUT STEPS    100000
Info: ENERGY EVALUATION STEPS    100000
Info: OUTPUT ENERGY PRECISION 4
Info: CROSSTERM ENERGY INCLUDED IN DIHEDRAL
Info: TIMING OUTPUT STEPS    1000000
Info: PRESSURE OUTPUT STEPS  100000
Info: ALCHEMICAL FEP ON
Info: FEP CURRENT LAMBDA VALUE     1
Info: FEP COMPARISON LAMBDA VALUE  0.95
Info: FEP INTRA-ALCHEMICAL NON-BONDED INTERACTIONS WILL BE RETAINED
Info: FEP INTRA-ALCHEMICAL BONDED INTERACTIONS WILL BE RETAINED
Info: FEP VDW SHIFTING COEFFICIENT 5
Info: FEP ELEC. ACTIVE FOR ANNIHILATED PARTICLES BETWEEN LAMBDA = 0 AND LAMBDA = 0.5
Info: FEP ELEC. ACTIVE FOR EXNIHILATED PARTICLES BETWEEN LAMBDA = 0.5 AND LAMBDA = 1
Info: FEP VDW ACTIVE FOR ANNIHILATED PARTICLES BETWEEN LAMBDA = 0 AND LAMBDA = 1
Info: FEP VDW ACTIVE FOR EXNIHILATED PARTICLES BETWEEN LAMBDA = 0 AND LAMBDA = 1
Info: FEP BOND ACTIVE FOR ANNIHILATED PARTICLES BETWEEN LAMBDA = 1 AND LAMBDA = 1
Info: FEP BOND ACTIVE FOR EXNIHILATED PARTICLES BETWEEN LAMBDA = 0 AND LAMBDA = 0
Info: LANGEVIN DYNAMICS ACTIVE
Info: LANGEVIN TEMPERATURE   300
Info: LANGEVIN USING BBK INTEGRATOR
Info: LANGEVIN DAMPING COEFFICIENT IS 1 INVERSE PS
Info: LANGEVIN DYNAMICS APPLIED TO HYDROGENS
Info: LANGEVIN PISTON PRESSURE CONTROL ACTIVE
Info:        TARGET PRESSURE IS 1.01325 BAR
Info:     OSCILLATION PERIOD IS 50 FS
Info:             DECAY TIME IS 25 FS
Info:     PISTON TEMPERATURE IS 300 K
Info:       PRESSURE CONTROL IS GROUP-BASED
Info:    INITIAL STRAIN RATE IS -0.000592969 -0.000592969 -0.000592969
Info:       CELL FLUCTUATION IS ISOTROPIC
Info: PARTICLE MESH EWALD (PME) ACTIVE
Info: PME TOLERANCE               1e-06
Info: PME EWALD COEFFICIENT       0.348832
Info: PME INTERPOLATION ORDER     4
Info: PME GRID DIMENSIONS         36 36 28
Info: PME MAXIMUM GRID SPACING    1
Info: PME CALCULATION WILL BE PERFORMED ON GPU
Info: FULL ELECTROSTATIC EVALUATION FREQUENCY      2
Info: USING VERLET I (r-RESPA) MTS SCHEME.
Info: C1 SPLITTING OF LONG RANGE ELECTROSTATICS
Info: PLACING ATOMS IN PATCHES BY HYDROGEN GROUPS
Info: RIGID BONDS TO HYDROGEN : ALL
Info:         ERROR TOLERANCE : 1e-08
Info:          MAX ITERATIONS : 100
Info: RIGID WATER USING SETTLE ALGORITHM
Info: RANDOM NUMBER SEED     1744158012
Info: USE HYDROGEN BONDS?    NO
Info: Using AMBER format force field!
Info: AMBER PARM FILE        mobley_5371840.prmtop
Info: COORDINATE PDB         mobley_5371840.pdb
Info: Exclusions will be read from PARM file!
Info: SCNB (VDW SCALING)     2
Info: USING ARITHMETIC MEAN TO COMBINE L-J SIGMA PARAMETERS
Info: BINARY COORDINATES     mobley_5371840_equil.coor
Info: SUMMARY OF PARAMETERS:
Info: 6 BONDS
Info: 5 ANGLES
Info:   5 HARMONIC
Info:   0 COSINE-BASED
Info: 3 DIHEDRAL
Info: 0 IMPROPER
Info: 0 CROSSTERM
Info: 0 VDW
Info: 21 VDW_PAIRS
Info: 0 NBTHOLE_PAIRS
Info: To read alchdata from file: mobley_5371840.pdb
Info: To read alchflag data from column: 5
Info: STRUCTURE SUMMARY:
Info: 2977 ATOMS
Info: 2979 BONDS
Info: 38 ANGLES
Info: 68 DIHEDRALS
Info: 0 IMPROPERS
Info: 0 CROSSTERMS
Info: 3064 EXCLUSIONS
Info: 2962 RIGID BONDS
Info: ALCH: 0 ATOMS TO DISAPPEAR IN FINAL STATE
Info: ALCH: 22 ATOMS TO APPEAR IN FINAL STATE
Info: 5969 DEGREES OF FREEDOM
Info: 1000 HYDROGEN GROUPS
Info: 3 ATOMS IN LARGEST HYDROGEN GROUP
Info: 1000 MIGRATION GROUPS
Info: 3 ATOMS IN LARGEST MIGRATION GROUP
Info: TOTAL MASS = 17964.4 amu
Info: TOTAL CHARGE = -0.000200002 e
Info: MASS DENSITY = 0.981031 g/cm^3
Info: ATOM DENSITY = 0.0979016 atoms/A^3
Info: ADDED 0 IMPLICIT EXCLUSIONS
Info: NONBONDED TABLE R-SQUARED SPACING: 0.0625
Info: NONBONDED TABLE SIZE: 705 POINTS
Info: REDUCING NUMBER OF PATCHES TO IMPROVE LOAD BALANCE
Info: REMOVING COM VELOCITY -0.177757 0.0749879 0.0546275
Info: Use 3D box decompostion in PME FFT.
Info: Updated CUDA force table with 4096 elements.
Info: Updated CUDA LJ table with 6 x 6 elements.
Info: Found 23 unique exclusion lists needing 68 bytes
TCL: Running for 1500000 steps
ETITLE: TS BOND ANGLE DIHED IMPRP ELECT VDW BOUNDARY MISC KINETIC TOTAL TEMP POTENTIAL TOTALAVG TEMPAVG PRESSURE GPRESSURE VOLUME PRESSAVG GPRESSAVG
ENERGY: 0 5.9105 7.1813 4.4083 0.0000 -10749.7792 1446.7594 0.0000 0.0000 1819.9428 -7465.5768 306.8644 -9285.5196 -7465.5768 306.8644 139.0841 236.9166 30408.0837 139.0841 236.9166
ENERGY: 300000 8.9545 5.0520 4.7987 0.0000 -10651.9337 1420.2575 0.0000 0.0000 1767.7893 -7445.0817 298.0707 -9212.8710 -7470.0919 303.8237 -72.6553 16.9381 30777.7053 377.7658 443.6997
ENERGY: 600000 8.7060 7.7735 5.8415 0.0000 -10672.1682 1375.9744 0.0000 0.0000 1826.3193 -7447.5535 307.9396 -9273.8728 -7506.5018 301.3076 -442.8528 -355.7358 30685.6315 241.7630 305.0880
ENERGY: 900000 3.0815 8.1923 3.9241 0.0000 -10852.1057 1465.1363 0.0000 0.0000 1849.5915 -7522.1800 311.8635 -9371.7715 -7514.8330 302.0354 16.9622 89.8170 30516.6274 178.5297 237.9584
ENERGY: 1200000 3.2292 4.7073 7.5081 0.0000 -10679.3907 1408.1959 0.0000 0.0000 1775.9680 -7479.7823 299.4497 -9255.7503 -7517.2164 301.4816 -187.5669 -95.5603 30751.6579 130.7621 183.8879
ENERGY: 1500000 6.1500 5.8141 14.0928 0.0000 -10514.0064 1254.1966 0.0000 0.0000 1767.1591 -7466.5938 297.9644 -9233.7528 -7524.8459 300.5176 -1350.8177 -1319.1866 31031.9748 -6.3043 49.2439
TCL: Running FEP window   2: Lambda1 0.95   Lambda2 0.8999999999999999 [dLambda -0.050000000000000044]
TCL: Setting parameter firsttimestep to 0
TCL: Setting parameter alchLambda to 0.95
Info: NONBONDED TABLE R-SQUARED SPACING: 0.0625
Info: NONBONDED TABLE SIZE: 705 POINTS
TCL: Setting parameter alchLambda2 to 0.8999999999999999
Info: NONBONDED TABLE R-SQUARED SPACING: 0.0625
Info: NONBONDED TABLE SIZE: 705 POINTS
TCL: Running for 1500000 steps
ETITLE: TS BOND ANGLE DIHED IMPRP ELECT VDW BOUNDARY MISC KINETIC TOTAL TEMP POTENTIAL TOTALAVG TEMPAVG PRESSURE GPRESSURE VOLUME PRESSAVG GPRESSAVG
ENERGY: 0 6.1500 5.8141 14.0928 0.0000 -10512.6307 1254.1798 0.0000 0.0000 1766.3100 -7466.0839 297.8213 -9232.3939 -7466.0839 297.8213 -1406.4524 -1335.2658 31031.9748 -1406.4524 -1335.2658
ENERGY: 300000 6.4074 6.1894 5.5274 0.0000 -10695.1413 1374.9565 0.0000 0.0000 1723.8487 -7578.2120 290.6618 -9302.0607 -7539.6654 294.4225 -872.2287 -759.3447 31000.4497 -823.3435 -763.1385
ENERGY: 600000 7.3655 4.3367 4.0176 0.0000 -10903.5211 1501.2660 0.0000 0.0000 1744.9295 -7641.6057 294.2163 -9386.5353 -7540.0230 295.2497 345.0222 391.2403 30336.2678 -432.7783 -371.1392
ENERGY: 900000 3.5169 5.9891 2.9732 0.0000 -10785.6233 1511.4722 0.0000 0.0000 1729.5179 -7532.1541 291.6177 -9261.6719 -7538.9781 295.3855 744.6221 790.2822 30434.1202 -234.9688 -179.6912
ENERGY: 1200000 6.0130 4.2545 6.4035 0.0000 -10670.3118 1365.2394 0.0000 0.0000 1771.2028 -7517.1985 298.6463 -9288.4013 -7541.3274 295.6576 -479.8919 -491.4482 30543.4399 -200.6884 -153.5352
ENERGY: 1500000 4.6106 5.9735 15.8368 0.0000 -10541.3020 1346.3045 0.0000 0.0000 1792.6892 -7375.8875 302.2691 -9168.5767 -7528.3174 297.4310 -623.0862 -600.4106 30993.2101 -218.8409 -170.5559
TCL: Running FEP window   3: Lambda1 0.8999999999999999 Lambda2 0.8499999999999999 [dLambda -0.050000000000000044]
TCL: Setting parameter firsttimestep to 0
TCL: Setting parameter alchLambda to 0.8999999999999999
Info: NONBONDED TABLE R-SQUARED SPACING: 0.0625
Info: NONBONDED TABLE SIZE: 705 POINTS
TCL: Setting parameter alchLambda2 to 0.8499999999999999
Info: NONBONDED TABLE R-SQUARED SPACING: 0.0625
Info: NONBONDED TABLE SIZE: 705 POINTS
TCL: Running for 1500000 steps
ETITLE: TS BOND ANGLE DIHED IMPRP ELECT VDW BOUNDARY MISC KINETIC TOTAL TEMP POTENTIAL TOTALAVG TEMPAVG PRESSURE GPRESSURE VOLUME PRESSAVG GPRESSAVG
ENERGY: 0 4.6106 5.9735 15.8368 0.0000 -10540.4433 1345.9763 0.0000 0.0000 1791.7253 -7376.3208 302.1066 -9168.0461 -7376.3208 302.1066 -718.0394 -623.8577 30993.2101 -718.0394 -623.8577
ENERGY: 300000 8.3140 4.1923 6.0727 0.0000 -10675.7458 1383.2023 0.0000 0.0000 1745.0454 -7528.9190 294.2358 -9273.9644 -7456.2570 301.2863 -795.1218 -752.6112 31175.4447 -236.6076 -173.7268
ENERGY: 600000 5.4084 7.4917 5.2342 0.0000 -10592.7257 1340.3047 0.0000 0.0000 1787.3873 -7446.8995 301.3752 -9234.2868 -7461.1480 300.0555 -922.5110 -887.9728 31564.5351 -194.8190 -136.2690
ENERGY: 900000 8.8053 4.4120 5.2356 0.0000 -10726.5027 1398.4241 0.0000 0.0000 1809.4101 -7500.2157 305.0885 -9309.6257 -7494.5791 299.5284 -556.4044 -473.4351 30516.0879 -128.4120 -71.6079
ENERGY: 1200000 3.5270 3.9721 9.1459 0.0000 -10622.1052 1354.2521 0.0000 0.0000 1770.3629 -7480.8451 298.5046 -9251.2080 -7497.9738 299.2944 -868.7601 -754.3160 31069.5554 -190.1289 -130.5387
ENERGY: 1500000 5.5433 2.6312 6.2952 0.0000 -10700.5878 1417.7698 0.0000 0.0000 1708.7659 -7559.5825 288.1186 -9268.3484 -7504.7741 298.6991 -337.5171 -269.9099 30841.6006 -164.6433 -102.8024
TCL: Running FEP window   4: Lambda1 0.8499999999999999 Lambda2 0.7999999999999998 [dLambda -0.050000000000000044]
TCL: Setting parameter firsttimestep to 0
TCL: Setting parameter alchLambda to 0.8499999999999999
Info: NONBONDED TABLE R-SQUARED SPACING: 0.0625
Info: NONBONDED TABLE SIZE: 705 POINTS
TCL: Setting parameter alchLambda2 to 0.7999999999999998
Info: NONBONDED TABLE R-SQUARED SPACING: 0.0625
Info: NONBONDED TABLE SIZE: 705 POINTS
TCL: Running for 1500000 steps
ETITLE: TS BOND ANGLE DIHED IMPRP ELECT VDW BOUNDARY MISC KINETIC TOTAL TEMP POTENTIAL TOTALAVG TEMPAVG PRESSURE GPRESSURE VOLUME PRESSAVG GPRESSAVG
ENERGY: 0 5.5433 2.6312 6.2952 0.0000 -10699.9285 1418.9252 0.0000 0.0000 1707.9030 -7558.6306 287.9732 -9266.5337 -7558.6306 287.9732 -365.2097 -268.4468 30841.6006 -365.2097 -268.4468
ENERGY: 300000 6.9418 5.5080 5.8749 0.0000 -10686.4839 1404.1408 0.0000 0.0000 1801.4793 -7462.5391 303.7513 -9264.0185 -7477.4679 299.3344 -410.8815 -344.4954 31065.7761 -359.6851 -278.7270
ENERGY: 600000 5.5406 5.8773 3.5674 0.0000 -10880.5841 1504.8134 0.0000 0.0000 1692.5124 -7668.2730 285.3781 -9360.7854 -7508.0710 297.8866 231.6560 294.3205 30232.8786 -147.8413 -65.2343
ENERGY: 900000 7.1046 7.7309 4.8058 0.0000 -10731.7094 1410.9673 0.0000 0.0000 1807.6532 -7493.4476 304.7922 -9301.1008 -7516.8722 299.3100 -157.4375 -127.7467 30439.1361 -202.0816 -130.1601
ENERGY: 1200000 4.8760 4.0444 8.6022 0.0000 -10868.7240 1524.6109 0.0000 0.0000 1744.9918 -7581.5987 294.2268 -9326.5905 -7519.9533 299.0127 316.5527 386.6202 30836.9745 -141.3192 -75.0478
ENERGY: 1500000 8.7099 7.7757 6.9933 0.0000 -10801.0256 1413.3197 0.0000 0.0000 1805.4191 -7558.8079 304.4155 -9364.2270 -7519.8906 300.0677 -711.7196 -644.9246 31013.9408 -134.9014 -71.6505
TCL: Running FEP window   5: Lambda1 0.7999999999999998 Lambda2 0.7499999999999998 [dLambda -0.050000000000000044]
TCL: Setting parameter firsttimestep to 0
TCL: Setting parameter alchLambda to 0.7999999999999998
Info: NONBONDED TABLE R-SQUARED SPACING: 0.0625
Info: NONBONDED TABLE SIZE: 705 POINTS
TCL: Setting parameter alchLambda2 to 0.7499999999999998
Info: NONBONDED TABLE R-SQUARED SPACING: 0.0625
Info: NONBONDED TABLE SIZE: 705 POINTS
TCL: Running for 1500000 steps
ETITLE: TS BOND ANGLE DIHED IMPRP ELECT VDW BOUNDARY MISC KINETIC TOTAL TEMP POTENTIAL TOTALAVG TEMPAVG PRESSURE GPRESSURE VOLUME PRESSAVG GPRESSAVG
ENERGY: 0 8.7099 7.7757 6.9933 0.0000 -10800.3797 1413.9205 0.0000 0.0000 1804.5210 -7558.4593 304.2641 -9362.9803 -7558.4593 304.2641 -733.1003 -647.6032 31013.9408 -733.1003 -647.6032
ENERGY: 300000 3.2898 3.7917 4.3920 0.0000 -10832.0243 1503.2832 0.0000 0.0000 1774.0857 -7543.1819 299.1324 -9317.2676 -7551.3857 296.9760 214.5830 314.8939 31019.6296 6.0420 54.9696
ENERGY: 600000 4.8419 2.6875 5.6137 0.0000 -10814.9979 1509.8856 0.0000 0.0000 1756.1062 -7535.8630 296.1008 -9291.9692 -7518.6671 298.8110 489.7996 536.1859 30409.6546 212.9693 264.4554
ENERGY: 900000 4.7161 9.7836 7.8870 0.0000 -10820.4806 1511.7009 0.0000 0.0000 1747.6490 -7538.7440 294.6748 -9286.3930 -7527.1893 298.2588 486.6057 513.6598 30741.6383 137.3043 192.2119
ENERGY: 1200000 5.0660 5.2222 6.1657 0.0000 -10713.7692 1439.3692 0.0000 0.0000 1785.2781 -7472.6680 301.0195 -9257.9461 -7515.9603 298.7381 -36.9498 92.8322 30957.9685 111.3326 171.9864
ENERGY: 1500000 6.6097 4.8610 6.5627 0.0000 -10800.0716 1412.9618 0.0000 0.0000 1758.4724 -7610.6040 296.4998 -9369.0764 -7522.2282 298.3556 -420.7521 -357.6164 30649.0796 13.7696 74.8515
TCL: Running FEP window   6: Lambda1 0.7499999999999998 Lambda2 0.6999999999999997 [dLambda -0.050000000000000044]
TCL: Setting parameter firsttimestep to 0
TCL: Setting parameter alchLambda to 0.7499999999999998
Info: NONBONDED TABLE R-SQUARED SPACING: 0.0625
Info: NONBONDED TABLE SIZE: 705 POINTS
TCL: Setting parameter alchLambda2 to 0.6999999999999997
Info: NONBONDED TABLE R-SQUARED SPACING: 0.0625
Info: NONBONDED TABLE SIZE: 705 POINTS
TCL: Running for 1500000 steps
ETITLE: TS BOND ANGLE DIHED IMPRP ELECT VDW BOUNDARY MISC KINETIC TOTAL TEMP POTENTIAL TOTALAVG TEMPAVG PRESSURE GPRESSURE VOLUME PRESSAVG GPRESSAVG
ENERGY: 0 6.6097 4.8610 6.5627 0.0000 -10799.3919 1413.1421 0.0000 0.0000 1757.5900 -7610.6263 296.3510 -9368.2164 -7610.6263 296.3510 -461.0812 -369.5244 30649.0796 -461.0812 -369.5244
ENERGY: 300000 6.5912 6.9708 9.3038 0.0000 -10765.0012 1469.0712 0.0000 0.0000 1759.6945 -7513.3697 296.7058 -9273.0642 -7558.3141 297.0756 -22.2988 66.6320 30688.7159 -112.8729 -10.3355
ENERGY: 600000 4.9804 3.2105 7.8149 0.0000 -10741.1276 1421.9958 0.0000 0.0000 1758.3918 -7544.7343 296.4862 -9303.1261 -7557.2315 296.7881 -205.7440 -132.1554 30690.4264 -68.4066 18.9953
ENERGY: 900000 7.0903 4.2476 6.6493 0.0000 -10929.9629 1623.2329 0.0000 0.0000 1755.1519 -7533.5909 295.9399 -9288.7428 -7529.4247 298.1648 746.4058 858.2767 30948.6589 218.8872 304.2166
ENERGY: 1200000 5.3903 4.7166 7.1205 0.0000 -10794.4598 1444.7077 0.0000 0.0000 1742.1482 -7590.3765 293.7473 -9332.5247 -7530.8039 298.8661 -345.3018 -291.6735 30881.9289 140.5804 216.9343
ENERGY: 1500000 6.9038 5.3878 5.5114 0.0000 -10496.4192 1372.4449 0.0000 0.0000 1781.0051 -7325.1662 300.2991 -9106.1713 -7513.0654 299.0481 -401.4156 -269.2380 31062.9090 27.9379 104.6923
TCL: Running FEP window   7: Lambda1 0.6999999999999997 Lambda2 0.6499999999999997 [dLambda -0.050000000000000044]
TCL: Setting parameter firsttimestep to 0
TCL: Setting parameter alchLambda to 0.6999999999999997
Info: NONBONDED TABLE R-SQUARED SPACING: 0.0625
Info: NONBONDED TABLE SIZE: 705 POINTS
TCL: Setting parameter alchLambda2 to 0.6499999999999997
Info: NONBONDED TABLE R-SQUARED SPACING: 0.0625
Info: NONBONDED TABLE SIZE: 705 POINTS
TCL: Running for 1500000 steps
ETITLE: TS BOND ANGLE DIHED IMPRP ELECT VDW BOUNDARY MISC KINETIC TOTAL TEMP POTENTIAL TOTALAVG TEMPAVG PRESSURE GPRESSURE VOLUME PRESSAVG GPRESSAVG
ENERGY: 0 6.9038 5.3878 5.5114 0.0000 -10496.0370 1372.8914 0.0000 0.0000 1780.1218 -7325.2207 300.1501 -9105.3425 -7325.2207 300.1501 -357.4806 -274.7775 31062.9090 -357.4806 -274.7775
ENERGY: 300000 3.8558 8.4958 6.5748 0.0000 -10790.1514 1491.4793 0.0000 0.0000 1793.0891 -7486.6567 302.3366 -9279.7458 -7453.4499 299.4577 -15.3785 70.3024 30923.3854 44.1452 107.0574
ENERGY: 600000 3.1876 2.8776 4.0342 0.0000 -10809.2817 1423.5399 0.0000 0.0000 1753.5999 -7622.0425 295.6782 -9375.6424 -7508.7745 299.1188 -324.2927 -306.0359 30483.9361 -120.7365 -75.8459
ENERGY: 900000 5.2600 4.7598 6.0499 0.0000 -10848.3028 1483.8971 0.0000 0.0000 1812.7456 -7535.5904 305.6509 -9348.3360 -7515.8705 300.4794 151.6635 242.8445 30465.3164 -92.0679 -34.3936
ENERGY: 1200000 7.4779 7.7799 5.7596 0.0000 -10761.2230 1448.2696 0.0000 0.0000 1824.4572 -7467.4788 307.6256 -9291.9360 -7511.0134 301.2040 -326.4787 -277.1988 31490.1615 -112.6762 -59.0593
ENERGY: 1500000 6.7917 7.0900 4.8237 0.0000 -10791.6650 1512.1527 0.0000 0.0000 1833.0124 -7427.7946 309.0681 -9260.8070 -7501.9145 301.2820 302.8917 343.5622 31004.3067 -101.2969 -53.4734
TCL: Running FEP window   8: Lambda1 0.6499999999999997 Lambda2 0.5999999999999996 [dLambda -0.050000000000000044]
TCL: Setting parameter firsttimestep to 0
TCL: Setting parameter alchLambda to 0.6499999999999997
Info: NONBONDED TABLE R-SQUARED SPACING: 0.0625
Info: NONBONDED TABLE SIZE: 705 POINTS
TCL: Setting parameter alchLambda2 to 0.5999999999999996
Info: NONBONDED TABLE R-SQUARED SPACING: 0.0625
Info: NONBONDED TABLE SIZE: 705 POINTS
TCL: Running for 1500000 steps
ETITLE: TS BOND ANGLE DIHED IMPRP ELECT VDW BOUNDARY MISC KINETIC TOTAL TEMP POTENTIAL TOTALAVG TEMPAVG PRESSURE GPRESSURE VOLUME PRESSAVG GPRESSAVG
ENERGY: 0 6.7917 7.0900 4.8237 0.0000 -10791.4584 1512.7508 0.0000 0.0000 1832.1366 -7427.8656 308.9205 -9260.0022 -7427.8656 308.9205 253.2581 338.3703 31004.3067 253.2581 338.3703
ENERGY: 300000 8.0101 3.3168 7.1547 0.0000 -10683.7399 1428.8842 0.0000 0.0000 1737.1547 -7499.2194 292.9053 -9236.3741 -7466.9009 300.8852 -333.7855 -291.4200 30999.9753 70.5103 115.1445
ENERGY: 600000 6.3350 7.4727 6.0717 0.0000 -10689.1016 1397.0784 0.0000 0.0000 1770.8507 -7501.2932 298.5869 -9272.1439 -7478.9358 300.9706 -366.1935 -320.9648 30775.1940 -91.6517 -51.4889
ENERGY: 900000 3.2084 5.5693 4.3576 0.0000 -10886.2003 1547.1571 0.0000 0.0000 1727.6146 -7598.2933 291.2968 -9325.9080 -7504.2325 300.6023 523.4805 536.3155 30894.3888 -94.6009 -61.4537
ENERGY: 1200000 5.0968 6.1066 4.6077 0.0000 -10642.4631 1356.2711 0.0000 0.0000 1815.4489 -7454.9320 306.1067 -9270.3809 -7514.6193 300.6370 -426.4993 -463.5159 30440.0683 -123.6942 -82.1839
ENERGY: 1500000 5.2655 4.8538 6.1916 0.0000 -10778.4262 1478.7193 0.0000 0.0000 1802.9370 -7480.4590 303.9970 -9283.3960 -7504.5755 301.7896 211.4571 276.0459 30767.4708 -114.4033 -67.9598
TCL: Running FEP window   9: Lambda1 0.5999999999999996 Lambda2 0.5499999999999996 [dLambda -0.050000000000000044]
TCL: Setting parameter firsttimestep to 0
TCL: Setting parameter alchLambda to 0.5999999999999996
Info: NONBONDED TABLE R-SQUARED SPACING: 0.0625
Info: NONBONDED TABLE SIZE: 705 POINTS
TCL: Setting parameter alchLambda2 to 0.5499999999999996
Info: NONBONDED TABLE R-SQUARED SPACING: 0.0625
Info: NONBONDED TABLE SIZE: 705 POINTS
TCL: Running for 1500000 steps
ETITLE: TS BOND ANGLE DIHED IMPRP ELECT VDW BOUNDARY MISC KINETIC TOTAL TEMP POTENTIAL TOTALAVG TEMPAVG PRESSURE GPRESSURE VOLUME PRESSAVG GPRESSAVG
ENERGY: 0 5.2655 4.8538 6.1916 0.0000 -10778.1299 1478.6017 0.0000 0.0000 1802.0601 -7481.1572 303.8492 -9283.2173 -7481.1572 303.8492 168.2477 262.5549 30767.4708 168.2477 262.5549
ENERGY: 300000 5.3174 7.8651 3.3286 0.0000 -10539.8019 1244.5665 0.0000 0.0000 1760.2221 -7518.5023 296.7948 -9278.7244 -7492.4389 298.3392 -1571.9444 -1570.0995 31019.5536 -373.3978 -301.5801
ENERGY: 600000 7.8465 5.8017 5.1109 0.0000 -10770.4953 1485.2155 0.0000 0.0000 1798.1082 -7468.4124 303.1829 -9266.5207 -7492.8059 299.7896 529.1977 574.4230 30553.0268 -209.8615 -135.6378
ENERGY: 900000 4.1694 5.7602 6.5717 0.0000 -10780.9775 1481.1163 0.0000 0.0000 1725.8934 -7557.4665 291.0065 -9283.3599 -7490.1081 299.6172 503.0072 594.6812 30127.9363 -33.7093 41.7942
ENERGY: 1200000 4.7516 5.4066 5.4469 0.0000 -10649.2161 1412.9322 0.0000 0.0000 1795.5093 -7425.1695 302.7446 -9220.6789 -7484.5117 299.8098 -289.1842 -153.2677 31058.2414 -39.7205 32.8607
ENERGY: 1500000 6.2761 3.6576 4.8677 0.0000 -10755.2750 1483.7456 0.0000 0.0000 1772.0970 -7484.6310 298.7970 -9256.7280 -7489.5198 299.5234 335.5911 385.9606 30671.8734 -45.1509 26.4501
TCL: Running FEP window  10: Lambda1 0.5499999999999996 Lambda2 0.4999999999999996 [dLambda -0.04999999999999999]
TCL: Setting parameter firsttimestep to 0
TCL: Setting parameter alchLambda to 0.5499999999999996
Info: NONBONDED TABLE R-SQUARED SPACING: 0.0625
Info: NONBONDED TABLE SIZE: 705 POINTS
TCL: Setting parameter alchLambda2 to 0.4999999999999996
Info: NONBONDED TABLE R-SQUARED SPACING: 0.0625
Info: NONBONDED TABLE SIZE: 705 POINTS
TCL: Running for 1500000 steps
ETITLE: TS BOND ANGLE DIHED IMPRP ELECT VDW BOUNDARY MISC KINETIC TOTAL TEMP POTENTIAL TOTALAVG TEMPAVG PRESSURE GPRESSURE VOLUME PRESSAVG GPRESSAVG
ENERGY: 0 6.2761 3.6576 4.8677 0.0000 -10755.2318 1484.0480 0.0000 0.0000 1771.2241 -7485.1584 298.6499 -9256.3825 -7485.1584 298.6499 293.3927 377.5615 30671.8734 293.3927 377.5615
ENERGY: 300000 2.8883 5.4348 5.0014 0.0000 -10603.6665 1330.1116 0.0000 0.0000 1789.7633 -7470.4673 301.7758 -9260.2305 -7479.1834 300.7833 -837.8967 -718.9173 30788.6759 -398.2963 -300.0537
ENERGY: 600000 3.0641 7.9569 5.0739 0.0000 -10617.4417 1404.3284 0.0000 0.0000 1811.5018 -7385.5167 305.4412 -9197.0185 -7474.8048 300.9345 -439.2158 -371.7141 31313.9126 -394.5535 -308.0830
ENERGY: 900000 7.5662 3.5140 8.2834 0.0000 -10754.8879 1402.4132 0.0000 0.0000 1725.1072 -7608.0038 290.8740 -9333.1111 -7498.3273 299.9240 -693.7332 -625.8018 30614.7366 -296.1269 -208.6778
ENERGY: 1200000 8.5415 6.9401 6.3622 0.0000 -10721.0901 1331.7246 0.0000 0.0000 1739.2035 -7628.3182 293.2508 -9367.5217 -7513.0439 299.0775 -1336.4794 -1253.3635 30893.7781 -279.0260 -199.7283
ENERGY: 1500000 6.5217 3.5039 5.1321 0.0000 -10645.9049 1317.0127 0.0000 0.0000 1832.8229 -7480.9116 309.0362 -9313.7345 -7519.6309 299.9832 -1055.1572 -1005.7001 30392.8670 -323.1089 -244.6724
TCL: Running FEP window  11: Lambda1 0.4999999999999996 Lambda2 0.4499999999999996 [dLambda -0.04999999999999999]
TCL: Setting parameter firsttimestep to 0
TCL: Setting parameter alchLambda to 0.4999999999999996
Info: NONBONDED TABLE R-SQUARED SPACING: 0.0625
Info: NONBONDED TABLE SIZE: 705 POINTS
TCL: Setting parameter alchLambda2 to 0.4499999999999996
Info: NONBONDED TABLE R-SQUARED SPACING: 0.0625
Info: NONBONDED TABLE SIZE: 705 POINTS
TCL: Running for 1500000 steps
ETITLE: TS BOND ANGLE DIHED IMPRP ELECT VDW BOUNDARY MISC KINETIC TOTAL TEMP POTENTIAL TOTALAVG TEMPAVG PRESSURE GPRESSURE VOLUME PRESSAVG GPRESSAVG
ENERGY: 0 6.5217 3.5039 5.1321 0.0000 -10645.8004 1318.0737 0.0000 0.0000 1831.9353 -7480.6337 308.8865 -9312.5691 -7480.6337 308.8865 -1081.6777 -1004.0674 30392.8670 -1081.6777 -1004.0674
ENERGY: 300000 2.0290 5.4543 5.1648 0.0000 -10843.6416 1563.4576 0.0000 0.0000 1735.8472 -7531.6887 292.6849 -9267.5358 -7503.3090 299.0045 1182.4724 1179.2888 30481.3925 -201.7957 -144.9916
ENERGY: 600000 7.3277 7.3971 5.2427 0.0000 -10729.0181 1504.9971 0.0000 0.0000 1732.4855 -7471.5680 292.1181 -9204.0535 -7512.7821 297.1073 1001.1309 1126.3111 30371.6987 87.8670 165.8832
ENERGY: 900000 4.3196 4.4398 6.5036 0.0000 -10683.1725 1386.5521 0.0000 0.0000 1746.4412 -7534.9163 294.4712 -9281.3575 -7515.7987 298.2855 -508.0812 -433.2076 30391.8885 -55.7366 10.1868
ENERGY: 1200000 2.8275 6.6100 7.1823 0.0000 -10690.9580 1436.1346 0.0000 0.0000 1781.0058 -7457.1978 300.2992 -9238.2036 -7515.9586 298.8519 -79.7293 -37.7353 30756.7904 -40.1241 27.4853
ENERGY: 1500000 4.9166 3.8651 9.7398 0.0000 -10685.3285 1453.8713 0.0000 0.0000 1775.8452 -7437.0905 299.4290 -9212.9358 -7521.0198 298.7333 -8.1772 60.3660 31037.1077 -4.9827 62.9715
TCL: Running FEP window  12: Lambda1 0.4499999999999996 Lambda2 0.39999999999999963 [dLambda -0.04999999999999999]
TCL: Setting parameter firsttimestep to 0
TCL: Setting parameter alchLambda to 0.4499999999999996
Info: NONBONDED TABLE R-SQUARED SPACING: 0.0625
Info: NONBONDED TABLE SIZE: 705 POINTS
TCL: Setting parameter alchLambda2 to 0.39999999999999963
Info: NONBONDED TABLE R-SQUARED SPACING: 0.0625
Info: NONBONDED TABLE SIZE: 705 POINTS
TCL: Running for 1500000 steps
ETITLE: TS BOND ANGLE DIHED IMPRP ELECT VDW BOUNDARY MISC KINETIC TOTAL TEMP POTENTIAL TOTALAVG TEMPAVG PRESSURE GPRESSURE VOLUME PRESSAVG GPRESSAVG
ENERGY: 0 4.9166 3.8651 9.7398 0.0000 -10685.3292 1454.4981 0.0000 0.0000 1774.9550 -7437.3546 299.2789 -9212.3095 -7437.3546 299.2789 -16.6628 57.3953 31037.1077 -16.6628 57.3953
ENERGY: 300000 6.2916 3.4316 3.9336 0.0000 -10777.6191 1426.0376 0.0000 0.0000 1764.5177 -7573.4070 297.5191 -9337.9247 -7512.8715 301.6885 -304.0875 -163.2183 30536.9205 -201.0489 -123.6668
ENERGY: 600000 4.4349 6.2022 4.3749 0.0000 -10693.0150 1426.4728 0.0000 0.0000 1795.3690 -7456.1612 302.7210 -9251.5302 -7510.7110 301.7890 -242.9628 -205.1329 30764.6664 -64.8353 1.4825
ENERGY: 900000 6.5655 4.6543 5.3262 0.0000 -10836.5594 1536.6809 0.0000 0.0000 1802.9020 -7480.4305 303.9911 -9283.3325 -7498.4050 303.6761 1022.6742 1103.0393 30139.5178 29.1906 94.2691
ENERGY: 1200000 6.1398 2.1090 6.9676 0.0000 -10691.1372 1442.0794 0.0000 0.0000 1804.7132 -7429.1281 304.2965 -9233.8414 -7501.4799 302.9613 202.5240 201.3046 30731.9002 109.0938 164.7738
ENERGY: 1500000 6.8715 4.5215 5.2682 0.0000 -10869.5683 1526.4886 0.0000 0.0000 1794.1016 -7532.3170 302.5073 -9326.4185 -7501.4882 302.7476 647.8134 742.7642 30581.9227 110.9565 177.1337
TCL: Running FEP window  13: Lambda1 0.39999999999999963 Lambda2 0.34999999999999964 [dLambda -0.04999999999999999]
TCL: Setting parameter firsttimestep to 0
TCL: Setting parameter alchLambda to 0.39999999999999963
Info: NONBONDED TABLE R-SQUARED SPACING: 0.0625
Info: NONBONDED TABLE SIZE: 705 POINTS
TCL: Setting parameter alchLambda2 to 0.34999999999999964
Info: NONBONDED TABLE R-SQUARED SPACING: 0.0625
Info: NONBONDED TABLE SIZE: 705 POINTS
TCL: Running for 1500000 steps
ETITLE: TS BOND ANGLE DIHED IMPRP ELECT VDW BOUNDARY MISC KINETIC TOTAL TEMP POTENTIAL TOTALAVG TEMPAVG PRESSURE GPRESSURE VOLUME PRESSAVG GPRESSAVG
ENERGY: 0 6.8715 4.5215 5.2682 0.0000 -10869.5674 1526.8276 0.0000 0.0000 1793.2209 -7532.8578 302.3588 -9326.0786 -7532.8578 302.3588 642.9746 734.0741 30581.9227 642.9746 734.0741
ENERGY: 300000 4.9143 6.7175 4.5311 0.0000 -10781.0401 1441.7222 0.0000 0.0000 1839.3970 -7483.7580 310.1446 -9323.1550 -7519.1835 300.0835 -26.2552 66.6271 30116.8568 -28.9256 58.4683
ENERGY: 600000 3.7538 6.1226 3.9612 0.0000 -10791.3049 1452.7360 0.0000 0.0000 1811.4533 -7513.2780 305.4330 -9324.7313 -7498.8034 301.4707 -278.1187 -242.7309 30841.2744 -53.9930 34.9271
ENERGY: 900000 8.7439 7.3503 8.1975 0.0000 -10753.6619 1409.3206 0.0000 0.0000 1835.8491 -7484.2005 309.5464 -9320.0496 -7505.8348 302.6257 -229.9005 -155.6069 30431.7858 -88.4670 -11.3050
ENERGY: 1200000 5.8615 7.3590 7.0457 0.0000 -10740.1826 1425.4644 0.0000 0.0000 1773.1844 -7521.2677 298.9804 -9294.4521 -7505.5754 302.7396 -387.2150 -285.3488 30913.8963 -138.5403 -56.9555
ENERGY: 1500000 8.4376 2.6498 9.3527 0.0000 -10775.5068 1451.8446 0.0000 0.0000 1752.9547 -7550.2675 295.5694 -9303.2222 -7512.4847 301.8493 -383.6854 -327.0042 31066.7166 -202.5239 -128.3084
TCL: Running FEP window  14: Lambda1 0.34999999999999964 Lambda2 0.29999999999999966 [dLambda -0.04999999999999999]
TCL: Setting parameter firsttimestep to 0
TCL: Setting parameter alchLambda to 0.34999999999999964
Info: NONBONDED TABLE R-SQUARED SPACING: 0.0625
Info: NONBONDED TABLE SIZE: 705 POINTS
TCL: Setting parameter alchLambda2 to 0.29999999999999966
Info: NONBONDED TABLE R-SQUARED SPACING: 0.0625
Info: NONBONDED TABLE SIZE: 705 POINTS
TCL: Running for 1500000 steps
ETITLE: TS BOND ANGLE DIHED IMPRP ELECT VDW BOUNDARY MISC KINETIC TOTAL TEMP POTENTIAL TOTALAVG TEMPAVG PRESSURE GPRESSURE VOLUME PRESSAVG GPRESSAVG
ENERGY: 0 8.4376 2.6498 9.3527 0.0000 -10775.5056 1452.3222 0.0000 0.0000 1752.0662 -7550.6772 295.4196 -9302.7433 -7550.6772 295.4196 -410.7305 -333.6723 31066.7166 -410.7305 -333.6723
ENERGY: 300000 6.5511 3.6808 3.2949 0.0000 -10929.9760 1545.0896 0.0000 0.0000 1745.3020 -7626.0576 294.2791 -9371.3596 -7562.9242 295.8173 624.2315 645.1728 30082.0589 330.9547 387.3036
ENERGY: 600000 2.7628 7.6161 3.1892 0.0000 -10764.2156 1487.6868 0.0000 0.0000 1773.6152 -7489.3456 299.0530 -9262.9608 -7506.0367 299.4076 456.0294 514.2386 30391.7503 75.3919 148.9044
ENERGY: 900000 6.3971 4.5473 5.0168 0.0000 -10858.9293 1507.2997 0.0000 0.0000 1757.4568 -7578.2116 296.3285 -9335.6685 -7513.9000 298.9183 260.3204 332.0838 30489.7386 42.8340 93.8835
ENERGY: 1200000 5.8496 5.9101 5.3700 0.0000 -10689.4113 1405.4263 0.0000 0.0000 1772.3185 -7494.5368 298.8344 -9266.8553 -7507.3964 298.5463 -501.8125 -444.7015 30855.3984 35.2850 86.8688
ENERGY: 1500000 4.1363 5.1353 7.0155 0.0000 -10676.6274 1389.3240 0.0000 0.0000 1784.9135 -7486.1028 300.9581 -9271.0163 -7499.8389 299.6361 -407.2139 -346.1191 30326.4016 10.3501 63.5616
TCL: Running FEP window  15: Lambda1 0.29999999999999966 Lambda2 0.24999999999999967 [dLambda -0.04999999999999999]
TCL: Setting parameter firsttimestep to 0
TCL: Setting parameter alchLambda to 0.29999999999999966
Info: NONBONDED TABLE R-SQUARED SPACING: 0.0625
Info: NONBONDED TABLE SIZE: 705 POINTS
TCL: Setting parameter alchLambda2 to 0.24999999999999967
Info: NONBONDED TABLE R-SQUARED SPACING: 0.0625
Info: NONBONDED TABLE SIZE: 705 POINTS
TCL: Running for 1500000 steps
ETITLE: TS BOND ANGLE DIHED IMPRP ELECT VDW BOUNDARY MISC KINETIC TOTAL TEMP POTENTIAL TOTALAVG TEMPAVG PRESSURE GPRESSURE VOLUME PRESSAVG GPRESSAVG
ENERGY: 0 4.1363 5.1353 7.0155 0.0000 -10676.6268 1389.6600 0.0000 0.0000 1784.0253 -7486.6545 300.8083 -9270.6798 -7486.6545 300.8083 -436.7071 -351.0537 30326.4016 -436.7071 -351.0537
ENERGY: 300000 7.2519 7.6896 6.6567 0.0000 -10673.7861 1401.0799 0.0000 0.0000 1747.0402 -7504.0678 294.5722 -9251.1080 -7496.7962 299.8658 -476.5126 -410.8454 30557.4941 -308.3212 -230.7792
ENERGY: 600000 6.1513 2.7523 5.0022 0.0000 -10711.3929 1419.5226 0.0000 0.0000 1856.0254 -7421.9392 312.9484 -9277.9646 -7504.8455 301.4965 -322.1452 -379.6502 30853.2528 -192.6898 -150.5101
ENERGY: 900000 4.3699 2.6145 7.9025 0.0000 -10814.1994 1471.8815 0.0000 0.0000 1763.8436 -7563.5874 297.4054 -9327.4310 -7513.0976 300.3598 245.7542 346.5851 30189.7806 -178.2504 -128.7399
ENERGY: 1200000 4.1598 7.7940 2.9209 0.0000 -10925.0486 1556.5718 0.0000 0.0000 1793.1227 -7560.4793 302.3422 -9353.6020 -7525.4620 299.5486 1096.0155 1196.5933 29896.3970 -80.9295 -32.6329
ENERGY: 1500000 5.6444 5.0008 4.0299 0.0000 -10839.8957 1523.8883 0.0000 0.0000 1797.6193 -7503.7129 303.1004 -9301.3322 -7509.5869 300.5155 164.7243 213.2177 31102.9236 -91.0809 -36.6601
TCL: Running FEP window  16: Lambda1 0.24999999999999967 Lambda2 0.19999999999999968 [dLambda -0.04999999999999999]
TCL: Setting parameter firsttimestep to 0
TCL: Setting parameter alchLambda to 0.24999999999999967
Info: NONBONDED TABLE R-SQUARED SPACING: 0.0625
Info: NONBONDED TABLE SIZE: 705 POINTS
TCL: Setting parameter alchLambda2 to 0.19999999999999968
Info: NONBONDED TABLE R-SQUARED SPACING: 0.0625
Info: NONBONDED TABLE SIZE: 705 POINTS
TCL: Running for 1500000 steps
ETITLE: TS BOND ANGLE DIHED IMPRP ELECT VDW BOUNDARY MISC KINETIC TOTAL TEMP POTENTIAL TOTALAVG TEMPAVG PRESSURE GPRESSURE VOLUME PRESSAVG GPRESSAVG
ENERGY: 0 5.6444 5.0008 4.0299 0.0000 -10839.8953 1524.2929 0.0000 0.0000 1796.7934 -7504.1339 302.9612 -9300.9273 -7504.1339 302.9612 132.8824 211.8146 31102.9236 132.8824 211.8146
ENERGY: 300000 4.7295 6.2474 6.6324 0.0000 -10662.3897 1393.3915 0.0000 0.0000 1780.9283 -7470.4606 300.2861 -9251.3889 -7453.9545 303.6886 -449.0846 -402.3617 30851.7874 180.0785 228.3604
ENERGY: 600000 5.7008 7.9541 5.8419 0.0000 -10904.0599 1538.4009 0.0000 0.0000 1792.0431 -7554.1191 302.1602 -9346.1622 -7473.8838 303.2333 677.3787 761.9185 29946.7405 320.7458 367.9135
ENERGY: 900000 6.6074 5.6305 7.1323 0.0000 -10732.5481 1423.0806 0.0000 0.0000 1780.8666 -7509.2308 300.2757 -9290.0973 -7495.3327 302.0446 -204.5047 -69.9822 30269.2336 110.9220 164.9632
ENERGY: 1200000 6.1804 6.2268 6.6067 0.0000 -10665.9197 1395.5651 0.0000 0.0000 1819.8579 -7431.4828 306.8501 -9251.3407 -7501.7737 301.7541 -717.0889 -636.6391 30876.4546 81.9004 144.8304
ENERGY: 1500000 9.0471 3.0443 7.9066 0.0000 -10797.3977 1463.9871 0.0000 0.0000 1788.5208 -7524.8917 301.5663 -9313.4125 -7502.8029 301.3379 -102.5218 -30.3679 30635.1659 3.3493 68.4097
TCL: Running FEP window  17: Lambda1 0.19999999999999968 Lambda2 0.1499999999999997 [dLambda -0.04999999999999999]
TCL: Setting parameter firsttimestep to 0
TCL: Setting parameter alchLambda to 0.19999999999999968
Info: NONBONDED TABLE R-SQUARED SPACING: 0.0625
Info: NONBONDED TABLE SIZE: 705 POINTS
TCL: Setting parameter alchLambda2 to 0.1499999999999997
Info: NONBONDED TABLE R-SQUARED SPACING: 0.0625
Info: NONBONDED TABLE SIZE: 705 POINTS
TCL: Running for 1500000 steps
ETITLE: TS BOND ANGLE DIHED IMPRP ELECT VDW BOUNDARY MISC KINETIC TOTAL TEMP POTENTIAL TOTALAVG TEMPAVG PRESSURE GPRESSURE VOLUME PRESSAVG GPRESSAVG
ENERGY: 0 9.0471 3.0443 7.9066 0.0000 -10797.3980 1464.1250 0.0000 0.0000 1787.6587 -7525.6162 301.4209 -9313.2749 -7525.6162 301.4209 -113.5308 -32.6035 30635.1659 -113.5308 -32.6035
ENERGY: 300000 8.1613 5.6569 6.5283 0.0000 -10834.0929 1502.0078 0.0000 0.0000 1825.0005 -7486.7380 307.7172 -9311.7385 -7494.1178 302.9098 392.9128 364.9104 30224.9777 44.1152 104.5392
ENERGY: 600000 4.8628 6.0209 4.6635 0.0000 -10847.0999 1494.0929 0.0000 0.0000 1765.0424 -7572.4174 297.6075 -9337.4598 -7518.7596 301.1282 219.1729 312.1434 30202.9244 -5.1928 61.3046
ENERGY: 900000 8.2694 4.2524 3.7163 0.0000 -10935.5698 1560.1148 0.0000 0.0000 1766.3946 -7592.8224 297.8355 -9359.2169 -7536.2212 299.8354 739.2821 799.4699 30458.9485 59.6795 135.6561
ENERGY: 1200000 11.0864 8.2456 4.0458 0.0000 -10645.2241 1365.0483 0.0000 0.0000 1746.6816 -7510.1163 294.5117 -9256.7979 -7525.3225 299.8841 -712.3995 -661.6713 31010.2797 -13.5643 59.3736
ENERGY: 1500000 7.1789 2.6595 4.7475 0.0000 -10696.5421 1425.3726 0.0000 0.0000 1723.5774 -7533.0061 290.6161 -9256.5835 -7521.0646 299.5742 -297.9589 -247.5683 30633.1552 -28.9142 44.4493
TCL: Running FEP window  18: Lambda1 0.1499999999999997 Lambda2 0.09999999999999969 [dLambda -0.05 ]
TCL: Setting parameter firsttimestep to 0
TCL: Setting parameter alchLambda to 0.1499999999999997
Info: NONBONDED TABLE R-SQUARED SPACING: 0.0625
Info: NONBONDED TABLE SIZE: 705 POINTS
TCL: Setting parameter alchLambda2 to 0.09999999999999969
Info: NONBONDED TABLE R-SQUARED SPACING: 0.0625
Info: NONBONDED TABLE SIZE: 705 POINTS
TCL: Running for 1500000 steps
ETITLE: TS BOND ANGLE DIHED IMPRP ELECT VDW BOUNDARY MISC KINETIC TOTAL TEMP POTENTIAL TOTALAVG TEMPAVG PRESSURE GPRESSURE VOLUME PRESSAVG GPRESSAVG
ENERGY: 0 7.1789 2.6595 4.7475 0.0000 -10696.5416 1425.6461 0.0000 0.0000 1722.6980 -7533.6115 290.4678 -9256.3095 -7533.6115 290.4678 -325.1039 -252.8311 30633.1552 -325.1039 -252.8311
ENERGY: 300000 6.9097 6.1923 5.5400 0.0000 -10796.7714 1536.1356 0.0000 0.0000 1805.8634 -7436.1305 304.4905 -9241.9939 -7489.0145 301.2138 815.6977 877.1059 30498.9704 15.3482 62.7117
ENERGY: 600000 7.7065 4.5269 2.9433 0.0000 -10818.4663 1485.8520 0.0000 0.0000 1792.5731 -7524.8646 302.2496 -9317.4376 -7509.3101 300.1969 124.7682 149.8948 30532.6285 77.3860 128.6253
ENERGY: 900000 5.5085 4.9418 6.1496 0.0000 -10706.3493 1451.3456 0.0000 0.0000 1787.9126 -7450.4912 301.4638 -9238.4038 -7503.8071 300.0356 -42.3820 7.6838 30709.1694 -2.7197 51.3041
ENERGY: 1200000 4.9524 7.1586 6.1021 0.0000 -10581.2051 1358.3096 0.0000 0.0000 1763.4025 -7441.2798 297.3310 -9204.6823 -7501.7844 299.5028 -596.3382 -541.3507 30797.5658 -41.3047 14.7380
ENERGY: 1500000 6.0969 4.6558 7.4793 0.0000 -10726.1507 1403.8364 0.0000 0.0000 1777.5002 -7526.5822 299.7081 -9304.0824 -7498.3795 299.7719 -298.7512 -259.0869 30277.0118 -31.0624 25.9184
TCL: Running FEP window  19: Lambda1 0.09999999999999969 Lambda2 0.049999999999999684 [dLambda -0.05 ]
TCL: Setting parameter firsttimestep to 0
TCL: Setting parameter alchLambda to 0.09999999999999969
Info: NONBONDED TABLE R-SQUARED SPACING: 0.0625
Info: NONBONDED TABLE SIZE: 705 POINTS
TCL: Setting parameter alchLambda2 to 0.049999999999999684
Info: NONBONDED TABLE R-SQUARED SPACING: 0.0625
Info: NONBONDED TABLE SIZE: 705 POINTS
TCL: Running for 1500000 steps
ETITLE: TS BOND ANGLE DIHED IMPRP ELECT VDW BOUNDARY MISC KINETIC TOTAL TEMP POTENTIAL TOTALAVG TEMPAVG PRESSURE GPRESSURE VOLUME PRESSAVG GPRESSAVG
ENERGY: 0 6.0969 4.6558 7.4793 0.0000 -10726.1505 1404.3435 0.0000 0.0000 1776.6336 -7526.9416 299.5620 -9303.5751 -7526.9416 299.5620 -338.8180 -259.0265 30277.0118 -338.8180 -259.0265
ENERGY: 300000 5.5854 3.4383 4.5630 0.0000 -10753.6200 1477.3975 0.0000 0.0000 1780.8859 -7481.7499 300.2790 -9262.6357 -7479.0467 301.0659 432.9034 564.1657 30338.9425 200.3484 273.8896
ENERGY: 600000 5.7106 3.8138 7.4229 0.0000 -10839.6561 1437.9193 0.0000 0.0000 1818.1734 -7566.6162 306.5661 -9384.7896 -7515.1934 300.2597 -144.0703 -88.6641 29872.1051 171.5186 240.1461
ENERGY: 900000 5.8907 8.0265 5.6972 0.0000 -10598.1056 1286.4172 0.0000 0.0000 1776.2584 -7515.8155 299.4987 -9292.0739 -7518.2779 299.9340 -1561.0893 -1498.1086 30860.6389 -95.2365 -45.7656
ENERGY: 1200000 3.7352 2.7747 9.2941 0.0000 -10820.2773 1462.8532 0.0000 0.0000 1789.9804 -7551.6396 301.8124 -9341.6201 -7519.7531 299.7616 -83.8185 33.6610 30227.5957 -92.4037 -40.3782
ENERGY: 1500000 4.6492 3.1978 5.5091 0.0000 -10716.9476 1394.5349 0.0000 0.0000 1745.2749 -7563.7817 294.2745 -9309.0565 -7518.4066 300.1346 -548.1852 -553.6644 30600.6051 -142.6727 -92.9892
TCL: Running FEP window  20: Lambda1 0.049999999999999684 Lambda2 0.0    [dLambda -0.049999999999999684]
TCL: Setting parameter firsttimestep to 0
TCL: Setting parameter alchLambda to 0.049999999999999684
Info: NONBONDED TABLE R-SQUARED SPACING: 0.0625
Info: NONBONDED TABLE SIZE: 705 POINTS
TCL: Setting parameter alchLambda2 to 0.0
Info: NONBONDED TABLE R-SQUARED SPACING: 0.0625
Info: NONBONDED TABLE SIZE: 705 POINTS
TCL: Running for 1500000 steps
ETITLE: TS BOND ANGLE DIHED IMPRP ELECT VDW BOUNDARY MISC KINETIC TOTAL TEMP POTENTIAL TOTALAVG TEMPAVG PRESSURE GPRESSURE VOLUME PRESSAVG GPRESSAVG
ENERGY: 0 4.6492 3.1978 5.5091 0.0000 -10716.9482 1394.2808 0.0000 0.0000 1744.4120 -7564.8992 294.1290 -9309.3112 -7564.8992 294.1290 -633.1589 -558.1944 30600.6051 -633.1589 -558.1944
ENERGY: 300000 7.5459 2.9164 8.1748 0.0000 -10842.8575 1479.8381 0.0000 0.0000 1729.6551 -7614.7272 291.6408 -9344.3824 -7551.3650 296.3083 -69.5132 3.9746 30260.4597 142.8998 210.5713
ENERGY: 600000 5.0854 2.3584 6.5589 0.0000 -10697.0164 1468.9610 0.0000 0.0000 1844.0545 -7369.9982 310.9300 -9214.0527 -7523.5379 298.0197 400.1390 482.2814 30525.9194 2.1383 78.3870
ENERGY: 900000 3.9101 4.8355 2.0307 0.0000 -10626.7031 1399.2294 0.0000 0.0000 1773.5884 -7443.1091 299.0485 -9216.6975 -7495.6079 299.4376 -465.0945 -382.7344 30995.5847 -39.2166 33.7965
ENERGY: 1200000 6.9025 7.0566 5.0559 0.0000 -10686.5173 1399.9048 0.0000 0.0000 1825.5367 -7442.0607 307.8076 -9267.5974 -7485.4856 300.1765 -408.5399 -429.5990 30721.0724 -49.6999 10.8757
ENERGY: 1500000 8.2680 4.3943 5.5763 0.0000 -10677.9062 1396.7565 0.0000 0.0000 1788.1157 -7474.7954 301.4980 -9262.9111 -7480.6710 300.5739 -537.6339 -441.1250 30747.5460 -50.0307 14.5262
TCL: Exiting due to exit command.
