Info: SIMULATION PARAMETERS:
Info: TIMESTEP               2
Info: NUMBER OF STEPS        0
Info: STEPS PER CYCLE        10
Info: PERIODIC CELL BASIS 1  30.8871 0 0
Info: PERIODIC CELL BASIS 2  0 31.5872 0
Info: PERIODIC CELL BASIS 3  0 0 31.5378
Info: PERIODIC CELL CENTER   0 0 0
Info: WRAPPING WATERS AROUND PERIODIC BOUNDARIES ON OUTPUT.
Info: WRAPPING ALL CLUSTERS AROUND PERIODIC BOUNDARIES ON OUTPUT.
Info: FIRST LDB TIMESTEP     50
Info: LAST LDB TIMESTEP     -1
Info: HOM BACKGROUND SCALING 1
Info: PME BACKGROUND SCALING 1
Info: MIN ATOMS PER PATCH    40
Info: EMPTY PATCH LOAD       40 ATOMS
Info: VELOCITY FILE          mobley_9434451_equil.vel
Info: CENTER OF MASS MOVING INITIALLY? NO
Info: DIELECTRIC             1
Info: EXCLUDE                SCALED ONE-FOUR
Info: 1-4 ELECTROSTATICS SCALED BY 0.833333
Info: MODIFIED 1-4 VDW PARAMETERS WILL BE USED
Info: DCD FILENAME           mobley_9434451_prod.dcd
Info: DCD FREQUENCY          100000
Info: DCD FIRST STEP         100000
Info: DCD FILE WILL CONTAIN UNIT CELL DATA
Info: XST FILENAME           mobley_9434451_prod.xst
Info: XST FREQUENCY          100000
Info: NO VELOCITY DCD OUTPUT
Info: NO FORCE DCD OUTPUT
Info: OUTPUT FILENAME        mobley_9434451_prod
Info: BINARY OUTPUT FILES WILL BE USED
Info: RESTART FILENAME       mobley_9434451_prod.restart
Info: RESTART FREQUENCY      100000
Info: BINARY RESTART FILES WILL BE USED
Info: CUTOFF                 9
Info: PAIRLIST DISTANCE      11
Info: PAIRLIST SHRINK RATE   0.01
Info: PAIRLIST GROW RATE     0.01
Info: PAIRLIST TRIGGER       0.3
Info: PAIRLISTS PER CYCLE    2
Info: PAIRLISTS ENABLED
Info: MARGIN                 2
Info: HYDROGEN GROUP CUTOFF  2.5
Info: PATCH DIMENSION        15.5
Info: ENERGY OUTPUT STEPS    100000
Info: ENERGY EVALUATION STEPS    100000
Info: OUTPUT ENERGY PRECISION 4
Info: CROSSTERM ENERGY INCLUDED IN DIHEDRAL
Info: TIMING OUTPUT STEPS    1000000
Info: PRESSURE OUTPUT STEPS  100000
Info: ALCHEMICAL FEP ON
Info: FEP CURRENT LAMBDA VALUE     0
Info: FEP COMPARISON LAMBDA VALUE  0.05
Info: FEP INTRA-ALCHEMICAL NON-BONDED INTERACTIONS WILL BE RETAINED
Info: FEP INTRA-ALCHEMICAL BONDED INTERACTIONS WILL BE RETAINED
Info: FEP VDW SHIFTING COEFFICIENT 5
Info: FEP ELEC. ACTIVE FOR ANNIHILATED PARTICLES BETWEEN LAMBDA = 0 AND LAMBDA = 0.5
Info: FEP ELEC. ACTIVE FOR EXNIHILATED PARTICLES BETWEEN LAMBDA = 0.5 AND LAMBDA = 1
Info: FEP VDW ACTIVE FOR ANNIHILATED PARTICLES BETWEEN LAMBDA = 0 AND LAMBDA = 1
Info: FEP VDW ACTIVE FOR EXNIHILATED PARTICLES BETWEEN LAMBDA = 0 AND LAMBDA = 1
Info: FEP BOND ACTIVE FOR ANNIHILATED PARTICLES BETWEEN LAMBDA = 1 AND LAMBDA = 1
Info: FEP BOND ACTIVE FOR EXNIHILATED PARTICLES BETWEEN LAMBDA = 0 AND LAMBDA = 0
Info: LANGEVIN DYNAMICS ACTIVE
Info: LANGEVIN TEMPERATURE   300
Info: LANGEVIN USING BBK INTEGRATOR
Info: LANGEVIN DAMPING COEFFICIENT IS 1 INVERSE PS
Info: LANGEVIN DYNAMICS APPLIED TO HYDROGENS
Info: LANGEVIN PISTON PRESSURE CONTROL ACTIVE
Info:        TARGET PRESSURE IS 1.01325 BAR
Info:     OSCILLATION PERIOD IS 50 FS
Info:             DECAY TIME IS 25 FS
Info:     PISTON TEMPERATURE IS 300 K
Info:       PRESSURE CONTROL IS GROUP-BASED
Info:    INITIAL STRAIN RATE IS -0.000262528 -0.000262528 -0.000262528
Info:       CELL FLUCTUATION IS ISOTROPIC
Info: PARTICLE MESH EWALD (PME) ACTIVE
Info: PME TOLERANCE               1e-06
Info: PME EWALD COEFFICIENT       0.348832
Info: PME INTERPOLATION ORDER     4
Info: PME GRID DIMENSIONS         32 32 32
Info: PME MAXIMUM GRID SPACING    1
Info: PME CALCULATION WILL BE PERFORMED ON GPU
Info: FULL ELECTROSTATIC EVALUATION FREQUENCY      2
Info: USING VERLET I (r-RESPA) MTS SCHEME.
Info: C1 SPLITTING OF LONG RANGE ELECTROSTATICS
Info: PLACING ATOMS IN PATCHES BY HYDROGEN GROUPS
Info: RIGID BONDS TO HYDROGEN : ALL
Info:         ERROR TOLERANCE : 1e-08
Info:          MAX ITERATIONS : 100
Info: RIGID WATER USING SETTLE ALGORITHM
Info: RANDOM NUMBER SEED     1743516400
Info: USE HYDROGEN BONDS?    NO
Info: Using AMBER format force field!
Info: AMBER PARM FILE        mobley_9434451.prmtop
Info: COORDINATE PDB         mobley_9434451.pdb
Info: Exclusions will be read from PARM file!
Info: SCNB (VDW SCALING)     2
Info: USING ARITHMETIC MEAN TO COMBINE L-J SIGMA PARAMETERS
Info: BINARY COORDINATES     mobley_9434451_equil.coor
Info: SUMMARY OF PARAMETERS:
Info: 6 BONDS
Info: 6 ANGLES
Info:   6 HARMONIC
Info:   0 COSINE-BASED
Info: 4 DIHEDRAL
Info: 0 IMPROPER
Info: 0 CROSSTERM
Info: 0 VDW
Info: 21 VDW_PAIRS
Info: 0 NBTHOLE_PAIRS
Info: To read alchdata from file: mobley_9434451.pdb
Info: To read alchflag data from column: 5
Info: STRUCTURE SUMMARY:
Info: 2954 ATOMS
Info: 2953 BONDS
Info: 18 ANGLES
Info: 24 DIHEDRALS
Info: 0 IMPROPERS
Info: 0 CROSSTERMS
Info: 2989 EXCLUSIONS
Info: 2950 RIGID BONDS
Info: ALCH: 0 ATOMS TO DISAPPEAR IN FINAL STATE
Info: ALCH: 11 ATOMS TO APPEAR IN FINAL STATE
Info: 5912 DEGREES OF FREEDOM
Info: 985 HYDROGEN GROUPS
Info: 4 ATOMS IN LARGEST HYDROGEN GROUP
Info: 985 MIGRATION GROUPS
Info: 4 ATOMS IN LARGEST MIGRATION GROUP
Info: TOTAL MASS = 17796.7 amu
Info: TOTAL CHARGE = -0.000299979 e
Info: MASS DENSITY = 0.96046 g/cm^3
Info: ATOM DENSITY = 0.0960045 atoms/A^3
Info: ADDED 0 IMPLICIT EXCLUSIONS
Info: NONBONDED TABLE R-SQUARED SPACING: 0.0625
Info: NONBONDED TABLE SIZE: 705 POINTS
Info: REMOVING COM VELOCITY 0.185423 -0.085752 0.0563564
Info: Use 3D box decompostion in PME FFT.
Info: Updated CUDA force table with 4096 elements.
Info: Updated CUDA LJ table with 6 x 6 elements.
Info: Found 14 unique exclusion lists needing 24 bytes
TCL: Running for 1500000 steps
ETITLE: TS BOND ANGLE DIHED IMPRP ELECT VDW BOUNDARY MISC KINETIC TOTAL TEMP POTENTIAL TOTALAVG TEMPAVG PRESSURE GPRESSURE VOLUME PRESSAVG GPRESSAVG
ENERGY: 0 1.2427 4.6308 4.6893 0.0000 -10658.8541 1502.6961 0.0000 0.0000 1780.7114 -7364.8839 303.1444 -9145.5953 -7364.8839 303.1444 520.8906 609.7427 30769.3912 520.8906 609.7427
ENERGY: 300000 0.2186 4.0195 4.5804 0.0000 -10644.8603 1353.4793 0.0000 0.0000 1744.7796 -7537.7829 297.0274 -9282.5625 -7428.7880 302.3129 -892.3280 -781.3115 30752.6431 -193.6129 -102.8792
ENERGY: 600000 0.7507 3.8750 3.7879 0.0000 -10664.2015 1398.9393 0.0000 0.0000 1759.6265 -7497.2221 299.5549 -9256.8486 -7458.8761 302.3942 -555.5838 -474.3666 30901.2818 -221.2390 -131.6985
ENERGY: 900000 0.2761 5.6310 4.5370 0.0000 -10703.9741 1359.0535 0.0000 0.0000 1731.4085 -7603.0681 294.7511 -9334.4765 -7481.5820 300.9381 -756.0389 -671.6719 29980.7977 -197.5629 -123.6972
ENERGY: 1200000 1.7668 3.2527 3.4112 0.0000 -10707.7937 1425.2349 0.0000 0.0000 1751.4490 -7522.6790 298.1628 -9274.1281 -7485.5545 300.2602 -297.3258 -248.2109 30371.2398 -290.6607 -225.8185
ENERGY: 1500000 0.2253 4.0573 3.9198 0.0000 -10840.4880 1560.6131 0.0000 0.0000 1759.9259 -7511.7466 299.6059 -9271.6725 -7492.3532 299.7229 1043.3604 1079.8093 29957.5949 -185.7259 -123.0648
TCL: Running FEP window   2: Lambda1 0.05   Lambda2 0.1    [dLambda 0.05  ]
TCL: Setting parameter firsttimestep to 0
TCL: Setting parameter alchLambda to 0.05
Info: NONBONDED TABLE R-SQUARED SPACING: 0.0625
Info: NONBONDED TABLE SIZE: 705 POINTS
TCL: Setting parameter alchLambda2 to 0.1
Info: NONBONDED TABLE R-SQUARED SPACING: 0.0625
Info: NONBONDED TABLE SIZE: 705 POINTS
TCL: Running for 1500000 steps
ETITLE: TS BOND ANGLE DIHED IMPRP ELECT VDW BOUNDARY MISC KINETIC TOTAL TEMP POTENTIAL TOTALAVG TEMPAVG PRESSURE GPRESSURE VOLUME PRESSAVG GPRESSAVG
ENERGY: 0 0.2253 4.0573 3.9198 0.0000 -10840.4882 1563.1846 0.0000 0.0000 1759.0481 -7510.0531 299.4565 -9269.1013 -7510.0531 299.4565 998.9295 1080.5878 29957.5949 998.9295 1080.5878
ENERGY: 300000 1.7776 2.8703 3.3989 0.0000 -10652.5245 1405.3272 0.0000 0.0000 1783.6154 -7455.5351 303.6387 -9239.1505 -7518.8116 298.7872 -190.4316 -174.2504 30198.5360 145.4736 180.9944
ENERGY: 600000 0.9849 3.3984 3.4930 0.0000 -10728.2356 1491.0454 0.0000 0.0000 1736.9434 -7492.3705 295.6934 -9229.3139 -7516.5982 297.3845 537.8936 531.9800 30140.4705 26.5876 61.4240
ENERGY: 900000 0.2366 3.0350 3.7742 0.0000 -10763.2659 1505.1189 0.0000 0.0000 1696.3001 -7554.8012 288.7744 -9251.1013 -7528.0526 297.1635 568.0429 665.7258 29910.5548 7.8506 60.6567
ENERGY: 1200000 0.5691 4.3596 3.7475 0.0000 -10621.1049 1423.6095 0.0000 0.0000 1761.9416 -7426.8775 299.9490 -9188.8191 -7512.7159 297.5474 -236.1142 -171.0828 30941.0930 -77.4942 -17.1506
ENERGY: 1500000 1.6290 3.0948 3.5705 0.0000 -10747.7200 1512.8621 0.0000 0.0000 1784.7890 -7441.7746 303.8385 -9226.5635 -7504.9078 297.8621 555.4391 630.0218 30193.1367 -116.8623 -55.1586
TCL: Running FEP window   3: Lambda1 0.1    Lambda2 0.15000000000000002 [dLambda 0.05000000000000002]
TCL: Setting parameter firsttimestep to 0
TCL: Setting parameter alchLambda to 0.1
Info: NONBONDED TABLE R-SQUARED SPACING: 0.0625
Info: NONBONDED TABLE SIZE: 705 POINTS
TCL: Setting parameter alchLambda2 to 0.15000000000000002
Info: NONBONDED TABLE R-SQUARED SPACING: 0.0625
Info: NONBONDED TABLE SIZE: 705 POINTS
TCL: Running for 1500000 steps
ETITLE: TS BOND ANGLE DIHED IMPRP ELECT VDW BOUNDARY MISC KINETIC TOTAL TEMP POTENTIAL TOTALAVG TEMPAVG PRESSURE GPRESSURE VOLUME PRESSAVG GPRESSAVG
ENERGY: 0 1.6290 3.0948 3.5705 0.0000 -10747.7209 1515.1954 0.0000 0.0000 1783.9063 -7440.3247 303.6883 -9224.2311 -7440.3247 303.6883 558.0169 643.2393 30193.1367 558.0169 643.2393
ENERGY: 300000 1.8868 3.0475 3.9345 0.0000 -10758.4404 1473.6084 0.0000 0.0000 1758.4601 -7517.5032 299.3563 -9275.9633 -7461.4064 302.6715 -87.1706 -34.3104 30448.1710 11.1021 62.7412
ENERGY: 600000 1.8414 4.0692 3.6463 0.0000 -10834.2887 1518.1865 0.0000 0.0000 1685.7841 -7620.7611 286.9842 -9306.5452 -7518.4086 299.0700 514.8746 597.5377 30090.4730 53.8273 111.4091
ENERGY: 900000 1.2796 5.4353 3.4552 0.0000 -10734.8093 1430.0029 0.0000 0.0000 1737.1262 -7557.5100 295.7245 -9294.6363 -7527.4286 298.3481 19.6234 11.5806 29834.5797 73.6734 129.9221
ENERGY: 1200000 1.5991 4.9647 4.8136 0.0000 -10655.3063 1385.7374 0.0000 0.0000 1803.5074 -7454.6840 307.0251 -9258.1914 -7523.9791 299.2376 -614.6800 -462.2968 30282.6323 134.5215 195.0082
ENERGY: 1500000 0.5159 7.7837 3.9827 0.0000 -10676.9460 1386.8711 0.0000 0.0000 1756.0864 -7521.7062 298.9523 -9277.7926 -7516.0508 298.9877 -589.1886 -518.1806 30536.6000 61.8099 121.8122
TCL: Running FEP window   4: Lambda1 0.15000000000000002 Lambda2 0.2    [dLambda 0.04999999999999999]
TCL: Setting parameter firsttimestep to 0
TCL: Setting parameter alchLambda to 0.15000000000000002
Info: NONBONDED TABLE R-SQUARED SPACING: 0.0625
Info: NONBONDED TABLE SIZE: 705 POINTS
TCL: Setting parameter alchLambda2 to 0.2
Info: NONBONDED TABLE R-SQUARED SPACING: 0.0625
Info: NONBONDED TABLE SIZE: 705 POINTS
TCL: Running for 1500000 steps
ETITLE: TS BOND ANGLE DIHED IMPRP ELECT VDW BOUNDARY MISC KINETIC TOTAL TEMP POTENTIAL TOTALAVG TEMPAVG PRESSURE GPRESSURE VOLUME PRESSAVG GPRESSAVG
ENERGY: 0 0.5159 7.7837 3.9827 0.0000 -10676.9474 1388.2781 0.0000 0.0000 1755.1982 -7521.1887 298.8011 -9276.3869 -7521.1887 298.8011 -600.3643 -513.0589 30536.6000 -600.3643 -513.0589
ENERGY: 300000 1.0243 8.1731 4.7516 0.0000 -10700.2680 1377.4351 0.0000 0.0000 1802.4407 -7506.4431 306.8435 -9308.8838 -7508.8056 300.8479 -475.6138 -417.4143 30067.8903 -339.3927 -289.5129
ENERGY: 600000 0.2665 4.6692 3.5723 0.0000 -10776.7999 1472.2058 0.0000 0.0000 1842.5839 -7453.5023 313.6774 -9296.0861 -7490.9962 302.5211 235.7291 356.9735 30293.6255 -63.5221 -17.0455
ENERGY: 900000 0.8990 4.4859 3.5352 0.0000 -10764.8629 1485.5211 0.0000 0.0000 1802.1171 -7468.3046 306.7884 -9270.4217 -7499.3900 303.3264 233.3938 281.0350 30542.1441 1.2292 45.3298
ENERGY: 1200000 0.4253 5.0158 3.6652 0.0000 -10546.3561 1367.6797 0.0000 0.0000 1777.7903 -7391.7799 302.6471 -9169.5701 -7485.2621 303.4238 -461.0263 -332.9256 30618.1776 -82.3992 -29.6391
ENERGY: 1500000 0.7437 5.1072 4.5941 0.0000 -10751.8709 1431.5169 0.0000 0.0000 1734.5253 -7575.3837 295.2817 -9309.9090 -7496.5684 302.5823 -334.5873 -240.3757 30216.1030 -86.4058 -31.0426
TCL: Running FEP window   5: Lambda1 0.2    Lambda2 0.25   [dLambda 0.04999999999999999]
TCL: Setting parameter firsttimestep to 0
TCL: Setting parameter alchLambda to 0.2
Info: NONBONDED TABLE R-SQUARED SPACING: 0.0625
Info: NONBONDED TABLE SIZE: 705 POINTS
TCL: Setting parameter alchLambda2 to 0.25
Info: NONBONDED TABLE R-SQUARED SPACING: 0.0625
Info: NONBONDED TABLE SIZE: 705 POINTS
TCL: Running for 1500000 steps
ETITLE: TS BOND ANGLE DIHED IMPRP ELECT VDW BOUNDARY MISC KINETIC TOTAL TEMP POTENTIAL TOTALAVG TEMPAVG PRESSURE GPRESSURE VOLUME PRESSAVG GPRESSAVG
ENERGY: 0 0.7437 5.1072 4.5941 0.0000 -10751.8712 1431.9687 0.0000 0.0000 1733.6318 -7575.8257 295.1296 -9309.4575 -7575.8257 295.1296 -327.0778 -237.9997 30216.1030 -327.0778 -237.9997
ENERGY: 300000 1.0996 4.0228 3.3018 0.0000 -10590.7507 1336.4213 0.0000 0.0000 1778.8085 -7467.0968 302.8204 -9245.9053 -7516.2681 298.8627 -665.1720 -682.3321 30505.1307 -248.4049 -203.9357
ENERGY: 600000 0.5299 4.3436 5.2169 0.0000 -10686.6442 1408.0270 0.0000 0.0000 1736.9404 -7531.5864 295.6929 -9268.5268 -7525.0457 297.4543 -138.2677 -4.1026 29967.6316 -191.4238 -132.8126
ENERGY: 900000 2.6070 6.4986 4.5261 0.0000 -10741.8091 1411.1246 0.0000 0.0000 1727.0472 -7590.0056 294.0087 -9317.0528 -7530.8535 298.0502 -533.7750 -457.2804 30365.1711 -178.4191 -110.4729
ENERGY: 1200000 0.1827 5.4624 4.1307 0.0000 -10737.8206 1501.5020 0.0000 0.0000 1748.4694 -7478.0734 297.6556 -9226.5428 -7516.8558 299.1742 487.9464 510.3048 30485.5233 -140.2103 -74.6769
ENERGY: 1500000 1.8544 2.6978 3.6921 0.0000 -10781.5003 1491.9248 0.0000 0.0000 1745.4368 -7535.8944 297.1393 -9281.3312 -7511.4247 298.8945 399.2007 465.6715 30304.4512 -90.8164 -20.9008
TCL: Running FEP window   6: Lambda1 0.25   Lambda2 0.3    [dLambda 0.04999999999999999]
TCL: Setting parameter firsttimestep to 0
TCL: Setting parameter alchLambda to 0.25
Info: NONBONDED TABLE R-SQUARED SPACING: 0.0625
Info: NONBONDED TABLE SIZE: 705 POINTS
TCL: Setting parameter alchLambda2 to 0.3
Info: NONBONDED TABLE R-SQUARED SPACING: 0.0625
Info: NONBONDED TABLE SIZE: 705 POINTS
TCL: Running for 1500000 steps
ETITLE: TS BOND ANGLE DIHED IMPRP ELECT VDW BOUNDARY MISC KINETIC TOTAL TEMP POTENTIAL TOTALAVG TEMPAVG PRESSURE GPRESSURE VOLUME PRESSAVG GPRESSAVG
ENERGY: 0 1.8544 2.6978 3.6921 0.0000 -10781.5009 1492.5997 0.0000 0.0000 1744.5720 -7536.0850 296.9921 -9280.6570 -7536.0850 296.9921 380.4331 471.7866 30304.4512 380.4331 471.7866
ENERGY: 300000 0.1205 3.8930 4.2048 0.0000 -10711.8389 1462.9439 0.0000 0.0000 1732.5206 -7508.1561 294.9405 -9240.6767 -7503.5036 297.7248 176.0640 248.7285 30292.7478 -22.5434 47.8014
ENERGY: 600000 0.8324 4.4978 3.4563 0.0000 -10798.2078 1478.2198 0.0000 0.0000 1833.7221 -7477.4794 312.1688 -9311.2016 -7501.2232 300.2302 181.3895 249.9718 30053.6179 -113.7556 -45.5324
ENERGY: 900000 1.5392 4.9489 4.0187 0.0000 -10742.7841 1404.6049 0.0000 0.0000 1802.0977 -7525.5747 306.7851 -9327.6724 -7504.7455 300.9554 -536.3861 -414.6282 29992.5971 -249.7472 -180.9425
ENERGY: 1200000 0.4836 4.0804 3.3810 0.0000 -10808.9224 1439.6383 0.0000 0.0000 1835.5753 -7525.7638 312.4843 -9361.3391 -7507.8860 301.7205 -204.5968 -118.6940 30135.4565 -250.2900 -177.2704
ENERGY: 1500000 1.1912 6.9150 3.7491 0.0000 -10600.6758 1370.5139 0.0000 0.0000 1756.5439 -7461.7628 299.0301 -9218.3066 -7503.9376 301.2231 -814.1783 -686.6283 30846.1898 -253.0214 -178.3198
TCL: Running FEP window   7: Lambda1 0.3    Lambda2 0.35   [dLambda 0.04999999999999999]
TCL: Setting parameter firsttimestep to 0
TCL: Setting parameter alchLambda to 0.3
Info: NONBONDED TABLE R-SQUARED SPACING: 0.0625
Info: NONBONDED TABLE SIZE: 705 POINTS
TCL: Setting parameter alchLambda2 to 0.35
Info: NONBONDED TABLE R-SQUARED SPACING: 0.0625
Info: NONBONDED TABLE SIZE: 705 POINTS
TCL: Running for 1500000 steps
ETITLE: TS BOND ANGLE DIHED IMPRP ELECT VDW BOUNDARY MISC KINETIC TOTAL TEMP POTENTIAL TOTALAVG TEMPAVG PRESSURE GPRESSURE VOLUME PRESSAVG GPRESSAVG
ENERGY: 0 1.1912 6.9150 3.7491 0.0000 -10600.6758 1370.6495 0.0000 0.0000 1755.6870 -7462.4841 298.8843 -9218.1711 -7462.4841 298.8843 -771.9148 -682.0125 30846.1898 -771.9148 -682.0125
ENERGY: 300000 0.1840 3.7869 3.4949 0.0000 -10718.2587 1447.0680 0.0000 0.0000 1775.0889 -7488.6360 302.1872 -9263.7249 -7469.5694 303.5879 -149.8593 -96.0487 30726.1145 -528.9267 -450.3445
ENERGY: 600000 0.1921 2.8504 3.5734 0.0000 -10783.2282 1458.1517 0.0000 0.0000 1725.5536 -7592.9070 293.7544 -9318.4605 -7498.3321 300.2478 39.8662 104.4921 29979.8602 -335.4514 -260.8771
ENERGY: 900000 0.7291 5.3511 3.4744 0.0000 -10646.6198 1418.8509 0.0000 0.0000 1716.9962 -7501.2181 292.2976 -9218.2143 -7499.7797 299.6287 -61.1692 -3.2306 30361.4518 -203.8603 -135.9326
ENERGY: 1200000 1.2121 1.8077 3.4934 0.0000 -10760.5728 1463.6606 0.0000 0.0000 1754.3612 -7536.0378 298.6586 -9290.3990 -7495.3095 299.3719 410.1912 457.7645 30079.3628 -133.6593 -72.2054
ENERGY: 1500000 2.3965 4.5775 3.7415 0.0000 -10650.8901 1382.7749 0.0000 0.0000 1749.7884 -7507.6114 297.8801 -9257.3998 -7495.0903 299.7879 -562.6244 -526.1077 30419.0433 -159.6111 -102.0165
TCL: Running FEP window   8: Lambda1 0.35   Lambda2 0.39999999999999997 [dLambda 0.04999999999999999]
TCL: Setting parameter firsttimestep to 0
TCL: Setting parameter alchLambda to 0.35
Info: NONBONDED TABLE R-SQUARED SPACING: 0.0625
Info: NONBONDED TABLE SIZE: 705 POINTS
TCL: Setting parameter alchLambda2 to 0.39999999999999997
Info: NONBONDED TABLE R-SQUARED SPACING: 0.0625
Info: NONBONDED TABLE SIZE: 705 POINTS
TCL: Running for 1500000 steps
ETITLE: TS BOND ANGLE DIHED IMPRP ELECT VDW BOUNDARY MISC KINETIC TOTAL TEMP POTENTIAL TOTALAVG TEMPAVG PRESSURE GPRESSURE VOLUME PRESSAVG GPRESSAVG
ENERGY: 0 2.3965 4.5775 3.7415 0.0000 -10650.8889 1383.2929 0.0000 0.0000 1748.9050 -7507.9755 297.7297 -9256.8805 -7507.9755 297.7297 -604.2446 -517.1022 30419.0433 -604.2446 -517.1022
ENERGY: 300000 0.4070 5.6559 4.0259 0.0000 -10533.4093 1292.5714 0.0000 0.0000 1774.9619 -7455.7872 302.1656 -9230.7491 -7476.9041 299.2909 -1255.2402 -1176.6201 31048.7088 -451.9082 -359.7835
ENERGY: 600000 0.9075 4.8998 4.0371 0.0000 -10748.5245 1463.6781 0.0000 0.0000 1721.8823 -7553.1197 293.1294 -9275.0020 -7501.0854 297.7666 150.3442 174.5082 30211.2347 -304.6566 -227.5903
ENERGY: 900000 0.4780 3.5947 4.4735 0.0000 -10626.4962 1353.7020 0.0000 0.0000 1742.3852 -7521.8629 296.6198 -9264.2481 -7502.2168 298.0300 -809.9962 -817.6109 30836.0158 -329.5143 -265.8454
ENERGY: 1200000 0.5227 3.2094 4.4930 0.0000 -10639.9609 1449.8507 0.0000 0.0000 1762.9572 -7418.9280 300.1219 -9181.8852 -7502.6383 297.9821 258.3362 277.3860 30489.4616 -219.0629 -153.9963
ENERGY: 1500000 0.8214 3.0194 3.8983 0.0000 -10685.0990 1430.2802 0.0000 0.0000 1753.9158 -7493.1640 298.5827 -9247.0797 -7500.1408 297.9510 -80.8914 28.5044 30524.5054 -234.7132 -161.4927
TCL: Running FEP window   9: Lambda1 0.39999999999999997 Lambda2 0.44999999999999996 [dLambda 0.04999999999999999]
TCL: Setting parameter firsttimestep to 0
TCL: Setting parameter alchLambda to 0.39999999999999997
Info: NONBONDED TABLE R-SQUARED SPACING: 0.0625
Info: NONBONDED TABLE SIZE: 705 POINTS
TCL: Setting parameter alchLambda2 to 0.44999999999999996
Info: NONBONDED TABLE R-SQUARED SPACING: 0.0625
Info: NONBONDED TABLE SIZE: 705 POINTS
TCL: Running for 1500000 steps
ETITLE: TS BOND ANGLE DIHED IMPRP ELECT VDW BOUNDARY MISC KINETIC TOTAL TEMP POTENTIAL TOTALAVG TEMPAVG PRESSURE GPRESSURE VOLUME PRESSAVG GPRESSAVG
ENERGY: 0 0.8214 3.0194 3.8983 0.0000 -10685.0975 1430.0167 0.0000 0.0000 1753.0506 -7494.2911 298.4354 -9247.3416 -7494.2911 298.4354 -59.7993 29.4848 30524.5054 -59.7993 29.4848
ENERGY: 300000 0.3869 5.6619 3.5531 0.0000 -10741.3622 1481.7479 0.0000 0.0000 1774.9820 -7475.0304 302.1690 -9250.0124 -7491.6082 300.0102 454.8989 505.7914 30106.0310 482.7224 551.7097
ENERGY: 600000 1.2390 4.1803 4.2491 0.0000 -10666.1193 1374.5608 0.0000 0.0000 1715.3218 -7566.5684 292.0126 -9281.8902 -7500.0751 298.5069 -815.1113 -744.2014 30672.1877 202.5828 270.0109
ENERGY: 900000 0.1057 3.1016 3.7727 0.0000 -10598.6042 1367.8323 0.0000 0.0000 1742.4401 -7481.3520 296.6291 -9223.7920 -7507.8204 298.8831 -532.2814 -422.3841 30506.5207 145.6766 217.0727
ENERGY: 1200000 0.3396 4.5721 4.1985 0.0000 -10805.9922 1503.9552 0.0000 0.0000 1775.5840 -7517.3428 302.2715 -9292.9267 -7503.0847 299.0236 425.6027 472.7688 30100.6068 112.4797 179.5999
ENERGY: 1500000 0.6425 8.1049 3.8273 0.0000 -10735.5613 1448.1176 0.0000 0.0000 1742.5013 -7532.3677 296.6396 -9274.8690 -7508.3197 299.1220 -226.8306 -207.4552 30737.8209 70.8031 139.9236
TCL: Running FEP window  10: Lambda1 0.44999999999999996 Lambda2 0.49999999999999994 [dLambda 0.04999999999999999]
TCL: Setting parameter firsttimestep to 0
TCL: Setting parameter alchLambda to 0.44999999999999996
Info: NONBONDED TABLE R-SQUARED SPACING: 0.0625
Info: NONBONDED TABLE SIZE: 705 POINTS
TCL: Setting parameter alchLambda2 to 0.49999999999999994
Info: NONBONDED TABLE R-SQUARED SPACING: 0.0625
Info: NONBONDED TABLE SIZE: 705 POINTS
TCL: Running for 1500000 steps
ETITLE: TS BOND ANGLE DIHED IMPRP ELECT VDW BOUNDARY MISC KINETIC TOTAL TEMP POTENTIAL TOTALAVG TEMPAVG PRESSURE GPRESSURE VOLUME PRESSAVG GPRESSAVG
ENERGY: 0 0.6425 8.1049 3.8273 0.0000 -10735.5598 1448.2414 0.0000 0.0000 1741.6068 -7533.1369 296.4873 -9274.7437 -7533.1369 296.4873 -286.3350 -202.4153 30737.8209 -286.3350 -202.4153
ENERGY: 300000 0.8414 3.4543 3.8046 0.0000 -10636.2474 1391.8862 0.0000 0.0000 1773.4460 -7462.8149 301.9075 -9236.2609 -7471.9699 301.1021 -56.4592 -29.6715 30210.0885 -86.9850 -11.7509
ENERGY: 600000 0.0407 3.6754 3.8111 0.0000 -10685.2411 1423.9910 0.0000 0.0000 1751.9466 -7501.7762 298.2475 -9253.7228 -7489.6131 299.6310 -219.2579 -163.5470 30351.0434 -197.9354 -131.5835
ENERGY: 900000 0.9285 3.0134 3.3866 0.0000 -10780.7772 1411.1483 0.0000 0.0000 1767.0783 -7595.2220 300.8235 -9362.3004 -7505.7116 299.2538 -440.1365 -338.2880 30162.1778 -278.0897 -200.9134
ENERGY: 1200000 2.8640 5.4632 3.6986 0.0000 -10764.5394 1459.4672 0.0000 0.0000 1721.4700 -7571.5763 293.0592 -9293.0463 -7517.5721 298.9040 18.0673 124.0885 30090.8431 -187.8069 -114.5605
ENERGY: 1500000 0.8784 2.4229 3.9467 0.0000 -10686.1535 1439.8863 0.0000 0.0000 1747.4273 -7491.5918 297.4782 -9239.0192 -7509.3726 298.5619 91.4961 156.0582 30225.1639 -94.0356 -25.5024
TCL: Running FEP window  11: Lambda1 0.49999999999999994 Lambda2 0.5499999999999999 [dLambda 0.04999999999999999]
TCL: Setting parameter firsttimestep to 0
TCL: Setting parameter alchLambda to 0.49999999999999994
Info: NONBONDED TABLE R-SQUARED SPACING: 0.0625
Info: NONBONDED TABLE SIZE: 705 POINTS
TCL: Setting parameter alchLambda2 to 0.5499999999999999
Info: NONBONDED TABLE R-SQUARED SPACING: 0.0625
Info: NONBONDED TABLE SIZE: 705 POINTS
TCL: Running for 1500000 steps
ETITLE: TS BOND ANGLE DIHED IMPRP ELECT VDW BOUNDARY MISC KINETIC TOTAL TEMP POTENTIAL TOTALAVG TEMPAVG PRESSURE GPRESSURE VOLUME PRESSAVG GPRESSAVG
ENERGY: 0 0.8784 2.4229 3.9467 0.0000 -10686.1533 1439.6789 0.0000 0.0000 1746.5156 -7492.7108 297.3230 -9239.2264 -7492.7108 297.3230 82.2312 159.8276 30225.1639 82.2312 159.8276
ENERGY: 300000 0.4593 2.7382 3.3902 0.0000 -10757.5594 1508.3430 0.0000 0.0000 1801.5454 -7441.0834 306.6911 -9242.6287 -7488.3323 298.9295 540.5612 599.5302 30505.7264 108.8215 187.4223
ENERGY: 600000 1.0004 7.2178 3.5046 0.0000 -10761.3345 1457.3636 0.0000 0.0000 1754.4394 -7537.8087 298.6719 -9292.2481 -7497.8911 298.4816 325.5366 347.6640 30138.6220 95.9438 162.2836
ENERGY: 900000 1.3958 3.7387 3.8618 0.0000 -10575.1709 1364.1195 0.0000 0.0000 1767.4798 -7434.5753 300.8919 -9202.0552 -7499.3840 299.6610 -642.4299 -537.2228 30785.2006 51.2018 108.4958
ENERGY: 1200000 0.3014 3.8887 3.6332 0.0000 -10763.4958 1456.7339 0.0000 0.0000 1809.2598 -7489.6788 308.0044 -9298.9386 -7493.7575 300.3569 315.5948 437.6042 29778.4368 35.0259 96.9304
ENERGY: 1500000 1.4106 3.7242 3.7814 0.0000 -10630.0014 1407.0546 0.0000 0.0000 1748.7824 -7465.2481 297.7088 -9214.0306 -7488.0910 300.9969 -288.8829 -207.7856 30710.2675 25.4646 89.5085
TCL: Running FEP window  12: Lambda1 0.5499999999999999 Lambda2 0.6    [dLambda 0.050000000000000044]
TCL: Setting parameter firsttimestep to 0
TCL: Setting parameter alchLambda to 0.5499999999999999
Info: NONBONDED TABLE R-SQUARED SPACING: 0.0625
Info: NONBONDED TABLE SIZE: 705 POINTS
TCL: Setting parameter alchLambda2 to 0.6
Info: NONBONDED TABLE R-SQUARED SPACING: 0.0625
Info: NONBONDED TABLE SIZE: 705 POINTS
TCL: Running for 1500000 steps
ETITLE: TS BOND ANGLE DIHED IMPRP ELECT VDW BOUNDARY MISC KINETIC TOTAL TEMP POTENTIAL TOTALAVG TEMPAVG PRESSURE GPRESSURE VOLUME PRESSAVG GPRESSAVG
ENERGY: 0 1.4106 3.7241 3.7814 0.0000 -10629.9686 1406.8163 0.0000 0.0000 1747.8989 -7466.3373 297.5584 -9214.2362 -7466.3373 297.5584 -286.7589 -205.3205 30710.2675 -286.7589 -205.3205
ENERGY: 300000 0.5476 6.1398 4.6133 0.0000 -10853.7728 1558.1817 0.0000 0.0000 1794.4086 -7489.8818 305.4761 -9284.2904 -7490.6223 297.1725 806.3590 905.1543 30254.8526 -42.9195 26.6382
ENERGY: 600000 1.1667 3.9024 4.0687 0.0000 -10766.3514 1467.6471 0.0000 0.0000 1770.4875 -7519.0790 301.4039 -9289.5665 -7480.6852 299.0841 315.2389 436.0448 29825.2003 -62.1896 19.9525
ENERGY: 900000 0.4270 7.3851 3.8285 0.0000 -10843.5950 1490.5865 0.0000 0.0000 1734.1645 -7607.2034 295.2203 -9341.3679 -7500.0542 299.3331 194.1115 279.1595 30319.8188 -49.8597 23.2013
ENERGY: 1200000 0.4657 4.2051 3.5500 0.0000 -10702.5067 1471.5063 0.0000 0.0000 1746.6107 -7476.1690 297.3391 -9222.7796 -7495.8762 300.2004 63.4829 84.6510 30672.8492 20.8875 85.3368
ENERGY: 1500000 1.0402 2.1664 3.4171 0.0000 -10744.0687 1530.6771 0.0000 0.0000 1770.9192 -7435.8487 301.4774 -9206.7678 -7501.8056 299.5207 946.2919 984.3011 30254.9514 82.0074 149.3340
TCL: Running FEP window  13: Lambda1 0.6    Lambda2 0.65   [dLambda 0.050000000000000044]
TCL: Setting parameter firsttimestep to 0
TCL: Setting parameter alchLambda to 0.6
Info: NONBONDED TABLE R-SQUARED SPACING: 0.0625
Info: NONBONDED TABLE SIZE: 705 POINTS
TCL: Setting parameter alchLambda2 to 0.65
Info: NONBONDED TABLE R-SQUARED SPACING: 0.0625
Info: NONBONDED TABLE SIZE: 705 POINTS
TCL: Running for 1500000 steps
ETITLE: TS BOND ANGLE DIHED IMPRP ELECT VDW BOUNDARY MISC KINETIC TOTAL TEMP POTENTIAL TOTALAVG TEMPAVG PRESSURE GPRESSURE VOLUME PRESSAVG GPRESSAVG
ENERGY: 0 1.0402 2.1664 3.4171 0.0000 -10744.2503 1531.1940 0.0000 0.0000 1770.0433 -7436.3892 301.3283 -9206.4326 -7436.3892 301.3283 926.8094 998.5106 30254.9514 926.8094 998.5106
ENERGY: 300000 2.2965 6.1324 3.4567 0.0000 -10933.0008 1563.9859 0.0000 0.0000 1788.2067 -7568.9226 304.4203 -9357.1293 -7508.9904 300.0565 886.9848 969.3644 29886.5828 421.2471 473.2197
ENERGY: 600000 0.4064 7.9309 5.3684 0.0000 -10788.8264 1495.3838 0.0000 0.0000 1800.7418 -7478.9951 306.5543 -9279.7369 -7517.3779 300.2178 797.3951 844.5449 29749.8610 161.8912 213.7095
ENERGY: 900000 2.3883 5.0116 3.3142 0.0000 -10694.1527 1394.3042 0.0000 0.0000 1775.3714 -7513.7630 302.2353 -9289.1344 -7532.2461 300.3681 -246.8966 -146.9449 29939.2739 74.2272 125.8026
ENERGY: 1200000 0.1102 3.9708 4.0186 0.0000 -10625.3563 1378.1446 0.0000 0.0000 1775.5181 -7463.5940 302.2603 -9239.1121 -7524.1983 300.7374 -373.0029 -313.5257 30468.1010 20.0292 76.3341
ENERGY: 1500000 0.1112 7.7798 3.3977 0.0000 -10719.1994 1401.8228 0.0000 0.0000 1765.6036 -7540.4841 300.5724 -9306.0878 -7515.2981 301.1109 -258.9240 -188.0536 30085.9083 76.9770 131.6852
TCL: Running FEP window  14: Lambda1 0.65   Lambda2 0.7000000000000001 [dLambda 0.050000000000000044]
TCL: Setting parameter firsttimestep to 0
TCL: Setting parameter alchLambda to 0.65
Info: NONBONDED TABLE R-SQUARED SPACING: 0.0625
Info: NONBONDED TABLE SIZE: 705 POINTS
TCL: Setting parameter alchLambda2 to 0.7000000000000001
Info: NONBONDED TABLE R-SQUARED SPACING: 0.0625
Info: NONBONDED TABLE SIZE: 705 POINTS
TCL: Running for 1500000 steps
ETITLE: TS BOND ANGLE DIHED IMPRP ELECT VDW BOUNDARY MISC KINETIC TOTAL TEMP POTENTIAL TOTALAVG TEMPAVG PRESSURE GPRESSURE VOLUME PRESSAVG GPRESSAVG
ENERGY: 0 0.1112 7.7798 3.3977 0.0000 -10719.2885 1402.0830 0.0000 0.0000 1764.6945 -7541.2223 300.4177 -9305.9167 -7541.2223 300.4177 -271.2298 -179.7452 30085.9083 -271.2298 -179.7452
ENERGY: 300000 0.1102 2.6112 3.3246 0.0000 -10652.4490 1437.9116 0.0000 0.0000 1711.7778 -7496.7136 291.4093 -9208.4914 -7547.1871 300.3066 149.9625 170.9618 30517.1997 55.3275 140.7015
ENERGY: 600000 0.5818 5.0308 3.4059 0.0000 -10646.6951 1409.3215 0.0000 0.0000 1734.4076 -7493.9475 295.2617 -9228.3551 -7540.1566 300.1434 -135.0637 -81.3811 30619.9116 69.3345 135.7112
ENERGY: 900000 1.8808 4.7668 4.5728 0.0000 -10636.7697 1420.7216 0.0000 0.0000 1780.3383 -7424.4895 303.0809 -9204.8278 -7534.8686 299.2274 92.8513 174.5533 30134.6570 -7.3519 68.5271
ENERGY: 1200000 1.0647 3.5067 3.2921 0.0000 -10749.5736 1513.0367 0.0000 0.0000 1786.2630 -7442.4105 304.0895 -9228.6735 -7524.8145 299.0752 378.6585 473.7414 30789.5865 111.3402 188.7017
ENERGY: 1500000 2.7578 5.1253 3.4004 0.0000 -10671.7694 1422.3938 0.0000 0.0000 1802.4368 -7435.6552 306.8428 -9238.0920 -7513.1652 300.0602 -37.8751 78.3698 30241.8913 44.6780 122.5625
TCL: Running FEP window  15: Lambda1 0.7000000000000001 Lambda2 0.7500000000000001 [dLambda 0.050000000000000044]
TCL: Setting parameter firsttimestep to 0
TCL: Setting parameter alchLambda to 0.7000000000000001
Info: NONBONDED TABLE R-SQUARED SPACING: 0.0625
Info: NONBONDED TABLE SIZE: 705 POINTS
TCL: Setting parameter alchLambda2 to 0.7500000000000001
Info: NONBONDED TABLE R-SQUARED SPACING: 0.0625
Info: NONBONDED TABLE SIZE: 705 POINTS
TCL: Running for 1500000 steps
ETITLE: TS BOND ANGLE DIHED IMPRP ELECT VDW BOUNDARY MISC KINETIC TOTAL TEMP POTENTIAL TOTALAVG TEMPAVG PRESSURE GPRESSURE VOLUME PRESSAVG GPRESSAVG
ENERGY: 0 2.7578 5.1253 3.4004 0.0000 -10671.6896 1423.1758 0.0000 0.0000 1801.5456 -7435.6847 306.6911 -9237.2303 -7435.6847 306.6911 16.3694 93.5384 30241.8913 16.3694 93.5384
ENERGY: 300000 0.2468 3.0222 3.8646 0.0000 -10661.1973 1357.3405 0.0000 0.0000 1789.5028 -7507.2204 304.6410 -9296.7232 -7467.3385 302.8187 -617.7662 -584.4904 30415.2845 -70.8514 -27.0631
ENERGY: 600000 1.1913 2.9111 5.0491 0.0000 -10812.0977 1430.7822 0.0000 0.0000 1737.5032 -7634.6608 295.7887 -9372.1641 -7515.1235 301.8493 -424.9729 -363.2844 30404.1765 -50.3829 -1.9043
ENERGY: 900000 1.4173 3.0833 4.2185 0.0000 -10703.6677 1443.5351 0.0000 0.0000 1794.8329 -7456.5805 305.5484 -9251.4134 -7517.8028 302.0973 -156.9061 -55.4840 30457.8577 0.3618 54.8691
ENERGY: 1200000 0.3055 2.1211 4.4711 0.0000 -10665.8265 1464.8995 0.0000 0.0000 1749.6075 -7444.4218 297.8493 -9194.0293 -7507.1839 302.6884 250.9573 301.8399 30790.1013 -19.2804 37.6321
ENERGY: 1500000 1.2969 5.4343 3.8160 0.0000 -10834.9472 1552.0762 0.0000 0.0000 1734.8376 -7537.4862 295.3349 -9272.3238 -7507.8373 301.8956 771.6602 852.0025 30406.4473 -10.0458 48.6558
TCL: Running FEP window  16: Lambda1 0.7500000000000001 Lambda2 0.8000000000000002 [dLambda 0.050000000000000044]
TCL: Setting parameter firsttimestep to 0
TCL: Setting parameter alchLambda to 0.7500000000000001
Info: NONBONDED TABLE R-SQUARED SPACING: 0.0625
Info: NONBONDED TABLE SIZE: 705 POINTS
TCL: Setting parameter alchLambda2 to 0.8000000000000002
Info: NONBONDED TABLE R-SQUARED SPACING: 0.0625
Info: NONBONDED TABLE SIZE: 705 POINTS
TCL: Running for 1500000 steps
ETITLE: TS BOND ANGLE DIHED IMPRP ELECT VDW BOUNDARY MISC KINETIC TOTAL TEMP POTENTIAL TOTALAVG TEMPAVG PRESSURE GPRESSURE VOLUME PRESSAVG GPRESSAVG
ENERGY: 0 1.2969 5.4343 3.8160 0.0000 -10834.9665 1552.4457 0.0000 0.0000 1733.9695 -7538.0041 295.1871 -9271.9736 -7538.0041 295.1871 779.3562 862.5106 30406.4473 779.3562 862.5106
ENERGY: 300000 0.7337 7.4084 3.3766 0.0000 -10822.4953 1463.7487 0.0000 0.0000 1791.2568 -7555.9711 304.9396 -9347.2279 -7519.3032 299.3743 101.1042 110.8542 30139.6381 526.4861 580.7676
ENERGY: 600000 0.6983 8.9586 3.4622 0.0000 -10798.9689 1503.7309 0.0000 0.0000 1835.4803 -7446.6386 312.4681 -9282.1189 -7482.7528 301.4154 484.0144 615.2573 30166.0052 269.1844 342.6569
ENERGY: 900000 0.7540 2.5923 4.4862 0.0000 -10545.1455 1289.6597 0.0000 0.0000 1745.7615 -7501.8919 297.1946 -9247.6534 -7483.3091 301.4165 -1225.1236 -1160.7283 30696.3433 126.2279 189.7538
ENERGY: 1200000 2.7205 3.0980 4.5734 0.0000 -10654.2635 1408.6909 0.0000 0.0000 1789.0982 -7446.0825 304.5721 -9235.1808 -7473.4324 301.2217 -109.8847 -81.9401 30388.7585 109.9132 164.6511
ENERGY: 1500000 1.5445 2.7995 4.3492 0.0000 -10768.6184 1431.7882 0.0000 0.0000 1724.3799 -7603.7571 293.5546 -9328.1370 -7491.1207 300.3819 -535.5598 -439.1944 30367.4407 54.9442 109.8650
TCL: Running FEP window  17: Lambda1 0.8000000000000002 Lambda2 0.8500000000000002 [dLambda 0.050000000000000044]
TCL: Setting parameter firsttimestep to 0
TCL: Setting parameter alchLambda to 0.8000000000000002
Info: NONBONDED TABLE R-SQUARED SPACING: 0.0625
Info: NONBONDED TABLE SIZE: 705 POINTS
TCL: Setting parameter alchLambda2 to 0.8500000000000002
Info: NONBONDED TABLE R-SQUARED SPACING: 0.0625
Info: NONBONDED TABLE SIZE: 705 POINTS
TCL: Running for 1500000 steps
ETITLE: TS BOND ANGLE DIHED IMPRP ELECT VDW BOUNDARY MISC KINETIC TOTAL TEMP POTENTIAL TOTALAVG TEMPAVG PRESSURE GPRESSURE VOLUME PRESSAVG GPRESSAVG
ENERGY: 0 1.5445 2.7995 4.3492 0.0000 -10768.8118 1432.2204 0.0000 0.0000 1723.5098 -7604.3885 293.4065 -9327.8983 -7604.3885 293.4065 -496.9927 -424.7940 30367.4407 -496.9927 -424.7940
ENERGY: 300000 1.4661 5.2089 4.6473 0.0000 -10669.3390 1357.0980 0.0000 0.0000 1739.9893 -7560.9295 296.2119 -9300.9187 -7574.2742 297.0921 -815.4286 -732.8186 30653.7428 -578.1166 -497.3995
ENERGY: 600000 0.2785 3.3017 3.9306 0.0000 -10608.9509 1343.2702 0.0000 0.0000 1775.8395 -7482.3305 302.3150 -9258.1700 -7552.2050 298.0989 -549.1124 -490.1450 30316.2982 -228.2489 -155.6249
ENERGY: 900000 1.1238 3.4760 3.9444 0.0000 -10747.8213 1461.5727 0.0000 0.0000 1777.6808 -7500.0237 302.6284 -9277.7045 -7543.5782 299.2343 134.5598 231.6921 30381.3035 -111.4463 -34.5078
ENERGY: 1200000 0.6506 7.9372 3.5711 0.0000 -10600.0436 1326.5020 0.0000 0.0000 1766.3014 -7495.0813 300.6912 -9261.3827 -7540.3088 299.8153 -697.6720 -627.3488 30332.5063 -124.4788 -45.5449
ENERGY: 1500000 1.3604 1.9393 3.3240 0.0000 -10689.7723 1465.6775 0.0000 0.0000 1760.6120 -7456.8592 299.7227 -9217.4712 -7528.8524 299.3783 391.0489 455.1525 30207.0160 -117.8234 -39.1024
TCL: Running FEP window  18: Lambda1 0.8500000000000002 Lambda2 0.9000000000000002 [dLambda 0.050000000000000044]
TCL: Setting parameter firsttimestep to 0
TCL: Setting parameter alchLambda to 0.8500000000000002
Info: NONBONDED TABLE R-SQUARED SPACING: 0.0625
Info: NONBONDED TABLE SIZE: 705 POINTS
TCL: Setting parameter alchLambda2 to 0.9000000000000002
Info: NONBONDED TABLE R-SQUARED SPACING: 0.0625
Info: NONBONDED TABLE SIZE: 705 POINTS
TCL: Running for 1500000 steps
ETITLE: TS BOND ANGLE DIHED IMPRP ELECT VDW BOUNDARY MISC KINETIC TOTAL TEMP POTENTIAL TOTALAVG TEMPAVG PRESSURE GPRESSURE VOLUME PRESSAVG GPRESSAVG
ENERGY: 0 1.3604 1.9393 3.3240 0.0000 -10689.8777 1465.4321 0.0000 0.0000 1759.7570 -7458.0650 299.5771 -9217.8220 -7458.0650 299.5771 373.4062 455.2966 30207.0160 373.4062 455.2966
ENERGY: 300000 1.3052 3.2351 3.8160 0.0000 -10641.9761 1429.9932 0.0000 0.0000 1740.0379 -7463.5887 296.2202 -9203.6266 -7457.6792 299.4812 98.2711 149.2847 30502.3276 24.0264 86.6791
ENERGY: 600000 1.3137 2.1081 3.3137 0.0000 -10589.6982 1324.4736 0.0000 0.0000 1815.0457 -7443.4434 308.9894 -9258.4891 -7480.3778 298.9291 -883.0044 -835.5246 30699.3275 -238.7890 -183.2095
ENERGY: 900000 1.1994 4.1386 3.4354 0.0000 -10708.8216 1473.0149 0.0000 0.0000 1792.2177 -7434.8157 305.1032 -9227.0334 -7482.6332 299.6318 103.0671 169.8894 30960.4656 -110.6699 -54.5785
ENERGY: 1200000 0.6119 7.3233 4.8600 0.0000 -10684.9735 1368.7150 0.0000 0.0000 1741.4382 -7562.0249 296.4586 -9303.4632 -7503.3332 299.1040 -918.4345 -857.1924 30704.9758 -165.3743 -100.9993
ENERGY: 1500000 0.1659 2.1345 4.4433 0.0000 -10799.2194 1510.6616 0.0000 0.0000 1743.1067 -7538.7073 296.7426 -9281.8140 -7504.2232 298.7013 467.6436 544.1531 30424.6341 -156.2477 -86.6308
TCL: Running FEP window  19: Lambda1 0.9000000000000002 Lambda2 0.9500000000000003 [dLambda 0.050000000000000044]
TCL: Setting parameter firsttimestep to 0
TCL: Setting parameter alchLambda to 0.9000000000000002
Info: NONBONDED TABLE R-SQUARED SPACING: 0.0625
Info: NONBONDED TABLE SIZE: 705 POINTS
TCL: Setting parameter alchLambda2 to 0.9500000000000003
Info: NONBONDED TABLE R-SQUARED SPACING: 0.0625
Info: NONBONDED TABLE SIZE: 705 POINTS
TCL: Running for 1500000 steps
ETITLE: TS BOND ANGLE DIHED IMPRP ELECT VDW BOUNDARY MISC KINETIC TOTAL TEMP POTENTIAL TOTALAVG TEMPAVG PRESSURE GPRESSURE VOLUME PRESSAVG GPRESSAVG
ENERGY: 0 0.1659 2.1345 4.4433 0.0000 -10799.3604 1510.2172 0.0000 0.0000 1742.2450 -7540.1546 296.5959 -9282.3995 -7540.1546 296.5959 461.7474 546.1797 30424.6341 461.7474 546.1797
ENERGY: 300000 0.4289 5.8642 3.3836 0.0000 -10720.9291 1428.8909 0.0000 0.0000 1796.4461 -7485.9155 305.8230 -9282.3615 -7459.1408 302.0796 -284.4807 -224.0827 30773.2329 -167.7810 -108.5842
ENERGY: 600000 0.7385 5.7446 3.6573 0.0000 -10712.5314 1421.9659 0.0000 0.0000 1741.6344 -7538.7907 296.4920 -9280.4251 -7480.9498 302.0138 -331.7408 -300.4083 30817.4363 172.2208 211.0598
ENERGY: 900000 0.4243 4.9931 3.5120 0.0000 -10875.4392 1530.8470 0.0000 0.0000 1779.3386 -7556.3242 302.9107 -9335.6628 -7488.9349 301.4455 547.7918 610.4079 30218.5327 201.7448 248.7383
ENERGY: 1200000 3.6816 5.5789 3.3655 0.0000 -10610.8331 1451.4398 0.0000 0.0000 1827.6012 -7319.1662 311.1268 -9146.7674 -7488.8755 301.7080 372.4390 412.6012 30872.3211 106.6976 158.3361
ENERGY: 1500000 0.2029 3.6117 3.9988 0.0000 -10685.2479 1440.3665 0.0000 0.0000 1730.6228 -7506.4453 294.6174 -9237.0681 -7484.3115 301.4235 -68.9718 13.9259 30911.4091 33.5771 92.0022
TCL: Running FEP window  20: Lambda1 0.9500000000000003 Lambda2 1.0    [dLambda 0.04999999999999971]
TCL: Setting parameter firsttimestep to 0
TCL: Setting parameter alchLambda to 0.9500000000000003
Info: NONBONDED TABLE R-SQUARED SPACING: 0.0625
Info: NONBONDED TABLE SIZE: 705 POINTS
TCL: Setting parameter alchLambda2 to 1.0
Info: NONBONDED TABLE R-SQUARED SPACING: 0.0625
Info: NONBONDED TABLE SIZE: 705 POINTS
TCL: Running for 1500000 steps
ETITLE: TS BOND ANGLE DIHED IMPRP ELECT VDW BOUNDARY MISC KINETIC TOTAL TEMP POTENTIAL TOTALAVG TEMPAVG PRESSURE GPRESSURE VOLUME PRESSAVG GPRESSAVG
ENERGY: 0 0.2029 3.6117 3.9988 0.0000 -10685.4122 1439.9988 0.0000 0.0000 1729.7270 -7507.8729 294.4649 -9237.6000 -7507.8729 294.4649 -73.5930 18.8893 30911.4091 -73.5930 18.8893
ENERGY: 300000 0.1638 3.4643 4.0425 0.0000 -10787.1899 1437.0958 0.0000 0.0000 1752.8404 -7589.5831 298.3997 -9342.4235 -7509.6955 300.0483 -344.1508 -232.3210 30370.4793 -259.4415 -171.9535
ENERGY: 600000 1.0329 2.4103 3.5804 0.0000 -10840.3490 1535.2746 0.0000 0.0000 1821.8297 -7476.2211 310.1442 -9298.0507 -7515.6617 300.8969 750.7282 751.7889 30556.0594 -128.8978 -50.4809
ENERGY: 900000 1.4531 4.7895 3.3430 0.0000 -10744.1581 1393.1392 0.0000 0.0000 1786.2451 -7555.1882 304.0864 -9341.4333 -7532.7942 300.6875 -539.1761 -468.8862 30341.6665 -192.5954 -123.7044
ENERGY: 1200000 0.1623 3.4951 3.6975 0.0000 -10754.1749 1427.9522 0.0000 0.0000 1764.4398 -7554.4280 300.3743 -9318.8678 -7529.3677 300.1571 -126.7512 -45.2529 30257.3256 -185.5581 -109.6442
ENERGY: 1500000 0.0937 7.4230 4.1898 0.0000 -10747.4776 1490.4871 0.0000 0.0000 1772.6701 -7472.6139 301.7754 -9245.2839 -7524.2452 299.9949 220.5509 377.4469 30741.5013 -159.8416 -80.8806
TCL: Exiting due to exit command.
