Info: SIMULATION PARAMETERS:
Info: TIMESTEP               2
Info: NUMBER OF STEPS        0
Info: STEPS PER CYCLE        10
Info: PERIODIC CELL BASIS 1  31.5513 0 0
Info: PERIODIC CELL BASIS 2  0 30.5017 0
Info: PERIODIC CELL BASIS 3  0 0 31.3351
Info: PERIODIC CELL CENTER   0 0 0
Info: WRAPPING WATERS AROUND PERIODIC BOUNDARIES ON OUTPUT.
Info: WRAPPING ALL CLUSTERS AROUND PERIODIC BOUNDARIES ON OUTPUT.
Info: FIRST LDB TIMESTEP     50
Info: LAST LDB TIMESTEP     -1
Info: HOM BACKGROUND SCALING 1
Info: PME BACKGROUND SCALING 1
Info: MIN ATOMS PER PATCH    40
Info: EMPTY PATCH LOAD       40 ATOMS
Info: VELOCITY FILE          mobley_511661_equil.vel
Info: CENTER OF MASS MOVING INITIALLY? NO
Info: DIELECTRIC             1
Info: EXCLUDE                SCALED ONE-FOUR
Info: 1-4 ELECTROSTATICS SCALED BY 0.833333
Info: MODIFIED 1-4 VDW PARAMETERS WILL BE USED
Info: DCD FILENAME           mobley_511661_prod.dcd
Info: DCD FREQUENCY          100000
Info: DCD FIRST STEP         100000
Info: DCD FILE WILL CONTAIN UNIT CELL DATA
Info: XST FILENAME           mobley_511661_prod.xst
Info: XST FREQUENCY          100000
Info: NO VELOCITY DCD OUTPUT
Info: NO FORCE DCD OUTPUT
Info: OUTPUT FILENAME        mobley_511661_prod
Info: BINARY OUTPUT FILES WILL BE USED
Info: RESTART FILENAME       mobley_511661_prod.restart
Info: RESTART FREQUENCY      100000
Info: BINARY RESTART FILES WILL BE USED
Info: CUTOFF                 9
Info: PAIRLIST DISTANCE      11
Info: PAIRLIST SHRINK RATE   0.01
Info: PAIRLIST GROW RATE     0.01
Info: PAIRLIST TRIGGER       0.3
Info: PAIRLISTS PER CYCLE    2
Info: PAIRLISTS ENABLED
Info: MARGIN                 2
Info: HYDROGEN GROUP CUTOFF  2.5
Info: PATCH DIMENSION        15.5
Info: ENERGY OUTPUT STEPS    100000
Info: ENERGY EVALUATION STEPS    100000
Info: OUTPUT ENERGY PRECISION 4
Info: CROSSTERM ENERGY INCLUDED IN DIHEDRAL
Info: TIMING OUTPUT STEPS    1000000
Info: PRESSURE OUTPUT STEPS  100000
Info: ALCHEMICAL FEP ON
Info: FEP CURRENT LAMBDA VALUE     1
Info: FEP COMPARISON LAMBDA VALUE  0.95
Info: FEP INTRA-ALCHEMICAL NON-BONDED INTERACTIONS WILL BE RETAINED
Info: FEP INTRA-ALCHEMICAL BONDED INTERACTIONS WILL BE RETAINED
Info: FEP VDW SHIFTING COEFFICIENT 5
Info: FEP ELEC. ACTIVE FOR ANNIHILATED PARTICLES BETWEEN LAMBDA = 0 AND LAMBDA = 0.5
Info: FEP ELEC. ACTIVE FOR EXNIHILATED PARTICLES BETWEEN LAMBDA = 0.5 AND LAMBDA = 1
Info: FEP VDW ACTIVE FOR ANNIHILATED PARTICLES BETWEEN LAMBDA = 0 AND LAMBDA = 1
Info: FEP VDW ACTIVE FOR EXNIHILATED PARTICLES BETWEEN LAMBDA = 0 AND LAMBDA = 1
Info: FEP BOND ACTIVE FOR ANNIHILATED PARTICLES BETWEEN LAMBDA = 1 AND LAMBDA = 1
Info: FEP BOND ACTIVE FOR EXNIHILATED PARTICLES BETWEEN LAMBDA = 0 AND LAMBDA = 0
Info: LANGEVIN DYNAMICS ACTIVE
Info: LANGEVIN TEMPERATURE   300
Info: LANGEVIN USING BBK INTEGRATOR
Info: LANGEVIN DAMPING COEFFICIENT IS 1 INVERSE PS
Info: LANGEVIN DYNAMICS APPLIED TO HYDROGENS
Info: LANGEVIN PISTON PRESSURE CONTROL ACTIVE
Info:        TARGET PRESSURE IS 1.01325 BAR
Info:     OSCILLATION PERIOD IS 50 FS
Info:             DECAY TIME IS 25 FS
Info:     PISTON TEMPERATURE IS 300 K
Info:       PRESSURE CONTROL IS GROUP-BASED
Info:    INITIAL STRAIN RATE IS -0.000614788 -0.000614788 -0.000614788
Info:       CELL FLUCTUATION IS ISOTROPIC
Info: PARTICLE MESH EWALD (PME) ACTIVE
Info: PME TOLERANCE               1e-06
Info: PME EWALD COEFFICIENT       0.348832
Info: PME INTERPOLATION ORDER     4
Info: PME GRID DIMENSIONS         32 32 32
Info: PME MAXIMUM GRID SPACING    1
Info: PME CALCULATION WILL BE PERFORMED ON GPU
Info: FULL ELECTROSTATIC EVALUATION FREQUENCY      2
Info: USING VERLET I (r-RESPA) MTS SCHEME.
Info: C1 SPLITTING OF LONG RANGE ELECTROSTATICS
Info: PLACING ATOMS IN PATCHES BY HYDROGEN GROUPS
Info: RIGID BONDS TO HYDROGEN : ALL
Info:         ERROR TOLERANCE : 1e-08
Info:          MAX ITERATIONS : 100
Info: RIGID WATER USING SETTLE ALGORITHM
Info: RANDOM NUMBER SEED     1743676961
Info: USE HYDROGEN BONDS?    NO
Info: Using AMBER format force field!
Info: AMBER PARM FILE        mobley_511661.prmtop
Info: COORDINATE PDB         mobley_511661.pdb
Info: Exclusions will be read from PARM file!
Info: SCNB (VDW SCALING)     2
Info: USING ARITHMETIC MEAN TO COMBINE L-J SIGMA PARAMETERS
Info: BINARY COORDINATES     mobley_511661_equil.coor
Info: SUMMARY OF PARAMETERS:
Info: 6 BONDS
Info: 5 ANGLES
Info:   5 HARMONIC
Info:   0 COSINE-BASED
Info: 3 DIHEDRAL
Info: 0 IMPROPER
Info: 0 CROSSTERM
Info: 0 VDW
Info: 10 VDW_PAIRS
Info: 0 NBTHOLE_PAIRS
Info: To read alchdata from file: mobley_511661.pdb
Info: To read alchflag data from column: 5
Info: STRUCTURE SUMMARY:
Info: 2929 ATOMS
Info: 2928 BONDS
Info: 12 ANGLES
Info: 16 DIHEDRALS
Info: 0 IMPROPERS
Info: 0 CROSSTERMS
Info: 2952 EXCLUSIONS
Info: 2925 RIGID BONDS
Info: ALCH: 0 ATOMS TO DISAPPEAR IN FINAL STATE
Info: ALCH: 10 ATOMS TO APPEAR IN FINAL STATE
Info: 5862 DEGREES OF FREEDOM
Info: 977 HYDROGEN GROUPS
Info: 3 ATOMS IN LARGEST HYDROGEN GROUP
Info: 977 MIGRATION GROUPS
Info: 3 ATOMS IN LARGEST MIGRATION GROUP
Info: TOTAL MASS = 17583.7 amu
Info: TOTAL CHARGE = -1.49012e-08 e
Info: MASS DENSITY = 0.968272 g/cm^3
Info: ATOM DENSITY = 0.0971288 atoms/A^3
Info: ADDED 0 IMPLICIT EXCLUSIONS
Info: NONBONDED TABLE R-SQUARED SPACING: 0.0625
Info: NONBONDED TABLE SIZE: 705 POINTS
Info: REMOVING COM VELOCITY 0.193439 0.0623097 0.0266494
Info: Use 3D box decompostion in PME FFT.
Info: Updated CUDA force table with 4096 elements.
Info: Updated CUDA LJ table with 4 x 4 elements.
Info: Found 12 unique exclusion lists needing 16 bytes
TCL: Running for 1500000 steps
ETITLE: TS BOND ANGLE DIHED IMPRP ELECT VDW BOUNDARY MISC KINETIC TOTAL TEMP POTENTIAL TOTALAVG TEMPAVG PRESSURE GPRESSURE VOLUME PRESSAVG GPRESSAVG
ENERGY: 0 0.0797 1.1177 3.7069 0.0000 -10777.2391 1501.7116 0.0000 0.0000 1772.2918 -7498.3315 304.2845 -9270.6232 -7498.3315 304.2845 319.4394 401.2192 30155.8258 319.4394 401.2192
ENERGY: 300000 1.2102 3.2316 3.7632 0.0000 -10667.8990 1438.5137 0.0000 0.0000 1761.4573 -7459.7230 302.4243 -9221.1803 -7499.0750 301.6729 -19.3357 88.3269 30119.4090 10.0076 91.3991
ENERGY: 600000 1.2182 1.8792 1.3120 0.0000 -10702.1979 1408.0565 0.0000 0.0000 1704.0208 -7585.7111 292.5630 -9289.7319 -7500.4114 300.0280 -250.9637 -203.6282 29739.8663 -108.1966 -33.1313
ENERGY: 900000 2.0750 2.6762 1.4966 0.0000 -10585.1499 1371.2371 0.0000 0.0000 1753.8502 -7453.8149 301.1182 -9207.6650 -7485.1709 299.8591 -841.3436 -743.0878 30808.4655 -234.1088 -156.0556
ENERGY: 1200000 0.6065 0.8788 1.1156 0.0000 -10797.5421 1583.4699 0.0000 0.0000 1786.4516 -7425.0197 306.7156 -9211.4713 -7467.0807 300.2996 1541.1505 1585.2180 29517.1997 -24.6525 45.9551
ENERGY: 1500000 1.4180 3.8259 1.3682 0.0000 -10578.3638 1405.5611 0.0000 0.0000 1733.4967 -7432.6937 297.6238 -9166.1905 -7466.4375 299.4197 75.5092 137.8884 29980.6305 -39.7795 31.7119
TCL: Running FEP window   2: Lambda1 0.95   Lambda2 0.8999999999999999 [dLambda -0.050000000000000044]
TCL: Setting parameter firsttimestep to 0
TCL: Setting parameter alchLambda to 0.95
Info: NONBONDED TABLE R-SQUARED SPACING: 0.0625
Info: NONBONDED TABLE SIZE: 705 POINTS
TCL: Setting parameter alchLambda2 to 0.8999999999999999
Info: NONBONDED TABLE R-SQUARED SPACING: 0.0625
Info: NONBONDED TABLE SIZE: 705 POINTS
TCL: Running for 1500000 steps
ETITLE: TS BOND ANGLE DIHED IMPRP ELECT VDW BOUNDARY MISC KINETIC TOTAL TEMP POTENTIAL TOTALAVG TEMPAVG PRESSURE GPRESSURE VOLUME PRESSAVG GPRESSAVG
ENERGY: 0 1.4180 3.8259 1.3682 0.0000 -10578.2673 1405.7151 0.0000 0.0000 1732.6073 -7433.3327 297.4711 -9165.9400 -7433.3327 297.4711 43.7096 133.3594 29980.6305 43.7096 133.3594
ENERGY: 300000 0.7261 1.8435 1.4439 0.0000 -10560.0290 1388.7283 0.0000 0.0000 1759.5467 -7407.7405 302.0963 -9167.2871 -7395.5880 301.8445 34.5007 114.8451 29439.5179 253.2587 316.6006
ENERGY: 600000 0.6557 6.8588 3.9781 0.0000 -10646.0947 1495.9194 0.0000 0.0000 1750.8094 -7387.8733 300.5962 -9138.6827 -7424.5182 303.3118 422.2895 506.9122 30478.0679 45.9119 105.1743
ENERGY: 900000 1.2562 2.2808 3.0752 0.0000 -10553.6288 1390.6118 0.0000 0.0000 1787.3177 -7369.0870 306.8643 -9156.4047 -7413.3327 303.7478 -297.9973 -286.2133 30364.1370 -84.8552 -31.8332
ENERGY: 1200000 1.0850 2.2209 2.1409 0.0000 -10656.4595 1448.9194 0.0000 0.0000 1750.6191 -7451.4742 300.5635 -9202.0933 -7413.3037 303.1469 -161.1425 -60.4520 30568.7777 -0.5169 56.2138
ENERGY: 1500000 1.8376 2.4601 2.2638 0.0000 -10625.2031 1404.0064 0.0000 0.0000 1758.2660 -7456.3692 301.8764 -9214.6352 -7422.1388 302.5744 -355.8943 -388.2358 30360.9538 -83.8971 -34.8639
TCL: Running FEP window   3: Lambda1 0.8999999999999999 Lambda2 0.8499999999999999 [dLambda -0.050000000000000044]
TCL: Setting parameter firsttimestep to 0
TCL: Setting parameter alchLambda to 0.8999999999999999
Info: NONBONDED TABLE R-SQUARED SPACING: 0.0625
Info: NONBONDED TABLE SIZE: 705 POINTS
TCL: Setting parameter alchLambda2 to 0.8499999999999999
Info: NONBONDED TABLE R-SQUARED SPACING: 0.0625
Info: NONBONDED TABLE SIZE: 705 POINTS
TCL: Running for 1500000 steps
ETITLE: TS BOND ANGLE DIHED IMPRP ELECT VDW BOUNDARY MISC KINETIC TOTAL TEMP POTENTIAL TOTALAVG TEMPAVG PRESSURE GPRESSURE VOLUME PRESSAVG GPRESSAVG
ENERGY: 0 1.8376 2.4601 2.2638 0.0000 -10625.0329 1404.1537 0.0000 0.0000 1757.3978 -7456.9199 301.7273 -9214.3177 -7456.9199 301.7273 -459.1855 -392.8025 30360.9538 -459.1855 -392.8025
ENERGY: 300000 0.5893 3.0252 0.4584 0.0000 -10683.3240 1452.3609 0.0000 0.0000 1817.8350 -7409.0553 312.1038 -9226.8902 -7473.4261 302.3054 -0.3501 80.8976 30489.7982 -382.4349 -317.1070
ENERGY: 600000 0.8591 2.1239 2.0718 0.0000 -10708.4764 1412.4469 0.0000 0.0000 1684.5977 -7606.3770 289.2283 -9290.9747 -7465.7937 300.1508 -404.2559 -410.5961 29905.3589 -290.3561 -238.9832
ENERGY: 900000 0.0385 1.9995 2.6326 0.0000 -10647.0508 1418.4039 0.0000 0.0000 1774.5859 -7449.3904 304.6783 -9223.9762 -7457.5262 300.9888 248.6701 257.7749 29663.5000 -43.1964 -4.6066
ENERGY: 1200000 0.1201 2.6063 1.8834 0.0000 -10546.7580 1338.4370 0.0000 0.0000 1805.5906 -7398.1207 310.0015 -9203.7113 -7447.5795 302.0750 -574.0169 -511.8854 30006.0958 -113.3618 -61.7727
ENERGY: 1500000 0.7333 4.8423 2.3214 0.0000 -10700.0395 1517.5241 0.0000 0.0000 1742.2228 -7432.3956 299.1219 -9174.6185 -7447.5731 301.9486 987.8110 1049.8440 29689.9714 18.0161 73.0188
TCL: Running FEP window   4: Lambda1 0.8499999999999999 Lambda2 0.7999999999999998 [dLambda -0.050000000000000044]
TCL: Setting parameter firsttimestep to 0
TCL: Setting parameter alchLambda to 0.8499999999999999
Info: NONBONDED TABLE R-SQUARED SPACING: 0.0625
Info: NONBONDED TABLE SIZE: 705 POINTS
TCL: Setting parameter alchLambda2 to 0.7999999999999998
Info: NONBONDED TABLE R-SQUARED SPACING: 0.0625
Info: NONBONDED TABLE SIZE: 705 POINTS
TCL: Running for 1500000 steps
ETITLE: TS BOND ANGLE DIHED IMPRP ELECT VDW BOUNDARY MISC KINETIC TOTAL TEMP POTENTIAL TOTALAVG TEMPAVG PRESSURE GPRESSURE VOLUME PRESSAVG GPRESSAVG
ENERGY: 0 0.7333 4.8423 2.3214 0.0000 -10700.0855 1517.4694 0.0000 0.0000 1741.3849 -7433.3342 298.9781 -9174.7192 -7433.3342 298.9781 959.0735 1042.4061 29689.9714 959.0735 1042.4061
ENERGY: 300000 1.5174 2.3522 3.4563 0.0000 -10698.4825 1462.2981 0.0000 0.0000 1670.8175 -7558.0409 286.8624 -9228.8585 -7462.5202 296.1140 151.3243 196.3605 30095.6746 142.2566 214.0843
ENERGY: 600000 0.3973 2.4178 1.4261 0.0000 -10547.7983 1319.0014 0.0000 0.0000 1716.6768 -7507.8789 294.7359 -9224.5556 -7459.5780 298.2357 -1061.6293 -968.7179 30186.2015 -159.2748 -97.8658
ENERGY: 900000 2.3263 2.6919 4.5589 0.0000 -10560.3359 1443.2937 0.0000 0.0000 1772.9794 -7334.4856 304.4025 -9107.4651 -7449.5414 297.9791 -34.9412 74.5730 30486.2680 -192.8662 -130.7548
ENERGY: 1200000 1.3069 0.5638 0.7020 0.0000 -10452.8902 1311.7387 0.0000 0.0000 1720.0370 -7418.5418 295.3129 -9138.5788 -7447.4120 298.7975 -589.7939 -515.6977 30020.5860 -198.4764 -140.6208
ENERGY: 1500000 2.1635 2.5327 1.1228 0.0000 -10557.4190 1400.4069 0.0000 0.0000 1763.3300 -7387.8631 302.7458 -9151.1931 -7442.5238 299.2430 108.5011 130.7789 30070.3489 -98.2187 -46.7679
TCL: Running FEP window   5: Lambda1 0.7999999999999998 Lambda2 0.7499999999999998 [dLambda -0.050000000000000044]
TCL: Setting parameter firsttimestep to 0
TCL: Setting parameter alchLambda to 0.7999999999999998
Info: NONBONDED TABLE R-SQUARED SPACING: 0.0625
Info: NONBONDED TABLE SIZE: 705 POINTS
TCL: Setting parameter alchLambda2 to 0.7499999999999998
Info: NONBONDED TABLE R-SQUARED SPACING: 0.0625
Info: NONBONDED TABLE SIZE: 705 POINTS
TCL: Running for 1500000 steps
ETITLE: TS BOND ANGLE DIHED IMPRP ELECT VDW BOUNDARY MISC KINETIC TOTAL TEMP POTENTIAL TOTALAVG TEMPAVG PRESSURE GPRESSURE VOLUME PRESSAVG GPRESSAVG
ENERGY: 0 2.1635 2.5327 1.1228 0.0000 -10556.9535 1399.6393 0.0000 0.0000 1762.4209 -7389.0743 302.5897 -9151.4952 -7389.0743 302.5897 37.4763 119.5318 30070.3489 37.4763 119.5318
ENERGY: 300000 1.5459 2.2527 2.5281 0.0000 -10625.7046 1408.4884 0.0000 0.0000 1775.0966 -7435.7928 304.7660 -9210.8895 -7465.0790 300.4865 84.5735 195.4480 29790.0284 138.5818 201.3741
ENERGY: 600000 0.1112 1.8430 2.1842 0.0000 -10556.5994 1450.8668 0.0000 0.0000 1734.1624 -7367.4317 297.7380 -9101.5941 -7417.8572 302.0961 207.3061 211.8284 30632.4685 52.1686 120.2975
ENERGY: 900000 0.4827 2.3935 0.9291 0.0000 -10595.6306 1418.9788 0.0000 0.0000 1776.7888 -7396.0577 305.0566 -9172.8465 -7430.0857 300.6084 167.2391 164.1641 29914.0341 169.6016 226.5744
ENERGY: 1200000 0.5319 2.3794 0.9638 0.0000 -10653.8578 1457.9842 0.0000 0.0000 1742.7369 -7449.2616 299.2102 -9191.9984 -7436.6649 300.1467 479.7314 525.6345 29728.0124 108.4644 160.6463
ENERGY: 1500000 0.7820 7.2876 4.4043 0.0000 -10452.1483 1337.9815 0.0000 0.0000 1702.4319 -7399.2611 292.2902 -9101.6930 -7431.0632 299.4587 -103.4808 -22.1848 29743.3369 50.1295 100.9505
TCL: Running FEP window   6: Lambda1 0.7499999999999998 Lambda2 0.6999999999999997 [dLambda -0.050000000000000044]
TCL: Setting parameter firsttimestep to 0
TCL: Setting parameter alchLambda to 0.7499999999999998
Info: NONBONDED TABLE R-SQUARED SPACING: 0.0625
Info: NONBONDED TABLE SIZE: 705 POINTS
TCL: Setting parameter alchLambda2 to 0.6999999999999997
Info: NONBONDED TABLE R-SQUARED SPACING: 0.0625
Info: NONBONDED TABLE SIZE: 705 POINTS
TCL: Running for 1500000 steps
ETITLE: TS BOND ANGLE DIHED IMPRP ELECT VDW BOUNDARY MISC KINETIC TOTAL TEMP POTENTIAL TOTALAVG TEMPAVG PRESSURE GPRESSURE VOLUME PRESSAVG GPRESSAVG
ENERGY: 0 0.7820 7.2876 4.4043 0.0000 -10451.7946 1337.7642 0.0000 0.0000 1701.5760 -7399.9807 292.1433 -9101.5566 -7399.9807 292.1433 -105.8349 -34.0939 29743.3369 -105.8349 -34.0939
ENERGY: 300000 2.2812 3.7513 3.1210 0.0000 -10662.3914 1437.1390 0.0000 0.0000 1711.7419 -7504.3570 293.8887 -9216.0989 -7494.5170 292.0957 -133.8965 -81.7010 30108.3189 -81.8697 -17.3976
ENERGY: 600000 0.1554 3.6226 1.2525 0.0000 -10663.7203 1420.7940 0.0000 0.0000 1757.2476 -7480.6481 301.7015 -9237.8957 -7488.4360 295.8878 -129.3531 -70.5419 29974.0668 -185.7085 -126.7315
ENERGY: 900000 0.2636 4.4912 1.5674 0.0000 -10535.8357 1347.2065 0.0000 0.0000 1694.9236 -7487.3835 291.0011 -9182.3070 -7484.8745 296.6745 -494.3316 -429.0781 29853.7118 -198.4965 -128.9917
ENERGY: 1200000 0.1752 2.2147 2.8442 0.0000 -10384.6340 1290.3528 0.0000 0.0000 1768.6019 -7320.4451 303.6510 -9089.0470 -7469.9455 297.2978 -903.2189 -788.7721 30258.7152 -208.1746 -146.7612
ENERGY: 1500000 0.3006 3.8170 4.6123 0.0000 -10452.0268 1373.8822 0.0000 0.0000 1741.3836 -7328.0312 298.9779 -9069.4148 -7456.7366 297.6753 -102.6344 40.0271 30301.4458 -190.7007 -126.7043
TCL: Running FEP window   7: Lambda1 0.6999999999999997 Lambda2 0.6499999999999997 [dLambda -0.050000000000000044]
TCL: Setting parameter firsttimestep to 0
TCL: Setting parameter alchLambda to 0.6999999999999997
Info: NONBONDED TABLE R-SQUARED SPACING: 0.0625
Info: NONBONDED TABLE SIZE: 705 POINTS
TCL: Setting parameter alchLambda2 to 0.6499999999999997
Info: NONBONDED TABLE R-SQUARED SPACING: 0.0625
Info: NONBONDED TABLE SIZE: 705 POINTS
TCL: Running for 1500000 steps
ETITLE: TS BOND ANGLE DIHED IMPRP ELECT VDW BOUNDARY MISC KINETIC TOTAL TEMP POTENTIAL TOTALAVG TEMPAVG PRESSURE GPRESSURE VOLUME PRESSAVG GPRESSAVG
ENERGY: 0 0.3006 3.8170 4.6123 0.0000 -10451.9399 1373.6344 0.0000 0.0000 1740.5701 -7329.0055 298.8382 -9069.5756 -7329.0055 298.8382 -47.7073 34.5205 30301.4458 -47.7073 34.5205
ENERGY: 300000 1.5851 3.3681 3.4228 0.0000 -10751.9053 1534.9214 0.0000 0.0000 1772.2219 -7436.3859 304.2725 -9208.6079 -7414.1265 301.4273 1054.2088 1075.7994 29565.2438 424.6966 479.0252
ENERGY: 600000 0.5127 1.1526 2.0620 0.0000 -10758.5296 1483.0216 0.0000 0.0000 1703.7450 -7568.0357 292.5157 -9271.7807 -7438.3379 300.2202 185.5711 273.5191 29957.2481 339.6928 413.5572
ENERGY: 900000 0.1120 2.9751 3.4595 0.0000 -10615.8228 1430.6171 0.0000 0.0000 1703.2584 -7475.4008 292.4321 -9178.6591 -7446.3214 300.2744 -180.3096 -111.8096 30520.6325 213.8525 282.9807
ENERGY: 1200000 0.0496 4.3058 0.4627 0.0000 -10642.2578 1389.3837 0.0000 0.0000 1787.4508 -7460.6052 306.8871 -9248.0560 -7464.6958 299.2164 -685.8373 -600.2089 30425.3394 130.5358 209.1562
ENERGY: 1500000 1.9825 4.1643 3.2580 0.0000 -10702.5710 1405.6407 0.0000 0.0000 1728.6934 -7558.8321 296.7991 -9287.5255 -7471.9012 298.8578 -439.2456 -291.1738 29850.6602 130.3920 213.9366
TCL: Running FEP window   8: Lambda1 0.6499999999999997 Lambda2 0.5999999999999996 [dLambda -0.050000000000000044]
TCL: Setting parameter firsttimestep to 0
TCL: Setting parameter alchLambda to 0.6499999999999997
Info: NONBONDED TABLE R-SQUARED SPACING: 0.0625
Info: NONBONDED TABLE SIZE: 705 POINTS
TCL: Setting parameter alchLambda2 to 0.5999999999999996
Info: NONBONDED TABLE R-SQUARED SPACING: 0.0625
Info: NONBONDED TABLE SIZE: 705 POINTS
TCL: Running for 1500000 steps
ETITLE: TS BOND ANGLE DIHED IMPRP ELECT VDW BOUNDARY MISC KINETIC TOTAL TEMP POTENTIAL TOTALAVG TEMPAVG PRESSURE GPRESSURE VOLUME PRESSAVG GPRESSAVG
ENERGY: 0 1.9826 4.1643 3.2580 0.0000 -10702.6262 1405.8606 0.0000 0.0000 1727.8306 -7559.5302 296.6509 -9287.3607 -7559.5302 296.6509 -385.7217 -294.9587 29850.6602 -385.7217 -294.9587
ENERGY: 300000 1.2255 2.1493 1.3774 0.0000 -10562.4373 1394.2218 0.0000 0.0000 1688.7025 -7474.7607 289.9330 -9163.4632 -7449.2069 299.0686 -372.9761 -390.4685 30488.7655 -323.6381 -246.6802
ENERGY: 600000 0.0772 2.6384 2.8280 0.0000 -10605.1936 1435.1764 0.0000 0.0000 1743.0627 -7421.4109 299.2661 -9164.4736 -7426.8028 301.7382 230.5125 272.3221 30136.9866 -126.7894 -55.1545
ENERGY: 900000 0.6762 1.7006 0.7628 0.0000 -10515.0410 1302.2632 0.0000 0.0000 1806.5724 -7403.0658 310.1701 -9209.6382 -7442.1057 301.9319 -885.8998 -869.6606 29916.2491 -209.6863 -144.3908
ENERGY: 1200000 0.4365 6.0776 3.5108 0.0000 -10604.4828 1375.6192 0.0000 0.0000 1778.9519 -7439.8867 305.4279 -9218.8386 -7436.4460 301.9623 -630.1713 -617.5113 30692.9170 -194.4160 -137.4782
ENERGY: 1500000 3.0752 2.5324 1.1102 0.0000 -10610.9996 1405.0515 0.0000 0.0000 1707.3258 -7491.9044 293.1305 -9199.2302 -7433.9982 300.9013 -255.0012 -207.4580 30219.6307 -202.2896 -142.1959
TCL: Running FEP window   9: Lambda1 0.5999999999999996 Lambda2 0.5499999999999996 [dLambda -0.050000000000000044]
TCL: Setting parameter firsttimestep to 0
TCL: Setting parameter alchLambda to 0.5999999999999996
Info: NONBONDED TABLE R-SQUARED SPACING: 0.0625
Info: NONBONDED TABLE SIZE: 705 POINTS
TCL: Setting parameter alchLambda2 to 0.5499999999999996
Info: NONBONDED TABLE R-SQUARED SPACING: 0.0625
Info: NONBONDED TABLE SIZE: 705 POINTS
TCL: Running for 1500000 steps
ETITLE: TS BOND ANGLE DIHED IMPRP ELECT VDW BOUNDARY MISC KINETIC TOTAL TEMP POTENTIAL TOTALAVG TEMPAVG PRESSURE GPRESSURE VOLUME PRESSAVG GPRESSAVG
ENERGY: 0 3.0753 2.5324 1.1102 0.0000 -10610.9210 1405.3859 0.0000 0.0000 1706.4791 -7492.3382 292.9851 -9198.8172 -7492.3382 292.9851 -280.3616 -207.6354 30219.6307 -280.3616 -207.6354
ENERGY: 300000 1.2876 5.3273 3.1161 0.0000 -10695.4362 1459.2477 0.0000 0.0000 1719.8844 -7506.5731 295.2867 -9226.4575 -7481.2882 295.9571 151.0254 204.7915 29820.6058 160.4561 223.7161
ENERGY: 600000 1.8839 1.5724 1.6696 0.0000 -10562.5455 1409.0237 0.0000 0.0000 1742.0051 -7406.3908 299.0846 -9148.3959 -7460.5647 297.6090 16.3389 59.0292 30274.8384 4.4573 51.8638
ENERGY: 900000 0.9625 4.3474 1.5607 0.0000 -10495.9314 1359.7283 0.0000 0.0000 1812.0208 -7317.3116 311.1056 -9129.3324 -7444.6764 300.0324 -737.4321 -649.7159 30962.2245 -126.9369 -71.4463
ENERGY: 1200000 0.7231 2.2031 2.5453 0.0000 -10637.7086 1417.2403 0.0000 0.0000 1723.5149 -7491.4818 295.9100 -9214.9967 -7449.4163 299.4132 -288.6968 -188.0995 30274.0402 -119.7927 -58.7416
ENERGY: 1500000 0.5567 1.0952 2.7125 0.0000 -10529.8068 1453.6565 0.0000 0.0000 1779.4708 -7292.3150 305.5170 -9071.7858 -7436.6139 300.5192 578.1738 608.0541 30159.1784 -46.6732 9.0765
TCL: Running FEP window  10: Lambda1 0.5499999999999996 Lambda2 0.4999999999999996 [dLambda -0.04999999999999999]
TCL: Setting parameter firsttimestep to 0
TCL: Setting parameter alchLambda to 0.5499999999999996
Info: NONBONDED TABLE R-SQUARED SPACING: 0.0625
Info: NONBONDED TABLE SIZE: 705 POINTS
TCL: Setting parameter alchLambda2 to 0.4999999999999996
Info: NONBONDED TABLE R-SQUARED SPACING: 0.0625
Info: NONBONDED TABLE SIZE: 705 POINTS
TCL: Running for 1500000 steps
ETITLE: TS BOND ANGLE DIHED IMPRP ELECT VDW BOUNDARY MISC KINETIC TOTAL TEMP POTENTIAL TOTALAVG TEMPAVG PRESSURE GPRESSURE VOLUME PRESSAVG GPRESSAVG
ENERGY: 0 0.5567 1.0952 2.7125 0.0000 -10529.7028 1453.6626 0.0000 0.0000 1778.5820 -7293.0937 305.3644 -9071.6757 -7293.0937 305.3644 521.9893 602.6395 30159.1784 521.9893 602.6395
ENERGY: 300000 1.2925 3.2882 2.4834 0.0000 -10491.4165 1326.4039 0.0000 0.0000 1745.3174 -7412.6310 299.6532 -9157.9484 -7428.8658 301.4808 -815.8998 -769.0676 30375.3394 -93.4788 -24.0096
ENERGY: 600000 0.1379 1.9975 3.3842 0.0000 -10664.1204 1433.8318 0.0000 0.0000 1733.2403 -7491.5288 297.5797 -9224.7692 -7442.3674 300.5424 -58.7743 -3.3994 29922.0514 47.9249 130.4922
ENERGY: 900000 0.9198 1.0009 3.7750 0.0000 -10767.4497 1533.3217 0.0000 0.0000 1700.8968 -7527.5355 292.0267 -9228.4323 -7450.8708 299.4677 926.4131 947.9644 29579.0647 121.0606 191.9883
ENERGY: 1200000 0.6426 3.1390 0.4609 0.0000 -10544.5885 1354.9994 0.0000 0.0000 1756.3939 -7428.9527 301.5550 -9185.3465 -7453.6110 300.0743 -779.9020 -743.4511 30551.7896 81.1927 140.8715
ENERGY: 1500000 0.7173 2.5178 2.1233 0.0000 -10620.2908 1408.5361 0.0000 0.0000 1674.1050 -7532.2914 287.4268 -9206.3964 -7454.8140 298.9055 -218.8141 -147.4488 29958.9176 32.3575 93.2792
TCL: Running FEP window  11: Lambda1 0.4999999999999996 Lambda2 0.4499999999999996 [dLambda -0.04999999999999999]
TCL: Setting parameter firsttimestep to 0
TCL: Setting parameter alchLambda to 0.4999999999999996
Info: NONBONDED TABLE R-SQUARED SPACING: 0.0625
Info: NONBONDED TABLE SIZE: 705 POINTS
TCL: Setting parameter alchLambda2 to 0.4499999999999996
Info: NONBONDED TABLE R-SQUARED SPACING: 0.0625
Info: NONBONDED TABLE SIZE: 705 POINTS
TCL: Running for 1500000 steps
ETITLE: TS BOND ANGLE DIHED IMPRP ELECT VDW BOUNDARY MISC KINETIC TOTAL TEMP POTENTIAL TOTALAVG TEMPAVG PRESSURE GPRESSURE VOLUME PRESSAVG GPRESSAVG
ENERGY: 0 0.7173 2.5178 2.1233 0.0000 -10620.3863 1408.6313 0.0000 0.0000 1673.2404 -7533.1562 287.2784 -9206.3966 -7533.1562 287.2784 -229.6821 -153.2180 29958.9176 -229.6821 -153.2180
ENERGY: 300000 1.0081 5.1280 3.0099 0.0000 -10584.1644 1397.6792 0.0000 0.0000 1781.8035 -7395.5357 305.9175 -9177.3392 -7443.5762 299.1164 -73.5104 -59.1059 29945.6894 5.0516 52.4220
ENERGY: 600000 0.2504 2.1172 0.8931 0.0000 -10694.6561 1507.9304 0.0000 0.0000 1774.1781 -7409.2869 304.6083 -9183.4650 -7428.4613 302.1192 934.4101 941.5759 29759.7518 96.9229 152.1256
ENERGY: 900000 1.0264 3.4716 2.7850 0.0000 -10636.2491 1465.4705 0.0000 0.0000 1734.7510 -7428.7445 297.8391 -9163.4955 -7425.9949 301.9363 702.2898 762.9068 29453.8445 179.6751 229.1769
ENERGY: 1200000 2.9147 6.3639 3.0692 0.0000 -10620.3253 1449.5950 0.0000 0.0000 1723.2757 -7435.1068 295.8689 -9158.3825 -7435.2090 300.2331 482.3549 493.7463 29495.4309 292.6297 336.2870
ENERGY: 1500000 0.6564 3.1679 1.9896 0.0000 -10585.7073 1388.1092 0.0000 0.0000 1729.3915 -7462.3927 296.9189 -9191.7842 -7429.1439 300.4176 -356.1439 -299.0389 30230.4537 211.6875 258.7276
TCL: Running FEP window  12: Lambda1 0.4499999999999996 Lambda2 0.39999999999999963 [dLambda -0.04999999999999999]
TCL: Setting parameter firsttimestep to 0
TCL: Setting parameter alchLambda to 0.4499999999999996
Info: NONBONDED TABLE R-SQUARED SPACING: 0.0625
Info: NONBONDED TABLE SIZE: 705 POINTS
TCL: Setting parameter alchLambda2 to 0.39999999999999963
Info: NONBONDED TABLE R-SQUARED SPACING: 0.0625
Info: NONBONDED TABLE SIZE: 705 POINTS
TCL: Running for 1500000 steps
ETITLE: TS BOND ANGLE DIHED IMPRP ELECT VDW BOUNDARY MISC KINETIC TOTAL TEMP POTENTIAL TOTALAVG TEMPAVG PRESSURE GPRESSURE VOLUME PRESSAVG GPRESSAVG
ENERGY: 0 0.6564 3.1679 1.9896 0.0000 -10585.7076 1388.3837 0.0000 0.0000 1728.5546 -7462.9554 296.7752 -9191.5100 -7462.9554 296.7752 -388.1837 -300.1000 30230.4537 -388.1837 -300.1000
ENERGY: 300000 0.7803 6.0172 2.0560 0.0000 -10698.0632 1502.8593 0.0000 0.0000 1751.5467 -7434.8037 300.7228 -9186.3504 -7449.9003 297.2399 556.2542 620.4569 30051.7459 -64.0457 -4.5604
ENERGY: 600000 1.0582 4.4478 0.6446 0.0000 -10657.9184 1467.3990 0.0000 0.0000 1729.0755 -7455.2934 296.8647 -9184.3688 -7438.6696 299.7833 341.5385 299.1271 30145.4446 114.4324 162.4704
ENERGY: 900000 0.1130 1.6063 1.1768 0.0000 -10482.4094 1344.9623 0.0000 0.0000 1744.1903 -7390.3607 299.4597 -9134.5510 -7437.4609 299.2369 -518.2986 -464.7106 30411.5871 -112.4733 -58.1292
ENERGY: 1200000 0.2056 1.5702 1.7202 0.0000 -10666.4155 1462.4342 0.0000 0.0000 1732.7452 -7467.7400 297.4947 -9200.4853 -7443.2794 298.7684 -63.9381 27.5944 30498.0867 -133.8180 -76.9751
ENERGY: 1500000 2.0350 4.2668 1.9579 0.0000 -10588.9512 1389.0028 0.0000 0.0000 1683.7875 -7507.9012 289.0892 -9191.6887 -7456.5264 297.7046 -630.3484 -538.5973 30325.3581 -110.8050 -53.8373
TCL: Running FEP window  13: Lambda1 0.39999999999999963 Lambda2 0.34999999999999964 [dLambda -0.04999999999999999]
TCL: Setting parameter firsttimestep to 0
TCL: Setting parameter alchLambda to 0.39999999999999963
Info: NONBONDED TABLE R-SQUARED SPACING: 0.0625
Info: NONBONDED TABLE SIZE: 705 POINTS
TCL: Setting parameter alchLambda2 to 0.34999999999999964
Info: NONBONDED TABLE R-SQUARED SPACING: 0.0625
Info: NONBONDED TABLE SIZE: 705 POINTS
TCL: Running for 1500000 steps
ETITLE: TS BOND ANGLE DIHED IMPRP ELECT VDW BOUNDARY MISC KINETIC TOTAL TEMP POTENTIAL TOTALAVG TEMPAVG PRESSURE GPRESSURE VOLUME PRESSAVG GPRESSAVG
ENERGY: 0 2.0350 4.2668 1.9579 0.0000 -10588.9534 1389.0013 0.0000 0.0000 1682.8922 -7508.8002 288.9355 -9191.6924 -7508.8002 288.9355 -635.2377 -540.3432 30325.3581 -635.2377 -540.3432
ENERGY: 300000 0.9402 0.8606 1.9285 0.0000 -10722.9516 1501.3345 0.0000 0.0000 1777.0658 -7440.8220 305.1041 -9217.8878 -7487.6823 300.0753 267.7917 344.5475 30246.4090 141.4932 206.5472
ENERGY: 600000 0.3450 4.0231 3.1169 0.0000 -10604.1003 1405.4503 0.0000 0.0000 1783.8148 -7407.3503 306.2629 -9191.1651 -7440.9464 302.8504 -291.2090 -206.5429 30172.3663 -40.7042 31.3308
ENERGY: 900000 0.4483 3.4210 0.7842 0.0000 -10590.0821 1333.6470 0.0000 0.0000 1720.2731 -7531.5084 295.3534 -9251.7815 -7448.3951 300.4944 -847.0603 -851.4435 30002.7722 -78.4761 -15.3308
ENERGY: 1200000 0.1061 2.6078 2.1308 0.0000 -10547.8907 1434.9232 0.0000 0.0000 1720.6252 -7387.4975 295.4138 -9108.1227 -7441.4423 299.4871 251.8315 374.9931 30269.6183 -43.3546 22.9348
ENERGY: 1500000 0.6050 2.2678 1.3641 0.0000 -10619.6326 1400.4842 0.0000 0.0000 1775.4046 -7439.5069 304.8189 -9214.9115 -7433.9359 299.9399 -63.7033 -25.5987 29971.4492 -12.7723 45.3552
TCL: Running FEP window  14: Lambda1 0.34999999999999964 Lambda2 0.29999999999999966 [dLambda -0.04999999999999999]
TCL: Setting parameter firsttimestep to 0
TCL: Setting parameter alchLambda to 0.34999999999999964
Info: NONBONDED TABLE R-SQUARED SPACING: 0.0625
Info: NONBONDED TABLE SIZE: 705 POINTS
TCL: Setting parameter alchLambda2 to 0.29999999999999966
Info: NONBONDED TABLE R-SQUARED SPACING: 0.0625
Info: NONBONDED TABLE SIZE: 705 POINTS
TCL: Running for 1500000 steps
ETITLE: TS BOND ANGLE DIHED IMPRP ELECT VDW BOUNDARY MISC KINETIC TOTAL TEMP POTENTIAL TOTALAVG TEMPAVG PRESSURE GPRESSURE VOLUME PRESSAVG GPRESSAVG
ENERGY: 0 0.6050 2.2678 1.3641 0.0000 -10619.6308 1400.5555 0.0000 0.0000 1774.4941 -7440.3443 304.6626 -9214.8385 -7440.3443 304.6626 -115.3348 -26.2243 29971.4492 -115.3348 -26.2243
ENERGY: 300000 1.5095 1.6185 2.5476 0.0000 -10680.4602 1475.7347 0.0000 0.0000 1720.6056 -7478.4443 295.4105 -9199.0499 -7453.2809 302.5758 425.1860 448.2961 29925.5225 14.8556 86.8214
ENERGY: 600000 0.1474 3.4224 0.9114 0.0000 -10772.1868 1530.9461 0.0000 0.0000 1760.0931 -7476.6664 302.1901 -9236.7594 -7437.0951 302.8742 724.2998 827.1154 30009.0531 112.6787 190.6765
ENERGY: 900000 1.1425 2.2105 0.7700 0.0000 -10696.1907 1465.5221 0.0000 0.0000 1698.3617 -7528.1839 291.5914 -9226.5456 -7447.6498 300.6211 427.9473 416.1590 29712.3169 17.8650 77.2001
ENERGY: 1200000 0.2345 4.4772 0.5301 0.0000 -10670.9986 1412.1850 0.0000 0.0000 1682.0613 -7571.5104 288.7928 -9253.5717 -7471.4142 298.9206 -200.8870 -131.1512 29720.2799 24.3773 83.0093
ENERGY: 1500000 4.1794 1.6545 1.4627 0.0000 -10652.6898 1433.5303 0.0000 0.0000 1753.1561 -7458.7067 300.9991 -9211.8628 -7471.7560 298.9956 -158.7848 -77.8171 29990.9229 68.2418 133.7676
TCL: Running FEP window  15: Lambda1 0.29999999999999966 Lambda2 0.24999999999999967 [dLambda -0.04999999999999999]
TCL: Setting parameter firsttimestep to 0
TCL: Setting parameter alchLambda to 0.29999999999999966
Info: NONBONDED TABLE R-SQUARED SPACING: 0.0625
Info: NONBONDED TABLE SIZE: 705 POINTS
TCL: Setting parameter alchLambda2 to 0.24999999999999967
Info: NONBONDED TABLE R-SQUARED SPACING: 0.0625
Info: NONBONDED TABLE SIZE: 705 POINTS
TCL: Running for 1500000 steps
ETITLE: TS BOND ANGLE DIHED IMPRP ELECT VDW BOUNDARY MISC KINETIC TOTAL TEMP POTENTIAL TOTALAVG TEMPAVG PRESSURE GPRESSURE VOLUME PRESSAVG GPRESSAVG
ENERGY: 0 4.1794 1.6545 1.4627 0.0000 -10652.6913 1433.5215 0.0000 0.0000 1752.2632 -7459.6100 300.8458 -9211.8732 -7459.6100 300.8458 -148.6865 -80.9866 29990.9229 -148.6865 -80.9866
ENERGY: 300000 1.0979 2.5943 0.9422 0.0000 -10703.8393 1440.5567 0.0000 0.0000 1755.2713 -7503.3768 301.3622 -9258.6481 -7462.0950 301.9654 7.2251 21.1408 29756.4813 -190.8250 -132.3788
ENERGY: 600000 0.5605 1.7109 0.8370 0.0000 -10554.7159 1355.6091 0.0000 0.0000 1741.9822 -7454.0162 299.0806 -9195.9984 -7452.9672 300.2054 -877.2859 -815.7493 30597.7881 -303.6151 -251.3475
ENERGY: 900000 0.6578 3.0022 1.6193 0.0000 -10589.7980 1403.0978 0.0000 0.0000 1757.2982 -7424.1225 301.7102 -9181.4207 -7447.8628 299.9009 -139.3475 -68.6970 29922.7268 -217.4425 -165.7241
ENERGY: 1200000 1.9084 2.1808 3.4644 0.0000 -10635.1605 1444.7204 0.0000 0.0000 1690.7549 -7492.1316 290.2854 -9182.8865 -7452.6330 298.9944 111.1642 123.2998 29876.0568 -197.2698 -149.0798
ENERGY: 1500000 0.0716 2.5493 4.2455 0.0000 -10630.3470 1413.0571 0.0000 0.0000 1784.0573 -7426.3663 306.3045 -9210.4236 -7448.7649 300.3259 -153.6255 -72.9804 30206.4933 -130.5507 -79.9774
TCL: Running FEP window  16: Lambda1 0.24999999999999967 Lambda2 0.19999999999999968 [dLambda -0.04999999999999999]
TCL: Setting parameter firsttimestep to 0
TCL: Setting parameter alchLambda to 0.24999999999999967
Info: NONBONDED TABLE R-SQUARED SPACING: 0.0625
Info: NONBONDED TABLE SIZE: 705 POINTS
TCL: Setting parameter alchLambda2 to 0.19999999999999968
Info: NONBONDED TABLE R-SQUARED SPACING: 0.0625
Info: NONBONDED TABLE SIZE: 705 POINTS
TCL: Running for 1500000 steps
ETITLE: TS BOND ANGLE DIHED IMPRP ELECT VDW BOUNDARY MISC KINETIC TOTAL TEMP POTENTIAL TOTALAVG TEMPAVG PRESSURE GPRESSURE VOLUME PRESSAVG GPRESSAVG
ENERGY: 0 0.0716 2.5493 4.2455 0.0000 -10630.3488 1413.3361 0.0000 0.0000 1783.1509 -7426.9954 306.1489 -9210.1464 -7426.9954 306.1489 -143.3190 -72.5601 30206.4933 -143.3190 -72.5601
ENERGY: 300000 0.3342 1.6142 2.4556 0.0000 -10725.0073 1541.9702 0.0000 0.0000 1769.6400 -7408.9932 303.8292 -9178.6332 -7449.2495 299.1172 1153.4187 1241.8990 29545.2143 142.2024 236.1341
ENERGY: 600000 1.1589 3.5244 0.8588 0.0000 -10624.7267 1418.8589 0.0000 0.0000 1733.8057 -7466.5199 297.6768 -9200.3256 -7444.9289 298.7589 -344.0218 -247.0948 30111.5319 -258.4483 -169.2815
ENERGY: 900000 0.7807 1.6101 1.4326 0.0000 -10628.1471 1446.6939 0.0000 0.0000 1723.3590 -7454.2709 295.8832 -9177.6299 -7442.5481 297.7086 -101.9916 -36.1028 30652.8079 -80.8294 5.1591
ENERGY: 1200000 2.0377 8.1067 1.2837 0.0000 -10615.5888 1452.0033 0.0000 0.0000 1740.8324 -7411.3250 298.8832 -9152.1574 -7434.6180 298.1543 15.0707 56.0067 30306.6075 20.7613 95.8496
ENERGY: 1500000 0.6006 1.1057 1.6564 0.0000 -10431.8829 1269.2819 0.0000 0.0000 1721.7785 -7437.4599 295.6119 -9159.2384 -7432.3401 298.1552 -1301.9954 -1264.7274 30581.2872 -97.5234 -31.2469
TCL: Running FEP window  17: Lambda1 0.19999999999999968 Lambda2 0.1499999999999997 [dLambda -0.04999999999999999]
TCL: Setting parameter firsttimestep to 0
TCL: Setting parameter alchLambda to 0.19999999999999968
Info: NONBONDED TABLE R-SQUARED SPACING: 0.0625
Info: NONBONDED TABLE SIZE: 705 POINTS
TCL: Setting parameter alchLambda2 to 0.1499999999999997
Info: NONBONDED TABLE R-SQUARED SPACING: 0.0625
Info: NONBONDED TABLE SIZE: 705 POINTS
TCL: Running for 1500000 steps
ETITLE: TS BOND ANGLE DIHED IMPRP ELECT VDW BOUNDARY MISC KINETIC TOTAL TEMP POTENTIAL TOTALAVG TEMPAVG PRESSURE GPRESSURE VOLUME PRESSAVG GPRESSAVG
ENERGY: 0 0.6006 1.1057 1.6564 0.0000 -10431.8811 1268.8562 0.0000 0.0000 1720.9185 -7438.7438 295.4642 -9159.6623 -7438.7438 295.4642 -1346.0807 -1269.9023 30581.2872 -1346.0807 -1269.9023
ENERGY: 300000 0.7189 1.5116 2.0177 0.0000 -10676.7723 1436.2013 0.0000 0.0000 1759.0124 -7477.3104 302.0045 -9236.3229 -7438.6699 301.1228 -161.1278 -56.4803 29989.6108 -516.5961 -453.8502
ENERGY: 600000 0.1570 2.1748 3.1029 0.0000 -10703.6599 1529.8358 0.0000 0.0000 1702.7368 -7465.6527 292.3426 -9168.3895 -7457.5495 297.9337 639.1285 717.3034 30345.5022 -260.2180 -185.4182
ENERGY: 900000 0.0511 2.0758 2.7173 0.0000 -10651.5701 1482.0031 0.0000 0.0000 1782.9986 -7381.7242 306.1227 -9164.7228 -7444.1049 299.4347 757.7537 827.5909 29474.5252 -110.5772 -34.1199
ENERGY: 1200000 1.3024 2.5158 3.4791 0.0000 -10600.8205 1410.1857 0.0000 0.0000 1774.7705 -7408.5669 304.7100 -9183.3375 -7429.4321 300.5187 209.3942 228.9496 29705.4062 -150.4568 -82.4704
ENERGY: 1500000 1.3556 1.7734 1.7316 0.0000 -10584.7986 1394.7378 0.0000 0.0000 1704.9350 -7480.2651 292.7200 -9185.2001 -7438.7019 299.6884 -322.8258 -253.9000 30020.6953 -190.1130 -119.0511
TCL: Running FEP window  18: Lambda1 0.1499999999999997 Lambda2 0.09999999999999969 [dLambda -0.05 ]
TCL: Setting parameter firsttimestep to 0
TCL: Setting parameter alchLambda to 0.1499999999999997
Info: NONBONDED TABLE R-SQUARED SPACING: 0.0625
Info: NONBONDED TABLE SIZE: 705 POINTS
TCL: Setting parameter alchLambda2 to 0.09999999999999969
Info: NONBONDED TABLE R-SQUARED SPACING: 0.0625
Info: NONBONDED TABLE SIZE: 705 POINTS
TCL: Running for 1500000 steps
ETITLE: TS BOND ANGLE DIHED IMPRP ELECT VDW BOUNDARY MISC KINETIC TOTAL TEMP POTENTIAL TOTALAVG TEMPAVG PRESSURE GPRESSURE VOLUME PRESSAVG GPRESSAVG
ENERGY: 0 1.3556 1.7734 1.7316 0.0000 -10584.7985 1394.6278 0.0000 0.0000 1704.0583 -7481.2518 292.5695 -9185.3101 -7481.2518 292.5695 -340.8742 -254.5410 30020.6953 -340.8742 -254.5410
ENERGY: 300000 0.8877 1.4001 1.0373 0.0000 -10564.5460 1438.3203 0.0000 0.0000 1758.4929 -7364.4078 301.9153 -9122.9007 -7430.9445 297.7583 192.3342 183.9918 30375.7164 -254.1136 -204.3461
ENERGY: 600000 0.4834 1.3016 2.9323 0.0000 -10736.5099 1471.0385 0.0000 0.0000 1735.1472 -7525.6070 297.9071 -9260.7542 -7449.1286 297.7432 82.5840 151.3104 30200.2021 -243.0973 -174.1070
ENERGY: 900000 1.0710 2.0670 0.9462 0.0000 -10441.2848 1320.5399 0.0000 0.0000 1760.7942 -7355.8664 302.3105 -9116.6606 -7440.5965 298.1934 -1014.0336 -904.9851 30600.3940 -237.2198 -167.3898
ENERGY: 1200000 0.8650 1.2215 1.6872 0.0000 -10644.1973 1436.2238 0.0000 0.0000 1799.7415 -7404.4583 308.9973 -9204.1998 -7443.9432 299.0358 2.6794 72.2979 29852.9649 -232.8086 -156.0324
ENERGY: 1500000 1.2647 4.9467 1.1651 0.0000 -10633.7619 1419.6531 0.0000 0.0000 1719.5427 -7487.1896 295.2280 -9206.7323 -7446.3058 298.7633 46.7225 90.8127 29695.2520 -176.8324 -106.7444
TCL: Running FEP window  19: Lambda1 0.09999999999999969 Lambda2 0.049999999999999684 [dLambda -0.05 ]
TCL: Setting parameter firsttimestep to 0
TCL: Setting parameter alchLambda to 0.09999999999999969
Info: NONBONDED TABLE R-SQUARED SPACING: 0.0625
Info: NONBONDED TABLE SIZE: 705 POINTS
TCL: Setting parameter alchLambda2 to 0.049999999999999684
Info: NONBONDED TABLE R-SQUARED SPACING: 0.0625
Info: NONBONDED TABLE SIZE: 705 POINTS
TCL: Running for 1500000 steps
ETITLE: TS BOND ANGLE DIHED IMPRP ELECT VDW BOUNDARY MISC KINETIC TOTAL TEMP POTENTIAL TOTALAVG TEMPAVG PRESSURE GPRESSURE VOLUME PRESSAVG GPRESSAVG
ENERGY: 0 1.2647 4.9466 1.1651 0.0000 -10633.7612 1419.0198 0.0000 0.0000 1718.6586 -7488.7064 295.0762 -9207.3650 -7488.7064 295.0762 1.1750 88.9467 29695.2520 1.1750 88.9467
ENERGY: 300000 1.3885 3.7477 2.1290 0.0000 -10540.8755 1410.0499 0.0000 0.0000 1770.3342 -7353.2263 303.9484 -9123.5605 -7441.5732 300.8390 61.2757 111.4363 30019.4639 130.4597 195.9447
ENERGY: 600000 0.4671 0.8818 0.7571 0.0000 -10465.5757 1370.9894 0.0000 0.0000 1765.4873 -7326.9929 303.1162 -9092.4802 -7414.3729 302.1865 -197.0707 -59.9857 30135.7359 -145.9079 -87.2658
ENERGY: 900000 1.4499 2.0167 0.7316 0.0000 -10610.7783 1455.0513 0.0000 0.0000 1733.9398 -7417.5890 297.6998 -9151.5288 -7427.4509 300.5663 292.2880 322.9377 30078.2410 -159.3055 -107.3728
ENERGY: 1200000 0.7711 4.5085 2.4707 0.0000 -10810.6105 1509.2604 0.0000 0.0000 1709.2645 -7584.3354 293.4633 -9293.5999 -7445.8629 300.2499 451.1509 444.2773 29813.6731 -13.9568 34.8524
ENERGY: 1500000 0.2331 1.0546 3.7038 0.0000 -10674.2846 1423.4064 0.0000 0.0000 1747.2743 -7498.6123 299.9892 -9245.8866 -7446.3558 300.5119 -388.0198 -273.8455 30272.5518 -127.2720 -66.6941
TCL: Running FEP window  20: Lambda1 0.049999999999999684 Lambda2 0.0    [dLambda -0.049999999999999684]
TCL: Setting parameter firsttimestep to 0
TCL: Setting parameter alchLambda to 0.049999999999999684
Info: NONBONDED TABLE R-SQUARED SPACING: 0.0625
Info: NONBONDED TABLE SIZE: 705 POINTS
TCL: Setting parameter alchLambda2 to 0.0
Info: NONBONDED TABLE R-SQUARED SPACING: 0.0625
Info: NONBONDED TABLE SIZE: 705 POINTS
TCL: Running for 1500000 steps
ETITLE: TS BOND ANGLE DIHED IMPRP ELECT VDW BOUNDARY MISC KINETIC TOTAL TEMP POTENTIAL TOTALAVG TEMPAVG PRESSURE GPRESSURE VOLUME PRESSAVG GPRESSAVG
ENERGY: 0 0.2331 1.0546 3.7038 0.0000 -10674.2855 1422.9829 0.0000 0.0000 1746.3820 -7499.9290 299.8360 -9246.3111 -7499.9290 299.8360 -357.1563 -274.0614 30272.5518 -357.1563 -274.0614
ENERGY: 300000 0.2918 3.5212 2.4678 0.0000 -10556.3114 1350.0781 0.0000 0.0000 1770.7160 -7429.2364 304.0139 -9199.9524 -7465.9054 301.0492 -592.1138 -464.0363 29712.5611 -221.0840 -137.2628
ENERGY: 600000 0.8485 2.8958 2.4634 0.0000 -10535.0738 1386.2140 0.0000 0.0000 1765.9840 -7376.6681 303.2015 -9142.6521 -7447.2010 301.1464 -380.8200 -329.1503 30100.6877 -85.0580 -1.9920
ENERGY: 900000 1.6478 1.4574 2.2781 0.0000 -10567.8134 1375.2216 0.0000 0.0000 1735.0847 -7452.1238 297.8964 -9187.2085 -7435.5441 302.3273 -777.0297 -730.8766 30546.8081 -178.9326 -95.8405
ENERGY: 1200000 1.4005 2.9304 1.3359 0.0000 -10602.7229 1380.4691 0.0000 0.0000 1758.4870 -7458.1000 301.9143 -9216.5870 -7435.8815 302.0506 -506.3128 -416.7703 29982.0269 -194.2678 -109.3458
ENERGY: 1500000 0.4954 2.3963 5.6495 0.0000 -10524.8529 1413.7187 0.0000 0.0000 1749.9847 -7352.6084 300.4546 -9102.5931 -7428.5125 301.7858 -17.7448 35.4530 30421.9405 -151.8917 -70.7640
TCL: Exiting due to exit command.
