Info: SIMULATION PARAMETERS:
Info: TIMESTEP               2
Info: NUMBER OF STEPS        0
Info: STEPS PER CYCLE        10
Info: PERIODIC CELL BASIS 1  30.2087 0 0
Info: PERIODIC CELL BASIS 2  0 30.6166 0
Info: PERIODIC CELL BASIS 3  0 0 32.5056
Info: PERIODIC CELL CENTER   0 0 0
Info: WRAPPING WATERS AROUND PERIODIC BOUNDARIES ON OUTPUT.
Info: WRAPPING ALL CLUSTERS AROUND PERIODIC BOUNDARIES ON OUTPUT.
Info: FIRST LDB TIMESTEP     50
Info: LAST LDB TIMESTEP     -1
Info: HOM BACKGROUND SCALING 1
Info: PME BACKGROUND SCALING 1
Info: MIN ATOMS PER PATCH    40
Info: EMPTY PATCH LOAD       40 ATOMS
Info: VELOCITY FILE          mobley_4059279_equil.vel
Info: CENTER OF MASS MOVING INITIALLY? NO
Info: DIELECTRIC             1
Info: EXCLUDE                SCALED ONE-FOUR
Info: 1-4 ELECTROSTATICS SCALED BY 0.833333
Info: MODIFIED 1-4 VDW PARAMETERS WILL BE USED
Info: DCD FILENAME           mobley_4059279_prod.dcd
Info: DCD FREQUENCY          100000
Info: DCD FIRST STEP         100000
Info: DCD FILE WILL CONTAIN UNIT CELL DATA
Info: XST FILENAME           mobley_4059279_prod.xst
Info: XST FREQUENCY          100000
Info: NO VELOCITY DCD OUTPUT
Info: NO FORCE DCD OUTPUT
Info: OUTPUT FILENAME        mobley_4059279_prod
Info: BINARY OUTPUT FILES WILL BE USED
Info: RESTART FILENAME       mobley_4059279_prod.restart
Info: RESTART FREQUENCY      100000
Info: BINARY RESTART FILES WILL BE USED
Info: CUTOFF                 9
Info: PAIRLIST DISTANCE      11
Info: PAIRLIST SHRINK RATE   0.01
Info: PAIRLIST GROW RATE     0.01
Info: PAIRLIST TRIGGER       0.3
Info: PAIRLISTS PER CYCLE    2
Info: PAIRLISTS ENABLED
Info: MARGIN                 2
Info: HYDROGEN GROUP CUTOFF  2.5
Info: PATCH DIMENSION        15.5
Info: ENERGY OUTPUT STEPS    100000
Info: ENERGY EVALUATION STEPS    100000
Info: OUTPUT ENERGY PRECISION 4
Info: CROSSTERM ENERGY INCLUDED IN DIHEDRAL
Info: TIMING OUTPUT STEPS    1000000
Info: PRESSURE OUTPUT STEPS  100000
Info: ALCHEMICAL FEP ON
Info: FEP CURRENT LAMBDA VALUE     1
Info: FEP COMPARISON LAMBDA VALUE  0.95
Info: FEP INTRA-ALCHEMICAL NON-BONDED INTERACTIONS WILL BE RETAINED
Info: FEP INTRA-ALCHEMICAL BONDED INTERACTIONS WILL BE RETAINED
Info: FEP VDW SHIFTING COEFFICIENT 5
Info: FEP ELEC. ACTIVE FOR ANNIHILATED PARTICLES BETWEEN LAMBDA = 0 AND LAMBDA = 0.5
Info: FEP ELEC. ACTIVE FOR EXNIHILATED PARTICLES BETWEEN LAMBDA = 0.5 AND LAMBDA = 1
Info: FEP VDW ACTIVE FOR ANNIHILATED PARTICLES BETWEEN LAMBDA = 0 AND LAMBDA = 1
Info: FEP VDW ACTIVE FOR EXNIHILATED PARTICLES BETWEEN LAMBDA = 0 AND LAMBDA = 1
Info: FEP BOND ACTIVE FOR ANNIHILATED PARTICLES BETWEEN LAMBDA = 1 AND LAMBDA = 1
Info: FEP BOND ACTIVE FOR EXNIHILATED PARTICLES BETWEEN LAMBDA = 0 AND LAMBDA = 0
Info: LANGEVIN DYNAMICS ACTIVE
Info: LANGEVIN TEMPERATURE   300
Info: LANGEVIN USING BBK INTEGRATOR
Info: LANGEVIN DAMPING COEFFICIENT IS 1 INVERSE PS
Info: LANGEVIN DYNAMICS APPLIED TO HYDROGENS
Info: LANGEVIN PISTON PRESSURE CONTROL ACTIVE
Info:        TARGET PRESSURE IS 1.01325 BAR
Info:     OSCILLATION PERIOD IS 50 FS
Info:             DECAY TIME IS 25 FS
Info:     PISTON TEMPERATURE IS 300 K
Info:       PRESSURE CONTROL IS GROUP-BASED
Info:    INITIAL STRAIN RATE IS 0.000100861 0.000100861 0.000100861
Info:       CELL FLUCTUATION IS ISOTROPIC
Info: PARTICLE MESH EWALD (PME) ACTIVE
Info: PME TOLERANCE               1e-06
Info: PME EWALD COEFFICIENT       0.348832
Info: PME INTERPOLATION ORDER     4
Info: PME GRID DIMENSIONS         32 32 36
Info: PME MAXIMUM GRID SPACING    1
Info: PME CALCULATION WILL BE PERFORMED ON GPU
Info: FULL ELECTROSTATIC EVALUATION FREQUENCY      2
Info: USING VERLET I (r-RESPA) MTS SCHEME.
Info: C1 SPLITTING OF LONG RANGE ELECTROSTATICS
Info: PLACING ATOMS IN PATCHES BY HYDROGEN GROUPS
Info: RIGID BONDS TO HYDROGEN : ALL
Info:         ERROR TOLERANCE : 1e-08
Info:          MAX ITERATIONS : 100
Info: RIGID WATER USING SETTLE ALGORITHM
Info: RANDOM NUMBER SEED     1743655549
Info: USE HYDROGEN BONDS?    NO
Info: Using AMBER format force field!
Info: AMBER PARM FILE        mobley_4059279.prmtop
Info: COORDINATE PDB         mobley_4059279.pdb
Info: Exclusions will be read from PARM file!
Info: SCNB (VDW SCALING)     2
Info: USING ARITHMETIC MEAN TO COMBINE L-J SIGMA PARAMETERS
Info: BINARY COORDINATES     mobley_4059279_equil.coor
Info: SUMMARY OF PARAMETERS:
Info: 5 BONDS
Info: 5 ANGLES
Info:   5 HARMONIC
Info:   0 COSINE-BASED
Info: 3 DIHEDRAL
Info: 0 IMPROPER
Info: 0 CROSSTERM
Info: 0 VDW
Info: 15 VDW_PAIRS
Info: 0 NBTHOLE_PAIRS
Info: To read alchdata from file: mobley_4059279.pdb
Info: To read alchflag data from column: 5
Info: STRUCTURE SUMMARY:
Info: 2944 ATOMS
Info: 2944 BONDS
Info: 42 ANGLES
Info: 62 DIHEDRALS
Info: 0 IMPROPERS
Info: 0 CROSSTERMS
Info: 3037 EXCLUSIONS
Info: 2936 RIGID BONDS
Info: ALCH: 0 ATOMS TO DISAPPEAR IN FINAL STATE
Info: ALCH: 22 ATOMS TO APPEAR IN FINAL STATE
Info: 5896 DEGREES OF FREEDOM
Info: 982 HYDROGEN GROUPS
Info: 4 ATOMS IN LARGEST HYDROGEN GROUP
Info: 982 MIGRATION GROUPS
Info: 4 ATOMS IN LARGEST MIGRATION GROUP
Info: TOTAL MASS = 17661.8 amu
Info: TOTAL CHARGE = 0.000399984 e
Info: MASS DENSITY = 0.975542 g/cm^3
Info: ATOM DENSITY = 0.0979242 atoms/A^3
Info: ADDED 0 IMPLICIT EXCLUSIONS
Info: NONBONDED TABLE R-SQUARED SPACING: 0.0625
Info: NONBONDED TABLE SIZE: 705 POINTS
Info: REMOVING COM VELOCITY 0.119032 0.0530604 -0.0279854
Info: Use 3D box decompostion in PME FFT.
Info: Updated CUDA force table with 4096 elements.
Info: Updated CUDA LJ table with 5 x 5 elements.
Info: Found 23 unique exclusion lists needing 72 bytes
TCL: Running for 1500000 steps
ETITLE: TS BOND ANGLE DIHED IMPRP ELECT VDW BOUNDARY MISC KINETIC TOTAL TEMP POTENTIAL TOTALAVG TEMPAVG PRESSURE GPRESSURE VOLUME PRESSAVG GPRESSAVG
ENERGY: 0 1.7353 5.0897 3.9124 0.0000 -10614.7918 1444.9735 0.0000 0.0000 1774.2056 -7384.8752 302.8565 -9159.0808 -7384.8752 302.8565 38.8707 107.1567 30064.0714 38.8707 107.1567
ENERGY: 300000 1.1278 7.7078 4.0512 0.0000 -10612.8145 1454.3633 0.0000 0.0000 1773.0912 -7372.4732 302.6662 -9145.5644 -7391.5309 299.2223 328.9399 362.1474 30224.9886 36.6025 103.4061
ENERGY: 600000 6.9323 11.1984 3.9356 0.0000 -10529.2720 1320.4433 0.0000 0.0000 1729.1809 -7457.5816 295.1708 -9186.7624 -7409.5969 299.2088 -1155.4306 -1097.9623 30213.7924 1.1656 68.4591
ENERGY: 900000 4.6457 12.2978 4.2127 0.0000 -10682.2102 1506.6546 0.0000 0.0000 1781.4520 -7372.9475 304.0934 -9154.3994 -7425.4063 298.5182 554.9491 612.7564 30125.7611 107.2072 169.6370
ENERGY: 1200000 3.3217 7.4021 4.9641 0.0000 -10631.6790 1455.4630 0.0000 0.0000 1779.4785 -7381.0497 303.7565 -9160.5281 -7415.3652 299.1684 53.1640 100.3829 30636.9913 51.4389 114.2865
ENERGY: 1500000 3.1286 11.2876 4.4606 0.0000 -10549.2708 1419.3666 0.0000 0.0000 1774.4759 -7336.5516 302.9026 -9111.0274 -7407.9570 299.1938 -29.9191 47.5289 30288.9255 15.8960 72.6781
TCL: Running FEP window   2: Lambda1 0.95   Lambda2 0.8999999999999999 [dLambda -0.050000000000000044]
TCL: Setting parameter firsttimestep to 0
TCL: Setting parameter alchLambda to 0.95
Info: NONBONDED TABLE R-SQUARED SPACING: 0.0625
Info: NONBONDED TABLE SIZE: 705 POINTS
TCL: Setting parameter alchLambda2 to 0.8999999999999999
Info: NONBONDED TABLE R-SQUARED SPACING: 0.0625
Info: NONBONDED TABLE SIZE: 705 POINTS
TCL: Running for 1500000 steps
ETITLE: TS BOND ANGLE DIHED IMPRP ELECT VDW BOUNDARY MISC KINETIC TOTAL TEMP POTENTIAL TOTALAVG TEMPAVG PRESSURE GPRESSURE VOLUME PRESSAVG GPRESSAVG
ENERGY: 0 3.1286 11.2876 4.4606 0.0000 -10547.7580 1419.3547 0.0000 0.0000 1773.5886 -7335.9378 302.7512 -9109.5265 -7335.9378 302.7512 -53.8168 35.1511 30288.9255 -53.8168 35.1511
ENERGY: 300000 2.1007 7.5623 5.1843 0.0000 -10726.6389 1515.3920 0.0000 0.0000 1763.3943 -7433.0053 301.0110 -9196.3996 -7395.8070 300.0870 813.1143 841.7460 29842.0105 121.4783 153.8388
ENERGY: 600000 3.5916 12.6596 5.4730 0.0000 -10552.4475 1377.7847 0.0000 0.0000 1736.4575 -7416.4811 296.4129 -9152.9386 -7380.7160 300.5664 -533.4552 -458.2722 30514.2179 -57.0515 -11.1843
ENERGY: 900000 2.0310 8.6221 5.2234 0.0000 -10527.9271 1402.0037 0.0000 0.0000 1784.2275 -7325.8195 304.5672 -9110.0470 -7382.4746 301.6585 -193.0273 -141.5477 30623.7626 -137.5726 -85.0232
ENERGY: 1200000 1.7057 8.3831 3.6823 0.0000 -10652.8819 1422.7489 0.0000 0.0000 1709.6693 -7506.6927 291.8401 -9216.3620 -7374.0625 301.6665 -51.0668 68.0237 29701.8514 -153.3921 -91.6729
ENERGY: 1500000 2.4386 10.4480 4.7380 0.0000 -10474.1115 1374.0508 0.0000 0.0000 1740.6179 -7341.8183 297.1230 -9082.4361 -7376.6941 299.8500 -253.0924 -237.4261 30418.7854 -143.9988 -93.4938
TCL: Running FEP window   3: Lambda1 0.8999999999999999 Lambda2 0.8499999999999999 [dLambda -0.050000000000000044]
TCL: Setting parameter firsttimestep to 0
TCL: Setting parameter alchLambda to 0.8999999999999999
Info: NONBONDED TABLE R-SQUARED SPACING: 0.0625
Info: NONBONDED TABLE SIZE: 705 POINTS
TCL: Setting parameter alchLambda2 to 0.8499999999999999
Info: NONBONDED TABLE R-SQUARED SPACING: 0.0625
Info: NONBONDED TABLE SIZE: 705 POINTS
TCL: Running for 1500000 steps
ETITLE: TS BOND ANGLE DIHED IMPRP ELECT VDW BOUNDARY MISC KINETIC TOTAL TEMP POTENTIAL TOTALAVG TEMPAVG PRESSURE GPRESSURE VOLUME PRESSAVG GPRESSAVG
ENERGY: 0 2.4386 10.4480 4.7380 0.0000 -10472.4777 1373.7214 0.0000 0.0000 1739.7577 -7341.3740 296.9762 -9081.1317 -7341.3740 296.9762 -324.4463 -251.1525 30418.7854 -324.4463 -251.1525
ENERGY: 300000 2.1747 10.3407 3.7444 0.0000 -10649.8130 1383.5480 0.0000 0.0000 1787.8851 -7462.1201 305.1916 -9250.0052 -7382.5531 304.5009 -639.2461 -605.3017 30367.5742 -209.7189 -145.9225
ENERGY: 600000 1.2314 9.6774 3.5347 0.0000 -10619.6850 1397.2713 0.0000 0.0000 1757.3479 -7450.6222 299.9789 -9207.9701 -7379.2471 304.3351 -230.1311 -150.3442 29859.3946 -64.0316 -6.3977
ENERGY: 900000 1.8114 10.0565 4.3803 0.0000 -10569.9036 1423.1569 0.0000 0.0000 1740.4015 -7390.0969 297.0861 -9130.4984 -7373.4248 302.8166 -129.5447 -52.6983 30408.0257 -100.6004 -26.0300
ENERGY: 1200000 2.1718 13.9285 3.8654 0.0000 -10650.2506 1490.7396 0.0000 0.0000 1823.2775 -7316.2679 311.2330 -9139.5454 -7372.5365 302.5249 472.5170 593.9369 30458.5444 -53.3237 15.8836
ENERGY: 1500000 3.7827 6.8003 5.0892 0.0000 -10472.4569 1436.4913 0.0000 0.0000 1753.9324 -7266.3610 299.3958 -9020.2934 -7369.5260 302.4473 466.1768 531.0059 30135.5444 56.0802 124.6130
TCL: Running FEP window   4: Lambda1 0.8499999999999999 Lambda2 0.7999999999999998 [dLambda -0.050000000000000044]
TCL: Setting parameter firsttimestep to 0
TCL: Setting parameter alchLambda to 0.8499999999999999
Info: NONBONDED TABLE R-SQUARED SPACING: 0.0625
Info: NONBONDED TABLE SIZE: 705 POINTS
TCL: Setting parameter alchLambda2 to 0.7999999999999998
Info: NONBONDED TABLE R-SQUARED SPACING: 0.0625
Info: NONBONDED TABLE SIZE: 705 POINTS
TCL: Running for 1500000 steps
ETITLE: TS BOND ANGLE DIHED IMPRP ELECT VDW BOUNDARY MISC KINETIC TOTAL TEMP POTENTIAL TOTALAVG TEMPAVG PRESSURE GPRESSURE VOLUME PRESSAVG GPRESSAVG
ENERGY: 0 3.7827 6.8003 5.0892 0.0000 -10470.5304 1436.2686 0.0000 0.0000 1753.0502 -7265.5393 299.2453 -9018.5896 -7265.5393 299.2453 441.6480 521.9670 30135.5444 441.6480 521.9670
ENERGY: 300000 2.6030 12.8594 4.5752 0.0000 -10526.0143 1357.5438 0.0000 0.0000 1729.4255 -7419.0073 295.2125 -9148.4329 -7380.0646 299.6731 -380.7933 -293.0778 29771.4200 221.1102 316.6544
ENERGY: 600000 3.6475 9.3093 4.3621 0.0000 -10546.8162 1420.3306 0.0000 0.0000 1797.6068 -7311.5599 306.8510 -9109.1667 -7374.2249 300.4351 35.3769 128.4173 30392.3876 125.1474 197.7623
ENERGY: 900000 3.2101 11.7122 4.8144 0.0000 -10481.3463 1408.3898 0.0000 0.0000 1756.6879 -7296.5320 299.8662 -9053.2199 -7378.6397 299.4957 -303.8461 -244.4635 31109.2654 -33.9871 33.1499
ENERGY: 1200000 3.1428 11.9866 3.5819 0.0000 -10442.0222 1348.4317 0.0000 0.0000 1787.5791 -7287.3001 305.1393 -9074.8792 -7373.9589 300.7261 -516.2944 -462.4041 30254.2845 -32.7273 32.7897
ENERGY: 1500000 1.2530 10.4894 4.8591 0.0000 -10569.0400 1413.3856 0.0000 0.0000 1686.0077 -7453.0451 287.8011 -9139.0528 -7383.2845 299.3476 -224.9527 -138.8622 30327.1019 -81.0104 -12.1738
TCL: Running FEP window   5: Lambda1 0.7999999999999998 Lambda2 0.7499999999999998 [dLambda -0.050000000000000044]
TCL: Setting parameter firsttimestep to 0
TCL: Setting parameter alchLambda to 0.7999999999999998
Info: NONBONDED TABLE R-SQUARED SPACING: 0.0625
Info: NONBONDED TABLE SIZE: 705 POINTS
TCL: Setting parameter alchLambda2 to 0.7499999999999998
Info: NONBONDED TABLE R-SQUARED SPACING: 0.0625
Info: NONBONDED TABLE SIZE: 705 POINTS
TCL: Running for 1500000 steps
ETITLE: TS BOND ANGLE DIHED IMPRP ELECT VDW BOUNDARY MISC KINETIC TOTAL TEMP POTENTIAL TOTALAVG TEMPAVG PRESSURE GPRESSURE VOLUME PRESSAVG GPRESSAVG
ENERGY: 0 1.2530 10.4894 4.8591 0.0000 -10566.7835 1413.3070 0.0000 0.0000 1685.1230 -7451.7520 287.6501 -9136.8749 -7451.7520 287.6501 -210.5607 -146.2321 30327.1019 -210.5607 -146.2321
ENERGY: 300000 1.7401 8.1816 3.8926 0.0000 -10599.1481 1426.9775 0.0000 0.0000 1787.9823 -7370.3738 305.2081 -9158.3561 -7406.7105 296.8371 -191.7709 -110.6450 30576.0887 -444.6709 -383.1275
ENERGY: 600000 1.5463 9.2542 3.4609 0.0000 -10577.4343 1435.0873 0.0000 0.0000 1752.4086 -7375.6771 299.1357 -9128.0857 -7395.3159 297.0955 255.0015 333.0384 30048.3283 -350.7327 -288.5840
ENERGY: 900000 6.4686 7.5714 4.0031 0.0000 -10653.3491 1495.1702 0.0000 0.0000 1743.6819 -7396.4538 297.6461 -9140.1357 -7384.4597 298.6130 225.4427 259.6886 30271.8909 -249.1949 -196.3724
ENERGY: 1200000 3.7358 14.3699 3.7019 0.0000 -10592.9061 1403.7422 0.0000 0.0000 1773.6261 -7393.7302 302.7575 -9167.3563 -7381.9628 299.3538 -496.5788 -425.5624 30596.4967 -169.9998 -112.4981
ENERGY: 1500000 5.5841 6.9668 3.2358 0.0000 -10738.6284 1541.4522 0.0000 0.0000 1749.2726 -7432.1168 298.6004 -9181.3894 -7390.0809 298.8611 1159.9767 1267.3595 29633.8748 -52.3846 10.6453
TCL: Running FEP window   6: Lambda1 0.7499999999999998 Lambda2 0.6999999999999997 [dLambda -0.050000000000000044]
TCL: Setting parameter firsttimestep to 0
TCL: Setting parameter alchLambda to 0.7499999999999998
Info: NONBONDED TABLE R-SQUARED SPACING: 0.0625
Info: NONBONDED TABLE SIZE: 705 POINTS
TCL: Setting parameter alchLambda2 to 0.6999999999999997
Info: NONBONDED TABLE R-SQUARED SPACING: 0.0625
Info: NONBONDED TABLE SIZE: 705 POINTS
TCL: Running for 1500000 steps
ETITLE: TS BOND ANGLE DIHED IMPRP ELECT VDW BOUNDARY MISC KINETIC TOTAL TEMP POTENTIAL TOTALAVG TEMPAVG PRESSURE GPRESSURE VOLUME PRESSAVG GPRESSAVG
ENERGY: 0 5.5841 6.9668 3.2358 0.0000 -10736.2820 1541.1356 0.0000 0.0000 1748.3792 -7430.9804 298.4479 -9179.3597 -7430.9804 298.4479 1186.6560 1255.4697 29633.8748 1186.6560 1255.4697
ENERGY: 300000 2.3306 7.9986 3.7853 0.0000 -10762.9626 1532.2035 0.0000 0.0000 1806.7652 -7409.8794 308.4144 -9216.6446 -7409.4148 300.5493 760.7107 856.3722 29782.6560 456.5320 518.2966
ENERGY: 600000 2.9529 6.8842 5.1451 0.0000 -10431.1432 1302.0912 0.0000 0.0000 1758.5395 -7355.5304 300.1823 -9114.0699 -7377.3299 300.3925 -1180.1423 -1118.7255 30720.3910 -6.1341 62.5341
ENERGY: 900000 2.8246 7.2668 5.2925 0.0000 -10655.4781 1492.7016 0.0000 0.0000 1698.3413 -7449.0513 289.9065 -9147.3926 -7387.1098 299.7316 424.0691 495.0465 30186.2848 107.0031 173.4949
ENERGY: 1200000 3.6666 14.2647 4.9633 0.0000 -10422.1238 1376.8220 0.0000 0.0000 1818.2969 -7204.1103 310.3829 -9022.4072 -7374.6005 299.6893 -116.2814 -83.2958 30397.3900 48.7194 116.2306
ENERGY: 1500000 3.6169 14.3797 4.4970 0.0000 -10680.5550 1480.6536 0.0000 0.0000 1736.1119 -7441.2959 296.3539 -9177.4078 -7379.5623 298.8820 171.3851 191.7393 30333.0250 21.5461 85.5322
TCL: Running FEP window   7: Lambda1 0.6999999999999997 Lambda2 0.6499999999999997 [dLambda -0.050000000000000044]
TCL: Setting parameter firsttimestep to 0
TCL: Setting parameter alchLambda to 0.6999999999999997
Info: NONBONDED TABLE R-SQUARED SPACING: 0.0625
Info: NONBONDED TABLE SIZE: 705 POINTS
TCL: Setting parameter alchLambda2 to 0.6499999999999997
Info: NONBONDED TABLE R-SQUARED SPACING: 0.0625
Info: NONBONDED TABLE SIZE: 705 POINTS
TCL: Running for 1500000 steps
ETITLE: TS BOND ANGLE DIHED IMPRP ELECT VDW BOUNDARY MISC KINETIC TOTAL TEMP POTENTIAL TOTALAVG TEMPAVG PRESSURE GPRESSURE VOLUME PRESSAVG GPRESSAVG
ENERGY: 0 3.6169 14.3797 4.4970 0.0000 -10678.0329 1480.1083 0.0000 0.0000 1735.2091 -7440.2220 296.1998 -9175.4310 -7440.2220 296.1998 115.7010 180.7020 30333.0250 115.7010 180.7020
ENERGY: 300000 3.0991 10.4963 4.0567 0.0000 -10559.0532 1395.9215 0.0000 0.0000 1691.1321 -7454.3476 288.6758 -9145.4797 -7400.9405 295.9029 -107.7838 -71.0321 29940.2152 143.1677 208.7475
ENERGY: 600000 1.1410 9.0030 4.6829 0.0000 -10641.9249 1484.7276 0.0000 0.0000 1768.9530 -7373.4175 301.9599 -9142.3705 -7370.9095 299.7479 752.2100 734.0459 29723.4486 18.9648 71.4014
ENERGY: 900000 2.2015 13.8910 3.7904 0.0000 -10683.7435 1462.8131 0.0000 0.0000 1745.7758 -7455.2717 298.0035 -9201.0475 -7386.0185 299.4279 386.8180 393.3394 29774.6657 166.3086 217.0119
ENERGY: 1200000 3.9150 9.9794 3.8501 0.0000 -10625.2666 1452.8988 0.0000 0.0000 1795.5666 -7359.0565 306.5028 -9154.6231 -7374.3362 300.9032 327.4635 371.9915 29819.4510 155.1363 207.7059
ENERGY: 1500000 2.2343 7.6596 3.8707 0.0000 -10638.5290 1468.4914 0.0000 0.0000 1799.3672 -7356.9058 307.1515 -9156.2729 -7376.9384 300.9199 163.0332 150.6288 30359.6189 143.3479 191.1668
TCL: Running FEP window   8: Lambda1 0.6499999999999997 Lambda2 0.5999999999999996 [dLambda -0.050000000000000044]
TCL: Setting parameter firsttimestep to 0
TCL: Setting parameter alchLambda to 0.6499999999999997
Info: NONBONDED TABLE R-SQUARED SPACING: 0.0625
Info: NONBONDED TABLE SIZE: 705 POINTS
TCL: Setting parameter alchLambda2 to 0.5999999999999996
Info: NONBONDED TABLE R-SQUARED SPACING: 0.0625
Info: NONBONDED TABLE SIZE: 705 POINTS
TCL: Running for 1500000 steps
ETITLE: TS BOND ANGLE DIHED IMPRP ELECT VDW BOUNDARY MISC KINETIC TOTAL TEMP POTENTIAL TOTALAVG TEMPAVG PRESSURE GPRESSURE VOLUME PRESSAVG GPRESSAVG
ENERGY: 0 2.2343 7.6596 3.8707 0.0000 -10636.8603 1467.7725 0.0000 0.0000 1798.4985 -7356.8247 307.0033 -9155.3232 -7356.8247 307.0033 54.5680 139.2568 30359.6189 54.5680 139.2568
ENERGY: 300000 2.5487 12.4656 4.0162 0.0000 -10594.0719 1370.1740 0.0000 0.0000 1719.3866 -7485.4808 293.4989 -9204.8674 -7433.7721 297.2798 -681.4582 -575.6009 30232.2873 -271.8116 -182.0943
ENERGY: 600000 5.4688 10.1823 3.9072 0.0000 -10371.1663 1269.3532 0.0000 0.0000 1745.9764 -7336.2784 298.0378 -9082.2548 -7402.3563 298.0784 -995.9272 -1012.9246 29929.2346 -444.1238 -379.8967
ENERGY: 900000 1.2815 6.1796 4.0544 0.0000 -10479.3571 1383.1447 0.0000 0.0000 1755.6219 -7329.0751 299.6842 -9084.6971 -7398.7396 296.8814 -217.7622 -163.1622 30436.0933 -200.8341 -142.2741
ENERGY: 1200000 3.9251 8.9477 4.2752 0.0000 -10366.5512 1308.9798 0.0000 0.0000 1762.3955 -7278.0279 300.8405 -9040.4234 -7391.8488 297.4393 -956.7017 -856.0693 30795.1417 -205.1383 -137.9553
ENERGY: 1500000 6.8624 11.6351 6.0737 0.0000 -10588.8002 1462.8437 0.0000 0.0000 1783.6123 -7317.7731 304.4622 -9101.3853 -7388.1654 298.0355 441.5189 443.7098 30236.7260 -174.2994 -111.4229
TCL: Running FEP window   9: Lambda1 0.5999999999999996 Lambda2 0.5499999999999996 [dLambda -0.050000000000000044]
TCL: Setting parameter firsttimestep to 0
TCL: Setting parameter alchLambda to 0.5999999999999996
Info: NONBONDED TABLE R-SQUARED SPACING: 0.0625
Info: NONBONDED TABLE SIZE: 705 POINTS
TCL: Setting parameter alchLambda2 to 0.5499999999999996
Info: NONBONDED TABLE R-SQUARED SPACING: 0.0625
Info: NONBONDED TABLE SIZE: 705 POINTS
TCL: Running for 1500000 steps
ETITLE: TS BOND ANGLE DIHED IMPRP ELECT VDW BOUNDARY MISC KINETIC TOTAL TEMP POTENTIAL TOTALAVG TEMPAVG PRESSURE GPRESSURE VOLUME PRESSAVG GPRESSAVG
ENERGY: 0 6.8624 11.6351 6.0737 0.0000 -10587.3464 1462.4000 0.0000 0.0000 1782.7601 -7317.6152 304.3167 -9100.3753 -7317.6152 304.3167 356.5301 435.3941 30236.7260 356.5301 435.3941
ENERGY: 300000 2.0561 6.7182 4.2457 0.0000 -10516.5064 1412.2520 0.0000 0.0000 1700.2367 -7390.9977 290.2300 -9091.2344 -7362.3637 302.0651 -335.8945 -293.4990 30771.5739 103.7437 171.9799
ENERGY: 600000 10.0538 7.8253 3.9215 0.0000 -10527.2104 1398.5924 0.0000 0.0000 1723.7446 -7383.0728 294.2428 -9106.8174 -7385.7062 298.8929 -384.7321 -289.9110 30248.6618 47.5250 127.6734
ENERGY: 900000 8.1679 7.5840 3.7413 0.0000 -10474.7643 1289.2325 0.0000 0.0000 1720.9641 -7445.0745 293.7682 -9166.0386 -7393.2101 297.9040 -1254.5369 -1171.1723 30196.4499 -129.7037 -59.0243
ENERGY: 1200000 2.1752 13.8081 4.6078 0.0000 -10701.7748 1508.9083 0.0000 0.0000 1736.3705 -7435.9049 296.3980 -9172.2754 -7383.3655 298.5798 853.2719 855.1104 29708.7119 -77.6135 -14.3006
ENERGY: 1500000 2.2873 10.6638 6.2685 0.0000 -10698.0553 1543.1750 0.0000 0.0000 1807.6763 -7327.9844 308.5699 -9135.6607 -7374.0888 299.6143 1131.3533 1129.6662 29670.6599 93.4826 151.1126
TCL: Running FEP window  10: Lambda1 0.5499999999999996 Lambda2 0.4999999999999996 [dLambda -0.04999999999999999]
TCL: Setting parameter firsttimestep to 0
TCL: Setting parameter alchLambda to 0.5499999999999996
Info: NONBONDED TABLE R-SQUARED SPACING: 0.0625
Info: NONBONDED TABLE SIZE: 705 POINTS
TCL: Setting parameter alchLambda2 to 0.4999999999999996
Info: NONBONDED TABLE R-SQUARED SPACING: 0.0625
Info: NONBONDED TABLE SIZE: 705 POINTS
TCL: Running for 1500000 steps
ETITLE: TS BOND ANGLE DIHED IMPRP ELECT VDW BOUNDARY MISC KINETIC TOTAL TEMP POTENTIAL TOTALAVG TEMPAVG PRESSURE GPRESSURE VOLUME PRESSAVG GPRESSAVG
ENERGY: 0 2.2873 10.6638 6.2685 0.0000 -10697.9615 1543.1453 0.0000 0.0000 1806.7872 -7328.8094 308.4181 -9135.5965 -7328.8094 308.4181 1028.6513 1121.4122 29670.6599 1028.6513 1121.4122
ENERGY: 300000 4.0232 9.6449 4.0675 0.0000 -10555.3772 1396.3005 0.0000 0.0000 1754.6257 -7386.7153 299.5142 -9141.3411 -7353.3273 302.3477 -198.1967 -100.7218 29940.4391 -148.3930 -53.5976
ENERGY: 600000 5.3901 8.7624 4.2962 0.0000 -10773.3026 1556.0697 0.0000 0.0000 1769.8080 -7428.9762 302.1058 -9198.7842 -7367.8447 300.9287 658.6273 659.3342 30217.6522 -98.4713 -42.9846
ENERGY: 900000 2.1213 13.1922 4.4747 0.0000 -10588.0179 1439.7596 0.0000 0.0000 1801.8463 -7326.6238 307.5747 -9128.4701 -7349.1368 301.3766 150.1818 245.5894 30255.7606 -64.6757 -9.3180
ENERGY: 1200000 1.9419 8.0940 3.5544 0.0000 -10545.8031 1377.8707 0.0000 0.0000 1753.5733 -7400.7689 299.3345 -9154.3421 -7351.2401 301.7000 -454.3648 -390.3788 30064.5572 -98.3263 -47.0188
ENERGY: 1500000 4.4460 12.3294 3.5628 0.0000 -10611.3648 1485.3598 0.0000 0.0000 1715.1646 -7390.5023 292.7782 -9105.6669 -7364.0985 300.7474 255.1783 318.0358 30387.1525 -87.5939 -34.2344
TCL: Running FEP window  11: Lambda1 0.4999999999999996 Lambda2 0.4499999999999996 [dLambda -0.04999999999999999]
TCL: Setting parameter firsttimestep to 0
TCL: Setting parameter alchLambda to 0.4999999999999996
Info: NONBONDED TABLE R-SQUARED SPACING: 0.0625
Info: NONBONDED TABLE SIZE: 705 POINTS
TCL: Setting parameter alchLambda2 to 0.4499999999999996
Info: NONBONDED TABLE R-SQUARED SPACING: 0.0625
Info: NONBONDED TABLE SIZE: 705 POINTS
TCL: Running for 1500000 steps
ETITLE: TS BOND ANGLE DIHED IMPRP ELECT VDW BOUNDARY MISC KINETIC TOTAL TEMP POTENTIAL TOTALAVG TEMPAVG PRESSURE GPRESSURE VOLUME PRESSAVG GPRESSAVG
ENERGY: 0 4.4460 12.3293 3.5628 0.0000 -10610.9655 1485.9205 0.0000 0.0000 1714.2468 -7390.4601 292.6215 -9104.7069 -7390.4601 292.6215 255.3810 319.2075 30387.1525 255.3810 319.2075
ENERGY: 300000 5.7387 10.2831 4.3722 0.0000 -10728.1061 1484.8586 0.0000 0.0000 1810.8339 -7412.0197 309.1089 -9222.8536 -7395.0678 299.2733 256.4038 299.5565 30162.6483 -101.6330 -49.5793
ENERGY: 600000 2.3990 10.2819 4.8033 0.0000 -10632.3413 1422.9042 0.0000 0.0000 1700.7655 -7491.1873 290.3203 -9191.9528 -7395.1200 298.4973 -71.0022 15.6935 29729.9408 -105.6079 -41.8854
ENERGY: 900000 7.5206 11.5368 3.6148 0.0000 -10441.1100 1365.3118 0.0000 0.0000 1748.5192 -7304.6068 298.4718 -9053.1259 -7376.1068 299.1893 -422.9597 -323.7684 30216.7371 -17.8613 40.9881
ENERGY: 1200000 2.6575 8.8460 3.6357 0.0000 -10609.1104 1441.0521 0.0000 0.0000 1800.1530 -7352.7661 307.2857 -9152.9191 -7378.3978 299.5654 161.9082 215.6842 30108.6454 106.8057 157.1752
ENERGY: 1500000 2.6812 6.9881 4.0245 0.0000 -10621.0686 1505.6325 0.0000 0.0000 1803.2242 -7298.5181 307.8099 -9101.7423 -7371.1873 299.6290 716.7830 761.2174 30265.6252 57.4395 111.9726
TCL: Running FEP window  12: Lambda1 0.4499999999999996 Lambda2 0.39999999999999963 [dLambda -0.04999999999999999]
TCL: Setting parameter firsttimestep to 0
TCL: Setting parameter alchLambda to 0.4499999999999996
Info: NONBONDED TABLE R-SQUARED SPACING: 0.0625
Info: NONBONDED TABLE SIZE: 705 POINTS
TCL: Setting parameter alchLambda2 to 0.39999999999999963
Info: NONBONDED TABLE R-SQUARED SPACING: 0.0625
Info: NONBONDED TABLE SIZE: 705 POINTS
TCL: Running for 1500000 steps
ETITLE: TS BOND ANGLE DIHED IMPRP ELECT VDW BOUNDARY MISC KINETIC TOTAL TEMP POTENTIAL TOTALAVG TEMPAVG PRESSURE GPRESSURE VOLUME PRESSAVG GPRESSAVG
ENERGY: 0 2.6812 6.9881 4.0245 0.0000 -10621.0675 1504.9566 0.0000 0.0000 1802.3710 -7300.0461 307.6643 -9102.4171 -7300.0461 307.6643 655.6340 746.2284 30265.6252 655.6340 746.2284
ENERGY: 300000 0.8957 5.9727 3.6718 0.0000 -10512.2563 1426.7368 0.0000 0.0000 1753.3305 -7321.6487 299.2931 -9074.9793 -7368.5282 301.2417 187.2729 271.3559 30036.3541 99.6716 209.3581
ENERGY: 600000 1.1478 9.1473 6.8143 0.0000 -10608.6605 1457.8399 0.0000 0.0000 1719.9833 -7413.7279 293.6007 -9133.7112 -7358.7252 300.4260 -17.6953 29.5691 30753.1522 101.9501 206.2999
ENERGY: 900000 4.0090 12.4320 4.4836 0.0000 -10531.1629 1326.3878 0.0000 0.0000 1761.3735 -7422.4771 300.6660 -9183.8506 -7372.7048 300.4060 -841.8025 -769.1429 29936.3622 -126.8869 -26.6117
ENERGY: 1200000 3.5371 8.7936 3.4821 0.0000 -10590.4583 1423.2371 0.0000 0.0000 1789.8700 -7361.5385 305.5304 -9151.4084 -7370.5654 301.7976 -67.8449 2.4117 30083.3987 -53.0854 40.5495
ENERGY: 1500000 2.6859 12.8520 4.6220 0.0000 -10357.1631 1329.5334 0.0000 0.0000 1769.1214 -7238.3483 301.9886 -9007.4697 -7365.2336 301.7629 -560.6330 -489.6251 30539.0021 -92.2228 1.4026
TCL: Running FEP window  13: Lambda1 0.39999999999999963 Lambda2 0.34999999999999964 [dLambda -0.04999999999999999]
TCL: Setting parameter firsttimestep to 0
TCL: Setting parameter alchLambda to 0.39999999999999963
Info: NONBONDED TABLE R-SQUARED SPACING: 0.0625
Info: NONBONDED TABLE SIZE: 705 POINTS
TCL: Setting parameter alchLambda2 to 0.34999999999999964
Info: NONBONDED TABLE R-SQUARED SPACING: 0.0625
Info: NONBONDED TABLE SIZE: 705 POINTS
TCL: Running for 1500000 steps
ETITLE: TS BOND ANGLE DIHED IMPRP ELECT VDW BOUNDARY MISC KINETIC TOTAL TEMP POTENTIAL TOTALAVG TEMPAVG PRESSURE GPRESSURE VOLUME PRESSAVG GPRESSAVG
ENERGY: 0 2.6859 12.8520 4.6220 0.0000 -10357.1632 1329.6861 0.0000 0.0000 1768.2331 -7239.0840 301.8370 -9007.3171 -7239.0840 301.8370 -582.6327 -495.0021 30539.0021 -582.6327 -495.0021
ENERGY: 300000 2.1624 10.6051 4.3940 0.0000 -10615.6066 1440.8146 0.0000 0.0000 1736.8105 -7420.8200 296.4731 -9157.6305 -7363.4444 298.6636 -58.9614 17.5485 30162.6110 -188.2108 -118.9269
ENERGY: 600000 4.7214 6.8351 3.8442 0.0000 -10421.9572 1374.9357 0.0000 0.0000 1746.1230 -7285.4977 298.0628 -9031.6207 -7356.1331 299.2264 -280.8154 -237.9433 30440.3295 -136.2789 -76.1747
ENERGY: 900000 3.5029 8.3452 5.0192 0.0000 -10607.1284 1446.0086 0.0000 0.0000 1729.1991 -7415.0534 295.1739 -9144.2524 -7367.6226 298.2506 99.2659 160.6408 30125.9674 -91.1497 -22.7778
ENERGY: 1200000 4.1207 8.8185 4.1525 0.0000 -10575.3821 1401.4730 0.0000 0.0000 1706.9453 -7449.8721 291.3751 -9156.8174 -7378.0530 297.7107 -412.2288 -355.8734 30143.4078 -110.3599 -56.7798
ENERGY: 1500000 1.5790 12.1819 5.1096 0.0000 -10515.4832 1383.3772 0.0000 0.0000 1828.2548 -7284.9806 312.0827 -9113.2354 -7372.8574 298.8674 -157.6100 -42.5162 29951.0604 -169.9227 -109.0999
TCL: Running FEP window  14: Lambda1 0.34999999999999964 Lambda2 0.29999999999999966 [dLambda -0.04999999999999999]
TCL: Setting parameter firsttimestep to 0
TCL: Setting parameter alchLambda to 0.34999999999999964
Info: NONBONDED TABLE R-SQUARED SPACING: 0.0625
Info: NONBONDED TABLE SIZE: 705 POINTS
TCL: Setting parameter alchLambda2 to 0.29999999999999966
Info: NONBONDED TABLE R-SQUARED SPACING: 0.0625
Info: NONBONDED TABLE SIZE: 705 POINTS
TCL: Running for 1500000 steps
ETITLE: TS BOND ANGLE DIHED IMPRP ELECT VDW BOUNDARY MISC KINETIC TOTAL TEMP POTENTIAL TOTALAVG TEMPAVG PRESSURE GPRESSURE VOLUME PRESSAVG GPRESSAVG
ENERGY: 0 1.5790 12.1819 5.1096 0.0000 -10515.4825 1383.4124 0.0000 0.0000 1827.3597 -7285.8399 311.9299 -9113.1996 -7285.8399 311.9299 -157.6040 -52.8040 29951.0604 -157.6040 -52.8040
ENERGY: 300000 2.4925 7.2486 5.5606 0.0000 -10530.6592 1395.4842 0.0000 0.0000 1772.3234 -7347.5499 302.5352 -9119.8733 -7357.3434 301.6672 -299.6888 -202.7939 29999.8408 -371.7258 -305.1516
ENERGY: 600000 3.1850 8.8721 6.2104 0.0000 -10638.4603 1441.9712 0.0000 0.0000 1754.1299 -7424.0917 299.4296 -9178.2216 -7365.9450 300.6203 2.6899 44.6011 29989.3203 -169.2258 -123.9601
ENERGY: 900000 3.4305 11.1364 4.1249 0.0000 -10529.7513 1358.2703 0.0000 0.0000 1742.1306 -7410.6586 297.3813 -9152.7892 -7377.0933 300.2142 -654.3142 -600.3149 29816.4718 -219.2853 -172.6325
ENERGY: 1200000 5.2938 12.5133 3.7730 0.0000 -10637.9553 1497.1677 0.0000 0.0000 1759.3973 -7359.8102 300.3287 -9119.2075 -7384.0751 300.1146 548.3643 667.6191 30044.5864 -148.4179 -91.7204
ENERGY: 1500000 2.7077 12.7854 4.9806 0.0000 -10603.4748 1458.5766 0.0000 0.0000 1742.9835 -7381.4410 297.5269 -9124.4245 -7388.2865 300.0424 254.8083 366.9998 29989.7478 -58.6705 0.8047
TCL: Running FEP window  15: Lambda1 0.29999999999999966 Lambda2 0.24999999999999967 [dLambda -0.04999999999999999]
TCL: Setting parameter firsttimestep to 0
TCL: Setting parameter alchLambda to 0.29999999999999966
Info: NONBONDED TABLE R-SQUARED SPACING: 0.0625
Info: NONBONDED TABLE SIZE: 705 POINTS
TCL: Setting parameter alchLambda2 to 0.24999999999999967
Info: NONBONDED TABLE R-SQUARED SPACING: 0.0625
Info: NONBONDED TABLE SIZE: 705 POINTS
TCL: Running for 1500000 steps
ETITLE: TS BOND ANGLE DIHED IMPRP ELECT VDW BOUNDARY MISC KINETIC TOTAL TEMP POTENTIAL TOTALAVG TEMPAVG PRESSURE GPRESSURE VOLUME PRESSAVG GPRESSAVG
ENERGY: 0 2.7077 12.7854 4.9806 0.0000 -10603.4738 1459.0378 0.0000 0.0000 1742.1005 -7381.8619 297.3761 -9123.9624 -7381.8619 297.3761 272.2391 367.7228 29989.7478 272.2391 367.7228
ENERGY: 300000 3.1572 7.0834 3.1164 0.0000 -10464.4842 1404.4586 0.0000 0.0000 1737.1574 -7309.5111 296.5323 -9046.6685 -7376.1748 298.5773 -186.4123 -71.8348 30418.8198 0.9420 95.1174
ENERGY: 600000 4.3910 15.4580 5.9903 0.0000 -10473.3385 1407.5180 0.0000 0.0000 1814.7174 -7225.2638 309.7718 -9039.9812 -7357.7288 300.6696 -134.7881 -59.6533 30495.4720 21.7627 105.2308
ENERGY: 900000 4.3105 8.8730 4.0455 0.0000 -10699.8959 1503.1260 0.0000 0.0000 1763.5549 -7415.9861 301.0384 -9179.5410 -7380.7894 299.6818 492.6464 484.0471 29890.7990 131.9209 196.0610
ENERGY: 1200000 3.8517 6.5425 4.3100 0.0000 -10658.8110 1489.7710 0.0000 0.0000 1725.6940 -7428.6418 294.5756 -9154.3359 -7386.1373 298.6519 261.5554 381.6185 30141.5338 80.3537 149.2605
ENERGY: 1500000 5.5483 19.7372 3.6505 0.0000 -10599.3581 1467.5165 0.0000 0.0000 1765.6883 -7337.2173 301.4026 -9102.9057 -7380.7201 299.2151 -75.5976 -9.0169 30621.5754 52.5925 110.6049
TCL: Running FEP window  16: Lambda1 0.24999999999999967 Lambda2 0.19999999999999968 [dLambda -0.04999999999999999]
TCL: Setting parameter firsttimestep to 0
TCL: Setting parameter alchLambda to 0.24999999999999967
Info: NONBONDED TABLE R-SQUARED SPACING: 0.0625
Info: NONBONDED TABLE SIZE: 705 POINTS
TCL: Setting parameter alchLambda2 to 0.19999999999999968
Info: NONBONDED TABLE R-SQUARED SPACING: 0.0625
Info: NONBONDED TABLE SIZE: 705 POINTS
TCL: Running for 1500000 steps
ETITLE: TS BOND ANGLE DIHED IMPRP ELECT VDW BOUNDARY MISC KINETIC TOTAL TEMP POTENTIAL TOTALAVG TEMPAVG PRESSURE GPRESSURE VOLUME PRESSAVG GPRESSAVG
ENERGY: 0 5.5483 19.7372 3.6505 0.0000 -10599.3603 1466.9483 0.0000 0.0000 1764.8721 -7338.6038 301.2632 -9103.4759 -7338.6038 301.2632 -93.6505 -15.8907 30621.5754 -93.6505 -15.8907
ENERGY: 300000 3.4921 10.9128 4.3606 0.0000 -10538.2307 1377.0412 0.0000 0.0000 1797.1037 -7345.3203 306.7652 -9142.4240 -7315.0752 302.7225 -387.0609 -309.1496 30078.7331 -160.1633 -100.7718
ENERGY: 600000 3.6959 7.4104 3.5946 0.0000 -10576.6231 1421.6352 0.0000 0.0000 1775.8395 -7364.4474 303.1354 -9140.2869 -7353.2812 301.9173 -145.8512 -91.7746 30412.0059 -176.6644 -122.2196
ENERGY: 900000 3.2647 12.0854 5.6176 0.0000 -10516.3952 1428.7677 0.0000 0.0000 1758.6480 -7308.0118 300.2008 -9066.6598 -7353.8391 301.9942 -61.2780 -17.2627 30353.0740 -244.1016 -185.0392
ENERGY: 1200000 3.3875 12.9847 4.0772 0.0000 -10560.2853 1441.3815 0.0000 0.0000 1733.9411 -7364.5134 295.9833 -9098.4545 -7364.5857 300.8429 194.6903 293.1743 30243.3239 -195.9509 -135.7683
ENERGY: 1500000 2.2171 10.4045 4.0174 0.0000 -10563.2526 1386.5767 0.0000 0.0000 1809.7630 -7350.2739 308.9261 -9160.0369 -7366.4183 301.0726 -481.0494 -454.5323 30137.0461 -194.7366 -134.8115
TCL: Running FEP window  17: Lambda1 0.19999999999999968 Lambda2 0.1499999999999997 [dLambda -0.04999999999999999]
TCL: Setting parameter firsttimestep to 0
TCL: Setting parameter alchLambda to 0.19999999999999968
Info: NONBONDED TABLE R-SQUARED SPACING: 0.0625
Info: NONBONDED TABLE SIZE: 705 POINTS
TCL: Setting parameter alchLambda2 to 0.1499999999999997
Info: NONBONDED TABLE R-SQUARED SPACING: 0.0625
Info: NONBONDED TABLE SIZE: 705 POINTS
TCL: Running for 1500000 steps
ETITLE: TS BOND ANGLE DIHED IMPRP ELECT VDW BOUNDARY MISC KINETIC TOTAL TEMP POTENTIAL TOTALAVG TEMPAVG PRESSURE GPRESSURE VOLUME PRESSAVG GPRESSAVG
ENERGY: 0 2.2171 10.4045 4.0174 0.0000 -10563.2511 1386.2960 0.0000 0.0000 1808.9192 -7351.3969 308.7821 -9160.3161 -7351.3969 308.7821 -559.7915 -460.8122 30137.0461 -559.7915 -460.8122
ENERGY: 300000 0.9121 9.5797 5.1953 0.0000 -10590.5444 1495.4071 0.0000 0.0000 1754.2723 -7325.1778 299.4539 -9079.4501 -7366.7893 298.7087 497.1743 518.0555 30400.3703 -51.1029 18.6833
ENERGY: 600000 5.2085 11.2623 4.7966 0.0000 -10638.9597 1526.4496 0.0000 0.0000 1773.6904 -7317.5522 302.7685 -9091.2426 -7353.4876 299.4108 945.2021 1009.4397 29944.3873 93.5282 168.3927
ENERGY: 900000 2.8409 11.8480 5.4701 0.0000 -10626.4166 1426.8165 0.0000 0.0000 1747.9116 -7431.5295 298.3681 -9179.4411 -7367.3485 298.4079 -212.9803 -127.7650 29975.6226 93.3716 169.2537
ENERGY: 1200000 1.3581 10.5492 4.5734 0.0000 -10694.7939 1504.4095 0.0000 0.0000 1825.8514 -7348.0522 311.6724 -9173.9036 -7363.6890 299.6523 525.0183 500.4450 30066.0756 81.5912 147.4137
ENERGY: 1500000 3.8076 12.3736 3.8576 0.0000 -10714.4785 1533.1192 0.0000 0.0000 1774.0360 -7387.2844 302.8275 -9161.3204 -7368.5144 299.6979 736.0510 807.8503 29857.3831 151.3642 215.8131
TCL: Running FEP window  18: Lambda1 0.1499999999999997 Lambda2 0.09999999999999969 [dLambda -0.05 ]
TCL: Setting parameter firsttimestep to 0
TCL: Setting parameter alchLambda to 0.1499999999999997
Info: NONBONDED TABLE R-SQUARED SPACING: 0.0625
Info: NONBONDED TABLE SIZE: 705 POINTS
TCL: Setting parameter alchLambda2 to 0.09999999999999969
Info: NONBONDED TABLE R-SQUARED SPACING: 0.0625
Info: NONBONDED TABLE SIZE: 705 POINTS
TCL: Running for 1500000 steps
ETITLE: TS BOND ANGLE DIHED IMPRP ELECT VDW BOUNDARY MISC KINETIC TOTAL TEMP POTENTIAL TOTALAVG TEMPAVG PRESSURE GPRESSURE VOLUME PRESSAVG GPRESSAVG
ENERGY: 0 3.8076 12.3736 3.8576 0.0000 -10714.4790 1533.4266 0.0000 0.0000 1773.1778 -7387.8358 302.6810 -9161.0136 -7387.8358 302.6810 733.4861 806.6186 29857.3831 733.4861 806.6186
ENERGY: 300000 3.2125 9.9275 3.9597 0.0000 -10434.4466 1339.3891 0.0000 0.0000 1779.9663 -7297.9914 303.8398 -9077.9578 -7345.3047 301.9997 -698.0732 -619.0310 30322.4437 108.7279 163.0692
ENERGY: 600000 2.6975 9.4297 3.3211 0.0000 -10522.0478 1446.2246 0.0000 0.0000 1759.8564 -7300.5184 300.4071 -9060.3748 -7350.2805 300.2010 249.3361 331.9745 30220.5759 56.2226 110.0984
ENERGY: 900000 2.6436 9.5547 4.6577 0.0000 -10694.7554 1483.9087 0.0000 0.0000 1749.5334 -7444.4573 298.6449 -9193.9907 -7361.1223 299.4613 497.2860 516.6373 29529.2723 75.4431 127.8102
ENERGY: 1200000 2.6146 9.8156 4.1845 0.0000 -10554.1899 1452.8930 0.0000 0.0000 1788.5051 -7296.1771 305.2974 -9084.6822 -7354.2811 300.6671 294.2760 285.5790 30340.0278 72.3178 124.5151
ENERGY: 1500000 3.1264 17.6891 4.2795 0.0000 -10526.8862 1425.5662 0.0000 0.0000 1756.0304 -7320.1945 299.7540 -9076.2249 -7356.2072 300.3343 -53.4408 55.3588 30436.3535 45.6066 103.1226
TCL: Running FEP window  19: Lambda1 0.09999999999999969 Lambda2 0.049999999999999684 [dLambda -0.05 ]
TCL: Setting parameter firsttimestep to 0
TCL: Setting parameter alchLambda to 0.09999999999999969
Info: NONBONDED TABLE R-SQUARED SPACING: 0.0625
Info: NONBONDED TABLE SIZE: 705 POINTS
TCL: Setting parameter alchLambda2 to 0.049999999999999684
Info: NONBONDED TABLE R-SQUARED SPACING: 0.0625
Info: NONBONDED TABLE SIZE: 705 POINTS
TCL: Running for 1500000 steps
ETITLE: TS BOND ANGLE DIHED IMPRP ELECT VDW BOUNDARY MISC KINETIC TOTAL TEMP POTENTIAL TOTALAVG TEMPAVG PRESSURE GPRESSURE VOLUME PRESSAVG GPRESSAVG
ENERGY: 0 3.1264 17.6891 4.2795 0.0000 -10526.8880 1426.1802 0.0000 0.0000 1755.1796 -7320.4332 299.6087 -9075.6127 -7320.4332 299.6087 -21.3772 55.6664 30436.3535 -21.3772 55.6664
ENERGY: 300000 1.9363 11.5663 3.2278 0.0000 -10610.1189 1478.3366 0.0000 0.0000 1675.7268 -7439.3251 286.0462 -9115.0519 -7379.2406 296.0212 413.8005 435.9466 30134.5604 46.3105 103.7674
ENERGY: 600000 2.1803 10.8579 3.8092 0.0000 -10619.5827 1392.9917 0.0000 0.0000 1739.7143 -7470.0292 296.9688 -9209.7436 -7382.0548 297.4730 -839.1944 -802.7370 30743.9545 -218.7870 -167.4134
ENERGY: 900000 1.7129 10.2876 3.5043 0.0000 -10518.2913 1412.1720 0.0000 0.0000 1717.8277 -7372.7868 293.2328 -9090.6145 -7386.2926 297.2807 109.1077 221.8079 29690.6667 -117.9995 -58.7649
ENERGY: 1200000 3.4230 13.4243 4.9257 0.0000 -10675.8728 1492.4033 0.0000 0.0000 1767.1204 -7394.5762 301.6470 -9161.6966 -7392.3914 297.6311 619.0114 678.2508 29834.4598 -2.5807 61.0238
ENERGY: 1500000 3.4441 13.5240 3.9314 0.0000 -10618.1894 1451.1117 0.0000 0.0000 1826.3352 -7319.8431 311.7550 -9146.1782 -7383.0749 298.8110 217.5887 246.9696 30041.2007 -25.1330 39.6418
TCL: Running FEP window  20: Lambda1 0.049999999999999684 Lambda2 0.0    [dLambda -0.049999999999999684]
TCL: Setting parameter firsttimestep to 0
TCL: Setting parameter alchLambda to 0.049999999999999684
Info: NONBONDED TABLE R-SQUARED SPACING: 0.0625
Info: NONBONDED TABLE SIZE: 705 POINTS
TCL: Setting parameter alchLambda2 to 0.0
Info: NONBONDED TABLE R-SQUARED SPACING: 0.0625
Info: NONBONDED TABLE SIZE: 705 POINTS
TCL: Running for 1500000 steps
ETITLE: TS BOND ANGLE DIHED IMPRP ELECT VDW BOUNDARY MISC KINETIC TOTAL TEMP POTENTIAL TOTALAVG TEMPAVG PRESSURE GPRESSURE VOLUME PRESSAVG GPRESSAVG
ENERGY: 0 3.4441 13.5240 3.9314 0.0000 -10618.1877 1451.2624 0.0000 0.0000 1825.4719 -7320.5538 311.6076 -9146.0257 -7320.5538 311.6076 184.1592 245.8267 30041.2007 184.1592 245.8267
ENERGY: 300000 2.2650 9.7210 4.4124 0.0000 -10549.2218 1382.8942 0.0000 0.0000 1766.6572 -7383.2720 301.5680 -9149.9292 -7353.2565 305.8168 -308.1685 -241.6855 30071.5502 24.2106 101.2932
ENERGY: 600000 2.7770 7.0453 3.7794 0.0000 -10463.4050 1322.3741 0.0000 0.0000 1747.0016 -7380.4276 298.2128 -9127.4292 -7357.5188 303.0743 -952.5015 -866.9668 30220.0057 -64.1226 16.0436
ENERGY: 900000 0.9607 12.9465 4.2502 0.0000 -10701.8512 1492.5907 0.0000 0.0000 1770.4574 -7420.6457 302.2167 -9191.1032 -7368.2863 302.5298 348.2352 408.8008 30058.4656 17.5106 88.5273
ENERGY: 1200000 1.2202 10.5599 3.7047 0.0000 -10441.0657 1350.7975 0.0000 0.0000 1767.4604 -7307.3229 301.7051 -9074.7834 -7362.4388 301.9757 -510.2904 -506.7021 30186.6572 -42.2995 33.0173
ENERGY: 1500000 4.7464 8.5101 3.7532 0.0000 -10504.3031 1366.9499 0.0000 0.0000 1742.1973 -7378.1461 297.3927 -9120.3435 -7371.8061 301.2295 -672.1809 -680.0445 30090.6132 -151.3039 -86.0477
TCL: Exiting due to exit command.
