Info: SIMULATION PARAMETERS:
Info: TIMESTEP               2
Info: NUMBER OF STEPS        0
Info: STEPS PER CYCLE        10
Info: PERIODIC CELL BASIS 1  31.7445 0 0
Info: PERIODIC CELL BASIS 2  0 29.8362 0
Info: PERIODIC CELL BASIS 3  0 0 31.3727
Info: PERIODIC CELL CENTER   0 0 0
Info: WRAPPING WATERS AROUND PERIODIC BOUNDARIES ON OUTPUT.
Info: WRAPPING ALL CLUSTERS AROUND PERIODIC BOUNDARIES ON OUTPUT.
Info: FIRST LDB TIMESTEP     50
Info: LAST LDB TIMESTEP     -1
Info: HOM BACKGROUND SCALING 1
Info: PME BACKGROUND SCALING 1
Info: MIN ATOMS PER PATCH    40
Info: EMPTY PATCH LOAD       40 ATOMS
Info: VELOCITY FILE          mobley_5977084_equil.vel
Info: CENTER OF MASS MOVING INITIALLY? NO
Info: DIELECTRIC             1
Info: EXCLUDE                SCALED ONE-FOUR
Info: 1-4 ELECTROSTATICS SCALED BY 0.833333
Info: MODIFIED 1-4 VDW PARAMETERS WILL BE USED
Info: DCD FILENAME           mobley_5977084_prod.dcd
Info: DCD FREQUENCY          100000
Info: DCD FIRST STEP         100000
Info: DCD FILE WILL CONTAIN UNIT CELL DATA
Info: XST FILENAME           mobley_5977084_prod.xst
Info: XST FREQUENCY          100000
Info: NO VELOCITY DCD OUTPUT
Info: NO FORCE DCD OUTPUT
Info: OUTPUT FILENAME        mobley_5977084_prod
Info: BINARY OUTPUT FILES WILL BE USED
Info: RESTART FILENAME       mobley_5977084_prod.restart
Info: RESTART FREQUENCY      100000
Info: BINARY RESTART FILES WILL BE USED
Info: CUTOFF                 9
Info: PAIRLIST DISTANCE      11
Info: PAIRLIST SHRINK RATE   0.01
Info: PAIRLIST GROW RATE     0.01
Info: PAIRLIST TRIGGER       0.3
Info: PAIRLISTS PER CYCLE    2
Info: PAIRLISTS ENABLED
Info: MARGIN                 2
Info: HYDROGEN GROUP CUTOFF  2.5
Info: PATCH DIMENSION        15.5
Info: ENERGY OUTPUT STEPS    100000
Info: ENERGY EVALUATION STEPS    100000
Info: OUTPUT ENERGY PRECISION 4
Info: CROSSTERM ENERGY INCLUDED IN DIHEDRAL
Info: TIMING OUTPUT STEPS    1000000
Info: PRESSURE OUTPUT STEPS  100000
Info: ALCHEMICAL FEP ON
Info: FEP CURRENT LAMBDA VALUE     0
Info: FEP COMPARISON LAMBDA VALUE  0.05
Info: FEP INTRA-ALCHEMICAL NON-BONDED INTERACTIONS WILL BE RETAINED
Info: FEP INTRA-ALCHEMICAL BONDED INTERACTIONS WILL BE RETAINED
Info: FEP VDW SHIFTING COEFFICIENT 5
Info: FEP ELEC. ACTIVE FOR ANNIHILATED PARTICLES BETWEEN LAMBDA = 0 AND LAMBDA = 0.5
Info: FEP ELEC. ACTIVE FOR EXNIHILATED PARTICLES BETWEEN LAMBDA = 0.5 AND LAMBDA = 1
Info: FEP VDW ACTIVE FOR ANNIHILATED PARTICLES BETWEEN LAMBDA = 0 AND LAMBDA = 1
Info: FEP VDW ACTIVE FOR EXNIHILATED PARTICLES BETWEEN LAMBDA = 0 AND LAMBDA = 1
Info: FEP BOND ACTIVE FOR ANNIHILATED PARTICLES BETWEEN LAMBDA = 1 AND LAMBDA = 1
Info: FEP BOND ACTIVE FOR EXNIHILATED PARTICLES BETWEEN LAMBDA = 0 AND LAMBDA = 0
Info: LANGEVIN DYNAMICS ACTIVE
Info: LANGEVIN TEMPERATURE   300
Info: LANGEVIN USING BBK INTEGRATOR
Info: LANGEVIN DAMPING COEFFICIENT IS 1 INVERSE PS
Info: LANGEVIN DYNAMICS APPLIED TO HYDROGENS
Info: LANGEVIN PISTON PRESSURE CONTROL ACTIVE
Info:        TARGET PRESSURE IS 1.01325 BAR
Info:     OSCILLATION PERIOD IS 50 FS
Info:             DECAY TIME IS 25 FS
Info:     PISTON TEMPERATURE IS 300 K
Info:       PRESSURE CONTROL IS GROUP-BASED
Info:    INITIAL STRAIN RATE IS -2.71934e-05 -2.71934e-05 -2.71934e-05
Info:       CELL FLUCTUATION IS ISOTROPIC
Info: PARTICLE MESH EWALD (PME) ACTIVE
Info: PME TOLERANCE               1e-06
Info: PME EWALD COEFFICIENT       0.348832
Info: PME INTERPOLATION ORDER     4
Info: PME GRID DIMENSIONS         32 32 32
Info: PME MAXIMUM GRID SPACING    1
Info: PME CALCULATION WILL BE PERFORMED ON GPU
Info: FULL ELECTROSTATIC EVALUATION FREQUENCY      2
Info: USING VERLET I (r-RESPA) MTS SCHEME.
Info: C1 SPLITTING OF LONG RANGE ELECTROSTATICS
Info: PLACING ATOMS IN PATCHES BY HYDROGEN GROUPS
Info: RIGID BONDS TO HYDROGEN : ALL
Info:         ERROR TOLERANCE : 1e-08
Info:          MAX ITERATIONS : 100
Info: RIGID WATER USING SETTLE ALGORITHM
Info: RANDOM NUMBER SEED     1743563633
Info: USE HYDROGEN BONDS?    NO
Info: Using AMBER format force field!
Info: AMBER PARM FILE        mobley_5977084.prmtop
Info: COORDINATE PDB         mobley_5977084.pdb
Info: Exclusions will be read from PARM file!
Info: SCNB (VDW SCALING)     2
Info: USING ARITHMETIC MEAN TO COMBINE L-J SIGMA PARAMETERS
Info: BINARY COORDINATES     mobley_5977084_equil.coor
Info: SUMMARY OF PARAMETERS:
Info: 8 BONDS
Info: 9 ANGLES
Info:   9 HARMONIC
Info:   0 COSINE-BASED
Info: 4 DIHEDRAL
Info: 0 IMPROPER
Info: 0 CROSSTERM
Info: 0 VDW
Info: 36 VDW_PAIRS
Info: 0 NBTHOLE_PAIRS
Info: To read alchdata from file: mobley_5977084.pdb
Info: To read alchflag data from column: 5
Info: STRUCTURE SUMMARY:
Info: 2927 ATOMS
Info: 2927 BONDS
Info: 22 ANGLES
Info: 31 DIHEDRALS
Info: 0 IMPROPERS
Info: 0 CROSSTERMS
Info: 2972 EXCLUSIONS
Info: 2920 RIGID BONDS
Info: ALCH: 0 ATOMS TO DISAPPEAR IN FINAL STATE
Info: ALCH: 14 ATOMS TO APPEAR IN FINAL STATE
Info: 5861 DEGREES OF FREEDOM
Info: 978 HYDROGEN GROUPS
Info: 4 ATOMS IN LARGEST HYDROGEN GROUP
Info: 978 MIGRATION GROUPS
Info: 4 ATOMS IN LARGEST MIGRATION GROUP
Info: TOTAL MASS = 17586.7 amu
Info: TOTAL CHARGE = 0.000100007 e
Info: MASS DENSITY = 0.982831 g/cm^3
Info: ATOM DENSITY = 0.0985051 atoms/A^3
Info: ADDED 0 IMPLICIT EXCLUSIONS
Info: NONBONDED TABLE R-SQUARED SPACING: 0.0625
Info: NONBONDED TABLE SIZE: 705 POINTS
Info: REMOVING COM VELOCITY 0.0452436 -0.103255 0.0587284
Info: Use 3D box decompostion in PME FFT.
Info: Updated CUDA force table with 4096 elements.
Info: Updated CUDA LJ table with 8 x 8 elements.
Info: Found 15 unique exclusion lists needing 32 bytes
TCL: Running for 1500000 steps
ETITLE: TS BOND ANGLE DIHED IMPRP ELECT VDW BOUNDARY MISC KINETIC TOTAL TEMP POTENTIAL TOTALAVG TEMPAVG PRESSURE GPRESSURE VOLUME PRESSAVG GPRESSAVG
ENERGY: 0 3.0993 5.0136 3.6591 0.0000 -10574.6570 1400.0465 0.0000 0.0000 1739.6277 -7423.2108 298.7274 -9162.8385 -7423.2108 298.7274 -27.2461 57.5737 29714.1847 -27.2461 57.5737
ENERGY: 300000 2.3524 3.0041 0.8523 0.0000 -10773.0019 1517.4631 0.0000 0.0000 1749.8879 -7499.4421 300.4892 -9249.3300 -7452.5920 299.7888 430.0949 568.5353 29591.3810 26.1975 100.2354
ENERGY: 600000 1.8525 3.1325 2.5433 0.0000 -10699.6406 1474.5523 0.0000 0.0000 1705.1309 -7512.4290 292.8036 -9217.5600 -7466.5578 299.0615 59.3609 151.7218 29938.6308 130.5428 206.5812
ENERGY: 900000 1.3730 8.3603 1.2851 0.0000 -10688.8601 1486.6060 0.0000 0.0000 1754.4252 -7436.8106 301.2684 -9191.2357 -7457.2494 299.4150 369.7204 377.8465 30014.1603 217.2069 270.2058
ENERGY: 1200000 1.7264 4.3301 1.9438 0.0000 -10618.8913 1404.0273 0.0000 0.0000 1695.5726 -7511.2911 291.1622 -9206.8637 -7456.5931 299.1212 -572.1649 -494.0826 30465.3892 141.0092 197.7401
ENERGY: 1500000 1.0330 4.2370 2.4387 0.0000 -10693.3244 1444.3002 0.0000 0.0000 1763.7948 -7477.5205 302.8773 -9241.3153 -7456.4014 299.7635 53.0552 127.7818 29638.7793 92.5975 149.6822
TCL: Running FEP window   2: Lambda1 0.05   Lambda2 0.1    [dLambda 0.05  ]
TCL: Setting parameter firsttimestep to 0
TCL: Setting parameter alchLambda to 0.05
Info: NONBONDED TABLE R-SQUARED SPACING: 0.0625
Info: NONBONDED TABLE SIZE: 705 POINTS
TCL: Setting parameter alchLambda2 to 0.1
Info: NONBONDED TABLE R-SQUARED SPACING: 0.0625
Info: NONBONDED TABLE SIZE: 705 POINTS
TCL: Running for 1500000 steps
ETITLE: TS BOND ANGLE DIHED IMPRP ELECT VDW BOUNDARY MISC KINETIC TOTAL TEMP POTENTIAL TOTALAVG TEMPAVG PRESSURE GPRESSURE VOLUME PRESSAVG GPRESSAVG
ENERGY: 0 1.0330 4.2370 2.4387 0.0000 -10693.3240 1445.9286 0.0000 0.0000 1762.9121 -7476.7745 302.7257 -9239.6866 -7476.7745 302.7257 58.4338 130.5608 29638.7793 58.4338 130.5608
ENERGY: 300000 1.4266 2.1075 3.0481 0.0000 -10626.8252 1388.9668 0.0000 0.0000 1770.5503 -7460.7259 304.0374 -9231.2763 -7446.8634 301.4416 -658.2013 -573.6508 29921.2965 -123.6006 -54.1780
ENERGY: 600000 1.9388 2.4727 3.0260 0.0000 -10859.9889 1569.2811 0.0000 0.0000 1719.8511 -7563.4192 295.3313 -9283.2703 -7455.8902 302.3307 705.4172 791.0820 30059.1516 -0.9783 59.9926
ENERGY: 900000 4.3642 3.9879 0.8837 0.0000 -10758.2082 1575.8845 0.0000 0.0000 1763.6349 -7409.4529 302.8498 -9173.0878 -7437.3492 302.8714 1227.3452 1270.9279 29782.1221 124.6644 194.8698
ENERGY: 1200000 1.3578 2.9816 1.9947 0.0000 -10716.6695 1442.2643 0.0000 0.0000 1733.9884 -7534.0828 297.7590 -9268.0711 -7441.9054 303.1131 -339.2485 -270.4464 30122.4824 56.9195 123.3153
ENERGY: 1500000 1.3948 3.3305 1.4886 0.0000 -10532.4860 1416.3203 0.0000 0.0000 1714.8451 -7395.1067 294.4717 -9109.9519 -7443.0782 301.3247 -56.6577 66.8493 29958.6907 3.9879 72.6721
TCL: Running FEP window   3: Lambda1 0.1    Lambda2 0.15000000000000002 [dLambda 0.05000000000000002]
TCL: Setting parameter firsttimestep to 0
TCL: Setting parameter alchLambda to 0.1
Info: NONBONDED TABLE R-SQUARED SPACING: 0.0625
Info: NONBONDED TABLE SIZE: 705 POINTS
TCL: Setting parameter alchLambda2 to 0.15000000000000002
Info: NONBONDED TABLE R-SQUARED SPACING: 0.0625
Info: NONBONDED TABLE SIZE: 705 POINTS
TCL: Running for 1500000 steps
ETITLE: TS BOND ANGLE DIHED IMPRP ELECT VDW BOUNDARY MISC KINETIC TOTAL TEMP POTENTIAL TOTALAVG TEMPAVG PRESSURE GPRESSURE VOLUME PRESSAVG GPRESSAVG
ENERGY: 0 1.3948 3.3305 1.4886 0.0000 -10532.4867 1420.0711 0.0000 0.0000 1713.9679 -7392.2339 294.3211 -9106.2017 -7392.2339 294.3211 -15.5815 77.3352 29958.6907 -15.5815 77.3352
ENERGY: 300000 0.8886 2.7854 1.0726 0.0000 -10512.5399 1400.7163 0.0000 0.0000 1776.2449 -7330.8320 305.0152 -9107.0769 -7410.4577 298.8842 -137.2188 -30.1688 30224.1931 -158.9057 -69.2805
ENERGY: 600000 2.2069 2.3108 6.9738 0.0000 -10614.7913 1386.9957 0.0000 0.0000 1756.4620 -7459.8421 301.6181 -9216.3041 -7418.2766 298.0526 -45.6330 25.8678 29428.2255 -79.5295 -22.6340
ENERGY: 900000 0.3757 2.7920 2.9870 0.0000 -10595.7605 1409.5908 0.0000 0.0000 1747.1924 -7432.8226 300.0263 -9180.0150 -7436.8726 298.5321 -392.2683 -271.4979 30423.9785 57.4195 122.8119
ENERGY: 1200000 4.3259 3.0432 1.0188 0.0000 -10662.2088 1419.1065 0.0000 0.0000 1718.9678 -7515.7466 295.1796 -9234.7144 -7432.0399 298.9387 -173.7673 -109.5504 29984.3207 61.0448 124.3674
ENERGY: 1500000 0.7058 7.7786 1.4829 0.0000 -10601.4995 1452.2028 0.0000 0.0000 1748.9291 -7390.4004 300.3246 -9139.3294 -7432.9569 298.5391 45.9440 89.5619 30345.3412 14.2714 78.7310
TCL: Running FEP window   4: Lambda1 0.15000000000000002 Lambda2 0.2    [dLambda 0.04999999999999999]
TCL: Setting parameter firsttimestep to 0
TCL: Setting parameter alchLambda to 0.15000000000000002
Info: NONBONDED TABLE R-SQUARED SPACING: 0.0625
Info: NONBONDED TABLE SIZE: 705 POINTS
TCL: Setting parameter alchLambda2 to 0.2
Info: NONBONDED TABLE R-SQUARED SPACING: 0.0625
Info: NONBONDED TABLE SIZE: 705 POINTS
TCL: Running for 1500000 steps
ETITLE: TS BOND ANGLE DIHED IMPRP ELECT VDW BOUNDARY MISC KINETIC TOTAL TEMP POTENTIAL TOTALAVG TEMPAVG PRESSURE GPRESSURE VOLUME PRESSAVG GPRESSAVG
ENERGY: 0 0.7058 7.7786 1.4829 0.0000 -10601.4995 1453.6746 0.0000 0.0000 1748.0574 -7389.8002 300.1749 -9137.8576 -7389.8002 300.1749 25.4832 99.0676 30345.3412 25.4832 99.0676
ENERGY: 300000 1.5015 2.0621 2.7119 0.0000 -10600.7567 1415.9764 0.0000 0.0000 1706.2789 -7472.2258 293.0007 -9178.5047 -7441.9021 299.6925 -150.9092 -127.2450 30198.2611 81.0832 130.1267
ENERGY: 600000 1.0596 5.9780 3.7659 0.0000 -10660.9530 1385.6244 0.0000 0.0000 1778.8366 -7485.6884 305.4603 -9264.5251 -7434.2004 300.8929 -709.4614 -671.8795 30136.7602 -34.4558 19.8984
ENERGY: 900000 2.8640 4.2392 1.5873 0.0000 -10581.7190 1352.2829 0.0000 0.0000 1742.4899 -7478.2557 299.2188 -9220.7456 -7425.0990 300.6218 -762.4665 -691.2822 30106.5836 -107.3682 -54.8049
ENERGY: 1200000 0.4722 1.6179 2.6531 0.0000 -10592.3282 1420.6147 0.0000 0.0000 1674.7141 -7492.2562 287.5804 -9166.9704 -7426.2661 299.9430 86.3137 53.2667 29899.2906 -131.7705 -90.0860
ENERGY: 1500000 2.0272 5.9036 3.7189 0.0000 -10717.3283 1489.6080 0.0000 0.0000 1762.1944 -7453.8763 302.6025 -9216.0707 -7427.7554 299.9267 350.7434 366.8827 29981.8973 -69.7773 -30.4128
TCL: Running FEP window   5: Lambda1 0.2    Lambda2 0.25   [dLambda 0.04999999999999999]
TCL: Setting parameter firsttimestep to 0
TCL: Setting parameter alchLambda to 0.2
Info: NONBONDED TABLE R-SQUARED SPACING: 0.0625
Info: NONBONDED TABLE SIZE: 705 POINTS
TCL: Setting parameter alchLambda2 to 0.25
Info: NONBONDED TABLE R-SQUARED SPACING: 0.0625
Info: NONBONDED TABLE SIZE: 705 POINTS
TCL: Running for 1500000 steps
ETITLE: TS BOND ANGLE DIHED IMPRP ELECT VDW BOUNDARY MISC KINETIC TOTAL TEMP POTENTIAL TOTALAVG TEMPAVG PRESSURE GPRESSURE VOLUME PRESSAVG GPRESSAVG
ENERGY: 0 2.0272 5.9036 3.7189 0.0000 -10717.3279 1490.8736 0.0000 0.0000 1761.3135 -7453.4911 302.4512 -9214.8047 -7453.4911 302.4512 282.4367 376.3433 29981.8973 282.4367 376.3433
ENERGY: 300000 2.5615 3.3126 1.1536 0.0000 -10595.1420 1354.6563 0.0000 0.0000 1729.1320 -7504.3260 296.9250 -9233.4580 -7446.8930 300.4174 -688.4190 -603.2763 29734.6821 19.7340 80.8794
ENERGY: 600000 2.2227 2.6451 2.2259 0.0000 -10521.0262 1359.3934 0.0000 0.0000 1730.5752 -7423.9639 297.1729 -9154.5391 -7426.2032 298.9860 -587.7596 -482.3811 30000.6605 -177.9669 -123.4297
ENERGY: 900000 1.7171 2.7791 3.1531 0.0000 -10703.7004 1450.9202 0.0000 0.0000 1793.4929 -7451.6379 307.9770 -9245.1308 -7429.1604 299.8740 -385.7925 -248.4592 30560.0669 -239.6088 -173.0433
ENERGY: 1200000 2.1961 2.7781 1.0850 0.0000 -10591.9722 1375.2904 0.0000 0.0000 1727.7455 -7482.8771 296.6869 -9210.6226 -7430.6658 299.8971 -643.3259 -593.6027 30299.2106 -283.1043 -213.6576
ENERGY: 1500000 2.6113 4.5804 1.1070 0.0000 -10698.0057 1475.3867 0.0000 0.0000 1801.9787 -7412.3416 309.4342 -9214.3203 -7428.8386 300.7968 364.7284 384.5164 29873.7901 -151.8585 -88.8660
TCL: Running FEP window   6: Lambda1 0.25   Lambda2 0.3    [dLambda 0.04999999999999999]
TCL: Setting parameter firsttimestep to 0
TCL: Setting parameter alchLambda to 0.25
Info: NONBONDED TABLE R-SQUARED SPACING: 0.0625
Info: NONBONDED TABLE SIZE: 705 POINTS
TCL: Setting parameter alchLambda2 to 0.3
Info: NONBONDED TABLE R-SQUARED SPACING: 0.0625
Info: NONBONDED TABLE SIZE: 705 POINTS
TCL: Running for 1500000 steps
ETITLE: TS BOND ANGLE DIHED IMPRP ELECT VDW BOUNDARY MISC KINETIC TOTAL TEMP POTENTIAL TOTALAVG TEMPAVG PRESSURE GPRESSURE VOLUME PRESSAVG GPRESSAVG
ENERGY: 0 2.6112 4.5804 1.1070 0.0000 -10698.0056 1475.3574 0.0000 0.0000 1801.0959 -7413.2537 309.2826 -9214.3496 -7413.2537 309.2826 307.4628 388.5985 29873.7901 307.4628 388.5985
ENERGY: 300000 5.8641 3.0539 3.8514 0.0000 -10567.4129 1408.7992 0.0000 0.0000 1737.3218 -7408.5226 298.3314 -9145.8444 -7417.9259 303.8382 8.3366 68.9841 29727.6309 85.9192 113.5466
ENERGY: 600000 3.5629 7.2995 4.1352 0.0000 -10626.8201 1411.9529 0.0000 0.0000 1773.2205 -7426.6491 304.4959 -9199.8696 -7457.4056 299.8058 -181.1001 -128.2865 29913.6529 -116.6788 -84.7329
ENERGY: 900000 2.7856 7.0043 2.6197 0.0000 -10689.0508 1476.9100 0.0000 0.0000 1759.2002 -7440.5310 302.0883 -9199.7313 -7453.5993 299.5350 204.9498 236.1699 30205.3814 -51.0718 -9.6732
ENERGY: 1200000 1.5441 3.6934 1.6875 0.0000 -10537.8042 1358.4495 0.0000 0.0000 1764.2022 -7408.2275 302.9473 -9172.4297 -7444.0013 300.3053 -515.3994 -503.3315 30076.8351 -19.7803 24.0504
ENERGY: 1500000 1.7654 2.4918 3.7317 0.0000 -10570.2751 1436.9467 0.0000 0.0000 1728.0784 -7397.2612 296.7441 -9125.3395 -7435.6122 300.3108 134.7340 164.4121 30177.4646 -59.8149 -17.2714
TCL: Running FEP window   7: Lambda1 0.3    Lambda2 0.35   [dLambda 0.04999999999999999]
TCL: Setting parameter firsttimestep to 0
TCL: Setting parameter alchLambda to 0.3
Info: NONBONDED TABLE R-SQUARED SPACING: 0.0625
Info: NONBONDED TABLE SIZE: 705 POINTS
TCL: Setting parameter alchLambda2 to 0.35
Info: NONBONDED TABLE R-SQUARED SPACING: 0.0625
Info: NONBONDED TABLE SIZE: 705 POINTS
TCL: Running for 1500000 steps
ETITLE: TS BOND ANGLE DIHED IMPRP ELECT VDW BOUNDARY MISC KINETIC TOTAL TEMP POTENTIAL TOTALAVG TEMPAVG PRESSURE GPRESSURE VOLUME PRESSAVG GPRESSAVG
ENERGY: 0 1.7654 2.4918 3.7317 0.0000 -10570.2744 1436.8606 0.0000 0.0000 1727.1868 -7398.2382 296.5910 -9125.4249 -7398.2382 296.5910 87.0751 167.2623 30177.4646 87.0751 167.2623
ENERGY: 300000 1.6309 2.6681 5.1685 0.0000 -10582.1384 1465.6669 0.0000 0.0000 1745.9794 -7361.0246 299.8180 -9107.0040 -7432.9548 294.0812 328.5117 353.2566 30552.3213 -347.8624 -302.3420
ENERGY: 600000 4.7544 4.1034 1.8585 0.0000 -10727.2397 1421.6998 0.0000 0.0000 1801.5846 -7493.2389 309.3665 -9294.8235 -7461.4204 295.5312 -643.2782 -603.1623 30122.2741 -467.5404 -396.7768
ENERGY: 900000 2.5027 3.9847 4.0839 0.0000 -10604.9176 1454.6112 0.0000 0.0000 1777.6720 -7362.0630 305.2603 -9139.7350 -7446.6501 297.1264 230.1514 311.3257 29957.3659 -259.5110 -197.9032
ENERGY: 1200000 0.9761 3.6169 3.3891 0.0000 -10594.8698 1421.8993 0.0000 0.0000 1764.2842 -7400.7041 302.9613 -9164.9883 -7437.0862 299.0264 -1.5347 64.4967 30049.9484 -175.0651 -110.2103
ENERGY: 1500000 2.2392 2.7691 3.7959 0.0000 -10524.8850 1421.6106 0.0000 0.0000 1720.4841 -7373.9860 295.4400 -9094.4701 -7440.5923 298.6229 220.5443 284.2248 30164.4760 -120.6084 -57.3761
TCL: Running FEP window   8: Lambda1 0.35   Lambda2 0.39999999999999997 [dLambda 0.04999999999999999]
TCL: Setting parameter firsttimestep to 0
TCL: Setting parameter alchLambda to 0.35
Info: NONBONDED TABLE R-SQUARED SPACING: 0.0625
Info: NONBONDED TABLE SIZE: 705 POINTS
TCL: Setting parameter alchLambda2 to 0.39999999999999997
Info: NONBONDED TABLE R-SQUARED SPACING: 0.0625
Info: NONBONDED TABLE SIZE: 705 POINTS
TCL: Running for 1500000 steps
ETITLE: TS BOND ANGLE DIHED IMPRP ELECT VDW BOUNDARY MISC KINETIC TOTAL TEMP POTENTIAL TOTALAVG TEMPAVG PRESSURE GPRESSURE VOLUME PRESSAVG GPRESSAVG
ENERGY: 0 2.2392 2.7691 3.7959 0.0000 -10524.8843 1421.5604 0.0000 0.0000 1719.6368 -7374.8828 295.2945 -9094.5196 -7374.8828 295.2945 203.0796 287.4936 30164.4760 203.0796 287.4936
ENERGY: 300000 2.3116 4.1746 2.2294 0.0000 -10642.2046 1418.1570 0.0000 0.0000 1740.4599 -7474.8720 298.8703 -9215.3319 -7394.6425 301.8313 -417.6814 -301.9543 30403.5885 -124.6339 -27.1065
ENERGY: 600000 0.9313 4.3325 3.2779 0.0000 -10717.5543 1441.2190 0.0000 0.0000 1792.5867 -7475.2069 307.8214 -9267.7935 -7414.3095 301.3109 -255.8698 -167.7690 30041.2863 -128.8422 -34.8846
ENERGY: 900000 3.2469 2.7412 2.1576 0.0000 -10631.1171 1454.2250 0.0000 0.0000 1758.7895 -7409.9570 302.0178 -9168.7464 -7412.0659 301.1328 37.6209 105.3351 30327.8343 -114.8055 -24.3337
ENERGY: 1200000 1.8378 3.1936 5.3035 0.0000 -10715.1806 1471.5022 0.0000 0.0000 1760.7237 -7472.6198 302.3499 -9233.3435 -7421.4393 299.9435 134.3456 227.9325 29976.0317 -37.8864 45.5084
ENERGY: 1500000 2.8032 2.9616 2.1919 0.0000 -10595.6377 1414.8387 0.0000 0.0000 1723.0610 -7449.7814 295.8825 -9172.8424 -7427.7544 299.1290 -305.6750 -174.9566 30403.9305 -34.4759 58.1528
TCL: Running FEP window   9: Lambda1 0.39999999999999997 Lambda2 0.44999999999999996 [dLambda 0.04999999999999999]
TCL: Setting parameter firsttimestep to 0
TCL: Setting parameter alchLambda to 0.39999999999999997
Info: NONBONDED TABLE R-SQUARED SPACING: 0.0625
Info: NONBONDED TABLE SIZE: 705 POINTS
TCL: Setting parameter alchLambda2 to 0.44999999999999996
Info: NONBONDED TABLE R-SQUARED SPACING: 0.0625
Info: NONBONDED TABLE SIZE: 705 POINTS
TCL: Running for 1500000 steps
ETITLE: TS BOND ANGLE DIHED IMPRP ELECT VDW BOUNDARY MISC KINETIC TOTAL TEMP POTENTIAL TOTALAVG TEMPAVG PRESSURE GPRESSURE VOLUME PRESSAVG GPRESSAVG
ENERGY: 0 2.8032 2.9616 2.1919 0.0000 -10595.6385 1414.7605 0.0000 0.0000 1722.1911 -7450.7303 295.7331 -9172.9214 -7450.7303 295.7331 -243.9692 -170.6461 30403.9305 -243.9692 -170.6461
ENERGY: 300000 4.1900 4.4414 6.1254 0.0000 -10646.3476 1468.5698 0.0000 0.0000 1762.2073 -7400.8137 302.6047 -9163.0210 -7372.3351 300.8935 528.2981 521.1592 29686.8632 -67.6990 -5.0121
ENERGY: 600000 1.7881 9.0695 1.7808 0.0000 -10691.5047 1510.2294 0.0000 0.0000 1736.7024 -7431.9345 298.2250 -9168.6369 -7393.3960 300.5256 558.3091 601.8486 29918.4824 151.6052 206.8992
ENERGY: 900000 1.0469 3.7593 6.2557 0.0000 -10674.0169 1503.8527 0.0000 0.0000 1731.6860 -7427.4163 297.3636 -9159.1023 -7408.7778 300.5945 411.6327 512.8052 30310.5790 73.9586 132.2529
ENERGY: 1200000 3.9269 5.9738 1.8768 0.0000 -10566.9300 1304.1251 0.0000 0.0000 1780.1878 -7470.8397 305.6923 -9251.0275 -7415.2229 300.4618 -1160.4175 -994.7968 29956.6736 -25.9812 42.6978
ENERGY: 1500000 1.5842 2.0644 2.7896 0.0000 -10619.7917 1408.3413 0.0000 0.0000 1711.6895 -7493.3227 293.9298 -9205.0122 -7417.0524 300.0357 -152.7984 -67.0449 29852.0001 -66.1452 0.6936
TCL: Running FEP window  10: Lambda1 0.44999999999999996 Lambda2 0.49999999999999994 [dLambda 0.04999999999999999]
TCL: Setting parameter firsttimestep to 0
TCL: Setting parameter alchLambda to 0.44999999999999996
Info: NONBONDED TABLE R-SQUARED SPACING: 0.0625
Info: NONBONDED TABLE SIZE: 705 POINTS
TCL: Setting parameter alchLambda2 to 0.49999999999999994
Info: NONBONDED TABLE R-SQUARED SPACING: 0.0625
Info: NONBONDED TABLE SIZE: 705 POINTS
TCL: Running for 1500000 steps
ETITLE: TS BOND ANGLE DIHED IMPRP ELECT VDW BOUNDARY MISC KINETIC TOTAL TEMP POTENTIAL TOTALAVG TEMPAVG PRESSURE GPRESSURE VOLUME PRESSAVG GPRESSAVG
ENERGY: 0 1.5842 2.0644 2.7896 0.0000 -10619.7926 1408.0310 0.0000 0.0000 1710.8315 -7494.4919 293.7825 -9205.3234 -7494.4919 293.7825 -158.2879 -65.3660 29852.0001 -158.2879 -65.3660
ENERGY: 300000 1.6111 4.3963 2.9043 0.0000 -10586.1527 1465.8441 0.0000 0.0000 1721.6412 -7389.7557 295.6387 -9111.3969 -7429.7149 294.4640 298.9735 338.6132 30427.8154 -329.9347 -270.1121
ENERGY: 600000 4.5369 2.3960 5.4852 0.0000 -10576.5034 1387.9709 0.0000 0.0000 1718.2564 -7457.8581 295.0575 -9176.1145 -7453.2440 295.4720 -456.8585 -376.4048 29878.5725 -359.8321 -285.7341
ENERGY: 900000 2.4836 4.8575 1.1250 0.0000 -10590.4342 1406.1261 0.0000 0.0000 1781.6191 -7394.2228 305.9381 -9175.8420 -7446.0712 295.9697 -112.7320 -69.4346 30000.7968 -232.8251 -167.2016
ENERGY: 1200000 4.3501 2.7434 4.5414 0.0000 -10572.1784 1348.7954 0.0000 0.0000 1711.7172 -7500.0308 293.9346 -9211.7481 -7449.7940 296.7211 -780.8132 -776.6994 30030.3159 -228.2257 -160.0223
ENERGY: 1500000 0.8891 4.6228 2.5413 0.0000 -10751.7317 1514.7224 0.0000 0.0000 1712.3586 -7516.5974 294.0447 -9228.9560 -7448.5706 297.2217 647.5394 657.3567 29829.1564 -98.7764 -37.3723
TCL: Running FEP window  11: Lambda1 0.49999999999999994 Lambda2 0.5499999999999999 [dLambda 0.04999999999999999]
TCL: Setting parameter firsttimestep to 0
TCL: Setting parameter alchLambda to 0.49999999999999994
Info: NONBONDED TABLE R-SQUARED SPACING: 0.0625
Info: NONBONDED TABLE SIZE: 705 POINTS
TCL: Setting parameter alchLambda2 to 0.5499999999999999
Info: NONBONDED TABLE R-SQUARED SPACING: 0.0625
Info: NONBONDED TABLE SIZE: 705 POINTS
TCL: Running for 1500000 steps
ETITLE: TS BOND ANGLE DIHED IMPRP ELECT VDW BOUNDARY MISC KINETIC TOTAL TEMP POTENTIAL TOTALAVG TEMPAVG PRESSURE GPRESSURE VOLUME PRESSAVG GPRESSAVG
ENERGY: 0 0.8891 4.6228 2.5413 0.0000 -10751.7324 1515.1073 0.0000 0.0000 1711.5251 -7517.0467 293.9016 -9228.5719 -7517.0467 293.9016 592.1448 667.2958 29829.1564 592.1448 667.2958
ENERGY: 300000 3.2866 2.7423 1.7229 0.0000 -10545.8930 1348.1610 0.0000 0.0000 1740.7223 -7449.2578 298.9153 -9189.9802 -7464.7846 297.6220 -1070.2336 -943.1026 30364.1632 65.2843 130.6210
ENERGY: 600000 0.9015 4.3268 1.2284 0.0000 -10726.8978 1518.5114 0.0000 0.0000 1813.6200 -7388.3096 311.4332 -9201.9297 -7449.8128 299.7868 435.8397 448.3030 30365.6909 84.9358 160.2406
ENERGY: 900000 1.5873 2.5283 1.0285 0.0000 -10621.2962 1445.1212 0.0000 0.0000 1743.0451 -7427.9857 299.3142 -9171.0308 -7451.9935 300.1282 170.6073 215.0503 30202.8500 126.8076 197.7372
ENERGY: 1200000 3.5571 4.9956 5.5234 0.0000 -10635.0313 1430.4447 0.0000 0.0000 1773.6331 -7416.8774 304.5667 -9190.5106 -7443.2040 301.2625 108.8311 163.2843 29751.7980 120.8439 179.1490
ENERGY: 1500000 2.5165 3.0662 2.2437 0.0000 -10523.3595 1352.0942 0.0000 0.0000 1771.3350 -7392.1039 304.1721 -9163.4389 -7438.8627 301.1564 -677.3293 -619.0018 30189.8750 6.1576 64.8984
TCL: Running FEP window  12: Lambda1 0.5499999999999999 Lambda2 0.6    [dLambda 0.050000000000000044]
TCL: Setting parameter firsttimestep to 0
TCL: Setting parameter alchLambda to 0.5499999999999999
Info: NONBONDED TABLE R-SQUARED SPACING: 0.0625
Info: NONBONDED TABLE SIZE: 705 POINTS
TCL: Setting parameter alchLambda2 to 0.6
Info: NONBONDED TABLE R-SQUARED SPACING: 0.0625
Info: NONBONDED TABLE SIZE: 705 POINTS
TCL: Running for 1500000 steps
ETITLE: TS BOND ANGLE DIHED IMPRP ELECT VDW BOUNDARY MISC KINETIC TOTAL TEMP POTENTIAL TOTALAVG TEMPAVG PRESSURE GPRESSURE VOLUME PRESSAVG GPRESSAVG
ENERGY: 0 2.5165 3.0662 2.2437 0.0000 -10523.5580 1353.0430 0.0000 0.0000 1770.4616 -7392.2271 304.0221 -9162.6886 -7392.2271 304.0221 -691.6009 -604.4508 30189.8750 -691.6009 -604.4508
ENERGY: 300000 0.5992 4.8597 6.1985 0.0000 -10586.7567 1396.0502 0.0000 0.0000 1675.0112 -7504.0379 287.6315 -9179.0491 -7469.1864 295.8060 -347.7384 -258.8499 30283.3181 -465.6658 -393.8017
ENERGY: 600000 3.9192 4.2996 0.4205 0.0000 -10539.1413 1421.5602 0.0000 0.0000 1772.4110 -7336.5308 304.3569 -9108.9419 -7429.8541 300.3943 57.7275 104.4127 30202.5977 -483.5602 -426.6902
ENERGY: 900000 2.6180 5.8947 2.5086 0.0000 -10521.0896 1290.6206 0.0000 0.0000 1804.3351 -7415.1126 309.8388 -9219.4477 -7420.0170 301.6547 -1387.8462 -1361.9825 30758.4870 -531.1962 -470.9900
ENERGY: 1200000 2.2681 3.9774 2.2377 0.0000 -10522.5973 1368.8408 0.0000 0.0000 1720.6616 -7424.6116 295.4705 -9145.2733 -7427.9380 300.2045 -720.9906 -697.0156 30512.4926 -469.1858 -407.6940
ENERGY: 1500000 3.1981 6.1927 1.1705 0.0000 -10578.5435 1438.1668 0.0000 0.0000 1750.8825 -7378.9331 300.6600 -9129.8155 -7423.1590 301.4368 -137.5672 -118.4087 30740.1565 -398.7092 -341.7592
TCL: Running FEP window  13: Lambda1 0.6    Lambda2 0.65   [dLambda 0.050000000000000044]
TCL: Setting parameter firsttimestep to 0
TCL: Setting parameter alchLambda to 0.6
Info: NONBONDED TABLE R-SQUARED SPACING: 0.0625
Info: NONBONDED TABLE SIZE: 705 POINTS
TCL: Setting parameter alchLambda2 to 0.65
Info: NONBONDED TABLE R-SQUARED SPACING: 0.0625
Info: NONBONDED TABLE SIZE: 705 POINTS
TCL: Running for 1500000 steps
ETITLE: TS BOND ANGLE DIHED IMPRP ELECT VDW BOUNDARY MISC KINETIC TOTAL TEMP POTENTIAL TOTALAVG TEMPAVG PRESSURE GPRESSURE VOLUME PRESSAVG GPRESSAVG
ENERGY: 0 3.1981 6.1927 1.1705 0.0000 -10578.5886 1438.2325 0.0000 0.0000 1750.0009 -7379.7940 300.5086 -9129.7949 -7379.7940 300.5086 -197.7374 -109.5266 30740.1565 -197.7374 -109.5266
ENERGY: 300000 2.4794 2.9190 1.3774 0.0000 -10565.7075 1403.2665 0.0000 0.0000 1750.9442 -7404.7210 300.6706 -9155.6652 -7383.2680 300.0928 -107.8235 -155.4971 30416.6187 -360.2439 -306.9878
ENERGY: 600000 2.5371 3.6773 1.6154 0.0000 -10644.3440 1412.8301 0.0000 0.0000 1714.3694 -7509.3146 294.3900 -9223.6840 -7407.7306 300.4114 -182.1837 -166.8311 30054.9186 -263.9840 -206.3339
ENERGY: 900000 3.3309 3.4722 5.7539 0.0000 -10675.4710 1465.3662 0.0000 0.0000 1702.4437 -7495.1041 292.3421 -9197.5478 -7417.8494 300.4061 0.3574 62.5176 30375.7846 -305.2155 -249.3575
ENERGY: 1200000 2.7625 3.8451 2.0060 0.0000 -10472.5134 1399.2401 0.0000 0.0000 1724.2188 -7340.4409 296.0813 -9064.6597 -7413.5311 299.8759 -186.4878 -150.4762 30458.6864 -244.0845 -185.5960
ENERGY: 1500000 1.1043 1.7553 2.4026 0.0000 -10577.0828 1434.7473 0.0000 0.0000 1714.3800 -7422.6934 294.3918 -9137.0734 -7413.2062 300.4330 -58.5156 11.0127 30449.6244 -349.4235 -288.8276
TCL: Running FEP window  14: Lambda1 0.65   Lambda2 0.7000000000000001 [dLambda 0.050000000000000044]
TCL: Setting parameter firsttimestep to 0
TCL: Setting parameter alchLambda to 0.65
Info: NONBONDED TABLE R-SQUARED SPACING: 0.0625
Info: NONBONDED TABLE SIZE: 705 POINTS
TCL: Setting parameter alchLambda2 to 0.7000000000000001
Info: NONBONDED TABLE R-SQUARED SPACING: 0.0625
Info: NONBONDED TABLE SIZE: 705 POINTS
TCL: Running for 1500000 steps
ETITLE: TS BOND ANGLE DIHED IMPRP ELECT VDW BOUNDARY MISC KINETIC TOTAL TEMP POTENTIAL TOTALAVG TEMPAVG PRESSURE GPRESSURE VOLUME PRESSAVG GPRESSAVG
ENERGY: 0 1.1043 1.7553 2.4026 0.0000 -10576.7649 1434.9986 0.0000 0.0000 1713.5281 -7422.9761 294.2455 -9136.5041 -7422.9761 294.2455 -53.7614 20.3554 30449.6244 -53.7614 20.3554
ENERGY: 300000 1.7562 3.2883 1.5154 0.0000 -10622.6564 1387.0694 0.0000 0.0000 1747.7114 -7481.3157 300.1155 -9229.0271 -7425.7429 299.2702 -327.5812 -276.5030 29672.6036 8.8519 81.3211
ENERGY: 600000 2.0001 5.4342 2.7846 0.0000 -10658.7053 1414.4309 0.0000 0.0000 1707.8210 -7526.2344 293.2655 -9234.0554 -7453.0366 297.0255 -327.5797 -199.1879 30321.1610 -204.3696 -123.4633
ENERGY: 900000 3.7349 5.2653 1.1508 0.0000 -10615.6929 1466.8813 0.0000 0.0000 1761.7613 -7376.8993 302.5281 -9138.6606 -7431.7915 298.5580 87.7152 192.9533 30309.0687 -127.2559 -45.3376
ENERGY: 1200000 3.0932 2.4347 1.5502 0.0000 -10607.3919 1397.8705 0.0000 0.0000 1696.7952 -7505.6480 291.3722 -9202.4432 -7442.1297 298.1303 -47.8699 -10.4106 29509.0754 -93.1685 -11.4197
ENERGY: 1500000 2.3688 4.7255 5.6430 0.0000 -10465.3226 1309.4325 0.0000 0.0000 1717.2359 -7425.9170 294.8822 -9143.1528 -7437.3977 298.0014 -760.7149 -697.8532 30077.3852 -158.7292 -80.1536
TCL: Running FEP window  15: Lambda1 0.7000000000000001 Lambda2 0.7500000000000001 [dLambda 0.050000000000000044]
TCL: Setting parameter firsttimestep to 0
TCL: Setting parameter alchLambda to 0.7000000000000001
Info: NONBONDED TABLE R-SQUARED SPACING: 0.0625
Info: NONBONDED TABLE SIZE: 705 POINTS
TCL: Setting parameter alchLambda2 to 0.7500000000000001
Info: NONBONDED TABLE R-SQUARED SPACING: 0.0625
Info: NONBONDED TABLE SIZE: 705 POINTS
TCL: Running for 1500000 steps
ETITLE: TS BOND ANGLE DIHED IMPRP ELECT VDW BOUNDARY MISC KINETIC TOTAL TEMP POTENTIAL TOTALAVG TEMPAVG PRESSURE GPRESSURE VOLUME PRESSAVG GPRESSAVG
ENERGY: 0 2.3688 4.7255 5.6430 0.0000 -10465.8328 1309.1737 0.0000 0.0000 1716.3342 -7427.5876 294.7274 -9143.9218 -7427.5876 294.7274 -768.6757 -693.1380 30077.3852 -768.6757 -693.1380
ENERGY: 300000 2.2416 7.9559 1.7779 0.0000 -10575.0634 1396.3771 0.0000 0.0000 1751.0233 -7415.6874 300.6842 -9166.7108 -7415.4063 298.2944 -115.7525 -86.7728 30247.6049 -255.0099 -192.2563
ENERGY: 600000 3.0434 3.3292 3.6777 0.0000 -10630.9533 1449.5073 0.0000 0.0000 1782.2212 -7389.1745 306.0415 -9171.3956 -7401.9273 302.2376 149.2185 212.7866 30075.2478 -262.5938 -195.7744
ENERGY: 900000 3.0128 7.2890 2.3299 0.0000 -10810.5076 1555.0255 0.0000 0.0000 1726.8699 -7515.9806 296.5366 -9242.8504 -7415.1506 301.3317 643.3544 716.2269 30233.8090 -194.3858 -122.7874
ENERGY: 1200000 2.2496 5.3287 2.5976 0.0000 -10613.3616 1465.4632 0.0000 0.0000 1797.3506 -7340.3720 308.6395 -9137.7226 -7412.0320 301.4252 450.1359 451.1317 30323.7976 -34.3937 27.1347
ENERGY: 1500000 3.2817 2.0092 4.2917 0.0000 -10605.0881 1415.3220 0.0000 0.0000 1801.3959 -7378.7875 309.3341 -9180.1834 -7411.7137 301.3739 -74.3053 11.5518 30093.6362 -70.2542 -8.5908
TCL: Running FEP window  16: Lambda1 0.7500000000000001 Lambda2 0.8000000000000002 [dLambda 0.050000000000000044]
TCL: Setting parameter firsttimestep to 0
TCL: Setting parameter alchLambda to 0.7500000000000001
Info: NONBONDED TABLE R-SQUARED SPACING: 0.0625
Info: NONBONDED TABLE SIZE: 705 POINTS
TCL: Setting parameter alchLambda2 to 0.8000000000000002
Info: NONBONDED TABLE R-SQUARED SPACING: 0.0625
Info: NONBONDED TABLE SIZE: 705 POINTS
TCL: Running for 1500000 steps
ETITLE: TS BOND ANGLE DIHED IMPRP ELECT VDW BOUNDARY MISC KINETIC TOTAL TEMP POTENTIAL TOTALAVG TEMPAVG PRESSURE GPRESSURE VOLUME PRESSAVG GPRESSAVG
ENERGY: 0 3.2817 2.0092 4.2917 0.0000 -10605.8825 1416.6066 0.0000 0.0000 1800.5284 -7379.1648 309.1852 -9179.6931 -7379.1648 309.1852 -48.7862 33.4948 30093.6362 -48.7862 33.4948
ENERGY: 300000 0.3097 1.8769 1.1630 0.0000 -10624.8528 1448.0621 0.0000 0.0000 1806.0087 -7367.4324 310.1262 -9173.4411 -7421.6133 304.2108 21.1140 -4.2634 30737.1168 53.4232 115.1149
ENERGY: 600000 2.1937 5.0120 0.8156 0.0000 -10581.5864 1400.1190 0.0000 0.0000 1728.6788 -7444.7672 296.8472 -9173.4460 -7419.5207 301.0468 -173.1686 -94.3114 30174.2488 -53.0914 13.5867
ENERGY: 900000 0.9077 4.0168 3.5363 0.0000 -10583.8767 1396.7624 0.0000 0.0000 1738.9646 -7439.6889 298.6135 -9178.6535 -7416.5226 300.9476 -144.1480 -122.9468 30115.9484 -104.0607 -42.0323
ENERGY: 1200000 2.7482 6.5037 2.0745 0.0000 -10666.3380 1426.0096 0.0000 0.0000 1730.8503 -7498.1516 297.2201 -9229.0019 -7422.2394 301.4287 -180.4650 -83.2638 30136.7042 -154.1344 -89.4899
ENERGY: 1500000 1.0625 1.7062 1.7945 0.0000 -10696.6788 1481.9370 0.0000 0.0000 1757.0781 -7453.1005 301.7239 -9210.1786 -7415.4234 301.8109 556.5191 622.3844 29840.6849 -114.6852 -44.8111
TCL: Running FEP window  17: Lambda1 0.8000000000000002 Lambda2 0.8500000000000002 [dLambda 0.050000000000000044]
TCL: Setting parameter firsttimestep to 0
TCL: Setting parameter alchLambda to 0.8000000000000002
Info: NONBONDED TABLE R-SQUARED SPACING: 0.0625
Info: NONBONDED TABLE SIZE: 705 POINTS
TCL: Setting parameter alchLambda2 to 0.8500000000000002
Info: NONBONDED TABLE R-SQUARED SPACING: 0.0625
Info: NONBONDED TABLE SIZE: 705 POINTS
TCL: Running for 1500000 steps
ETITLE: TS BOND ANGLE DIHED IMPRP ELECT VDW BOUNDARY MISC KINETIC TOTAL TEMP POTENTIAL TOTALAVG TEMPAVG PRESSURE GPRESSURE VOLUME PRESSAVG GPRESSAVG
ENERGY: 0 1.0625 1.7062 1.7945 0.0000 -10697.3108 1481.5649 0.0000 0.0000 1756.1946 -7454.9881 301.5722 -9211.1827 -7454.9881 301.5722 543.5693 625.1519 29840.6849 543.5693 625.1519
ENERGY: 300000 0.8880 2.7371 2.0012 0.0000 -10619.9560 1451.5706 0.0000 0.0000 1731.7222 -7431.0370 297.3698 -9162.7592 -7405.1107 302.4829 303.1574 375.8558 29886.5018 270.0479 351.2476
ENERGY: 600000 2.5334 3.7598 2.8328 0.0000 -10644.3679 1442.6962 0.0000 0.0000 1770.6957 -7421.8502 304.0623 -9192.5459 -7418.7373 300.4214 32.2549 130.6204 30258.2106 303.3774 382.8247
ENERGY: 900000 1.5283 4.5279 4.3663 0.0000 -10534.6981 1352.9866 0.0000 0.0000 1771.7512 -7399.5378 304.2436 -9171.2890 -7432.2226 300.6354 -587.3071 -503.5291 30252.3592 42.7357 108.9822
ENERGY: 1200000 1.9955 5.6788 1.0028 0.0000 -10799.6436 1554.5321 0.0000 0.0000 1712.9739 -7523.4605 294.1504 -9236.4343 -7446.4691 300.0821 672.8313 669.7905 30380.7404 16.8866 81.9684
ENERGY: 1500000 0.7271 4.9412 2.1916 0.0000 -10720.1378 1502.4105 0.0000 0.0000 1752.7345 -7457.1330 300.9780 -9209.8675 -7446.3768 299.2838 555.9658 567.3204 29872.8032 5.6175 70.9187
TCL: Running FEP window  18: Lambda1 0.8500000000000002 Lambda2 0.9000000000000002 [dLambda 0.050000000000000044]
TCL: Setting parameter firsttimestep to 0
TCL: Setting parameter alchLambda to 0.8500000000000002
Info: NONBONDED TABLE R-SQUARED SPACING: 0.0625
Info: NONBONDED TABLE SIZE: 705 POINTS
TCL: Setting parameter alchLambda2 to 0.9000000000000002
Info: NONBONDED TABLE R-SQUARED SPACING: 0.0625
Info: NONBONDED TABLE SIZE: 705 POINTS
TCL: Running for 1500000 steps
ETITLE: TS BOND ANGLE DIHED IMPRP ELECT VDW BOUNDARY MISC KINETIC TOTAL TEMP POTENTIAL TOTALAVG TEMPAVG PRESSURE GPRESSURE VOLUME PRESSAVG GPRESSAVG
ENERGY: 0 0.7271 4.9412 2.1916 0.0000 -10720.5173 1502.0650 0.0000 0.0000 1751.8558 -7458.7366 300.8271 -9210.5924 -7458.7366 300.8271 508.4628 576.8063 29872.8032 508.4628 576.8063
ENERGY: 300000 0.9010 2.9668 1.3790 0.0000 -10617.9306 1390.2616 0.0000 0.0000 1741.2933 -7481.1290 299.0134 -9222.4223 -7454.1840 298.8735 -497.5858 -445.9117 30546.5232 132.2130 180.2109
ENERGY: 600000 0.7283 4.1016 1.2852 0.0000 -10606.9047 1347.1359 0.0000 0.0000 1733.5904 -7520.0631 297.6906 -9253.6535 -7458.7485 298.8306 -1045.6695 -992.6989 30498.6551 -131.3625 -83.7168
ENERGY: 900000 4.5962 4.2883 0.2904 0.0000 -10559.3950 1402.7852 0.0000 0.0000 1732.8012 -7414.6337 297.5551 -9147.4350 -7449.9794 298.9678 -84.6101 50.3290 30150.5018 -142.6115 -83.0307
ENERGY: 1200000 1.5544 4.1734 2.4804 0.0000 -10569.8645 1426.1892 0.0000 0.0000 1778.9753 -7356.4920 305.4841 -9135.4672 -7435.2693 299.5081 218.3591 308.4751 30237.5744 -174.9023 -105.9968
ENERGY: 1500000 4.6252 5.0458 6.2614 0.0000 -10577.8520 1441.9015 0.0000 0.0000 1726.9698 -7393.0483 296.5537 -9120.0181 -7441.5506 298.5216 121.1913 237.1145 30219.3194 -93.6017 -20.8650
TCL: Running FEP window  19: Lambda1 0.9000000000000002 Lambda2 0.9500000000000003 [dLambda 0.050000000000000044]
TCL: Setting parameter firsttimestep to 0
TCL: Setting parameter alchLambda to 0.9000000000000002
Info: NONBONDED TABLE R-SQUARED SPACING: 0.0625
Info: NONBONDED TABLE SIZE: 705 POINTS
TCL: Setting parameter alchLambda2 to 0.9500000000000003
Info: NONBONDED TABLE R-SQUARED SPACING: 0.0625
Info: NONBONDED TABLE SIZE: 705 POINTS
TCL: Running for 1500000 steps
ETITLE: TS BOND ANGLE DIHED IMPRP ELECT VDW BOUNDARY MISC KINETIC TOTAL TEMP POTENTIAL TOTALAVG TEMPAVG PRESSURE GPRESSURE VOLUME PRESSAVG GPRESSAVG
ENERGY: 0 4.6252 5.0458 6.2614 0.0000 -10579.3644 1442.9207 0.0000 0.0000 1726.1161 -7394.3952 296.4071 -9120.5113 -7394.3952 296.4071 179.8857 254.7989 30219.3194 179.8857 254.7989
ENERGY: 300000 2.4708 6.0737 0.7684 0.0000 -10730.2998 1478.3853 0.0000 0.0000 1792.2796 -7450.3221 307.7687 -9242.6017 -7409.3201 303.8145 396.1137 510.2572 29837.0974 -34.2179 66.8803
ENERGY: 600000 1.8684 4.7350 3.6006 0.0000 -10546.1598 1338.1168 0.0000 0.0000 1755.4390 -7442.4000 301.4425 -9197.8390 -7411.3614 303.9419 -721.6627 -565.5757 29895.4899 -82.7808 13.3891
ENERGY: 900000 2.4385 3.5060 4.1486 0.0000 -10641.8457 1412.4705 0.0000 0.0000 1729.4359 -7489.8462 296.9772 -9219.2822 -7414.4600 302.7596 -167.5898 -89.4475 29875.6596 -56.9029 22.6654
ENERGY: 1200000 0.6919 1.3290 2.3178 0.0000 -10552.2527 1347.6404 0.0000 0.0000 1793.4190 -7406.8546 307.9643 -9200.2736 -7406.2222 302.8661 -527.6976 -456.9198 30001.4408 -105.9440 -21.8049
ENERGY: 1500000 1.6214 4.0890 1.1626 0.0000 -10472.7829 1298.0320 0.0000 0.0000 1781.5989 -7386.2790 305.9346 -9167.8780 -7408.6008 302.7777 -812.6969 -800.2562 30026.0893 -100.3564 -28.3261
TCL: Running FEP window  20: Lambda1 0.9500000000000003 Lambda2 1.0    [dLambda 0.04999999999999971]
TCL: Setting parameter firsttimestep to 0
TCL: Setting parameter alchLambda to 0.9500000000000003
Info: NONBONDED TABLE R-SQUARED SPACING: 0.0625
Info: NONBONDED TABLE SIZE: 705 POINTS
TCL: Setting parameter alchLambda2 to 1.0
Info: NONBONDED TABLE R-SQUARED SPACING: 0.0625
Info: NONBONDED TABLE SIZE: 705 POINTS
TCL: Running for 1500000 steps
ETITLE: TS BOND ANGLE DIHED IMPRP ELECT VDW BOUNDARY MISC KINETIC TOTAL TEMP POTENTIAL TOTALAVG TEMPAVG PRESSURE GPRESSURE VOLUME PRESSAVG GPRESSAVG
ENERGY: 0 1.6214 4.0890 1.1626 0.0000 -10474.0948 1298.7743 0.0000 0.0000 1780.7647 -7387.6828 305.7913 -9168.4475 -7387.6828 305.7913 -862.6448 -782.6147 30026.0893 -862.6448 -782.6147
ENERGY: 300000 2.0163 4.5273 1.7547 0.0000 -10551.4171 1408.5978 0.0000 0.0000 1751.3319 -7383.1891 300.7372 -9134.5209 -7390.1266 302.2154 -176.1690 -112.1179 30395.7103 -371.9401 -304.7942
ENERGY: 600000 2.2234 6.1796 0.8828 0.0000 -10679.4648 1466.0068 0.0000 0.0000 1719.7326 -7484.4397 295.3110 -9204.1723 -7424.0683 299.4978 285.9866 330.5457 30051.3105 -145.6510 -78.8182
ENERGY: 900000 2.6220 3.7878 1.1030 0.0000 -10665.4573 1460.0384 0.0000 0.0000 1782.0506 -7415.8555 306.0122 -9197.9061 -7437.9889 300.4453 150.6544 250.2744 30008.0739 -197.6604 -123.9451
ENERGY: 1200000 2.5767 2.9092 5.9291 0.0000 -10700.4249 1485.7328 0.0000 0.0000 1739.9110 -7463.3661 298.7760 -9203.2771 -7453.3919 298.8734 633.9451 710.3170 29824.6411 -86.7721 -15.1069
ENERGY: 1500000 2.0432 3.2806 2.6873 0.0000 -10617.6411 1412.7502 0.0000 0.0000 1713.4031 -7483.4768 294.2241 -9196.8799 -7453.4934 299.1229 -30.0996 87.0803 29864.0108 -134.0015 -58.4999
TCL: Exiting due to exit command.
