Info: SIMULATION PARAMETERS:
Info: TIMESTEP               2
Info: NUMBER OF STEPS        0
Info: STEPS PER CYCLE        10
Info: PERIODIC CELL BASIS 1  30.972 0 0
Info: PERIODIC CELL BASIS 2  0 31.3268 0
Info: PERIODIC CELL BASIS 3  0 0 31.5329
Info: PERIODIC CELL CENTER   0 0 0
Info: WRAPPING WATERS AROUND PERIODIC BOUNDARIES ON OUTPUT.
Info: WRAPPING ALL CLUSTERS AROUND PERIODIC BOUNDARIES ON OUTPUT.
Info: FIRST LDB TIMESTEP     50
Info: LAST LDB TIMESTEP     -1
Info: HOM BACKGROUND SCALING 1
Info: PME BACKGROUND SCALING 1
Info: MIN ATOMS PER PATCH    40
Info: EMPTY PATCH LOAD       40 ATOMS
Info: VELOCITY FILE          mobley_8006582_equil.vel
Info: CENTER OF MASS MOVING INITIALLY? NO
Info: DIELECTRIC             1
Info: EXCLUDE                SCALED ONE-FOUR
Info: 1-4 ELECTROSTATICS SCALED BY 0.833333
Info: MODIFIED 1-4 VDW PARAMETERS WILL BE USED
Info: DCD FILENAME           mobley_8006582_prod.dcd
Info: DCD FREQUENCY          100000
Info: DCD FIRST STEP         100000
Info: DCD FILE WILL CONTAIN UNIT CELL DATA
Info: XST FILENAME           mobley_8006582_prod.xst
Info: XST FREQUENCY          100000
Info: NO VELOCITY DCD OUTPUT
Info: NO FORCE DCD OUTPUT
Info: OUTPUT FILENAME        mobley_8006582_prod
Info: BINARY OUTPUT FILES WILL BE USED
Info: RESTART FILENAME       mobley_8006582_prod.restart
Info: RESTART FREQUENCY      100000
Info: BINARY RESTART FILES WILL BE USED
Info: CUTOFF                 9
Info: PAIRLIST DISTANCE      11
Info: PAIRLIST SHRINK RATE   0.01
Info: PAIRLIST GROW RATE     0.01
Info: PAIRLIST TRIGGER       0.3
Info: PAIRLISTS PER CYCLE    2
Info: PAIRLISTS ENABLED
Info: MARGIN                 2
Info: HYDROGEN GROUP CUTOFF  2.5
Info: PATCH DIMENSION        15.5
Info: ENERGY OUTPUT STEPS    100000
Info: ENERGY EVALUATION STEPS    100000
Info: OUTPUT ENERGY PRECISION 4
Info: CROSSTERM ENERGY INCLUDED IN DIHEDRAL
Info: TIMING OUTPUT STEPS    1000000
Info: PRESSURE OUTPUT STEPS  100000
Info: ALCHEMICAL FEP ON
Info: FEP CURRENT LAMBDA VALUE     1
Info: FEP COMPARISON LAMBDA VALUE  0.95
Info: FEP INTRA-ALCHEMICAL NON-BONDED INTERACTIONS WILL BE RETAINED
Info: FEP INTRA-ALCHEMICAL BONDED INTERACTIONS WILL BE RETAINED
Info: FEP VDW SHIFTING COEFFICIENT 5
Info: FEP ELEC. ACTIVE FOR ANNIHILATED PARTICLES BETWEEN LAMBDA = 0 AND LAMBDA = 0.5
Info: FEP ELEC. ACTIVE FOR EXNIHILATED PARTICLES BETWEEN LAMBDA = 0.5 AND LAMBDA = 1
Info: FEP VDW ACTIVE FOR ANNIHILATED PARTICLES BETWEEN LAMBDA = 0 AND LAMBDA = 1
Info: FEP VDW ACTIVE FOR EXNIHILATED PARTICLES BETWEEN LAMBDA = 0 AND LAMBDA = 1
Info: FEP BOND ACTIVE FOR ANNIHILATED PARTICLES BETWEEN LAMBDA = 1 AND LAMBDA = 1
Info: FEP BOND ACTIVE FOR EXNIHILATED PARTICLES BETWEEN LAMBDA = 0 AND LAMBDA = 0
Info: LANGEVIN DYNAMICS ACTIVE
Info: LANGEVIN TEMPERATURE   300
Info: LANGEVIN USING BBK INTEGRATOR
Info: LANGEVIN DAMPING COEFFICIENT IS 1 INVERSE PS
Info: LANGEVIN DYNAMICS APPLIED TO HYDROGENS
Info: LANGEVIN PISTON PRESSURE CONTROL ACTIVE
Info:        TARGET PRESSURE IS 1.01325 BAR
Info:     OSCILLATION PERIOD IS 50 FS
Info:             DECAY TIME IS 25 FS
Info:     PISTON TEMPERATURE IS 300 K
Info:       PRESSURE CONTROL IS GROUP-BASED
Info:    INITIAL STRAIN RATE IS 0.000208845 0.000208845 0.000208845
Info:       CELL FLUCTUATION IS ISOTROPIC
Info: PARTICLE MESH EWALD (PME) ACTIVE
Info: PME TOLERANCE               1e-06
Info: PME EWALD COEFFICIENT       0.348832
Info: PME INTERPOLATION ORDER     4
Info: PME GRID DIMENSIONS         32 32 32
Info: PME MAXIMUM GRID SPACING    1
Info: PME CALCULATION WILL BE PERFORMED ON GPU
Info: FULL ELECTROSTATIC EVALUATION FREQUENCY      2
Info: USING VERLET I (r-RESPA) MTS SCHEME.
Info: C1 SPLITTING OF LONG RANGE ELECTROSTATICS
Info: PLACING ATOMS IN PATCHES BY HYDROGEN GROUPS
Info: RIGID BONDS TO HYDROGEN : ALL
Info:         ERROR TOLERANCE : 1e-08
Info:          MAX ITERATIONS : 100
Info: RIGID WATER USING SETTLE ALGORITHM
Info: RANDOM NUMBER SEED     1743590415
Info: USE HYDROGEN BONDS?    NO
Info: Using AMBER format force field!
Info: AMBER PARM FILE        mobley_8006582.prmtop
Info: COORDINATE PDB         mobley_8006582.pdb
Info: Exclusions will be read from PARM file!
Info: SCNB (VDW SCALING)     2
Info: USING ARITHMETIC MEAN TO COMBINE L-J SIGMA PARAMETERS
Info: BINARY COORDINATES     mobley_8006582_equil.coor
Info: SUMMARY OF PARAMETERS:
Info: 4 BONDS
Info: 3 ANGLES
Info:   3 HARMONIC
Info:   0 COSINE-BASED
Info: 5 DIHEDRAL
Info: 0 IMPROPER
Info: 0 CROSSTERM
Info: 0 VDW
Info: 10 VDW_PAIRS
Info: 0 NBTHOLE_PAIRS
Info: To read alchdata from file: mobley_8006582.pdb
Info: To read alchflag data from column: 5
Info: STRUCTURE SUMMARY:
Info: 2964 ATOMS
Info: 2964 BONDS
Info: 30 ANGLES
Info: 55 DIHEDRALS
Info: 0 IMPROPERS
Info: 0 CROSSTERMS
Info: 3034 EXCLUSIONS
Info: 2959 RIGID BONDS
Info: ALCH: 0 ATOMS TO DISAPPEAR IN FINAL STATE
Info: ALCH: 15 ATOMS TO APPEAR IN FINAL STATE
Info: 5933 DEGREES OF FREEDOM
Info: 988 HYDROGEN GROUPS
Info: 3 ATOMS IN LARGEST HYDROGEN GROUP
Info: 988 MIGRATION GROUPS
Info: 3 ATOMS IN LARGEST MIGRATION GROUP
Info: TOTAL MASS = 17779.9 amu
Info: TOTAL CHARGE = -0.000499971 e
Info: MASS DENSITY = 0.965023 g/cm^3
Info: ATOM DENSITY = 0.0968787 atoms/A^3
Info: ADDED 0 IMPLICIT EXCLUSIONS
Info: NONBONDED TABLE R-SQUARED SPACING: 0.0625
Info: NONBONDED TABLE SIZE: 705 POINTS
Info: REMOVING COM VELOCITY -0.0527964 0.0644596 0.0359691
Info: Use 3D box decompostion in PME FFT.
Info: Updated CUDA force table with 4096 elements.
Info: Updated CUDA LJ table with 4 x 4 elements.
Info: Found 18 unique exclusion lists needing 40 bytes
TCL: Running for 1500000 steps
ETITLE: TS BOND ANGLE DIHED IMPRP ELECT VDW BOUNDARY MISC KINETIC TOTAL TEMP POTENTIAL TOTALAVG TEMPAVG PRESSURE GPRESSURE VOLUME PRESSAVG GPRESSAVG
ENERGY: 0 3.6880 8.9726 11.5329 0.0000 -10629.7934 1354.5628 0.0000 0.0000 1811.8110 -7439.2260 307.3470 -9251.0370 -7439.2260 307.3470 -713.9182 -634.5693 30594.9688 -713.9182 -634.5693
ENERGY: 300000 2.2217 11.6983 7.0004 0.0000 -10621.3102 1402.9347 0.0000 0.0000 1774.0395 -7423.4156 300.9396 -9197.4551 -7445.6678 304.0243 -29.4162 -38.8979 30476.8204 -76.3825 -22.0392
ENERGY: 600000 1.2174 8.9120 9.8162 0.0000 -10747.1518 1451.9041 0.0000 0.0000 1809.6048 -7465.6973 306.9727 -9275.3021 -7452.8014 303.6077 -172.4249 -99.7307 31066.5376 -163.5658 -104.4264
ENERGY: 900000 0.9785 12.2306 9.3104 0.0000 -10626.9457 1412.9579 0.0000 0.0000 1754.4696 -7436.9988 297.6198 -9191.4684 -7467.7814 302.8227 -0.7553 59.0605 30776.2310 -176.0604 -115.8207
ENERGY: 1200000 2.9891 8.3586 10.5170 0.0000 -10719.8072 1384.8482 0.0000 0.0000 1795.8252 -7517.2690 304.6352 -9313.0942 -7482.2028 302.3652 -583.8673 -481.4147 30529.7370 -185.9913 -130.8890
ENERGY: 1500000 1.9206 12.1881 8.8184 0.0000 -10816.3858 1490.6380 0.0000 0.0000 1812.3189 -7490.5018 307.4331 -9302.8207 -7483.2144 302.1905 320.2922 428.2989 30575.6990 -193.4281 -130.2196
TCL: Running FEP window   2: Lambda1 0.95   Lambda2 0.8999999999999999 [dLambda -0.050000000000000044]
TCL: Setting parameter firsttimestep to 0
TCL: Setting parameter alchLambda to 0.95
Info: NONBONDED TABLE R-SQUARED SPACING: 0.0625
Info: NONBONDED TABLE SIZE: 705 POINTS
TCL: Setting parameter alchLambda2 to 0.8999999999999999
Info: NONBONDED TABLE R-SQUARED SPACING: 0.0625
Info: NONBONDED TABLE SIZE: 705 POINTS
TCL: Running for 1500000 steps
ETITLE: TS BOND ANGLE DIHED IMPRP ELECT VDW BOUNDARY MISC KINETIC TOTAL TEMP POTENTIAL TOTALAVG TEMPAVG PRESSURE GPRESSURE VOLUME PRESSAVG GPRESSAVG
ENERGY: 0 1.9206 12.1881 8.8184 0.0000 -10816.3918 1490.9630 0.0000 0.0000 1811.4062 -7491.0955 307.2783 -9302.5017 -7491.0955 307.2783 326.7768 420.1038 30575.6990 326.7768 420.1038
ENERGY: 300000 1.7201 12.8862 8.6621 0.0000 -10663.5691 1387.9199 0.0000 0.0000 1742.0660 -7510.3149 295.5157 -9252.3808 -7528.7700 299.4577 -369.8341 -256.5226 30502.4606 -439.2954 -349.6423
ENERGY: 600000 1.4264 11.1384 10.7922 0.0000 -10854.9832 1529.8226 0.0000 0.0000 1768.3928 -7533.4107 299.9817 -9301.8035 -7509.9584 301.5366 690.7449 716.4657 30566.5380 -71.3733 -13.1471
ENERGY: 900000 2.1185 9.9092 7.6781 0.0000 -10794.9814 1454.5334 0.0000 0.0000 1779.5043 -7541.2380 301.8666 -9320.7423 -7517.9929 300.6946 -39.4472 45.4426 30545.3426 -23.9344 35.7916
ENERGY: 1200000 2.3749 11.0443 9.4080 0.0000 -10709.9847 1425.3819 0.0000 0.0000 1752.4706 -7509.3051 297.2807 -9261.7756 -7501.5132 300.8354 46.0501 78.9693 30249.6847 -51.1184 6.4963
ENERGY: 1500000 0.5869 8.3726 8.3225 0.0000 -10654.2254 1383.3355 0.0000 0.0000 1802.7740 -7450.8339 305.8140 -9253.6080 -7500.1038 300.7519 -357.5407 -243.9302 30405.4005 -91.3078 -29.6435
TCL: Running FEP window   3: Lambda1 0.8999999999999999 Lambda2 0.8499999999999999 [dLambda -0.050000000000000044]
TCL: Setting parameter firsttimestep to 0
TCL: Setting parameter alchLambda to 0.8999999999999999
Info: NONBONDED TABLE R-SQUARED SPACING: 0.0625
Info: NONBONDED TABLE SIZE: 705 POINTS
TCL: Setting parameter alchLambda2 to 0.8499999999999999
Info: NONBONDED TABLE R-SQUARED SPACING: 0.0625
Info: NONBONDED TABLE SIZE: 705 POINTS
TCL: Running for 1500000 steps
ETITLE: TS BOND ANGLE DIHED IMPRP ELECT VDW BOUNDARY MISC KINETIC TOTAL TEMP POTENTIAL TOTALAVG TEMPAVG PRESSURE GPRESSURE VOLUME PRESSAVG GPRESSAVG
ENERGY: 0 0.5869 8.3725 8.3225 0.0000 -10654.2427 1384.0176 0.0000 0.0000 1801.8792 -7451.0640 305.6622 -9252.9433 -7451.0640 305.6622 -327.1945 -243.2059 30405.4005 -327.1945 -243.2059
ENERGY: 300000 2.1675 7.8773 9.0342 0.0000 -10658.3589 1407.3664 0.0000 0.0000 1760.9115 -7471.0018 298.7126 -9231.9134 -7484.2231 299.4432 -395.8424 -310.5233 31018.0100 -568.5024 -494.2884
ENERGY: 600000 0.5952 7.7246 11.5380 0.0000 -10771.0533 1467.9108 0.0000 0.0000 1799.4267 -7483.8579 305.2462 -9283.2847 -7473.3865 299.9189 126.9270 188.6391 30750.4223 -440.3620 -371.4798
ENERGY: 900000 2.7587 13.1296 7.8914 0.0000 -10690.5154 1448.5877 0.0000 0.0000 1751.5342 -7466.6138 297.1219 -9218.1479 -7482.7248 299.6339 -45.4068 102.3011 30680.2255 -336.1313 -261.3520
ENERGY: 1200000 0.7560 6.7141 9.2128 0.0000 -10634.6746 1380.9572 0.0000 0.0000 1709.3903 -7527.6442 289.9728 -9237.0345 -7495.8866 297.6237 -695.1356 -642.3177 31352.9233 -350.3059 -278.3637
ENERGY: 1500000 2.4481 11.2435 9.2973 0.0000 -10733.0829 1417.1802 0.0000 0.0000 1683.5786 -7609.3351 285.5942 -9292.9137 -7493.7098 297.9734 -503.3846 -407.9270 30633.3446 -306.0664 -233.9378
TCL: Running FEP window   4: Lambda1 0.8499999999999999 Lambda2 0.7999999999999998 [dLambda -0.050000000000000044]
TCL: Setting parameter firsttimestep to 0
TCL: Setting parameter alchLambda to 0.8499999999999999
Info: NONBONDED TABLE R-SQUARED SPACING: 0.0625
Info: NONBONDED TABLE SIZE: 705 POINTS
TCL: Setting parameter alchLambda2 to 0.7999999999999998
Info: NONBONDED TABLE R-SQUARED SPACING: 0.0625
Info: NONBONDED TABLE SIZE: 705 POINTS
TCL: Running for 1500000 steps
ETITLE: TS BOND ANGLE DIHED IMPRP ELECT VDW BOUNDARY MISC KINETIC TOTAL TEMP POTENTIAL TOTALAVG TEMPAVG PRESSURE GPRESSURE VOLUME PRESSAVG GPRESSAVG
ENERGY: 0 2.4481 11.2435 9.2973 0.0000 -10733.1106 1417.6360 0.0000 0.0000 1682.7019 -7609.7838 285.4455 -9292.4856 -7609.7838 285.4455 -490.0690 -412.8132 30633.3446 -490.0690 -412.8132
ENERGY: 300000 3.5165 9.8231 8.9518 0.0000 -10772.7107 1399.2860 0.0000 0.0000 1707.5378 -7643.5956 289.6585 -9351.1333 -7587.0759 295.3484 -691.5576 -648.2094 30605.1772 -196.9607 -122.5175
ENERGY: 600000 1.5419 17.5162 9.9319 0.0000 -10805.6586 1484.0470 0.0000 0.0000 1812.0866 -7480.5350 307.3937 -9292.6216 -7555.0290 298.3838 519.6907 475.3995 30026.8403 143.0441 186.6713
ENERGY: 900000 1.4945 9.4144 10.2703 0.0000 -10840.8292 1534.4836 0.0000 0.0000 1767.8225 -7517.3439 299.8850 -9285.1664 -7533.7550 297.8096 921.5706 994.2889 30120.7971 86.3406 138.0532
ENERGY: 1200000 2.5817 12.2207 7.0725 0.0000 -10616.5363 1387.4402 0.0000 0.0000 1761.0446 -7446.1765 298.7352 -9207.2211 -7518.6021 298.0428 -369.5320 -308.2653 30483.5919 35.3943 87.3640
ENERGY: 1500000 2.5711 10.9224 7.3086 0.0000 -10734.2898 1441.0309 0.0000 0.0000 1778.2145 -7494.2423 301.6478 -9272.4568 -7514.5195 298.3851 10.1427 74.0000 30522.9955 -13.6606 37.8067
TCL: Running FEP window   5: Lambda1 0.7999999999999998 Lambda2 0.7499999999999998 [dLambda -0.050000000000000044]
TCL: Setting parameter firsttimestep to 0
TCL: Setting parameter alchLambda to 0.7999999999999998
Info: NONBONDED TABLE R-SQUARED SPACING: 0.0625
Info: NONBONDED TABLE SIZE: 705 POINTS
TCL: Setting parameter alchLambda2 to 0.7499999999999998
Info: NONBONDED TABLE R-SQUARED SPACING: 0.0625
Info: NONBONDED TABLE SIZE: 705 POINTS
TCL: Running for 1500000 steps
ETITLE: TS BOND ANGLE DIHED IMPRP ELECT VDW BOUNDARY MISC KINETIC TOTAL TEMP POTENTIAL TOTALAVG TEMPAVG PRESSURE GPRESSURE VOLUME PRESSAVG GPRESSAVG
ENERGY: 0 2.5711 10.9224 7.3086 0.0000 -10734.3068 1441.5373 0.0000 0.0000 1777.3414 -7494.6260 301.4997 -9271.9674 -7494.6260 301.4997 -24.1446 73.2787 30522.9955 -24.1446 73.2787
ENERGY: 300000 1.1772 10.9517 8.5974 0.0000 -10724.8499 1423.2581 0.0000 0.0000 1727.1134 -7553.7520 292.9793 -9280.8654 -7515.4743 298.8880 -258.7566 -201.7298 30661.2627 -6.5087 44.7374
ENERGY: 600000 0.6963 8.6220 8.8829 0.0000 -10710.3623 1451.7715 0.0000 0.0000 1780.6498 -7459.7397 302.0609 -9240.3895 -7495.5977 300.3762 8.7622 40.1285 30926.6028 -69.3770 -12.1490
ENERGY: 900000 0.6674 13.3993 6.9894 0.0000 -10836.4053 1530.3309 0.0000 0.0000 1741.6559 -7543.3624 295.4462 -9285.0183 -7501.7757 300.2611 887.9814 909.2234 29903.6799 39.0828 90.4871
ENERGY: 1200000 1.8427 9.8782 9.9202 0.0000 -10759.4832 1438.9594 0.0000 0.0000 1741.3989 -7557.4838 295.4026 -9298.8827 -7499.8279 300.5385 -86.5778 -58.2944 30297.8212 -45.5667 18.1771
ENERGY: 1500000 0.6325 8.3798 8.8207 0.0000 -10693.6313 1440.1946 0.0000 0.0000 1749.7989 -7485.8048 296.8275 -9235.6037 -7490.7655 300.8106 71.3768 90.8482 30672.7750 -16.2873 40.7443
TCL: Running FEP window   6: Lambda1 0.7499999999999998 Lambda2 0.6999999999999997 [dLambda -0.050000000000000044]
TCL: Setting parameter firsttimestep to 0
TCL: Setting parameter alchLambda to 0.7499999999999998
Info: NONBONDED TABLE R-SQUARED SPACING: 0.0625
Info: NONBONDED TABLE SIZE: 705 POINTS
TCL: Setting parameter alchLambda2 to 0.6999999999999997
Info: NONBONDED TABLE R-SQUARED SPACING: 0.0625
Info: NONBONDED TABLE SIZE: 705 POINTS
TCL: Running for 1500000 steps
ETITLE: TS BOND ANGLE DIHED IMPRP ELECT VDW BOUNDARY MISC KINETIC TOTAL TEMP POTENTIAL TOTALAVG TEMPAVG PRESSURE GPRESSURE VOLUME PRESSAVG GPRESSAVG
ENERGY: 0 0.6325 8.3798 8.8207 0.0000 -10693.6529 1440.4179 0.0000 0.0000 1748.9158 -7486.4863 296.6777 -9235.4020 -7486.4863 296.6777 3.1874 86.3258 30672.7750 3.1874 86.3258
ENERGY: 300000 1.2350 10.8133 9.1054 0.0000 -10726.4577 1462.0746 0.0000 0.0000 1742.2576 -7500.9718 295.5483 -9243.2294 -7467.1265 299.6401 194.2192 183.5845 30443.8815 -97.9983 -63.4856
ENERGY: 600000 1.0903 11.2116 9.9062 0.0000 -10670.1386 1434.8961 0.0000 0.0000 1771.5790 -7441.4556 300.5222 -9213.0345 -7490.8364 297.1869 -182.8626 -30.1775 30629.8793 -39.2370 12.7708
ENERGY: 900000 0.6786 9.5162 11.2567 0.0000 -10879.6287 1523.6480 0.0000 0.0000 1822.5755 -7511.9536 309.1730 -9334.5291 -7483.7476 298.9572 450.9417 584.6938 30411.1169 42.6467 108.5381
ENERGY: 1200000 0.8985 9.1031 10.1860 0.0000 -10586.0679 1402.3728 0.0000 0.0000 1773.4572 -7390.0503 300.8408 -9163.5075 -7474.0372 300.0899 -106.8434 -36.5718 30618.7103 115.3873 179.0585
ENERGY: 1500000 2.3516 4.9851 11.5785 0.0000 -10880.1396 1550.8912 0.0000 0.0000 1781.9224 -7528.4108 302.2768 -9310.3333 -7480.1356 300.8178 949.4418 1042.1914 30364.3262 50.1113 114.7670
TCL: Running FEP window   7: Lambda1 0.6999999999999997 Lambda2 0.6499999999999997 [dLambda -0.050000000000000044]
TCL: Setting parameter firsttimestep to 0
TCL: Setting parameter alchLambda to 0.6999999999999997
Info: NONBONDED TABLE R-SQUARED SPACING: 0.0625
Info: NONBONDED TABLE SIZE: 705 POINTS
TCL: Setting parameter alchLambda2 to 0.6499999999999997
Info: NONBONDED TABLE R-SQUARED SPACING: 0.0625
Info: NONBONDED TABLE SIZE: 705 POINTS
TCL: Running for 1500000 steps
ETITLE: TS BOND ANGLE DIHED IMPRP ELECT VDW BOUNDARY MISC KINETIC TOTAL TEMP POTENTIAL TOTALAVG TEMPAVG PRESSURE GPRESSURE VOLUME PRESSAVG GPRESSAVG
ENERGY: 0 2.3516 4.9851 11.5785 0.0000 -10880.1361 1550.9802 0.0000 0.0000 1781.0226 -7529.2180 302.1242 -9310.2407 -7529.2180 302.1242 965.3287 1033.0547 30364.3262 965.3287 1033.0547
ENERGY: 300000 2.6698 11.9421 9.0186 0.0000 -10794.1341 1424.5330 0.0000 0.0000 1732.5469 -7613.4236 293.9010 -9345.9705 -7552.4304 296.8853 -403.6169 -349.2144 30342.3463 101.4121 184.0240
ENERGY: 600000 1.2980 8.6194 10.2880 0.0000 -10703.7819 1436.1339 0.0000 0.0000 1779.5176 -7467.9250 301.8689 -9247.4426 -7548.8038 297.1319 -233.5075 -112.8064 30983.8041 289.7516 365.5861
ENERGY: 900000 0.9575 15.3696 6.5233 0.0000 -10773.4545 1485.0542 0.0000 0.0000 1762.9729 -7502.5768 299.0623 -9265.5497 -7539.6802 298.2150 236.8969 303.0799 30672.1966 156.0998 228.9672
ENERGY: 1200000 2.6181 14.6634 8.8597 0.0000 -10882.2518 1462.3399 0.0000 0.0000 1748.2478 -7645.5228 296.5644 -9393.7707 -7541.3973 298.2281 -193.1367 -149.3595 30298.9724 134.3122 202.3938
ENERGY: 1500000 0.3178 10.3513 10.6363 0.0000 -10745.3171 1445.3454 0.0000 0.0000 1756.7747 -7521.8916 298.0109 -9278.6662 -7536.2386 298.0650 -74.9446 -13.4541 30664.3338 77.3670 146.1958
TCL: Running FEP window   8: Lambda1 0.6499999999999997 Lambda2 0.5999999999999996 [dLambda -0.050000000000000044]
TCL: Setting parameter firsttimestep to 0
TCL: Setting parameter alchLambda to 0.6499999999999997
Info: NONBONDED TABLE R-SQUARED SPACING: 0.0625
Info: NONBONDED TABLE SIZE: 705 POINTS
TCL: Setting parameter alchLambda2 to 0.5999999999999996
Info: NONBONDED TABLE R-SQUARED SPACING: 0.0625
Info: NONBONDED TABLE SIZE: 705 POINTS
TCL: Running for 1500000 steps
ETITLE: TS BOND ANGLE DIHED IMPRP ELECT VDW BOUNDARY MISC KINETIC TOTAL TEMP POTENTIAL TOTALAVG TEMPAVG PRESSURE GPRESSURE VOLUME PRESSAVG GPRESSAVG
ENERGY: 0 0.3178 10.3513 10.6363 0.0000 -10745.2866 1445.8079 0.0000 0.0000 1755.8472 -7522.3261 297.8535 -9278.1733 -7522.3261 297.8535 -84.2414 -12.6612 30664.3338 -84.2414 -12.6612
ENERGY: 300000 3.7364 10.0043 9.6451 0.0000 -10678.3424 1423.0807 0.0000 0.0000 1798.4055 -7433.4705 305.0729 -9231.8759 -7502.4231 301.0749 -153.0568 -144.5199 30962.2109 152.1242 219.4837
ENERGY: 600000 0.7823 16.1936 7.2911 0.0000 -10710.0470 1458.2459 0.0000 0.0000 1793.4564 -7434.0776 304.2334 -9227.5341 -7491.1106 300.5016 470.9471 454.1548 30161.7660 49.2911 100.7953
ENERGY: 900000 1.3985 9.2686 9.0744 0.0000 -10765.3139 1432.1118 0.0000 0.0000 1725.7232 -7587.7374 292.7434 -9313.4606 -7495.3679 299.4500 -274.9738 -198.9129 30451.5729 21.0382 76.1468
ENERGY: 1200000 6.0445 8.1559 9.0899 0.0000 -10811.8565 1461.3054 0.0000 0.0000 1847.3022 -7479.9585 313.3675 -9327.2608 -7497.8596 300.7730 121.6974 137.0261 30217.7898 37.9125 86.0750
ENERGY: 1500000 1.0677 12.7892 7.2752 0.0000 -10624.1189 1378.7751 0.0000 0.0000 1782.0590 -7442.1527 302.3000 -9224.2117 -7497.9135 301.2252 -615.8441 -519.2400 31258.4334 -16.8110 38.5007
TCL: Running FEP window   9: Lambda1 0.5999999999999996 Lambda2 0.5499999999999996 [dLambda -0.050000000000000044]
TCL: Setting parameter firsttimestep to 0
TCL: Setting parameter alchLambda to 0.5999999999999996
Info: NONBONDED TABLE R-SQUARED SPACING: 0.0625
Info: NONBONDED TABLE SIZE: 705 POINTS
TCL: Setting parameter alchLambda2 to 0.5499999999999996
Info: NONBONDED TABLE R-SQUARED SPACING: 0.0625
Info: NONBONDED TABLE SIZE: 705 POINTS
TCL: Running for 1500000 steps
ETITLE: TS BOND ANGLE DIHED IMPRP ELECT VDW BOUNDARY MISC KINETIC TOTAL TEMP POTENTIAL TOTALAVG TEMPAVG PRESSURE GPRESSURE VOLUME PRESSAVG GPRESSAVG
ENERGY: 0 1.0677 12.7892 7.2752 0.0000 -10624.1468 1379.0314 0.0000 0.0000 1781.2293 -7442.7541 302.1592 -9223.9834 -7442.7541 302.1592 -610.9147 -521.5256 31258.4334 -610.9147 -521.5256
ENERGY: 300000 0.2575 9.8417 9.5229 0.0000 -10676.1181 1394.1972 0.0000 0.0000 1715.8404 -7546.4583 291.0670 -9262.2988 -7514.9563 295.5255 -573.3436 -496.2414 30665.6098 -398.9885 -330.8253
ENERGY: 600000 0.3430 13.2442 10.6052 0.0000 -10631.6734 1304.5499 0.0000 0.0000 1753.7174 -7549.2137 297.4922 -9302.9311 -7495.2572 297.9235 -1211.2023 -1144.1853 30460.2443 -387.1004 -314.8922
ENERGY: 900000 1.1754 7.9257 10.3890 0.0000 -10544.6715 1347.7901 0.0000 0.0000 1755.4409 -7421.9504 297.7846 -9177.3913 -7492.8146 298.9611 -308.0881 -291.0346 30093.4527 -427.8411 -362.0046
ENERGY: 1200000 0.7722 11.0871 9.1863 0.0000 -10877.9350 1561.5128 0.0000 0.0000 1812.1553 -7483.2213 307.4054 -9295.3766 -7484.2331 299.8114 1246.4335 1250.6827 30021.9466 -229.5354 -169.2856
ENERGY: 1500000 0.6270 9.2739 9.5425 0.0000 -10608.8018 1333.0639 0.0000 0.0000 1726.6347 -7529.6598 292.8981 -9256.2945 -7484.8789 299.9181 -824.5417 -707.9908 30595.7118 -220.6112 -155.5277
TCL: Running FEP window  10: Lambda1 0.5499999999999996 Lambda2 0.4999999999999996 [dLambda -0.04999999999999999]
TCL: Setting parameter firsttimestep to 0
TCL: Setting parameter alchLambda to 0.5499999999999996
Info: NONBONDED TABLE R-SQUARED SPACING: 0.0625
Info: NONBONDED TABLE SIZE: 705 POINTS
TCL: Setting parameter alchLambda2 to 0.4999999999999996
Info: NONBONDED TABLE R-SQUARED SPACING: 0.0625
Info: NONBONDED TABLE SIZE: 705 POINTS
TCL: Running for 1500000 steps
ETITLE: TS BOND ANGLE DIHED IMPRP ELECT VDW BOUNDARY MISC KINETIC TOTAL TEMP POTENTIAL TOTALAVG TEMPAVG PRESSURE GPRESSURE VOLUME PRESSAVG GPRESSAVG
ENERGY: 0 0.6270 9.2739 9.5425 0.0000 -10608.7799 1333.5540 0.0000 0.0000 1725.7305 -7530.0521 292.7447 -9255.7825 -7530.0521 292.7447 -788.8038 -709.7481 30595.7118 -788.8038 -709.7481
ENERGY: 300000 2.3231 10.4219 10.7794 0.0000 -10802.4677 1424.7915 0.0000 0.0000 1733.7364 -7620.4155 294.1028 -9354.1519 -7548.6078 293.8823 -432.9922 -362.0109 30504.7071 -280.3754 -235.8116
ENERGY: 600000 0.4541 13.8201 7.6098 0.0000 -10634.9749 1352.3670 0.0000 0.0000 1746.9671 -7513.7569 296.3471 -9260.7239 -7514.5332 298.6381 -746.9841 -668.1128 30410.6819 -257.2719 -206.0114
ENERGY: 900000 0.1943 14.3292 8.0153 0.0000 -10830.8872 1505.5940 0.0000 0.0000 1767.3455 -7535.4091 299.8041 -9302.7546 -7512.1343 299.7933 542.7896 579.2291 30178.3296 -164.2835 -116.4488
ENERGY: 1200000 0.8587 10.9993 10.0720 0.0000 -10747.4181 1379.6630 0.0000 0.0000 1789.2218 -7556.6033 303.5150 -9345.8251 -7514.2665 300.9389 -754.3692 -684.8290 30544.3528 -239.2642 -191.2484
ENERGY: 1500000 1.4604 11.0386 10.5082 0.0000 -10736.4452 1434.0829 0.0000 0.0000 1783.1831 -7496.1719 302.4907 -9279.3550 -7506.2756 302.2585 -248.5375 -158.2774 30730.5136 -252.5351 -195.8904
TCL: Running FEP window  11: Lambda1 0.4999999999999996 Lambda2 0.4499999999999996 [dLambda -0.04999999999999999]
TCL: Setting parameter firsttimestep to 0
TCL: Setting parameter alchLambda to 0.4999999999999996
Info: NONBONDED TABLE R-SQUARED SPACING: 0.0625
Info: NONBONDED TABLE SIZE: 705 POINTS
TCL: Setting parameter alchLambda2 to 0.4499999999999996
Info: NONBONDED TABLE R-SQUARED SPACING: 0.0625
Info: NONBONDED TABLE SIZE: 705 POINTS
TCL: Running for 1500000 steps
ETITLE: TS BOND ANGLE DIHED IMPRP ELECT VDW BOUNDARY MISC KINETIC TOTAL TEMP POTENTIAL TOTALAVG TEMPAVG PRESSURE GPRESSURE VOLUME PRESSAVG GPRESSAVG
ENERGY: 0 1.4604 11.0386 10.5082 0.0000 -10736.4513 1434.4012 0.0000 0.0000 1782.3303 -7496.7126 302.3460 -9279.0429 -7496.7126 302.3460 -251.5782 -161.7563 30730.5136 -251.5782 -161.7563
ENERGY: 300000 1.0448 13.6878 7.3526 0.0000 -10667.9261 1404.0444 0.0000 0.0000 1790.6916 -7451.1050 303.7644 -9241.7966 -7468.1620 303.4290 -357.0637 -294.9255 30970.6929 -41.5664 13.5467
ENERGY: 600000 0.4493 9.9151 8.6014 0.0000 -10714.9916 1474.4964 0.0000 0.0000 1828.6342 -7392.8952 310.2008 -9221.5294 -7467.4878 303.7350 476.3004 513.0955 30413.8917 43.0704 87.8207
ENERGY: 900000 0.4152 8.1186 11.7874 0.0000 -10639.1999 1406.1584 0.0000 0.0000 1794.9248 -7417.7955 304.4825 -9212.7203 -7475.9323 303.1689 -183.2851 -91.0003 30766.3585 43.1897 104.0947
ENERGY: 1200000 0.9820 8.4218 10.9885 0.0000 -10784.1297 1411.0819 0.0000 0.0000 1783.8415 -7568.8140 302.6024 -9352.6555 -7480.0156 302.6797 -541.2559 -437.1775 30450.9443 -12.6681 47.5553
ENERGY: 1500000 0.5963 7.1981 10.0214 0.0000 -10739.3849 1468.0814 0.0000 0.0000 1765.8112 -7487.6764 299.5438 -9253.4877 -7497.5699 301.2929 -74.3266 48.1837 30662.4209 -61.9146 5.0763
TCL: Running FEP window  12: Lambda1 0.4499999999999996 Lambda2 0.39999999999999963 [dLambda -0.04999999999999999]
TCL: Setting parameter firsttimestep to 0
TCL: Setting parameter alchLambda to 0.4499999999999996
Info: NONBONDED TABLE R-SQUARED SPACING: 0.0625
Info: NONBONDED TABLE SIZE: 705 POINTS
TCL: Setting parameter alchLambda2 to 0.39999999999999963
Info: NONBONDED TABLE R-SQUARED SPACING: 0.0625
Info: NONBONDED TABLE SIZE: 705 POINTS
TCL: Running for 1500000 steps
ETITLE: TS BOND ANGLE DIHED IMPRP ELECT VDW BOUNDARY MISC KINETIC TOTAL TEMP POTENTIAL TOTALAVG TEMPAVG PRESSURE GPRESSURE VOLUME PRESSAVG GPRESSAVG
ENERGY: 0 0.5963 7.1981 10.0214 0.0000 -10739.3840 1468.3445 0.0000 0.0000 1764.9221 -7488.3016 299.3930 -9253.2237 -7488.3016 299.3930 -35.5773 46.3246 30662.4209 -35.5773 46.3246
ENERGY: 300000 1.7956 12.3959 7.8181 0.0000 -10669.6160 1404.8199 0.0000 0.0000 1799.3864 -7443.4002 305.2393 -9242.7866 -7498.6670 298.1181 -505.7300 -434.7096 30958.8329 -188.1460 -118.2735
ENERGY: 600000 0.3526 5.4628 12.9478 0.0000 -10656.6470 1382.1843 0.0000 0.0000 1778.9972 -7476.7024 301.7806 -9255.6996 -7506.1859 299.9854 -682.8278 -614.0669 30890.3473 -327.7371 -256.7871
ENERGY: 900000 0.9834 11.6056 10.8464 0.0000 -10694.4736 1416.3243 0.0000 0.0000 1798.6719 -7456.0420 305.1181 -9254.7139 -7494.4428 299.7876 -207.7815 -111.6426 30167.5282 -320.5252 -251.2513
ENERGY: 1200000 1.5676 6.1193 11.5987 0.0000 -10756.7547 1470.0517 0.0000 0.0000 1730.3937 -7537.0237 293.5357 -9267.4174 -7492.4528 299.7622 -55.9945 72.6241 30747.8062 -169.8052 -95.5971
ENERGY: 1500000 0.6397 12.0000 9.4249 0.0000 -10539.4606 1304.8998 0.0000 0.0000 1769.6254 -7442.8709 300.1908 -9212.4963 -7487.2449 299.8525 -1011.4859 -958.2594 30785.1374 -189.6220 -113.8916
TCL: Running FEP window  13: Lambda1 0.39999999999999963 Lambda2 0.34999999999999964 [dLambda -0.04999999999999999]
TCL: Setting parameter firsttimestep to 0
TCL: Setting parameter alchLambda to 0.39999999999999963
Info: NONBONDED TABLE R-SQUARED SPACING: 0.0625
Info: NONBONDED TABLE SIZE: 705 POINTS
TCL: Setting parameter alchLambda2 to 0.34999999999999964
Info: NONBONDED TABLE R-SQUARED SPACING: 0.0625
Info: NONBONDED TABLE SIZE: 705 POINTS
TCL: Running for 1500000 steps
ETITLE: TS BOND ANGLE DIHED IMPRP ELECT VDW BOUNDARY MISC KINETIC TOTAL TEMP POTENTIAL TOTALAVG TEMPAVG PRESSURE GPRESSURE VOLUME PRESSAVG GPRESSAVG
ENERGY: 0 0.6397 12.0000 9.4249 0.0000 -10539.4586 1304.9534 0.0000 0.0000 1768.7650 -7443.6757 300.0448 -9212.4406 -7443.6757 300.0448 -1046.0096 -960.4903 30785.1374 -1046.0096 -960.4903
ENERGY: 300000 2.9766 11.4504 9.6211 0.0000 -10771.1936 1476.1567 0.0000 0.0000 1797.3288 -7473.6600 304.8903 -9270.9888 -7472.4858 303.8527 224.0529 260.3112 30471.8451 -452.0318 -398.4441
ENERGY: 600000 1.3583 12.3681 8.7610 0.0000 -10735.1902 1426.2235 0.0000 0.0000 1724.1408 -7562.3383 292.4750 -9286.4792 -7500.3926 300.0431 -211.3636 -125.6915 30336.3624 -408.5308 -350.5993
ENERGY: 900000 3.1927 14.4767 7.7556 0.0000 -10645.9335 1414.2704 0.0000 0.0000 1758.3346 -7447.9035 298.2755 -9206.2381 -7489.0321 299.2485 -384.8302 -434.3884 31147.1747 -375.0332 -313.1019
ENERGY: 1200000 1.7064 10.8539 8.9937 0.0000 -10825.4017 1496.9086 0.0000 0.0000 1807.8596 -7499.0795 306.6767 -9306.9391 -7477.9257 301.0840 250.7593 300.2047 30619.3785 -241.8912 -177.9489
ENERGY: 1500000 3.3387 12.1484 8.4021 0.0000 -10695.6733 1394.4378 0.0000 0.0000 1792.8481 -7484.4982 304.1302 -9277.3464 -7473.7785 301.6942 -577.6245 -539.2044 30379.5909 -179.1553 -118.7085
TCL: Running FEP window  14: Lambda1 0.34999999999999964 Lambda2 0.29999999999999966 [dLambda -0.04999999999999999]
TCL: Setting parameter firsttimestep to 0
TCL: Setting parameter alchLambda to 0.34999999999999964
Info: NONBONDED TABLE R-SQUARED SPACING: 0.0625
Info: NONBONDED TABLE SIZE: 705 POINTS
TCL: Setting parameter alchLambda2 to 0.29999999999999966
Info: NONBONDED TABLE R-SQUARED SPACING: 0.0625
Info: NONBONDED TABLE SIZE: 705 POINTS
TCL: Running for 1500000 steps
ETITLE: TS BOND ANGLE DIHED IMPRP ELECT VDW BOUNDARY MISC KINETIC TOTAL TEMP POTENTIAL TOTALAVG TEMPAVG PRESSURE GPRESSURE VOLUME PRESSAVG GPRESSAVG
ENERGY: 0 3.3387 12.1484 8.4021 0.0000 -10695.6731 1394.0553 0.0000 0.0000 1791.9534 -7485.7752 303.9784 -9277.7287 -7485.7752 303.9784 -623.8818 -543.9093 30379.5909 -623.8818 -543.9093
ENERGY: 300000 1.4548 13.4060 8.6726 0.0000 -10686.5630 1390.7102 0.0000 0.0000 1763.3105 -7509.0089 299.1196 -9272.3194 -7516.8059 299.8086 -571.8601 -493.3880 30626.4930 -494.2637 -409.4834
ENERGY: 600000 0.3644 11.8756 8.8498 0.0000 -10678.7195 1405.3918 0.0000 0.0000 1760.7909 -7491.4469 298.6922 -9252.2379 -7492.3070 300.4845 -319.7129 -223.1262 30469.5026 -439.5333 -354.3565
ENERGY: 900000 1.4600 11.3421 8.5062 0.0000 -10869.3386 1451.0527 0.0000 0.0000 1783.8791 -7613.0985 302.6087 -9396.9776 -7501.6399 301.2505 -329.1722 -274.4117 30254.2746 -300.0076 -225.2089
ENERGY: 1200000 0.9987 11.5720 11.2447 0.0000 -10671.7478 1425.0058 0.0000 0.0000 1740.5077 -7482.4190 295.2514 -9222.9267 -7496.1698 301.1289 -195.1322 -67.8613 30758.3804 -279.7005 -200.0624
ENERGY: 1500000 1.0206 8.8158 12.0229 0.0000 -10596.5454 1357.8437 0.0000 0.0000 1816.1878 -7400.6546 308.0894 -9216.8424 -7495.6547 301.2146 -296.4221 -250.2368 30148.6584 -240.1986 -168.2774
TCL: Running FEP window  15: Lambda1 0.29999999999999966 Lambda2 0.24999999999999967 [dLambda -0.04999999999999999]
TCL: Setting parameter firsttimestep to 0
TCL: Setting parameter alchLambda to 0.29999999999999966
Info: NONBONDED TABLE R-SQUARED SPACING: 0.0625
Info: NONBONDED TABLE SIZE: 705 POINTS
TCL: Setting parameter alchLambda2 to 0.24999999999999967
Info: NONBONDED TABLE R-SQUARED SPACING: 0.0625
Info: NONBONDED TABLE SIZE: 705 POINTS
TCL: Running for 1500000 steps
ETITLE: TS BOND ANGLE DIHED IMPRP ELECT VDW BOUNDARY MISC KINETIC TOTAL TEMP POTENTIAL TOTALAVG TEMPAVG PRESSURE GPRESSURE VOLUME PRESSAVG GPRESSAVG
ENERGY: 0 1.0206 8.8158 12.0229 0.0000 -10596.5455 1358.0532 0.0000 0.0000 1815.3012 -7401.3319 307.9390 -9216.6330 -7401.3319 307.9390 -337.5140 -253.0679 30148.6584 -337.5140 -253.0679
ENERGY: 300000 0.5841 10.9306 8.4173 0.0000 -10704.3157 1450.0884 0.0000 0.0000 1779.1970 -7455.0982 301.8145 -9234.2952 -7491.1381 301.3065 -11.5823 82.4205 30906.5721 -327.9161 -262.7996
ENERGY: 600000 2.5116 10.1889 9.2387 0.0000 -10800.4078 1499.7224 0.0000 0.0000 1759.5533 -7519.1929 298.4822 -9278.7462 -7496.3750 301.3087 260.3204 386.7349 30321.0323 -266.4329 -202.3805
ENERGY: 900000 0.4824 9.1810 10.9646 0.0000 -10695.4125 1361.7719 0.0000 0.0000 1767.5842 -7545.4285 299.8445 -9313.0127 -7508.6861 301.4278 -468.5016 -418.5048 29963.9553 -220.3933 -157.3061
ENERGY: 1200000 0.4867 8.8396 10.6960 0.0000 -10698.0050 1380.8882 0.0000 0.0000 1758.1058 -7538.9887 298.2367 -9297.0945 -7507.3213 300.7895 -585.6954 -524.5261 30271.9614 -263.4006 -201.0311
ENERGY: 1500000 1.4264 11.8008 9.7302 0.0000 -10646.5868 1357.6753 0.0000 0.0000 1753.4328 -7512.5213 297.4440 -9265.9541 -7506.4152 300.8044 -735.9052 -630.2850 30568.7757 -270.5593 -210.6951
TCL: Running FEP window  16: Lambda1 0.24999999999999967 Lambda2 0.19999999999999968 [dLambda -0.04999999999999999]
TCL: Setting parameter firsttimestep to 0
TCL: Setting parameter alchLambda to 0.24999999999999967
Info: NONBONDED TABLE R-SQUARED SPACING: 0.0625
Info: NONBONDED TABLE SIZE: 705 POINTS
TCL: Setting parameter alchLambda2 to 0.19999999999999968
Info: NONBONDED TABLE R-SQUARED SPACING: 0.0625
Info: NONBONDED TABLE SIZE: 705 POINTS
TCL: Running for 1500000 steps
ETITLE: TS BOND ANGLE DIHED IMPRP ELECT VDW BOUNDARY MISC KINETIC TOTAL TEMP POTENTIAL TOTALAVG TEMPAVG PRESSURE GPRESSURE VOLUME PRESSAVG GPRESSAVG
ENERGY: 0 1.4264 11.8008 9.7302 0.0000 -10646.5861 1357.3821 0.0000 0.0000 1752.5626 -7513.6840 297.2963 -9266.2466 -7513.6840 297.2963 -712.8703 -633.5687 30568.7757 -712.8703 -633.5687
ENERGY: 300000 0.8918 11.4979 8.8212 0.0000 -10708.2181 1442.3248 0.0000 0.0000 1781.4573 -7463.2250 302.1979 -9244.6823 -7500.6778 301.3210 32.9954 150.1690 30437.2499 65.8662 164.9766
ENERGY: 600000 1.4192 13.5197 9.0164 0.0000 -10805.0040 1543.4490 0.0000 0.0000 1810.5978 -7427.0019 307.1412 -9237.5997 -7508.3984 301.4183 813.9013 851.6962 30793.2920 301.0066 390.7936
ENERGY: 900000 0.8449 9.5150 9.2232 0.0000 -10897.9922 1565.6846 0.0000 0.0000 1762.2623 -7550.4623 298.9418 -9312.7246 -7513.7125 300.3421 913.6022 905.9465 30371.4484 278.7040 346.8838
ENERGY: 1200000 0.9455 9.3805 8.5189 0.0000 -10580.3760 1379.8575 0.0000 0.0000 1782.6314 -7399.0422 302.3971 -9181.6736 -7506.6528 299.9620 -442.4451 -434.9868 30878.0429 139.7521 203.1939
ENERGY: 1500000 0.3560 7.6638 10.5732 0.0000 -10718.3140 1423.4614 0.0000 0.0000 1731.3550 -7544.9046 293.6988 -9276.2596 -7507.3010 299.1352 -278.9182 -132.3629 30320.5251 73.8740 147.1758
TCL: Running FEP window  17: Lambda1 0.19999999999999968 Lambda2 0.1499999999999997 [dLambda -0.04999999999999999]
TCL: Setting parameter firsttimestep to 0
TCL: Setting parameter alchLambda to 0.19999999999999968
Info: NONBONDED TABLE R-SQUARED SPACING: 0.0625
Info: NONBONDED TABLE SIZE: 705 POINTS
TCL: Setting parameter alchLambda2 to 0.1499999999999997
Info: NONBONDED TABLE R-SQUARED SPACING: 0.0625
Info: NONBONDED TABLE SIZE: 705 POINTS
TCL: Running for 1500000 steps
ETITLE: TS BOND ANGLE DIHED IMPRP ELECT VDW BOUNDARY MISC KINETIC TOTAL TEMP POTENTIAL TOTALAVG TEMPAVG PRESSURE GPRESSURE VOLUME PRESSAVG GPRESSAVG
ENERGY: 0 0.3560 7.6638 10.5732 0.0000 -10718.3152 1423.4359 0.0000 0.0000 1730.5111 -7545.7751 293.5556 -9276.2863 -7545.7751 293.5556 -212.3219 -135.5118 30320.5251 -212.3219 -135.5118
ENERGY: 300000 1.5447 6.7205 12.2583 0.0000 -10832.1724 1493.9075 0.0000 0.0000 1809.9721 -7507.7692 307.0350 -9317.7414 -7541.7518 296.6405 517.9107 593.0789 30015.4788 38.2905 109.9883
ENERGY: 600000 2.1697 12.5610 8.1731 0.0000 -10814.6677 1504.5352 0.0000 0.0000 1762.4723 -7524.7563 298.9774 -9287.2287 -7528.3159 296.3450 405.9157 510.3588 30465.8896 116.4211 186.3535
ENERGY: 900000 1.6876 10.1053 9.1176 0.0000 -10788.3069 1489.8809 0.0000 0.0000 1786.9314 -7490.5841 303.1265 -9277.5155 -7517.3441 297.2520 348.8907 381.6899 30498.4531 178.3174 240.1909
ENERGY: 1200000 3.2725 11.6707 8.4960 0.0000 -10778.0446 1582.4538 0.0000 0.0000 1779.2713 -7392.8802 301.8271 -9172.1516 -7504.2587 297.3454 1528.5180 1575.7102 30207.5875 171.8882 228.2291
ENERGY: 1500000 0.9249 11.5004 7.1089 0.0000 -10668.3177 1413.2965 0.0000 0.0000 1755.2495 -7480.2375 297.7521 -9235.4871 -7505.7889 297.8449 -451.7056 -321.6288 30611.4335 171.2375 230.1725
TCL: Running FEP window  18: Lambda1 0.1499999999999997 Lambda2 0.09999999999999969 [dLambda -0.05 ]
TCL: Setting parameter firsttimestep to 0
TCL: Setting parameter alchLambda to 0.1499999999999997
Info: NONBONDED TABLE R-SQUARED SPACING: 0.0625
Info: NONBONDED TABLE SIZE: 705 POINTS
TCL: Setting parameter alchLambda2 to 0.09999999999999969
Info: NONBONDED TABLE R-SQUARED SPACING: 0.0625
Info: NONBONDED TABLE SIZE: 705 POINTS
TCL: Running for 1500000 steps
ETITLE: TS BOND ANGLE DIHED IMPRP ELECT VDW BOUNDARY MISC KINETIC TOTAL TEMP POTENTIAL TOTALAVG TEMPAVG PRESSURE GPRESSURE VOLUME PRESSAVG GPRESSAVG
ENERGY: 0 0.9249 11.5004 7.1089 0.0000 -10668.3173 1413.1547 0.0000 0.0000 1754.3750 -7481.2534 297.6038 -9235.6284 -7481.2534 297.6038 -414.5370 -325.1473 30611.4335 -414.5370 -325.1473
ENERGY: 300000 2.2521 15.3984 7.3952 0.0000 -10682.5049 1391.2849 0.0000 0.0000 1761.5313 -7504.6428 298.8178 -9266.1742 -7535.5659 296.0034 -600.5116 -511.3855 30290.6791 -443.9501 -370.4625
ENERGY: 600000 0.5627 10.4442 8.7593 0.0000 -10683.1703 1390.3410 0.0000 0.0000 1715.1130 -7557.9501 290.9436 -9273.0631 -7532.2906 296.0086 -522.5385 -419.5044 30627.2032 -423.1872 -353.0396
ENERGY: 900000 1.3741 9.7864 8.4671 0.0000 -10730.9504 1451.9376 0.0000 0.0000 1754.3741 -7505.0111 297.6036 -9259.3851 -7525.5116 296.1506 80.0791 185.4811 30190.4195 -237.5859 -169.0085
ENERGY: 1200000 1.0923 8.7632 9.4124 0.0000 -10622.1287 1405.6834 0.0000 0.0000 1782.4596 -7414.7179 302.3679 -9197.1775 -7516.7947 296.1365 -159.7956 -117.9020 30534.4024 -236.3555 -170.8443
ENERGY: 1500000 1.4780 12.0717 10.6761 0.0000 -10666.4177 1425.5736 0.0000 0.0000 1730.7338 -7485.8845 293.5934 -9216.6183 -7523.0904 295.7444 -101.5421 -70.8325 30314.5493 -178.9013 -122.5357
TCL: Running FEP window  19: Lambda1 0.09999999999999969 Lambda2 0.049999999999999684 [dLambda -0.05 ]
TCL: Setting parameter firsttimestep to 0
TCL: Setting parameter alchLambda to 0.09999999999999969
Info: NONBONDED TABLE R-SQUARED SPACING: 0.0625
Info: NONBONDED TABLE SIZE: 705 POINTS
TCL: Setting parameter alchLambda2 to 0.049999999999999684
Info: NONBONDED TABLE R-SQUARED SPACING: 0.0625
Info: NONBONDED TABLE SIZE: 705 POINTS
TCL: Running for 1500000 steps
ETITLE: TS BOND ANGLE DIHED IMPRP ELECT VDW BOUNDARY MISC KINETIC TOTAL TEMP POTENTIAL TOTALAVG TEMPAVG PRESSURE GPRESSURE VOLUME PRESSAVG GPRESSAVG
ENERGY: 0 1.4780 12.0717 10.6761 0.0000 -10666.4181 1425.6749 0.0000 0.0000 1729.8628 -7486.6545 293.4457 -9216.5174 -7486.6545 293.4457 -149.7849 -72.4431 30314.5493 -149.7849 -72.4431
ENERGY: 300000 1.8273 12.9767 7.6081 0.0000 -10752.9244 1404.2845 0.0000 0.0000 1744.8966 -7581.3312 295.9959 -9326.2278 -7500.7444 299.6041 -529.2733 -474.1434 30067.3766 -168.1438 -99.0147
ENERGY: 600000 0.6988 8.9593 10.1662 0.0000 -10815.8413 1438.2166 0.0000 0.0000 1693.4347 -7664.3656 287.2662 -9357.8004 -7509.7751 298.9738 -386.1915 -337.6855 30506.9773 -249.4946 -180.7167
ENERGY: 900000 1.4060 10.6154 11.0222 0.0000 -10834.3674 1469.6283 0.0000 0.0000 1735.1625 -7606.5330 294.3447 -9341.6955 -7502.3167 299.7143 65.2247 150.4931 29933.6856 -122.1580 -63.1692
ENERGY: 1200000 0.3229 9.1908 8.7127 0.0000 -10797.7616 1435.2928 0.0000 0.0000 1740.6125 -7603.6299 295.2692 -9344.2424 -7515.0656 299.1345 -163.8864 -126.6229 30104.1968 -226.7161 -169.9179
ENERGY: 1500000 1.3418 6.6195 9.3044 0.0000 -10729.2793 1471.9413 0.0000 0.0000 1811.9249 -7428.1474 307.3663 -9240.0722 -7507.6344 299.7618 241.5747 210.5235 30747.7468 -228.7133 -179.7185
TCL: Running FEP window  20: Lambda1 0.049999999999999684 Lambda2 0.0    [dLambda -0.049999999999999684]
TCL: Setting parameter firsttimestep to 0
TCL: Setting parameter alchLambda to 0.049999999999999684
Info: NONBONDED TABLE R-SQUARED SPACING: 0.0625
Info: NONBONDED TABLE SIZE: 705 POINTS
TCL: Setting parameter alchLambda2 to 0.0
Info: NONBONDED TABLE R-SQUARED SPACING: 0.0625
Info: NONBONDED TABLE SIZE: 705 POINTS
TCL: Running for 1500000 steps
ETITLE: TS BOND ANGLE DIHED IMPRP ELECT VDW BOUNDARY MISC KINETIC TOTAL TEMP POTENTIAL TOTALAVG TEMPAVG PRESSURE GPRESSURE VOLUME PRESSAVG GPRESSAVG
ENERGY: 0 1.3418 6.6195 9.3044 0.0000 -10729.2797 1472.0840 0.0000 0.0000 1811.0703 -7428.8596 307.2213 -9239.9300 -7428.8596 307.2213 137.9912 209.7022 30747.7468 137.9912 209.7022
ENERGY: 300000 1.5518 11.2295 7.7615 0.0000 -10882.7675 1517.2657 0.0000 0.0000 1870.4289 -7474.5300 317.2906 -9344.9589 -7492.6335 302.5149 724.0933 775.4173 29921.2770 165.0696 233.9688
ENERGY: 600000 2.8447 11.5448 8.2589 0.0000 -10599.4705 1368.7537 0.0000 0.0000 1793.9260 -7414.1423 304.3130 -9208.0683 -7482.2769 301.0458 -649.0359 -575.8960 30709.9212 -171.3409 -92.4638
ENERGY: 900000 2.4903 11.4898 7.4951 0.0000 -10665.8234 1379.1864 0.0000 0.0000 1822.0680 -7443.0937 309.0869 -9265.1618 -7498.0899 300.9943 -520.8527 -426.7516 30169.4014 -35.8474 31.1262
ENERGY: 1200000 2.2295 12.8512 12.9285 0.0000 -10702.9818 1407.6252 0.0000 0.0000 1798.0126 -7469.3348 305.0063 -9267.3474 -7494.5832 301.4038 -657.8694 -644.7679 31027.9418 -128.0428 -61.1996
ENERGY: 1500000 0.7693 12.6975 9.3952 0.0000 -10584.1099 1411.9206 0.0000 0.0000 1804.9251 -7344.4022 306.1789 -9149.3273 -7478.2841 302.5115 -24.4459 100.4185 30551.0011 -77.4653 -12.2319
TCL: Exiting due to exit command.
