Info: SIMULATION PARAMETERS:
Info: TIMESTEP               2
Info: NUMBER OF STEPS        0
Info: STEPS PER CYCLE        10
Info: PERIODIC CELL BASIS 1  31.824 0 0
Info: PERIODIC CELL BASIS 2  0 31.6242 0
Info: PERIODIC CELL BASIS 3  0 0 30.6528
Info: PERIODIC CELL CENTER   0 0 0
Info: WRAPPING WATERS AROUND PERIODIC BOUNDARIES ON OUTPUT.
Info: WRAPPING ALL CLUSTERS AROUND PERIODIC BOUNDARIES ON OUTPUT.
Info: FIRST LDB TIMESTEP     50
Info: LAST LDB TIMESTEP     -1
Info: HOM BACKGROUND SCALING 1
Info: PME BACKGROUND SCALING 1
Info: MIN ATOMS PER PATCH    40
Info: EMPTY PATCH LOAD       40 ATOMS
Info: VELOCITY FILE          mobley_1659169_equil.vel
Info: CENTER OF MASS MOVING INITIALLY? NO
Info: DIELECTRIC             1
Info: EXCLUDE                SCALED ONE-FOUR
Info: 1-4 ELECTROSTATICS SCALED BY 0.833333
Info: MODIFIED 1-4 VDW PARAMETERS WILL BE USED
Info: DCD FILENAME           mobley_1659169_prod.dcd
Info: DCD FREQUENCY          100000
Info: DCD FIRST STEP         100000
Info: DCD FILE WILL CONTAIN UNIT CELL DATA
Info: XST FILENAME           mobley_1659169_prod.xst
Info: XST FREQUENCY          100000
Info: NO VELOCITY DCD OUTPUT
Info: NO FORCE DCD OUTPUT
Info: OUTPUT FILENAME        mobley_1659169_prod
Info: BINARY OUTPUT FILES WILL BE USED
Info: RESTART FILENAME       mobley_1659169_prod.restart
Info: RESTART FREQUENCY      100000
Info: BINARY RESTART FILES WILL BE USED
Info: CUTOFF                 9
Info: PAIRLIST DISTANCE      11
Info: PAIRLIST SHRINK RATE   0.01
Info: PAIRLIST GROW RATE     0.01
Info: PAIRLIST TRIGGER       0.3
Info: PAIRLISTS PER CYCLE    2
Info: PAIRLISTS ENABLED
Info: MARGIN                 2
Info: HYDROGEN GROUP CUTOFF  2.5
Info: PATCH DIMENSION        15.5
Info: ENERGY OUTPUT STEPS    100000
Info: ENERGY EVALUATION STEPS    100000
Info: OUTPUT ENERGY PRECISION 4
Info: CROSSTERM ENERGY INCLUDED IN DIHEDRAL
Info: TIMING OUTPUT STEPS    1000000
Info: PRESSURE OUTPUT STEPS  100000
Info: ALCHEMICAL FEP ON
Info: FEP CURRENT LAMBDA VALUE     0
Info: FEP COMPARISON LAMBDA VALUE  0.05
Info: FEP INTRA-ALCHEMICAL NON-BONDED INTERACTIONS WILL BE RETAINED
Info: FEP INTRA-ALCHEMICAL BONDED INTERACTIONS WILL BE RETAINED
Info: FEP VDW SHIFTING COEFFICIENT 5
Info: FEP ELEC. ACTIVE FOR ANNIHILATED PARTICLES BETWEEN LAMBDA = 0 AND LAMBDA = 0.5
Info: FEP ELEC. ACTIVE FOR EXNIHILATED PARTICLES BETWEEN LAMBDA = 0.5 AND LAMBDA = 1
Info: FEP VDW ACTIVE FOR ANNIHILATED PARTICLES BETWEEN LAMBDA = 0 AND LAMBDA = 1
Info: FEP VDW ACTIVE FOR EXNIHILATED PARTICLES BETWEEN LAMBDA = 0 AND LAMBDA = 1
Info: FEP BOND ACTIVE FOR ANNIHILATED PARTICLES BETWEEN LAMBDA = 1 AND LAMBDA = 1
Info: FEP BOND ACTIVE FOR EXNIHILATED PARTICLES BETWEEN LAMBDA = 0 AND LAMBDA = 0
Info: LANGEVIN DYNAMICS ACTIVE
Info: LANGEVIN TEMPERATURE   300
Info: LANGEVIN USING BBK INTEGRATOR
Info: LANGEVIN DAMPING COEFFICIENT IS 1 INVERSE PS
Info: LANGEVIN DYNAMICS APPLIED TO HYDROGENS
Info: LANGEVIN PISTON PRESSURE CONTROL ACTIVE
Info:        TARGET PRESSURE IS 1.01325 BAR
Info:     OSCILLATION PERIOD IS 50 FS
Info:             DECAY TIME IS 25 FS
Info:     PISTON TEMPERATURE IS 300 K
Info:       PRESSURE CONTROL IS GROUP-BASED
Info:    INITIAL STRAIN RATE IS -0.000446936 -0.000446936 -0.000446936
Info:       CELL FLUCTUATION IS ISOTROPIC
Info: PARTICLE MESH EWALD (PME) ACTIVE
Info: PME TOLERANCE               1e-06
Info: PME EWALD COEFFICIENT       0.348832
Info: PME INTERPOLATION ORDER     4
Info: PME GRID DIMENSIONS         32 32 32
Info: PME MAXIMUM GRID SPACING    1
Info: PME CALCULATION WILL BE PERFORMED ON GPU
Info: FULL ELECTROSTATIC EVALUATION FREQUENCY      2
Info: USING VERLET I (r-RESPA) MTS SCHEME.
Info: C1 SPLITTING OF LONG RANGE ELECTROSTATICS
Info: PLACING ATOMS IN PATCHES BY HYDROGEN GROUPS
Info: RIGID BONDS TO HYDROGEN : ALL
Info:         ERROR TOLERANCE : 1e-08
Info:          MAX ITERATIONS : 100
Info: RIGID WATER USING SETTLE ALGORITHM
Info: RANDOM NUMBER SEED     1743571119
Info: USE HYDROGEN BONDS?    NO
Info: Using AMBER format force field!
Info: AMBER PARM FILE        mobley_1659169.prmtop
Info: COORDINATE PDB         mobley_1659169.pdb
Info: Exclusions will be read from PARM file!
Info: SCNB (VDW SCALING)     2
Info: USING ARITHMETIC MEAN TO COMBINE L-J SIGMA PARAMETERS
Info: BINARY COORDINATES     mobley_1659169_equil.coor
Info: SUMMARY OF PARAMETERS:
Info: 7 BONDS
Info: 9 ANGLES
Info:   9 HARMONIC
Info:   0 COSINE-BASED
Info: 8 DIHEDRAL
Info: 0 IMPROPER
Info: 0 CROSSTERM
Info: 0 VDW
Info: 28 VDW_PAIRS
Info: 0 NBTHOLE_PAIRS
Info: To read alchdata from file: mobley_1659169.pdb
Info: To read alchflag data from column: 5
Info: STRUCTURE SUMMARY:
Info: 2955 ATOMS
Info: 2955 BONDS
Info: 28 ANGLES
Info: 44 DIHEDRALS
Info: 0 IMPROPERS
Info: 0 CROSSTERMS
Info: 3016 EXCLUSIONS
Info: 2949 RIGID BONDS
Info: ALCH: 0 ATOMS TO DISAPPEAR IN FINAL STATE
Info: ALCH: 15 ATOMS TO APPEAR IN FINAL STATE
Info: 5916 DEGREES OF FREEDOM
Info: 986 HYDROGEN GROUPS
Info: 3 ATOMS IN LARGEST HYDROGEN GROUP
Info: 986 MIGRATION GROUPS
Info: 3 ATOMS IN LARGEST MIGRATION GROUP
Info: TOTAL MASS = 17742.8 amu
Info: TOTAL CHARGE = -0.000199959 e
Info: MASS DENSITY = 0.955073 g/cm^3
Info: ATOM DENSITY = 0.0957883 atoms/A^3
Info: ADDED 0 IMPLICIT EXCLUSIONS
Info: NONBONDED TABLE R-SQUARED SPACING: 0.0625
Info: NONBONDED TABLE SIZE: 705 POINTS
Info: REDUCING NUMBER OF PATCHES TO IMPROVE LOAD BALANCE
Info: REMOVING COM VELOCITY -0.10631 -0.0740653 -0.139526
Info: Use 3D box decompostion in PME FFT.
Info: Updated CUDA force table with 4096 elements.
Info: Updated CUDA LJ table with 7 x 7 elements.
Info: Found 16 unique exclusion lists needing 36 bytes
TCL: Running for 1500000 steps
ETITLE: TS BOND ANGLE DIHED IMPRP ELECT VDW BOUNDARY MISC KINETIC TOTAL TEMP POTENTIAL TOTALAVG TEMPAVG PRESSURE GPRESSURE VOLUME PRESSAVG GPRESSAVG
ENERGY: 0 2.3333 7.3458 2.8796 0.0000 -10585.8740 1408.2879 0.0000 0.0000 1798.1400 -7366.8874 305.9044 -9165.0273 -7366.8874 305.9044 -348.3275 -272.2829 30849.2740 -348.3275 -272.2829
ENERGY: 300000 1.1527 7.0960 2.7634 0.0000 -10739.5241 1538.4858 0.0000 0.0000 1792.0207 -7398.0054 304.8634 -9190.0261 -7412.2413 304.8424 910.3667 902.6131 30308.6085 159.3511 200.2103
ENERGY: 600000 2.2112 7.1677 2.8852 0.0000 -10714.2464 1444.3121 0.0000 0.0000 1788.6023 -7469.0679 304.2818 -9257.6702 -7439.8555 302.2858 -3.4173 20.3474 30114.7864 17.9866 58.6779
ENERGY: 900000 1.3488 4.1037 2.5554 0.0000 -10544.3827 1388.2870 0.0000 0.0000 1803.4957 -7344.5922 306.8155 -9148.0879 -7441.2771 301.7647 -65.9967 -47.3750 29987.4251 121.7012 164.9518
ENERGY: 1200000 1.5017 4.0019 3.0471 0.0000 -10611.1600 1413.9416 0.0000 0.0000 1767.8738 -7420.7940 300.7554 -9188.6678 -7447.1676 301.0724 -97.8589 -45.5466 30333.3935 53.0368 97.3736
ENERGY: 1500000 5.4853 6.9385 2.8321 0.0000 -10640.4287 1466.0810 0.0000 0.0000 1796.6742 -7362.4176 305.6550 -9159.0918 -7446.7660 300.8466 584.8502 612.8831 29890.3417 -8.9036 30.3435
TCL: Running FEP window   2: Lambda1 0.05   Lambda2 0.1    [dLambda 0.05  ]
TCL: Setting parameter firsttimestep to 0
TCL: Setting parameter alchLambda to 0.05
Info: NONBONDED TABLE R-SQUARED SPACING: 0.0625
Info: NONBONDED TABLE SIZE: 705 POINTS
TCL: Setting parameter alchLambda2 to 0.1
Info: NONBONDED TABLE R-SQUARED SPACING: 0.0625
Info: NONBONDED TABLE SIZE: 705 POINTS
TCL: Running for 1500000 steps
ETITLE: TS BOND ANGLE DIHED IMPRP ELECT VDW BOUNDARY MISC KINETIC TOTAL TEMP POTENTIAL TOTALAVG TEMPAVG PRESSURE GPRESSURE VOLUME PRESSAVG GPRESSAVG
ENERGY: 0 5.4853 6.9385 2.8321 0.0000 -10640.4291 1467.6542 0.0000 0.0000 1795.7856 -7361.7334 305.5039 -9157.5190 -7361.7334 305.5039 535.0637 618.3301 29890.3417 535.0637 618.3301
ENERGY: 300000 1.9619 6.8247 3.2931 0.0000 -10730.3189 1481.1156 0.0000 0.0000 1780.4018 -7456.7219 302.8867 -9237.1237 -7395.8053 303.6280 463.6773 515.0452 29696.5141 681.3389 722.8047
ENERGY: 600000 0.8113 5.3358 3.0438 0.0000 -10640.4706 1512.3559 0.0000 0.0000 1775.3373 -7343.5864 302.0251 -9118.9237 -7399.8755 302.8509 867.6134 919.8266 30307.8534 626.1139 670.4328
ENERGY: 900000 3.5356 5.4843 3.0542 0.0000 -10869.4386 1599.0095 0.0000 0.0000 1779.0949 -7479.2602 302.6644 -9258.3551 -7420.9928 302.0530 1168.7577 1227.0024 30189.9932 611.9575 663.7482
ENERGY: 1200000 3.7977 6.6381 2.7634 0.0000 -10644.7933 1444.3344 0.0000 0.0000 1819.5375 -7367.7221 309.5446 -9187.2597 -7419.6371 303.5504 45.6769 55.7632 30061.7074 409.9120 457.2581
ENERGY: 1500000 2.4314 6.2559 3.0882 0.0000 -10543.9112 1365.4620 0.0000 0.0000 1775.7425 -7390.9313 302.0941 -9166.6737 -7419.8735 302.6609 -467.3220 -438.1118 30512.3653 293.8545 342.0964
TCL: Running FEP window   3: Lambda1 0.1    Lambda2 0.15000000000000002 [dLambda 0.05000000000000002]
TCL: Setting parameter firsttimestep to 0
TCL: Setting parameter alchLambda to 0.1
Info: NONBONDED TABLE R-SQUARED SPACING: 0.0625
Info: NONBONDED TABLE SIZE: 705 POINTS
TCL: Setting parameter alchLambda2 to 0.15000000000000002
Info: NONBONDED TABLE R-SQUARED SPACING: 0.0625
Info: NONBONDED TABLE SIZE: 705 POINTS
TCL: Running for 1500000 steps
ETITLE: TS BOND ANGLE DIHED IMPRP ELECT VDW BOUNDARY MISC KINETIC TOTAL TEMP POTENTIAL TOTALAVG TEMPAVG PRESSURE GPRESSURE VOLUME PRESSAVG GPRESSAVG
ENERGY: 0 2.4314 6.2559 3.0882 0.0000 -10543.9108 1366.2993 0.0000 0.0000 1774.9033 -7390.9327 301.9513 -9165.8360 -7390.9327 301.9513 -515.1357 -433.0663 30512.3653 -515.1357 -433.0663
ENERGY: 300000 2.6755 6.5928 2.8166 0.0000 -10751.2636 1473.7835 0.0000 0.0000 1778.5401 -7486.8550 302.5700 -9265.3952 -7465.9121 299.2956 176.4888 262.4070 30062.1421 123.6710 154.6552
ENERGY: 600000 5.9966 6.4571 3.4096 0.0000 -10640.2988 1429.6238 0.0000 0.0000 1718.2766 -7476.5351 292.3178 -9194.8117 -7456.0566 298.6799 -271.4206 -198.6730 30312.9756 -19.4295 21.4136
ENERGY: 900000 1.8497 5.0149 2.5512 0.0000 -10767.5996 1483.6921 0.0000 0.0000 1788.9644 -7485.5272 304.3434 -9274.4916 -7448.4685 301.2424 176.9063 279.5385 30096.7418 75.5130 119.1214
ENERGY: 1200000 2.6683 3.3321 2.8544 0.0000 -10621.1901 1419.9117 0.0000 0.0000 1761.8973 -7430.5263 299.7387 -9192.4236 -7442.1056 300.6157 -88.7450 73.6003 30263.3583 67.3097 112.8023
ENERGY: 1500000 4.0609 8.2554 3.9653 0.0000 -10621.3368 1302.3101 0.0000 0.0000 1766.4975 -7536.2476 300.5213 -9302.7451 -7441.9984 300.5775 -1473.8056 -1412.7925 30446.6926 -49.8499 -7.8473
TCL: Running FEP window   4: Lambda1 0.15000000000000002 Lambda2 0.2    [dLambda 0.04999999999999999]
TCL: Setting parameter firsttimestep to 0
TCL: Setting parameter alchLambda to 0.15000000000000002
Info: NONBONDED TABLE R-SQUARED SPACING: 0.0625
Info: NONBONDED TABLE SIZE: 705 POINTS
TCL: Setting parameter alchLambda2 to 0.2
Info: NONBONDED TABLE R-SQUARED SPACING: 0.0625
Info: NONBONDED TABLE SIZE: 705 POINTS
TCL: Running for 1500000 steps
ETITLE: TS BOND ANGLE DIHED IMPRP ELECT VDW BOUNDARY MISC KINETIC TOTAL TEMP POTENTIAL TOTALAVG TEMPAVG PRESSURE GPRESSURE VOLUME PRESSAVG GPRESSAVG
ENERGY: 0 4.0609 8.2554 3.9653 0.0000 -10621.3366 1303.4493 0.0000 0.0000 1765.5522 -7536.0534 300.3605 -9301.6057 -7536.0534 300.3605 -1489.0426 -1408.6495 30446.6926 -1489.0426 -1408.6495
ENERGY: 300000 2.8229 4.9959 2.8223 0.0000 -10654.0324 1407.4495 0.0000 0.0000 1750.4439 -7485.4980 297.7902 -9235.9419 -7463.6347 300.6778 -175.3754 -151.2128 30024.1984 -255.5310 -201.3302
ENERGY: 600000 1.4557 7.7514 3.5385 0.0000 -10714.3248 1505.1702 0.0000 0.0000 1761.9481 -7434.4609 299.7473 -9196.4090 -7441.4967 301.1471 607.4800 669.8392 30094.1456 97.3396 162.2108
ENERGY: 900000 5.0303 3.3969 2.9096 0.0000 -10665.6007 1449.3347 0.0000 0.0000 1803.1916 -7401.7375 306.7638 -9204.9291 -7443.0335 301.5361 23.0763 152.9503 30122.7583 12.9689 77.0118
ENERGY: 1200000 3.0161 12.1182 2.9121 0.0000 -10652.8685 1401.9951 0.0000 0.0000 1824.3686 -7408.4583 310.3665 -9232.8270 -7437.6375 302.3315 -44.3193 38.9126 29859.2221 4.2324 73.9338
ENERGY: 1500000 2.5578 7.4416 4.3852 0.0000 -10572.2675 1386.3265 0.0000 0.0000 1768.4545 -7403.1018 300.8542 -9171.5563 -7445.5566 301.4660 -561.1163 -551.2235 30554.2151 -111.0659 -42.7466
TCL: Running FEP window   5: Lambda1 0.2    Lambda2 0.25   [dLambda 0.04999999999999999]
TCL: Setting parameter firsttimestep to 0
TCL: Setting parameter alchLambda to 0.2
Info: NONBONDED TABLE R-SQUARED SPACING: 0.0625
Info: NONBONDED TABLE SIZE: 705 POINTS
TCL: Setting parameter alchLambda2 to 0.25
Info: NONBONDED TABLE R-SQUARED SPACING: 0.0625
Info: NONBONDED TABLE SIZE: 705 POINTS
TCL: Running for 1500000 steps
ETITLE: TS BOND ANGLE DIHED IMPRP ELECT VDW BOUNDARY MISC KINETIC TOTAL TEMP POTENTIAL TOTALAVG TEMPAVG PRESSURE GPRESSURE VOLUME PRESSAVG GPRESSAVG
ENERGY: 0 2.5578 7.4416 4.3852 0.0000 -10572.2681 1387.0908 0.0000 0.0000 1767.5625 -7403.2302 300.7025 -9170.7927 -7403.2302 300.7025 -628.3955 -543.6749 30554.2151 -628.3955 -543.6749
ENERGY: 300000 0.8970 7.5134 2.5427 0.0000 -10753.1053 1504.8142 0.0000 0.0000 1719.1074 -7518.2304 292.4592 -9237.3379 -7473.0783 295.7690 309.1807 374.5925 30346.8821 14.7695 91.6940
ENERGY: 600000 3.1950 6.3463 4.0071 0.0000 -10571.2589 1392.3872 0.0000 0.0000 1748.2868 -7417.0365 297.4232 -9165.3234 -7463.5851 298.1666 -267.4608 -217.9791 30198.9537 -127.5902 -65.5316
ENERGY: 900000 2.8899 8.1568 2.7771 0.0000 -10815.7047 1552.1255 0.0000 0.0000 1776.3503 -7473.4051 302.1975 -9249.7553 -7465.0650 298.4413 890.5033 925.1300 29728.6526 110.0112 173.1317
ENERGY: 1200000 1.8038 7.7136 3.1700 0.0000 -10812.0976 1532.7794 0.0000 0.0000 1776.9757 -7489.6550 302.3039 -9266.6307 -7464.7746 299.5508 509.2724 588.3064 30323.0241 60.5335 115.0713
ENERGY: 1500000 0.3715 7.9441 3.0632 0.0000 -10647.9815 1450.8243 0.0000 0.0000 1771.8151 -7413.9632 301.4259 -9185.7783 -7449.2321 300.6274 181.7169 216.1258 30247.6921 93.6587 148.6885
TCL: Running FEP window   6: Lambda1 0.25   Lambda2 0.3    [dLambda 0.04999999999999999]
TCL: Setting parameter firsttimestep to 0
TCL: Setting parameter alchLambda to 0.25
Info: NONBONDED TABLE R-SQUARED SPACING: 0.0625
Info: NONBONDED TABLE SIZE: 705 POINTS
TCL: Setting parameter alchLambda2 to 0.3
Info: NONBONDED TABLE R-SQUARED SPACING: 0.0625
Info: NONBONDED TABLE SIZE: 705 POINTS
TCL: Running for 1500000 steps
ETITLE: TS BOND ANGLE DIHED IMPRP ELECT VDW BOUNDARY MISC KINETIC TOTAL TEMP POTENTIAL TOTALAVG TEMPAVG PRESSURE GPRESSURE VOLUME PRESSAVG GPRESSAVG
ENERGY: 0 0.3715 7.9442 3.0632 0.0000 -10647.9818 1452.9962 0.0000 0.0000 1770.9653 -7412.6414 301.2814 -9183.6067 -7412.6414 301.2814 158.4933 230.7864 30247.6921 158.4933 230.7864
ENERGY: 300000 2.1645 7.1924 4.1911 0.0000 -10634.3830 1448.6781 0.0000 0.0000 1750.7103 -7421.4466 297.8355 -9172.1569 -7469.3814 300.5823 -12.6978 78.4111 30735.2136 -40.2250 23.0442
ENERGY: 600000 1.8168 7.8661 3.2087 0.0000 -10625.3472 1435.3937 0.0000 0.0000 1787.3650 -7389.6969 304.0713 -9177.0619 -7447.4543 302.2239 -77.6966 -38.2637 30604.1503 16.3147 61.5655
ENERGY: 900000 0.9318 8.9721 2.6410 0.0000 -10574.5877 1410.6736 0.0000 0.0000 1774.9021 -7376.4670 301.9511 -9151.3691 -7431.3222 302.2300 -136.1696 -107.5179 30663.3803 -71.9042 -27.9273
ENERGY: 1200000 1.7509 5.7427 2.6405 0.0000 -10657.6051 1466.1904 0.0000 0.0000 1770.5678 -7410.7128 301.2137 -9181.2806 -7424.8127 301.7705 363.7843 471.6602 30195.6027 -5.8851 41.7912
ENERGY: 1500000 2.4675 6.3574 3.0038 0.0000 -10514.3237 1333.8364 0.0000 0.0000 1705.0576 -7463.6010 290.0690 -9168.6586 -7420.0141 301.6381 -1215.9930 -1145.4734 31097.7492 -132.0582 -77.3321
TCL: Running FEP window   7: Lambda1 0.3    Lambda2 0.35   [dLambda 0.04999999999999999]
TCL: Setting parameter firsttimestep to 0
TCL: Setting parameter alchLambda to 0.3
Info: NONBONDED TABLE R-SQUARED SPACING: 0.0625
Info: NONBONDED TABLE SIZE: 705 POINTS
TCL: Setting parameter alchLambda2 to 0.35
Info: NONBONDED TABLE R-SQUARED SPACING: 0.0625
Info: NONBONDED TABLE SIZE: 705 POINTS
TCL: Running for 1500000 steps
ETITLE: TS BOND ANGLE DIHED IMPRP ELECT VDW BOUNDARY MISC KINETIC TOTAL TEMP POTENTIAL TOTALAVG TEMPAVG PRESSURE GPRESSURE VOLUME PRESSAVG GPRESSAVG
ENERGY: 0 2.4675 6.3574 3.0038 0.0000 -10514.3250 1334.3073 0.0000 0.0000 1704.2245 -7463.9645 289.9272 -9168.1890 -7463.9645 289.9272 -1217.7615 -1136.4161 31097.7492 -1217.7615 -1136.4161
ENERGY: 300000 1.4120 8.7478 3.5556 0.0000 -10711.5018 1444.9094 0.0000 0.0000 1728.8857 -7523.9913 294.1227 -9252.8771 -7442.4845 295.3746 -89.6558 -26.0215 30378.9844 -300.8367 -236.5640
ENERGY: 600000 3.6897 4.0169 2.7931 0.0000 -10631.4969 1434.0638 0.0000 0.0000 1757.0449 -7429.8885 298.9132 -9186.9334 -7435.4044 298.7240 -344.0231 -160.7833 30718.7843 -216.7627 -128.3351
ENERGY: 900000 1.3462 10.8133 2.8487 0.0000 -10698.1385 1414.2485 0.0000 0.0000 1758.1226 -7510.7593 299.0965 -9268.8819 -7443.9918 298.8517 -406.3126 -320.8816 30202.9551 -348.0179 -263.6895
ENERGY: 1200000 1.1362 5.5734 2.6541 0.0000 -10764.3640 1491.8461 0.0000 0.0000 1770.2294 -7492.9248 301.1562 -9263.1542 -7441.5674 299.0005 462.1753 547.9941 29973.3194 -231.6009 -142.5145
ENERGY: 1500000 1.8577 7.2893 2.9857 0.0000 -10578.2610 1400.7760 0.0000 0.0000 1757.0051 -7408.3473 298.9064 -9165.3523 -7437.2291 299.6439 -139.0482 -82.7072 30207.0850 -250.1467 -161.7928
TCL: Running FEP window   8: Lambda1 0.35   Lambda2 0.39999999999999997 [dLambda 0.04999999999999999]
TCL: Setting parameter firsttimestep to 0
TCL: Setting parameter alchLambda to 0.35
Info: NONBONDED TABLE R-SQUARED SPACING: 0.0625
Info: NONBONDED TABLE SIZE: 705 POINTS
TCL: Setting parameter alchLambda2 to 0.39999999999999997
Info: NONBONDED TABLE R-SQUARED SPACING: 0.0625
Info: NONBONDED TABLE SIZE: 705 POINTS
TCL: Running for 1500000 steps
ETITLE: TS BOND ANGLE DIHED IMPRP ELECT VDW BOUNDARY MISC KINETIC TOTAL TEMP POTENTIAL TOTALAVG TEMPAVG PRESSURE GPRESSURE VOLUME PRESSAVG GPRESSAVG
ENERGY: 0 1.8577 7.2893 2.9857 0.0000 -10578.2589 1400.4371 0.0000 0.0000 1756.1238 -7409.5653 298.7565 -9165.6891 -7409.5653 298.7565 -158.2199 -81.1559 30207.0850 -158.2199 -81.1559
ENERGY: 300000 3.5962 5.9342 3.1925 0.0000 -10723.6886 1505.0451 0.0000 0.0000 1780.5188 -7425.4019 302.9066 -9205.9206 -7428.4702 299.4041 408.5576 505.2501 30321.9613 -285.7754 -212.6912
ENERGY: 600000 2.2924 9.5349 3.1762 0.0000 -10735.5788 1461.8652 0.0000 0.0000 1796.6635 -7462.0466 305.6532 -9258.7101 -7424.3526 302.3960 65.7377 142.8397 30310.0798 3.5026 67.2437
ENERGY: 900000 1.2297 12.9323 3.3233 0.0000 -10521.3034 1353.8028 0.0000 0.0000 1739.2371 -7410.7783 295.8837 -9150.0154 -7420.9359 301.7216 -970.9205 -885.9428 31254.2450 -3.2542 53.1424
ENERGY: 1200000 1.9061 6.6422 2.6235 0.0000 -10591.9374 1441.7001 0.0000 0.0000 1781.1874 -7357.8780 303.0204 -9139.0655 -7416.0079 301.8058 39.4440 116.0821 30671.7981 46.9360 105.6888
ENERGY: 1500000 2.8165 5.0756 3.1165 0.0000 -10581.0715 1453.4314 0.0000 0.0000 1753.6247 -7363.0067 298.3313 -9116.6314 -7421.3500 300.9704 441.5845 507.4191 29971.5957 105.8827 162.9298
TCL: Running FEP window   9: Lambda1 0.39999999999999997 Lambda2 0.44999999999999996 [dLambda 0.04999999999999999]
TCL: Setting parameter firsttimestep to 0
TCL: Setting parameter alchLambda to 0.39999999999999997
Info: NONBONDED TABLE R-SQUARED SPACING: 0.0625
Info: NONBONDED TABLE SIZE: 705 POINTS
TCL: Setting parameter alchLambda2 to 0.44999999999999996
Info: NONBONDED TABLE R-SQUARED SPACING: 0.0625
Info: NONBONDED TABLE SIZE: 705 POINTS
TCL: Running for 1500000 steps
ETITLE: TS BOND ANGLE DIHED IMPRP ELECT VDW BOUNDARY MISC KINETIC TOTAL TEMP POTENTIAL TOTALAVG TEMPAVG PRESSURE GPRESSURE VOLUME PRESSAVG GPRESSAVG
ENERGY: 0 2.8165 5.0756 3.1165 0.0000 -10581.0717 1453.6569 0.0000 0.0000 1752.7625 -7363.6435 298.1847 -9116.4061 -7363.6435 298.1847 432.2882 511.1876 29971.5957 432.2882 511.1876
ENERGY: 300000 2.1340 5.4487 3.3516 0.0000 -10653.5592 1439.2332 0.0000 0.0000 1690.8720 -7512.5197 287.6557 -9203.3917 -7411.0423 299.6413 17.0973 47.6292 30179.4496 122.3159 194.4482
ENERGY: 600000 2.0185 6.5284 2.9223 0.0000 -10751.2833 1469.1098 0.0000 0.0000 1747.5139 -7523.1905 297.2918 -9270.7044 -7451.3230 299.8470 277.8338 359.4473 30045.0839 242.9007 306.9670
ENERGY: 900000 2.0217 7.5877 2.9396 0.0000 -10646.5297 1440.5812 0.0000 0.0000 1739.3701 -7454.0294 295.9063 -9193.3995 -7451.8700 298.4822 -17.0270 81.2936 30425.9552 78.0232 147.3208
ENERGY: 1200000 1.4591 5.9648 2.8645 0.0000 -10642.4690 1414.5168 0.0000 0.0000 1779.8726 -7437.7912 302.7967 -9217.6638 -7445.7096 299.3831 -449.8562 -417.3607 30682.6141 17.2511 76.8935
ENERGY: 1500000 0.5267 5.0545 2.8278 0.0000 -10674.3503 1439.9498 0.0000 0.0000 1776.6741 -7449.3174 302.2526 -9225.9916 -7443.2641 300.6806 76.8628 148.3134 30156.1091 28.6387 91.4156
TCL: Running FEP window  10: Lambda1 0.44999999999999996 Lambda2 0.49999999999999994 [dLambda 0.04999999999999999]
TCL: Setting parameter firsttimestep to 0
TCL: Setting parameter alchLambda to 0.44999999999999996
Info: NONBONDED TABLE R-SQUARED SPACING: 0.0625
Info: NONBONDED TABLE SIZE: 705 POINTS
TCL: Setting parameter alchLambda2 to 0.49999999999999994
Info: NONBONDED TABLE R-SQUARED SPACING: 0.0625
Info: NONBONDED TABLE SIZE: 705 POINTS
TCL: Running for 1500000 steps
ETITLE: TS BOND ANGLE DIHED IMPRP ELECT VDW BOUNDARY MISC KINETIC TOTAL TEMP POTENTIAL TOTALAVG TEMPAVG PRESSURE GPRESSURE VOLUME PRESSAVG GPRESSAVG
ENERGY: 0 0.5267 5.0545 2.8278 0.0000 -10674.3507 1439.7225 0.0000 0.0000 1775.8119 -7450.4073 302.1059 -9226.2192 -7450.4073 302.1059 72.9134 151.8752 30156.1091 72.9134 151.8752
ENERGY: 300000 1.3594 5.8702 4.2967 0.0000 -10699.9724 1450.5025 0.0000 0.0000 1783.5324 -7454.4112 303.4193 -9237.9436 -7480.8466 299.8514 136.8289 202.7117 30165.3521 48.3497 117.7760
ENERGY: 600000 2.4578 6.1020 2.6647 0.0000 -10548.2644 1400.3383 0.0000 0.0000 1797.9138 -7338.7877 305.8659 -9136.7015 -7451.7933 301.1230 -420.6131 -288.5746 31066.4474 -161.0124 -85.9566
ENERGY: 900000 2.9807 9.8012 2.7275 0.0000 -10683.7390 1450.4319 0.0000 0.0000 1769.4129 -7448.3847 301.0173 -9217.7976 -7451.8566 301.8220 26.3757 60.0448 30470.7516 -43.7242 20.5339
ENERGY: 1200000 0.6014 7.1593 2.7770 0.0000 -10473.4134 1279.4839 0.0000 0.0000 1783.9070 -7399.4849 303.4830 -9183.3919 -7437.3934 301.8917 -1198.3045 -1145.4064 30736.8846 -126.1871 -62.1078
ENERGY: 1500000 0.3983 5.8989 2.8112 0.0000 -10711.7001 1423.1029 0.0000 0.0000 1746.5900 -7532.8988 297.1346 -9279.4888 -7448.1720 300.6148 -71.9653 -54.9144 29754.8598 -153.3212 -95.6247
TCL: Running FEP window  11: Lambda1 0.49999999999999994 Lambda2 0.5499999999999999 [dLambda 0.04999999999999999]
TCL: Setting parameter firsttimestep to 0
TCL: Setting parameter alchLambda to 0.49999999999999994
Info: NONBONDED TABLE R-SQUARED SPACING: 0.0625
Info: NONBONDED TABLE SIZE: 705 POINTS
TCL: Setting parameter alchLambda2 to 0.5499999999999999
Info: NONBONDED TABLE R-SQUARED SPACING: 0.0625
Info: NONBONDED TABLE SIZE: 705 POINTS
TCL: Running for 1500000 steps
ETITLE: TS BOND ANGLE DIHED IMPRP ELECT VDW BOUNDARY MISC KINETIC TOTAL TEMP POTENTIAL TOTALAVG TEMPAVG PRESSURE GPRESSURE VOLUME PRESSAVG GPRESSAVG
ENERGY: 0 0.3983 5.8989 2.8112 0.0000 -10711.7012 1422.6304 0.0000 0.0000 1745.7309 -7534.2314 296.9884 -9279.9623 -7534.2314 296.9884 -136.8966 -54.7021 29754.8598 -136.8966 -54.7021
ENERGY: 300000 3.2699 7.8588 3.5146 0.0000 -10581.3810 1361.2680 0.0000 0.0000 1789.0453 -7416.4245 304.3572 -9205.4698 -7433.4241 300.0513 -797.0008 -720.3108 30687.8244 -329.6249 -266.0700
ENERGY: 600000 0.7044 8.3924 3.3983 0.0000 -10752.4106 1515.3152 0.0000 0.0000 1738.5372 -7486.0632 295.7646 -9224.6004 -7449.3267 299.4852 685.1596 719.7720 29949.6485 -62.2545 -5.9400
ENERGY: 900000 1.5105 9.7004 3.2971 0.0000 -10607.8813 1447.5452 0.0000 0.0000 1791.3617 -7354.4665 304.7513 -9145.8282 -7440.1182 300.9945 152.6386 200.8007 30400.3662 -28.8896 29.6371
ENERGY: 1200000 0.8784 7.4090 3.4758 0.0000 -10733.7541 1461.3324 0.0000 0.0000 1725.0415 -7535.6170 293.4687 -9260.6585 -7441.3773 299.9603 13.0982 109.9478 30076.9175 -73.9484 -5.6794
ENERGY: 1500000 1.4626 6.9548 2.9876 0.0000 -10804.5545 1507.1617 0.0000 0.0000 1727.9258 -7558.0621 293.9594 -9285.9879 -7453.7652 299.4525 290.5307 369.5433 30361.9889 -34.9279 29.3618
TCL: Running FEP window  12: Lambda1 0.5499999999999999 Lambda2 0.6    [dLambda 0.050000000000000044]
TCL: Setting parameter firsttimestep to 0
TCL: Setting parameter alchLambda to 0.5499999999999999
Info: NONBONDED TABLE R-SQUARED SPACING: 0.0625
Info: NONBONDED TABLE SIZE: 705 POINTS
TCL: Setting parameter alchLambda2 to 0.6
Info: NONBONDED TABLE R-SQUARED SPACING: 0.0625
Info: NONBONDED TABLE SIZE: 705 POINTS
TCL: Running for 1500000 steps
ETITLE: TS BOND ANGLE DIHED IMPRP ELECT VDW BOUNDARY MISC KINETIC TOTAL TEMP POTENTIAL TOTALAVG TEMPAVG PRESSURE GPRESSURE VOLUME PRESSAVG GPRESSAVG
ENERGY: 0 1.4626 6.9548 2.9876 0.0000 -10804.6015 1507.8978 0.0000 0.0000 1727.0377 -7558.2610 293.8083 -9285.2987 -7558.2610 293.8083 294.7003 380.4716 30361.9889 294.7003 380.4716
ENERGY: 300000 3.5581 5.3172 2.9426 0.0000 -10566.9601 1364.9156 0.0000 0.0000 1745.5328 -7444.6939 296.9547 -9190.2267 -7468.1644 298.4271 -300.7163 -258.3532 29863.0143 147.2603 199.3055
ENERGY: 600000 0.6261 3.2320 2.9680 0.0000 -10653.6571 1470.0559 0.0000 0.0000 1758.5912 -7418.1839 299.1763 -9176.7751 -7458.8326 298.4352 310.2091 338.2349 30428.5464 -10.9120 49.6965
ENERGY: 900000 5.0348 7.5674 2.8348 0.0000 -10704.3297 1407.3026 0.0000 0.0000 1759.7838 -7521.8064 299.3791 -9281.5902 -7444.9257 299.7474 -347.1062 -251.1967 29939.7619 47.0741 111.4337
ENERGY: 1200000 2.0358 7.1434 2.7405 0.0000 -10436.9611 1296.6820 0.0000 0.0000 1810.4900 -7317.8693 308.0054 -9128.3593 -7439.6800 299.7754 -1117.5592 -1048.1562 30954.7906 -75.8792 -14.8125
ENERGY: 1500000 2.3915 6.0091 2.8452 0.0000 -10728.6444 1399.4103 0.0000 0.0000 1731.5045 -7586.4837 294.5682 -9317.9882 -7441.2701 300.3131 -801.8345 -738.9333 30581.2192 -154.2483 -92.2463
TCL: Running FEP window  13: Lambda1 0.6    Lambda2 0.65   [dLambda 0.050000000000000044]
TCL: Setting parameter firsttimestep to 0
TCL: Setting parameter alchLambda to 0.6
Info: NONBONDED TABLE R-SQUARED SPACING: 0.0625
Info: NONBONDED TABLE SIZE: 705 POINTS
TCL: Setting parameter alchLambda2 to 0.65
Info: NONBONDED TABLE R-SQUARED SPACING: 0.0625
Info: NONBONDED TABLE SIZE: 705 POINTS
TCL: Running for 1500000 steps
ETITLE: TS BOND ANGLE DIHED IMPRP ELECT VDW BOUNDARY MISC KINETIC TOTAL TEMP POTENTIAL TOTALAVG TEMPAVG PRESSURE GPRESSURE VOLUME PRESSAVG GPRESSAVG
ENERGY: 0 2.3915 6.0091 2.8452 0.0000 -10728.5082 1399.6041 0.0000 0.0000 1730.6289 -7587.0294 294.4192 -9317.6583 -7587.0294 294.4192 -814.4749 -725.5287 30581.2192 -814.4749 -725.5287
ENERGY: 300000 3.5730 4.2616 2.8425 0.0000 -10631.6883 1385.1274 0.0000 0.0000 1726.9971 -7508.8867 293.8014 -9235.8838 -7504.6063 297.3038 -498.1910 -492.0384 30518.9416 -555.9314 -503.0542
ENERGY: 600000 0.7783 5.4505 2.9948 0.0000 -10710.4374 1431.3177 0.0000 0.0000 1774.7682 -7495.1278 301.9283 -9269.8960 -7468.4175 300.7301 -215.9197 -135.6954 30412.6264 -550.7166 -490.2583
ENERGY: 900000 1.6560 8.7457 3.1277 0.0000 -10734.4512 1532.9176 0.0000 0.0000 1778.9553 -7409.0490 302.6406 -9188.0042 -7478.2007 300.4660 829.9239 829.5551 30410.3767 -332.9430 -275.6234
ENERGY: 1200000 6.2831 9.3087 4.5715 0.0000 -10697.4612 1504.0955 0.0000 0.0000 1778.7345 -7394.4679 302.6031 -9173.2023 -7465.0270 300.5887 266.8708 284.4530 30706.4736 -210.0557 -156.2886
ENERGY: 1500000 2.7656 4.8358 2.6387 0.0000 -10760.9500 1525.3120 0.0000 0.0000 1777.4045 -7447.9934 302.3768 -9225.3979 -7459.0124 300.5079 497.2151 501.6870 30778.9063 -92.3018 -46.2640
TCL: Running FEP window  14: Lambda1 0.65   Lambda2 0.7000000000000001 [dLambda 0.050000000000000044]
TCL: Setting parameter firsttimestep to 0
TCL: Setting parameter alchLambda to 0.65
Info: NONBONDED TABLE R-SQUARED SPACING: 0.0625
Info: NONBONDED TABLE SIZE: 705 POINTS
TCL: Setting parameter alchLambda2 to 0.7000000000000001
Info: NONBONDED TABLE R-SQUARED SPACING: 0.0625
Info: NONBONDED TABLE SIZE: 705 POINTS
TCL: Running for 1500000 steps
ETITLE: TS BOND ANGLE DIHED IMPRP ELECT VDW BOUNDARY MISC KINETIC TOTAL TEMP POTENTIAL TOTALAVG TEMPAVG PRESSURE GPRESSURE VOLUME PRESSAVG GPRESSAVG
ENERGY: 0 2.7656 4.8358 2.6387 0.0000 -10761.2330 1525.1057 0.0000 0.0000 1776.5156 -7449.3715 302.2256 -9225.8872 -7449.3715 302.2256 427.4804 503.6894 30778.9063 427.4804 503.6894
ENERGY: 300000 2.3357 10.1446 3.8103 0.0000 -10667.8785 1417.0867 0.0000 0.0000 1765.4574 -7469.0438 300.3444 -9234.5012 -7414.1603 300.2464 -0.3549 51.4434 30149.6338 -8.6267 47.5162
ENERGY: 600000 0.3970 6.6161 5.2966 0.0000 -10673.0416 1471.8593 0.0000 0.0000 1748.6538 -7440.2189 297.4857 -9188.8726 -7400.6941 302.5293 547.5435 665.1405 29755.9758 36.9701 93.6505
ENERGY: 900000 3.7147 5.3832 2.7303 0.0000 -10595.9463 1414.7607 0.0000 0.0000 1711.6363 -7457.7210 291.1882 -9169.3573 -7422.9527 300.7244 -225.5223 -157.4867 30699.3795 70.2032 130.8726
ENERGY: 1200000 1.0242 10.1510 3.4997 0.0000 -10534.8553 1381.0568 0.0000 0.0000 1787.6382 -7351.4854 304.1178 -9139.1236 -7439.9579 299.2355 -336.8598 -231.3063 30679.6464 -51.5812 16.2572
ENERGY: 1500000 1.2824 8.0124 2.7080 0.0000 -10843.9577 1505.7078 0.0000 0.0000 1754.0457 -7572.2014 298.4030 -9326.2470 -7447.2607 299.3047 431.9504 497.5726 29922.4313 39.3860 105.3122
TCL: Running FEP window  15: Lambda1 0.7000000000000001 Lambda2 0.7500000000000001 [dLambda 0.050000000000000044]
TCL: Setting parameter firsttimestep to 0
TCL: Setting parameter alchLambda to 0.7000000000000001
Info: NONBONDED TABLE R-SQUARED SPACING: 0.0625
Info: NONBONDED TABLE SIZE: 705 POINTS
TCL: Setting parameter alchLambda2 to 0.7500000000000001
Info: NONBONDED TABLE R-SQUARED SPACING: 0.0625
Info: NONBONDED TABLE SIZE: 705 POINTS
TCL: Running for 1500000 steps
ETITLE: TS BOND ANGLE DIHED IMPRP ELECT VDW BOUNDARY MISC KINETIC TOTAL TEMP POTENTIAL TOTALAVG TEMPAVG PRESSURE GPRESSURE VOLUME PRESSAVG GPRESSAVG
ENERGY: 0 1.2824 8.0124 2.7080 0.0000 -10844.7772 1505.7998 0.0000 0.0000 1753.1637 -7573.8108 298.2529 -9326.9745 -7573.8108 298.2529 426.2141 504.6690 29922.4313 426.2141 504.6690
ENERGY: 300000 2.2001 12.4880 3.5226 0.0000 -10655.5316 1379.0666 0.0000 0.0000 1781.7552 -7476.4992 303.1170 -9258.2544 -7473.7680 297.8280 -402.5560 -358.7833 29884.6520 -165.4380 -98.2263
ENERGY: 600000 2.8497 6.6336 2.6386 0.0000 -10541.3684 1334.9364 0.0000 0.0000 1758.4301 -7435.8800 299.1488 -9194.3101 -7469.5760 297.1830 -613.6625 -560.2109 30316.6045 -136.2055 -83.7214
ENERGY: 900000 2.7942 3.7766 2.8131 0.0000 -10662.5530 1377.4091 0.0000 0.0000 1814.9478 -7460.8122 308.7638 -9275.7600 -7464.6080 299.9464 -658.6861 -615.5612 30862.9173 -164.2409 -102.6785
ENERGY: 1200000 2.7088 5.1380 2.6669 0.0000 -10581.6772 1387.1979 0.0000 0.0000 1781.6096 -7402.3560 303.0922 -9183.9656 -7458.6480 300.6673 -511.0249 -441.2758 30598.2292 -220.1941 -160.8390
ENERGY: 1500000 3.9808 6.5137 2.8480 0.0000 -10632.5218 1487.1673 0.0000 0.0000 1784.3953 -7347.6166 303.5661 -9132.0120 -7445.2050 300.7281 381.7629 436.0125 30427.8138 -209.8799 -152.1399
TCL: Running FEP window  16: Lambda1 0.7500000000000001 Lambda2 0.8000000000000002 [dLambda 0.050000000000000044]
TCL: Setting parameter firsttimestep to 0
TCL: Setting parameter alchLambda to 0.7500000000000001
Info: NONBONDED TABLE R-SQUARED SPACING: 0.0625
Info: NONBONDED TABLE SIZE: 705 POINTS
TCL: Setting parameter alchLambda2 to 0.8000000000000002
Info: NONBONDED TABLE R-SQUARED SPACING: 0.0625
Info: NONBONDED TABLE SIZE: 705 POINTS
TCL: Running for 1500000 steps
ETITLE: TS BOND ANGLE DIHED IMPRP ELECT VDW BOUNDARY MISC KINETIC TOTAL TEMP POTENTIAL TOTALAVG TEMPAVG PRESSURE GPRESSURE VOLUME PRESSAVG GPRESSAVG
ENERGY: 0 3.9808 6.5137 2.8480 0.0000 -10632.9744 1486.5954 0.0000 0.0000 1783.5327 -7349.5038 303.4194 -9133.0365 -7349.5038 303.4194 342.0109 430.5558 30427.8138 342.0109 430.5558
ENERGY: 300000 1.0661 5.0248 2.8527 0.0000 -10675.0708 1441.2436 0.0000 0.0000 1793.2321 -7431.6515 305.0695 -9224.8836 -7412.5392 301.7215 -103.8382 -1.4699 30407.7100 36.0428 134.3708
ENERGY: 600000 1.7414 4.4283 4.0285 0.0000 -10753.8174 1466.1269 0.0000 0.0000 1766.9873 -7510.5050 300.6046 -9277.4923 -7429.7937 302.3727 72.1689 138.9166 30366.4356 86.1279 161.8666
ENERGY: 900000 2.0879 6.6038 2.7914 0.0000 -10718.1675 1514.3043 0.0000 0.0000 1757.0930 -7435.2871 298.9214 -9192.3801 -7436.8710 301.7230 583.8861 647.0813 30430.3484 205.6626 285.2569
ENERGY: 1200000 2.2146 8.6044 3.5548 0.0000 -10640.0706 1443.5526 0.0000 0.0000 1784.6599 -7397.4844 303.6111 -9182.1442 -7430.7662 301.7984 -106.7953 -28.9803 30632.1611 165.9906 244.8537
ENERGY: 1500000 0.8292 5.8350 3.0302 0.0000 -10622.1446 1428.3440 0.0000 0.0000 1695.7527 -7488.3535 288.4860 -9184.1062 -7442.1790 299.9186 -290.0277 -216.4870 30799.4956 117.5436 192.5547
TCL: Running FEP window  17: Lambda1 0.8000000000000002 Lambda2 0.8500000000000002 [dLambda 0.050000000000000044]
TCL: Setting parameter firsttimestep to 0
TCL: Setting parameter alchLambda to 0.8000000000000002
Info: NONBONDED TABLE R-SQUARED SPACING: 0.0625
Info: NONBONDED TABLE SIZE: 705 POINTS
TCL: Setting parameter alchLambda2 to 0.8500000000000002
Info: NONBONDED TABLE R-SQUARED SPACING: 0.0625
Info: NONBONDED TABLE SIZE: 705 POINTS
TCL: Running for 1500000 steps
ETITLE: TS BOND ANGLE DIHED IMPRP ELECT VDW BOUNDARY MISC KINETIC TOTAL TEMP POTENTIAL TOTALAVG TEMPAVG PRESSURE GPRESSURE VOLUME PRESSAVG GPRESSAVG
ENERGY: 0 0.8292 5.8350 3.0302 0.0000 -10622.4851 1428.5874 0.0000 0.0000 1694.8953 -7489.3080 288.3401 -9184.2033 -7489.3080 288.3401 -293.2981 -202.6628 30799.4956 -293.2981 -202.6628
ENERGY: 300000 2.6661 4.4854 2.8645 0.0000 -10650.0865 1403.7149 0.0000 0.0000 1721.0675 -7515.2882 292.7926 -9236.3558 -7505.5613 292.5458 -374.7971 -413.5100 30564.3053 -62.1465 -8.3128
ENERGY: 600000 0.7138 6.1390 2.7021 0.0000 -10697.4097 1513.2149 0.0000 0.0000 1721.6830 -7452.9568 292.8973 -9174.6399 -7476.2526 295.5155 416.8097 526.4336 30813.3696 -187.2073 -123.0199
ENERGY: 900000 3.2787 12.0403 3.3468 0.0000 -10519.0166 1320.5914 0.0000 0.0000 1800.9660 -7378.7935 306.3852 -9179.7594 -7473.4412 295.9793 -707.1121 -598.1983 30084.4670 -211.8888 -146.0499
ENERGY: 1200000 2.2312 5.9298 3.7278 0.0000 -10544.2588 1350.2938 0.0000 0.0000 1750.8317 -7431.2445 297.8562 -9182.0762 -7474.6573 297.1278 -668.3445 -674.8907 30673.7794 -189.0680 -129.5641
ENERGY: 1500000 2.4542 5.3017 3.4770 0.0000 -10734.5270 1479.4986 0.0000 0.0000 1732.8986 -7510.8969 294.8054 -9243.7955 -7480.6533 296.9388 280.7152 348.2997 30248.5397 -172.8631 -114.3060
TCL: Running FEP window  18: Lambda1 0.8500000000000002 Lambda2 0.9000000000000002 [dLambda 0.050000000000000044]
TCL: Setting parameter firsttimestep to 0
TCL: Setting parameter alchLambda to 0.8500000000000002
Info: NONBONDED TABLE R-SQUARED SPACING: 0.0625
Info: NONBONDED TABLE SIZE: 705 POINTS
TCL: Setting parameter alchLambda2 to 0.9000000000000002
Info: NONBONDED TABLE R-SQUARED SPACING: 0.0625
Info: NONBONDED TABLE SIZE: 705 POINTS
TCL: Running for 1500000 steps
ETITLE: TS BOND ANGLE DIHED IMPRP ELECT VDW BOUNDARY MISC KINETIC TOTAL TEMP POTENTIAL TOTALAVG TEMPAVG PRESSURE GPRESSURE VOLUME PRESSAVG GPRESSAVG
ENERGY: 0 2.4542 5.3017 3.4770 0.0000 -10736.9131 1481.8751 0.0000 0.0000 1731.9595 -7511.8455 294.6456 -9243.8050 -7511.8455 294.6456 291.9525 373.0270 30248.5397 291.9525 373.0270
ENERGY: 300000 0.6753 7.2264 3.0883 0.0000 -10631.3648 1427.1226 0.0000 0.0000 1734.6553 -7458.5969 295.1042 -9193.2522 -7463.0213 296.0815 51.0509 142.6885 30223.3145 37.5999 119.2979
ENERGY: 600000 1.6113 5.5301 2.7952 0.0000 -10667.5079 1443.4243 0.0000 0.0000 1796.7625 -7417.3844 305.6701 -9214.1470 -7464.7202 296.6958 -64.4529 14.7512 30430.0180 270.3441 351.2409
ENERGY: 900000 1.8647 6.4485 3.0387 0.0000 -10739.9028 1486.7595 0.0000 0.0000 1731.7968 -7509.9946 294.6179 -9241.7914 -7478.3922 296.4888 339.7347 384.0475 30288.1052 197.3130 278.4395
ENERGY: 1200000 3.8509 6.3069 2.9168 0.0000 -10694.1256 1469.6034 0.0000 0.0000 1765.1710 -7446.2766 300.2956 -9211.4475 -7467.3478 297.6968 2.2694 42.5803 30714.0369 106.1670 179.6232
ENERGY: 1500000 2.5522 9.8242 2.9824 0.0000 -10640.7232 1394.2156 0.0000 0.0000 1723.1141 -7508.0347 293.1408 -9231.1488 -7467.1678 298.2672 -492.7112 -428.0505 30569.6348 110.1116 179.6991
TCL: Running FEP window  19: Lambda1 0.9000000000000002 Lambda2 0.9500000000000003 [dLambda 0.050000000000000044]
TCL: Setting parameter firsttimestep to 0
TCL: Setting parameter alchLambda to 0.9000000000000002
Info: NONBONDED TABLE R-SQUARED SPACING: 0.0625
Info: NONBONDED TABLE SIZE: 705 POINTS
TCL: Setting parameter alchLambda2 to 0.9500000000000003
Info: NONBONDED TABLE R-SQUARED SPACING: 0.0625
Info: NONBONDED TABLE SIZE: 705 POINTS
TCL: Running for 1500000 steps
ETITLE: TS BOND ANGLE DIHED IMPRP ELECT VDW BOUNDARY MISC KINETIC TOTAL TEMP POTENTIAL TOTALAVG TEMPAVG PRESSURE GPRESSURE VOLUME PRESSAVG GPRESSAVG
ENERGY: 0 2.5522 9.8242 2.9824 0.0000 -10642.2453 1395.2491 0.0000 0.0000 1722.2112 -7509.4263 292.9872 -9231.6375 -7509.4263 292.9872 -477.4159 -411.4843 30569.6348 -477.4159 -411.4843
ENERGY: 300000 2.0301 7.0748 3.1350 0.0000 -10710.6494 1456.2481 0.0000 0.0000 1736.0927 -7506.0687 295.3488 -9242.1614 -7483.7801 293.9177 -45.2875 -40.5270 30776.5195 -201.0399 -173.7490
ENERGY: 600000 1.1365 6.4639 2.6345 0.0000 -10686.4404 1429.9594 0.0000 0.0000 1705.4737 -7540.7724 290.1398 -9246.2461 -7503.0101 294.5710 217.6808 219.2384 29932.1227 -282.2706 -238.9956
ENERGY: 900000 1.5357 6.9355 3.5025 0.0000 -10610.6966 1381.6446 0.0000 0.0000 1733.0763 -7484.0020 294.8356 -9217.0783 -7481.7610 295.8840 -351.7257 -286.0063 30020.4813 -135.9853 -82.6166
ENERGY: 1200000 4.1192 12.4908 3.3374 0.0000 -10488.3398 1291.9757 0.0000 0.0000 1762.3376 -7414.0791 299.8136 -9176.4167 -7478.5949 295.8019 -1282.0114 -1206.2225 30810.1935 -157.1386 -105.3598
ENERGY: 1500000 0.9986 8.5242 2.9107 0.0000 -10524.2965 1323.0966 0.0000 0.0000 1806.0229 -7382.7434 307.2455 -9188.7663 -7469.6307 297.2103 -737.3346 -684.7105 30623.6054 -201.0299 -151.1155
TCL: Running FEP window  20: Lambda1 0.9500000000000003 Lambda2 1.0    [dLambda 0.04999999999999971]
TCL: Setting parameter firsttimestep to 0
TCL: Setting parameter alchLambda to 0.9500000000000003
Info: NONBONDED TABLE R-SQUARED SPACING: 0.0625
Info: NONBONDED TABLE SIZE: 705 POINTS
TCL: Setting parameter alchLambda2 to 1.0
Info: NONBONDED TABLE R-SQUARED SPACING: 0.0625
Info: NONBONDED TABLE SIZE: 705 POINTS
TCL: Running for 1500000 steps
ETITLE: TS BOND ANGLE DIHED IMPRP ELECT VDW BOUNDARY MISC KINETIC TOTAL TEMP POTENTIAL TOTALAVG TEMPAVG PRESSURE GPRESSURE VOLUME PRESSAVG GPRESSAVG
ENERGY: 0 0.9986 8.5242 2.9107 0.0000 -10525.7965 1323.9406 0.0000 0.0000 1805.1358 -7384.2866 307.0945 -9189.4224 -7384.2866 307.0945 -750.4556 -666.1527 30623.6054 -750.4556 -666.1527
ENERGY: 300000 4.6077 5.5791 2.9294 0.0000 -10601.9108 1393.8908 0.0000 0.0000 1725.8782 -7469.0256 293.6110 -9194.9038 -7479.3803 299.4682 -350.3009 -279.0774 30328.7506 -233.8990 -166.1922
ENERGY: 600000 1.3341 8.0156 3.0780 0.0000 -10861.0382 1534.4464 0.0000 0.0000 1814.4980 -7499.6661 308.6873 -9314.1641 -7488.4419 299.8535 575.1745 572.1704 30385.4068 -169.8710 -118.9920
ENERGY: 900000 2.0145 8.9392 3.1977 0.0000 -10710.7141 1434.4002 0.0000 0.0000 1760.9097 -7501.2527 299.5707 -9262.1624 -7477.2602 300.4245 -86.9171 4.5115 30139.7992 -121.8144 -68.9345
ENERGY: 1200000 1.4853 7.7791 2.8916 0.0000 -10876.7264 1505.7234 0.0000 0.0000 1745.7674 -7613.0796 296.9946 -9358.8470 -7486.4295 299.6651 112.8642 203.4118 30261.0874 -162.7030 -111.1938
ENERGY: 1500000 2.1020 8.9422 3.6806 0.0000 -10683.9981 1442.2981 0.0000 0.0000 1716.2622 -7510.7130 291.9751 -9226.9752 -7479.8258 298.6748 -237.4050 -144.6425 30403.3826 -123.0043 -61.9948
TCL: Exiting due to exit command.
