Info: SIMULATION PARAMETERS:
Info: TIMESTEP               2
Info: NUMBER OF STEPS        0
Info: STEPS PER CYCLE        10
Info: PERIODIC CELL BASIS 1  31.5127 0 0
Info: PERIODIC CELL BASIS 2  0 31.4152 0
Info: PERIODIC CELL BASIS 3  0 0 31.2282
Info: PERIODIC CELL CENTER   0 0 0
Info: WRAPPING WATERS AROUND PERIODIC BOUNDARIES ON OUTPUT.
Info: WRAPPING ALL CLUSTERS AROUND PERIODIC BOUNDARIES ON OUTPUT.
Info: FIRST LDB TIMESTEP     50
Info: LAST LDB TIMESTEP     -1
Info: HOM BACKGROUND SCALING 1
Info: PME BACKGROUND SCALING 1
Info: MIN ATOMS PER PATCH    40
Info: EMPTY PATCH LOAD       40 ATOMS
Info: VELOCITY FILE          mobley_1244778_equil.vel
Info: CENTER OF MASS MOVING INITIALLY? NO
Info: DIELECTRIC             1
Info: EXCLUDE                SCALED ONE-FOUR
Info: 1-4 ELECTROSTATICS SCALED BY 0.833333
Info: MODIFIED 1-4 VDW PARAMETERS WILL BE USED
Info: DCD FILENAME           mobley_1244778_prod.dcd
Info: DCD FREQUENCY          100000
Info: DCD FIRST STEP         100000
Info: DCD FILE WILL CONTAIN UNIT CELL DATA
Info: XST FILENAME           mobley_1244778_prod.xst
Info: XST FREQUENCY          100000
Info: NO VELOCITY DCD OUTPUT
Info: NO FORCE DCD OUTPUT
Info: OUTPUT FILENAME        mobley_1244778_prod
Info: BINARY OUTPUT FILES WILL BE USED
Info: RESTART FILENAME       mobley_1244778_prod.restart
Info: RESTART FREQUENCY      100000
Info: BINARY RESTART FILES WILL BE USED
Info: CUTOFF                 9
Info: PAIRLIST DISTANCE      11
Info: PAIRLIST SHRINK RATE   0.01
Info: PAIRLIST GROW RATE     0.01
Info: PAIRLIST TRIGGER       0.3
Info: PAIRLISTS PER CYCLE    2
Info: PAIRLISTS ENABLED
Info: MARGIN                 2
Info: HYDROGEN GROUP CUTOFF  2.5
Info: PATCH DIMENSION        15.5
Info: ENERGY OUTPUT STEPS    100000
Info: ENERGY EVALUATION STEPS    100000
Info: OUTPUT ENERGY PRECISION 4
Info: CROSSTERM ENERGY INCLUDED IN DIHEDRAL
Info: TIMING OUTPUT STEPS    1000000
Info: PRESSURE OUTPUT STEPS  100000
Info: ALCHEMICAL FEP ON
Info: FEP CURRENT LAMBDA VALUE     0
Info: FEP COMPARISON LAMBDA VALUE  0.05
Info: FEP INTRA-ALCHEMICAL NON-BONDED INTERACTIONS WILL BE RETAINED
Info: FEP INTRA-ALCHEMICAL BONDED INTERACTIONS WILL BE RETAINED
Info: FEP VDW SHIFTING COEFFICIENT 5
Info: FEP ELEC. ACTIVE FOR ANNIHILATED PARTICLES BETWEEN LAMBDA = 0 AND LAMBDA = 0.5
Info: FEP ELEC. ACTIVE FOR EXNIHILATED PARTICLES BETWEEN LAMBDA = 0.5 AND LAMBDA = 1
Info: FEP VDW ACTIVE FOR ANNIHILATED PARTICLES BETWEEN LAMBDA = 0 AND LAMBDA = 1
Info: FEP VDW ACTIVE FOR EXNIHILATED PARTICLES BETWEEN LAMBDA = 0 AND LAMBDA = 1
Info: FEP BOND ACTIVE FOR ANNIHILATED PARTICLES BETWEEN LAMBDA = 1 AND LAMBDA = 1
Info: FEP BOND ACTIVE FOR EXNIHILATED PARTICLES BETWEEN LAMBDA = 0 AND LAMBDA = 0
Info: LANGEVIN DYNAMICS ACTIVE
Info: LANGEVIN TEMPERATURE   300
Info: LANGEVIN USING BBK INTEGRATOR
Info: LANGEVIN DAMPING COEFFICIENT IS 1 INVERSE PS
Info: LANGEVIN DYNAMICS APPLIED TO HYDROGENS
Info: LANGEVIN PISTON PRESSURE CONTROL ACTIVE
Info:        TARGET PRESSURE IS 1.01325 BAR
Info:     OSCILLATION PERIOD IS 50 FS
Info:             DECAY TIME IS 25 FS
Info:     PISTON TEMPERATURE IS 300 K
Info:       PRESSURE CONTROL IS GROUP-BASED
Info:    INITIAL STRAIN RATE IS 0.000249813 0.000249813 0.000249813
Info:       CELL FLUCTUATION IS ISOTROPIC
Info: PARTICLE MESH EWALD (PME) ACTIVE
Info: PME TOLERANCE               1e-06
Info: PME EWALD COEFFICIENT       0.348832
Info: PME INTERPOLATION ORDER     4
Info: PME GRID DIMENSIONS         32 32 32
Info: PME MAXIMUM GRID SPACING    1
Info: PME CALCULATION WILL BE PERFORMED ON GPU
Info: FULL ELECTROSTATIC EVALUATION FREQUENCY      2
Info: USING VERLET I (r-RESPA) MTS SCHEME.
Info: C1 SPLITTING OF LONG RANGE ELECTROSTATICS
Info: PLACING ATOMS IN PATCHES BY HYDROGEN GROUPS
Info: RIGID BONDS TO HYDROGEN : ALL
Info:         ERROR TOLERANCE : 1e-08
Info:          MAX ITERATIONS : 100
Info: RIGID WATER USING SETTLE ALGORITHM
Info: RANDOM NUMBER SEED     1743626111
Info: USE HYDROGEN BONDS?    NO
Info: Using AMBER format force field!
Info: AMBER PARM FILE        mobley_1244778.prmtop
Info: COORDINATE PDB         mobley_1244778.pdb
Info: Exclusions will be read from PARM file!
Info: SCNB (VDW SCALING)     2
Info: USING ARITHMETIC MEAN TO COMBINE L-J SIGMA PARAMETERS
Info: BINARY COORDINATES     mobley_1244778_equil.coor
Info: SUMMARY OF PARAMETERS:
Info: 7 BONDS
Info: 7 ANGLES
Info:   7 HARMONIC
Info:   0 COSINE-BASED
Info: 9 DIHEDRAL
Info: 0 IMPROPER
Info: 0 CROSSTERM
Info: 0 VDW
Info: 21 VDW_PAIRS
Info: 0 NBTHOLE_PAIRS
Info: To read alchdata from file: mobley_1244778.pdb
Info: To read alchflag data from column: 5
Info: STRUCTURE SUMMARY:
Info: 2962 ATOMS
Info: 2962 BONDS
Info: 43 ANGLES
Info: 86 DIHEDRALS
Info: 0 IMPROPERS
Info: 0 CROSSTERMS
Info: 3071 EXCLUSIONS
Info: 2954 RIGID BONDS
Info: ALCH: 0 ATOMS TO DISAPPEAR IN FINAL STATE
Info: ALCH: 22 ATOMS TO APPEAR IN FINAL STATE
Info: 5932 DEGREES OF FREEDOM
Info: 988 HYDROGEN GROUPS
Info: 3 ATOMS IN LARGEST HYDROGEN GROUP
Info: 988 MIGRATION GROUPS
Info: 3 ATOMS IN LARGEST MIGRATION GROUP
Info: TOTAL MASS = 17769.9 amu
Info: TOTAL CHARGE = -0.000199964 e
Info: MASS DENSITY = 0.954486 g/cm^3
Info: ATOM DENSITY = 0.0958101 atoms/A^3
Info: ADDED 0 IMPLICIT EXCLUSIONS
Info: NONBONDED TABLE R-SQUARED SPACING: 0.0625
Info: NONBONDED TABLE SIZE: 705 POINTS
Info: REDUCING NUMBER OF PATCHES TO IMPROVE LOAD BALANCE
Info: REMOVING COM VELOCITY 0.0340161 0.0195377 -0.00865353
Info: Use 3D box decompostion in PME FFT.
Info: Updated CUDA force table with 4096 elements.
Info: Updated CUDA LJ table with 6 x 6 elements.
Info: Found 25 unique exclusion lists needing 80 bytes
TCL: Running for 1500000 steps
ETITLE: TS BOND ANGLE DIHED IMPRP ELECT VDW BOUNDARY MISC KINETIC TOTAL TEMP POTENTIAL TOTALAVG TEMPAVG PRESSURE GPRESSURE VOLUME PRESSAVG GPRESSAVG
ENERGY: 0 2.0504 11.8737 8.6598 0.0000 -10699.9574 1505.2550 0.0000 0.0000 1802.6770 -7369.4414 305.8491 -9172.1184 -7369.4414 305.8491 391.6776 464.5385 30915.3112 391.6776 464.5385
ENERGY: 300000 3.2969 13.8375 9.4687 0.0000 -10638.3300 1433.7447 0.0000 0.0000 1797.3377 -7380.6444 304.9432 -9177.9821 -7417.9912 302.1276 72.3159 173.9801 30764.2061 30.0472 99.4546
ENERGY: 600000 3.1806 11.6908 9.5437 0.0000 -10688.5303 1437.1776 0.0000 0.0000 1754.5722 -7472.3654 297.6874 -9226.9376 -7458.2280 299.7468 -261.2159 -189.1679 30505.3247 -169.1974 -89.6643
ENERGY: 900000 2.6497 16.9124 9.6011 0.0000 -10729.7132 1440.0552 0.0000 0.0000 1743.7497 -7516.7449 295.8512 -9260.4947 -7472.1215 299.0108 -85.2932 -51.9362 30376.8021 -16.4595 56.7158
ENERGY: 1200000 4.0089 14.4127 9.2253 0.0000 -10704.8511 1418.1064 0.0000 0.0000 1761.0134 -7498.0845 298.7803 -9259.0978 -7478.2081 299.3014 -454.9867 -356.9252 30277.4937 -91.6263 -16.4759
ENERGY: 1500000 1.6474 12.3731 9.8254 0.0000 -10642.4013 1437.0298 0.0000 0.0000 1766.3544 -7415.1712 299.6864 -9181.5257 -7472.7833 299.2173 56.3631 98.1808 30123.3668 -99.0404 -22.5687
TCL: Running FEP window   2: Lambda1 0.05   Lambda2 0.1    [dLambda 0.05  ]
TCL: Setting parameter firsttimestep to 0
TCL: Setting parameter alchLambda to 0.05
Info: NONBONDED TABLE R-SQUARED SPACING: 0.0625
Info: NONBONDED TABLE SIZE: 705 POINTS
TCL: Setting parameter alchLambda2 to 0.1
Info: NONBONDED TABLE R-SQUARED SPACING: 0.0625
Info: NONBONDED TABLE SIZE: 705 POINTS
TCL: Running for 1500000 steps
ETITLE: TS BOND ANGLE DIHED IMPRP ELECT VDW BOUNDARY MISC KINETIC TOTAL TEMP POTENTIAL TOTALAVG TEMPAVG PRESSURE GPRESSURE VOLUME PRESSAVG GPRESSAVG
ENERGY: 0 1.6474 12.3731 9.8254 0.0000 -10642.4018 1438.0758 0.0000 0.0000 1765.4661 -7415.0141 299.5357 -9180.4802 -7415.0141 299.5357 26.7681 104.3365 30123.3668 26.7681 104.3365
ENERGY: 300000 3.7719 10.1873 10.7856 0.0000 -10532.2237 1249.8059 0.0000 0.0000 1795.9711 -7461.7020 304.7113 -9257.6731 -7455.7784 300.5898 -1440.1655 -1419.6403 30101.7362 -521.8434 -443.2540
ENERGY: 600000 1.8784 16.0808 10.3917 0.0000 -10657.5722 1373.4129 0.0000 0.0000 1718.2253 -7537.5831 291.5207 -9255.8084 -7480.9052 297.2273 -455.0426 -342.2056 29732.4873 -349.8707 -280.4594
ENERGY: 900000 0.7024 11.6082 9.4480 0.0000 -10728.9079 1430.2275 0.0000 0.0000 1752.3005 -7524.6213 297.3020 -9276.9218 -7490.0946 296.6458 -262.9573 -193.8401 30390.6948 -281.1486 -213.2190
ENERGY: 1200000 1.4537 15.3747 10.4793 0.0000 -10759.7240 1507.8447 0.0000 0.0000 1823.2535 -7401.3181 309.3401 -9224.5716 -7475.4102 297.8746 573.9720 622.6637 30224.2268 -220.8203 -147.4049
ENERGY: 1500000 5.4304 10.0047 8.9029 0.0000 -10699.9936 1406.0223 0.0000 0.0000 1730.2540 -7539.3793 293.5615 -9269.6333 -7482.3405 297.9624 -233.4913 -159.5226 30168.4202 -181.1283 -110.1865
TCL: Running FEP window   3: Lambda1 0.1    Lambda2 0.15000000000000002 [dLambda 0.05000000000000002]
TCL: Setting parameter firsttimestep to 0
TCL: Setting parameter alchLambda to 0.1
Info: NONBONDED TABLE R-SQUARED SPACING: 0.0625
Info: NONBONDED TABLE SIZE: 705 POINTS
TCL: Setting parameter alchLambda2 to 0.15000000000000002
Info: NONBONDED TABLE R-SQUARED SPACING: 0.0625
Info: NONBONDED TABLE SIZE: 705 POINTS
TCL: Running for 1500000 steps
ETITLE: TS BOND ANGLE DIHED IMPRP ELECT VDW BOUNDARY MISC KINETIC TOTAL TEMP POTENTIAL TOTALAVG TEMPAVG PRESSURE GPRESSURE VOLUME PRESSAVG GPRESSAVG
ENERGY: 0 5.4304 10.0047 8.9029 0.0000 -10699.9937 1406.8934 0.0000 0.0000 1729.3642 -7539.3979 293.4105 -9268.7622 -7539.3979 293.4105 -236.5816 -153.0828 30168.4202 -236.5816 -153.0828
ENERGY: 300000 2.9000 14.7362 10.7852 0.0000 -10660.2331 1399.3181 0.0000 0.0000 1811.3955 -7421.0982 307.3283 -9232.4936 -7500.0370 295.9380 -655.6052 -551.7062 30723.3738 -34.0021 46.9037
ENERGY: 600000 3.0878 9.2726 9.9529 0.0000 -10663.8612 1382.0096 0.0000 0.0000 1796.5690 -7462.9693 304.8128 -9259.5383 -7499.8967 297.3967 -598.2210 -549.8049 30237.8597 -165.5642 -98.1418
ENERGY: 900000 2.7792 13.3453 9.9158 0.0000 -10680.5698 1447.0526 0.0000 0.0000 1782.2770 -7425.2000 302.3879 -9207.4770 -7483.7591 298.0353 105.4687 178.0773 30662.5725 -73.9140 -8.0233
ENERGY: 1200000 5.5587 15.5764 9.1653 0.0000 -10729.2949 1380.6346 0.0000 0.0000 1703.9777 -7614.3822 289.1034 -9318.3599 -7498.8679 297.0734 -581.0708 -631.4611 30283.8419 -63.2427 -5.2120
ENERGY: 1500000 1.8560 13.6623 9.3138 0.0000 -10750.1266 1497.5138 0.0000 0.0000 1781.4325 -7446.3481 302.2446 -9227.7806 -7488.7878 297.8322 807.8786 839.3288 29744.7691 87.6678 142.4879
TCL: Running FEP window   4: Lambda1 0.15000000000000002 Lambda2 0.2    [dLambda 0.04999999999999999]
TCL: Setting parameter firsttimestep to 0
TCL: Setting parameter alchLambda to 0.15000000000000002
Info: NONBONDED TABLE R-SQUARED SPACING: 0.0625
Info: NONBONDED TABLE SIZE: 705 POINTS
TCL: Setting parameter alchLambda2 to 0.2
Info: NONBONDED TABLE R-SQUARED SPACING: 0.0625
Info: NONBONDED TABLE SIZE: 705 POINTS
TCL: Running for 1500000 steps
ETITLE: TS BOND ANGLE DIHED IMPRP ELECT VDW BOUNDARY MISC KINETIC TOTAL TEMP POTENTIAL TOTALAVG TEMPAVG PRESSURE GPRESSURE VOLUME PRESSAVG GPRESSAVG
ENERGY: 0 1.8560 13.6623 9.3138 0.0000 -10750.1245 1501.3062 0.0000 0.0000 1780.5787 -7443.4075 302.0998 -9223.9862 -7443.4075 302.0998 772.5955 854.4077 29744.7691 772.5955 854.4077
ENERGY: 300000 1.3228 14.2778 8.7386 0.0000 -10614.3795 1395.3276 0.0000 0.0000 1787.4050 -7407.3077 303.2580 -9194.7127 -7437.8199 303.0197 -5.7061 38.8096 30087.4463 134.1445 198.0090
ENERGY: 600000 1.0585 10.6537 11.0899 0.0000 -10665.3722 1379.1647 0.0000 0.0000 1749.8606 -7513.5448 296.8880 -9263.4054 -7443.1894 302.7027 -407.6721 -352.0930 30116.4688 94.9283 168.6343
ENERGY: 900000 4.2275 13.9509 10.2466 0.0000 -10667.0139 1421.3482 0.0000 0.0000 1770.8895 -7446.3513 300.4559 -9217.2408 -7448.3930 302.5383 -65.5427 -28.5602 30437.3158 -61.1382 2.2281
ENERGY: 1200000 0.8629 12.3875 9.6250 0.0000 -10890.0753 1614.8229 0.0000 0.0000 1780.3894 -7471.9875 302.0677 -9252.3769 -7451.1135 302.2083 1472.0633 1528.9742 30230.2492 94.2196 158.4637
ENERGY: 1500000 1.8568 10.8382 10.8139 0.0000 -10906.8147 1573.9552 0.0000 0.0000 1740.4408 -7568.9098 295.2898 -9309.3506 -7468.9904 300.9054 1175.6071 1224.6808 29565.9169 81.4065 151.3110
TCL: Running FEP window   5: Lambda1 0.2    Lambda2 0.25   [dLambda 0.04999999999999999]
TCL: Setting parameter firsttimestep to 0
TCL: Setting parameter alchLambda to 0.2
Info: NONBONDED TABLE R-SQUARED SPACING: 0.0625
Info: NONBONDED TABLE SIZE: 705 POINTS
TCL: Setting parameter alchLambda2 to 0.25
Info: NONBONDED TABLE R-SQUARED SPACING: 0.0625
Info: NONBONDED TABLE SIZE: 705 POINTS
TCL: Running for 1500000 steps
ETITLE: TS BOND ANGLE DIHED IMPRP ELECT VDW BOUNDARY MISC KINETIC TOTAL TEMP POTENTIAL TOTALAVG TEMPAVG PRESSURE GPRESSURE VOLUME PRESSAVG GPRESSAVG
ENERGY: 0 1.8568 10.8382 10.8139 0.0000 -10906.8173 1575.0334 0.0000 0.0000 1739.5131 -7568.7620 295.1324 -9308.2750 -7568.7620 295.1324 1141.3550 1234.2839 29565.9169 1141.3550 1234.2839
ENERGY: 300000 1.4370 8.5400 9.9621 0.0000 -10531.7720 1350.9790 0.0000 0.0000 1804.2427 -7356.6111 306.1147 -9160.8538 -7475.7975 300.2360 -531.8305 -499.9261 30832.0699 263.7777 308.4284
ENERGY: 600000 0.9326 16.2642 8.7815 0.0000 -10750.1920 1466.6511 0.0000 0.0000 1745.4515 -7512.1111 296.1400 -9257.5627 -7458.5662 299.9556 204.3887 301.5304 30185.4573 214.8941 274.0495
ENERGY: 900000 1.8152 13.0416 9.0767 0.0000 -10609.4122 1377.0813 0.0000 0.0000 1772.8336 -7435.5637 300.7857 -9208.3974 -7454.2855 299.2232 -277.1514 -170.0352 30127.8539 83.3440 146.3620
ENERGY: 1200000 3.9771 10.8406 9.9028 0.0000 -10652.8368 1465.6031 0.0000 0.0000 1755.7550 -7406.7583 297.8881 -9162.5133 -7452.9392 299.3883 175.4056 228.4344 30699.1296 36.1228 100.8907
ENERGY: 1500000 1.5225 14.1283 9.6260 0.0000 -10742.4982 1473.2961 0.0000 0.0000 1725.4846 -7518.4406 292.7523 -9243.9252 -7457.8561 298.9641 47.0412 80.8886 30672.8116 -30.3299 31.4974
TCL: Running FEP window   6: Lambda1 0.25   Lambda2 0.3    [dLambda 0.04999999999999999]
TCL: Setting parameter firsttimestep to 0
TCL: Setting parameter alchLambda to 0.25
Info: NONBONDED TABLE R-SQUARED SPACING: 0.0625
Info: NONBONDED TABLE SIZE: 705 POINTS
TCL: Setting parameter alchLambda2 to 0.3
Info: NONBONDED TABLE R-SQUARED SPACING: 0.0625
Info: NONBONDED TABLE SIZE: 705 POINTS
TCL: Running for 1500000 steps
ETITLE: TS BOND ANGLE DIHED IMPRP ELECT VDW BOUNDARY MISC KINETIC TOTAL TEMP POTENTIAL TOTALAVG TEMPAVG PRESSURE GPRESSURE VOLUME PRESSAVG GPRESSAVG
ENERGY: 0 1.5225 14.1283 9.6260 0.0000 -10742.4983 1472.6191 0.0000 0.0000 1724.6191 -7519.9832 292.6055 -9244.6023 -7519.9832 292.6055 -4.8185 78.9348 30672.8116 -4.8185 78.9348
ENERGY: 300000 2.6709 13.0817 9.2452 0.0000 -10546.6483 1316.3571 0.0000 0.0000 1704.2766 -7501.0166 289.1541 -9205.2933 -7514.4653 293.4736 -1085.3382 -1029.6492 30683.8528 -230.6864 -187.8615
ENERGY: 600000 2.0533 9.2565 11.2146 0.0000 -10836.8143 1513.1678 0.0000 0.0000 1814.5422 -7486.5799 307.8622 -9301.1222 -7479.1312 298.4744 506.2985 556.3316 30257.0016 -29.8667 15.5052
ENERGY: 900000 1.9822 10.3864 9.9970 0.0000 -10743.0469 1447.2136 0.0000 0.0000 1738.6276 -7534.8400 294.9822 -9273.4676 -7492.7613 297.7789 -1.7531 64.7673 30168.8497 43.9382 99.4199
ENERGY: 1200000 2.6095 13.0231 10.9928 0.0000 -10890.1337 1506.7555 0.0000 0.0000 1776.6193 -7580.1334 301.4280 -9356.7527 -7492.1523 299.2119 284.3940 351.1763 29907.2232 72.8803 133.1166
ENERGY: 1500000 3.5831 15.8061 10.6028 0.0000 -10852.3200 1519.1047 0.0000 0.0000 1830.5841 -7472.6393 310.5839 -9303.2233 -7490.8365 300.0097 469.2062 593.6459 29905.6390 79.4581 143.1230
TCL: Running FEP window   7: Lambda1 0.3    Lambda2 0.35   [dLambda 0.04999999999999999]
TCL: Setting parameter firsttimestep to 0
TCL: Setting parameter alchLambda to 0.3
Info: NONBONDED TABLE R-SQUARED SPACING: 0.0625
Info: NONBONDED TABLE SIZE: 705 POINTS
TCL: Setting parameter alchLambda2 to 0.35
Info: NONBONDED TABLE R-SQUARED SPACING: 0.0625
Info: NONBONDED TABLE SIZE: 705 POINTS
TCL: Running for 1500000 steps
ETITLE: TS BOND ANGLE DIHED IMPRP ELECT VDW BOUNDARY MISC KINETIC TOTAL TEMP POTENTIAL TOTALAVG TEMPAVG PRESSURE GPRESSURE VOLUME PRESSAVG GPRESSAVG
ENERGY: 0 3.5831 15.8061 10.6028 0.0000 -10852.3207 1519.1292 0.0000 0.0000 1829.6520 -7473.5475 310.4258 -9303.1996 -7473.5475 310.4258 508.0252 600.7878 29905.6390 508.0252 600.7878
ENERGY: 300000 0.8068 13.2501 9.0738 0.0000 -10808.9002 1492.9720 0.0000 0.0000 1792.3206 -7500.4769 304.0920 -9292.7974 -7480.2261 305.6987 319.4783 399.4418 30080.5816 529.6640 601.7330
ENERGY: 600000 4.0392 12.4796 10.2278 0.0000 -10782.0867 1470.4731 0.0000 0.0000 1766.5212 -7518.3458 299.7147 -9284.8670 -7466.5252 304.1371 360.3213 334.6657 30189.7038 270.8324 324.3613
ENERGY: 900000 1.5226 12.8381 9.7620 0.0000 -10803.3801 1446.6070 0.0000 0.0000 1772.8143 -7559.8361 300.7824 -9332.6504 -7491.3441 302.5161 -84.8570 40.6782 30192.2998 259.9757 328.3336
ENERGY: 1200000 1.8913 11.2367 9.7343 0.0000 -10672.3390 1440.0123 0.0000 0.0000 1777.9380 -7431.5264 301.6518 -9209.4644 -7478.8266 302.7832 296.2668 327.3134 29955.2587 217.6701 275.0786
ENERGY: 1500000 3.7994 10.2235 9.7964 0.0000 -10785.0246 1430.8129 0.0000 0.0000 1755.3751 -7575.0173 297.8237 -9330.3925 -7477.5226 302.9870 -308.3134 -209.4035 30224.5873 95.2078 154.6408
TCL: Running FEP window   8: Lambda1 0.35   Lambda2 0.39999999999999997 [dLambda 0.04999999999999999]
TCL: Setting parameter firsttimestep to 0
TCL: Setting parameter alchLambda to 0.35
Info: NONBONDED TABLE R-SQUARED SPACING: 0.0625
Info: NONBONDED TABLE SIZE: 705 POINTS
TCL: Setting parameter alchLambda2 to 0.39999999999999997
Info: NONBONDED TABLE R-SQUARED SPACING: 0.0625
Info: NONBONDED TABLE SIZE: 705 POINTS
TCL: Running for 1500000 steps
ETITLE: TS BOND ANGLE DIHED IMPRP ELECT VDW BOUNDARY MISC KINETIC TOTAL TEMP POTENTIAL TOTALAVG TEMPAVG PRESSURE GPRESSURE VOLUME PRESSAVG GPRESSAVG
ENERGY: 0 3.7994 10.2235 9.7964 0.0000 -10785.0245 1431.3199 0.0000 0.0000 1754.5051 -7575.3802 297.6760 -9329.8853 -7575.3802 297.6760 -288.7212 -200.3313 30224.5873 -288.7212 -200.3313
ENERGY: 300000 1.5738 14.7050 8.7334 0.0000 -10712.9567 1480.7096 0.0000 0.0000 1803.8095 -7403.4255 306.0412 -9207.2349 -7498.0368 302.6765 289.2566 364.3144 30657.5837 409.3931 491.1464
ENERGY: 600000 2.4635 13.0252 10.4259 0.0000 -10657.3191 1395.1316 0.0000 0.0000 1761.9994 -7474.2735 298.9475 -9236.2729 -7494.0618 301.0766 -508.0253 -385.6037 30364.9236 160.2147 254.1850
ENERGY: 900000 7.1517 11.8156 9.7605 0.0000 -10648.6791 1397.1168 0.0000 0.0000 1812.5445 -7410.2900 307.5232 -9222.8345 -7484.7898 301.2403 -328.3284 -285.5904 30380.8803 88.0067 166.3795
ENERGY: 1200000 1.1139 13.8366 9.4361 0.0000 -10693.3995 1430.7254 0.0000 0.0000 1778.6695 -7459.6180 301.7759 -9238.2875 -7478.9738 301.2859 -35.6747 49.3948 30406.9963 47.6104 127.6207
ENERGY: 1500000 3.6718 13.3909 8.7138 0.0000 -10703.4969 1488.8621 0.0000 0.0000 1776.8087 -7412.0496 301.4601 -9188.8583 -7475.0607 300.4986 224.5968 270.5126 30438.6450 80.3932 153.1708
TCL: Running FEP window   9: Lambda1 0.39999999999999997 Lambda2 0.44999999999999996 [dLambda 0.04999999999999999]
TCL: Setting parameter firsttimestep to 0
TCL: Setting parameter alchLambda to 0.39999999999999997
Info: NONBONDED TABLE R-SQUARED SPACING: 0.0625
Info: NONBONDED TABLE SIZE: 705 POINTS
TCL: Setting parameter alchLambda2 to 0.44999999999999996
Info: NONBONDED TABLE R-SQUARED SPACING: 0.0625
Info: NONBONDED TABLE SIZE: 705 POINTS
TCL: Running for 1500000 steps
ETITLE: TS BOND ANGLE DIHED IMPRP ELECT VDW BOUNDARY MISC KINETIC TOTAL TEMP POTENTIAL TOTALAVG TEMPAVG PRESSURE GPRESSURE VOLUME PRESSAVG GPRESSAVG
ENERGY: 0 3.6718 13.3909 8.7138 0.0000 -10703.4961 1489.1828 0.0000 0.0000 1775.9377 -7412.5990 301.3124 -9188.5368 -7412.5990 301.3124 190.1061 279.9338 30438.6450 190.1061 279.9338
ENERGY: 300000 2.2021 12.7444 9.9041 0.0000 -10652.4642 1465.7822 0.0000 0.0000 1787.0378 -7374.7937 303.1957 -9161.8314 -7424.5284 299.4591 66.8399 170.1748 30973.3925 -113.8714 -44.6524
ENERGY: 600000 3.0486 17.4965 10.6951 0.0000 -10616.7870 1392.4246 0.0000 0.0000 1729.3237 -7463.7987 293.4037 -9193.1223 -7451.0069 298.1253 -200.9714 -130.5318 30380.2663 -269.7963 -210.5729
ENERGY: 900000 1.3514 14.7865 9.9115 0.0000 -10684.2694 1359.8313 0.0000 0.0000 1752.1040 -7546.2846 297.2687 -9298.3887 -7453.2613 298.6691 -818.7024 -689.0233 30608.6525 -390.6511 -330.5781
ENERGY: 1200000 2.2358 17.9640 9.0362 0.0000 -10820.3323 1538.4579 0.0000 0.0000 1800.6798 -7451.9586 305.5102 -9252.6383 -7466.6446 297.8294 1019.1205 1036.1056 29881.9814 -195.9921 -136.9669
ENERGY: 1500000 3.1990 12.5130 10.2262 0.0000 -10763.7963 1428.4474 0.0000 0.0000 1767.9745 -7541.4362 299.9613 -9309.4106 -7476.6990 298.4920 -413.2265 -316.1421 30440.2565 -205.3835 -147.9937
TCL: Running FEP window  10: Lambda1 0.44999999999999996 Lambda2 0.49999999999999994 [dLambda 0.04999999999999999]
TCL: Setting parameter firsttimestep to 0
TCL: Setting parameter alchLambda to 0.44999999999999996
Info: NONBONDED TABLE R-SQUARED SPACING: 0.0625
Info: NONBONDED TABLE SIZE: 705 POINTS
TCL: Setting parameter alchLambda2 to 0.49999999999999994
Info: NONBONDED TABLE R-SQUARED SPACING: 0.0625
Info: NONBONDED TABLE SIZE: 705 POINTS
TCL: Running for 1500000 steps
ETITLE: TS BOND ANGLE DIHED IMPRP ELECT VDW BOUNDARY MISC KINETIC TOTAL TEMP POTENTIAL TOTALAVG TEMPAVG PRESSURE GPRESSURE VOLUME PRESSAVG GPRESSAVG
ENERGY: 0 3.1991 12.5130 10.2262 0.0000 -10763.7964 1428.4014 0.0000 0.0000 1767.0897 -7542.3670 299.8112 -9309.4567 -7542.3670 299.8112 -414.9751 -306.0958 30440.2565 -414.9751 -306.0958
ENERGY: 300000 5.3258 11.5272 11.3361 0.0000 -10684.6764 1468.1931 0.0000 0.0000 1781.6644 -7406.6299 302.2840 -9188.2943 -7487.2402 302.9939 244.2563 349.2053 30534.0212 -219.8004 -104.1814
ENERGY: 600000 2.5154 21.4657 9.2257 0.0000 -10757.8110 1398.5529 0.0000 0.0000 1738.1246 -7587.9268 294.8969 -9326.0514 -7518.1878 300.5293 -607.1553 -494.9260 30088.3128 -154.5548 -57.2328
ENERGY: 900000 2.1180 13.5105 9.8728 0.0000 -10834.2373 1546.0057 0.0000 0.0000 1776.9179 -7485.8123 301.4787 -9262.7302 -7506.9605 299.5412 616.6020 631.1274 30612.0781 -47.9597 38.2204
ENERGY: 1200000 3.1768 15.4204 9.3773 0.0000 -10780.1024 1472.9195 0.0000 0.0000 1775.3632 -7503.8452 301.2149 -9279.2084 -7505.6447 299.5192 399.3600 377.9789 30508.4657 1.4796 70.8817
ENERGY: 1500000 1.2442 14.3325 9.3563 0.0000 -10591.5306 1356.7910 0.0000 0.0000 1778.3673 -7431.4393 301.7246 -9209.8067 -7497.6936 299.9336 -387.5368 -373.0823 30410.3606 -69.4934 -5.6017
TCL: Running FEP window  11: Lambda1 0.49999999999999994 Lambda2 0.5499999999999999 [dLambda 0.04999999999999999]
TCL: Setting parameter firsttimestep to 0
TCL: Setting parameter alchLambda to 0.49999999999999994
Info: NONBONDED TABLE R-SQUARED SPACING: 0.0625
Info: NONBONDED TABLE SIZE: 705 POINTS
TCL: Setting parameter alchLambda2 to 0.5499999999999999
Info: NONBONDED TABLE R-SQUARED SPACING: 0.0625
Info: NONBONDED TABLE SIZE: 705 POINTS
TCL: Running for 1500000 steps
ETITLE: TS BOND ANGLE DIHED IMPRP ELECT VDW BOUNDARY MISC KINETIC TOTAL TEMP POTENTIAL TOTALAVG TEMPAVG PRESSURE GPRESSURE VOLUME PRESSAVG GPRESSAVG
ENERGY: 0 1.2442 14.3325 9.3563 0.0000 -10591.5307 1357.3214 0.0000 0.0000 1777.4808 -7431.7956 301.5742 -9209.2764 -7431.7956 301.5742 -436.0934 -360.7082 30410.3606 -436.0934 -360.7082
ENERGY: 300000 2.4357 14.2281 9.3433 0.0000 -10714.7173 1454.3572 0.0000 0.0000 1774.1768 -7460.1763 301.0136 -9234.3531 -7447.5765 302.2392 -6.7249 43.2687 30750.4008 -152.3478 -112.1703
ENERGY: 600000 4.6743 19.8087 8.5299 0.0000 -10705.6502 1401.7161 0.0000 0.0000 1821.3623 -7449.5588 309.0193 -9270.9211 -7458.0498 303.5826 -63.3641 34.2234 29854.6306 -190.1105 -147.6123
ENERGY: 900000 5.0795 11.4583 10.0041 0.0000 -10698.9815 1422.7024 0.0000 0.0000 1726.6411 -7523.0960 292.9485 -9249.7371 -7462.8482 302.5159 -320.7451 -207.3563 30424.4257 5.6459 60.6533
ENERGY: 1200000 2.7118 12.7995 9.3058 0.0000 -10697.8168 1424.6044 0.0000 0.0000 1771.6776 -7476.7176 300.5896 -9248.3952 -7461.6317 302.3465 62.3240 119.8671 30234.5114 -57.5862 -3.4962
ENERGY: 1500000 5.0130 11.2479 10.2515 0.0000 -10732.1996 1532.0132 0.0000 0.0000 1766.3974 -7407.2766 299.6937 -9173.6740 -7459.4371 302.5076 803.4751 867.6818 30541.2438 2.9059 57.5536
TCL: Running FEP window  12: Lambda1 0.5499999999999999 Lambda2 0.6    [dLambda 0.050000000000000044]
TCL: Setting parameter firsttimestep to 0
TCL: Setting parameter alchLambda to 0.5499999999999999
Info: NONBONDED TABLE R-SQUARED SPACING: 0.0625
Info: NONBONDED TABLE SIZE: 705 POINTS
TCL: Setting parameter alchLambda2 to 0.6
Info: NONBONDED TABLE R-SQUARED SPACING: 0.0625
Info: NONBONDED TABLE SIZE: 705 POINTS
TCL: Running for 1500000 steps
ETITLE: TS BOND ANGLE DIHED IMPRP ELECT VDW BOUNDARY MISC KINETIC TOTAL TEMP POTENTIAL TOTALAVG TEMPAVG PRESSURE GPRESSURE VOLUME PRESSAVG GPRESSAVG
ENERGY: 0 5.0130 11.2479 10.2515 0.0000 -10732.2527 1532.1351 0.0000 0.0000 1765.5199 -7408.0854 299.5448 -9173.6053 -7408.0854 299.5448 778.5583 876.6274 30541.2438 778.5583 876.6274
ENERGY: 300000 2.2629 10.6275 10.2361 0.0000 -10702.6390 1474.2967 0.0000 0.0000 1771.0524 -7434.1634 300.4835 -9205.2158 -7451.9715 302.0132 239.4276 235.1495 30842.3373 147.3938 228.8555
ENERGY: 600000 1.6658 11.6906 9.2021 0.0000 -10734.0648 1464.9549 0.0000 0.0000 1751.2825 -7495.2689 297.1293 -9246.5514 -7467.5864 300.4677 270.9043 349.4763 30049.3703 248.9578 332.7314
ENERGY: 900000 4.5733 10.2792 11.3454 0.0000 -10563.5988 1358.3753 0.0000 0.0000 1778.6675 -7400.3581 301.7755 -9179.0256 -7456.6357 300.6711 -633.7553 -551.7501 30817.1213 151.6135 232.5552
ENERGY: 1200000 2.1925 13.5235 10.1898 0.0000 -10826.4439 1516.1279 0.0000 0.0000 1779.1404 -7505.2698 301.8558 -9284.4101 -7469.2331 300.4771 722.4540 745.9761 30074.7504 211.7519 288.2771
ENERGY: 1500000 3.2022 11.1367 9.5527 0.0000 -10819.5996 1469.9806 0.0000 0.0000 1774.3122 -7551.4150 301.0366 -9325.7272 -7475.7563 300.8996 3.6717 87.5227 30033.6963 154.4901 228.3158
TCL: Running FEP window  13: Lambda1 0.6    Lambda2 0.65   [dLambda 0.050000000000000044]
TCL: Setting parameter firsttimestep to 0
TCL: Setting parameter alchLambda to 0.6
Info: NONBONDED TABLE R-SQUARED SPACING: 0.0625
Info: NONBONDED TABLE SIZE: 705 POINTS
TCL: Setting parameter alchLambda2 to 0.65
Info: NONBONDED TABLE R-SQUARED SPACING: 0.0625
Info: NONBONDED TABLE SIZE: 705 POINTS
TCL: Running for 1500000 steps
ETITLE: TS BOND ANGLE DIHED IMPRP ELECT VDW BOUNDARY MISC KINETIC TOTAL TEMP POTENTIAL TOTALAVG TEMPAVG PRESSURE GPRESSURE VOLUME PRESSAVG GPRESSAVG
ENERGY: 0 3.2022 11.1367 9.5527 0.0000 -10819.7783 1471.2261 0.0000 0.0000 1773.4502 -7551.2104 300.8903 -9324.6605 -7551.2104 300.8903 20.0251 108.4774 30033.6963 20.0251 108.4774
ENERGY: 300000 1.5642 15.8137 10.1118 0.0000 -10760.3193 1450.4604 0.0000 0.0000 1749.9936 -7532.3756 296.9106 -9282.3692 -7508.7139 303.5237 295.7790 310.2826 29703.9416 -95.0538 -31.0869
ENERGY: 600000 2.1356 13.2149 9.3339 0.0000 -10739.0813 1481.0078 0.0000 0.0000 1784.1843 -7449.2048 302.7115 -9233.3891 -7465.0513 305.0144 464.4408 517.2256 30337.5252 23.5326 89.3297
ENERGY: 900000 2.4524 10.1469 9.7742 0.0000 -10638.5259 1366.5724 0.0000 0.0000 1779.7028 -7469.8771 301.9512 -9249.5799 -7467.3104 303.6797 -708.0528 -648.2277 30831.4427 -108.5750 -46.6529
ENERGY: 1200000 2.2225 10.3035 10.8630 0.0000 -10792.5809 1493.2921 0.0000 0.0000 1768.8640 -7507.0358 300.1122 -9275.8998 -7471.2729 302.8017 494.9733 528.7807 30134.2110 -101.5219 -40.3943
ENERGY: 1500000 2.9170 19.4417 9.0201 0.0000 -10634.0920 1387.2220 0.0000 0.0000 1763.6281 -7451.8630 299.2239 -9215.4911 -7469.3891 302.1931 -346.5011 -270.7918 30423.1302 -47.9870 15.2856
TCL: Running FEP window  14: Lambda1 0.65   Lambda2 0.7000000000000001 [dLambda 0.050000000000000044]
TCL: Setting parameter firsttimestep to 0
TCL: Setting parameter alchLambda to 0.65
Info: NONBONDED TABLE R-SQUARED SPACING: 0.0625
Info: NONBONDED TABLE SIZE: 705 POINTS
TCL: Setting parameter alchLambda2 to 0.7000000000000001
Info: NONBONDED TABLE R-SQUARED SPACING: 0.0625
Info: NONBONDED TABLE SIZE: 705 POINTS
TCL: Running for 1500000 steps
ETITLE: TS BOND ANGLE DIHED IMPRP ELECT VDW BOUNDARY MISC KINETIC TOTAL TEMP POTENTIAL TOTALAVG TEMPAVG PRESSURE GPRESSURE VOLUME PRESSAVG GPRESSAVG
ENERGY: 0 2.9170 19.4417 9.0201 0.0000 -10634.5463 1386.5946 0.0000 0.0000 1762.7868 -7453.7860 299.0811 -9216.5728 -7453.7860 299.0811 -363.1409 -270.4373 30423.1302 -363.1409 -270.4373
ENERGY: 300000 1.1584 8.2399 10.0979 0.0000 -10551.7248 1362.6636 0.0000 0.0000 1776.9179 -7392.6470 301.4787 -9169.5650 -7424.7213 296.9766 -461.4652 -416.0003 30770.5822 60.8214 129.0643
ENERGY: 600000 1.4084 8.1649 10.4512 0.0000 -10568.0767 1353.4645 0.0000 0.0000 1820.3023 -7374.2855 308.8394 -9194.5878 -7428.6206 299.6512 -443.1118 -373.2291 30359.8114 -31.4577 43.5199
ENERGY: 900000 3.4733 17.2295 9.1277 0.0000 -10713.0398 1410.4261 0.0000 0.0000 1779.3062 -7493.4771 301.8839 -9272.7833 -7445.8459 299.6665 -505.8762 -434.0742 30217.3069 97.2192 156.9222
ENERGY: 1200000 2.3007 8.2240 9.2939 0.0000 -10713.1792 1459.3822 0.0000 0.0000 1780.6799 -7453.2985 302.1170 -9233.9784 -7460.5981 299.5976 251.5971 233.0000 30392.6151 193.9035 243.4761
ENERGY: 1500000 4.6086 13.5791 11.1118 0.0000 -10776.3923 1442.5703 0.0000 0.0000 1804.7233 -7499.7992 306.1963 -9304.5225 -7469.4274 299.3200 -362.0732 -338.7873 30611.6097 95.5771 137.5907
TCL: Running FEP window  15: Lambda1 0.7000000000000001 Lambda2 0.7500000000000001 [dLambda 0.050000000000000044]
TCL: Setting parameter firsttimestep to 0
TCL: Setting parameter alchLambda to 0.7000000000000001
Info: NONBONDED TABLE R-SQUARED SPACING: 0.0625
Info: NONBONDED TABLE SIZE: 705 POINTS
TCL: Setting parameter alchLambda2 to 0.7500000000000001
Info: NONBONDED TABLE R-SQUARED SPACING: 0.0625
Info: NONBONDED TABLE SIZE: 705 POINTS
TCL: Running for 1500000 steps
ETITLE: TS BOND ANGLE DIHED IMPRP ELECT VDW BOUNDARY MISC KINETIC TOTAL TEMP POTENTIAL TOTALAVG TEMPAVG PRESSURE GPRESSURE VOLUME PRESSAVG GPRESSAVG
ENERGY: 0 4.6086 13.5791 11.1118 0.0000 -10776.3936 1442.1682 0.0000 0.0000 1803.8287 -7501.0973 306.0445 -9304.9259 -7501.0973 306.0445 -413.0247 -330.4699 30611.6097 -413.0247 -330.4699
ENERGY: 300000 1.7540 13.9580 10.9859 0.0000 -10588.7710 1276.1083 0.0000 0.0000 1742.0233 -7543.9414 295.5583 -9285.9647 -7501.9541 300.2990 -1203.2151 -1155.1870 30441.4428 -378.0957 -298.4419
ENERGY: 600000 3.5176 13.2346 9.2324 0.0000 -10635.3893 1376.4285 0.0000 0.0000 1774.5229 -7458.4533 301.0723 -9232.9761 -7500.5973 300.5685 -359.3409 -307.8873 30239.2456 -225.8762 -163.9408
ENERGY: 900000 2.6978 10.2921 8.8078 0.0000 -10624.4129 1374.3365 0.0000 0.0000 1765.5078 -7462.7708 299.5428 -9228.2786 -7488.0372 300.5401 -532.9197 -468.4409 30445.1499 -309.0415 -247.3616
ENERGY: 1200000 1.9605 12.7204 10.5723 0.0000 -10697.9800 1443.7765 0.0000 0.0000 1770.9007 -7458.0496 300.4578 -9228.9502 -7478.1280 300.1265 14.5222 67.0888 30702.2114 -239.5564 -182.5837
ENERGY: 1500000 3.6579 14.6224 8.4636 0.0000 -10623.8912 1335.2971 0.0000 0.0000 1778.2852 -7483.5650 301.7107 -9261.8502 -7479.4997 300.2367 -836.9465 -788.6591 30359.5943 -237.0910 -176.4864
TCL: Running FEP window  16: Lambda1 0.7500000000000001 Lambda2 0.8000000000000002 [dLambda 0.050000000000000044]
TCL: Setting parameter firsttimestep to 0
TCL: Setting parameter alchLambda to 0.7500000000000001
Info: NONBONDED TABLE R-SQUARED SPACING: 0.0625
Info: NONBONDED TABLE SIZE: 705 POINTS
TCL: Setting parameter alchLambda2 to 0.8000000000000002
Info: NONBONDED TABLE R-SQUARED SPACING: 0.0625
Info: NONBONDED TABLE SIZE: 705 POINTS
TCL: Running for 1500000 steps
ETITLE: TS BOND ANGLE DIHED IMPRP ELECT VDW BOUNDARY MISC KINETIC TOTAL TEMP POTENTIAL TOTALAVG TEMPAVG PRESSURE GPRESSURE VOLUME PRESSAVG GPRESSAVG
ENERGY: 0 3.6579 14.6224 8.4636 0.0000 -10625.5429 1336.0006 0.0000 0.0000 1777.4211 -7485.3772 301.5641 -9262.7983 -7485.3772 301.5641 -865.5235 -775.9048 30359.5943 -865.5235 -775.9048
ENERGY: 300000 2.6538 9.7648 9.1004 0.0000 -10679.0872 1348.6245 0.0000 0.0000 1795.1510 -7513.7927 304.5722 -9308.9436 -7487.6450 300.9173 -1020.4496 -939.2043 30967.2573 -555.2381 -478.4348
ENERGY: 600000 1.5033 9.9012 9.7183 0.0000 -10688.3750 1443.3436 0.0000 0.0000 1808.5833 -7415.3254 306.8511 -9223.9087 -7492.9570 300.4847 327.1676 358.3314 30228.4834 -461.5377 -394.4634
ENERGY: 900000 3.6111 13.0014 11.8267 0.0000 -10701.1615 1390.8017 0.0000 0.0000 1771.6506 -7510.2701 300.5850 -9281.9207 -7495.4280 300.3118 -400.6271 -329.4784 29962.9961 -469.9746 -403.8340
ENERGY: 1200000 1.4583 13.1879 10.5134 0.0000 -10756.2053 1446.9538 0.0000 0.0000 1769.9181 -7514.1737 300.2911 -9284.0918 -7491.8235 300.8417 -12.2957 -27.8225 30537.5799 -327.5647 -265.8309
ENERGY: 1500000 2.8578 10.5008 10.7321 0.0000 -10783.5128 1441.7146 0.0000 0.0000 1750.0535 -7567.6540 296.9208 -9317.7075 -7494.4002 299.8481 -153.2965 -110.6020 30228.7751 -295.7086 -237.8400
TCL: Running FEP window  17: Lambda1 0.8000000000000002 Lambda2 0.8500000000000002 [dLambda 0.050000000000000044]
TCL: Setting parameter firsttimestep to 0
TCL: Setting parameter alchLambda to 0.8000000000000002
Info: NONBONDED TABLE R-SQUARED SPACING: 0.0625
Info: NONBONDED TABLE SIZE: 705 POINTS
TCL: Setting parameter alchLambda2 to 0.8500000000000002
Info: NONBONDED TABLE R-SQUARED SPACING: 0.0625
Info: NONBONDED TABLE SIZE: 705 POINTS
TCL: Running for 1500000 steps
ETITLE: TS BOND ANGLE DIHED IMPRP ELECT VDW BOUNDARY MISC KINETIC TOTAL TEMP POTENTIAL TOTALAVG TEMPAVG PRESSURE GPRESSURE VOLUME PRESSAVG GPRESSAVG
ENERGY: 0 2.8578 10.5008 10.7321 0.0000 -10785.4607 1443.5753 0.0000 0.0000 1749.2203 -7568.5745 296.7794 -9317.7947 -7568.5745 296.7794 -162.8736 -85.1239 30228.7751 -162.8736 -85.1239
ENERGY: 300000 1.7163 11.5053 9.6149 0.0000 -10815.0810 1527.7178 0.0000 0.0000 1765.6982 -7498.8286 299.5751 -9264.5268 -7509.9705 301.3689 328.4928 403.3743 30926.7402 115.7410 176.7977
ENERGY: 600000 1.4850 16.6131 9.5003 0.0000 -10644.8434 1392.1221 0.0000 0.0000 1758.2855 -7466.8373 298.3174 -9225.1229 -7526.4474 299.4456 -47.0125 -26.8120 29939.6058 -108.8539 -41.0030
ENERGY: 900000 1.4994 14.4475 9.5457 0.0000 -10796.0746 1472.1800 0.0000 0.0000 1734.6868 -7563.7151 294.3136 -9298.4019 -7516.3596 300.0032 166.4648 237.2562 30199.4432 -30.3539 31.8496
ENERGY: 1200000 1.2516 13.0706 9.4596 0.0000 -10731.8375 1445.0213 0.0000 0.0000 1790.0733 -7472.9611 303.7107 -9263.0345 -7513.7236 299.0641 159.2372 171.8566 30153.6670 5.9538 66.6774
ENERGY: 1500000 3.8436 11.0461 10.1127 0.0000 -10621.4473 1372.9118 0.0000 0.0000 1775.5572 -7447.9760 301.2478 -9223.5331 -7507.4738 298.5315 -468.3238 -438.2998 30534.8026 -27.9059 26.9506
TCL: Running FEP window  18: Lambda1 0.8500000000000002 Lambda2 0.9000000000000002 [dLambda 0.050000000000000044]
TCL: Setting parameter firsttimestep to 0
TCL: Setting parameter alchLambda to 0.8500000000000002
Info: NONBONDED TABLE R-SQUARED SPACING: 0.0625
Info: NONBONDED TABLE SIZE: 705 POINTS
TCL: Setting parameter alchLambda2 to 0.9000000000000002
Info: NONBONDED TABLE R-SQUARED SPACING: 0.0625
Info: NONBONDED TABLE SIZE: 705 POINTS
TCL: Running for 1500000 steps
ETITLE: TS BOND ANGLE DIHED IMPRP ELECT VDW BOUNDARY MISC KINETIC TOTAL TEMP POTENTIAL TOTALAVG TEMPAVG PRESSURE GPRESSURE VOLUME PRESSAVG GPRESSAVG
ENERGY: 0 3.8436 11.0461 10.1127 0.0000 -10622.6854 1373.4942 0.0000 0.0000 1774.6543 -7449.5345 301.0946 -9224.1888 -7449.5345 301.0946 -503.8847 -420.1448 30534.8026 -503.8847 -420.1448
ENERGY: 300000 2.2158 7.1952 10.4945 0.0000 -10743.4110 1467.4407 0.0000 0.0000 1782.0291 -7474.0357 302.3459 -9256.0648 -7495.0690 298.4261 226.0754 217.0420 30431.2846 -159.8444 -130.9273
ENERGY: 600000 2.6769 16.4308 9.6167 0.0000 -10698.6345 1459.8320 0.0000 0.0000 1763.7472 -7446.3309 299.2441 -9210.0781 -7480.4027 299.6216 342.7206 330.7994 30423.5684 33.1865 62.6241
ENERGY: 900000 3.8666 12.1812 11.5005 0.0000 -10737.3583 1404.6732 0.0000 0.0000 1811.5501 -7493.5866 307.3545 -9305.1367 -7466.5370 301.7734 -352.4437 -310.0766 30096.3457 -119.9612 -76.7567
ENERGY: 1200000 1.4158 14.5969 9.2608 0.0000 -10654.7378 1401.6347 0.0000 0.0000 1749.6404 -7478.1892 296.8507 -9227.8296 -7470.9658 301.5358 -151.5031 -67.4728 30660.7014 -1.7580 48.7637
ENERGY: 1500000 2.6802 12.1992 9.0606 0.0000 -10652.4195 1426.7955 0.0000 0.0000 1823.2532 -7378.4309 309.3401 -9201.6841 -7468.7350 302.2332 -190.4020 -69.3737 30718.1633 -51.6115 9.0134
TCL: Running FEP window  19: Lambda1 0.9000000000000002 Lambda2 0.9500000000000003 [dLambda 0.050000000000000044]
TCL: Setting parameter firsttimestep to 0
TCL: Setting parameter alchLambda to 0.9000000000000002
Info: NONBONDED TABLE R-SQUARED SPACING: 0.0625
Info: NONBONDED TABLE SIZE: 705 POINTS
TCL: Setting parameter alchLambda2 to 0.9500000000000003
Info: NONBONDED TABLE R-SQUARED SPACING: 0.0625
Info: NONBONDED TABLE SIZE: 705 POINTS
TCL: Running for 1500000 steps
ETITLE: TS BOND ANGLE DIHED IMPRP ELECT VDW BOUNDARY MISC KINETIC TOTAL TEMP POTENTIAL TOTALAVG TEMPAVG PRESSURE GPRESSURE VOLUME PRESSAVG GPRESSAVG
ENERGY: 0 2.6802 12.1992 9.0606 0.0000 -10653.8641 1426.7129 0.0000 0.0000 1822.3539 -7380.8574 309.1875 -9203.2113 -7380.8574 309.1875 -144.4821 -60.1598 30718.1633 -144.4821 -60.1598
ENERGY: 300000 3.5189 12.7476 9.8177 0.0000 -10761.3411 1477.9446 0.0000 0.0000 1725.2214 -7532.0909 292.7077 -9257.3123 -7493.9217 299.8534 200.8546 141.1372 30738.8404 146.8395 192.5577
ENERGY: 600000 2.0466 11.8225 10.4920 0.0000 -10781.8377 1492.7959 0.0000 0.0000 1759.6157 -7505.0649 298.5431 -9264.6806 -7484.6593 299.0060 327.2804 383.3015 30630.8170 120.7575 165.3217
ENERGY: 900000 0.9778 18.3763 8.5496 0.0000 -10718.7024 1456.3989 0.0000 0.0000 1791.2720 -7443.1277 303.9141 -9234.3997 -7480.4562 297.6814 272.1066 328.2080 30463.2673 57.5028 107.3593
ENERGY: 1200000 4.2340 12.1700 8.6194 0.0000 -10785.4924 1449.0153 0.0000 0.0000 1817.7712 -7493.6826 308.4100 -9311.4537 -7482.8642 298.5845 153.7824 156.7780 30062.4412 64.3444 114.4694
ENERGY: 1500000 1.0926 13.9847 9.4989 0.0000 -10857.3477 1510.3467 0.0000 0.0000 1766.7989 -7555.6259 299.7619 -9322.4248 -7471.1992 299.7550 630.9297 714.2413 30006.7930 171.0327 222.0817
TCL: Running FEP window  20: Lambda1 0.9500000000000003 Lambda2 1.0    [dLambda 0.04999999999999971]
TCL: Setting parameter firsttimestep to 0
TCL: Setting parameter alchLambda to 0.9500000000000003
Info: NONBONDED TABLE R-SQUARED SPACING: 0.0625
Info: NONBONDED TABLE SIZE: 705 POINTS
TCL: Setting parameter alchLambda2 to 1.0
Info: NONBONDED TABLE R-SQUARED SPACING: 0.0625
Info: NONBONDED TABLE SIZE: 705 POINTS
TCL: Running for 1500000 steps
ETITLE: TS BOND ANGLE DIHED IMPRP ELECT VDW BOUNDARY MISC KINETIC TOTAL TEMP POTENTIAL TOTALAVG TEMPAVG PRESSURE GPRESSURE VOLUME PRESSAVG GPRESSAVG
ENERGY: 0 1.0926 13.9847 9.4989 0.0000 -10858.7149 1510.8367 0.0000 0.0000 1765.9048 -7557.3973 299.6102 -9323.3021 -7557.3973 299.6102 645.3694 727.2526 30006.7930 645.3694 727.2526
ENERGY: 300000 1.7196 17.7102 9.9466 0.0000 -10590.4223 1364.2375 0.0000 0.0000 1774.5879 -7422.2205 301.0834 -9196.8084 -7484.6053 299.8738 -495.6551 -438.4945 30796.1971 9.2305 76.6278
ENERGY: 600000 1.2286 13.7394 10.6026 0.0000 -10627.7473 1394.3121 0.0000 0.0000 1732.0894 -7475.7751 293.8729 -9207.8645 -7452.6177 300.7316 -327.6737 -286.6097 30617.4999 0.8996 48.4715
ENERGY: 900000 1.5923 16.1770 9.2705 0.0000 -10724.7035 1390.9700 0.0000 0.0000 1750.3331 -7556.3606 296.9682 -9306.6937 -7467.8083 301.3587 -671.0168 -549.6595 30690.3862 -76.3224 -14.8732
ENERGY: 1200000 1.2564 15.0352 9.2724 0.0000 -10674.5688 1431.1368 0.0000 0.0000 1779.0657 -7438.8024 301.8431 -9217.8680 -7465.2088 301.1303 187.8952 213.3068 30554.3974 -64.5870 -3.8290
ENERGY: 1500000 1.4824 15.6713 10.6465 0.0000 -10637.6485 1397.4618 0.0000 0.0000 1826.1360 -7386.2505 309.8292 -9212.3866 -7471.3168 301.4577 -297.6359 -191.2367 30859.8051 -77.1178 -12.6119
TCL: Exiting due to exit command.
