Info: SIMULATION PARAMETERS:
Info: TIMESTEP               2
Info: NUMBER OF STEPS        0
Info: STEPS PER CYCLE        10
Info: PERIODIC CELL BASIS 1  31.692 0 0
Info: PERIODIC CELL BASIS 2  0 30.0152 0
Info: PERIODIC CELL BASIS 3  0 0 32.1171
Info: PERIODIC CELL CENTER   0 0 0
Info: WRAPPING WATERS AROUND PERIODIC BOUNDARIES ON OUTPUT.
Info: WRAPPING ALL CLUSTERS AROUND PERIODIC BOUNDARIES ON OUTPUT.
Info: FIRST LDB TIMESTEP     50
Info: LAST LDB TIMESTEP     -1
Info: HOM BACKGROUND SCALING 1
Info: PME BACKGROUND SCALING 1
Info: MIN ATOMS PER PATCH    40
Info: EMPTY PATCH LOAD       40 ATOMS
Info: VELOCITY FILE          mobley_4395315_equil.vel
Info: CENTER OF MASS MOVING INITIALLY? NO
Info: DIELECTRIC             1
Info: EXCLUDE                SCALED ONE-FOUR
Info: 1-4 ELECTROSTATICS SCALED BY 0.833333
Info: MODIFIED 1-4 VDW PARAMETERS WILL BE USED
Info: DCD FILENAME           mobley_4395315_prod.dcd
Info: DCD FREQUENCY          100000
Info: DCD FIRST STEP         100000
Info: DCD FILE WILL CONTAIN UNIT CELL DATA
Info: XST FILENAME           mobley_4395315_prod.xst
Info: XST FREQUENCY          100000
Info: NO VELOCITY DCD OUTPUT
Info: NO FORCE DCD OUTPUT
Info: OUTPUT FILENAME        mobley_4395315_prod
Info: BINARY OUTPUT FILES WILL BE USED
Info: RESTART FILENAME       mobley_4395315_prod.restart
Info: RESTART FREQUENCY      100000
Info: BINARY RESTART FILES WILL BE USED
Info: CUTOFF                 9
Info: PAIRLIST DISTANCE      11
Info: PAIRLIST SHRINK RATE   0.01
Info: PAIRLIST GROW RATE     0.01
Info: PAIRLIST TRIGGER       0.3
Info: PAIRLISTS PER CYCLE    2
Info: PAIRLISTS ENABLED
Info: MARGIN                 2
Info: HYDROGEN GROUP CUTOFF  2.5
Info: PATCH DIMENSION        15.5
Info: ENERGY OUTPUT STEPS    100000
Info: ENERGY EVALUATION STEPS    100000
Info: OUTPUT ENERGY PRECISION 4
Info: CROSSTERM ENERGY INCLUDED IN DIHEDRAL
Info: TIMING OUTPUT STEPS    1000000
Info: PRESSURE OUTPUT STEPS  100000
Info: ALCHEMICAL FEP ON
Info: FEP CURRENT LAMBDA VALUE     0
Info: FEP COMPARISON LAMBDA VALUE  0.05
Info: FEP INTRA-ALCHEMICAL NON-BONDED INTERACTIONS WILL BE RETAINED
Info: FEP INTRA-ALCHEMICAL BONDED INTERACTIONS WILL BE RETAINED
Info: FEP VDW SHIFTING COEFFICIENT 5
Info: FEP ELEC. ACTIVE FOR ANNIHILATED PARTICLES BETWEEN LAMBDA = 0 AND LAMBDA = 0.5
Info: FEP ELEC. ACTIVE FOR EXNIHILATED PARTICLES BETWEEN LAMBDA = 0.5 AND LAMBDA = 1
Info: FEP VDW ACTIVE FOR ANNIHILATED PARTICLES BETWEEN LAMBDA = 0 AND LAMBDA = 1
Info: FEP VDW ACTIVE FOR EXNIHILATED PARTICLES BETWEEN LAMBDA = 0 AND LAMBDA = 1
Info: FEP BOND ACTIVE FOR ANNIHILATED PARTICLES BETWEEN LAMBDA = 1 AND LAMBDA = 1
Info: FEP BOND ACTIVE FOR EXNIHILATED PARTICLES BETWEEN LAMBDA = 0 AND LAMBDA = 0
Info: LANGEVIN DYNAMICS ACTIVE
Info: LANGEVIN TEMPERATURE   300
Info: LANGEVIN USING BBK INTEGRATOR
Info: LANGEVIN DAMPING COEFFICIENT IS 1 INVERSE PS
Info: LANGEVIN DYNAMICS APPLIED TO HYDROGENS
Info: LANGEVIN PISTON PRESSURE CONTROL ACTIVE
Info:        TARGET PRESSURE IS 1.01325 BAR
Info:     OSCILLATION PERIOD IS 50 FS
Info:             DECAY TIME IS 25 FS
Info:     PISTON TEMPERATURE IS 300 K
Info:       PRESSURE CONTROL IS GROUP-BASED
Info:    INITIAL STRAIN RATE IS 0.000548822 0.000548822 0.000548822
Info:       CELL FLUCTUATION IS ISOTROPIC
Info: PARTICLE MESH EWALD (PME) ACTIVE
Info: PME TOLERANCE               1e-06
Info: PME EWALD COEFFICIENT       0.348832
Info: PME INTERPOLATION ORDER     4
Info: PME GRID DIMENSIONS         32 32 36
Info: PME MAXIMUM GRID SPACING    1
Info: PME CALCULATION WILL BE PERFORMED ON GPU
Info: FULL ELECTROSTATIC EVALUATION FREQUENCY      2
Info: USING VERLET I (r-RESPA) MTS SCHEME.
Info: C1 SPLITTING OF LONG RANGE ELECTROSTATICS
Info: PLACING ATOMS IN PATCHES BY HYDROGEN GROUPS
Info: RIGID BONDS TO HYDROGEN : ALL
Info:         ERROR TOLERANCE : 1e-08
Info:          MAX ITERATIONS : 100
Info: RIGID WATER USING SETTLE ALGORITHM
Info: RANDOM NUMBER SEED     1743582376
Info: USE HYDROGEN BONDS?    NO
Info: Using AMBER format force field!
Info: AMBER PARM FILE        mobley_4395315.prmtop
Info: COORDINATE PDB         mobley_4395315.pdb
Info: Exclusions will be read from PARM file!
Info: SCNB (VDW SCALING)     2
Info: USING ARITHMETIC MEAN TO COMBINE L-J SIGMA PARAMETERS
Info: BINARY COORDINATES     mobley_4395315_equil.coor
Info: SUMMARY OF PARAMETERS:
Info: 9 BONDS
Info: 8 ANGLES
Info:   8 HARMONIC
Info:   0 COSINE-BASED
Info: 4 DIHEDRAL
Info: 0 IMPROPER
Info: 0 CROSSTERM
Info: 0 VDW
Info: 36 VDW_PAIRS
Info: 0 NBTHOLE_PAIRS
Info: To read alchdata from file: mobley_4395315.pdb
Info: To read alchflag data from column: 5
Info: STRUCTURE SUMMARY:
Info: 2983 ATOMS
Info: 2983 BONDS
Info: 25 ANGLES
Info: 38 DIHEDRALS
Info: 0 IMPROPERS
Info: 0 CROSSTERMS
Info: 3037 EXCLUSIONS
Info: 2974 RIGID BONDS
Info: ALCH: 0 ATOMS TO DISAPPEAR IN FINAL STATE
Info: ALCH: 16 ATOMS TO APPEAR IN FINAL STATE
Info: 5975 DEGREES OF FREEDOM
Info: 998 HYDROGEN GROUPS
Info: 4 ATOMS IN LARGEST HYDROGEN GROUP
Info: 998 MIGRATION GROUPS
Info: 4 ATOMS IN LARGEST MIGRATION GROUP
Info: TOTAL MASS = 17960.4 amu
Info: TOTAL CHARGE = -7.45058e-09 e
Info: MASS DENSITY = 0.976222 g/cm^3
Info: ATOM DENSITY = 0.0976397 atoms/A^3
Info: ADDED 0 IMPLICIT EXCLUSIONS
Info: NONBONDED TABLE R-SQUARED SPACING: 0.0625
Info: NONBONDED TABLE SIZE: 705 POINTS
Info: REMOVING COM VELOCITY 0.0316783 -0.0281627 0.0768132
Info: Use 3D box decompostion in PME FFT.
Info: Updated CUDA force table with 4096 elements.
Info: Updated CUDA LJ table with 8 x 8 elements.
Info: Found 18 unique exclusion lists needing 44 bytes
TCL: Running for 1500000 steps
ETITLE: TS BOND ANGLE DIHED IMPRP ELECT VDW BOUNDARY MISC KINETIC TOTAL TEMP POTENTIAL TOTALAVG TEMPAVG PRESSURE GPRESSURE VOLUME PRESSAVG GPRESSAVG
ENERGY: 0 1.9072 4.4920 3.6762 0.0000 -10777.6563 1381.2937 0.0000 0.0000 1771.6640 -7614.6231 298.4241 -9386.2872 -7614.6231 298.4241 -769.5925 -674.5662 30551.0964 -769.5925 -674.5662
ENERGY: 300000 3.5170 4.5743 2.7481 0.0000 -10701.8350 1428.6424 0.0000 0.0000 1791.0121 -7471.3412 301.6831 -9262.3533 -7536.0292 301.8347 -74.7657 -31.8719 30651.2307 -387.0648 -315.5150
ENERGY: 600000 2.3661 2.7497 2.8735 0.0000 -10811.5731 1418.6631 0.0000 0.0000 1815.8448 -7569.0759 305.8660 -9384.9207 -7559.5763 301.7905 -191.4098 -132.5552 30184.9021 -185.6415 -123.5621
ENERGY: 900000 2.6565 7.3785 5.3635 0.0000 -10784.9991 1464.2932 0.0000 0.0000 1798.8048 -7506.5026 302.9957 -9305.3074 -7545.6068 301.7472 285.3381 338.9554 30402.8252 -193.0683 -135.8562
ENERGY: 1200000 3.2661 4.1087 1.9138 0.0000 -10812.4238 1510.2478 0.0000 0.0000 1715.1955 -7577.6919 288.9123 -9292.8874 -7552.5073 300.5406 670.9165 689.7804 30239.6951 24.9281 83.9856
ENERGY: 1500000 1.2623 3.1105 1.3123 0.0000 -10692.0854 1366.6946 0.0000 0.0000 1792.6222 -7527.0835 301.9543 -9319.7057 -7553.8281 301.0003 -595.9701 -550.5257 30710.1129 -36.3270 25.2781
TCL: Running FEP window   2: Lambda1 0.05   Lambda2 0.1    [dLambda 0.05  ]
TCL: Setting parameter firsttimestep to 0
TCL: Setting parameter alchLambda to 0.05
Info: NONBONDED TABLE R-SQUARED SPACING: 0.0625
Info: NONBONDED TABLE SIZE: 705 POINTS
TCL: Setting parameter alchLambda2 to 0.1
Info: NONBONDED TABLE R-SQUARED SPACING: 0.0625
Info: NONBONDED TABLE SIZE: 705 POINTS
TCL: Running for 1500000 steps
ETITLE: TS BOND ANGLE DIHED IMPRP ELECT VDW BOUNDARY MISC KINETIC TOTAL TEMP POTENTIAL TOTALAVG TEMPAVG PRESSURE GPRESSURE VOLUME PRESSAVG GPRESSAVG
ENERGY: 0 1.2623 3.1105 1.3123 0.0000 -10692.0864 1372.0976 0.0000 0.0000 1791.7333 -7522.5703 301.8046 -9314.3036 -7522.5703 301.8046 -619.7859 -542.0735 30710.1129 -619.7859 -542.0735
ENERGY: 300000 4.9172 3.7955 2.1128 0.0000 -10801.7022 1464.3831 0.0000 0.0000 1773.3390 -7553.1546 298.7062 -9326.4936 -7551.7307 302.7554 21.3089 79.2436 30617.8895 -145.1258 -75.6907
ENERGY: 600000 1.3434 5.4600 2.7177 0.0000 -10800.6992 1399.4291 0.0000 0.0000 1736.4309 -7655.3182 292.4893 -9391.7491 -7572.8458 299.9912 -382.4864 -347.9049 30253.0478 -198.8464 -130.5314
ENERGY: 900000 4.7808 4.7474 1.1272 0.0000 -10801.4980 1448.4924 0.0000 0.0000 1776.4336 -7565.9167 299.2275 -9342.3503 -7569.3186 299.5914 -145.4952 -107.7889 30472.1912 -94.7013 -45.3643
ENERGY: 1200000 0.9337 1.4342 2.2436 0.0000 -10802.5624 1402.3425 0.0000 0.0000 1762.6240 -7632.9843 296.9013 -9395.6083 -7572.7123 299.7125 -344.5616 -275.7193 30367.6845 -142.2743 -89.1329
ENERGY: 1500000 5.2959 3.3727 2.9292 0.0000 -10803.2326 1400.2282 0.0000 0.0000 1794.8684 -7596.5383 302.3327 -9391.4067 -7576.6477 300.0829 -554.3457 -523.2938 30595.2548 -110.8625 -59.5001
TCL: Running FEP window   3: Lambda1 0.1    Lambda2 0.15000000000000002 [dLambda 0.05000000000000002]
TCL: Setting parameter firsttimestep to 0
TCL: Setting parameter alchLambda to 0.1
Info: NONBONDED TABLE R-SQUARED SPACING: 0.0625
Info: NONBONDED TABLE SIZE: 705 POINTS
TCL: Setting parameter alchLambda2 to 0.15000000000000002
Info: NONBONDED TABLE R-SQUARED SPACING: 0.0625
Info: NONBONDED TABLE SIZE: 705 POINTS
TCL: Running for 1500000 steps
ETITLE: TS BOND ANGLE DIHED IMPRP ELECT VDW BOUNDARY MISC KINETIC TOTAL TEMP POTENTIAL TOTALAVG TEMPAVG PRESSURE GPRESSURE VOLUME PRESSAVG GPRESSAVG
ENERGY: 0 5.2959 3.3727 2.9292 0.0000 -10803.2341 1403.0044 0.0000 0.0000 1793.9726 -7594.6594 302.1818 -9388.6320 -7594.6594 302.1818 -595.4680 -512.5328 30595.2548 -595.4680 -512.5328
ENERGY: 300000 3.7369 2.5673 1.4478 0.0000 -10798.5848 1504.3623 0.0000 0.0000 1799.3687 -7487.1017 303.0907 -9286.4704 -7576.7607 298.2166 550.9248 565.1224 30708.9416 177.1076 230.9717
ENERGY: 600000 3.7996 7.3743 4.8151 0.0000 -10989.3221 1579.3750 0.0000 0.0000 1790.6761 -7603.2819 301.6265 -9393.9580 -7589.6897 299.4807 1021.1665 1046.7925 29913.7628 146.0849 209.7079
ENERGY: 900000 1.2839 4.6734 6.4697 0.0000 -10729.3895 1399.0167 0.0000 0.0000 1789.1390 -7528.8068 301.3676 -9317.9458 -7596.6495 299.4662 -338.1912 -336.4911 30838.5345 245.7313 309.5146
ENERGY: 1200000 4.0555 7.4174 2.2355 0.0000 -10972.4906 1485.9019 0.0000 0.0000 1818.2649 -7654.6153 306.2737 -9472.8802 -7595.1918 300.2990 -301.6237 -213.6220 30292.7128 102.6025 171.9538
ENERGY: 1500000 3.5438 6.4156 2.1323 0.0000 -11069.0537 1613.2380 0.0000 0.0000 1726.4329 -7717.2910 290.8052 -9443.7240 -7590.7501 299.7457 1411.4744 1512.6053 29370.1660 156.8479 231.1155
TCL: Running FEP window   4: Lambda1 0.15000000000000002 Lambda2 0.2    [dLambda 0.04999999999999999]
TCL: Setting parameter firsttimestep to 0
TCL: Setting parameter alchLambda to 0.15000000000000002
Info: NONBONDED TABLE R-SQUARED SPACING: 0.0625
Info: NONBONDED TABLE SIZE: 705 POINTS
TCL: Setting parameter alchLambda2 to 0.2
Info: NONBONDED TABLE R-SQUARED SPACING: 0.0625
Info: NONBONDED TABLE SIZE: 705 POINTS
TCL: Running for 1500000 steps
ETITLE: TS BOND ANGLE DIHED IMPRP ELECT VDW BOUNDARY MISC KINETIC TOTAL TEMP POTENTIAL TOTALAVG TEMPAVG PRESSURE GPRESSURE VOLUME PRESSAVG GPRESSAVG
ENERGY: 0 3.5438 6.4156 2.1323 0.0000 -11069.0537 1613.4396 0.0000 0.0000 1725.5248 -7717.9976 290.6522 -9443.5224 -7717.9976 290.6522 1413.9337 1515.2218 29370.1660 1413.9337 1515.2218
ENERGY: 300000 5.1430 3.2887 2.7697 0.0000 -10811.8267 1428.1220 0.0000 0.0000 1737.0033 -7635.4999 292.5857 -9372.5033 -7621.4309 294.4189 -363.9809 -320.8523 30658.8830 256.5294 331.5001
ENERGY: 600000 1.5160 3.4407 2.7108 0.0000 -10825.4100 1468.6485 0.0000 0.0000 1838.5679 -7510.5260 309.6935 -9349.0938 -7593.7144 299.5815 184.9092 257.0103 30878.7727 90.7740 168.1635
ENERGY: 900000 1.2433 7.6930 2.2257 0.0000 -10929.8905 1617.8864 0.0000 0.0000 1744.3824 -7556.4597 293.8287 -9300.8421 -7579.7194 300.1788 1467.8646 1517.9733 30554.7792 145.5481 216.7739
ENERGY: 1200000 6.1477 6.3608 2.4242 0.0000 -10734.1512 1366.1813 0.0000 0.0000 1870.7448 -7482.2923 315.1135 -9353.0372 -7573.2692 301.0764 -756.7481 -679.9161 30816.7212 10.0681 80.6841
ENERGY: 1500000 3.1599 2.5606 4.4548 0.0000 -10709.7298 1402.1810 0.0000 0.0000 1829.3637 -7468.0099 308.1432 -9297.3736 -7564.8362 301.1023 -241.0186 -178.2863 30471.1523 11.6905 87.3778
TCL: Running FEP window   5: Lambda1 0.2    Lambda2 0.25   [dLambda 0.04999999999999999]
TCL: Setting parameter firsttimestep to 0
TCL: Setting parameter alchLambda to 0.2
Info: NONBONDED TABLE R-SQUARED SPACING: 0.0625
Info: NONBONDED TABLE SIZE: 705 POINTS
TCL: Setting parameter alchLambda2 to 0.25
Info: NONBONDED TABLE R-SQUARED SPACING: 0.0625
Info: NONBONDED TABLE SIZE: 705 POINTS
TCL: Running for 1500000 steps
ETITLE: TS BOND ANGLE DIHED IMPRP ELECT VDW BOUNDARY MISC KINETIC TOTAL TEMP POTENTIAL TOTALAVG TEMPAVG PRESSURE GPRESSURE VOLUME PRESSAVG GPRESSAVG
ENERGY: 0 3.1599 2.5606 4.4548 0.0000 -10709.7327 1403.1639 0.0000 0.0000 1828.4730 -7467.9206 307.9931 -9296.3936 -7467.9206 307.9931 -261.6277 -169.4451 30471.1523 -261.6277 -169.4451
ENERGY: 300000 1.3571 6.8274 5.7600 0.0000 -10891.6744 1454.0450 0.0000 0.0000 1755.6223 -7668.0626 295.7219 -9423.6849 -7571.0345 300.2920 11.1746 -26.2571 30246.2908 -217.6018 -180.6827
ENERGY: 600000 4.9656 3.9036 1.4277 0.0000 -10782.5415 1471.8892 0.0000 0.0000 1791.6337 -7508.7216 301.7878 -9300.3553 -7565.7140 299.3721 -54.4388 36.6539 31060.2399 -191.3248 -129.9633
ENERGY: 900000 3.0824 1.8131 11.1748 0.0000 -10906.7706 1567.5559 0.0000 0.0000 1790.8410 -7532.3035 301.6543 -9323.1445 -7558.8112 300.9126 980.1175 1105.7756 30386.0747 -56.1454 -0.8830
ENERGY: 1200000 2.4470 4.2430 4.9020 0.0000 -10829.2077 1414.1728 0.0000 0.0000 1790.7413 -7612.7015 301.6375 -9403.4428 -7570.5702 299.8359 -442.9860 -324.8536 30462.6461 -73.8365 -12.4583
ENERGY: 1500000 4.0358 7.3628 1.5312 0.0000 -10791.2127 1430.2182 0.0000 0.0000 1733.3278 -7614.7369 291.9666 -9348.0647 -7573.9531 299.6350 -382.0628 -375.6354 30939.2848 -110.1778 -51.1366
TCL: Running FEP window   6: Lambda1 0.25   Lambda2 0.3    [dLambda 0.04999999999999999]
TCL: Setting parameter firsttimestep to 0
TCL: Setting parameter alchLambda to 0.25
Info: NONBONDED TABLE R-SQUARED SPACING: 0.0625
Info: NONBONDED TABLE SIZE: 705 POINTS
TCL: Setting parameter alchLambda2 to 0.3
Info: NONBONDED TABLE R-SQUARED SPACING: 0.0625
Info: NONBONDED TABLE SIZE: 705 POINTS
TCL: Running for 1500000 steps
ETITLE: TS BOND ANGLE DIHED IMPRP ELECT VDW BOUNDARY MISC KINETIC TOTAL TEMP POTENTIAL TOTALAVG TEMPAVG PRESSURE GPRESSURE VOLUME PRESSAVG GPRESSAVG
ENERGY: 0 4.0358 7.3628 1.5312 0.0000 -10791.2126 1429.6768 0.0000 0.0000 1732.4682 -7616.1377 291.8218 -9348.6059 -7616.1377 291.8218 -462.1364 -374.0010 30939.2848 -462.1364 -374.0010
ENERGY: 300000 1.3340 6.8641 3.6252 0.0000 -10758.9175 1437.2755 0.0000 0.0000 1836.4531 -7473.3656 309.3373 -9309.8187 -7546.7682 300.7152 -195.3663 -205.6989 30959.6717 -577.5902 -526.7969
ENERGY: 600000 1.3574 5.7951 2.0585 0.0000 -10777.6287 1430.1903 0.0000 0.0000 1785.5108 -7552.7168 300.7564 -9338.2275 -7548.5603 300.9890 58.7034 129.3140 30263.9699 -197.2690 -145.2578
ENERGY: 900000 3.4860 5.3098 3.6674 0.0000 -10837.8102 1420.2958 0.0000 0.0000 1757.3621 -7647.6892 296.0150 -9405.0513 -7565.1439 299.7821 -458.7010 -381.5756 30401.7413 -154.2566 -103.6006
ENERGY: 1200000 3.1694 4.8978 4.4495 0.0000 -10851.8224 1475.7030 0.0000 0.0000 1746.5675 -7617.0352 294.1967 -9363.6027 -7572.5852 299.4844 -159.6303 -110.4262 30721.9400 -232.0132 -180.1846
ENERGY: 1500000 0.5737 2.8179 5.2411 0.0000 -10953.4864 1499.2063 0.0000 0.0000 1812.3738 -7633.2736 305.2813 -9445.6474 -7576.6679 300.8769 568.2670 552.4670 29921.0661 -145.7922 -99.1046
TCL: Running FEP window   7: Lambda1 0.3    Lambda2 0.35   [dLambda 0.04999999999999999]
TCL: Setting parameter firsttimestep to 0
TCL: Setting parameter alchLambda to 0.3
Info: NONBONDED TABLE R-SQUARED SPACING: 0.0625
Info: NONBONDED TABLE SIZE: 705 POINTS
TCL: Setting parameter alchLambda2 to 0.35
Info: NONBONDED TABLE R-SQUARED SPACING: 0.0625
Info: NONBONDED TABLE SIZE: 705 POINTS
TCL: Running for 1500000 steps
ETITLE: TS BOND ANGLE DIHED IMPRP ELECT VDW BOUNDARY MISC KINETIC TOTAL TEMP POTENTIAL TOTALAVG TEMPAVG PRESSURE GPRESSURE VOLUME PRESSAVG GPRESSAVG
ENERGY: 0 0.5737 2.8179 5.2411 0.0000 -10953.4872 1499.6050 0.0000 0.0000 1811.4659 -7633.7835 305.1284 -9445.2495 -7633.7835 305.1284 481.3950 559.4834 29921.0661 481.3950 559.4834
ENERGY: 300000 1.3369 6.8762 2.7688 0.0000 -10912.6295 1515.0271 0.0000 0.0000 1761.4012 -7625.2194 296.6954 -9386.6205 -7577.7863 301.7338 343.5012 449.3667 30475.5609 153.9276 215.9650
ENERGY: 600000 1.5035 6.2501 2.7716 0.0000 -10769.0925 1459.4142 0.0000 0.0000 1761.2153 -7537.9378 296.6640 -9299.1530 -7573.3329 300.3942 121.7031 138.4207 30896.9874 91.9353 153.1436
ENERGY: 900000 1.5227 4.2884 3.3754 0.0000 -10905.9719 1490.1794 0.0000 0.0000 1817.1987 -7589.4072 306.0941 -9406.6059 -7565.0319 303.2734 -199.0460 -152.1774 30989.2405 17.7773 70.4959
ENERGY: 1200000 2.2525 6.6311 4.7952 0.0000 -10837.6878 1497.1149 0.0000 0.0000 1840.9282 -7485.9657 310.0911 -9326.8939 -7560.7516 303.5427 605.1890 629.8079 30411.8268 94.7711 143.1555
ENERGY: 1500000 1.4787 4.7745 4.6524 0.0000 -10825.3738 1461.9217 0.0000 0.0000 1832.9623 -7519.5842 308.7493 -9352.5465 -7561.4511 303.9835 -57.0958 -7.4809 30896.6004 48.8308 102.0841
TCL: Running FEP window   8: Lambda1 0.35   Lambda2 0.39999999999999997 [dLambda 0.04999999999999999]
TCL: Setting parameter firsttimestep to 0
TCL: Setting parameter alchLambda to 0.35
Info: NONBONDED TABLE R-SQUARED SPACING: 0.0625
Info: NONBONDED TABLE SIZE: 705 POINTS
TCL: Setting parameter alchLambda2 to 0.39999999999999997
Info: NONBONDED TABLE R-SQUARED SPACING: 0.0625
Info: NONBONDED TABLE SIZE: 705 POINTS
TCL: Running for 1500000 steps
ETITLE: TS BOND ANGLE DIHED IMPRP ELECT VDW BOUNDARY MISC KINETIC TOTAL TEMP POTENTIAL TOTALAVG TEMPAVG PRESSURE GPRESSURE VOLUME PRESSAVG GPRESSAVG
ENERGY: 0 1.4787 4.7745 4.6524 0.0000 -10825.3740 1464.0282 0.0000 0.0000 1832.0473 -7518.3930 308.5952 -9350.4402 -7518.3930 308.5952 -60.5301 9.9096 30896.6004 -60.5301 9.9096
ENERGY: 300000 1.7045 2.8388 3.2251 0.0000 -10889.7027 1484.3307 0.0000 0.0000 1827.4261 -7570.1775 307.8168 -9397.6036 -7560.5475 303.3226 244.4925 291.8490 30494.6059 150.5528 180.9265
ENERGY: 600000 3.3333 4.0771 3.8104 0.0000 -10796.2005 1457.1127 0.0000 0.0000 1752.4929 -7575.3740 295.1948 -9327.8669 -7556.9820 302.7737 97.3785 186.5483 30526.9582 -114.5698 -69.3469
ENERGY: 900000 2.1123 5.4049 2.0471 0.0000 -10820.7708 1475.6238 0.0000 0.0000 1747.3894 -7588.1934 294.3352 -9335.5828 -7568.7713 300.8241 363.9799 328.8065 30497.5481 -44.7165 -9.3527
ENERGY: 1200000 1.8251 4.9231 3.7364 0.0000 -10810.2597 1473.8201 0.0000 0.0000 1791.9601 -7533.9949 301.8428 -9325.9551 -7569.9534 300.3706 303.5804 361.8476 30443.6222 -115.1947 -70.4748
ENERGY: 1500000 3.5562 5.9582 4.2653 0.0000 -10944.0507 1510.1522 0.0000 0.0000 1782.4162 -7637.7027 300.2352 -9420.1189 -7568.1582 300.6887 318.2564 334.9451 30950.8434 -67.5319 -22.4425
TCL: Running FEP window   9: Lambda1 0.39999999999999997 Lambda2 0.44999999999999996 [dLambda 0.04999999999999999]
TCL: Setting parameter firsttimestep to 0
TCL: Setting parameter alchLambda to 0.39999999999999997
Info: NONBONDED TABLE R-SQUARED SPACING: 0.0625
Info: NONBONDED TABLE SIZE: 705 POINTS
TCL: Setting parameter alchLambda2 to 0.44999999999999996
Info: NONBONDED TABLE R-SQUARED SPACING: 0.0625
Info: NONBONDED TABLE SIZE: 705 POINTS
TCL: Running for 1500000 steps
ETITLE: TS BOND ANGLE DIHED IMPRP ELECT VDW BOUNDARY MISC KINETIC TOTAL TEMP POTENTIAL TOTALAVG TEMPAVG PRESSURE GPRESSURE VOLUME PRESSAVG GPRESSAVG
ENERGY: 0 3.5562 5.9582 4.2653 0.0000 -10944.0498 1510.2331 0.0000 0.0000 1781.5387 -7638.4984 300.0874 -9420.0370 -7638.4984 300.0874 258.3143 340.9865 30950.8434 258.3143 340.9865
ENERGY: 300000 2.7691 4.2966 2.9441 0.0000 -10840.9005 1473.1306 0.0000 0.0000 1799.8543 -7557.9059 303.1725 -9357.7603 -7570.8754 303.0846 55.2029 137.7377 30800.8225 137.4913 222.1606
ENERGY: 600000 5.2015 5.1051 2.5961 0.0000 -10836.2780 1452.7412 0.0000 0.0000 1791.2115 -7579.4227 301.7167 -9370.6341 -7592.1716 300.5685 -134.6009 -96.9013 30762.7965 6.1403 77.5420
ENERGY: 900000 3.4424 2.9171 3.0646 0.0000 -10889.0126 1512.1897 0.0000 0.0000 1818.5311 -7548.8677 306.3185 -9367.3988 -7596.5647 300.4451 463.4065 556.8291 30097.2691 72.5310 137.9783
ENERGY: 1200000 2.7847 3.3310 1.9940 0.0000 -10677.7859 1363.4890 0.0000 0.0000 1734.3042 -7571.8829 292.1311 -9306.1871 -7585.5042 299.0782 -816.8239 -734.3851 31096.3214 -81.8815 -15.0587
ENERGY: 1500000 2.5676 1.7826 3.6099 0.0000 -10824.1241 1448.9711 0.0000 0.0000 1763.4704 -7603.7224 297.0439 -9367.1928 -7583.7425 299.4163 38.0464 109.0797 30660.7512 -30.0758 36.2035
TCL: Running FEP window  10: Lambda1 0.44999999999999996 Lambda2 0.49999999999999994 [dLambda 0.04999999999999999]
TCL: Setting parameter firsttimestep to 0
TCL: Setting parameter alchLambda to 0.44999999999999996
Info: NONBONDED TABLE R-SQUARED SPACING: 0.0625
Info: NONBONDED TABLE SIZE: 705 POINTS
TCL: Setting parameter alchLambda2 to 0.49999999999999994
Info: NONBONDED TABLE R-SQUARED SPACING: 0.0625
Info: NONBONDED TABLE SIZE: 705 POINTS
TCL: Running for 1500000 steps
ETITLE: TS BOND ANGLE DIHED IMPRP ELECT VDW BOUNDARY MISC KINETIC TOTAL TEMP POTENTIAL TOTALAVG TEMPAVG PRESSURE GPRESSURE VOLUME PRESSAVG GPRESSAVG
ENERGY: 0 2.5676 1.7826 3.6099 0.0000 -10824.1265 1448.2797 0.0000 0.0000 1762.5741 -7605.3125 296.8929 -9367.8867 -7605.3125 296.8929 25.0473 109.8483 30660.7512 25.0473 109.8483
ENERGY: 300000 3.5161 3.7114 2.5670 0.0000 -10818.2732 1426.0103 0.0000 0.0000 1783.2654 -7599.2031 300.3782 -9382.4684 -7586.9501 299.5300 -522.0226 -450.9957 31149.7717 -100.8186 -27.2944
ENERGY: 600000 1.5660 2.6858 1.7277 0.0000 -10903.7865 1502.7156 0.0000 0.0000 1768.4740 -7626.6174 297.8867 -9395.0914 -7600.7901 299.0119 642.3795 707.7801 30071.2825 61.8774 150.2110
ENERGY: 900000 4.8826 3.0423 4.5337 0.0000 -10790.5268 1472.2870 0.0000 0.0000 1771.0785 -7534.7027 298.3254 -9305.7811 -7608.0246 298.2704 203.5911 267.1727 30791.7302 -52.2482 39.0866
ENERGY: 1200000 2.0544 5.7859 2.2643 0.0000 -10917.9570 1477.4556 0.0000 0.0000 1787.1720 -7643.2248 301.0363 -9430.3967 -7608.9554 298.7386 -48.1380 47.7321 30430.3661 -120.4748 -32.6982
ENERGY: 1500000 6.3159 6.8336 3.3270 0.0000 -10852.6849 1485.1423 0.0000 0.0000 1740.3055 -7610.7607 293.1419 -9351.0662 -7599.2626 298.5648 126.0257 199.3470 30490.5286 -127.7094 -50.2019
TCL: Running FEP window  11: Lambda1 0.49999999999999994 Lambda2 0.5499999999999999 [dLambda 0.04999999999999999]
TCL: Setting parameter firsttimestep to 0
TCL: Setting parameter alchLambda to 0.49999999999999994
Info: NONBONDED TABLE R-SQUARED SPACING: 0.0625
Info: NONBONDED TABLE SIZE: 705 POINTS
TCL: Setting parameter alchLambda2 to 0.5499999999999999
Info: NONBONDED TABLE R-SQUARED SPACING: 0.0625
Info: NONBONDED TABLE SIZE: 705 POINTS
TCL: Running for 1500000 steps
ETITLE: TS BOND ANGLE DIHED IMPRP ELECT VDW BOUNDARY MISC KINETIC TOTAL TEMP POTENTIAL TOTALAVG TEMPAVG PRESSURE GPRESSURE VOLUME PRESSAVG GPRESSAVG
ENERGY: 0 6.3158 6.8336 3.3270 0.0000 -10852.6873 1485.2442 0.0000 0.0000 1739.4424 -7611.5242 292.9966 -9350.9666 -7611.5242 292.9966 117.7621 207.0582 30490.5286 117.7621 207.0582
ENERGY: 300000 1.0270 5.5515 3.2219 0.0000 -10994.3276 1511.3615 0.0000 0.0000 1720.2354 -7752.9302 289.7613 -9473.1657 -7646.6459 295.1831 43.3036 111.8125 30507.6568 149.0241 212.5864
ENERGY: 600000 3.4715 3.4115 0.8271 0.0000 -10793.2882 1459.7081 0.0000 0.0000 1855.5506 -7470.3195 312.5542 -9325.8701 -7589.3158 298.7591 381.5480 429.0848 30551.2255 134.8755 194.1563
ENERGY: 900000 1.1740 2.5116 3.8504 0.0000 -10916.0188 1525.7774 0.0000 0.0000 1741.8239 -7640.8814 293.3977 -9382.7053 -7596.0668 298.3856 407.8415 503.8718 30564.9617 162.7386 231.3284
ENERGY: 1200000 1.7890 2.7120 1.0733 0.0000 -10673.2297 1387.4947 0.0000 0.0000 1800.7287 -7479.4320 303.3198 -9280.1607 -7587.2718 298.1232 -136.9480 -151.5521 30425.1658 91.9033 154.7564
ENERGY: 1500000 3.3146 4.4089 2.6934 0.0000 -10761.3558 1370.3437 0.0000 0.0000 1780.6096 -7599.9857 299.9309 -9380.5953 -7588.4874 298.6480 -937.5935 -885.6883 30923.4797 28.5972 95.3566
TCL: Running FEP window  12: Lambda1 0.5499999999999999 Lambda2 0.6    [dLambda 0.050000000000000044]
TCL: Setting parameter firsttimestep to 0
TCL: Setting parameter alchLambda to 0.5499999999999999
Info: NONBONDED TABLE R-SQUARED SPACING: 0.0625
Info: NONBONDED TABLE SIZE: 705 POINTS
TCL: Setting parameter alchLambda2 to 0.6
Info: NONBONDED TABLE R-SQUARED SPACING: 0.0625
Info: NONBONDED TABLE SIZE: 705 POINTS
TCL: Running for 1500000 steps
ETITLE: TS BOND ANGLE DIHED IMPRP ELECT VDW BOUNDARY MISC KINETIC TOTAL TEMP POTENTIAL TOTALAVG TEMPAVG PRESSURE GPRESSURE VOLUME PRESSAVG GPRESSAVG
ENERGY: 0 3.3146 4.4089 2.6934 0.0000 -10761.0681 1369.8883 0.0000 0.0000 1779.7435 -7601.0196 299.7850 -9380.7630 -7601.0196 299.7850 -968.7358 -883.1719 30923.4797 -968.7358 -883.1719
ENERGY: 300000 1.8611 2.3329 2.1148 0.0000 -10600.6594 1333.8784 0.0000 0.0000 1795.6567 -7464.8156 302.4655 -9260.4723 -7582.5481 299.0473 -738.1330 -725.3264 30852.5293 -487.2022 -450.1257
ENERGY: 600000 1.9754 6.3400 2.7131 0.0000 -10845.9608 1468.5391 0.0000 0.0000 1828.2835 -7538.1096 307.9612 -9366.3932 -7567.6705 300.7514 16.0765 43.8983 31211.5236 -356.8337 -327.0159
ENERGY: 900000 1.0241 3.3445 1.5369 0.0000 -10787.7890 1435.3586 0.0000 0.0000 1776.3241 -7570.2008 299.2090 -9346.5249 -7578.5182 299.8452 3.7248 121.1308 30491.4781 -263.4055 -230.3645
ENERGY: 1200000 2.6767 6.8009 5.0922 0.0000 -10875.5412 1488.4636 0.0000 0.0000 1757.9465 -7614.5613 296.1135 -9372.5078 -7601.4582 298.8777 361.8820 379.4093 30369.0004 -229.1505 -195.2353
ENERGY: 1500000 1.6480 6.1335 1.6264 0.0000 -10768.8548 1436.1464 0.0000 0.0000 1834.4489 -7488.8516 308.9997 -9323.3005 -7603.1510 298.5700 -17.8802 42.2978 30478.7899 -230.2462 -183.8369
TCL: Running FEP window  13: Lambda1 0.6    Lambda2 0.65   [dLambda 0.050000000000000044]
TCL: Setting parameter firsttimestep to 0
TCL: Setting parameter alchLambda to 0.6
Info: NONBONDED TABLE R-SQUARED SPACING: 0.0625
Info: NONBONDED TABLE SIZE: 705 POINTS
TCL: Setting parameter alchLambda2 to 0.65
Info: NONBONDED TABLE R-SQUARED SPACING: 0.0625
Info: NONBONDED TABLE SIZE: 705 POINTS
TCL: Running for 1500000 steps
ETITLE: TS BOND ANGLE DIHED IMPRP ELECT VDW BOUNDARY MISC KINETIC TOTAL TEMP POTENTIAL TOTALAVG TEMPAVG PRESSURE GPRESSURE VOLUME PRESSAVG GPRESSAVG
ENERGY: 0 1.6480 6.1335 1.6264 0.0000 -10769.1468 1437.0216 0.0000 0.0000 1833.5587 -7489.1587 308.8498 -9322.7173 -7489.1587 308.8498 -29.9457 57.2979 30478.7899 -29.9457 57.2979
ENERGY: 300000 3.6083 5.9459 1.2391 0.0000 -10919.3337 1493.9545 0.0000 0.0000 1817.1342 -7597.4518 306.0832 -9414.5860 -7606.9557 302.1259 457.0168 509.4258 30368.2648 -32.2996 -0.5755
ENERGY: 600000 2.2409 3.3360 2.2962 0.0000 -10900.5420 1488.2016 0.0000 0.0000 1832.8756 -7571.5918 308.7347 -9404.4674 -7617.0083 302.7082 236.5669 289.4516 30485.0723 104.8344 155.4185
ENERGY: 900000 4.4825 5.0235 1.4551 0.0000 -10898.6760 1489.2664 0.0000 0.0000 1805.4622 -7592.9864 304.1171 -9398.4486 -7599.8825 303.5936 -7.0541 87.6294 30759.0190 15.2878 57.1907
ENERGY: 1200000 2.9555 3.3772 3.0682 0.0000 -10774.8031 1346.6477 0.0000 0.0000 1735.2250 -7683.5295 292.2862 -9418.7545 -7598.0330 302.9672 -1279.2963 -1168.8305 30838.4897 -39.4662 5.7431
ENERGY: 1500000 2.8921 3.2975 4.2186 0.0000 -10759.0428 1391.0740 0.0000 0.0000 1800.3056 -7557.2550 303.2485 -9357.5606 -7596.6098 302.0253 -376.7211 -316.5194 30616.6199 -28.2504 17.5871
TCL: Running FEP window  14: Lambda1 0.65   Lambda2 0.7000000000000001 [dLambda 0.050000000000000044]
TCL: Setting parameter firsttimestep to 0
TCL: Setting parameter alchLambda to 0.65
Info: NONBONDED TABLE R-SQUARED SPACING: 0.0625
Info: NONBONDED TABLE SIZE: 705 POINTS
TCL: Setting parameter alchLambda2 to 0.7000000000000001
Info: NONBONDED TABLE R-SQUARED SPACING: 0.0625
Info: NONBONDED TABLE SIZE: 705 POINTS
TCL: Running for 1500000 steps
ETITLE: TS BOND ANGLE DIHED IMPRP ELECT VDW BOUNDARY MISC KINETIC TOTAL TEMP POTENTIAL TOTALAVG TEMPAVG PRESSURE GPRESSURE VOLUME PRESSAVG GPRESSAVG
ENERGY: 0 2.8921 3.2975 4.2186 0.0000 -10759.0432 1390.4951 0.0000 0.0000 1799.4438 -7558.6960 303.1034 -9358.1399 -7558.6960 303.1034 -393.1271 -311.6137 30616.6199 -393.1271 -311.6137
ENERGY: 300000 3.1580 6.0505 3.6643 0.0000 -10926.5041 1517.4610 0.0000 0.0000 1824.3596 -7571.8108 307.3003 -9396.1704 -7571.9809 301.9348 276.5005 361.2967 30818.4184 87.5988 177.6968
ENERGY: 600000 9.0707 4.9548 4.9823 0.0000 -10863.1169 1474.3008 0.0000 0.0000 1815.1264 -7554.6819 305.7450 -9369.8083 -7569.1308 302.4944 100.9178 163.6470 30153.8658 14.9311 93.0119
ENERGY: 900000 3.8292 2.6348 3.2302 0.0000 -10820.2424 1506.6003 0.0000 0.0000 1776.4737 -7527.4740 299.2342 -9303.9478 -7561.0051 301.7033 252.8037 274.3402 31142.3782 -22.2264 47.8888
ENERGY: 1200000 3.7287 6.6326 2.4663 0.0000 -10799.3822 1419.0485 0.0000 0.0000 1782.7855 -7584.7206 300.2974 -9367.5061 -7565.2975 302.4274 -247.2428 -184.9366 30724.0192 49.4675 110.0904
ENERGY: 1500000 3.2654 2.6629 3.0261 0.0000 -10782.2857 1420.3958 0.0000 0.0000 1813.5115 -7539.4240 305.4730 -9352.9355 -7560.8373 302.6736 -282.4113 -172.6720 30457.9397 -45.7999 18.6825
TCL: Running FEP window  15: Lambda1 0.7000000000000001 Lambda2 0.7500000000000001 [dLambda 0.050000000000000044]
TCL: Setting parameter firsttimestep to 0
TCL: Setting parameter alchLambda to 0.7000000000000001
Info: NONBONDED TABLE R-SQUARED SPACING: 0.0625
Info: NONBONDED TABLE SIZE: 705 POINTS
TCL: Setting parameter alchLambda2 to 0.7500000000000001
Info: NONBONDED TABLE R-SQUARED SPACING: 0.0625
Info: NONBONDED TABLE SIZE: 705 POINTS
TCL: Running for 1500000 steps
ETITLE: TS BOND ANGLE DIHED IMPRP ELECT VDW BOUNDARY MISC KINETIC TOTAL TEMP POTENTIAL TOTALAVG TEMPAVG PRESSURE GPRESSURE VOLUME PRESSAVG GPRESSAVG
ENERGY: 0 3.2654 2.6629 3.0261 0.0000 -10783.6965 1420.4347 0.0000 0.0000 1812.6639 -7541.6436 305.3302 -9354.3074 -7541.6436 305.3302 -261.9794 -167.3857 30457.9397 -261.9794 -167.3857
ENERGY: 300000 2.6498 4.7328 4.1551 0.0000 -10679.1419 1379.7143 0.0000 0.0000 1779.9614 -7507.9285 299.8217 -9287.8899 -7535.9981 300.6493 -540.4912 -529.3023 30882.2642 -289.6856 -232.6642
ENERGY: 600000 4.7547 9.8255 2.3786 0.0000 -10887.3832 1495.6842 0.0000 0.0000 1766.5105 -7608.2298 297.5560 -9374.7402 -7552.0518 298.9331 591.0401 636.6889 30292.4306 -14.0196 32.7756
ENERGY: 900000 4.2798 5.6011 3.6752 0.0000 -10853.9364 1484.9224 0.0000 0.0000 1761.0300 -7594.4279 296.6328 -9355.4578 -7561.0981 299.2238 308.7903 379.1716 30449.6971 119.2135 168.2074
ENERGY: 1200000 2.2756 6.4636 2.1734 0.0000 -10844.2967 1452.3490 0.0000 0.0000 1751.0050 -7630.0302 294.9442 -9381.0352 -7566.7776 299.1581 108.3331 181.2475 30589.2075 151.6430 201.4038
ENERGY: 1500000 2.4182 6.8816 4.8242 0.0000 -10735.3098 1423.8651 0.0000 0.0000 1777.8269 -7519.4939 299.4622 -9297.3207 -7573.6050 298.4636 -62.4813 -3.8636 30944.5578 70.8521 123.2765
TCL: Running FEP window  16: Lambda1 0.7500000000000001 Lambda2 0.8000000000000002 [dLambda 0.050000000000000044]
TCL: Setting parameter firsttimestep to 0
TCL: Setting parameter alchLambda to 0.7500000000000001
Info: NONBONDED TABLE R-SQUARED SPACING: 0.0625
Info: NONBONDED TABLE SIZE: 705 POINTS
TCL: Setting parameter alchLambda2 to 0.8000000000000002
Info: NONBONDED TABLE R-SQUARED SPACING: 0.0625
Info: NONBONDED TABLE SIZE: 705 POINTS
TCL: Running for 1500000 steps
ETITLE: TS BOND ANGLE DIHED IMPRP ELECT VDW BOUNDARY MISC KINETIC TOTAL TEMP POTENTIAL TOTALAVG TEMPAVG PRESSURE GPRESSURE VOLUME PRESSAVG GPRESSAVG
ENERGY: 0 2.4182 6.8816 4.8242 0.0000 -10737.0315 1424.5187 0.0000 0.0000 1776.9351 -7521.4536 299.3119 -9298.3887 -7521.4536 299.3119 -80.7931 5.1423 30944.5578 -80.7931 5.1423
ENERGY: 300000 1.9446 7.6130 2.2743 0.0000 -10821.1381 1481.3589 0.0000 0.0000 1844.2404 -7483.7068 310.6490 -9327.9472 -7528.5722 303.7131 429.0243 409.4385 30851.2546 -131.9832 -91.8125
ENERGY: 600000 1.5998 3.5090 4.2923 0.0000 -10832.9245 1488.5505 0.0000 0.0000 1786.5946 -7548.3783 300.9390 -9334.9729 -7548.5919 305.5719 48.1474 159.3652 31080.6289 49.0570 105.6667
ENERGY: 900000 1.9432 4.5056 1.6582 0.0000 -10800.5710 1439.3557 0.0000 0.0000 1778.4615 -7574.6467 299.5691 -9353.1083 -7558.2360 304.1934 -101.2050 -55.7794 30655.4943 56.7079 123.0249
ENERGY: 1200000 2.6364 5.0235 2.1760 0.0000 -10822.9379 1451.2913 0.0000 0.0000 1731.0310 -7630.7797 291.5797 -9361.8107 -7564.2484 302.5965 -150.4772 -74.8574 30698.3684 19.2712 80.6388
ENERGY: 1500000 3.3129 6.8200 4.8801 0.0000 -10757.4539 1400.2860 0.0000 0.0000 1796.0052 -7546.1497 302.5242 -9342.1549 -7567.2484 302.2697 -46.3905 -44.2882 30370.7968 38.5959 96.1040
TCL: Running FEP window  17: Lambda1 0.8000000000000002 Lambda2 0.8500000000000002 [dLambda 0.050000000000000044]
TCL: Setting parameter firsttimestep to 0
TCL: Setting parameter alchLambda to 0.8000000000000002
Info: NONBONDED TABLE R-SQUARED SPACING: 0.0625
Info: NONBONDED TABLE SIZE: 705 POINTS
TCL: Setting parameter alchLambda2 to 0.8500000000000002
Info: NONBONDED TABLE R-SQUARED SPACING: 0.0625
Info: NONBONDED TABLE SIZE: 705 POINTS
TCL: Running for 1500000 steps
ETITLE: TS BOND ANGLE DIHED IMPRP ELECT VDW BOUNDARY MISC KINETIC TOTAL TEMP POTENTIAL TOTALAVG TEMPAVG PRESSURE GPRESSURE VOLUME PRESSAVG GPRESSAVG
ENERGY: 0 3.3129 6.8200 4.8801 0.0000 -10758.1099 1400.0029 0.0000 0.0000 1795.1137 -7547.9803 302.3740 -9343.0941 -7547.9803 302.3740 -115.1281 -36.6802 30370.7968 -115.1281 -36.6802
ENERGY: 300000 5.6346 4.1168 1.8180 0.0000 -10812.8372 1423.8290 0.0000 0.0000 1760.0890 -7617.3499 296.4743 -9377.4389 -7581.6512 298.2404 -298.2853 -313.3603 30944.1479 -284.4673 -235.2505
ENERGY: 600000 3.2887 5.1806 2.7251 0.0000 -10793.0888 1471.2542 0.0000 0.0000 1744.8433 -7565.7968 293.9063 -9310.6401 -7567.3903 298.7002 -11.4447 54.8351 31282.3457 -156.5259 -101.7267
ENERGY: 900000 0.6789 5.5971 3.4124 0.0000 -10904.1744 1530.4689 0.0000 0.0000 1814.1502 -7549.8669 305.5806 -9364.0171 -7566.3980 300.1117 764.3659 846.7080 30342.2225 -100.4577 -37.5616
ENERGY: 1200000 5.5059 5.8022 6.6218 0.0000 -10724.0486 1363.6843 0.0000 0.0000 1782.2669 -7560.1676 300.2100 -9342.4345 -7560.3328 300.8412 -1036.6518 -921.4968 31306.9929 -237.2534 -176.8006
ENERGY: 1500000 2.2566 3.3730 3.6978 0.0000 -10892.8615 1480.3053 0.0000 0.0000 1802.6650 -7600.5638 303.6460 -9403.2289 -7574.9414 299.7958 57.7561 84.8729 31001.9079 -285.0919 -224.6036
TCL: Running FEP window  18: Lambda1 0.8500000000000002 Lambda2 0.9000000000000002 [dLambda 0.050000000000000044]
TCL: Setting parameter firsttimestep to 0
TCL: Setting parameter alchLambda to 0.8500000000000002
Info: NONBONDED TABLE R-SQUARED SPACING: 0.0625
Info: NONBONDED TABLE SIZE: 705 POINTS
TCL: Setting parameter alchLambda2 to 0.9000000000000002
Info: NONBONDED TABLE R-SQUARED SPACING: 0.0625
Info: NONBONDED TABLE SIZE: 705 POINTS
TCL: Running for 1500000 steps
ETITLE: TS BOND ANGLE DIHED IMPRP ELECT VDW BOUNDARY MISC KINETIC TOTAL TEMP POTENTIAL TOTALAVG TEMPAVG PRESSURE GPRESSURE VOLUME PRESSAVG GPRESSAVG
ENERGY: 0 2.2566 3.3730 3.6978 0.0000 -10894.8771 1480.6476 0.0000 0.0000 1801.7371 -7603.1650 303.4896 -9404.9020 -7603.1650 303.4896 15.4812 91.2306 31001.9079 15.4812 91.2306
ENERGY: 300000 2.3569 4.2847 4.9915 0.0000 -10877.9035 1410.1858 0.0000 0.0000 1766.6650 -7689.4197 297.5820 -9456.0848 -7607.3296 301.7970 -434.4989 -361.5021 30484.5719 -235.5415 -163.9154
ENERGY: 600000 3.8439 4.8300 3.6426 0.0000 -10979.6608 1563.4526 0.0000 0.0000 1732.7127 -7671.1791 291.8630 -9403.8918 -7615.6380 299.5557 699.4006 757.2300 30324.7160 18.0016 84.0595
ENERGY: 900000 4.2681 6.0949 6.2367 0.0000 -10950.5539 1544.8097 0.0000 0.0000 1749.3834 -7639.7611 294.6710 -9389.1445 -7619.1176 298.8182 960.7246 1082.7218 30169.0526 120.6716 186.9129
ENERGY: 1200000 2.1722 4.6960 1.6631 0.0000 -11039.8626 1612.9708 0.0000 0.0000 1815.3177 -7603.0429 305.7772 -9418.3606 -7615.1959 299.8346 1013.9589 1098.0542 30903.8960 146.3962 212.0850
ENERGY: 1500000 1.7432 4.6769 3.7096 0.0000 -10921.9171 1461.4563 0.0000 0.0000 1736.5071 -7713.8239 292.5021 -9450.3310 -7619.1641 299.7284 -93.3298 -15.8472 30257.8376 112.7843 183.5271
TCL: Running FEP window  19: Lambda1 0.9000000000000002 Lambda2 0.9500000000000003 [dLambda 0.050000000000000044]
TCL: Setting parameter firsttimestep to 0
TCL: Setting parameter alchLambda to 0.9000000000000002
Info: NONBONDED TABLE R-SQUARED SPACING: 0.0625
Info: NONBONDED TABLE SIZE: 705 POINTS
TCL: Setting parameter alchLambda2 to 0.9500000000000003
Info: NONBONDED TABLE R-SQUARED SPACING: 0.0625
Info: NONBONDED TABLE SIZE: 705 POINTS
TCL: Running for 1500000 steps
ETITLE: TS BOND ANGLE DIHED IMPRP ELECT VDW BOUNDARY MISC KINETIC TOTAL TEMP POTENTIAL TOTALAVG TEMPAVG PRESSURE GPRESSURE VOLUME PRESSAVG GPRESSAVG
ENERGY: 0 1.7432 4.6769 3.7096 0.0000 -10924.1001 1463.1640 0.0000 0.0000 1735.6038 -7715.2026 292.3500 -9450.8063 -7715.2026 292.3500 -74.1341 9.1302 30257.8376 -74.1341 9.1302
ENERGY: 300000 4.1178 2.9013 4.1682 0.0000 -10861.2968 1472.3781 0.0000 0.0000 1770.9489 -7606.7824 298.3036 -9377.7313 -7627.5652 298.0328 -156.8538 -11.6148 30487.6516 -96.6741 -4.2536
ENERGY: 600000 2.1590 7.0148 3.4288 0.0000 -10847.9305 1508.7636 0.0000 0.0000 1789.6663 -7536.8979 301.4564 -9326.5643 -7608.8115 298.7185 640.9565 661.8527 30675.9591 9.9721 92.1854
ENERGY: 900000 3.5154 5.0635 2.2593 0.0000 -10822.9078 1480.5893 0.0000 0.0000 1804.1852 -7527.2951 303.9020 -9331.4804 -7577.4877 301.0644 345.2365 390.3414 30594.4735 20.7189 101.7436
ENERGY: 1200000 3.4370 5.4916 0.6764 0.0000 -10783.3897 1439.7703 0.0000 0.0000 1844.4852 -7489.5292 310.6903 -9334.0144 -7561.3983 302.4475 340.8050 413.9543 30319.1736 50.9988 122.1419
ENERGY: 1500000 1.4724 7.7292 2.3209 0.0000 -10980.2173 1553.8024 0.0000 0.0000 1769.9003 -7644.9922 298.1270 -9414.8925 -7573.7524 301.7029 712.0343 816.0987 30435.5290 39.6041 110.9643
TCL: Running FEP window  20: Lambda1 0.9500000000000003 Lambda2 1.0    [dLambda 0.04999999999999971]
TCL: Setting parameter firsttimestep to 0
TCL: Setting parameter alchLambda to 0.9500000000000003
Info: NONBONDED TABLE R-SQUARED SPACING: 0.0625
Info: NONBONDED TABLE SIZE: 705 POINTS
TCL: Setting parameter alchLambda2 to 1.0
Info: NONBONDED TABLE R-SQUARED SPACING: 0.0625
Info: NONBONDED TABLE SIZE: 705 POINTS
TCL: Running for 1500000 steps
ETITLE: TS BOND ANGLE DIHED IMPRP ELECT VDW BOUNDARY MISC KINETIC TOTAL TEMP POTENTIAL TOTALAVG TEMPAVG PRESSURE GPRESSURE VOLUME PRESSAVG GPRESSAVG
ENERGY: 0 1.4724 7.7292 2.3209 0.0000 -10982.5528 1555.8839 0.0000 0.0000 1768.9886 -7646.1579 297.9734 -9415.1465 -7646.1579 297.9734 769.7617 846.2849 30435.5290 769.7617 846.2849
ENERGY: 300000 6.1306 6.4358 2.3116 0.0000 -10745.5210 1405.7554 0.0000 0.0000 1750.6752 -7574.2124 294.8886 -9324.8876 -7607.2849 299.7275 -466.8563 -418.1177 31074.9176 -175.8575 -132.3021
ENERGY: 600000 1.9477 7.2971 5.5491 0.0000 -10746.1997 1388.9864 0.0000 0.0000 1786.3604 -7556.0591 300.8996 -9342.4195 -7601.6271 300.1764 -582.7185 -504.9531 31125.1070 -131.3520 -83.8367
ENERGY: 900000 3.1450 4.7031 2.9241 0.0000 -10815.9108 1442.1417 0.0000 0.0000 1817.8120 -7545.1849 306.1974 -9362.9969 -7588.6922 301.9180 152.9852 166.3547 30279.5022 21.6017 68.2319
ENERGY: 1200000 1.8213 6.7509 2.0803 0.0000 -10804.4012 1453.7048 0.0000 0.0000 1740.1751 -7599.8688 293.1200 -9340.0438 -7586.4291 301.3697 -113.0154 2.2340 31132.0528 -10.4991 45.9277
ENERGY: 1500000 4.5023 5.1541 1.1143 0.0000 -10917.9437 1562.5827 0.0000 0.0000 1782.9682 -7561.6223 300.3282 -9344.5904 -7588.0749 300.8607 722.5366 803.6014 30776.7764 23.8622 77.8307
TCL: Exiting due to exit command.
