Info: SIMULATION PARAMETERS:
Info: TIMESTEP               2
Info: NUMBER OF STEPS        0
Info: STEPS PER CYCLE        10
Info: PERIODIC CELL BASIS 1  33.0398 0 0
Info: PERIODIC CELL BASIS 2  0 31.6382 0
Info: PERIODIC CELL BASIS 3  0 0 29.2031
Info: PERIODIC CELL CENTER   0 0 0
Info: WRAPPING WATERS AROUND PERIODIC BOUNDARIES ON OUTPUT.
Info: WRAPPING ALL CLUSTERS AROUND PERIODIC BOUNDARIES ON OUTPUT.
Info: FIRST LDB TIMESTEP     50
Info: LAST LDB TIMESTEP     -1
Info: HOM BACKGROUND SCALING 1
Info: PME BACKGROUND SCALING 1
Info: MIN ATOMS PER PATCH    40
Info: EMPTY PATCH LOAD       40 ATOMS
Info: VELOCITY FILE          mobley_5857_equil.vel
Info: CENTER OF MASS MOVING INITIALLY? NO
Info: DIELECTRIC             1
Info: EXCLUDE                SCALED ONE-FOUR
Info: 1-4 ELECTROSTATICS SCALED BY 0.833333
Info: MODIFIED 1-4 VDW PARAMETERS WILL BE USED
Info: DCD FILENAME           mobley_5857_prod.dcd
Info: DCD FREQUENCY          100000
Info: DCD FIRST STEP         100000
Info: DCD FILE WILL CONTAIN UNIT CELL DATA
Info: XST FILENAME           mobley_5857_prod.xst
Info: XST FREQUENCY          100000
Info: NO VELOCITY DCD OUTPUT
Info: NO FORCE DCD OUTPUT
Info: OUTPUT FILENAME        mobley_5857_prod
Info: BINARY OUTPUT FILES WILL BE USED
Info: RESTART FILENAME       mobley_5857_prod.restart
Info: RESTART FREQUENCY      100000
Info: BINARY RESTART FILES WILL BE USED
Info: CUTOFF                 9
Info: PAIRLIST DISTANCE      11
Info: PAIRLIST SHRINK RATE   0.01
Info: PAIRLIST GROW RATE     0.01
Info: PAIRLIST TRIGGER       0.3
Info: PAIRLISTS PER CYCLE    2
Info: PAIRLISTS ENABLED
Info: MARGIN                 2
Info: HYDROGEN GROUP CUTOFF  2.5
Info: PATCH DIMENSION        15.5
Info: ENERGY OUTPUT STEPS    100000
Info: ENERGY EVALUATION STEPS    100000
Info: OUTPUT ENERGY PRECISION 4
Info: CROSSTERM ENERGY INCLUDED IN DIHEDRAL
Info: TIMING OUTPUT STEPS    1000000
Info: PRESSURE OUTPUT STEPS  100000
Info: ALCHEMICAL FEP ON
Info: FEP CURRENT LAMBDA VALUE     1
Info: FEP COMPARISON LAMBDA VALUE  0.95
Info: FEP INTRA-ALCHEMICAL NON-BONDED INTERACTIONS WILL BE RETAINED
Info: FEP INTRA-ALCHEMICAL BONDED INTERACTIONS WILL BE RETAINED
Info: FEP VDW SHIFTING COEFFICIENT 5
Info: FEP ELEC. ACTIVE FOR ANNIHILATED PARTICLES BETWEEN LAMBDA = 0 AND LAMBDA = 0.5
Info: FEP ELEC. ACTIVE FOR EXNIHILATED PARTICLES BETWEEN LAMBDA = 0.5 AND LAMBDA = 1
Info: FEP VDW ACTIVE FOR ANNIHILATED PARTICLES BETWEEN LAMBDA = 0 AND LAMBDA = 1
Info: FEP VDW ACTIVE FOR EXNIHILATED PARTICLES BETWEEN LAMBDA = 0 AND LAMBDA = 1
Info: FEP BOND ACTIVE FOR ANNIHILATED PARTICLES BETWEEN LAMBDA = 1 AND LAMBDA = 1
Info: FEP BOND ACTIVE FOR EXNIHILATED PARTICLES BETWEEN LAMBDA = 0 AND LAMBDA = 0
Info: LANGEVIN DYNAMICS ACTIVE
Info: LANGEVIN TEMPERATURE   300
Info: LANGEVIN USING BBK INTEGRATOR
Info: LANGEVIN DAMPING COEFFICIENT IS 1 INVERSE PS
Info: LANGEVIN DYNAMICS APPLIED TO HYDROGENS
Info: LANGEVIN PISTON PRESSURE CONTROL ACTIVE
Info:        TARGET PRESSURE IS 1.01325 BAR
Info:     OSCILLATION PERIOD IS 50 FS
Info:             DECAY TIME IS 25 FS
Info:     PISTON TEMPERATURE IS 300 K
Info:       PRESSURE CONTROL IS GROUP-BASED
Info:    INITIAL STRAIN RATE IS -0.000160457 -0.000160457 -0.000160457
Info:       CELL FLUCTUATION IS ISOTROPIC
Info: PARTICLE MESH EWALD (PME) ACTIVE
Info: PME TOLERANCE               1e-06
Info: PME EWALD COEFFICIENT       0.348832
Info: PME INTERPOLATION ORDER     4
Info: PME GRID DIMENSIONS         36 32 32
Info: PME MAXIMUM GRID SPACING    1
Info: PME CALCULATION WILL BE PERFORMED ON GPU
Info: FULL ELECTROSTATIC EVALUATION FREQUENCY      2
Info: USING VERLET I (r-RESPA) MTS SCHEME.
Info: C1 SPLITTING OF LONG RANGE ELECTROSTATICS
Info: PLACING ATOMS IN PATCHES BY HYDROGEN GROUPS
Info: RIGID BONDS TO HYDROGEN : ALL
Info:         ERROR TOLERANCE : 1e-08
Info:          MAX ITERATIONS : 100
Info: RIGID WATER USING SETTLE ALGORITHM
Info: RANDOM NUMBER SEED     1743607008
Info: USE HYDROGEN BONDS?    NO
Info: Using AMBER format force field!
Info: AMBER PARM FILE        mobley_5857.prmtop
Info: COORDINATE PDB         mobley_5857.pdb
Info: Exclusions will be read from PARM file!
Info: SCNB (VDW SCALING)     2
Info: USING ARITHMETIC MEAN TO COMBINE L-J SIGMA PARAMETERS
Info: BINARY COORDINATES     mobley_5857_equil.coor
Info: SUMMARY OF PARAMETERS:
Info: 6 BONDS
Info: 6 ANGLES
Info:   6 HARMONIC
Info:   0 COSINE-BASED
Info: 3 DIHEDRAL
Info: 0 IMPROPER
Info: 0 CROSSTERM
Info: 0 VDW
Info: 21 VDW_PAIRS
Info: 0 NBTHOLE_PAIRS
Info: To read alchdata from file: mobley_5857.pdb
Info: To read alchflag data from column: 5
Info: STRUCTURE SUMMARY:
Info: 2999 ATOMS
Info: 3000 BONDS
Info: 28 ANGLES
Info: 49 DIHEDRALS
Info: 0 IMPROPERS
Info: 0 CROSSTERMS
Info: 3062 EXCLUSIONS
Info: 2989 RIGID BONDS
Info: ALCH: 0 ATOMS TO DISAPPEAR IN FINAL STATE
Info: ALCH: 17 ATOMS TO APPEAR IN FINAL STATE
Info: 6008 DEGREES OF FREEDOM
Info: 1004 HYDROGEN GROUPS
Info: 3 ATOMS IN LARGEST HYDROGEN GROUP
Info: 1004 MIGRATION GROUPS
Info: 3 ATOMS IN LARGEST MIGRATION GROUP
Info: TOTAL MASS = 18037.1 amu
Info: TOTAL CHARGE = 0.000100004 e
Info: MASS DENSITY = 0.981176 g/cm^3
Info: ATOM DENSITY = 0.0982423 atoms/A^3
Info: ADDED 0 IMPLICIT EXCLUSIONS
Info: NONBONDED TABLE R-SQUARED SPACING: 0.0625
Info: NONBONDED TABLE SIZE: 705 POINTS
Info: REDUCING NUMBER OF PATCHES TO IMPROVE LOAD BALANCE
Info: REMOVING COM VELOCITY -0.005501 -0.0118281 -0.132139
Info: Use 3D box decompostion in PME FFT.
Info: Updated CUDA force table with 4096 elements.
Info: Updated CUDA LJ table with 6 x 6 elements.
Info: Found 18 unique exclusion lists needing 44 bytes
TCL: Running for 1500000 steps
ETITLE: TS BOND ANGLE DIHED IMPRP ELECT VDW BOUNDARY MISC KINETIC TOTAL TEMP POTENTIAL TOTALAVG TEMPAVG PRESSURE GPRESSURE VOLUME PRESSAVG GPRESSAVG
ENERGY: 0 3.0759 4.0177 6.1533 0.0000 -11034.2215 1587.3059 0.0000 0.0000 1798.2239 -7635.4448 301.2342 -9433.6687 -7635.4448 301.2342 1074.2499 1160.3610 30526.5781 1074.2499 1160.3610
ENERGY: 300000 2.1794 6.7389 5.3051 0.0000 -11057.7869 1542.5325 0.0000 0.0000 1766.1768 -7734.8541 295.8657 -9501.0309 -7609.9919 299.8734 621.7526 683.0082 30385.3922 338.3503 380.5196
ENERGY: 600000 1.9409 4.4929 4.9726 0.0000 -10813.0139 1410.8677 0.0000 0.0000 1814.5067 -7576.2331 303.9618 -9390.7398 -7608.6258 299.4129 -160.1208 -133.9750 30561.0001 50.6377 98.5020
ENERGY: 900000 3.9391 2.9994 5.6993 0.0000 -10944.9900 1489.9161 0.0000 0.0000 1781.8920 -7660.5442 298.4983 -9442.4362 -7615.1626 298.7597 13.4802 154.8845 30718.2164 -24.6390 36.1174
ENERGY: 1200000 1.7028 4.7755 5.0718 0.0000 -11000.3235 1547.8218 0.0000 0.0000 1775.4322 -7665.5195 297.4162 -9440.9517 -7611.3144 298.8621 662.0168 725.5325 30746.5671 2.4491 63.0894
ENERGY: 1500000 4.4579 2.2631 6.5763 0.0000 -10870.8929 1428.1020 0.0000 0.0000 1778.5656 -7650.9281 297.9410 -9429.4936 -7612.2115 298.9369 -454.1995 -428.5774 30820.1339 -7.2779 52.6821
TCL: Running FEP window   2: Lambda1 0.95   Lambda2 0.8999999999999999 [dLambda -0.050000000000000044]
TCL: Setting parameter firsttimestep to 0
TCL: Setting parameter alchLambda to 0.95
Info: NONBONDED TABLE R-SQUARED SPACING: 0.0625
Info: NONBONDED TABLE SIZE: 705 POINTS
TCL: Setting parameter alchLambda2 to 0.8999999999999999
Info: NONBONDED TABLE R-SQUARED SPACING: 0.0625
Info: NONBONDED TABLE SIZE: 705 POINTS
TCL: Running for 1500000 steps
ETITLE: TS BOND ANGLE DIHED IMPRP ELECT VDW BOUNDARY MISC KINETIC TOTAL TEMP POTENTIAL TOTALAVG TEMPAVG PRESSURE GPRESSURE VOLUME PRESSAVG GPRESSAVG
ENERGY: 0 4.4579 2.2631 6.5763 0.0000 -10869.8953 1427.4453 0.0000 0.0000 1777.7036 -7651.4490 297.7966 -9429.1526 -7651.4490 297.7966 -533.1343 -446.6668 30820.1339 -533.1343 -446.6668
ENERGY: 300000 4.1397 10.3868 5.4795 0.0000 -10802.4789 1364.0416 0.0000 0.0000 1849.6835 -7568.7479 309.8545 -9418.4313 -7618.1532 300.5931 -877.0330 -736.7396 31081.5721 -538.6988 -439.9623
ENERGY: 600000 3.0462 2.8962 6.1176 0.0000 -10793.8280 1444.2117 0.0000 0.0000 1770.3198 -7567.2365 296.5597 -9337.5562 -7599.8976 299.9155 -168.1358 -80.7855 31036.1519 -85.1277 -1.1732
ENERGY: 900000 1.1238 5.9702 4.5037 0.0000 -10920.3951 1498.2067 0.0000 0.0000 1784.1483 -7626.4422 298.8763 -9410.5906 -7606.3608 300.2483 389.1135 395.6390 30724.8162 -120.3041 -50.9916
ENERGY: 1200000 4.7834 2.7586 7.0521 0.0000 -10759.6728 1363.7850 0.0000 0.0000 1692.5093 -7688.7843 283.5251 -9381.2937 -7603.6916 299.4985 -1036.5905 -946.9246 31164.6216 -77.5047 -8.8787
ENERGY: 1500000 3.6625 3.2938 3.6905 0.0000 -10912.7998 1477.6664 0.0000 0.0000 1780.9693 -7643.5175 298.3437 -9424.4867 -7607.0332 299.5569 38.9815 63.0073 30659.1295 -74.0936 -8.5362
TCL: Running FEP window   3: Lambda1 0.8999999999999999 Lambda2 0.8499999999999999 [dLambda -0.050000000000000044]
TCL: Setting parameter firsttimestep to 0
TCL: Setting parameter alchLambda to 0.8999999999999999
Info: NONBONDED TABLE R-SQUARED SPACING: 0.0625
Info: NONBONDED TABLE SIZE: 705 POINTS
TCL: Setting parameter alchLambda2 to 0.8499999999999999
Info: NONBONDED TABLE R-SQUARED SPACING: 0.0625
Info: NONBONDED TABLE SIZE: 705 POINTS
TCL: Running for 1500000 steps
ETITLE: TS BOND ANGLE DIHED IMPRP ELECT VDW BOUNDARY MISC KINETIC TOTAL TEMP POTENTIAL TOTALAVG TEMPAVG PRESSURE GPRESSURE VOLUME PRESSAVG GPRESSAVG
ENERGY: 0 3.6625 3.2938 3.6905 0.0000 -10911.6004 1477.4559 0.0000 0.0000 1780.0760 -7643.4218 298.1941 -9423.4978 -7643.4218 298.1941 -41.3315 50.4675 30659.1295 -41.3315 50.4675
ENERGY: 300000 4.3202 3.7785 6.2723 0.0000 -10976.3328 1502.9416 0.0000 0.0000 1829.8285 -7629.1918 306.5285 -9459.0203 -7632.9898 301.5230 -22.1640 78.4155 30818.5369 -154.4185 -69.2761
ENERGY: 600000 2.1977 3.4081 3.4724 0.0000 -10811.3824 1444.9288 0.0000 0.0000 1791.9412 -7565.4342 300.1817 -9357.3755 -7633.4499 299.0419 -105.8146 -3.5303 31015.6397 -162.9472 -99.1502
ENERGY: 900000 6.0424 3.9043 2.2056 0.0000 -10705.4809 1393.2418 0.0000 0.0000 1736.0851 -7564.0017 290.8248 -9300.0867 -7619.6844 298.0605 -464.2263 -452.1570 31704.6172 -145.8076 -90.3957
ENERGY: 1200000 2.6253 3.5040 5.9801 0.0000 -10949.5591 1496.5586 0.0000 0.0000 1816.3490 -7624.5421 304.2704 -9440.8912 -7617.3114 298.4226 337.5317 399.4394 30629.4754 -161.6963 -102.4819
ENERGY: 1500000 1.8073 4.5671 3.9559 0.0000 -10695.5792 1354.4874 0.0000 0.0000 1784.1431 -7546.6184 298.8754 -9330.7614 -7605.3362 299.0053 -431.1219 -352.4348 30662.0614 -168.9878 -110.7315
TCL: Running FEP window   4: Lambda1 0.8499999999999999 Lambda2 0.7999999999999998 [dLambda -0.050000000000000044]
TCL: Setting parameter firsttimestep to 0
TCL: Setting parameter alchLambda to 0.8499999999999999
Info: NONBONDED TABLE R-SQUARED SPACING: 0.0625
Info: NONBONDED TABLE SIZE: 705 POINTS
TCL: Setting parameter alchLambda2 to 0.7999999999999998
Info: NONBONDED TABLE R-SQUARED SPACING: 0.0625
Info: NONBONDED TABLE SIZE: 705 POINTS
TCL: Running for 1500000 steps
ETITLE: TS BOND ANGLE DIHED IMPRP ELECT VDW BOUNDARY MISC KINETIC TOTAL TEMP POTENTIAL TOTALAVG TEMPAVG PRESSURE GPRESSURE VOLUME PRESSAVG GPRESSAVG
ENERGY: 0 1.8073 4.5671 3.9559 0.0000 -10693.7152 1353.2194 0.0000 0.0000 1783.2661 -7546.8994 298.7285 -9330.1655 -7546.8994 298.7285 -455.3965 -373.4776 30662.0614 -455.3965 -373.4776
ENERGY: 300000 4.9120 4.2539 1.5387 0.0000 -10819.7345 1464.4013 0.0000 0.0000 1769.8174 -7574.8112 296.4756 -9344.6285 -7597.7867 298.0389 100.5199 205.7924 30965.6476 -178.6557 -101.2990
ENERGY: 600000 1.9779 6.7198 3.8873 0.0000 -10914.0835 1498.1956 0.0000 0.0000 1760.8776 -7642.4254 294.9780 -9403.3030 -7600.8554 298.0878 276.1572 304.4885 31006.2035 -150.2208 -74.6209
ENERGY: 900000 4.2091 1.5712 4.2468 0.0000 -10974.6164 1492.9926 0.0000 0.0000 1776.3716 -7695.2250 297.5735 -9471.5966 -7602.2125 298.4891 25.1704 58.7731 30703.4963 -96.9303 -32.4327
ENERGY: 1200000 5.2866 3.1152 3.4516 0.0000 -10869.7881 1414.5527 0.0000 0.0000 1765.9621 -7677.4198 295.8297 -9443.3819 -7609.5525 299.2071 -154.4320 -143.3284 30308.4178 -42.5518 16.5430
ENERGY: 1500000 2.9418 6.4074 2.4525 0.0000 -10833.0964 1413.8593 0.0000 0.0000 1836.5138 -7570.9217 307.6484 -9407.4354 -7598.9524 300.4772 -453.3881 -417.1893 31324.7659 -115.8556 -57.1197
TCL: Running FEP window   5: Lambda1 0.7999999999999998 Lambda2 0.7499999999999998 [dLambda -0.050000000000000044]
TCL: Setting parameter firsttimestep to 0
TCL: Setting parameter alchLambda to 0.7999999999999998
Info: NONBONDED TABLE R-SQUARED SPACING: 0.0625
Info: NONBONDED TABLE SIZE: 705 POINTS
TCL: Setting parameter alchLambda2 to 0.7499999999999998
Info: NONBONDED TABLE R-SQUARED SPACING: 0.0625
Info: NONBONDED TABLE SIZE: 705 POINTS
TCL: Running for 1500000 steps
ETITLE: TS BOND ANGLE DIHED IMPRP ELECT VDW BOUNDARY MISC KINETIC TOTAL TEMP POTENTIAL TOTALAVG TEMPAVG PRESSURE GPRESSURE VOLUME PRESSAVG GPRESSAVG
ENERGY: 0 2.9418 6.4074 2.4525 0.0000 -10831.7536 1413.2786 0.0000 0.0000 1835.6425 -7571.0308 307.5024 -9406.6733 -7571.0308 307.5024 -500.4223 -428.9332 31324.7659 -500.4223 -428.9332
ENERGY: 300000 3.8355 3.5349 6.9983 0.0000 -10889.8774 1469.5772 0.0000 0.0000 1795.4577 -7610.4738 300.7708 -9405.9314 -7582.5880 305.4946 380.0537 449.4634 30477.5742 84.9436 161.9298
ENERGY: 600000 4.1218 3.4286 8.9693 0.0000 -10932.2994 1488.2947 0.0000 0.0000 1781.4581 -7646.0269 298.4256 -9427.4849 -7575.5682 304.8986 -111.6016 -41.9932 31157.7511 196.0414 257.1600
ENERGY: 900000 4.4121 2.6834 2.7264 0.0000 -10889.8421 1451.6968 0.0000 0.0000 1802.3338 -7625.9896 301.9226 -9428.3234 -7579.4229 303.6956 -11.8608 10.4363 30853.9749 115.2240 176.1632
ENERGY: 1200000 3.5265 9.4569 2.7912 0.0000 -10797.4033 1408.2750 0.0000 0.0000 1818.5606 -7554.7931 304.6409 -9373.3537 -7589.6566 302.6888 -579.2973 -553.3427 31161.9608 69.7658 124.7765
ENERGY: 1500000 3.5940 5.9110 4.7223 0.0000 -10883.7123 1465.4964 0.0000 0.0000 1807.0662 -7596.9225 302.7154 -9403.9887 -7587.9658 302.8114 12.2917 81.7487 31054.3960 134.5954 191.1346
TCL: Running FEP window   6: Lambda1 0.7499999999999998 Lambda2 0.6999999999999997 [dLambda -0.050000000000000044]
TCL: Setting parameter firsttimestep to 0
TCL: Setting parameter alchLambda to 0.7499999999999998
Info: NONBONDED TABLE R-SQUARED SPACING: 0.0625
Info: NONBONDED TABLE SIZE: 705 POINTS
TCL: Setting parameter alchLambda2 to 0.6999999999999997
Info: NONBONDED TABLE R-SQUARED SPACING: 0.0625
Info: NONBONDED TABLE SIZE: 705 POINTS
TCL: Running for 1500000 steps
ETITLE: TS BOND ANGLE DIHED IMPRP ELECT VDW BOUNDARY MISC KINETIC TOTAL TEMP POTENTIAL TOTALAVG TEMPAVG PRESSURE GPRESSURE VOLUME PRESSAVG GPRESSAVG
ENERGY: 0 3.5940 5.9110 4.7223 0.0000 -10882.9145 1465.5646 0.0000 0.0000 1806.1590 -7596.9636 302.5634 -9403.1226 -7596.9636 302.5634 -13.8007 75.8571 31054.3960 -13.8007 75.8571
ENERGY: 300000 6.1065 4.3303 1.5059 0.0000 -10692.6922 1394.0680 0.0000 0.0000 1793.1349 -7493.5466 300.3817 -9286.6815 -7562.7663 302.4224 -298.2578 -257.4202 31267.2596 7.7210 62.3090
ENERGY: 600000 4.7114 3.8795 1.9160 0.0000 -10836.9930 1441.8379 0.0000 0.0000 1809.5421 -7575.1061 303.1302 -9384.6482 -7578.8048 300.9689 -392.5104 -336.5706 31289.9307 -54.1317 -1.7911
ENERGY: 900000 3.7626 5.0413 4.9360 0.0000 -10757.6312 1415.7915 0.0000 0.0000 1801.4736 -7526.6262 301.7785 -9328.0998 -7587.9837 300.0805 12.5727 98.4991 31064.1061 -126.6164 -71.5283
ENERGY: 1200000 4.9378 2.9149 1.1336 0.0000 -10866.1716 1451.2249 0.0000 0.0000 1865.3735 -7540.5869 312.4829 -9405.9604 -7585.7042 300.5088 -88.6935 2.3514 30834.0715 -216.8611 -160.4128
ENERGY: 1500000 5.7452 4.0262 2.1954 0.0000 -10828.7879 1414.9844 0.0000 0.0000 1852.2140 -7549.6227 310.2785 -9401.8368 -7590.1501 300.5688 -462.0354 -393.7000 30787.2777 -260.9046 -201.5624
TCL: Running FEP window   7: Lambda1 0.6999999999999997 Lambda2 0.6499999999999997 [dLambda -0.050000000000000044]
TCL: Setting parameter firsttimestep to 0
TCL: Setting parameter alchLambda to 0.6999999999999997
Info: NONBONDED TABLE R-SQUARED SPACING: 0.0625
Info: NONBONDED TABLE SIZE: 705 POINTS
TCL: Setting parameter alchLambda2 to 0.6499999999999997
Info: NONBONDED TABLE R-SQUARED SPACING: 0.0625
Info: NONBONDED TABLE SIZE: 705 POINTS
TCL: Running for 1500000 steps
ETITLE: TS BOND ANGLE DIHED IMPRP ELECT VDW BOUNDARY MISC KINETIC TOTAL TEMP POTENTIAL TOTALAVG TEMPAVG PRESSURE GPRESSURE VOLUME PRESSAVG GPRESSAVG
ENERGY: 0 5.7452 4.0262 2.1954 0.0000 -10828.3869 1415.4967 0.0000 0.0000 1851.3291 -7549.5943 310.1302 -9400.9234 -7549.5943 310.1302 -479.9525 -395.3781 30787.2777 -479.9525 -395.3781
ENERGY: 300000 5.6130 5.1823 6.2052 0.0000 -10805.8527 1419.2102 0.0000 0.0000 1768.1106 -7601.5314 296.1897 -9369.6420 -7605.4603 300.4529 -243.8633 -174.1104 30998.3149 -365.7891 -287.3928
ENERGY: 600000 4.4568 1.6839 6.8693 0.0000 -10854.7085 1465.7512 0.0000 0.0000 1805.1254 -7570.8219 302.3903 -9375.9473 -7601.5133 301.1796 -74.3651 64.3779 31151.1431 -292.3551 -192.7890
ENERGY: 900000 6.1433 2.6129 4.5917 0.0000 -10769.0174 1347.0932 0.0000 0.0000 1814.0765 -7594.4998 303.8897 -9408.5763 -7602.4409 301.6140 -875.8648 -859.0978 30735.6304 -276.8598 -185.4705
ENERGY: 1200000 2.2312 4.7794 6.1177 0.0000 -10853.7855 1448.9531 0.0000 0.0000 1807.4837 -7584.2203 302.7853 -9391.7040 -7596.1450 301.5524 281.4929 425.3681 30475.0821 -130.7935 -42.7556
ENERGY: 1500000 1.5112 5.8223 3.2200 0.0000 -10974.0293 1570.3005 0.0000 0.0000 1758.5518 -7634.6235 294.5884 -9393.1753 -7599.1342 300.7087 653.1756 744.4867 30887.0623 -55.4015 23.8920
TCL: Running FEP window   8: Lambda1 0.6499999999999997 Lambda2 0.5999999999999996 [dLambda -0.050000000000000044]
TCL: Setting parameter firsttimestep to 0
TCL: Setting parameter alchLambda to 0.6499999999999997
Info: NONBONDED TABLE R-SQUARED SPACING: 0.0625
Info: NONBONDED TABLE SIZE: 705 POINTS
TCL: Setting parameter alchLambda2 to 0.5999999999999996
Info: NONBONDED TABLE R-SQUARED SPACING: 0.0625
Info: NONBONDED TABLE SIZE: 705 POINTS
TCL: Running for 1500000 steps
ETITLE: TS BOND ANGLE DIHED IMPRP ELECT VDW BOUNDARY MISC KINETIC TOTAL TEMP POTENTIAL TOTALAVG TEMPAVG PRESSURE GPRESSURE VOLUME PRESSAVG GPRESSAVG
ENERGY: 0 1.5112 5.8224 3.2200 0.0000 -10973.6207 1570.9036 0.0000 0.0000 1757.6498 -7634.5137 294.4373 -9392.1635 -7634.5137 294.4373 671.0358 740.9803 30887.0623 671.0358 740.9803
ENERGY: 300000 6.5693 2.1660 5.8516 0.0000 -10891.8795 1509.5443 0.0000 0.0000 1782.0332 -7585.7151 298.5219 -9367.7482 -7631.8980 299.1885 89.3311 175.1617 31347.0257 183.3948 246.7384
ENERGY: 600000 3.1324 4.1205 5.0582 0.0000 -10864.2164 1417.3732 0.0000 0.0000 1778.4765 -7656.0555 297.9261 -9434.5321 -7614.0428 300.0615 -448.6128 -420.3349 30710.3880 36.1768 98.3632
ENERGY: 900000 3.5315 6.6164 2.4936 0.0000 -10811.0550 1479.3539 0.0000 0.0000 1810.0671 -7508.9926 303.2181 -9319.0596 -7597.3895 300.9175 151.9136 284.5101 30785.2134 47.7729 118.3272
ENERGY: 1200000 1.9713 5.0288 2.9934 0.0000 -10753.1560 1408.7636 0.0000 0.0000 1794.2327 -7540.1662 300.5656 -9334.3989 -7592.8380 300.9209 -251.6046 -208.4198 30968.9177 -80.0137 -12.6425
ENERGY: 1500000 4.3857 3.8872 5.2039 0.0000 -11079.2474 1558.5262 0.0000 0.0000 1787.3151 -7719.9292 299.4068 -9507.2443 -7604.9356 300.3731 486.4541 547.5341 30499.5839 -70.0622 -0.9763
TCL: Running FEP window   9: Lambda1 0.5999999999999996 Lambda2 0.5499999999999996 [dLambda -0.050000000000000044]
TCL: Setting parameter firsttimestep to 0
TCL: Setting parameter alchLambda to 0.5999999999999996
Info: NONBONDED TABLE R-SQUARED SPACING: 0.0625
Info: NONBONDED TABLE SIZE: 705 POINTS
TCL: Setting parameter alchLambda2 to 0.5499999999999996
Info: NONBONDED TABLE R-SQUARED SPACING: 0.0625
Info: NONBONDED TABLE SIZE: 705 POINTS
TCL: Running for 1500000 steps
ETITLE: TS BOND ANGLE DIHED IMPRP ELECT VDW BOUNDARY MISC KINETIC TOTAL TEMP POTENTIAL TOTALAVG TEMPAVG PRESSURE GPRESSURE VOLUME PRESSAVG GPRESSAVG
ENERGY: 0 4.3857 3.8872 5.2039 0.0000 -11078.1080 1558.4300 0.0000 0.0000 1786.4383 -7719.7629 299.2599 -9506.2012 -7719.7629 299.2599 445.0085 541.2977 30499.5839 445.0085 541.2977
ENERGY: 300000 1.7423 3.3801 4.5165 0.0000 -10895.9115 1442.3730 0.0000 0.0000 1750.3468 -7693.5528 293.2139 -9443.8996 -7686.6493 293.8263 -186.6088 -133.8458 30662.6935 -109.6514 -50.4196
ENERGY: 600000 5.7630 4.1764 1.6677 0.0000 -10955.9356 1468.9383 0.0000 0.0000 1738.1325 -7737.2578 291.1678 -9475.3903 -7642.7608 296.9598 -460.4916 -379.8056 30889.9685 -73.8129 -9.2348
ENERGY: 900000 6.7952 3.9798 2.5193 0.0000 -10761.3760 1423.9767 0.0000 0.0000 1809.0099 -7515.0952 303.0410 -9324.1051 -7621.0896 298.2487 -305.9781 -200.1995 31080.1201 -72.3784 -7.0257
ENERGY: 1200000 2.8311 4.8460 3.0923 0.0000 -10631.5579 1371.9950 0.0000 0.0000 1765.5531 -7483.2403 295.7612 -9248.7934 -7601.5568 298.8728 -244.9006 -123.2198 30629.1941 -61.7449 6.8546
ENERGY: 1500000 3.5277 5.7525 4.0158 0.0000 -10909.3928 1484.1399 0.0000 0.0000 1776.2401 -7635.7168 297.5515 -9411.9569 -7594.6664 299.2486 253.5892 291.8598 30638.4545 -95.3387 -27.3602
TCL: Running FEP window  10: Lambda1 0.5499999999999996 Lambda2 0.4999999999999996 [dLambda -0.04999999999999999]
TCL: Setting parameter firsttimestep to 0
TCL: Setting parameter alchLambda to 0.5499999999999996
Info: NONBONDED TABLE R-SQUARED SPACING: 0.0625
Info: NONBONDED TABLE SIZE: 705 POINTS
TCL: Setting parameter alchLambda2 to 0.4999999999999996
Info: NONBONDED TABLE R-SQUARED SPACING: 0.0625
Info: NONBONDED TABLE SIZE: 705 POINTS
TCL: Running for 1500000 steps
ETITLE: TS BOND ANGLE DIHED IMPRP ELECT VDW BOUNDARY MISC KINETIC TOTAL TEMP POTENTIAL TOTALAVG TEMPAVG PRESSURE GPRESSURE VOLUME PRESSAVG GPRESSAVG
ENERGY: 0 3.5277 5.7525 4.0158 0.0000 -10908.4463 1483.4592 0.0000 0.0000 1775.3085 -7636.3826 297.3954 -9411.6911 -7636.3826 297.3954 202.4126 283.1977 30638.4545 202.4126 283.1977
ENERGY: 300000 6.2335 5.3971 2.8295 0.0000 -10834.8609 1353.6164 0.0000 0.0000 1807.8707 -7658.9137 302.8502 -9466.7844 -7656.4550 302.2900 -1051.0802 -967.9723 30518.3827 -385.7248 -299.6515
ENERGY: 600000 2.8494 3.6829 8.0231 0.0000 -10776.3753 1391.7853 0.0000 0.0000 1781.8364 -7588.1980 298.4890 -9370.0345 -7625.5503 301.6882 -749.1156 -741.3977 31019.8141 -395.7998 -332.2470
ENERGY: 900000 4.7832 5.5760 5.5161 0.0000 -10795.7295 1385.4083 0.0000 0.0000 1765.5206 -7628.9253 295.7558 -9394.4460 -7617.2356 300.4627 -889.4381 -827.4351 31479.0077 -478.6540 -421.9669
ENERGY: 1200000 2.8131 2.9893 2.5633 0.0000 -10699.2306 1378.4467 0.0000 0.0000 1732.6468 -7579.7714 290.2488 -9312.4182 -7615.3943 300.5837 -707.9795 -665.8610 31446.4564 -447.3406 -387.9801
ENERGY: 1500000 4.7939 3.7642 2.8238 0.0000 -10799.7811 1423.4213 0.0000 0.0000 1810.0138 -7554.9641 303.2092 -9364.9779 -7610.3133 300.7584 -492.1173 -407.8855 31398.5699 -439.4241 -376.1696
TCL: Running FEP window  11: Lambda1 0.4999999999999996 Lambda2 0.4499999999999996 [dLambda -0.04999999999999999]
TCL: Setting parameter firsttimestep to 0
TCL: Setting parameter alchLambda to 0.4999999999999996
Info: NONBONDED TABLE R-SQUARED SPACING: 0.0625
Info: NONBONDED TABLE SIZE: 705 POINTS
TCL: Setting parameter alchLambda2 to 0.4499999999999996
Info: NONBONDED TABLE R-SQUARED SPACING: 0.0625
Info: NONBONDED TABLE SIZE: 705 POINTS
TCL: Running for 1500000 steps
ETITLE: TS BOND ANGLE DIHED IMPRP ELECT VDW BOUNDARY MISC KINETIC TOTAL TEMP POTENTIAL TOTALAVG TEMPAVG PRESSURE GPRESSURE VOLUME PRESSAVG GPRESSAVG
ENERGY: 0 4.7939 3.7642 2.8238 0.0000 -10799.8471 1423.7956 0.0000 0.0000 1809.1513 -7555.5183 303.0647 -9364.6695 -7555.5183 303.0647 -484.3226 -415.8549 31398.5699 -484.3226 -415.8549
ENERGY: 300000 2.1572 4.0841 3.8931 0.0000 -10796.7189 1397.9707 0.0000 0.0000 1789.2962 -7599.3176 299.7386 -9388.6137 -7595.8825 302.8778 -683.2831 -593.0996 31248.8078 -644.9211 -570.0310
ENERGY: 600000 5.5260 4.4326 2.1115 0.0000 -10797.8856 1394.1328 0.0000 0.0000 1850.6909 -7540.9918 310.0233 -9391.6827 -7609.2789 301.8700 -538.2524 -483.9019 30759.5100 -610.8179 -528.9730
ENERGY: 900000 4.2857 9.5897 6.9530 0.0000 -10851.2192 1454.0812 0.0000 0.0000 1763.9808 -7612.3288 295.4978 -9376.3096 -7612.1484 300.2827 -146.9638 -102.0456 30758.5388 -400.0566 -334.6454
ENERGY: 1200000 5.7143 3.5410 3.7070 0.0000 -10951.7363 1588.7256 0.0000 0.0000 1721.3253 -7628.7230 288.3523 -9350.0483 -7603.0295 300.3069 935.5660 989.1736 31109.4566 -188.6756 -124.7969
ENERGY: 1500000 2.9152 9.6872 2.5329 0.0000 -10939.3363 1536.7804 0.0000 0.0000 1742.1663 -7645.2542 291.8435 -9387.4206 -7607.9628 300.3193 708.1135 798.8900 30435.6233 -84.2107 -12.5360
TCL: Running FEP window  12: Lambda1 0.4499999999999996 Lambda2 0.39999999999999963 [dLambda -0.04999999999999999]
TCL: Setting parameter firsttimestep to 0
TCL: Setting parameter alchLambda to 0.4499999999999996
Info: NONBONDED TABLE R-SQUARED SPACING: 0.0625
Info: NONBONDED TABLE SIZE: 705 POINTS
TCL: Setting parameter alchLambda2 to 0.39999999999999963
Info: NONBONDED TABLE R-SQUARED SPACING: 0.0625
Info: NONBONDED TABLE SIZE: 705 POINTS
TCL: Running for 1500000 steps
ETITLE: TS BOND ANGLE DIHED IMPRP ELECT VDW BOUNDARY MISC KINETIC TOTAL TEMP POTENTIAL TOTALAVG TEMPAVG PRESSURE GPRESSURE VOLUME PRESSAVG GPRESSAVG
ENERGY: 0 2.9152 9.6872 2.5329 0.0000 -10939.3347 1536.7908 0.0000 0.0000 1741.2438 -7646.1648 291.6890 -9387.4086 -7646.1648 291.6890 711.6768 792.4164 30435.6233 711.6768 792.4164
ENERGY: 300000 5.6637 5.0663 5.1257 0.0000 -10960.2245 1501.7530 0.0000 0.0000 1811.0837 -7631.5320 303.3884 -9442.6157 -7617.2142 302.1710 263.1307 308.9047 30166.7296 167.8039 245.5080
ENERGY: 600000 2.7677 5.3468 2.7374 0.0000 -10812.1175 1441.1279 0.0000 0.0000 1706.3014 -7653.8363 285.8355 -9360.1376 -7620.9240 299.3760 -388.2462 -325.4108 31188.9637 -20.1797 52.8051
ENERGY: 900000 5.1160 3.7201 3.6095 0.0000 -10925.1585 1492.9794 0.0000 0.0000 1801.6600 -7618.0734 301.8098 -9419.7335 -7615.6148 299.8135 -304.2388 -250.8444 31148.3799 -13.6588 52.2096
ENERGY: 1200000 1.0664 4.2104 2.6850 0.0000 -10838.1379 1440.7312 0.0000 0.0000 1823.4642 -7565.9807 305.4624 -9389.4449 -7602.5324 301.1771 -44.0115 0.2584 30573.6424 9.9940 72.0435
ENERGY: 1500000 3.3867 5.0685 2.4338 0.0000 -10970.0977 1525.8734 0.0000 0.0000 1808.5792 -7624.7560 302.9689 -9433.3352 -7607.6996 301.0626 431.5023 516.1340 30775.6118 -26.2287 37.1202
TCL: Running FEP window  13: Lambda1 0.39999999999999963 Lambda2 0.34999999999999964 [dLambda -0.04999999999999999]
TCL: Setting parameter firsttimestep to 0
TCL: Setting parameter alchLambda to 0.39999999999999963
Info: NONBONDED TABLE R-SQUARED SPACING: 0.0625
Info: NONBONDED TABLE SIZE: 705 POINTS
TCL: Setting parameter alchLambda2 to 0.34999999999999964
Info: NONBONDED TABLE R-SQUARED SPACING: 0.0625
Info: NONBONDED TABLE SIZE: 705 POINTS
TCL: Running for 1500000 steps
ETITLE: TS BOND ANGLE DIHED IMPRP ELECT VDW BOUNDARY MISC KINETIC TOTAL TEMP POTENTIAL TOTALAVG TEMPAVG PRESSURE GPRESSURE VOLUME PRESSAVG GPRESSAVG
ENERGY: 0 3.3867 5.0685 2.4338 0.0000 -10970.0976 1525.9995 0.0000 0.0000 1807.6761 -7625.5329 302.8176 -9433.2091 -7625.5329 302.8176 438.6091 512.9901 30775.6118 438.6091 512.9901
ENERGY: 300000 2.9584 3.1701 4.2521 0.0000 -10771.8658 1412.1768 0.0000 0.0000 1751.0618 -7598.2465 293.3337 -9349.3084 -7627.5401 294.0385 -582.7955 -551.2913 31180.9438 -308.8097 -229.8780
ENERGY: 600000 1.9284 9.2104 4.8472 0.0000 -10816.7277 1394.3422 0.0000 0.0000 1785.8363 -7620.5633 299.1590 -9406.3996 -7609.7265 296.8791 -916.9574 -804.5021 31341.8863 -369.4689 -282.9185
ENERGY: 900000 2.4229 4.1325 3.0790 0.0000 -10819.4118 1481.3820 0.0000 0.0000 1748.7195 -7579.6759 292.9413 -9328.3954 -7597.1564 296.2752 153.7186 210.2304 31152.8334 -270.2859 -193.2415
ENERGY: 1200000 3.1356 3.8592 3.2108 0.0000 -10839.9674 1465.1968 0.0000 0.0000 1780.0860 -7584.4790 298.1957 -9364.5650 -7600.0548 296.7473 -32.2607 27.1199 31209.1382 -231.6614 -154.0689
ENERGY: 1500000 3.6279 4.0511 6.3632 0.0000 -10770.2806 1484.8427 0.0000 0.0000 1795.2255 -7476.1701 300.7319 -9271.3957 -7594.4446 297.6486 397.7242 470.8457 30774.1580 -152.6016 -78.6717
TCL: Running FEP window  14: Lambda1 0.34999999999999964 Lambda2 0.29999999999999966 [dLambda -0.04999999999999999]
TCL: Setting parameter firsttimestep to 0
TCL: Setting parameter alchLambda to 0.34999999999999964
Info: NONBONDED TABLE R-SQUARED SPACING: 0.0625
Info: NONBONDED TABLE SIZE: 705 POINTS
TCL: Setting parameter alchLambda2 to 0.29999999999999966
Info: NONBONDED TABLE R-SQUARED SPACING: 0.0625
Info: NONBONDED TABLE SIZE: 705 POINTS
TCL: Running for 1500000 steps
ETITLE: TS BOND ANGLE DIHED IMPRP ELECT VDW BOUNDARY MISC KINETIC TOTAL TEMP POTENTIAL TOTALAVG TEMPAVG PRESSURE GPRESSURE VOLUME PRESSAVG GPRESSAVG
ENERGY: 0 3.6279 4.0511 6.3632 0.0000 -10770.2790 1485.3267 0.0000 0.0000 1794.3181 -7476.5920 300.5799 -9270.9102 -7476.5920 300.5799 379.1401 470.6016 30774.1580 379.1401 470.6016
ENERGY: 300000 3.2630 8.8156 4.9125 0.0000 -10730.2350 1356.8621 0.0000 0.0000 1826.3220 -7530.0598 305.9411 -9356.3818 -7568.2822 300.4470 -661.8842 -659.2072 31292.8098 -229.8511 -172.3309
ENERGY: 600000 4.9192 6.1142 3.5606 0.0000 -10674.1627 1297.1156 0.0000 0.0000 1797.9058 -7564.5473 301.1809 -9362.4532 -7585.3575 299.6366 -1346.5480 -1213.3131 31075.5914 -391.8994 -329.5905
ENERGY: 900000 2.6696 5.9952 4.4802 0.0000 -10878.8653 1516.8980 0.0000 0.0000 1764.6713 -7584.1509 295.6135 -9348.8223 -7595.1786 298.9347 383.0260 461.0290 30966.3964 -213.9234 -154.2811
ENERGY: 1200000 3.2864 4.6235 3.5549 0.0000 -10903.1112 1485.1122 0.0000 0.0000 1774.2982 -7632.2361 297.2262 -9406.5342 -7593.6802 299.8448 5.7028 142.1162 30768.3401 -88.5435 -24.1228
ENERGY: 1500000 5.6171 4.0141 2.4635 0.0000 -10986.9365 1501.4894 0.0000 0.0000 1829.5413 -7643.8110 306.4804 -9473.3523 -7588.8486 301.0759 199.4750 295.0428 30217.1516 -56.4380 3.2512
TCL: Running FEP window  15: Lambda1 0.29999999999999966 Lambda2 0.24999999999999967 [dLambda -0.04999999999999999]
TCL: Setting parameter firsttimestep to 0
TCL: Setting parameter alchLambda to 0.29999999999999966
Info: NONBONDED TABLE R-SQUARED SPACING: 0.0625
Info: NONBONDED TABLE SIZE: 705 POINTS
TCL: Setting parameter alchLambda2 to 0.24999999999999967
Info: NONBONDED TABLE R-SQUARED SPACING: 0.0625
Info: NONBONDED TABLE SIZE: 705 POINTS
TCL: Running for 1500000 steps
ETITLE: TS BOND ANGLE DIHED IMPRP ELECT VDW BOUNDARY MISC KINETIC TOTAL TEMP POTENTIAL TOTALAVG TEMPAVG PRESSURE GPRESSURE VOLUME PRESSAVG GPRESSAVG
ENERGY: 0 5.6171 4.0141 2.4635 0.0000 -10986.9368 1501.6386 0.0000 0.0000 1828.6384 -7644.5650 306.3291 -9473.2034 -7644.5650 306.3291 204.4948 289.9258 30217.1516 204.4948 289.9258
ENERGY: 300000 4.1781 2.9373 4.9778 0.0000 -10784.1750 1376.8919 0.0000 0.0000 1811.2768 -7583.9132 303.4208 -9395.1900 -7597.5420 304.5121 -741.0968 -704.7621 30864.9163 -125.9744 -74.5195
ENERGY: 600000 3.6003 6.2380 3.0987 0.0000 -10816.0457 1414.9215 0.0000 0.0000 1865.2384 -7522.9489 312.4603 -9388.1873 -7609.7215 304.0061 -488.6145 -430.6735 30973.8962 -234.8607 -174.2793
ENERGY: 900000 4.4726 10.3418 5.0237 0.0000 -10816.4063 1448.2314 0.0000 0.0000 1730.1123 -7618.2246 289.8243 -9348.3369 -7609.3513 301.7108 -208.7019 -129.6147 31067.4206 -205.5308 -143.1053
ENERGY: 1200000 3.3567 3.7882 3.4048 0.0000 -10931.2169 1491.7788 0.0000 0.0000 1748.4860 -7680.4024 292.9022 -9428.8884 -7617.6755 300.5801 -276.7965 -232.0829 31442.4875 -198.0806 -139.0443
ENERGY: 1500000 4.6479 6.5700 5.9590 0.0000 -10987.0804 1512.7304 0.0000 0.0000 1785.7369 -7671.4362 299.1424 -9457.1731 -7619.4572 300.6346 28.3293 85.3097 30730.7949 -181.1895 -119.5802
TCL: Running FEP window  16: Lambda1 0.24999999999999967 Lambda2 0.19999999999999968 [dLambda -0.04999999999999999]
TCL: Setting parameter firsttimestep to 0
TCL: Setting parameter alchLambda to 0.24999999999999967
Info: NONBONDED TABLE R-SQUARED SPACING: 0.0625
Info: NONBONDED TABLE SIZE: 705 POINTS
TCL: Setting parameter alchLambda2 to 0.19999999999999968
Info: NONBONDED TABLE R-SQUARED SPACING: 0.0625
Info: NONBONDED TABLE SIZE: 705 POINTS
TCL: Running for 1500000 steps
ETITLE: TS BOND ANGLE DIHED IMPRP ELECT VDW BOUNDARY MISC KINETIC TOTAL TEMP POTENTIAL TOTALAVG TEMPAVG PRESSURE GPRESSURE VOLUME PRESSAVG GPRESSAVG
ENERGY: 0 4.6479 6.5700 5.9590 0.0000 -10987.0793 1513.2998 0.0000 0.0000 1784.8561 -7671.7467 298.9948 -9456.6027 -7671.7467 298.9948 -8.9265 83.5254 30730.7949 -8.9265 83.5254
ENERGY: 300000 4.5021 4.8728 2.1632 0.0000 -10990.0841 1530.5101 0.0000 0.0000 1841.7242 -7606.3117 308.5212 -9448.0359 -7603.6938 300.7003 614.0934 660.2786 30482.1061 -62.8857 28.2348
ENERGY: 600000 4.2009 3.3339 3.7193 0.0000 -10977.5354 1518.5888 0.0000 0.0000 1746.5604 -7701.1322 292.5796 -9447.6927 -7616.6140 300.1035 549.3070 641.5288 30413.0647 40.4485 122.2275
ENERGY: 900000 2.8459 5.8770 3.4701 0.0000 -10938.0107 1502.8959 0.0000 0.0000 1829.1759 -7593.7458 306.4192 -9422.9218 -7610.0560 300.8643 265.4783 288.7787 30718.1577 34.2573 105.4416
ENERGY: 1200000 3.5378 4.1549 5.0674 0.0000 -10799.1931 1385.6361 0.0000 0.0000 1804.4857 -7596.3112 302.2831 -9400.7969 -7606.2082 300.3903 -558.2214 -521.0099 30904.1982 -11.8582 51.8654
ENERGY: 1500000 5.1061 6.0560 5.1904 0.0000 -10734.8532 1358.4826 0.0000 0.0000 1799.1070 -7560.9112 301.3821 -9360.0182 -7596.5279 300.6656 -913.9900 -868.0457 30829.3490 -26.7601 31.9934
TCL: Running FEP window  17: Lambda1 0.19999999999999968 Lambda2 0.1499999999999997 [dLambda -0.04999999999999999]
TCL: Setting parameter firsttimestep to 0
TCL: Setting parameter alchLambda to 0.19999999999999968
Info: NONBONDED TABLE R-SQUARED SPACING: 0.0625
Info: NONBONDED TABLE SIZE: 705 POINTS
TCL: Setting parameter alchLambda2 to 0.1499999999999997
Info: NONBONDED TABLE R-SQUARED SPACING: 0.0625
Info: NONBONDED TABLE SIZE: 705 POINTS
TCL: Running for 1500000 steps
ETITLE: TS BOND ANGLE DIHED IMPRP ELECT VDW BOUNDARY MISC KINETIC TOTAL TEMP POTENTIAL TOTALAVG TEMPAVG PRESSURE GPRESSURE VOLUME PRESSAVG GPRESSAVG
ENERGY: 0 5.1061 6.0560 5.1904 0.0000 -10734.8518 1358.5391 0.0000 0.0000 1798.2101 -7561.7501 301.2318 -9359.9602 -7561.7501 301.2318 -958.9631 -873.5515 30829.3490 -958.9631 -873.5515
ENERGY: 300000 3.1304 2.8750 2.4221 0.0000 -10863.5734 1477.4430 0.0000 0.0000 1765.9240 -7611.7789 295.8234 -9377.7029 -7624.8429 298.9741 86.2786 162.9018 30732.4330 -576.7266 -510.7240
ENERGY: 600000 2.9044 5.5306 1.8281 0.0000 -10907.1147 1497.9862 0.0000 0.0000 1818.4711 -7580.3942 304.6259 -9398.8654 -7609.2782 299.3444 174.3516 196.1927 31029.4422 -190.8120 -131.2986
ENERGY: 900000 3.1736 5.1370 2.0050 0.0000 -10946.2020 1578.4159 0.0000 0.0000 1724.8963 -7632.5741 288.9505 -9357.4704 -7609.0279 298.8617 834.8235 863.8094 31322.6009 -92.2428 -41.2239
ENERGY: 1200000 2.9917 3.7616 3.9496 0.0000 -10917.0742 1516.9868 0.0000 0.0000 1810.6691 -7578.7155 303.3190 -9389.3846 -7610.7419 299.3700 415.3223 517.2366 30646.3927 -56.6308 5.9751
ENERGY: 1500000 2.0530 5.7029 2.1944 0.0000 -10820.5967 1436.5540 0.0000 0.0000 1793.8079 -7580.2846 300.4944 -9374.0925 -7608.3048 299.9374 146.7173 179.5664 30511.6170 -83.6834 -22.6230
TCL: Running FEP window  18: Lambda1 0.1499999999999997 Lambda2 0.09999999999999969 [dLambda -0.05 ]
TCL: Setting parameter firsttimestep to 0
TCL: Setting parameter alchLambda to 0.1499999999999997
Info: NONBONDED TABLE R-SQUARED SPACING: 0.0625
Info: NONBONDED TABLE SIZE: 705 POINTS
TCL: Setting parameter alchLambda2 to 0.09999999999999969
Info: NONBONDED TABLE R-SQUARED SPACING: 0.0625
Info: NONBONDED TABLE SIZE: 705 POINTS
TCL: Running for 1500000 steps
ETITLE: TS BOND ANGLE DIHED IMPRP ELECT VDW BOUNDARY MISC KINETIC TOTAL TEMP POTENTIAL TOTALAVG TEMPAVG PRESSURE GPRESSURE VOLUME PRESSAVG GPRESSAVG
ENERGY: 0 2.0529 5.7029 2.1944 0.0000 -10820.5958 1436.4757 0.0000 0.0000 1792.9434 -7581.2265 300.3496 -9374.1699 -7581.2265 300.3496 88.1047 176.1904 30511.6170 88.1047 176.1904
ENERGY: 300000 3.2014 6.4420 10.0876 0.0000 -10993.0249 1515.5358 0.0000 0.0000 1785.7715 -7671.9866 299.1482 -9457.7581 -7641.0262 297.6959 22.4192 81.6014 30582.2995 -15.5491 62.4366
ENERGY: 600000 3.2467 3.7418 5.6170 0.0000 -10703.9248 1318.9585 0.0000 0.0000 1798.8311 -7573.5298 301.3359 -9372.3609 -7628.9225 299.1753 -1330.0266 -1268.4252 31422.4760 -114.1690 -39.3085
ENERGY: 900000 9.0092 7.4217 3.8824 0.0000 -10928.7510 1536.2828 0.0000 0.0000 1760.3515 -7611.8033 294.8899 -9372.1548 -7618.2674 298.1009 373.4442 499.6945 30480.1334 -99.4079 -25.2791
ENERGY: 1200000 5.6574 2.5995 7.9403 0.0000 -10839.3360 1407.3646 0.0000 0.0000 1795.1546 -7620.6194 300.7200 -9415.7741 -7613.5377 298.9418 -795.2941 -789.1334 31002.9230 -145.6497 -81.7457
ENERGY: 1500000 2.2759 3.6802 6.6732 0.0000 -10970.0694 1522.1760 0.0000 0.0000 1810.9552 -7624.3088 303.3669 -9435.2641 -7609.7721 300.0128 386.4359 428.4251 30506.4114 -101.5804 -41.3434
TCL: Running FEP window  19: Lambda1 0.09999999999999969 Lambda2 0.049999999999999684 [dLambda -0.05 ]
TCL: Setting parameter firsttimestep to 0
TCL: Setting parameter alchLambda to 0.09999999999999969
Info: NONBONDED TABLE R-SQUARED SPACING: 0.0625
Info: NONBONDED TABLE SIZE: 705 POINTS
TCL: Setting parameter alchLambda2 to 0.049999999999999684
Info: NONBONDED TABLE R-SQUARED SPACING: 0.0625
Info: NONBONDED TABLE SIZE: 705 POINTS
TCL: Running for 1500000 steps
ETITLE: TS BOND ANGLE DIHED IMPRP ELECT VDW BOUNDARY MISC KINETIC TOTAL TEMP POTENTIAL TOTALAVG TEMPAVG PRESSURE GPRESSURE VOLUME PRESSAVG GPRESSAVG
ENERGY: 0 2.2759 3.6802 6.6732 0.0000 -10970.0694 1521.0856 0.0000 0.0000 1810.0709 -7626.2836 303.2187 -9436.3545 -7626.2836 303.2187 339.8059 423.7132 30506.4114 339.8059 423.7132
ENERGY: 300000 3.5602 3.3784 4.5779 0.0000 -10955.6710 1520.1172 0.0000 0.0000 1746.4788 -7677.5585 292.5660 -9424.0373 -7636.3429 296.9665 239.5457 255.5576 30829.7430 114.1320 167.9988
ENERGY: 600000 5.2919 5.4507 6.3441 0.0000 -10909.2718 1467.5902 0.0000 0.0000 1808.9560 -7615.6389 303.0320 -9424.5948 -7642.2108 297.3512 -229.8765 -207.1001 30771.7990 -77.0032 -22.5238
ENERGY: 900000 2.7452 5.4092 3.2820 0.0000 -10939.7025 1560.9019 0.0000 0.0000 1764.9007 -7602.4635 295.6519 -9367.3643 -7625.7801 298.2366 948.3975 974.1918 30842.8819 -15.2138 39.6212
ENERGY: 1200000 3.7789 2.5007 3.1237 0.0000 -10881.8390 1494.2163 0.0000 0.0000 1798.5127 -7579.7067 301.2825 -9378.2195 -7626.3866 298.0200 111.3204 157.7004 30638.1264 -18.3094 37.7076
ENERGY: 1500000 4.4791 4.7233 2.8176 0.0000 -10881.3346 1479.3291 0.0000 0.0000 1810.8335 -7579.1519 303.3465 -9389.9854 -7615.6385 299.1853 -23.3757 -19.8295 31063.5323 -48.7707 6.3052
TCL: Running FEP window  20: Lambda1 0.049999999999999684 Lambda2 0.0    [dLambda -0.049999999999999684]
TCL: Setting parameter firsttimestep to 0
TCL: Setting parameter alchLambda to 0.049999999999999684
Info: NONBONDED TABLE R-SQUARED SPACING: 0.0625
Info: NONBONDED TABLE SIZE: 705 POINTS
TCL: Setting parameter alchLambda2 to 0.0
Info: NONBONDED TABLE R-SQUARED SPACING: 0.0625
Info: NONBONDED TABLE SIZE: 705 POINTS
TCL: Running for 1500000 steps
ETITLE: TS BOND ANGLE DIHED IMPRP ELECT VDW BOUNDARY MISC KINETIC TOTAL TEMP POTENTIAL TOTALAVG TEMPAVG PRESSURE GPRESSURE VOLUME PRESSAVG GPRESSAVG
ENERGY: 0 4.4791 4.7233 2.8176 0.0000 -10881.3363 1478.5891 0.0000 0.0000 1809.9816 -7580.7456 303.2038 -9390.7272 -7580.7456 303.2038 -101.5097 -20.3609 31063.5323 -101.5097 -20.3609
ENERGY: 300000 6.7045 4.9905 4.0229 0.0000 -10863.0758 1416.8415 0.0000 0.0000 1811.3045 -7619.2119 303.4254 -9430.5164 -7603.8583 301.0354 -721.5712 -658.7910 30938.4878 -158.6336 -106.0140
ENERGY: 600000 3.6476 3.3195 5.5725 0.0000 -10825.7652 1427.7473 0.0000 0.0000 1779.8391 -7605.6392 298.1544 -9385.4783 -7603.3748 300.7684 -318.8413 -243.4609 30704.3841 -260.0498 -197.7007
ENERGY: 900000 2.9806 3.8982 3.2500 0.0000 -10735.3461 1408.3377 0.0000 0.0000 1755.1024 -7561.7772 294.0106 -9316.8796 -7613.9640 298.2737 -576.7925 -496.8865 31226.9197 -219.1184 -154.5744
ENERGY: 1200000 3.3767 6.8015 5.3696 0.0000 -10805.9196 1397.7321 0.0000 0.0000 1755.6979 -7636.9418 294.1103 -9392.6397 -7624.7356 297.7568 -670.7980 -652.5342 30542.3769 -238.2002 -177.9357
ENERGY: 1500000 2.2994 4.3443 3.3484 0.0000 -10826.8040 1435.7521 0.0000 0.0000 1756.0674 -7624.9924 294.1722 -9381.0598 -7620.4592 297.5076 -508.0643 -450.6800 31167.9779 -235.9601 -174.9227
TCL: Exiting due to exit command.
