Info: SIMULATION PARAMETERS:
Info: TIMESTEP               2
Info: NUMBER OF STEPS        0
Info: STEPS PER CYCLE        10
Info: PERIODIC CELL BASIS 1  30.7645 0 0
Info: PERIODIC CELL BASIS 2  0 29.2942 0
Info: PERIODIC CELL BASIS 3  0 0 32.932
Info: PERIODIC CELL CENTER   0 0 0
Info: WRAPPING WATERS AROUND PERIODIC BOUNDARIES ON OUTPUT.
Info: WRAPPING ALL CLUSTERS AROUND PERIODIC BOUNDARIES ON OUTPUT.
Info: FIRST LDB TIMESTEP     50
Info: LAST LDB TIMESTEP     -1
Info: HOM BACKGROUND SCALING 1
Info: PME BACKGROUND SCALING 1
Info: MIN ATOMS PER PATCH    40
Info: EMPTY PATCH LOAD       40 ATOMS
Info: VELOCITY FILE          mobley_5518547_equil.vel
Info: CENTER OF MASS MOVING INITIALLY? NO
Info: DIELECTRIC             1
Info: EXCLUDE                SCALED ONE-FOUR
Info: 1-4 ELECTROSTATICS SCALED BY 0.833333
Info: MODIFIED 1-4 VDW PARAMETERS WILL BE USED
Info: DCD FILENAME           mobley_5518547_prod.dcd
Info: DCD FREQUENCY          100000
Info: DCD FIRST STEP         100000
Info: DCD FILE WILL CONTAIN UNIT CELL DATA
Info: XST FILENAME           mobley_5518547_prod.xst
Info: XST FREQUENCY          100000
Info: NO VELOCITY DCD OUTPUT
Info: NO FORCE DCD OUTPUT
Info: OUTPUT FILENAME        mobley_5518547_prod
Info: BINARY OUTPUT FILES WILL BE USED
Info: RESTART FILENAME       mobley_5518547_prod.restart
Info: RESTART FREQUENCY      100000
Info: BINARY RESTART FILES WILL BE USED
Info: CUTOFF                 9
Info: PAIRLIST DISTANCE      11
Info: PAIRLIST SHRINK RATE   0.01
Info: PAIRLIST GROW RATE     0.01
Info: PAIRLIST TRIGGER       0.3
Info: PAIRLISTS PER CYCLE    2
Info: PAIRLISTS ENABLED
Info: MARGIN                 2
Info: HYDROGEN GROUP CUTOFF  2.5
Info: PATCH DIMENSION        15.5
Info: ENERGY OUTPUT STEPS    100000
Info: ENERGY EVALUATION STEPS    100000
Info: OUTPUT ENERGY PRECISION 4
Info: CROSSTERM ENERGY INCLUDED IN DIHEDRAL
Info: TIMING OUTPUT STEPS    1000000
Info: PRESSURE OUTPUT STEPS  100000
Info: ALCHEMICAL FEP ON
Info: FEP CURRENT LAMBDA VALUE     1
Info: FEP COMPARISON LAMBDA VALUE  0.95
Info: FEP INTRA-ALCHEMICAL NON-BONDED INTERACTIONS WILL BE RETAINED
Info: FEP INTRA-ALCHEMICAL BONDED INTERACTIONS WILL BE RETAINED
Info: FEP VDW SHIFTING COEFFICIENT 5
Info: FEP ELEC. ACTIVE FOR ANNIHILATED PARTICLES BETWEEN LAMBDA = 0 AND LAMBDA = 0.5
Info: FEP ELEC. ACTIVE FOR EXNIHILATED PARTICLES BETWEEN LAMBDA = 0.5 AND LAMBDA = 1
Info: FEP VDW ACTIVE FOR ANNIHILATED PARTICLES BETWEEN LAMBDA = 0 AND LAMBDA = 1
Info: FEP VDW ACTIVE FOR EXNIHILATED PARTICLES BETWEEN LAMBDA = 0 AND LAMBDA = 1
Info: FEP BOND ACTIVE FOR ANNIHILATED PARTICLES BETWEEN LAMBDA = 1 AND LAMBDA = 1
Info: FEP BOND ACTIVE FOR EXNIHILATED PARTICLES BETWEEN LAMBDA = 0 AND LAMBDA = 0
Info: LANGEVIN DYNAMICS ACTIVE
Info: LANGEVIN TEMPERATURE   300
Info: LANGEVIN USING BBK INTEGRATOR
Info: LANGEVIN DAMPING COEFFICIENT IS 1 INVERSE PS
Info: LANGEVIN DYNAMICS APPLIED TO HYDROGENS
Info: LANGEVIN PISTON PRESSURE CONTROL ACTIVE
Info:        TARGET PRESSURE IS 1.01325 BAR
Info:     OSCILLATION PERIOD IS 50 FS
Info:             DECAY TIME IS 25 FS
Info:     PISTON TEMPERATURE IS 300 K
Info:       PRESSURE CONTROL IS GROUP-BASED
Info:    INITIAL STRAIN RATE IS 7.11595e-05 7.11595e-05 7.11595e-05
Info:       CELL FLUCTUATION IS ISOTROPIC
Info: PARTICLE MESH EWALD (PME) ACTIVE
Info: PME TOLERANCE               1e-06
Info: PME EWALD COEFFICIENT       0.348832
Info: PME INTERPOLATION ORDER     4
Info: PME GRID DIMENSIONS         32 32 36
Info: PME MAXIMUM GRID SPACING    1
Info: PME CALCULATION WILL BE PERFORMED ON GPU
Info: FULL ELECTROSTATIC EVALUATION FREQUENCY      2
Info: USING VERLET I (r-RESPA) MTS SCHEME.
Info: C1 SPLITTING OF LONG RANGE ELECTROSTATICS
Info: PLACING ATOMS IN PATCHES BY HYDROGEN GROUPS
Info: RIGID BONDS TO HYDROGEN : ALL
Info:         ERROR TOLERANCE : 1e-08
Info:          MAX ITERATIONS : 100
Info: RIGID WATER USING SETTLE ALGORITHM
Info: RANDOM NUMBER SEED     1743606139
Info: USE HYDROGEN BONDS?    NO
Info: Using AMBER format force field!
Info: AMBER PARM FILE        mobley_5518547.prmtop
Info: COORDINATE PDB         mobley_5518547.pdb
Info: Exclusions will be read from PARM file!
Info: SCNB (VDW SCALING)     2
Info: USING ARITHMETIC MEAN TO COMBINE L-J SIGMA PARAMETERS
Info: BINARY COORDINATES     mobley_5518547_equil.coor
Info: SUMMARY OF PARAMETERS:
Info: 8 BONDS
Info: 8 ANGLES
Info:   8 HARMONIC
Info:   0 COSINE-BASED
Info: 4 DIHEDRAL
Info: 0 IMPROPER
Info: 0 CROSSTERM
Info: 0 VDW
Info: 36 VDW_PAIRS
Info: 0 NBTHOLE_PAIRS
Info: To read alchdata from file: mobley_5518547.pdb
Info: To read alchflag data from column: 5
Info: STRUCTURE SUMMARY:
Info: 2924 ATOMS
Info: 2924 BONDS
Info: 27 ANGLES
Info: 41 DIHEDRALS
Info: 0 IMPROPERS
Info: 0 CROSSTERMS
Info: 2982 EXCLUSIONS
Info: 2916 RIGID BONDS
Info: ALCH: 0 ATOMS TO DISAPPEAR IN FINAL STATE
Info: ALCH: 17 ATOMS TO APPEAR IN FINAL STATE
Info: 5856 DEGREES OF FREEDOM
Info: 977 HYDROGEN GROUPS
Info: 4 ATOMS IN LARGEST HYDROGEN GROUP
Info: 977 MIGRATION GROUPS
Info: 4 ATOMS IN LARGEST MIGRATION GROUP
Info: TOTAL MASS = 17564.7 amu
Info: TOTAL CHARGE = -0.00029999 e
Info: MASS DENSITY = 0.982763 g/cm^3
Info: ATOM DENSITY = 0.0985206 atoms/A^3
Info: ADDED 0 IMPLICIT EXCLUSIONS
Info: NONBONDED TABLE R-SQUARED SPACING: 0.0625
Info: NONBONDED TABLE SIZE: 705 POINTS
Info: REMOVING COM VELOCITY 0.0215148 -0.00195358 -0.161437
Info: Use 3D box decompostion in PME FFT.
Info: Updated CUDA force table with 4096 elements.
Info: Updated CUDA LJ table with 8 x 8 elements.
Info: Found 19 unique exclusion lists needing 48 bytes
TCL: Running for 1500000 steps
ETITLE: TS BOND ANGLE DIHED IMPRP ELECT VDW BOUNDARY MISC KINETIC TOTAL TEMP POTENTIAL TOTALAVG TEMPAVG PRESSURE GPRESSURE VOLUME PRESSAVG GPRESSAVG
ENERGY: 0 0.6821 9.1890 3.8736 0.0000 -10636.3631 1419.7418 0.0000 0.0000 1823.6065 -7379.2699 313.4155 -9202.8765 -7379.2699 313.4155 181.8542 273.6782 29679.0623 181.8542 273.6782
ENERGY: 300000 3.4599 7.7899 4.0934 0.0000 -10635.8998 1392.3748 0.0000 0.0000 1733.8355 -7494.3463 297.9869 -9228.1818 -7442.8019 302.2126 -393.8377 -309.0070 30019.4945 38.7042 115.1476
ENERGY: 600000 3.2286 3.5347 5.9608 0.0000 -10707.6557 1416.9996 0.0000 0.0000 1737.9848 -7539.9471 298.7000 -9277.9319 -7460.1687 300.4812 -86.8164 23.5361 29760.9244 -81.8540 -5.8921
ENERGY: 900000 3.0627 10.0697 2.9030 0.0000 -10549.8373 1364.4457 0.0000 0.0000 1768.5704 -7400.7857 303.9567 -9169.3561 -7454.6120 301.2369 -410.1448 -333.5050 30021.7579 -166.0292 -84.9749
ENERGY: 1200000 1.1590 4.8421 1.3924 0.0000 -10590.1554 1457.2163 0.0000 0.0000 1809.5805 -7315.9652 311.0049 -9125.5457 -7450.7273 300.5724 530.8910 521.1372 30444.8668 -70.3060 3.8782
ENERGY: 1500000 1.5011 7.4209 4.6524 0.0000 -10658.8326 1473.0363 0.0000 0.0000 1771.5282 -7400.6937 304.4650 -9172.2219 -7436.5650 301.7724 482.6076 502.8862 29960.4828 -42.1194 25.2161
TCL: Running FEP window   2: Lambda1 0.95   Lambda2 0.8999999999999999 [dLambda -0.050000000000000044]
TCL: Setting parameter firsttimestep to 0
TCL: Setting parameter alchLambda to 0.95
Info: NONBONDED TABLE R-SQUARED SPACING: 0.0625
Info: NONBONDED TABLE SIZE: 705 POINTS
TCL: Setting parameter alchLambda2 to 0.8999999999999999
Info: NONBONDED TABLE R-SQUARED SPACING: 0.0625
Info: NONBONDED TABLE SIZE: 705 POINTS
TCL: Running for 1500000 steps
ETITLE: TS BOND ANGLE DIHED IMPRP ELECT VDW BOUNDARY MISC KINETIC TOTAL TEMP POTENTIAL TOTALAVG TEMPAVG PRESSURE GPRESSURE VOLUME PRESSAVG GPRESSAVG
ENERGY: 0 1.5011 7.4209 4.6524 0.0000 -10656.8024 1472.6973 0.0000 0.0000 1770.6651 -7399.8656 304.3167 -9170.5307 -7399.8656 304.3167 406.9864 488.7298 29960.4828 406.9864 488.7298
ENERGY: 300000 1.6367 5.0980 4.6175 0.0000 -10571.7810 1401.2886 0.0000 0.0000 1801.0833 -7358.0569 309.5445 -9159.1402 -7398.0408 305.0798 -228.6630 -213.8215 30374.2787 -138.7209 -90.4525
ENERGY: 600000 0.9114 5.9529 4.8077 0.0000 -10621.4543 1450.2528 0.0000 0.0000 1647.9544 -7511.5750 283.2269 -9159.5294 -7430.9897 302.2961 132.4020 198.5334 30132.8029 -178.5425 -116.4207
ENERGY: 900000 5.5373 6.4843 3.3051 0.0000 -10600.9326 1437.8555 0.0000 0.0000 1755.8615 -7391.8888 301.7724 -9147.7504 -7410.6476 303.6744 40.4362 149.2599 30316.2856 -230.5341 -155.4638
ENERGY: 1200000 3.3991 4.8201 4.8599 0.0000 -10663.8275 1501.1248 0.0000 0.0000 1731.8550 -7417.7687 297.6465 -9149.6237 -7419.5426 302.7487 950.1664 1004.2974 29738.8420 -129.9784 -60.7246
ENERGY: 1500000 2.3172 6.0091 4.4849 0.0000 -10602.4202 1412.1758 0.0000 0.0000 1769.4065 -7408.0266 304.1004 -9177.4331 -7422.2426 302.4438 -109.3763 -14.8105 29986.5922 -73.2147 -1.4713
TCL: Running FEP window   3: Lambda1 0.8999999999999999 Lambda2 0.8499999999999999 [dLambda -0.050000000000000044]
TCL: Setting parameter firsttimestep to 0
TCL: Setting parameter alchLambda to 0.8999999999999999
Info: NONBONDED TABLE R-SQUARED SPACING: 0.0625
Info: NONBONDED TABLE SIZE: 705 POINTS
TCL: Setting parameter alchLambda2 to 0.8499999999999999
Info: NONBONDED TABLE R-SQUARED SPACING: 0.0625
Info: NONBONDED TABLE SIZE: 705 POINTS
TCL: Running for 1500000 steps
ETITLE: TS BOND ANGLE DIHED IMPRP ELECT VDW BOUNDARY MISC KINETIC TOTAL TEMP POTENTIAL TOTALAVG TEMPAVG PRESSURE GPRESSURE VOLUME PRESSAVG GPRESSAVG
ENERGY: 0 2.3172 6.0091 4.4849 0.0000 -10601.4441 1412.2902 0.0000 0.0000 1768.5157 -7407.8269 303.9473 -9176.3427 -7407.8269 303.9473 -103.8268 -23.4450 29986.5922 -103.8268 -23.4450
ENERGY: 300000 2.6290 9.4228 5.2365 0.0000 -10589.8097 1379.1494 0.0000 0.0000 1709.6377 -7483.7343 293.8282 -9193.3720 -7449.3567 298.8674 -454.1660 -432.9071 30212.9659 -194.1827 -142.4973
ENERGY: 600000 5.4590 5.2281 2.9373 0.0000 -10580.5800 1404.4786 0.0000 0.0000 1694.4967 -7467.9802 291.2259 -9162.4769 -7441.2023 300.9585 -87.0284 -49.8272 29746.6739 -88.6761 -35.2212
ENERGY: 900000 1.7000 6.8626 7.7454 0.0000 -10510.3099 1388.5942 0.0000 0.0000 1712.3408 -7393.0669 294.2927 -9105.4077 -7434.6245 299.1271 -250.3781 -128.1295 30343.3760 -87.7395 -27.4465
ENERGY: 1200000 1.2047 5.9554 3.1321 0.0000 -10752.7076 1519.1580 0.0000 0.0000 1755.9781 -7467.2793 301.7925 -9223.2574 -7440.7296 299.1634 697.8195 766.0286 29845.8768 -14.1724 47.6151
ENERGY: 1500000 2.0673 2.9127 3.7379 0.0000 -10531.3724 1371.6740 0.0000 0.0000 1731.8259 -7419.1547 297.6415 -9150.9806 -7425.7153 299.2031 -432.5876 -373.2222 30240.3856 -25.1411 29.8421
TCL: Running FEP window   4: Lambda1 0.8499999999999999 Lambda2 0.7999999999999998 [dLambda -0.050000000000000044]
TCL: Setting parameter firsttimestep to 0
TCL: Setting parameter alchLambda to 0.8499999999999999
Info: NONBONDED TABLE R-SQUARED SPACING: 0.0625
Info: NONBONDED TABLE SIZE: 705 POINTS
TCL: Setting parameter alchLambda2 to 0.7999999999999998
Info: NONBONDED TABLE R-SQUARED SPACING: 0.0625
Info: NONBONDED TABLE SIZE: 705 POINTS
TCL: Running for 1500000 steps
ETITLE: TS BOND ANGLE DIHED IMPRP ELECT VDW BOUNDARY MISC KINETIC TOTAL TEMP POTENTIAL TOTALAVG TEMPAVG PRESSURE GPRESSURE VOLUME PRESSAVG GPRESSAVG
ENERGY: 0 2.0672 2.9127 3.7379 0.0000 -10529.4940 1370.8398 0.0000 0.0000 1730.9990 -7418.9374 297.4994 -9149.9364 -7418.9374 297.4994 -467.8636 -390.6894 30240.3856 -467.8636 -390.6894
ENERGY: 300000 3.8459 8.5398 4.3284 0.0000 -10619.7408 1445.1018 0.0000 0.0000 1688.2457 -7469.6792 290.1516 -9157.9249 -7449.1413 296.9727 29.8801 109.4018 30206.8179 -287.4633 -248.1539
ENERGY: 600000 3.0070 4.3739 3.0973 0.0000 -10703.4842 1457.7547 0.0000 0.0000 1724.0242 -7511.2271 296.3007 -9235.2512 -7452.9440 298.7425 68.5627 217.2481 29903.3021 -39.5444 17.6808
ENERGY: 900000 2.9783 4.4511 8.8777 0.0000 -10550.1500 1404.2029 0.0000 0.0000 1776.8308 -7352.8092 305.3763 -9129.6399 -7446.7201 298.9049 -502.4913 -378.1990 30620.3653 -74.6581 -11.7839
ENERGY: 1200000 2.7122 8.3428 3.1116 0.0000 -10717.4260 1471.6909 0.0000 0.0000 1784.7153 -7446.8531 306.7314 -9231.5685 -7445.5641 299.8951 604.0319 587.9373 29534.7228 -21.1375 37.6761
ENERGY: 1500000 3.1297 2.7795 3.8912 0.0000 -10576.7989 1375.8949 0.0000 0.0000 1721.6903 -7469.4134 295.8996 -9191.1037 -7449.7280 299.0148 -365.9519 -361.3318 30250.1040 -65.2458 -6.2531
TCL: Running FEP window   5: Lambda1 0.7999999999999998 Lambda2 0.7499999999999998 [dLambda -0.050000000000000044]
TCL: Setting parameter firsttimestep to 0
TCL: Setting parameter alchLambda to 0.7999999999999998
Info: NONBONDED TABLE R-SQUARED SPACING: 0.0625
Info: NONBONDED TABLE SIZE: 705 POINTS
TCL: Setting parameter alchLambda2 to 0.7499999999999998
Info: NONBONDED TABLE R-SQUARED SPACING: 0.0625
Info: NONBONDED TABLE SIZE: 705 POINTS
TCL: Running for 1500000 steps
ETITLE: TS BOND ANGLE DIHED IMPRP ELECT VDW BOUNDARY MISC KINETIC TOTAL TEMP POTENTIAL TOTALAVG TEMPAVG PRESSURE GPRESSURE VOLUME PRESSAVG GPRESSAVG
ENERGY: 0 3.1297 2.7795 3.8912 0.0000 -10575.5721 1375.8805 0.0000 0.0000 1720.7798 -7469.1115 295.7431 -9189.8913 -7469.1115 295.7431 -443.4900 -367.9721 30250.1040 -443.4900 -367.9721
ENERGY: 300000 2.6540 5.5972 2.1744 0.0000 -10573.7219 1396.7964 0.0000 0.0000 1757.2890 -7409.2109 302.0178 -9166.4999 -7486.7381 296.8593 -123.7936 -56.5140 30063.7824 -60.4368 2.9398
ENERGY: 600000 1.1275 4.2962 4.3019 0.0000 -10686.0447 1469.9468 0.0000 0.0000 1729.8821 -7476.4903 297.3075 -9206.3724 -7460.9638 298.3640 -80.6182 56.5882 30510.2896 -29.1579 32.9104
ENERGY: 900000 0.6297 4.4684 3.3313 0.0000 -10518.4067 1292.1089 0.0000 0.0000 1791.4823 -7426.3861 307.8944 -9217.8683 -7452.3860 298.8481 -1233.9647 -1107.9841 30341.7675 -144.2111 -79.6903
ENERGY: 1200000 1.1666 4.9250 4.5624 0.0000 -10780.6948 1581.1170 0.0000 0.0000 1708.6132 -7480.3106 293.6521 -9188.9238 -7450.3783 299.1431 1000.0263 1026.8711 30378.3816 -39.7251 15.2867
ENERGY: 1500000 6.3955 3.9534 3.3117 0.0000 -10594.6949 1417.1381 0.0000 0.0000 1673.0543 -7490.8418 287.5407 -9163.8961 -7451.3511 299.4605 -283.1132 -233.2545 30307.8166 -31.6858 26.2086
TCL: Running FEP window   6: Lambda1 0.7499999999999998 Lambda2 0.6999999999999997 [dLambda -0.050000000000000044]
TCL: Setting parameter firsttimestep to 0
TCL: Setting parameter alchLambda to 0.7499999999999998
Info: NONBONDED TABLE R-SQUARED SPACING: 0.0625
Info: NONBONDED TABLE SIZE: 705 POINTS
TCL: Setting parameter alchLambda2 to 0.6999999999999997
Info: NONBONDED TABLE R-SQUARED SPACING: 0.0625
Info: NONBONDED TABLE SIZE: 705 POINTS
TCL: Running for 1500000 steps
ETITLE: TS BOND ANGLE DIHED IMPRP ELECT VDW BOUNDARY MISC KINETIC TOTAL TEMP POTENTIAL TOTALAVG TEMPAVG PRESSURE GPRESSURE VOLUME PRESSAVG GPRESSAVG
ENERGY: 0 6.3955 3.9534 3.3117 0.0000 -10593.1068 1417.1840 0.0000 0.0000 1672.1844 -7490.0778 287.3912 -9162.2622 -7490.0778 287.3912 -307.3175 -239.0173 30307.8166 -307.3175 -239.0173
ENERGY: 300000 2.0601 9.4998 2.7583 0.0000 -10571.1984 1371.5959 0.0000 0.0000 1769.3504 -7415.9340 304.0907 -9185.2843 -7428.6317 300.1269 -474.8497 -416.8952 30244.2103 -39.3577 10.4457
ENERGY: 600000 2.7187 5.4823 2.7113 0.0000 -10564.2112 1439.2737 0.0000 0.0000 1770.6683 -7343.3569 304.3172 -9114.0252 -7406.0426 300.7809 348.0562 404.5169 30390.2332 34.3767 75.1154
ENERGY: 900000 1.4665 5.3998 3.9102 0.0000 -10722.1749 1528.0232 0.0000 0.0000 1742.9046 -7440.4706 299.5456 -9183.3752 -7398.4864 301.3426 847.7257 956.4825 30045.7933 136.9741 184.2056
ENERGY: 1200000 2.4304 8.5403 3.7285 0.0000 -10556.8271 1356.3451 0.0000 0.0000 1757.0736 -7428.7092 301.9808 -9185.7829 -7403.2466 301.1321 -554.1044 -480.5603 30157.8083 99.1324 147.1350
ENERGY: 1500000 4.1651 8.0387 2.9972 0.0000 -10647.1627 1436.2021 0.0000 0.0000 1761.8409 -7433.9186 302.8001 -9195.7595 -7420.9511 300.9745 -142.9383 -3.7360 30281.5362 30.2491 85.8900
TCL: Running FEP window   7: Lambda1 0.6999999999999997 Lambda2 0.6499999999999997 [dLambda -0.050000000000000044]
TCL: Setting parameter firsttimestep to 0
TCL: Setting parameter alchLambda to 0.6999999999999997
Info: NONBONDED TABLE R-SQUARED SPACING: 0.0625
Info: NONBONDED TABLE SIZE: 705 POINTS
TCL: Setting parameter alchLambda2 to 0.6499999999999997
Info: NONBONDED TABLE R-SQUARED SPACING: 0.0625
Info: NONBONDED TABLE SIZE: 705 POINTS
TCL: Running for 1500000 steps
ETITLE: TS BOND ANGLE DIHED IMPRP ELECT VDW BOUNDARY MISC KINETIC TOTAL TEMP POTENTIAL TOTALAVG TEMPAVG PRESSURE GPRESSURE VOLUME PRESSAVG GPRESSAVG
ENERGY: 0 4.1651 8.0387 2.9972 0.0000 -10646.2102 1435.5910 0.0000 0.0000 1760.9312 -7434.4869 302.6437 -9195.4181 -7434.4869 302.6437 -106.8805 -19.4243 30281.5362 -106.8805 -19.4243
ENERGY: 300000 0.6859 3.3147 5.1209 0.0000 -10558.3700 1388.5204 0.0000 0.0000 1811.1486 -7349.5796 311.2744 -9160.7282 -7426.4633 301.8117 -120.1865 -69.5405 30133.6016 67.2206 115.1417
ENERGY: 600000 3.9662 7.2879 3.6645 0.0000 -10556.9902 1395.1062 0.0000 0.0000 1768.8261 -7378.1394 304.0006 -9146.9655 -7418.2694 304.8296 -400.1316 -359.6100 30680.9287 -248.1421 -185.6253
ENERGY: 900000 1.8646 5.5550 5.0105 0.0000 -10493.9697 1397.9955 0.0000 0.0000 1730.7398 -7352.8042 297.4549 -9083.5440 -7400.2635 303.9266 15.4053 56.4919 29920.1253 -180.9128 -116.2275
ENERGY: 1200000 2.2868 4.0495 3.1424 0.0000 -10659.8435 1461.7675 0.0000 0.0000 1768.5745 -7420.0228 303.9574 -9188.5973 -7405.8464 302.6861 339.6972 448.7288 29813.9160 -85.0008 -14.1877
ENERGY: 1500000 1.6069 5.6002 3.5171 0.0000 -10594.8727 1382.0766 0.0000 0.0000 1686.6766 -7515.3954 289.8819 -9202.0720 -7417.4170 301.2905 -328.6931 -325.7456 29891.4555 -53.9930 6.9555
TCL: Running FEP window   8: Lambda1 0.6499999999999997 Lambda2 0.5999999999999996 [dLambda -0.050000000000000044]
TCL: Setting parameter firsttimestep to 0
TCL: Setting parameter alchLambda to 0.6499999999999997
Info: NONBONDED TABLE R-SQUARED SPACING: 0.0625
Info: NONBONDED TABLE SIZE: 705 POINTS
TCL: Setting parameter alchLambda2 to 0.5999999999999996
Info: NONBONDED TABLE R-SQUARED SPACING: 0.0625
Info: NONBONDED TABLE SIZE: 705 POINTS
TCL: Running for 1500000 steps
ETITLE: TS BOND ANGLE DIHED IMPRP ELECT VDW BOUNDARY MISC KINETIC TOTAL TEMP POTENTIAL TOTALAVG TEMPAVG PRESSURE GPRESSURE VOLUME PRESSAVG GPRESSAVG
ENERGY: 0 1.6069 5.6002 3.5171 0.0000 -10594.0918 1381.9335 0.0000 0.0000 1685.7842 -7515.6499 289.7286 -9201.4342 -7515.6499 289.7286 -425.8239 -338.4737 29891.4555 -425.8239 -338.4737
ENERGY: 300000 3.8319 5.4732 2.1935 0.0000 -10655.6097 1460.9629 0.0000 0.0000 1801.9619 -7381.1863 309.6955 -9183.1482 -7435.8816 298.8918 279.6901 394.4923 30130.4987 2.1290 78.1903
ENERGY: 600000 6.8245 6.6388 4.9089 0.0000 -10576.3873 1415.7924 0.0000 0.0000 1745.7824 -7396.4405 300.0402 -9142.2228 -7433.8208 298.3100 -324.7879 -259.7717 30483.8006 -33.4805 40.1101
ENERGY: 900000 2.2416 4.9879 3.7480 0.0000 -10622.6989 1454.9053 0.0000 0.0000 1701.6241 -7455.1920 292.4509 -9156.8161 -7437.6947 298.2719 348.9736 428.4845 29953.8089 -68.8448 6.0941
ENERGY: 1200000 3.1910 6.2522 3.2169 0.0000 -10701.3207 1460.0180 0.0000 0.0000 1767.1765 -7461.4661 303.7171 -9228.6426 -7425.0917 300.1363 -74.9453 25.4156 30284.2722 -139.7752 -67.6227
ENERGY: 1500000 2.8270 4.4158 3.8580 0.0000 -10637.3856 1478.1281 0.0000 0.0000 1737.2751 -7410.8816 298.5781 -9148.1567 -7426.7828 300.6144 629.3536 660.2078 29727.9986 -31.8834 35.5945
TCL: Running FEP window   9: Lambda1 0.5999999999999996 Lambda2 0.5499999999999996 [dLambda -0.050000000000000044]
TCL: Setting parameter firsttimestep to 0
TCL: Setting parameter alchLambda to 0.5999999999999996
Info: NONBONDED TABLE R-SQUARED SPACING: 0.0625
Info: NONBONDED TABLE SIZE: 705 POINTS
TCL: Setting parameter alchLambda2 to 0.5499999999999996
Info: NONBONDED TABLE R-SQUARED SPACING: 0.0625
Info: NONBONDED TABLE SIZE: 705 POINTS
TCL: Running for 1500000 steps
ETITLE: TS BOND ANGLE DIHED IMPRP ELECT VDW BOUNDARY MISC KINETIC TOTAL TEMP POTENTIAL TOTALAVG TEMPAVG PRESSURE GPRESSURE VOLUME PRESSAVG GPRESSAVG
ENERGY: 0 2.8270 4.4158 3.8580 0.0000 -10636.6092 1477.1741 0.0000 0.0000 1736.4245 -7411.9097 298.4319 -9148.3342 -7411.9097 298.4319 578.3933 641.6498 29727.9986 578.3933 641.6498
ENERGY: 300000 1.1077 5.4270 4.8460 0.0000 -10519.9899 1348.0992 0.0000 0.0000 1718.0526 -7442.4574 295.2744 -9160.5100 -7434.5982 299.6417 -702.1122 -583.9611 29984.5857 -182.2608 -113.3192
ENERGY: 600000 3.1509 6.6201 3.3122 0.0000 -10632.7443 1446.6945 0.0000 0.0000 1736.8102 -7436.1563 298.4982 -9172.9666 -7448.5729 299.5875 300.5440 375.6725 29905.3796 -167.4650 -97.7563
ENERGY: 900000 2.1894 3.9543 3.6695 0.0000 -10598.9589 1380.0695 0.0000 0.0000 1726.7001 -7482.3761 296.7606 -9209.0762 -7445.9419 299.5129 -355.3784 -330.7465 29984.3804 -126.1986 -61.3689
ENERGY: 1200000 1.4582 7.5495 2.7190 0.0000 -10703.7213 1480.8117 0.0000 0.0000 1755.6946 -7455.4882 301.7437 -9211.1828 -7452.1600 299.9367 629.8856 692.6642 29561.8345 -29.7949 32.3003
ENERGY: 1500000 0.6812 4.6484 2.5087 0.0000 -10700.0421 1474.3598 0.0000 0.0000 1734.1832 -7483.6608 298.0467 -9217.8440 -7446.0994 300.2076 -165.3634 -81.9554 30535.2461 -69.0798 -4.4080
TCL: Running FEP window  10: Lambda1 0.5499999999999996 Lambda2 0.4999999999999996 [dLambda -0.04999999999999999]
TCL: Setting parameter firsttimestep to 0
TCL: Setting parameter alchLambda to 0.5499999999999996
Info: NONBONDED TABLE R-SQUARED SPACING: 0.0625
Info: NONBONDED TABLE SIZE: 705 POINTS
TCL: Setting parameter alchLambda2 to 0.4999999999999996
Info: NONBONDED TABLE R-SQUARED SPACING: 0.0625
Info: NONBONDED TABLE SIZE: 705 POINTS
TCL: Running for 1500000 steps
ETITLE: TS BOND ANGLE DIHED IMPRP ELECT VDW BOUNDARY MISC KINETIC TOTAL TEMP POTENTIAL TOTALAVG TEMPAVG PRESSURE GPRESSURE VOLUME PRESSAVG GPRESSAVG
ENERGY: 0 0.6813 4.6484 2.5087 0.0000 -10699.3378 1474.4478 0.0000 0.0000 1733.3268 -7483.7249 297.8995 -9217.0517 -7483.7249 297.8995 -177.9350 -90.9192 30535.2461 -177.9350 -90.9192
ENERGY: 300000 4.0015 8.5235 1.1804 0.0000 -10678.5196 1490.3768 0.0000 0.0000 1674.3879 -7500.0495 287.7699 -9174.4374 -7496.8351 294.9014 464.8063 535.1710 30006.6923 174.7429 252.6058
ENERGY: 600000 1.1746 4.8457 2.2715 0.0000 -10478.4963 1356.6385 0.0000 0.0000 1712.2624 -7401.3037 294.2792 -9113.5661 -7472.8700 295.3150 -600.2625 -517.9892 30344.4241 67.4987 145.3139
ENERGY: 900000 2.2033 3.7627 5.1928 0.0000 -10668.9230 1459.2889 0.0000 0.0000 1712.7207 -7485.7547 294.3580 -9198.4753 -7461.3928 296.5180 28.0644 106.3152 30194.8185 115.6801 188.8097
ENERGY: 1200000 2.5832 1.9872 4.1974 0.0000 -10771.8254 1518.3007 0.0000 0.0000 1685.3595 -7559.3975 289.6556 -9244.7570 -7468.9109 295.5346 566.8104 583.4473 29925.9078 150.9808 222.0969
ENERGY: 1500000 1.4610 2.7143 4.0281 0.0000 -10777.8692 1503.6510 0.0000 0.0000 1737.2647 -7528.7500 298.5763 -9266.0147 -7464.8318 296.1628 422.9024 522.4145 29856.3775 135.7129 203.0183
TCL: Running FEP window  11: Lambda1 0.4999999999999996 Lambda2 0.4499999999999996 [dLambda -0.04999999999999999]
TCL: Setting parameter firsttimestep to 0
TCL: Setting parameter alchLambda to 0.4999999999999996
Info: NONBONDED TABLE R-SQUARED SPACING: 0.0625
Info: NONBONDED TABLE SIZE: 705 POINTS
TCL: Setting parameter alchLambda2 to 0.4499999999999996
Info: NONBONDED TABLE R-SQUARED SPACING: 0.0625
Info: NONBONDED TABLE SIZE: 705 POINTS
TCL: Running for 1500000 steps
ETITLE: TS BOND ANGLE DIHED IMPRP ELECT VDW BOUNDARY MISC KINETIC TOTAL TEMP POTENTIAL TOTALAVG TEMPAVG PRESSURE GPRESSURE VOLUME PRESSAVG GPRESSAVG
ENERGY: 0 1.4610 2.7143 4.0281 0.0000 -10778.2589 1503.2279 0.0000 0.0000 1736.3714 -7530.4562 298.4228 -9266.8276 -7530.4562 298.4228 429.5673 509.5528 29856.3775 429.5673 509.5528
ENERGY: 300000 1.5360 5.0504 4.7086 0.0000 -10547.1421 1391.2817 0.0000 0.0000 1795.8102 -7348.7551 308.6383 -9144.5654 -7457.4908 300.5632 -264.6575 -172.9523 30302.6525 29.8014 118.7163
ENERGY: 600000 2.0847 6.4072 1.9274 0.0000 -10704.3429 1493.1941 0.0000 0.0000 1758.3927 -7442.3369 302.2075 -9200.7295 -7438.2165 301.0328 307.4614 379.7919 30002.7746 26.8747 107.4873
ENERGY: 900000 2.3970 8.7414 3.3249 0.0000 -10486.2746 1367.8167 0.0000 0.0000 1709.8337 -7394.1608 293.8618 -9103.9945 -7432.7958 298.5339 -390.7121 -371.6575 30302.4923 -112.9483 -44.5188
ENERGY: 1200000 2.8479 4.0073 4.5322 0.0000 -10624.7978 1453.8607 0.0000 0.0000 1727.0470 -7432.5027 296.8202 -9159.5497 -7437.6686 297.4207 283.7409 337.7210 30035.6405 -23.0790 46.3843
ENERGY: 1500000 3.4454 4.5395 2.5550 0.0000 -10526.6313 1380.7280 0.0000 0.0000 1751.2564 -7384.1070 300.9810 -9135.3634 -7432.4434 298.4605 -252.2310 -193.0413 29951.2153 -37.2322 28.3477
TCL: Running FEP window  12: Lambda1 0.4499999999999996 Lambda2 0.39999999999999963 [dLambda -0.04999999999999999]
TCL: Setting parameter firsttimestep to 0
TCL: Setting parameter alchLambda to 0.4499999999999996
Info: NONBONDED TABLE R-SQUARED SPACING: 0.0625
Info: NONBONDED TABLE SIZE: 705 POINTS
TCL: Setting parameter alchLambda2 to 0.39999999999999963
Info: NONBONDED TABLE R-SQUARED SPACING: 0.0625
Info: NONBONDED TABLE SIZE: 705 POINTS
TCL: Running for 1500000 steps
ETITLE: TS BOND ANGLE DIHED IMPRP ELECT VDW BOUNDARY MISC KINETIC TOTAL TEMP POTENTIAL TOTALAVG TEMPAVG PRESSURE GPRESSURE VOLUME PRESSAVG GPRESSAVG
ENERGY: 0 3.4454 4.5395 2.5549 0.0000 -10526.6313 1381.3609 0.0000 0.0000 1750.3521 -7384.3784 300.8256 -9134.7306 -7384.3784 300.8256 -264.1662 -192.2204 29951.2153 -264.1662 -192.2204
ENERGY: 300000 1.0138 2.9592 5.0514 0.0000 -10710.3803 1391.0418 0.0000 0.0000 1776.3409 -7533.9732 305.2921 -9310.3142 -7445.7227 300.9597 -288.1776 -251.8177 29469.0747 -314.4136 -269.9112
ENERGY: 600000 0.9360 9.5548 4.1163 0.0000 -10661.9848 1447.3946 0.0000 0.0000 1784.5175 -7415.4658 306.6974 -9199.9832 -7449.2504 302.2025 187.7324 264.5573 29942.2277 -95.0340 -48.3405
ENERGY: 900000 4.7777 6.0105 2.6304 0.0000 -10646.0409 1441.7238 0.0000 0.0000 1716.0082 -7474.8902 294.9230 -9190.8984 -7445.9645 299.9894 -166.9855 -90.2882 30146.1788 -166.8657 -110.0248
ENERGY: 1200000 2.1250 6.1219 4.3351 0.0000 -10694.9835 1450.3858 0.0000 0.0000 1744.7978 -7487.2178 299.8710 -9232.0157 -7446.7494 300.2294 -62.4607 -27.1996 29948.9524 -152.3493 -94.2325
ENERGY: 1500000 1.9339 7.4414 3.6738 0.0000 -10494.4864 1363.2450 0.0000 0.0000 1789.4664 -7328.7258 307.5480 -9118.1922 -7434.0635 301.0309 -581.6335 -501.5712 30467.1766 -139.1767 -85.1932
TCL: Running FEP window  13: Lambda1 0.39999999999999963 Lambda2 0.34999999999999964 [dLambda -0.04999999999999999]
TCL: Setting parameter firsttimestep to 0
TCL: Setting parameter alchLambda to 0.39999999999999963
Info: NONBONDED TABLE R-SQUARED SPACING: 0.0625
Info: NONBONDED TABLE SIZE: 705 POINTS
TCL: Setting parameter alchLambda2 to 0.34999999999999964
Info: NONBONDED TABLE R-SQUARED SPACING: 0.0625
Info: NONBONDED TABLE SIZE: 705 POINTS
TCL: Running for 1500000 steps
ETITLE: TS BOND ANGLE DIHED IMPRP ELECT VDW BOUNDARY MISC KINETIC TOTAL TEMP POTENTIAL TOTALAVG TEMPAVG PRESSURE GPRESSURE VOLUME PRESSAVG GPRESSAVG
ENERGY: 0 1.9339 7.4414 3.6738 0.0000 -10494.4877 1363.2971 0.0000 0.0000 1788.5832 -7329.5584 307.3962 -9118.1415 -7329.5584 307.3962 -594.9477 -506.5460 30467.1766 -594.9477 -506.5460
ENERGY: 300000 2.0576 3.7187 2.5726 0.0000 -10652.6244 1436.0654 0.0000 0.0000 1809.0375 -7399.1727 310.9116 -9208.2102 -7379.7877 307.0645 -75.8928 -68.5420 30258.5698 -78.2343 -39.6594
ENERGY: 600000 1.5749 4.6187 6.6645 0.0000 -10593.6712 1378.1910 0.0000 0.0000 1766.1314 -7436.4907 303.5375 -9202.6221 -7397.8822 304.6551 -424.4320 -400.6341 29810.1771 -45.6211 -16.9342
ENERGY: 900000 1.8165 8.7565 2.4061 0.0000 -10585.9389 1437.9513 0.0000 0.0000 1788.5953 -7346.4132 307.3983 -9135.0085 -7398.6776 304.0145 142.4606 141.7982 30258.3747 19.0723 55.7906
ENERGY: 1200000 4.2155 4.3813 3.8573 0.0000 -10549.3888 1364.4877 0.0000 0.0000 1731.0218 -7441.4252 297.5033 -9172.4470 -7404.4704 302.6129 -296.9540 -297.4756 29840.7770 -46.3240 -10.8320
ENERGY: 1500000 1.4521 7.4806 2.7170 0.0000 -10666.0843 1414.0063 0.0000 0.0000 1779.7400 -7460.6884 305.8763 -9240.4284 -7408.3284 303.4811 -334.7670 -274.7369 30031.4726 -61.2810 -28.1863
TCL: Running FEP window  14: Lambda1 0.34999999999999964 Lambda2 0.29999999999999966 [dLambda -0.04999999999999999]
TCL: Setting parameter firsttimestep to 0
TCL: Setting parameter alchLambda to 0.34999999999999964
Info: NONBONDED TABLE R-SQUARED SPACING: 0.0625
Info: NONBONDED TABLE SIZE: 705 POINTS
TCL: Setting parameter alchLambda2 to 0.29999999999999966
Info: NONBONDED TABLE R-SQUARED SPACING: 0.0625
Info: NONBONDED TABLE SIZE: 705 POINTS
TCL: Running for 1500000 steps
ETITLE: TS BOND ANGLE DIHED IMPRP ELECT VDW BOUNDARY MISC KINETIC TOTAL TEMP POTENTIAL TOTALAVG TEMPAVG PRESSURE GPRESSURE VOLUME PRESSAVG GPRESSAVG
ENERGY: 0 1.4521 7.4806 2.7170 0.0000 -10666.0838 1414.1632 0.0000 0.0000 1778.8440 -7461.4269 305.7223 -9240.2709 -7461.4269 305.7223 -366.7917 -278.0384 30031.4726 -366.7917 -278.0384
ENERGY: 300000 2.7087 7.4970 3.7197 0.0000 -10677.6536 1459.4937 0.0000 0.0000 1790.1941 -7414.0404 307.6730 -9204.2345 -7414.4545 304.1503 0.2716 88.7269 30115.4677 -278.1087 -195.1910
ENERGY: 600000 0.9092 6.3958 3.3492 0.0000 -10589.6991 1409.2277 0.0000 0.0000 1753.8003 -7416.0169 301.4182 -9169.8172 -7416.4738 302.7183 168.2452 144.6888 29727.9583 -168.4035 -116.7066
ENERGY: 900000 3.8031 3.8093 3.2920 0.0000 -10584.0919 1443.5373 0.0000 0.0000 1720.3019 -7409.3483 295.6610 -9129.6503 -7409.1605 303.1069 28.7264 75.1132 30185.1437 -190.9321 -147.2421
ENERGY: 1200000 1.1464 3.6046 4.7777 0.0000 -10675.7341 1445.2155 0.0000 0.0000 1683.3940 -7537.5960 289.3178 -9220.9900 -7421.0602 302.0341 237.8279 204.2866 29760.5381 -189.3534 -158.2725
ENERGY: 1500000 9.0600 2.8082 2.5871 0.0000 -10695.5230 1410.8798 0.0000 0.0000 1716.3198 -7553.8680 294.9766 -9270.1878 -7437.4127 301.2559 -684.7847 -646.8879 30293.8315 -237.0971 -195.0447
TCL: Running FEP window  15: Lambda1 0.29999999999999966 Lambda2 0.24999999999999967 [dLambda -0.04999999999999999]
TCL: Setting parameter firsttimestep to 0
TCL: Setting parameter alchLambda to 0.29999999999999966
Info: NONBONDED TABLE R-SQUARED SPACING: 0.0625
Info: NONBONDED TABLE SIZE: 705 POINTS
TCL: Setting parameter alchLambda2 to 0.24999999999999967
Info: NONBONDED TABLE R-SQUARED SPACING: 0.0625
Info: NONBONDED TABLE SIZE: 705 POINTS
TCL: Running for 1500000 steps
ETITLE: TS BOND ANGLE DIHED IMPRP ELECT VDW BOUNDARY MISC KINETIC TOTAL TEMP POTENTIAL TOTALAVG TEMPAVG PRESSURE GPRESSURE VOLUME PRESSAVG GPRESSAVG
ENERGY: 0 9.0600 2.8082 2.5871 0.0000 -10695.5222 1411.0798 0.0000 0.0000 1715.4456 -7554.5415 294.8263 -9269.9871 -7554.5415 294.8263 -732.3034 -651.9644 30293.8315 -732.3034 -651.9644
ENERGY: 300000 2.4053 3.8070 3.4931 0.0000 -10575.0737 1368.4799 0.0000 0.0000 1749.3331 -7447.5553 300.6504 -9196.8885 -7453.8310 299.4573 -611.6281 -542.3831 29996.2038 -291.2114 -232.9384
ENERGY: 600000 0.9050 5.9298 1.5418 0.0000 -10591.2528 1435.2622 0.0000 0.0000 1733.3320 -7414.2820 297.9004 -9147.6140 -7439.0531 298.7249 412.1140 460.4058 29638.4296 -53.1669 1.8004
ENERGY: 900000 1.0734 6.4765 3.0722 0.0000 -10446.3876 1273.6351 0.0000 0.0000 1713.4799 -7448.6505 294.4885 -9162.1304 -7444.4002 298.6322 -1410.8625 -1327.3294 30396.5472 -313.4373 -255.6513
ENERGY: 1200000 3.7609 6.7816 4.9931 0.0000 -10488.2694 1373.8576 0.0000 0.0000 1730.3643 -7368.5119 297.3903 -9098.8762 -7448.2228 298.2319 -227.1826 -155.6914 30147.2397 -303.5392 -239.6358
ENERGY: 1500000 2.1689 7.1767 3.7261 0.0000 -10592.4612 1472.8349 0.0000 0.0000 1767.9888 -7338.5658 303.8567 -9106.5546 -7433.1101 298.4950 557.2536 562.2775 30202.9236 -229.2234 -169.8754
TCL: Running FEP window  16: Lambda1 0.24999999999999967 Lambda2 0.19999999999999968 [dLambda -0.04999999999999999]
TCL: Setting parameter firsttimestep to 0
TCL: Setting parameter alchLambda to 0.24999999999999967
Info: NONBONDED TABLE R-SQUARED SPACING: 0.0625
Info: NONBONDED TABLE SIZE: 705 POINTS
TCL: Setting parameter alchLambda2 to 0.19999999999999968
Info: NONBONDED TABLE R-SQUARED SPACING: 0.0625
Info: NONBONDED TABLE SIZE: 705 POINTS
TCL: Running for 1500000 steps
ETITLE: TS BOND ANGLE DIHED IMPRP ELECT VDW BOUNDARY MISC KINETIC TOTAL TEMP POTENTIAL TOTALAVG TEMPAVG PRESSURE GPRESSURE VOLUME PRESSAVG GPRESSAVG
ENERGY: 0 2.1689 7.1767 3.7261 0.0000 -10592.4615 1472.5092 0.0000 0.0000 1767.1491 -7339.7316 303.7124 -9106.8807 -7339.7316 303.7124 461.7348 555.1774 30202.9236 461.7348 555.1774
ENERGY: 300000 2.1573 4.8722 4.6018 0.0000 -10474.3504 1349.7259 0.0000 0.0000 1769.1192 -7343.8740 304.0510 -9112.9932 -7378.7915 304.1252 -634.0201 -535.3479 30125.5408 22.8576 91.9105
ENERGY: 600000 1.8556 7.2392 6.1325 0.0000 -10624.0215 1495.3680 0.0000 0.0000 1860.1491 -7253.2770 319.6959 -9113.4261 -7373.6967 305.4764 683.4742 719.0424 30398.7126 62.7498 132.2912
ENERGY: 900000 2.4386 7.1349 3.6267 0.0000 -10549.7521 1432.1490 0.0000 0.0000 1691.0451 -7413.3577 290.6327 -9104.4028 -7375.2171 303.5499 -72.7275 -28.3685 30401.4997 -36.6129 29.9096
ENERGY: 1200000 1.1097 6.7846 3.3030 0.0000 -10626.9583 1464.3350 0.0000 0.0000 1754.5559 -7396.8700 301.5481 -9151.4259 -7378.0414 303.4512 222.1700 326.4560 30009.0545 -40.3455 34.7719
ENERGY: 1500000 2.6391 3.3448 3.5909 0.0000 -10706.4181 1518.4960 0.0000 0.0000 1778.9442 -7399.4031 305.7396 -9178.3474 -7391.3029 302.2346 764.4040 845.0318 29712.0196 -22.8565 46.9840
TCL: Running FEP window  17: Lambda1 0.19999999999999968 Lambda2 0.1499999999999997 [dLambda -0.04999999999999999]
TCL: Setting parameter firsttimestep to 0
TCL: Setting parameter alchLambda to 0.19999999999999968
Info: NONBONDED TABLE R-SQUARED SPACING: 0.0625
Info: NONBONDED TABLE SIZE: 705 POINTS
TCL: Setting parameter alchLambda2 to 0.1499999999999997
Info: NONBONDED TABLE R-SQUARED SPACING: 0.0625
Info: NONBONDED TABLE SIZE: 705 POINTS
TCL: Running for 1500000 steps
ETITLE: TS BOND ANGLE DIHED IMPRP ELECT VDW BOUNDARY MISC KINETIC TOTAL TEMP POTENTIAL TOTALAVG TEMPAVG PRESSURE GPRESSURE VOLUME PRESSAVG GPRESSAVG
ENERGY: 0 2.6391 3.3448 3.5909 0.0000 -10706.4171 1519.0847 0.0000 0.0000 1778.0767 -7399.6809 305.5905 -9177.7576 -7399.6809 305.5905 764.2697 842.3961 29712.0196 764.2697 842.3961
ENERGY: 300000 4.3262 4.5448 2.9158 0.0000 -10507.7560 1383.9672 0.0000 0.0000 1741.3878 -7370.6141 299.2849 -9112.0019 -7397.2904 302.6291 -297.3064 -257.3303 30181.7968 152.8581 203.2471
ENERGY: 600000 5.1424 5.5414 2.9559 0.0000 -10618.3267 1445.4149 0.0000 0.0000 1723.2277 -7436.0445 296.1638 -9159.2722 -7413.2564 301.0371 424.0143 496.0007 29718.7172 122.4905 178.2358
ENERGY: 900000 2.0219 10.3225 2.2251 0.0000 -10565.7080 1413.8159 0.0000 0.0000 1714.0348 -7423.2877 294.5839 -9137.3225 -7420.5129 300.2667 42.9908 60.6049 29736.3692 79.3479 135.2891
ENERGY: 1200000 1.5646 4.1825 2.2389 0.0000 -10654.1530 1419.6839 0.0000 0.0000 1742.6966 -7483.7866 299.5098 -9226.4832 -7433.0461 300.7247 -296.7020 -149.4868 29832.9825 -64.9109 -0.3722
ENERGY: 1500000 1.8934 5.9109 3.5102 0.0000 -10614.9614 1398.8967 0.0000 0.0000 1774.2684 -7430.4818 304.9360 -9204.7502 -7433.6687 301.1212 -382.3570 -337.4523 30043.9244 -98.2180 -35.5066
TCL: Running FEP window  18: Lambda1 0.1499999999999997 Lambda2 0.09999999999999969 [dLambda -0.05 ]
TCL: Setting parameter firsttimestep to 0
TCL: Setting parameter alchLambda to 0.1499999999999997
Info: NONBONDED TABLE R-SQUARED SPACING: 0.0625
Info: NONBONDED TABLE SIZE: 705 POINTS
TCL: Setting parameter alchLambda2 to 0.09999999999999969
Info: NONBONDED TABLE R-SQUARED SPACING: 0.0625
Info: NONBONDED TABLE SIZE: 705 POINTS
TCL: Running for 1500000 steps
ETITLE: TS BOND ANGLE DIHED IMPRP ELECT VDW BOUNDARY MISC KINETIC TOTAL TEMP POTENTIAL TOTALAVG TEMPAVG PRESSURE GPRESSURE VOLUME PRESSAVG GPRESSAVG
ENERGY: 0 1.8934 5.9109 3.5102 0.0000 -10614.9618 1398.9959 0.0000 0.0000 1773.4002 -7431.2511 304.7867 -9204.6513 -7431.2511 304.7867 -421.5909 -341.2684 30043.9244 -421.5909 -341.2684
ENERGY: 300000 3.2244 10.0868 3.2719 0.0000 -10595.1516 1441.7162 0.0000 0.0000 1765.2510 -7371.6014 303.3862 -9136.8524 -7435.8255 298.3761 278.9635 303.0526 29910.5303 130.1862 202.7703
ENERGY: 600000 3.0675 7.5884 5.4363 0.0000 -10712.7618 1516.7853 0.0000 0.0000 1779.1145 -7400.7698 305.7688 -9179.8843 -7418.9817 300.0509 409.1251 414.1223 30158.6501 143.8144 210.2412
ENERGY: 900000 1.8541 6.0327 4.1666 0.0000 -10417.5396 1221.8476 0.0000 0.0000 1714.6558 -7468.9828 294.6906 -9183.6386 -7415.2524 300.3082 -1696.6407 -1677.1585 29894.6374 -143.1703 -83.8460
ENERGY: 1200000 3.8427 3.8730 2.3208 0.0000 -10548.9846 1394.7057 0.0000 0.0000 1699.4156 -7444.8267 292.0713 -9144.2423 -7420.6053 299.2262 -195.1680 -106.4911 29806.2055 -120.1589 -58.5947
ENERGY: 1500000 2.2897 2.9845 5.8351 0.0000 -10463.9370 1300.6515 0.0000 0.0000 1715.9287 -7436.2476 294.9094 -9152.1763 -7412.0517 299.7961 -1340.4990 -1257.4077 30625.1840 -256.4149 -195.9914
TCL: Running FEP window  19: Lambda1 0.09999999999999969 Lambda2 0.049999999999999684 [dLambda -0.05 ]
TCL: Setting parameter firsttimestep to 0
TCL: Setting parameter alchLambda to 0.09999999999999969
Info: NONBONDED TABLE R-SQUARED SPACING: 0.0625
Info: NONBONDED TABLE SIZE: 705 POINTS
TCL: Setting parameter alchLambda2 to 0.049999999999999684
Info: NONBONDED TABLE R-SQUARED SPACING: 0.0625
Info: NONBONDED TABLE SIZE: 705 POINTS
TCL: Running for 1500000 steps
ETITLE: TS BOND ANGLE DIHED IMPRP ELECT VDW BOUNDARY MISC KINETIC TOTAL TEMP POTENTIAL TOTALAVG TEMPAVG PRESSURE GPRESSURE VOLUME PRESSAVG GPRESSAVG
ENERGY: 0 2.2897 2.9845 5.8351 0.0000 -10463.9384 1298.9358 0.0000 0.0000 1715.0182 -7438.8750 294.7529 -9153.8932 -7438.8750 294.7529 -1350.1228 -1266.1129 30625.1840 -1350.1228 -1266.1129
ENERGY: 300000 5.0799 3.9974 2.7656 0.0000 -10589.3451 1390.6905 0.0000 0.0000 1729.9357 -7456.8761 297.3167 -9186.8118 -7458.2656 299.4983 -588.4975 -524.9671 30197.0314 -235.1118 -175.1238
ENERGY: 600000 1.9565 7.3956 4.8943 0.0000 -10714.9515 1490.4799 0.0000 0.0000 1747.3440 -7462.8812 300.3086 -9210.2252 -7448.3002 300.2194 627.6113 670.2112 29628.8485 -229.9550 -167.5719
ENERGY: 900000 1.9165 4.8699 3.5182 0.0000 -10530.6754 1419.2799 0.0000 0.0000 1832.4589 -7268.6321 314.9369 -9101.0910 -7422.8947 302.1676 209.7872 264.4835 29934.1734 -186.4813 -127.6899
ENERGY: 1200000 3.8864 6.6396 4.9831 0.0000 -10552.1876 1369.0030 0.0000 0.0000 1757.2427 -7410.4328 302.0098 -9167.6755 -7421.2350 302.6851 -583.5221 -507.4290 30093.6194 -218.6115 -161.9134
ENERGY: 1500000 4.5309 4.6820 2.1064 0.0000 -10527.5919 1408.6266 0.0000 0.0000 1732.4722 -7375.1738 297.7526 -9107.6460 -7427.3205 301.6867 -47.0266 14.4529 30186.3942 -242.9272 -187.0144
TCL: Running FEP window  20: Lambda1 0.049999999999999684 Lambda2 0.0    [dLambda -0.049999999999999684]
TCL: Setting parameter firsttimestep to 0
TCL: Setting parameter alchLambda to 0.049999999999999684
Info: NONBONDED TABLE R-SQUARED SPACING: 0.0625
Info: NONBONDED TABLE SIZE: 705 POINTS
TCL: Setting parameter alchLambda2 to 0.0
Info: NONBONDED TABLE R-SQUARED SPACING: 0.0625
Info: NONBONDED TABLE SIZE: 705 POINTS
TCL: Running for 1500000 steps
ETITLE: TS BOND ANGLE DIHED IMPRP ELECT VDW BOUNDARY MISC KINETIC TOTAL TEMP POTENTIAL TOTALAVG TEMPAVG PRESSURE GPRESSURE VOLUME PRESSAVG GPRESSAVG
ENERGY: 0 4.5309 4.6820 2.1064 0.0000 -10527.5922 1407.5838 0.0000 0.0000 1731.6232 -7377.0659 297.6067 -9108.6891 -7377.0659 297.6067 -81.0190 6.3645 30186.3942 -81.0190 6.3645
ENERGY: 300000 4.1559 2.2155 6.9741 0.0000 -10487.3608 1337.6016 0.0000 0.0000 1722.0708 -7414.3428 295.9650 -9136.4136 -7431.9449 298.1717 -579.7698 -488.6436 29337.5210 -335.5834 -280.9760
ENERGY: 600000 1.6087 3.1093 3.9261 0.0000 -10621.0035 1394.5920 0.0000 0.0000 1720.3484 -7497.4189 295.6690 -9217.7674 -7445.7208 297.9456 -456.3541 -370.3244 29898.4984 -361.5283 -308.8635
ENERGY: 900000 1.4260 11.3993 3.8436 0.0000 -10555.5459 1349.1573 0.0000 0.0000 1747.3121 -7442.4077 300.3031 -9189.7197 -7451.0473 297.4443 -511.3430 -451.4426 29530.9344 -279.8064 -225.5484
ENERGY: 1200000 2.0832 11.6842 3.1488 0.0000 -10561.7627 1393.7263 0.0000 0.0000 1728.8587 -7422.2615 297.1316 -9151.1202 -7441.2394 298.3455 -380.5485 -325.0081 30085.8045 -244.7434 -187.1242
ENERGY: 1500000 1.6172 6.4998 3.8204 0.0000 -10488.2904 1346.7537 0.0000 0.0000 1709.0043 -7420.5949 293.7193 -9129.5992 -7441.8198 298.3602 -874.2833 -781.9213 30549.1476 -193.4767 -129.0626
TCL: Exiting due to exit command.
