Info: SIMULATION PARAMETERS:
Info: TIMESTEP               2
Info: NUMBER OF STEPS        0
Info: STEPS PER CYCLE        10
Info: PERIODIC CELL BASIS 1  31.343 0 0
Info: PERIODIC CELL BASIS 2  0 31.3054 0
Info: PERIODIC CELL BASIS 3  0 0 30.5255
Info: PERIODIC CELL CENTER   0 0 0
Info: WRAPPING WATERS AROUND PERIODIC BOUNDARIES ON OUTPUT.
Info: WRAPPING ALL CLUSTERS AROUND PERIODIC BOUNDARIES ON OUTPUT.
Info: FIRST LDB TIMESTEP     50
Info: LAST LDB TIMESTEP     -1
Info: HOM BACKGROUND SCALING 1
Info: PME BACKGROUND SCALING 1
Info: MIN ATOMS PER PATCH    40
Info: EMPTY PATCH LOAD       40 ATOMS
Info: VELOCITY FILE          mobley_6571751_equil.vel
Info: CENTER OF MASS MOVING INITIALLY? NO
Info: DIELECTRIC             1
Info: EXCLUDE                SCALED ONE-FOUR
Info: 1-4 ELECTROSTATICS SCALED BY 0.833333
Info: MODIFIED 1-4 VDW PARAMETERS WILL BE USED
Info: DCD FILENAME           mobley_6571751_prod.dcd
Info: DCD FREQUENCY          100000
Info: DCD FIRST STEP         100000
Info: DCD FILE WILL CONTAIN UNIT CELL DATA
Info: XST FILENAME           mobley_6571751_prod.xst
Info: XST FREQUENCY          100000
Info: NO VELOCITY DCD OUTPUT
Info: NO FORCE DCD OUTPUT
Info: OUTPUT FILENAME        mobley_6571751_prod
Info: BINARY OUTPUT FILES WILL BE USED
Info: RESTART FILENAME       mobley_6571751_prod.restart
Info: RESTART FREQUENCY      100000
Info: BINARY RESTART FILES WILL BE USED
Info: CUTOFF                 9
Info: PAIRLIST DISTANCE      11
Info: PAIRLIST SHRINK RATE   0.01
Info: PAIRLIST GROW RATE     0.01
Info: PAIRLIST TRIGGER       0.3
Info: PAIRLISTS PER CYCLE    2
Info: PAIRLISTS ENABLED
Info: MARGIN                 2
Info: HYDROGEN GROUP CUTOFF  2.5
Info: PATCH DIMENSION        15.5
Info: ENERGY OUTPUT STEPS    100000
Info: ENERGY EVALUATION STEPS    100000
Info: OUTPUT ENERGY PRECISION 4
Info: CROSSTERM ENERGY INCLUDED IN DIHEDRAL
Info: TIMING OUTPUT STEPS    1000000
Info: PRESSURE OUTPUT STEPS  100000
Info: ALCHEMICAL FEP ON
Info: FEP CURRENT LAMBDA VALUE     1
Info: FEP COMPARISON LAMBDA VALUE  0.95
Info: FEP INTRA-ALCHEMICAL NON-BONDED INTERACTIONS WILL BE RETAINED
Info: FEP INTRA-ALCHEMICAL BONDED INTERACTIONS WILL BE RETAINED
Info: FEP VDW SHIFTING COEFFICIENT 5
Info: FEP ELEC. ACTIVE FOR ANNIHILATED PARTICLES BETWEEN LAMBDA = 0 AND LAMBDA = 0.5
Info: FEP ELEC. ACTIVE FOR EXNIHILATED PARTICLES BETWEEN LAMBDA = 0.5 AND LAMBDA = 1
Info: FEP VDW ACTIVE FOR ANNIHILATED PARTICLES BETWEEN LAMBDA = 0 AND LAMBDA = 1
Info: FEP VDW ACTIVE FOR EXNIHILATED PARTICLES BETWEEN LAMBDA = 0 AND LAMBDA = 1
Info: FEP BOND ACTIVE FOR ANNIHILATED PARTICLES BETWEEN LAMBDA = 1 AND LAMBDA = 1
Info: FEP BOND ACTIVE FOR EXNIHILATED PARTICLES BETWEEN LAMBDA = 0 AND LAMBDA = 0
Info: LANGEVIN DYNAMICS ACTIVE
Info: LANGEVIN TEMPERATURE   300
Info: LANGEVIN USING BBK INTEGRATOR
Info: LANGEVIN DAMPING COEFFICIENT IS 1 INVERSE PS
Info: LANGEVIN DYNAMICS APPLIED TO HYDROGENS
Info: LANGEVIN PISTON PRESSURE CONTROL ACTIVE
Info:        TARGET PRESSURE IS 1.01325 BAR
Info:     OSCILLATION PERIOD IS 50 FS
Info:             DECAY TIME IS 25 FS
Info:     PISTON TEMPERATURE IS 300 K
Info:       PRESSURE CONTROL IS GROUP-BASED
Info:    INITIAL STRAIN RATE IS 5.4022e-05 5.4022e-05 5.4022e-05
Info:       CELL FLUCTUATION IS ISOTROPIC
Info: PARTICLE MESH EWALD (PME) ACTIVE
Info: PME TOLERANCE               1e-06
Info: PME EWALD COEFFICIENT       0.348832
Info: PME INTERPOLATION ORDER     4
Info: PME GRID DIMENSIONS         32 32 32
Info: PME MAXIMUM GRID SPACING    1
Info: PME CALCULATION WILL BE PERFORMED ON GPU
Info: FULL ELECTROSTATIC EVALUATION FREQUENCY      2
Info: USING VERLET I (r-RESPA) MTS SCHEME.
Info: C1 SPLITTING OF LONG RANGE ELECTROSTATICS
Info: PLACING ATOMS IN PATCHES BY HYDROGEN GROUPS
Info: RIGID BONDS TO HYDROGEN : ALL
Info:         ERROR TOLERANCE : 1e-08
Info:          MAX ITERATIONS : 100
Info: RIGID WATER USING SETTLE ALGORITHM
Info: RANDOM NUMBER SEED     1743624859
Info: USE HYDROGEN BONDS?    NO
Info: Using AMBER format force field!
Info: AMBER PARM FILE        mobley_6571751.prmtop
Info: COORDINATE PDB         mobley_6571751.pdb
Info: Exclusions will be read from PARM file!
Info: SCNB (VDW SCALING)     2
Info: USING ARITHMETIC MEAN TO COMBINE L-J SIGMA PARAMETERS
Info: BINARY COORDINATES     mobley_6571751_equil.coor
Info: SUMMARY OF PARAMETERS:
Info: 7 BONDS
Info: 9 ANGLES
Info:   9 HARMONIC
Info:   0 COSINE-BASED
Info: 12 DIHEDRAL
Info: 0 IMPROPER
Info: 0 CROSSTERM
Info: 0 VDW
Info: 21 VDW_PAIRS
Info: 0 NBTHOLE_PAIRS
Info: To read alchdata from file: mobley_6571751.pdb
Info: To read alchflag data from column: 5
Info: STRUCTURE SUMMARY:
Info: 2953 ATOMS
Info: 2953 BONDS
Info: 36 ANGLES
Info: 69 DIHEDRALS
Info: 0 IMPROPERS
Info: 0 CROSSTERMS
Info: 3035 EXCLUSIONS
Info: 2946 RIGID BONDS
Info: ALCH: 0 ATOMS TO DISAPPEAR IN FINAL STATE
Info: ALCH: 19 ATOMS TO APPEAR IN FINAL STATE
Info: 5913 DEGREES OF FREEDOM
Info: 985 HYDROGEN GROUPS
Info: 4 ATOMS IN LARGEST HYDROGEN GROUP
Info: 985 MIGRATION GROUPS
Info: 4 ATOMS IN LARGEST MIGRATION GROUP
Info: TOTAL MASS = 17715.8 amu
Info: TOTAL CHARGE = -0.000200026 e
Info: MASS DENSITY = 0.982194 g/cm^3
Info: ATOM DENSITY = 0.0985917 atoms/A^3
Info: ADDED 0 IMPLICIT EXCLUSIONS
Info: NONBONDED TABLE R-SQUARED SPACING: 0.0625
Info: NONBONDED TABLE SIZE: 705 POINTS
Info: REDUCING NUMBER OF PATCHES TO IMPROVE LOAD BALANCE
Info: REMOVING COM VELOCITY 0.267077 -0.226001 -0.0597884
Info: Use 3D box decompostion in PME FFT.
Info: Updated CUDA force table with 4096 elements.
Info: Updated CUDA LJ table with 6 x 6 elements.
Info: Found 22 unique exclusion lists needing 60 bytes
TCL: Running for 1500000 steps
ETITLE: TS BOND ANGLE DIHED IMPRP ELECT VDW BOUNDARY MISC KINETIC TOTAL TEMP POTENTIAL TOTALAVG TEMPAVG PRESSURE GPRESSURE VOLUME PRESSAVG GPRESSAVG
ENERGY: 0 3.3776 5.7025 13.0174 0.0000 -10655.7534 1411.0752 0.0000 0.0000 1726.6561 -7495.9246 293.8924 -9222.5807 -7495.9246 293.8924 125.1635 216.2028 29951.8012 125.1635 216.2028
ENERGY: 300000 2.4152 9.7549 14.0222 0.0000 -10660.8439 1408.1615 0.0000 0.0000 1775.8054 -7450.6848 302.2581 -9226.4902 -7461.2254 300.2013 -456.8078 -407.4469 31018.6617 25.8184 105.1377
ENERGY: 600000 1.6982 11.7955 14.1744 0.0000 -10662.9722 1394.8868 0.0000 0.0000 1778.4316 -7461.9857 302.7051 -9240.4173 -7454.5011 300.1986 -284.0996 -275.4332 30361.4561 -155.3978 -82.9049
ENERGY: 900000 1.6047 11.9018 13.0820 0.0000 -10693.4861 1423.0269 0.0000 0.0000 1729.5322 -7514.3385 294.3819 -9243.8707 -7471.7180 299.5551 -154.8359 -133.8545 30457.5338 -94.9182 -24.9694
ENERGY: 1200000 1.4414 9.7512 12.3402 0.0000 -10585.5749 1363.3075 0.0000 0.0000 1795.7639 -7402.9708 305.6552 -9198.7347 -7462.1857 299.5175 -374.5035 -342.2070 30007.0168 -111.6570 -48.0265
ENERGY: 1500000 1.5072 9.3574 12.8628 0.0000 -10546.2966 1410.0558 0.0000 0.0000 1801.0410 -7311.4725 306.5534 -9112.5135 -7449.5545 301.1787 101.8183 236.2593 30637.2308 -75.1818 -5.9115
TCL: Running FEP window   2: Lambda1 0.95   Lambda2 0.8999999999999999 [dLambda -0.050000000000000044]
TCL: Setting parameter firsttimestep to 0
TCL: Setting parameter alchLambda to 0.95
Info: NONBONDED TABLE R-SQUARED SPACING: 0.0625
Info: NONBONDED TABLE SIZE: 705 POINTS
TCL: Setting parameter alchLambda2 to 0.8999999999999999
Info: NONBONDED TABLE R-SQUARED SPACING: 0.0625
Info: NONBONDED TABLE SIZE: 705 POINTS
TCL: Running for 1500000 steps
ETITLE: TS BOND ANGLE DIHED IMPRP ELECT VDW BOUNDARY MISC KINETIC TOTAL TEMP POTENTIAL TOTALAVG TEMPAVG PRESSURE GPRESSURE VOLUME PRESSAVG GPRESSAVG
ENERGY: 0 1.5072 9.3574 12.8628 0.0000 -10546.1218 1409.9154 0.0000 0.0000 1800.1497 -7312.3292 306.4017 -9112.4790 -7312.3292 306.4017 142.5425 221.2410 30637.2308 142.5425 221.2410
ENERGY: 300000 3.6418 8.6997 12.4033 0.0000 -10561.4592 1389.0567 0.0000 0.0000 1785.3284 -7362.3294 303.8789 -9147.6577 -7412.7755 299.9743 -266.7308 -193.6676 30568.0459 -64.0272 -5.3922
ENERGY: 600000 1.6609 7.5077 15.5045 0.0000 -10572.5296 1384.5985 0.0000 0.0000 1791.3784 -7371.8795 304.9087 -9163.2579 -7427.4361 300.6751 3.1541 4.9677 30443.0943 -32.3351 17.8435
ENERGY: 900000 1.4694 8.5378 12.4683 0.0000 -10695.6491 1450.9501 0.0000 0.0000 1752.4634 -7469.7601 298.2850 -9222.2235 -7429.2662 301.0672 84.7260 147.3941 30421.4976 -50.2543 1.4427
ENERGY: 1200000 1.4837 17.1850 12.5562 0.0000 -10666.2690 1422.1251 0.0000 0.0000 1748.6705 -7464.2485 297.6394 -9212.9189 -7439.6585 300.1794 -147.4805 -54.7540 30474.2520 -47.6899 10.2219
ENERGY: 1500000 1.6025 7.8393 11.7529 0.0000 -10665.1638 1405.3711 0.0000 0.0000 1747.8160 -7490.7819 297.4940 -9238.5979 -7456.9724 299.0659 -44.9089 5.1922 30038.9344 -60.3917 -5.2159
TCL: Running FEP window   3: Lambda1 0.8999999999999999 Lambda2 0.8499999999999999 [dLambda -0.050000000000000044]
TCL: Setting parameter firsttimestep to 0
TCL: Setting parameter alchLambda to 0.8999999999999999
Info: NONBONDED TABLE R-SQUARED SPACING: 0.0625
Info: NONBONDED TABLE SIZE: 705 POINTS
TCL: Setting parameter alchLambda2 to 0.8499999999999999
Info: NONBONDED TABLE R-SQUARED SPACING: 0.0625
Info: NONBONDED TABLE SIZE: 705 POINTS
TCL: Running for 1500000 steps
ETITLE: TS BOND ANGLE DIHED IMPRP ELECT VDW BOUNDARY MISC KINETIC TOTAL TEMP POTENTIAL TOTALAVG TEMPAVG PRESSURE GPRESSURE VOLUME PRESSAVG GPRESSAVG
ENERGY: 0 1.6025 7.8393 11.7529 0.0000 -10664.9624 1405.8049 0.0000 0.0000 1746.9245 -7491.0383 297.3423 -9237.9628 -7491.0383 297.3423 -78.3133 -1.9358 30038.9344 -78.3133 -1.9358
ENERGY: 300000 3.8827 9.7234 13.2859 0.0000 -10707.5216 1435.6409 0.0000 0.0000 1765.1914 -7479.7972 300.4514 -9244.9886 -7459.3390 300.3926 -53.3444 -52.9314 30477.0125 -66.3781 -11.7291
ENERGY: 600000 1.7949 6.7511 15.8766 0.0000 -10685.6887 1423.1586 0.0000 0.0000 1795.2438 -7442.8636 305.5666 -9238.1074 -7460.2810 300.2102 -270.8225 -175.2043 30563.4159 75.1330 136.2927
ENERGY: 900000 1.2022 7.5438 12.2373 0.0000 -10703.0751 1373.0224 0.0000 0.0000 1774.2944 -7534.7749 302.0009 -9309.0693 -7467.7715 300.4747 -684.5387 -586.6114 30225.8227 -53.8624 16.6115
ENERGY: 1200000 2.9164 8.5848 14.4108 0.0000 -10779.5532 1458.1379 0.0000 0.0000 1720.2648 -7575.2385 292.8045 -9295.5033 -7481.0639 298.8879 -143.8371 -87.9122 30275.2663 -86.5011 -21.0365
ENERGY: 1500000 1.4584 8.1867 12.9896 0.0000 -10748.7813 1445.3825 0.0000 0.0000 1785.1821 -7495.5821 303.8540 -9280.7642 -7478.9240 299.7545 426.0155 442.9596 29585.4079 -66.0798 -2.5157
TCL: Running FEP window   4: Lambda1 0.8499999999999999 Lambda2 0.7999999999999998 [dLambda -0.050000000000000044]
TCL: Setting parameter firsttimestep to 0
TCL: Setting parameter alchLambda to 0.8499999999999999
Info: NONBONDED TABLE R-SQUARED SPACING: 0.0625
Info: NONBONDED TABLE SIZE: 705 POINTS
TCL: Setting parameter alchLambda2 to 0.7999999999999998
Info: NONBONDED TABLE R-SQUARED SPACING: 0.0625
Info: NONBONDED TABLE SIZE: 705 POINTS
TCL: Running for 1500000 steps
ETITLE: TS BOND ANGLE DIHED IMPRP ELECT VDW BOUNDARY MISC KINETIC TOTAL TEMP POTENTIAL TOTALAVG TEMPAVG PRESSURE GPRESSURE VOLUME PRESSAVG GPRESSAVG
ENERGY: 0 1.4584 8.1867 12.9896 0.0000 -10748.5975 1445.7513 0.0000 0.0000 1784.3097 -7495.9020 303.7056 -9280.2116 -7495.9020 303.7056 353.2333 432.6228 29585.4079 353.2333 432.6228
ENERGY: 300000 2.6522 9.2856 14.6461 0.0000 -10642.6573 1414.8807 0.0000 0.0000 1709.2364 -7491.9562 290.9274 -9201.1927 -7457.5893 300.2826 -484.9309 -458.1949 31217.9768 -452.7359 -383.5969
ENERGY: 600000 2.6096 8.4785 13.8004 0.0000 -10727.0741 1441.3660 0.0000 0.0000 1791.5709 -7469.2488 304.9415 -9260.8197 -7448.4173 300.1959 217.9145 267.8631 29979.7390 -390.2306 -324.3444
ENERGY: 900000 2.5381 6.5304 11.4866 0.0000 -10749.1539 1441.7195 0.0000 0.0000 1786.2398 -7500.6395 304.0341 -9286.8793 -7461.2453 299.7961 -309.9187 -230.0208 30410.5370 -319.1750 -242.6422
ENERGY: 1200000 1.0610 5.8883 12.9813 0.0000 -10695.1331 1454.1970 0.0000 0.0000 1813.4071 -7407.5984 308.6582 -9221.0055 -7450.8832 301.0137 334.6183 386.2951 30220.6063 -206.3698 -129.0406
ENERGY: 1500000 1.9618 7.6706 11.8454 0.0000 -10716.9126 1460.4955 0.0000 0.0000 1757.4760 -7477.4633 299.1382 -9234.9393 -7453.4441 300.8051 132.5314 218.8938 30539.7760 -194.2343 -120.9317
TCL: Running FEP window   5: Lambda1 0.7999999999999998 Lambda2 0.7499999999999998 [dLambda -0.050000000000000044]
TCL: Setting parameter firsttimestep to 0
TCL: Setting parameter alchLambda to 0.7999999999999998
Info: NONBONDED TABLE R-SQUARED SPACING: 0.0625
Info: NONBONDED TABLE SIZE: 705 POINTS
TCL: Setting parameter alchLambda2 to 0.7499999999999998
Info: NONBONDED TABLE R-SQUARED SPACING: 0.0625
Info: NONBONDED TABLE SIZE: 705 POINTS
TCL: Running for 1500000 steps
ETITLE: TS BOND ANGLE DIHED IMPRP ELECT VDW BOUNDARY MISC KINETIC TOTAL TEMP POTENTIAL TOTALAVG TEMPAVG PRESSURE GPRESSURE VOLUME PRESSAVG GPRESSAVG
ENERGY: 0 1.9618 7.6706 11.8454 0.0000 -10716.9277 1460.9202 0.0000 0.0000 1756.6264 -7477.9033 298.9936 -9234.5297 -7477.9033 298.9936 126.3127 212.7165 30539.7760 126.3127 212.7165
ENERGY: 300000 1.4963 9.4130 11.6738 0.0000 -10570.0176 1407.3193 0.0000 0.0000 1821.1757 -7318.9394 309.9805 -9140.1152 -7423.1224 302.4792 298.7008 305.5482 30086.3185 228.8768 290.1144
ENERGY: 600000 2.6678 8.9779 12.7674 0.0000 -10786.0428 1464.5997 0.0000 0.0000 1776.0056 -7521.0243 302.2921 -9297.0299 -7438.3051 302.9449 257.2766 254.8281 30208.8706 0.2890 47.5728
ENERGY: 900000 1.8999 9.4417 13.7684 0.0000 -10528.0334 1351.9582 0.0000 0.0000 1763.6098 -7387.3554 300.1822 -9150.9652 -7436.4754 302.6665 -481.3063 -378.8308 30631.4709 39.6683 94.8971
ENERGY: 1200000 2.4222 12.5943 11.6942 0.0000 -10811.9540 1529.6974 0.0000 0.0000 1739.8575 -7515.6885 296.1394 -9255.5459 -7445.0433 302.3296 366.1973 433.4239 30439.1986 88.0398 150.1767
ENERGY: 1500000 1.1742 9.4419 11.9427 0.0000 -10650.9521 1452.0383 0.0000 0.0000 1771.6349 -7404.7201 301.5482 -9176.3551 -7445.0789 301.6922 257.6762 347.5640 30497.6482 89.2631 153.3828
TCL: Running FEP window   6: Lambda1 0.7499999999999998 Lambda2 0.6999999999999997 [dLambda -0.050000000000000044]
TCL: Setting parameter firsttimestep to 0
TCL: Setting parameter alchLambda to 0.7499999999999998
Info: NONBONDED TABLE R-SQUARED SPACING: 0.0625
Info: NONBONDED TABLE SIZE: 705 POINTS
TCL: Setting parameter alchLambda2 to 0.6999999999999997
Info: NONBONDED TABLE R-SQUARED SPACING: 0.0625
Info: NONBONDED TABLE SIZE: 705 POINTS
TCL: Running for 1500000 steps
ETITLE: TS BOND ANGLE DIHED IMPRP ELECT VDW BOUNDARY MISC KINETIC TOTAL TEMP POTENTIAL TOTALAVG TEMPAVG PRESSURE GPRESSURE VOLUME PRESSAVG GPRESSAVG
ENERGY: 0 1.1742 9.4419 11.9427 0.0000 -10650.9784 1452.2921 0.0000 0.0000 1770.7690 -7405.3585 301.4008 -9176.1275 -7405.3585 301.4008 268.1537 341.3477 30497.6482 268.1537 341.3477
ENERGY: 300000 2.2790 9.6422 12.3515 0.0000 -10722.8887 1477.2958 0.0000 0.0000 1809.7579 -7411.5622 308.0371 -9221.3202 -7415.1997 301.6711 338.5306 383.1719 30330.5944 -1.8467 43.6411
ENERGY: 600000 1.2707 8.6199 12.1144 0.0000 -10706.9623 1481.3356 0.0000 0.0000 1743.0026 -7460.6192 296.6747 -9203.6218 -7423.7963 302.1341 388.5085 489.3659 30289.3660 -72.6700 -6.9108
ENERGY: 900000 5.9496 4.5336 11.6644 0.0000 -10646.9473 1342.8138 0.0000 0.0000 1794.0148 -7487.9712 305.3575 -9281.9860 -7443.6273 301.4638 -690.5390 -599.1643 29815.1612 -112.2748 -47.4492
ENERGY: 1200000 0.9092 8.7930 13.7622 0.0000 -10649.8625 1392.6250 0.0000 0.0000 1819.5070 -7414.2662 309.6965 -9233.7732 -7449.5580 300.6423 -80.1654 -48.7098 30071.0048 -59.1690 0.2633
ENERGY: 1500000 1.9554 9.4987 12.8419 0.0000 -10774.9561 1480.3120 0.0000 0.0000 1722.4614 -7547.8867 293.1784 -9270.3481 -7460.3826 300.0464 44.4106 101.5473 30412.5487 -44.6017 17.7370
TCL: Running FEP window   7: Lambda1 0.6999999999999997 Lambda2 0.6499999999999997 [dLambda -0.050000000000000044]
TCL: Setting parameter firsttimestep to 0
TCL: Setting parameter alchLambda to 0.6999999999999997
Info: NONBONDED TABLE R-SQUARED SPACING: 0.0625
Info: NONBONDED TABLE SIZE: 705 POINTS
TCL: Setting parameter alchLambda2 to 0.6499999999999997
Info: NONBONDED TABLE R-SQUARED SPACING: 0.0625
Info: NONBONDED TABLE SIZE: 705 POINTS
TCL: Running for 1500000 steps
ETITLE: TS BOND ANGLE DIHED IMPRP ELECT VDW BOUNDARY MISC KINETIC TOTAL TEMP POTENTIAL TOTALAVG TEMPAVG PRESSURE GPRESSURE VOLUME PRESSAVG GPRESSAVG
ENERGY: 0 1.9554 9.4987 12.8419 0.0000 -10774.6360 1480.3925 0.0000 0.0000 1721.6058 -7548.3418 293.0328 -9269.9475 -7548.3418 293.0328 23.7845 93.1608 30412.5487 23.7845 93.1608
ENERGY: 300000 2.9760 4.1804 12.4264 0.0000 -10679.0870 1410.2459 0.0000 0.0000 1783.0933 -7466.1650 303.4985 -9249.2583 -7483.4030 299.9580 -11.1971 38.3445 29793.9378 3.6990 59.3197
ENERGY: 600000 2.6364 10.9811 14.1604 0.0000 -10784.7648 1504.4801 0.0000 0.0000 1756.1864 -7496.3204 298.9187 -9252.5068 -7494.0968 298.8320 353.2950 416.3168 30356.5102 264.2367 325.1609
ENERGY: 900000 4.1106 11.8847 13.6264 0.0000 -10621.1238 1341.1419 0.0000 0.0000 1720.7707 -7529.5895 292.8907 -9250.3602 -7503.4020 297.7365 -1106.8156 -1029.2345 30564.2398 56.3949 119.6321
ENERGY: 1200000 2.6515 11.8544 14.0585 0.0000 -10740.2483 1500.9767 0.0000 0.0000 1777.1860 -7433.5213 302.4930 -9210.7073 -7492.9883 298.5525 722.4629 836.5395 30005.5392 72.1304 136.0125
ENERGY: 1500000 1.5839 13.7275 14.1370 0.0000 -10652.9577 1399.1742 0.0000 0.0000 1782.3524 -7441.9827 303.3724 -9224.3350 -7494.1242 298.3151 143.4439 212.3871 29750.4691 92.7549 153.4714
TCL: Running FEP window   8: Lambda1 0.6499999999999997 Lambda2 0.5999999999999996 [dLambda -0.050000000000000044]
TCL: Setting parameter firsttimestep to 0
TCL: Setting parameter alchLambda to 0.6499999999999997
Info: NONBONDED TABLE R-SQUARED SPACING: 0.0625
Info: NONBONDED TABLE SIZE: 705 POINTS
TCL: Setting parameter alchLambda2 to 0.5999999999999996
Info: NONBONDED TABLE R-SQUARED SPACING: 0.0625
Info: NONBONDED TABLE SIZE: 705 POINTS
TCL: Running for 1500000 steps
ETITLE: TS BOND ANGLE DIHED IMPRP ELECT VDW BOUNDARY MISC KINETIC TOTAL TEMP POTENTIAL TOTALAVG TEMPAVG PRESSURE GPRESSURE VOLUME PRESSAVG GPRESSAVG
ENERGY: 0 1.5839 13.7275 14.1370 0.0000 -10652.9801 1399.7641 0.0000 0.0000 1781.4424 -7442.3251 303.2175 -9223.7675 -7442.3251 303.2175 124.9446 209.9215 29750.4691 124.9446 209.9215
ENERGY: 300000 0.7994 9.5792 15.5013 0.0000 -10743.4678 1462.5104 0.0000 0.0000 1751.9678 -7503.1097 298.2007 -9255.0775 -7480.8627 302.3327 260.8481 233.5490 30044.5955 124.2189 178.6121
ENERGY: 600000 2.9669 5.4349 13.3095 0.0000 -10682.3127 1506.4769 0.0000 0.0000 1783.6917 -7370.4329 303.6004 -9154.1246 -7466.3566 302.4752 718.6397 755.3362 30240.8437 132.7757 182.8415
ENERGY: 900000 1.0997 9.3468 12.2918 0.0000 -10689.9096 1503.3115 0.0000 0.0000 1801.9598 -7361.9000 306.7098 -9163.8598 -7459.3823 302.1698 686.7131 756.6181 30351.6675 169.2268 225.4699
ENERGY: 1200000 1.8847 8.5232 12.1294 0.0000 -10583.4254 1368.5884 0.0000 0.0000 1754.6288 -7437.6709 298.6536 -9192.2997 -7449.6727 300.9469 -212.6164 -185.3133 30106.6220 40.9419 95.6590
ENERGY: 1500000 0.3924 9.5163 12.1185 0.0000 -10974.5038 1648.6339 0.0000 0.0000 1776.5693 -7527.2733 302.3881 -9303.8426 -7451.2488 301.1277 1667.2963 1753.9069 29925.0496 114.8196 169.0189
TCL: Running FEP window   9: Lambda1 0.5999999999999996 Lambda2 0.5499999999999996 [dLambda -0.050000000000000044]
TCL: Setting parameter firsttimestep to 0
TCL: Setting parameter alchLambda to 0.5999999999999996
Info: NONBONDED TABLE R-SQUARED SPACING: 0.0625
Info: NONBONDED TABLE SIZE: 705 POINTS
TCL: Setting parameter alchLambda2 to 0.5499999999999996
Info: NONBONDED TABLE R-SQUARED SPACING: 0.0625
Info: NONBONDED TABLE SIZE: 705 POINTS
TCL: Running for 1500000 steps
ETITLE: TS BOND ANGLE DIHED IMPRP ELECT VDW BOUNDARY MISC KINETIC TOTAL TEMP POTENTIAL TOTALAVG TEMPAVG PRESSURE GPRESSURE VOLUME PRESSAVG GPRESSAVG
ENERGY: 0 0.3924 9.5163 12.1185 0.0000 -10974.0324 1648.3148 0.0000 0.0000 1775.6790 -7528.0114 302.2365 -9303.6905 -7528.0114 302.2365 1670.0555 1741.9594 29925.0496 1670.0555 1741.9594
ENERGY: 300000 1.0850 6.7578 12.5508 0.0000 -10732.7335 1519.9084 0.0000 0.0000 1809.0246 -7383.4069 307.9123 -9192.4315 -7430.1150 303.1342 803.0994 873.0550 29953.4019 463.3761 538.8219
ENERGY: 600000 2.4338 6.8317 11.3296 0.0000 -10714.0782 1428.1218 0.0000 0.0000 1735.7392 -7529.6220 295.4384 -9265.3613 -7456.1316 300.2149 -204.1111 -208.7723 30432.3073 235.4275 288.3675
ENERGY: 900000 3.7435 5.0292 12.6998 0.0000 -10708.1975 1473.3367 0.0000 0.0000 1746.3679 -7467.0205 297.2475 -9213.3884 -7448.2178 301.0416 250.7950 322.4701 30256.6511 95.1029 149.1872
ENERGY: 1200000 1.3856 11.3843 12.3401 0.0000 -10788.2458 1477.5753 0.0000 0.0000 1779.1435 -7506.4170 302.8262 -9285.5605 -7448.3829 302.1698 -80.0714 13.2008 30567.5859 18.8692 79.0398
ENERGY: 1500000 2.7565 11.1511 13.2736 0.0000 -10595.4834 1375.2884 0.0000 0.0000 1768.1161 -7424.8976 300.9493 -9193.0137 -7444.6250 301.5080 -235.5153 -200.5340 30051.3899 -24.3237 37.8291
TCL: Running FEP window  10: Lambda1 0.5499999999999996 Lambda2 0.4999999999999996 [dLambda -0.04999999999999999]
TCL: Setting parameter firsttimestep to 0
TCL: Setting parameter alchLambda to 0.5499999999999996
Info: NONBONDED TABLE R-SQUARED SPACING: 0.0625
Info: NONBONDED TABLE SIZE: 705 POINTS
TCL: Setting parameter alchLambda2 to 0.4999999999999996
Info: NONBONDED TABLE R-SQUARED SPACING: 0.0625
Info: NONBONDED TABLE SIZE: 705 POINTS
TCL: Running for 1500000 steps
ETITLE: TS BOND ANGLE DIHED IMPRP ELECT VDW BOUNDARY MISC KINETIC TOTAL TEMP POTENTIAL TOTALAVG TEMPAVG PRESSURE GPRESSURE VOLUME PRESSAVG GPRESSAVG
ENERGY: 0 2.7565 11.1511 13.2736 0.0000 -10595.5154 1375.2175 0.0000 0.0000 1767.2143 -7425.9023 300.7958 -9193.1166 -7425.9023 300.7958 -300.8678 -212.9395 30051.3899 -300.8678 -212.9395
ENERGY: 300000 2.0728 10.2881 12.8881 0.0000 -10836.5290 1521.9205 0.0000 0.0000 1722.6205 -7566.7390 293.2055 -9289.3595 -7486.2593 296.2527 552.7963 566.4397 30094.2418 -253.8362 -195.5482
ENERGY: 600000 0.8727 8.9306 14.2800 0.0000 -10577.1746 1402.7786 0.0000 0.0000 1756.8887 -7393.4241 299.0383 -9150.3128 -7474.5747 297.2790 -192.2802 -97.2428 30351.5565 -256.8325 -197.4007
ENERGY: 900000 0.5511 6.1549 12.3524 0.0000 -10758.9955 1478.8999 0.0000 0.0000 1754.2093 -7506.8279 298.5822 -9261.0372 -7474.1075 298.7054 14.4676 146.0304 30557.5554 -199.6093 -134.8692
ENERGY: 1200000 1.3765 9.6913 12.7799 0.0000 -10923.7617 1552.4747 0.0000 0.0000 1742.1534 -7605.2860 296.5302 -9347.4394 -7478.8994 299.2695 454.3892 541.9376 30350.7783 -104.8907 -44.5484
ENERGY: 1500000 1.7637 7.0678 13.4185 0.0000 -10660.4534 1394.8772 0.0000 0.0000 1768.4989 -7474.8273 301.0144 -9243.3262 -7473.6105 300.3503 -494.5734 -396.7127 30355.4360 -141.4810 -76.4123
TCL: Running FEP window  11: Lambda1 0.4999999999999996 Lambda2 0.4499999999999996 [dLambda -0.04999999999999999]
TCL: Setting parameter firsttimestep to 0
TCL: Setting parameter alchLambda to 0.4999999999999996
Info: NONBONDED TABLE R-SQUARED SPACING: 0.0625
Info: NONBONDED TABLE SIZE: 705 POINTS
TCL: Setting parameter alchLambda2 to 0.4499999999999996
Info: NONBONDED TABLE R-SQUARED SPACING: 0.0625
Info: NONBONDED TABLE SIZE: 705 POINTS
TCL: Running for 1500000 steps
ETITLE: TS BOND ANGLE DIHED IMPRP ELECT VDW BOUNDARY MISC KINETIC TOTAL TEMP POTENTIAL TOTALAVG TEMPAVG PRESSURE GPRESSURE VOLUME PRESSAVG GPRESSAVG
ENERGY: 0 1.7637 7.0678 13.4185 0.0000 -10660.3298 1395.2072 0.0000 0.0000 1767.6236 -7475.2490 300.8654 -9242.8726 -7475.2490 300.8654 -485.9145 -398.7847 30355.4360 -485.9145 -398.7847
ENERGY: 300000 1.6436 7.1254 12.0677 0.0000 -10524.0200 1370.3004 0.0000 0.0000 1745.1406 -7387.7424 297.0386 -9132.8830 -7452.4167 298.3294 -387.2599 -367.9496 30880.7243 -25.5985 33.9363
ENERGY: 600000 1.9231 10.5116 12.0549 0.0000 -10654.8599 1387.7964 0.0000 0.0000 1760.6731 -7481.9008 299.6824 -9242.5739 -7451.8559 299.4837 -577.2217 -499.7435 30749.7131 -118.0449 -58.4285
ENERGY: 900000 1.4495 10.0604 13.8181 0.0000 -10835.3350 1492.0846 0.0000 0.0000 1797.2245 -7520.6979 305.9038 -9317.9224 -7472.7058 300.2391 197.6777 248.3678 30434.5760 -51.3880 4.2967
ENERGY: 1200000 6.6027 11.5647 12.2285 0.0000 -10680.9910 1420.7029 0.0000 0.0000 1761.0570 -7468.8352 299.7477 -9229.8921 -7483.0476 300.2256 -140.9171 -9.7636 30032.2280 -56.5433 8.8399
ENERGY: 1500000 2.5672 8.8786 12.5992 0.0000 -10705.9263 1457.5447 0.0000 0.0000 1803.0659 -7421.2706 306.8980 -9224.3365 -7469.8775 301.4261 329.2494 342.7140 29772.5065 -21.6078 38.2187
TCL: Running FEP window  12: Lambda1 0.4499999999999996 Lambda2 0.39999999999999963 [dLambda -0.04999999999999999]
TCL: Setting parameter firsttimestep to 0
TCL: Setting parameter alchLambda to 0.4499999999999996
Info: NONBONDED TABLE R-SQUARED SPACING: 0.0625
Info: NONBONDED TABLE SIZE: 705 POINTS
TCL: Setting parameter alchLambda2 to 0.39999999999999963
Info: NONBONDED TABLE R-SQUARED SPACING: 0.0625
Info: NONBONDED TABLE SIZE: 705 POINTS
TCL: Running for 1500000 steps
ETITLE: TS BOND ANGLE DIHED IMPRP ELECT VDW BOUNDARY MISC KINETIC TOTAL TEMP POTENTIAL TOTALAVG TEMPAVG PRESSURE GPRESSURE VOLUME PRESSAVG GPRESSAVG
ENERGY: 0 2.5672 8.8786 12.5992 0.0000 -10705.9278 1457.9183 0.0000 0.0000 1802.1465 -7421.8179 306.7415 -9223.9644 -7421.8179 306.7415 249.1059 341.2132 29772.5065 249.1059 341.2132
ENERGY: 300000 2.4973 7.7867 11.4523 0.0000 -10705.6851 1488.3756 0.0000 0.0000 1737.4401 -7458.1332 295.7279 -9195.5732 -7443.2735 301.3975 443.5427 443.4089 30304.1502 293.2745 345.1707
ENERGY: 600000 2.2524 5.2991 12.2933 0.0000 -10627.7025 1397.6746 0.0000 0.0000 1767.5830 -7442.6000 300.8585 -9210.1830 -7469.9381 297.9242 -536.0656 -410.5795 30543.5737 38.6345 115.2206
ENERGY: 900000 2.9968 11.4825 14.0685 0.0000 -10671.1625 1447.9754 0.0000 0.0000 1809.5164 -7385.1229 307.9960 -9194.6393 -7474.1087 299.0954 356.5332 402.2841 29973.3450 34.5306 117.1419
ENERGY: 1200000 1.3563 5.7117 12.0179 0.0000 -10612.8453 1402.5053 0.0000 0.0000 1774.9206 -7416.3336 302.1074 -9191.2541 -7467.7544 299.0911 -340.8783 -252.8547 30602.1115 -69.5063 8.0977
ENERGY: 1500000 2.2989 7.4923 16.8539 0.0000 -10735.3784 1444.8363 0.0000 0.0000 1739.1169 -7524.7801 296.0133 -9263.8971 -7468.1503 299.2522 119.2621 100.7777 30175.4814 5.7799 74.2584
TCL: Running FEP window  13: Lambda1 0.39999999999999963 Lambda2 0.34999999999999964 [dLambda -0.04999999999999999]
TCL: Setting parameter firsttimestep to 0
TCL: Setting parameter alchLambda to 0.39999999999999963
Info: NONBONDED TABLE R-SQUARED SPACING: 0.0625
Info: NONBONDED TABLE SIZE: 705 POINTS
TCL: Setting parameter alchLambda2 to 0.34999999999999964
Info: NONBONDED TABLE R-SQUARED SPACING: 0.0625
Info: NONBONDED TABLE SIZE: 705 POINTS
TCL: Running for 1500000 steps
ETITLE: TS BOND ANGLE DIHED IMPRP ELECT VDW BOUNDARY MISC KINETIC TOTAL TEMP POTENTIAL TOTALAVG TEMPAVG PRESSURE GPRESSURE VOLUME PRESSAVG GPRESSAVG
ENERGY: 0 2.2989 7.4923 16.8539 0.0000 -10735.3787 1444.7349 0.0000 0.0000 1738.2674 -7525.7313 295.8688 -9263.9987 -7525.7313 295.8688 28.1152 93.7872 30175.4814 28.1152 93.7872
ENERGY: 300000 1.2586 6.5446 14.0332 0.0000 -10578.0336 1386.5198 0.0000 0.0000 1746.2843 -7423.3930 297.2333 -9169.6773 -7486.3038 298.2843 -371.2846 -341.5718 30653.7187 7.9713 49.3509
ENERGY: 600000 1.2203 8.4637 15.1139 0.0000 -10525.6637 1374.2617 0.0000 0.0000 1723.6415 -7402.9627 293.3793 -9126.6042 -7467.4908 298.0168 -460.8941 -417.5562 30680.8604 4.9817 56.6255
ENERGY: 900000 2.4786 8.2870 11.8467 0.0000 -10626.2842 1418.9593 0.0000 0.0000 1796.0472 -7388.6654 305.7034 -9184.7126 -7457.8588 298.4827 -349.6663 -240.9814 30768.3388 -104.9463 -45.5400
ENERGY: 1200000 2.1332 4.8206 12.4857 0.0000 -10676.6567 1358.7036 0.0000 0.0000 1701.9616 -7596.5520 289.6892 -9298.5136 -7462.8814 298.3749 -783.2906 -830.6663 30352.8560 -222.1326 -172.3372
ENERGY: 1500000 1.5324 6.7278 12.8453 0.0000 -10643.5830 1393.2239 0.0000 0.0000 1761.3440 -7467.9096 299.7966 -9229.2536 -7456.0929 298.6678 -108.0191 -22.8830 30015.5478 -204.3144 -146.0894
TCL: Running FEP window  14: Lambda1 0.34999999999999964 Lambda2 0.29999999999999966 [dLambda -0.04999999999999999]
TCL: Setting parameter firsttimestep to 0
TCL: Setting parameter alchLambda to 0.34999999999999964
Info: NONBONDED TABLE R-SQUARED SPACING: 0.0625
Info: NONBONDED TABLE SIZE: 705 POINTS
TCL: Setting parameter alchLambda2 to 0.29999999999999966
Info: NONBONDED TABLE R-SQUARED SPACING: 0.0625
Info: NONBONDED TABLE SIZE: 705 POINTS
TCL: Running for 1500000 steps
ETITLE: TS BOND ANGLE DIHED IMPRP ELECT VDW BOUNDARY MISC KINETIC TOTAL TEMP POTENTIAL TOTALAVG TEMPAVG PRESSURE GPRESSURE VOLUME PRESSAVG GPRESSAVG
ENERGY: 0 1.5324 6.7278 12.8453 0.0000 -10643.5852 1393.2367 0.0000 0.0000 1760.4511 -7468.7919 299.6446 -9229.2430 -7468.7919 299.6446 -131.1340 -28.5992 30015.5478 -131.1340 -28.5992
ENERGY: 300000 4.3095 7.3349 12.4865 0.0000 -10787.7112 1447.5481 0.0000 0.0000 1771.8281 -7544.2041 301.5811 -9316.0322 -7487.1928 301.5878 -109.5511 -2.6718 29996.4872 92.4263 147.6398
ENERGY: 600000 0.4215 7.1843 14.6332 0.0000 -10798.3678 1537.2487 0.0000 0.0000 1800.4326 -7438.4476 306.4498 -9238.8802 -7465.4993 301.5787 818.9481 859.7852 30119.6970 72.5288 119.8396
ENERGY: 900000 1.4227 8.7425 13.2339 0.0000 -10669.5795 1439.6139 0.0000 0.0000 1743.5714 -7462.9950 296.7715 -9206.5665 -7463.1068 300.3270 -129.0562 -34.4762 30504.2990 -45.6527 15.1801
ENERGY: 1200000 2.5513 8.7193 14.7043 0.0000 -10682.5357 1436.6753 0.0000 0.0000 1766.3155 -7453.5699 300.6428 -9219.8854 -7469.5932 299.2214 -108.2218 -63.2000 30537.4557 -62.7987 -5.4989
ENERGY: 1500000 2.2076 8.3629 13.1330 0.0000 -10655.0700 1461.5898 0.0000 0.0000 1726.6796 -7443.0972 293.8964 -9169.7767 -7469.2683 298.6426 161.3065 259.0717 30298.7392 -96.7967 -36.2316
TCL: Running FEP window  15: Lambda1 0.29999999999999966 Lambda2 0.24999999999999967 [dLambda -0.04999999999999999]
TCL: Setting parameter firsttimestep to 0
TCL: Setting parameter alchLambda to 0.29999999999999966
Info: NONBONDED TABLE R-SQUARED SPACING: 0.0625
Info: NONBONDED TABLE SIZE: 705 POINTS
TCL: Setting parameter alchLambda2 to 0.24999999999999967
Info: NONBONDED TABLE R-SQUARED SPACING: 0.0625
Info: NONBONDED TABLE SIZE: 705 POINTS
TCL: Running for 1500000 steps
ETITLE: TS BOND ANGLE DIHED IMPRP ELECT VDW BOUNDARY MISC KINETIC TOTAL TEMP POTENTIAL TOTALAVG TEMPAVG PRESSURE GPRESSURE VOLUME PRESSAVG GPRESSAVG
ENERGY: 0 2.2076 8.3629 13.1330 0.0000 -10655.0681 1461.9416 0.0000 0.0000 1725.7757 -7443.6473 293.7426 -9169.4230 -7443.6473 293.7426 172.0998 253.6503 30298.7392 172.0998 253.6503
ENERGY: 300000 2.3859 8.6410 14.0481 0.0000 -10515.6300 1323.5864 0.0000 0.0000 1748.0140 -7418.9547 297.5277 -9166.9686 -7451.4036 300.1733 -956.8277 -906.2730 30787.1622 79.4308 146.5596
ENERGY: 600000 1.1335 5.8986 14.7046 0.0000 -10802.9452 1499.7799 0.0000 0.0000 1737.4337 -7543.9950 295.7268 -9281.4287 -7473.4719 300.4362 305.4676 326.5204 30010.6700 15.7302 74.5333
ENERGY: 900000 2.9923 7.7950 13.6337 0.0000 -10468.4442 1295.3192 0.0000 0.0000 1719.1381 -7429.5658 292.6128 -9148.7039 -7466.5078 300.8515 -995.8694 -984.5954 30644.1791 -124.2482 -66.5431
ENERGY: 1200000 2.4417 10.2629 12.4723 0.0000 -10779.3599 1514.9200 0.0000 0.0000 1772.5403 -7466.7227 301.7023 -9239.2630 -7470.7578 300.0004 388.8844 389.1205 30271.9560 -97.3493 -37.5174
ENERGY: 1500000 4.1927 8.8584 13.4420 0.0000 -10530.1756 1329.0228 0.0000 0.0000 1756.2440 -7418.4157 298.9285 -9174.6597 -7474.8329 299.6328 -1034.1035 -965.4197 30643.1350 -189.4368 -128.6474
TCL: Running FEP window  16: Lambda1 0.24999999999999967 Lambda2 0.19999999999999968 [dLambda -0.04999999999999999]
TCL: Setting parameter firsttimestep to 0
TCL: Setting parameter alchLambda to 0.24999999999999967
Info: NONBONDED TABLE R-SQUARED SPACING: 0.0625
Info: NONBONDED TABLE SIZE: 705 POINTS
TCL: Setting parameter alchLambda2 to 0.19999999999999968
Info: NONBONDED TABLE R-SQUARED SPACING: 0.0625
Info: NONBONDED TABLE SIZE: 705 POINTS
TCL: Running for 1500000 steps
ETITLE: TS BOND ANGLE DIHED IMPRP ELECT VDW BOUNDARY MISC KINETIC TOTAL TEMP POTENTIAL TOTALAVG TEMPAVG PRESSURE GPRESSURE VOLUME PRESSAVG GPRESSAVG
ENERGY: 0 4.1927 8.8584 13.4420 0.0000 -10530.1754 1328.7233 0.0000 0.0000 1755.2982 -7419.6608 298.7675 -9174.9590 -7419.6608 298.7675 -1054.0609 -973.5196 30643.1350 -1054.0609 -973.5196
ENERGY: 300000 3.6513 8.9867 12.9708 0.0000 -10678.3476 1477.4994 0.0000 0.0000 1754.8182 -7420.4213 298.6858 -9175.2395 -7425.4048 303.2954 594.9492 646.1492 30112.7614 -211.5103 -160.7804
ENERGY: 600000 1.6994 9.0203 14.1243 0.0000 -10583.9044 1398.0726 0.0000 0.0000 1748.0221 -7412.9657 297.5291 -9160.9878 -7439.3666 300.6960 -18.9852 47.2647 30178.2229 -252.5639 -201.6834
ENERGY: 900000 1.1275 10.4064 12.3614 0.0000 -10563.1036 1368.3997 0.0000 0.0000 1750.6272 -7420.1815 297.9725 -9170.8087 -7447.6901 298.9954 -408.6169 -339.7070 30242.4110 -283.3432 -244.3579
ENERGY: 1200000 2.0479 7.2147 12.8435 0.0000 -10597.6229 1355.1447 0.0000 0.0000 1765.5633 -7454.8088 300.5148 -9220.3721 -7460.1761 298.7359 -780.7786 -733.4104 30209.4649 -237.8418 -184.6556
ENERGY: 1500000 0.7332 6.8257 11.3938 0.0000 -10674.8701 1424.8022 0.0000 0.0000 1812.2261 -7418.8890 308.4572 -9231.1151 -7469.4362 299.3665 147.7472 263.6037 29819.9127 -159.8230 -106.0914
TCL: Running FEP window  17: Lambda1 0.19999999999999968 Lambda2 0.1499999999999997 [dLambda -0.04999999999999999]
TCL: Setting parameter firsttimestep to 0
TCL: Setting parameter alchLambda to 0.19999999999999968
Info: NONBONDED TABLE R-SQUARED SPACING: 0.0625
Info: NONBONDED TABLE SIZE: 705 POINTS
TCL: Setting parameter alchLambda2 to 0.1499999999999997
Info: NONBONDED TABLE R-SQUARED SPACING: 0.0625
Info: NONBONDED TABLE SIZE: 705 POINTS
TCL: Running for 1500000 steps
ETITLE: TS BOND ANGLE DIHED IMPRP ELECT VDW BOUNDARY MISC KINETIC TOTAL TEMP POTENTIAL TOTALAVG TEMPAVG PRESSURE GPRESSURE VOLUME PRESSAVG GPRESSAVG
ENERGY: 0 0.7332 6.8257 11.3938 0.0000 -10674.8691 1424.8116 0.0000 0.0000 1811.3743 -7419.7305 308.3122 -9231.1048 -7419.7305 308.3122 173.8594 258.8970 29819.9127 173.8594 258.8970
ENERGY: 300000 1.6363 10.7633 11.8403 0.0000 -10712.8067 1435.6648 0.0000 0.0000 1770.5570 -7482.3450 301.3647 -9252.9020 -7451.9872 304.2847 -141.6411 -95.2266 30367.3360 -98.4747 -69.4646
ENERGY: 600000 2.2041 9.4906 13.2175 0.0000 -10571.7158 1360.3817 0.0000 0.0000 1722.7523 -7463.6698 293.2279 -9186.4221 -7443.0489 302.6860 -714.9986 -605.9957 30310.4533 -340.6916 -299.6532
ENERGY: 900000 2.3681 11.5877 13.2977 0.0000 -10639.9170 1429.7092 0.0000 0.0000 1756.4513 -7426.5030 298.9638 -9182.9543 -7445.1920 301.5402 268.5526 273.5733 29987.3039 -249.3130 -207.1227
ENERGY: 1200000 1.8304 7.2994 12.5010 0.0000 -10844.6065 1511.9391 0.0000 0.0000 1742.7520 -7568.2845 296.6321 -9311.0365 -7447.6347 301.5061 588.0342 699.2099 29758.8133 -141.5434 -91.4725
ENERGY: 1500000 2.5193 8.2764 12.7486 0.0000 -10726.2769 1459.4502 0.0000 0.0000 1782.9640 -7460.3184 303.4765 -9243.2823 -7444.5383 302.8409 202.8802 229.0674 30127.8021 -69.8909 -18.4868
TCL: Running FEP window  18: Lambda1 0.1499999999999997 Lambda2 0.09999999999999969 [dLambda -0.05 ]
TCL: Setting parameter firsttimestep to 0
TCL: Setting parameter alchLambda to 0.1499999999999997
Info: NONBONDED TABLE R-SQUARED SPACING: 0.0625
Info: NONBONDED TABLE SIZE: 705 POINTS
TCL: Setting parameter alchLambda2 to 0.09999999999999969
Info: NONBONDED TABLE R-SQUARED SPACING: 0.0625
Info: NONBONDED TABLE SIZE: 705 POINTS
TCL: Running for 1500000 steps
ETITLE: TS BOND ANGLE DIHED IMPRP ELECT VDW BOUNDARY MISC KINETIC TOTAL TEMP POTENTIAL TOTALAVG TEMPAVG PRESSURE GPRESSURE VOLUME PRESSAVG GPRESSAVG
ENERGY: 0 2.5193 8.2764 12.7486 0.0000 -10726.2772 1459.4242 0.0000 0.0000 1782.0847 -7461.2240 303.3268 -9243.3086 -7461.2240 303.3268 161.0699 229.2041 30127.8021 161.0699 229.2041
ENERGY: 300000 2.4742 7.7340 15.0325 0.0000 -10813.9463 1600.6841 0.0000 0.0000 1760.7642 -7427.2573 299.6979 -9188.0214 -7437.1952 303.1415 1433.3030 1450.0283 29942.8965 164.6875 239.8184
ENERGY: 600000 2.0656 9.8547 13.2614 0.0000 -10580.5457 1369.2136 0.0000 0.0000 1778.3332 -7407.8172 302.6883 -9186.1504 -7436.6704 301.7961 -449.6370 -382.6257 30452.0147 105.6508 167.9837
ENERGY: 900000 2.1196 12.2180 12.5723 0.0000 -10725.2625 1457.3634 0.0000 0.0000 1743.8066 -7497.1827 296.8116 -9240.9893 -7457.6099 300.8891 65.3498 178.0065 29963.0298 14.1515 79.3027
ENERGY: 1200000 1.4789 10.7554 11.9833 0.0000 -10649.1855 1503.0467 0.0000 0.0000 1748.7361 -7373.1851 297.6506 -9121.9212 -7449.1379 300.5297 394.0850 428.3923 30844.0215 78.9051 142.9757
ENERGY: 1500000 2.5862 12.1337 13.6763 0.0000 -10674.8666 1431.9635 0.0000 0.0000 1785.4154 -7429.0915 303.8938 -9214.5069 -7449.1207 300.9967 -131.3966 -75.5871 30192.7986 13.6485 76.8940
TCL: Running FEP window  19: Lambda1 0.09999999999999969 Lambda2 0.049999999999999684 [dLambda -0.05 ]
TCL: Setting parameter firsttimestep to 0
TCL: Setting parameter alchLambda to 0.09999999999999969
Info: NONBONDED TABLE R-SQUARED SPACING: 0.0625
Info: NONBONDED TABLE SIZE: 705 POINTS
TCL: Setting parameter alchLambda2 to 0.049999999999999684
Info: NONBONDED TABLE R-SQUARED SPACING: 0.0625
Info: NONBONDED TABLE SIZE: 705 POINTS
TCL: Running for 1500000 steps
ETITLE: TS BOND ANGLE DIHED IMPRP ELECT VDW BOUNDARY MISC KINETIC TOTAL TEMP POTENTIAL TOTALAVG TEMPAVG PRESSURE GPRESSURE VOLUME PRESSAVG GPRESSAVG
ENERGY: 0 2.5862 12.1337 13.6763 0.0000 -10674.8664 1431.6968 0.0000 0.0000 1784.5521 -7430.2214 303.7468 -9214.7735 -7430.2214 303.7468 -163.3415 -78.5911 30192.7986 -163.3415 -78.5911
ENERGY: 300000 3.4905 12.0565 14.0530 0.0000 -10555.6476 1357.4645 0.0000 0.0000 1718.9015 -7449.6815 292.5725 -9168.5829 -7424.7418 300.5059 -683.5965 -641.9247 30502.3784 -163.4788 -99.4742
ENERGY: 600000 2.9438 5.5398 12.5724 0.0000 -10823.1693 1531.1039 0.0000 0.0000 1793.7194 -7477.2901 305.3072 -9271.0094 -7427.8238 300.8500 605.6181 702.5725 29824.1484 194.5573 256.6209
ENERGY: 900000 1.6109 10.3498 12.0542 0.0000 -10683.9136 1449.6741 0.0000 0.0000 1769.5299 -7440.6947 301.1899 -9210.2246 -7433.9607 301.6369 -275.2224 -216.1718 30759.7471 65.3642 124.9327
ENERGY: 1200000 2.7147 9.7251 14.8041 0.0000 -10657.2369 1426.7206 0.0000 0.0000 1779.4497 -7423.8227 302.8783 -9203.2724 -7439.1143 301.6542 -115.5508 -67.6069 30215.8512 88.4904 149.2024
ENERGY: 1500000 2.7264 7.5746 12.9659 0.0000 -10737.0506 1434.9448 0.0000 0.0000 1775.5788 -7503.2600 302.2195 -9278.8388 -7443.8805 301.9981 -293.1479 -193.2972 30135.8748 15.5835 82.2825
TCL: Running FEP window  20: Lambda1 0.049999999999999684 Lambda2 0.0    [dLambda -0.049999999999999684]
TCL: Setting parameter firsttimestep to 0
TCL: Setting parameter alchLambda to 0.049999999999999684
Info: NONBONDED TABLE R-SQUARED SPACING: 0.0625
Info: NONBONDED TABLE SIZE: 705 POINTS
TCL: Setting parameter alchLambda2 to 0.0
Info: NONBONDED TABLE R-SQUARED SPACING: 0.0625
Info: NONBONDED TABLE SIZE: 705 POINTS
TCL: Running for 1500000 steps
ETITLE: TS BOND ANGLE DIHED IMPRP ELECT VDW BOUNDARY MISC KINETIC TOTAL TEMP POTENTIAL TOTALAVG TEMPAVG PRESSURE GPRESSURE VOLUME PRESSAVG GPRESSAVG
ENERGY: 0 2.7264 7.5746 12.9659 0.0000 -10737.0502 1435.1676 0.0000 0.0000 1774.6695 -7503.9461 302.0647 -9278.6156 -7503.9461 302.0647 -274.8653 -194.1319 30135.8748 -274.8653 -194.1319
ENERGY: 300000 2.5983 7.3578 13.2337 0.0000 -10866.6620 1538.2752 0.0000 0.0000 1748.2666 -7556.9304 297.5707 -9305.1970 -7509.0097 298.6033 700.9887 779.8986 29631.4233 36.2946 103.8784
ENERGY: 600000 3.7465 5.6155 12.5486 0.0000 -10651.0954 1377.0537 0.0000 0.0000 1800.8042 -7451.3270 306.5131 -9252.1311 -7493.5125 299.6307 -609.6542 -556.1320 30135.7010 -273.1201 -197.9079
ENERGY: 900000 2.0827 6.5366 14.0850 0.0000 -10575.0458 1384.1318 0.0000 0.0000 1770.9001 -7397.3095 301.4231 -9168.2096 -7482.5664 299.8559 -392.5456 -284.7927 30202.7596 -171.8851 -101.1686
ENERGY: 1200000 1.1699 6.3285 13.7572 0.0000 -10574.1397 1374.4464 0.0000 0.0000 1743.8376 -7434.6001 296.8168 -9178.4377 -7477.2956 299.5817 -476.3991 -461.6891 30572.1117 -202.4672 -136.4370
ENERGY: 1500000 2.5356 4.5172 11.5176 0.0000 -10696.1945 1426.7563 0.0000 0.0000 1777.0142 -7473.8536 302.4638 -9250.8678 -7473.8876 299.7735 -6.4571 117.5846 29767.0898 -186.0492 -116.7072
TCL: Exiting due to exit command.
