Info: SIMULATION PARAMETERS:
Info: TIMESTEP               2
Info: NUMBER OF STEPS        0
Info: STEPS PER CYCLE        10
Info: PERIODIC CELL BASIS 1  31.0416 0 0
Info: PERIODIC CELL BASIS 2  0 31.7451 0
Info: PERIODIC CELL BASIS 3  0 0 31.6955
Info: PERIODIC CELL CENTER   0 0 0
Info: WRAPPING WATERS AROUND PERIODIC BOUNDARIES ON OUTPUT.
Info: WRAPPING ALL CLUSTERS AROUND PERIODIC BOUNDARIES ON OUTPUT.
Info: FIRST LDB TIMESTEP     50
Info: LAST LDB TIMESTEP     -1
Info: HOM BACKGROUND SCALING 1
Info: PME BACKGROUND SCALING 1
Info: MIN ATOMS PER PATCH    40
Info: EMPTY PATCH LOAD       40 ATOMS
Info: VELOCITY FILE          mobley_3006808_equil.vel
Info: CENTER OF MASS MOVING INITIALLY? NO
Info: DIELECTRIC             1
Info: EXCLUDE                SCALED ONE-FOUR
Info: 1-4 ELECTROSTATICS SCALED BY 0.833333
Info: MODIFIED 1-4 VDW PARAMETERS WILL BE USED
Info: DCD FILENAME           mobley_3006808_prod.dcd
Info: DCD FREQUENCY          100000
Info: DCD FIRST STEP         100000
Info: DCD FILE WILL CONTAIN UNIT CELL DATA
Info: XST FILENAME           mobley_3006808_prod.xst
Info: XST FREQUENCY          100000
Info: NO VELOCITY DCD OUTPUT
Info: NO FORCE DCD OUTPUT
Info: OUTPUT FILENAME        mobley_3006808_prod
Info: BINARY OUTPUT FILES WILL BE USED
Info: RESTART FILENAME       mobley_3006808_prod.restart
Info: RESTART FREQUENCY      100000
Info: BINARY RESTART FILES WILL BE USED
Info: CUTOFF                 9
Info: PAIRLIST DISTANCE      11
Info: PAIRLIST SHRINK RATE   0.01
Info: PAIRLIST GROW RATE     0.01
Info: PAIRLIST TRIGGER       0.3
Info: PAIRLISTS PER CYCLE    2
Info: PAIRLISTS ENABLED
Info: MARGIN                 2
Info: HYDROGEN GROUP CUTOFF  2.5
Info: PATCH DIMENSION        15.5
Info: ENERGY OUTPUT STEPS    100000
Info: ENERGY EVALUATION STEPS    100000
Info: OUTPUT ENERGY PRECISION 4
Info: CROSSTERM ENERGY INCLUDED IN DIHEDRAL
Info: TIMING OUTPUT STEPS    1000000
Info: PRESSURE OUTPUT STEPS  100000
Info: ALCHEMICAL FEP ON
Info: FEP CURRENT LAMBDA VALUE     0
Info: FEP COMPARISON LAMBDA VALUE  0.05
Info: FEP INTRA-ALCHEMICAL NON-BONDED INTERACTIONS WILL BE RETAINED
Info: FEP INTRA-ALCHEMICAL BONDED INTERACTIONS WILL BE RETAINED
Info: FEP VDW SHIFTING COEFFICIENT 5
Info: FEP ELEC. ACTIVE FOR ANNIHILATED PARTICLES BETWEEN LAMBDA = 0 AND LAMBDA = 0.5
Info: FEP ELEC. ACTIVE FOR EXNIHILATED PARTICLES BETWEEN LAMBDA = 0.5 AND LAMBDA = 1
Info: FEP VDW ACTIVE FOR ANNIHILATED PARTICLES BETWEEN LAMBDA = 0 AND LAMBDA = 1
Info: FEP VDW ACTIVE FOR EXNIHILATED PARTICLES BETWEEN LAMBDA = 0 AND LAMBDA = 1
Info: FEP BOND ACTIVE FOR ANNIHILATED PARTICLES BETWEEN LAMBDA = 1 AND LAMBDA = 1
Info: FEP BOND ACTIVE FOR EXNIHILATED PARTICLES BETWEEN LAMBDA = 0 AND LAMBDA = 0
Info: LANGEVIN DYNAMICS ACTIVE
Info: LANGEVIN TEMPERATURE   300
Info: LANGEVIN USING BBK INTEGRATOR
Info: LANGEVIN DAMPING COEFFICIENT IS 1 INVERSE PS
Info: LANGEVIN DYNAMICS APPLIED TO HYDROGENS
Info: LANGEVIN PISTON PRESSURE CONTROL ACTIVE
Info:        TARGET PRESSURE IS 1.01325 BAR
Info:     OSCILLATION PERIOD IS 50 FS
Info:             DECAY TIME IS 25 FS
Info:     PISTON TEMPERATURE IS 300 K
Info:       PRESSURE CONTROL IS GROUP-BASED
Info:    INITIAL STRAIN RATE IS 0.000372008 0.000372008 0.000372008
Info:       CELL FLUCTUATION IS ISOTROPIC
Info: PARTICLE MESH EWALD (PME) ACTIVE
Info: PME TOLERANCE               1e-06
Info: PME EWALD COEFFICIENT       0.348832
Info: PME INTERPOLATION ORDER     4
Info: PME GRID DIMENSIONS         32 32 32
Info: PME MAXIMUM GRID SPACING    1
Info: PME CALCULATION WILL BE PERFORMED ON GPU
Info: FULL ELECTROSTATIC EVALUATION FREQUENCY      2
Info: USING VERLET I (r-RESPA) MTS SCHEME.
Info: C1 SPLITTING OF LONG RANGE ELECTROSTATICS
Info: PLACING ATOMS IN PATCHES BY HYDROGEN GROUPS
Info: RIGID BONDS TO HYDROGEN : ALL
Info:         ERROR TOLERANCE : 1e-08
Info:          MAX ITERATIONS : 100
Info: RIGID WATER USING SETTLE ALGORITHM
Info: RANDOM NUMBER SEED     1743496630
Info: USE HYDROGEN BONDS?    NO
Info: Using AMBER format force field!
Info: AMBER PARM FILE        mobley_3006808.prmtop
Info: COORDINATE PDB         mobley_3006808.pdb
Info: Exclusions will be read from PARM file!
Info: SCNB (VDW SCALING)     2
Info: USING ARITHMETIC MEAN TO COMBINE L-J SIGMA PARAMETERS
Info: BINARY COORDINATES     mobley_3006808_equil.coor
Info: SUMMARY OF PARAMETERS:
Info: 7 BONDS
Info: 7 ANGLES
Info:   7 HARMONIC
Info:   0 COSINE-BASED
Info: 6 DIHEDRAL
Info: 0 IMPROPER
Info: 0 CROSSTERM
Info: 0 VDW
Info: 21 VDW_PAIRS
Info: 0 NBTHOLE_PAIRS
Info: To read alchdata from file: mobley_3006808.pdb
Info: To read alchflag data from column: 5
Info: STRUCTURE SUMMARY:
Info: 2991 ATOMS
Info: 2990 BONDS
Info: 13 ANGLES
Info: 19 DIHEDRALS
Info: 0 IMPROPERS
Info: 0 CROSSTERMS
Info: 3015 EXCLUSIONS
Info: 2985 RIGID BONDS
Info: ALCH: 0 ATOMS TO DISAPPEAR IN FINAL STATE
Info: ALCH: 9 ATOMS TO APPEAR IN FINAL STATE
Info: 5988 DEGREES OF FREEDOM
Info: 1000 HYDROGEN GROUPS
Info: 3 ATOMS IN LARGEST HYDROGEN GROUP
Info: 1000 MIGRATION GROUPS
Info: 3 ATOMS IN LARGEST MIGRATION GROUP
Info: TOTAL MASS = 18007.9 amu
Info: TOTAL CHARGE = 1.11759e-07 e
Info: MASS DENSITY = 0.957427 g/cm^3
Info: ATOM DENSITY = 0.0957632 atoms/A^3
Info: ADDED 0 IMPLICIT EXCLUSIONS
Info: NONBONDED TABLE R-SQUARED SPACING: 0.0625
Info: NONBONDED TABLE SIZE: 705 POINTS
Info: REDUCING NUMBER OF PATCHES TO IMPROVE LOAD BALANCE
Info: REMOVING COM VELOCITY 0.0679238 -0.35053 -0.16328
Info: Use 3D box decompostion in PME FFT.
Info: Updated CUDA force table with 4096 elements.
Info: Updated CUDA LJ table with 6 x 6 elements.
Info: Found 12 unique exclusion lists needing 16 bytes
TCL: Running for 1500000 steps
ETITLE: TS BOND ANGLE DIHED IMPRP ELECT VDW BOUNDARY MISC KINETIC TOTAL TEMP POTENTIAL TOTALAVG TEMPAVG PRESSURE GPRESSURE VOLUME PRESSAVG GPRESSAVG
ENERGY: 0 3.0991 1.5487 2.0266 0.0000 -10790.5975 1411.9501 0.0000 0.0000 1806.3827 -7565.5903 303.6116 -9371.9730 -7565.5903 303.6116 -658.4477 -561.8845 31233.2932 -658.4477 -561.8845
ENERGY: 300000 2.2571 2.2645 2.4664 0.0000 -10872.0185 1471.1312 0.0000 0.0000 1780.5160 -7613.3833 299.2640 -9393.8993 -7584.6319 300.4765 -223.5220 -195.6125 31175.7316 -450.2198 -386.4445
ENERGY: 600000 5.9823 4.9732 2.4145 0.0000 -10883.4382 1566.7439 0.0000 0.0000 1782.9333 -7520.3910 299.6703 -9303.3243 -7560.3043 300.6824 1133.8929 1128.7186 30316.8017 -199.4329 -149.5433
ENERGY: 900000 1.3462 4.0990 1.6274 0.0000 -10881.7889 1530.4080 0.0000 0.0000 1819.6703 -7524.6379 305.8449 -9344.3082 -7565.8429 300.4366 720.4986 817.3921 30505.5861 -141.4026 -88.5002
ENERGY: 1200000 2.4009 2.8602 1.7507 0.0000 -10765.2358 1433.9845 0.0000 0.0000 1807.4649 -7516.7746 303.7935 -9324.2395 -7560.9978 300.7852 -181.2445 -83.9738 30533.4042 -176.0936 -121.2906
ENERGY: 1500000 4.2927 4.9756 2.5696 0.0000 -10773.8411 1420.6568 0.0000 0.0000 1785.8430 -7555.5035 300.1593 -9341.3465 -7560.5936 300.4894 -336.5138 -216.1466 30717.4260 -181.1133 -119.2775
TCL: Running FEP window   2: Lambda1 0.05   Lambda2 0.1    [dLambda 0.05  ]
TCL: Setting parameter firsttimestep to 0
TCL: Setting parameter alchLambda to 0.05
Info: NONBONDED TABLE R-SQUARED SPACING: 0.0625
Info: NONBONDED TABLE SIZE: 705 POINTS
TCL: Setting parameter alchLambda2 to 0.1
Info: NONBONDED TABLE R-SQUARED SPACING: 0.0625
Info: NONBONDED TABLE SIZE: 705 POINTS
TCL: Running for 1500000 steps
ETITLE: TS BOND ANGLE DIHED IMPRP ELECT VDW BOUNDARY MISC KINETIC TOTAL TEMP POTENTIAL TOTALAVG TEMPAVG PRESSURE GPRESSURE VOLUME PRESSAVG GPRESSAVG
ENERGY: 0 4.2927 4.9756 2.5696 0.0000 -10773.8407 1422.0998 0.0000 0.0000 1784.9644 -7554.9386 300.0117 -9339.9030 -7554.9386 300.0117 -298.9948 -212.4970 30717.4260 -298.9948 -212.4970
ENERGY: 300000 1.6577 1.2995 1.7605 0.0000 -10934.1918 1490.9837 0.0000 0.0000 1785.8801 -7652.6104 300.1656 -9438.4905 -7607.6635 297.1614 -46.2714 -12.7392 30702.0435 109.7220 164.4992
ENERGY: 600000 0.5014 7.5703 1.6274 0.0000 -10884.1030 1426.5168 0.0000 0.0000 1740.7773 -7707.1098 292.5848 -9447.8872 -7613.4802 298.2534 -635.6574 -572.3453 30783.5606 -180.5260 -122.2326
ENERGY: 900000 1.6642 2.3804 2.0237 0.0000 -10717.7213 1378.9565 0.0000 0.0000 1813.9443 -7518.7522 304.8825 -9332.6965 -7581.3177 299.8595 -704.0342 -573.8411 31094.8247 -105.8946 -37.9428
ENERGY: 1200000 2.8568 3.9853 1.5881 0.0000 -10894.1011 1532.2838 0.0000 0.0000 1776.0280 -7577.3591 298.5097 -9353.3872 -7580.7097 298.5406 419.1925 462.9619 30702.1528 -186.7011 -122.4395
ENERGY: 1500000 1.0169 2.5748 1.5538 0.0000 -10744.9985 1430.1061 0.0000 0.0000 1800.6685 -7509.0785 302.6512 -9309.7470 -7571.1084 299.9030 -212.9446 -98.0553 30813.3024 -182.0177 -114.9336
TCL: Running FEP window   3: Lambda1 0.1    Lambda2 0.15000000000000002 [dLambda 0.05000000000000002]
TCL: Setting parameter firsttimestep to 0
TCL: Setting parameter alchLambda to 0.1
Info: NONBONDED TABLE R-SQUARED SPACING: 0.0625
Info: NONBONDED TABLE SIZE: 705 POINTS
TCL: Setting parameter alchLambda2 to 0.15000000000000002
Info: NONBONDED TABLE R-SQUARED SPACING: 0.0625
Info: NONBONDED TABLE SIZE: 705 POINTS
TCL: Running for 1500000 steps
ETITLE: TS BOND ANGLE DIHED IMPRP ELECT VDW BOUNDARY MISC KINETIC TOTAL TEMP POTENTIAL TOTALAVG TEMPAVG PRESSURE GPRESSURE VOLUME PRESSAVG GPRESSAVG
ENERGY: 0 1.0169 2.5748 1.5538 0.0000 -10744.9985 1431.4159 0.0000 0.0000 1799.7794 -7508.6577 302.5017 -9308.4371 -7508.6577 302.5017 -159.7955 -89.8207 30813.3024 -159.7955 -89.8207
ENERGY: 300000 0.8970 2.7118 1.6151 0.0000 -10901.7597 1507.3038 0.0000 0.0000 1793.8649 -7595.3671 301.5076 -9389.2320 -7564.9116 298.5489 207.5583 282.5985 30669.3809 -75.7779 4.8699
ENERGY: 600000 2.0815 3.0265 1.5208 0.0000 -10851.8786 1481.7858 0.0000 0.0000 1840.3902 -7523.0738 309.3275 -9363.4640 -7582.4060 298.6628 119.4132 180.4610 30830.6009 -122.3585 -37.7282
ENERGY: 900000 2.9799 4.1921 1.7717 0.0000 -10877.7278 1503.9572 0.0000 0.0000 1789.5784 -7575.2484 300.7872 -9364.8268 -7589.2053 299.8192 508.2239 581.9650 30111.5840 -65.1570 17.6097
ENERGY: 1200000 0.9196 5.1775 1.9025 0.0000 -10814.7038 1460.6256 0.0000 0.0000 1768.6508 -7577.4278 297.2697 -9346.0785 -7586.4426 299.0167 -276.1524 -161.9996 31004.8314 -134.2387 -50.9259
ENERGY: 1500000 0.9554 4.2112 2.1531 0.0000 -10806.1822 1440.6208 0.0000 0.0000 1785.7763 -7572.4652 300.1481 -9358.2416 -7579.0020 299.1672 -218.1694 -124.4809 30630.3199 -184.5916 -99.9507
TCL: Running FEP window   4: Lambda1 0.15000000000000002 Lambda2 0.2    [dLambda 0.04999999999999999]
TCL: Setting parameter firsttimestep to 0
TCL: Setting parameter alchLambda to 0.15000000000000002
Info: NONBONDED TABLE R-SQUARED SPACING: 0.0625
Info: NONBONDED TABLE SIZE: 705 POINTS
TCL: Setting parameter alchLambda2 to 0.2
Info: NONBONDED TABLE R-SQUARED SPACING: 0.0625
Info: NONBONDED TABLE SIZE: 705 POINTS
TCL: Running for 1500000 steps
ETITLE: TS BOND ANGLE DIHED IMPRP ELECT VDW BOUNDARY MISC KINETIC TOTAL TEMP POTENTIAL TOTALAVG TEMPAVG PRESSURE GPRESSURE VOLUME PRESSAVG GPRESSAVG
ENERGY: 0 0.9554 4.2112 2.1531 0.0000 -10806.1819 1441.6378 0.0000 0.0000 1784.8811 -7572.3431 299.9977 -9357.2242 -7572.3431 299.9977 -206.8612 -121.0325 30630.3199 -206.8612 -121.0325
ENERGY: 300000 0.5918 2.7992 2.7011 0.0000 -10720.9394 1366.2478 0.0000 0.0000 1853.3977 -7495.2019 311.5137 -9348.5995 -7519.5334 305.5115 -746.5435 -714.3348 30902.8840 -431.4578 -393.4153
ENERGY: 600000 3.2764 4.5803 1.5559 0.0000 -10855.5504 1471.0211 0.0000 0.0000 1785.7542 -7589.3627 300.1444 -9375.1168 -7560.1264 302.7809 -49.0843 45.0860 30497.2281 -207.9725 -168.2191
ENERGY: 900000 1.4887 1.9420 2.0183 0.0000 -10809.1873 1483.7767 0.0000 0.0000 1852.5657 -7467.3958 311.3739 -9319.9615 -7550.0299 303.6936 214.4102 334.4487 30787.8566 22.2204 68.9466
ENERGY: 1200000 1.9583 3.3538 1.9627 0.0000 -10754.1053 1465.6195 0.0000 0.0000 1815.1749 -7466.0361 305.0894 -9281.2110 -7543.0154 303.3397 -17.5965 16.6168 31171.4393 45.9819 98.9089
ENERGY: 1500000 0.3157 3.7950 2.0818 0.0000 -10741.0170 1414.0923 0.0000 0.0000 1840.7769 -7479.9553 309.3925 -9320.7322 -7547.6085 303.4853 85.4067 116.8946 30135.4133 -1.6415 56.1674
TCL: Running FEP window   5: Lambda1 0.2    Lambda2 0.25   [dLambda 0.04999999999999999]
TCL: Setting parameter firsttimestep to 0
TCL: Setting parameter alchLambda to 0.2
Info: NONBONDED TABLE R-SQUARED SPACING: 0.0625
Info: NONBONDED TABLE SIZE: 705 POINTS
TCL: Setting parameter alchLambda2 to 0.25
Info: NONBONDED TABLE R-SQUARED SPACING: 0.0625
Info: NONBONDED TABLE SIZE: 705 POINTS
TCL: Running for 1500000 steps
ETITLE: TS BOND ANGLE DIHED IMPRP ELECT VDW BOUNDARY MISC KINETIC TOTAL TEMP POTENTIAL TOTALAVG TEMPAVG PRESSURE GPRESSURE VOLUME PRESSAVG GPRESSAVG
ENERGY: 0 0.3157 3.7950 2.0818 0.0000 -10741.0152 1414.1871 0.0000 0.0000 1839.8810 -7480.7545 309.2419 -9320.6356 -7480.7545 309.2419 33.8999 119.2025 30135.4133 33.8999 119.2025
ENERGY: 300000 0.8831 4.7069 1.8804 0.0000 -10749.5921 1451.2869 0.0000 0.0000 1793.0520 -7497.7829 301.3710 -9290.8349 -7509.3096 305.6588 165.3602 238.4661 30861.3080 99.1765 148.4615
ENERGY: 600000 2.1784 5.4900 2.3930 0.0000 -10918.4664 1488.7858 0.0000 0.0000 1765.0531 -7654.5660 296.6650 -9419.6192 -7563.1612 301.3953 -44.4448 -12.3539 30943.8181 50.3380 108.0403
ENERGY: 900000 3.7688 4.4543 2.2251 0.0000 -10744.1489 1448.3455 0.0000 0.0000 1818.5934 -7466.7618 305.6639 -9285.3552 -7567.2144 300.3443 -225.4882 -210.0722 31393.6941 134.5940 180.7651
ENERGY: 1200000 1.8896 4.7955 2.2477 0.0000 -10759.3628 1446.8356 0.0000 0.0000 1763.3368 -7540.2577 296.3766 -9303.5944 -7557.9533 300.6491 48.3941 99.6459 30585.4356 94.6658 146.5863
ENERGY: 1500000 1.7592 2.1370 1.9063 0.0000 -10768.1945 1443.9701 0.0000 0.0000 1848.1526 -7470.2693 310.6322 -9318.4219 -7549.3761 301.6066 -141.8714 -108.6831 31131.7476 85.8065 137.5061
TCL: Running FEP window   6: Lambda1 0.25   Lambda2 0.3    [dLambda 0.04999999999999999]
TCL: Setting parameter firsttimestep to 0
TCL: Setting parameter alchLambda to 0.25
Info: NONBONDED TABLE R-SQUARED SPACING: 0.0625
Info: NONBONDED TABLE SIZE: 705 POINTS
TCL: Setting parameter alchLambda2 to 0.3
Info: NONBONDED TABLE R-SQUARED SPACING: 0.0625
Info: NONBONDED TABLE SIZE: 705 POINTS
TCL: Running for 1500000 steps
ETITLE: TS BOND ANGLE DIHED IMPRP ELECT VDW BOUNDARY MISC KINETIC TOTAL TEMP POTENTIAL TOTALAVG TEMPAVG PRESSURE GPRESSURE VOLUME PRESSAVG GPRESSAVG
ENERGY: 0 1.7592 2.1370 1.9063 0.0000 -10768.1968 1444.2597 0.0000 0.0000 1847.2562 -7470.8784 310.4815 -9318.1346 -7470.8784 310.4815 -210.4454 -107.1717 31131.7476 -210.4454 -107.1717
ENERGY: 300000 0.9577 4.6568 2.4961 0.0000 -10761.2271 1406.5037 0.0000 0.0000 1853.5125 -7493.1002 311.5330 -9346.6126 -7514.4576 307.7476 -339.3971 -232.6739 30495.9767 -419.5754 -333.3464
ENERGY: 600000 0.4538 4.5863 2.2150 0.0000 -10915.5036 1496.4778 0.0000 0.0000 1805.5999 -7606.1708 303.4800 -9411.7707 -7542.6310 306.6299 29.6157 69.5675 30886.1556 -182.2265 -107.9589
ENERGY: 900000 0.2147 6.0708 2.8185 0.0000 -10729.2637 1453.5325 0.0000 0.0000 1828.3049 -7438.3223 307.2962 -9266.6272 -7512.0120 306.7666 207.4922 297.5246 30908.8682 -44.8653 27.1935
ENERGY: 1200000 0.8138 1.8962 1.3175 0.0000 -10859.1094 1461.1559 0.0000 0.0000 1789.7818 -7604.1443 300.8214 -9393.9261 -7521.6251 305.2492 122.8675 194.1860 30339.7903 -11.3417 64.5705
ENERGY: 1500000 0.5257 5.2785 1.6369 0.0000 -10630.3159 1356.9764 0.0000 0.0000 1801.7133 -7464.1850 302.8268 -9265.8984 -7530.7849 303.6241 -536.7759 -509.6917 31087.8861 -89.2489 -18.7847
TCL: Running FEP window   7: Lambda1 0.3    Lambda2 0.35   [dLambda 0.04999999999999999]
TCL: Setting parameter firsttimestep to 0
TCL: Setting parameter alchLambda to 0.3
Info: NONBONDED TABLE R-SQUARED SPACING: 0.0625
Info: NONBONDED TABLE SIZE: 705 POINTS
TCL: Setting parameter alchLambda2 to 0.35
Info: NONBONDED TABLE R-SQUARED SPACING: 0.0625
Info: NONBONDED TABLE SIZE: 705 POINTS
TCL: Running for 1500000 steps
ETITLE: TS BOND ANGLE DIHED IMPRP ELECT VDW BOUNDARY MISC KINETIC TOTAL TEMP POTENTIAL TOTALAVG TEMPAVG PRESSURE GPRESSURE VOLUME PRESSAVG GPRESSAVG
ENERGY: 0 0.5257 5.2785 1.6369 0.0000 -10630.3154 1357.1752 0.0000 0.0000 1800.8338 -7464.8652 302.6789 -9265.6990 -7464.8652 302.6789 -594.1938 -505.8803 31087.8861 -594.1938 -505.8803
ENERGY: 300000 2.1784 4.3060 2.2147 0.0000 -10834.8445 1446.7848 0.0000 0.0000 1767.4054 -7611.9552 297.0604 -9379.3606 -7555.7610 302.5129 -228.5916 -77.8331 30604.1113 -265.8491 -171.2520
ENERGY: 600000 2.5787 2.3402 1.5543 0.0000 -10850.0038 1447.7041 0.0000 0.0000 1778.6315 -7617.1949 298.9473 -9395.8264 -7573.9753 300.9159 153.5741 165.2023 30162.7740 -10.8233 58.3592
ENERGY: 900000 0.7477 3.9917 1.5313 0.0000 -10872.5371 1482.7139 0.0000 0.0000 1701.0129 -7682.5396 285.9013 -9383.5525 -7572.8901 299.3414 77.5966 187.2607 30538.6226 -3.3861 66.7608
ENERGY: 1200000 1.6063 4.9856 1.5382 0.0000 -10875.0918 1496.2331 0.0000 0.0000 1824.0938 -7546.6347 306.5884 -9370.7285 -7562.6223 299.8924 112.1667 245.2756 30915.8048 -17.3170 50.5607
ENERGY: 1500000 0.1377 3.9800 1.5706 0.0000 -10815.3691 1441.3898 0.0000 0.0000 1777.6711 -7590.6198 298.7858 -9368.2909 -7567.5119 299.6860 -120.6060 -124.7120 30728.4786 -0.7950 66.2826
TCL: Running FEP window   8: Lambda1 0.35   Lambda2 0.39999999999999997 [dLambda 0.04999999999999999]
TCL: Setting parameter firsttimestep to 0
TCL: Setting parameter alchLambda to 0.35
Info: NONBONDED TABLE R-SQUARED SPACING: 0.0625
Info: NONBONDED TABLE SIZE: 705 POINTS
TCL: Setting parameter alchLambda2 to 0.39999999999999997
Info: NONBONDED TABLE R-SQUARED SPACING: 0.0625
Info: NONBONDED TABLE SIZE: 705 POINTS
TCL: Running for 1500000 steps
ETITLE: TS BOND ANGLE DIHED IMPRP ELECT VDW BOUNDARY MISC KINETIC TOTAL TEMP POTENTIAL TOTALAVG TEMPAVG PRESSURE GPRESSURE VOLUME PRESSAVG GPRESSAVG
ENERGY: 0 0.1377 3.9800 1.5706 0.0000 -10815.3680 1441.5498 0.0000 0.0000 1776.7476 -7591.3822 298.6306 -9368.1298 -7591.3822 298.6306 -206.6552 -120.2688 30728.4786 -206.6552 -120.2688
ENERGY: 300000 6.4774 5.0978 1.6323 0.0000 -10745.2413 1438.4525 0.0000 0.0000 1768.8530 -7524.7282 297.3037 -9293.5813 -7558.1654 301.2193 -115.2834 -39.4357 30790.7502 -371.8637 -282.3808
ENERGY: 600000 2.5074 3.4050 2.2488 0.0000 -10791.8310 1375.9980 0.0000 0.0000 1775.3137 -7632.3581 298.3896 -9407.6717 -7580.5706 300.1184 -1102.3444 -986.1059 31033.0886 -389.7336 -308.0103
ENERGY: 900000 0.5330 3.6017 3.2911 0.0000 -10766.0464 1405.0946 0.0000 0.0000 1753.7049 -7599.8210 294.7577 -9353.5259 -7569.9220 299.2177 -234.4213 -253.4710 30839.0391 -372.0394 -296.5627
ENERGY: 1200000 2.2418 3.2814 3.0652 0.0000 -10839.5708 1460.7133 0.0000 0.0000 1731.5941 -7638.6749 291.0413 -9370.2690 -7582.6786 298.6810 17.4409 69.3749 30513.9825 -297.9916 -227.5549
ENERGY: 1500000 0.6875 2.9290 1.9529 0.0000 -10856.5748 1484.1040 0.0000 0.0000 1770.4317 -7596.4697 297.5691 -9366.9014 -7584.1444 299.4487 -93.0161 -80.8724 31241.2018 -293.1521 -226.4846
TCL: Running FEP window   9: Lambda1 0.39999999999999997 Lambda2 0.44999999999999996 [dLambda 0.04999999999999999]
TCL: Setting parameter firsttimestep to 0
TCL: Setting parameter alchLambda to 0.39999999999999997
Info: NONBONDED TABLE R-SQUARED SPACING: 0.0625
Info: NONBONDED TABLE SIZE: 705 POINTS
TCL: Setting parameter alchLambda2 to 0.44999999999999996
Info: NONBONDED TABLE R-SQUARED SPACING: 0.0625
Info: NONBONDED TABLE SIZE: 705 POINTS
TCL: Running for 1500000 steps
ETITLE: TS BOND ANGLE DIHED IMPRP ELECT VDW BOUNDARY MISC KINETIC TOTAL TEMP POTENTIAL TOTALAVG TEMPAVG PRESSURE GPRESSURE VOLUME PRESSAVG GPRESSAVG
ENERGY: 0 0.6875 2.9290 1.9529 0.0000 -10856.5740 1484.6364 0.0000 0.0000 1769.5431 -7596.8251 297.4197 -9366.3682 -7596.8251 297.4197 -153.8330 -77.1378 31241.2018 -153.8330 -77.1378
ENERGY: 300000 2.9892 3.5995 1.9780 0.0000 -10797.9789 1458.7869 0.0000 0.0000 1764.5191 -7566.1063 296.5753 -9330.6254 -7617.7675 296.0983 5.4839 75.9020 30790.5471 -127.7726 -74.8401
ENERGY: 600000 1.7253 4.3244 1.5805 0.0000 -10865.4782 1468.9564 0.0000 0.0000 1772.2439 -7616.6477 297.8736 -9388.8917 -7627.9162 295.0959 -286.2548 -140.9111 30984.1298 -77.1683 -9.3849
ENERGY: 900000 5.0590 6.0619 2.5216 0.0000 -10785.3731 1447.9176 0.0000 0.0000 1776.4625 -7547.3505 298.5827 -9323.8130 -7614.7192 296.8407 5.1685 82.9103 30450.9411 -35.0384 32.4498
ENERGY: 1200000 2.3690 3.6032 1.7813 0.0000 -10834.6406 1493.9134 0.0000 0.0000 1817.1822 -7515.7915 305.4268 -9332.9737 -7605.5885 297.7414 278.0810 332.2471 30702.8063 30.7647 102.0188
ENERGY: 1500000 1.2210 2.8631 2.3979 0.0000 -10852.4252 1442.7097 0.0000 0.0000 1763.3257 -7639.9078 296.3747 -9403.2334 -7603.7097 297.9641 -161.5349 -118.7155 30587.0725 7.8196 73.7095
TCL: Running FEP window  10: Lambda1 0.44999999999999996 Lambda2 0.49999999999999994 [dLambda 0.04999999999999999]
TCL: Setting parameter firsttimestep to 0
TCL: Setting parameter alchLambda to 0.44999999999999996
Info: NONBONDED TABLE R-SQUARED SPACING: 0.0625
Info: NONBONDED TABLE SIZE: 705 POINTS
TCL: Setting parameter alchLambda2 to 0.49999999999999994
Info: NONBONDED TABLE R-SQUARED SPACING: 0.0625
Info: NONBONDED TABLE SIZE: 705 POINTS
TCL: Running for 1500000 steps
ETITLE: TS BOND ANGLE DIHED IMPRP ELECT VDW BOUNDARY MISC KINETIC TOTAL TEMP POTENTIAL TOTALAVG TEMPAVG PRESSURE GPRESSURE VOLUME PRESSAVG GPRESSAVG
ENERGY: 0 1.2210 2.8631 2.3979 0.0000 -10852.4252 1442.8943 0.0000 0.0000 1762.4641 -7640.5848 296.2299 -9403.0489 -7640.5848 296.2299 -190.8235 -111.5156 30587.0725 -190.8235 -111.5156
ENERGY: 300000 1.1637 3.8785 2.2702 0.0000 -10826.7635 1443.8439 0.0000 0.0000 1818.4475 -7557.1597 305.6394 -9375.6072 -7593.1975 301.0155 -325.4213 -312.3583 30922.5831 61.4229 95.8460
ENERGY: 600000 1.4905 3.0019 2.8005 0.0000 -10886.1507 1466.7318 0.0000 0.0000 1768.7689 -7643.3571 297.2896 -9412.1260 -7600.5959 299.0195 183.0368 238.9001 30451.4487 -19.3687 39.0875
ENERGY: 900000 1.2228 2.5393 3.1526 0.0000 -10729.5193 1430.3363 0.0000 0.0000 1743.4415 -7548.8268 293.0326 -9292.2684 -7597.7748 298.3718 -275.0288 -213.4080 31213.5469 -173.7511 -118.7054
ENERGY: 1200000 2.2851 6.7828 1.6767 0.0000 -10750.5041 1352.8074 0.0000 0.0000 1771.1466 -7615.8054 297.6892 -9386.9521 -7592.2222 298.6065 -919.4495 -875.9428 30892.9699 -214.0314 -170.3482
ENERGY: 1500000 1.6389 3.7399 1.8932 0.0000 -10824.8136 1466.9970 0.0000 0.0000 1824.7535 -7525.7913 306.6993 -9350.5447 -7580.5359 299.6636 195.3941 233.5519 30698.0424 -278.4860 -238.5700
TCL: Running FEP window  11: Lambda1 0.49999999999999994 Lambda2 0.5499999999999999 [dLambda 0.04999999999999999]
TCL: Setting parameter firsttimestep to 0
TCL: Setting parameter alchLambda to 0.49999999999999994
Info: NONBONDED TABLE R-SQUARED SPACING: 0.0625
Info: NONBONDED TABLE SIZE: 705 POINTS
TCL: Setting parameter alchLambda2 to 0.5499999999999999
Info: NONBONDED TABLE R-SQUARED SPACING: 0.0625
Info: NONBONDED TABLE SIZE: 705 POINTS
TCL: Running for 1500000 steps
ETITLE: TS BOND ANGLE DIHED IMPRP ELECT VDW BOUNDARY MISC KINETIC TOTAL TEMP POTENTIAL TOTALAVG TEMPAVG PRESSURE GPRESSURE VOLUME PRESSAVG GPRESSAVG
ENERGY: 0 1.6389 3.7399 1.8932 0.0000 -10824.8133 1466.9238 0.0000 0.0000 1823.8473 -7526.7703 306.5470 -9350.6176 -7526.7703 306.5470 163.1983 237.1317 30698.0424 163.1983 237.1317
ENERGY: 300000 0.7567 4.3945 1.3765 0.0000 -10777.0745 1419.1419 0.0000 0.0000 1775.1974 -7576.2075 298.3701 -9351.4049 -7557.7614 301.3199 -526.6042 -444.0567 31161.3395 -37.2796 53.8421
ENERGY: 600000 0.8195 1.9346 1.6999 0.0000 -10754.5998 1411.1244 0.0000 0.0000 1790.2066 -7548.8148 300.8928 -9339.0213 -7551.3284 299.9822 -324.8554 -195.2762 30478.7773 -190.2554 -110.4513
ENERGY: 900000 1.4880 1.8449 2.1138 0.0000 -10827.7406 1388.6337 0.0000 0.0000 1826.4696 -7607.1907 306.9878 -9433.6603 -7557.2224 300.7495 -864.3508 -771.5873 30833.8633 -145.4314 -73.0855
ENERGY: 1200000 3.9205 3.5061 1.5288 0.0000 -10967.3181 1521.3858 0.0000 0.0000 1806.5293 -7630.4476 303.6362 -9436.9769 -7565.3881 300.8549 111.5820 154.4132 30507.1226 -59.6365 0.8660
ENERGY: 1500000 1.5748 2.5984 1.4808 0.0000 -10788.4151 1451.9778 0.0000 0.0000 1802.0239 -7528.7595 302.8790 -9330.7833 -7574.0107 300.2965 -218.1043 -205.3009 31174.2223 -118.1002 -58.1358
TCL: Running FEP window  12: Lambda1 0.5499999999999999 Lambda2 0.6    [dLambda 0.050000000000000044]
TCL: Setting parameter firsttimestep to 0
TCL: Setting parameter alchLambda to 0.5499999999999999
Info: NONBONDED TABLE R-SQUARED SPACING: 0.0625
Info: NONBONDED TABLE SIZE: 705 POINTS
TCL: Setting parameter alchLambda2 to 0.6
Info: NONBONDED TABLE R-SQUARED SPACING: 0.0625
Info: NONBONDED TABLE SIZE: 705 POINTS
TCL: Running for 1500000 steps
ETITLE: TS BOND ANGLE DIHED IMPRP ELECT VDW BOUNDARY MISC KINETIC TOTAL TEMP POTENTIAL TOTALAVG TEMPAVG PRESSURE GPRESSURE VOLUME PRESSAVG GPRESSAVG
ENERGY: 0 1.5748 2.5984 1.4808 0.0000 -10788.5587 1452.0536 0.0000 0.0000 1801.1343 -7529.7168 302.7295 -9330.8511 -7529.7168 302.7295 -261.9556 -199.1990 31174.2223 -261.9556 -199.1990
ENERGY: 300000 0.5066 2.5393 2.3352 0.0000 -10874.1513 1436.5021 0.0000 0.0000 1783.0893 -7649.1787 299.6965 -9432.2680 -7590.6136 300.3098 -288.6039 -207.1843 30544.8151 -5.8422 50.5736
ENERGY: 600000 2.0603 4.6841 1.5343 0.0000 -10904.1854 1474.7217 0.0000 0.0000 1815.6165 -7605.5685 305.1636 -9421.1850 -7590.1492 301.7335 138.5042 213.6228 30205.8758 2.0221 48.3763
ENERGY: 900000 2.8601 2.8493 1.5831 0.0000 -10867.4009 1457.7934 0.0000 0.0000 1817.5940 -7584.7209 305.4960 -9402.3149 -7589.6834 301.6940 -206.1619 -119.5105 30698.6487 6.6352 60.1837
ENERGY: 1200000 0.8925 3.0083 1.8591 0.0000 -10824.6333 1433.0416 0.0000 0.0000 1724.2344 -7661.5974 289.8044 -9385.8318 -7595.3409 300.2607 -133.6564 -99.1898 30626.9013 -107.4092 -52.8207
ENERGY: 1500000 1.8843 3.9597 1.9616 0.0000 -10742.9961 1395.5282 0.0000 0.0000 1755.7712 -7583.8910 295.1050 -9339.6622 -7594.1836 299.2352 -631.9728 -573.9624 30886.4349 -154.8129 -103.1121
TCL: Running FEP window  13: Lambda1 0.6    Lambda2 0.65   [dLambda 0.050000000000000044]
TCL: Setting parameter firsttimestep to 0
TCL: Setting parameter alchLambda to 0.6
Info: NONBONDED TABLE R-SQUARED SPACING: 0.0625
Info: NONBONDED TABLE SIZE: 705 POINTS
TCL: Setting parameter alchLambda2 to 0.65
Info: NONBONDED TABLE R-SQUARED SPACING: 0.0625
Info: NONBONDED TABLE SIZE: 705 POINTS
TCL: Running for 1500000 steps
ETITLE: TS BOND ANGLE DIHED IMPRP ELECT VDW BOUNDARY MISC KINETIC TOTAL TEMP POTENTIAL TOTALAVG TEMPAVG PRESSURE GPRESSURE VOLUME PRESSAVG GPRESSAVG
ENERGY: 0 1.8843 3.9597 1.9616 0.0000 -10743.2286 1395.4987 0.0000 0.0000 1754.9083 -7585.0159 294.9599 -9339.9242 -7585.0159 294.9599 -638.7362 -568.6861 30886.4349 -638.7362 -568.6861
ENERGY: 300000 2.2392 3.3177 1.6243 0.0000 -10905.9505 1472.3123 0.0000 0.0000 1748.8206 -7677.6365 293.9367 -9426.4571 -7613.4660 298.5588 -259.9914 -231.9263 30805.5121 72.5117 113.9324
ENERGY: 600000 2.3738 1.4448 2.0171 0.0000 -10813.9427 1487.3416 0.0000 0.0000 1817.9272 -7502.8382 305.5520 -9320.7654 -7595.4343 301.0359 480.3119 522.6638 30457.5949 76.6076 121.3649
ENERGY: 900000 2.5568 5.0631 2.9218 0.0000 -10779.8454 1402.7428 0.0000 0.0000 1810.8022 -7555.7586 304.3544 -9366.5608 -7578.9384 301.5955 -517.8042 -459.2240 31373.5983 -63.4880 -15.6778
ENERGY: 1200000 0.2149 4.5746 1.2025 0.0000 -10726.6145 1427.0847 0.0000 0.0000 1854.0144 -7439.5234 311.6174 -9293.5378 -7568.0768 300.9662 -97.8318 -63.8938 30987.9870 -68.9028 -20.7164
ENERGY: 1500000 0.4856 4.5025 2.5048 0.0000 -10723.4267 1427.7682 0.0000 0.0000 1731.7717 -7556.3938 291.0712 -9288.1656 -7567.0910 300.7447 -55.3367 43.8244 30806.5116 -91.0908 -42.2347
TCL: Running FEP window  14: Lambda1 0.65   Lambda2 0.7000000000000001 [dLambda 0.050000000000000044]
TCL: Setting parameter firsttimestep to 0
TCL: Setting parameter alchLambda to 0.65
Info: NONBONDED TABLE R-SQUARED SPACING: 0.0625
Info: NONBONDED TABLE SIZE: 705 POINTS
TCL: Setting parameter alchLambda2 to 0.7000000000000001
Info: NONBONDED TABLE R-SQUARED SPACING: 0.0625
Info: NONBONDED TABLE SIZE: 705 POINTS
TCL: Running for 1500000 steps
ETITLE: TS BOND ANGLE DIHED IMPRP ELECT VDW BOUNDARY MISC KINETIC TOTAL TEMP POTENTIAL TOTALAVG TEMPAVG PRESSURE GPRESSURE VOLUME PRESSAVG GPRESSAVG
ENERGY: 0 0.4856 4.5025 2.5048 0.0000 -10724.0903 1428.8366 0.0000 0.0000 1730.9249 -7556.8359 290.9289 -9287.7608 -7556.8359 290.9289 -25.9312 54.6532 30806.5116 -25.9312 54.6532
ENERGY: 300000 1.2680 4.8459 1.9137 0.0000 -10814.4885 1430.1093 0.0000 0.0000 1784.2811 -7592.0705 299.8968 -9376.3516 -7578.7141 295.7401 -225.9308 -157.6278 30655.8669 -95.4550 -34.4625
ENERGY: 600000 1.5279 5.6862 1.5805 0.0000 -10735.3501 1392.1678 0.0000 0.0000 1773.1951 -7561.1927 298.0335 -9334.3878 -7589.8941 295.8837 -215.7890 -122.8160 30344.1178 -226.6173 -163.8723
ENERGY: 900000 1.4902 4.5824 1.6684 0.0000 -10772.8820 1457.4993 0.0000 0.0000 1744.6684 -7562.9732 293.2388 -9307.6416 -7591.3024 295.2786 -411.9565 -353.1938 31627.8740 -128.7966 -73.6567
ENERGY: 1200000 2.1578 2.5163 1.8738 0.0000 -10876.3361 1469.8016 0.0000 0.0000 1717.5643 -7682.4223 288.6833 -9399.9866 -7598.6273 295.1790 -161.8520 -91.2660 30858.8757 -12.8859 49.8361
ENERGY: 1500000 2.1080 3.2954 1.6850 0.0000 -10797.9186 1419.9371 0.0000 0.0000 1867.3540 -7503.5390 313.8595 -9370.8931 -7579.9914 297.7232 -258.9256 -170.6139 30616.5753 -22.2789 46.6601
TCL: Running FEP window  15: Lambda1 0.7000000000000001 Lambda2 0.7500000000000001 [dLambda 0.050000000000000044]
TCL: Setting parameter firsttimestep to 0
TCL: Setting parameter alchLambda to 0.7000000000000001
Info: NONBONDED TABLE R-SQUARED SPACING: 0.0625
Info: NONBONDED TABLE SIZE: 705 POINTS
TCL: Setting parameter alchLambda2 to 0.7500000000000001
Info: NONBONDED TABLE R-SQUARED SPACING: 0.0625
Info: NONBONDED TABLE SIZE: 705 POINTS
TCL: Running for 1500000 steps
ETITLE: TS BOND ANGLE DIHED IMPRP ELECT VDW BOUNDARY MISC KINETIC TOTAL TEMP POTENTIAL TOTALAVG TEMPAVG PRESSURE GPRESSURE VOLUME PRESSAVG GPRESSAVG
ENERGY: 0 2.1080 3.2954 1.6850 0.0000 -10799.2882 1420.7838 0.0000 0.0000 1866.4734 -7504.9427 313.7115 -9371.4161 -7504.9427 313.7115 -242.4267 -159.9189 30616.5753 -242.4267 -159.9189
ENERGY: 300000 1.4953 3.3471 2.0604 0.0000 -10759.6032 1442.1196 0.0000 0.0000 1796.3293 -7514.2514 301.9219 -9310.5807 -7549.7708 305.2173 -181.6879 -111.7153 30867.2602 3.4833 94.7121
ENERGY: 600000 1.8337 2.4097 1.8534 0.0000 -10724.6557 1392.4763 0.0000 0.0000 1824.0165 -7502.0662 306.5754 -9326.0826 -7553.5907 303.4921 -553.9187 -560.9739 31235.3972 -236.3850 -173.0950
ENERGY: 900000 0.6668 2.7003 1.8305 0.0000 -10897.4703 1505.1964 0.0000 0.0000 1788.2528 -7598.8236 300.5644 -9387.0763 -7558.4443 302.8508 306.7444 342.4570 30675.3684 -184.0277 -128.2106
ENERGY: 1200000 2.8770 6.6875 1.6127 0.0000 -10729.4925 1372.4007 0.0000 0.0000 1801.7424 -7544.1722 302.8317 -9345.9146 -7573.4902 300.9163 -715.4878 -649.4928 31146.6585 -270.1120 -218.1756
ENERGY: 1500000 1.7214 4.8062 2.0416 0.0000 -10772.6720 1427.2735 0.0000 0.0000 1764.8954 -7571.9340 296.6385 -9336.8293 -7572.0414 300.3372 -336.7729 -240.8295 30588.0275 -128.2111 -73.2312
TCL: Running FEP window  16: Lambda1 0.7500000000000001 Lambda2 0.8000000000000002 [dLambda 0.050000000000000044]
TCL: Setting parameter firsttimestep to 0
TCL: Setting parameter alchLambda to 0.7500000000000001
Info: NONBONDED TABLE R-SQUARED SPACING: 0.0625
Info: NONBONDED TABLE SIZE: 705 POINTS
TCL: Setting parameter alchLambda2 to 0.8000000000000002
Info: NONBONDED TABLE R-SQUARED SPACING: 0.0625
Info: NONBONDED TABLE SIZE: 705 POINTS
TCL: Running for 1500000 steps
ETITLE: TS BOND ANGLE DIHED IMPRP ELECT VDW BOUNDARY MISC KINETIC TOTAL TEMP POTENTIAL TOTALAVG TEMPAVG PRESSURE GPRESSURE VOLUME PRESSAVG GPRESSAVG
ENERGY: 0 1.7214 4.8062 2.0416 0.0000 -10773.7254 1427.6194 0.0000 0.0000 1764.0010 -7573.5359 296.4882 -9337.5369 -7573.5359 296.4882 -324.6287 -234.1209 30588.0275 -324.6287 -234.1209
ENERGY: 300000 1.2294 5.1357 1.8254 0.0000 -10725.9976 1395.9986 0.0000 0.0000 1776.8621 -7544.9464 298.6499 -9321.8085 -7544.3086 300.7141 -364.6184 -349.8551 31085.7757 -131.8882 -87.2181
ENERGY: 600000 1.1387 3.6254 1.8321 0.0000 -10936.2011 1460.0059 0.0000 0.0000 1788.1953 -7681.4037 300.5547 -9469.5990 -7568.7484 300.3822 -26.3699 19.8335 30468.1927 -20.2751 22.0441
ENERGY: 900000 1.5287 3.8590 1.6972 0.0000 -10759.9889 1408.2908 0.0000 0.0000 1782.5771 -7562.0363 299.6104 -9344.6133 -7574.3069 299.6510 -400.8143 -335.9648 30828.0453 -137.8322 -91.0101
ENERGY: 1200000 3.0693 5.2655 2.2802 0.0000 -10991.0136 1570.1060 0.0000 0.0000 1810.9853 -7599.3073 304.3852 -9410.2926 -7580.5175 299.8487 719.9926 764.6533 30655.2408 -69.0718 -22.6025
ENERGY: 1500000 4.5733 2.5772 1.9253 0.0000 -10890.6514 1505.8720 0.0000 0.0000 1764.4054 -7611.2981 296.5562 -9375.7035 -7575.4427 300.4593 -170.0622 -104.3681 31310.2805 -119.6727 -73.8271
TCL: Running FEP window  17: Lambda1 0.8000000000000002 Lambda2 0.8500000000000002 [dLambda 0.050000000000000044]
TCL: Setting parameter firsttimestep to 0
TCL: Setting parameter alchLambda to 0.8000000000000002
Info: NONBONDED TABLE R-SQUARED SPACING: 0.0625
Info: NONBONDED TABLE SIZE: 705 POINTS
TCL: Setting parameter alchLambda2 to 0.8500000000000002
Info: NONBONDED TABLE R-SQUARED SPACING: 0.0625
Info: NONBONDED TABLE SIZE: 705 POINTS
TCL: Running for 1500000 steps
ETITLE: TS BOND ANGLE DIHED IMPRP ELECT VDW BOUNDARY MISC KINETIC TOTAL TEMP POTENTIAL TOTALAVG TEMPAVG PRESSURE GPRESSURE VOLUME PRESSAVG GPRESSAVG
ENERGY: 0 4.5733 2.5772 1.9253 0.0000 -10892.0352 1505.8222 0.0000 0.0000 1763.5311 -7613.6060 296.4092 -9377.1371 -7613.6060 296.4092 -177.3956 -105.3147 31310.2805 -177.3956 -105.3147
ENERGY: 300000 2.6418 7.0355 3.0636 0.0000 -10885.6205 1482.1988 0.0000 0.0000 1798.8237 -7591.8570 302.3411 -9390.6807 -7570.5221 301.4450 150.7268 241.7812 30493.9047 -333.9567 -270.1067
ENERGY: 600000 1.2721 2.2731 1.7787 0.0000 -10838.1025 1440.7455 0.0000 0.0000 1816.4396 -7575.5936 305.3019 -9392.0331 -7570.5176 302.5253 -52.3641 -9.2460 30505.5554 -152.5922 -85.5458
ENERGY: 900000 0.7862 3.4319 1.7151 0.0000 -10822.1155 1453.7636 0.0000 0.0000 1847.9460 -7514.4725 310.5974 -9362.4185 -7593.1295 300.4628 -195.3099 -146.9180 31300.7606 -67.1427 -8.0534
ENERGY: 1200000 1.1849 4.6195 2.1610 0.0000 -10813.8741 1470.0983 0.0000 0.0000 1790.8059 -7545.0045 300.9935 -9335.8104 -7578.6924 301.8430 215.1709 307.0161 30751.6657 41.0652 99.5961
ENERGY: 1500000 1.0586 5.8229 2.4543 0.0000 -10973.8233 1526.0476 0.0000 0.0000 1796.4349 -7642.0050 301.9396 -9438.4399 -7581.7178 301.4475 441.7356 457.1521 30448.4077 42.6869 95.3390
TCL: Running FEP window  18: Lambda1 0.8500000000000002 Lambda2 0.9000000000000002 [dLambda 0.050000000000000044]
TCL: Setting parameter firsttimestep to 0
TCL: Setting parameter alchLambda to 0.8500000000000002
Info: NONBONDED TABLE R-SQUARED SPACING: 0.0625
Info: NONBONDED TABLE SIZE: 705 POINTS
TCL: Setting parameter alchLambda2 to 0.9000000000000002
Info: NONBONDED TABLE R-SQUARED SPACING: 0.0625
Info: NONBONDED TABLE SIZE: 705 POINTS
TCL: Running for 1500000 steps
ETITLE: TS BOND ANGLE DIHED IMPRP ELECT VDW BOUNDARY MISC KINETIC TOTAL TEMP POTENTIAL TOTALAVG TEMPAVG PRESSURE GPRESSURE VOLUME PRESSAVG GPRESSAVG
ENERGY: 0 1.0586 5.8229 2.4543 0.0000 -10975.1106 1526.7666 0.0000 0.0000 1795.5495 -7643.4587 301.7908 -9439.0082 -7643.4587 301.7908 392.1871 468.2926 30448.4077 392.1871 468.2926
ENERGY: 300000 0.9649 4.1864 2.0038 0.0000 -10968.9792 1523.3619 0.0000 0.0000 1751.5939 -7686.8683 294.4029 -9438.4622 -7617.4794 302.1332 275.3004 395.8979 30612.8744 -96.6498 9.8616
ENERGY: 600000 0.7596 3.3058 2.2538 0.0000 -10935.4349 1479.8044 0.0000 0.0000 1800.9352 -7648.3760 302.6960 -9449.3113 -7600.0023 302.6675 -17.2508 35.4604 30466.1992 -88.1765 -6.1631
ENERGY: 900000 4.3098 4.9797 2.4655 0.0000 -10846.5524 1481.8576 0.0000 0.0000 1766.5798 -7586.3599 296.9216 -9352.9397 -7584.6651 302.2209 -4.8638 20.9640 31184.1337 -64.6418 10.8742
ENERGY: 1200000 0.8674 5.9113 1.6637 0.0000 -10756.0229 1425.4869 0.0000 0.0000 1749.1233 -7572.9702 293.9876 -9322.0935 -7590.5521 300.3088 -261.3526 -176.0286 31063.9113 -83.8571 -15.0367
ENERGY: 1500000 3.3540 8.2525 2.1948 0.0000 -10789.3126 1404.3833 0.0000 0.0000 1818.9802 -7552.1477 305.7290 -9371.1279 -7585.9204 300.6842 -570.0365 -532.9804 31173.0115 -102.5606 -33.7429
TCL: Running FEP window  19: Lambda1 0.9000000000000002 Lambda2 0.9500000000000003 [dLambda 0.050000000000000044]
TCL: Setting parameter firsttimestep to 0
TCL: Setting parameter alchLambda to 0.9000000000000002
Info: NONBONDED TABLE R-SQUARED SPACING: 0.0625
Info: NONBONDED TABLE SIZE: 705 POINTS
TCL: Setting parameter alchLambda2 to 0.9500000000000003
Info: NONBONDED TABLE R-SQUARED SPACING: 0.0625
Info: NONBONDED TABLE SIZE: 705 POINTS
TCL: Running for 1500000 steps
ETITLE: TS BOND ANGLE DIHED IMPRP ELECT VDW BOUNDARY MISC KINETIC TOTAL TEMP POTENTIAL TOTALAVG TEMPAVG PRESSURE GPRESSURE VOLUME PRESSAVG GPRESSAVG
ENERGY: 0 3.3540 8.2525 2.1948 0.0000 -10790.1664 1404.4932 0.0000 0.0000 1818.0753 -7553.7966 305.5769 -9371.8719 -7553.7966 305.5769 -608.0865 -526.1896 31173.0115 -608.0865 -526.1896
ENERGY: 300000 1.3339 6.6061 1.9715 0.0000 -10854.1613 1464.3149 0.0000 0.0000 1682.0493 -7697.8856 282.7140 -9379.9349 -7582.0331 299.4911 -163.7407 -92.3248 30670.6389 -320.9763 -251.2342
ENERGY: 600000 1.6348 3.4169 1.5895 0.0000 -10594.2952 1332.0653 0.0000 0.0000 1822.6009 -7432.9878 306.3375 -9255.5887 -7537.9217 301.1537 -889.0486 -844.6767 31528.2444 -62.4558 -7.9778
ENERGY: 900000 0.2477 5.5481 1.6443 0.0000 -10781.5392 1411.3502 0.0000 0.0000 1769.4036 -7593.3453 297.3963 -9362.7489 -7547.9327 302.0734 -424.8472 -448.4628 31029.3362 -74.2493 -28.2967
ENERGY: 1200000 1.2715 4.7338 1.7627 0.0000 -10668.3380 1404.0269 0.0000 0.0000 1801.3175 -7455.2256 302.7603 -9256.5431 -7535.6338 301.6585 -28.0647 5.7838 30839.6259 -42.4270 0.5343
ENERGY: 1500000 0.4301 2.2294 2.1531 0.0000 -10786.8661 1403.9901 0.0000 0.0000 1741.7015 -7636.3619 292.7402 -9378.0634 -7555.4778 300.5794 -463.7737 -380.2460 30728.9432 -57.6990 -5.5866
TCL: Running FEP window  20: Lambda1 0.9500000000000003 Lambda2 1.0    [dLambda 0.04999999999999971]
TCL: Setting parameter firsttimestep to 0
TCL: Setting parameter alchLambda to 0.9500000000000003
Info: NONBONDED TABLE R-SQUARED SPACING: 0.0625
Info: NONBONDED TABLE SIZE: 705 POINTS
TCL: Setting parameter alchLambda2 to 1.0
Info: NONBONDED TABLE R-SQUARED SPACING: 0.0625
Info: NONBONDED TABLE SIZE: 705 POINTS
TCL: Running for 1500000 steps
ETITLE: TS BOND ANGLE DIHED IMPRP ELECT VDW BOUNDARY MISC KINETIC TOTAL TEMP POTENTIAL TOTALAVG TEMPAVG PRESSURE GPRESSURE VOLUME PRESSAVG GPRESSAVG
ENERGY: 0 0.4301 2.2294 2.1531 0.0000 -10787.8741 1404.1552 0.0000 0.0000 1740.8004 -7638.1059 292.5887 -9378.9063 -7638.1059 292.5887 -448.8425 -374.2721 30728.9432 -448.8425 -374.2721
ENERGY: 300000 1.8860 5.7661 1.7981 0.0000 -10822.4664 1419.8347 0.0000 0.0000 1726.6173 -7666.5641 290.2049 -9393.1815 -7594.5534 296.9263 -274.1306 -231.6668 30764.6651 -89.0796 -22.3461
ENERGY: 600000 3.9906 3.2931 1.6582 0.0000 -10756.6717 1345.8177 0.0000 0.0000 1757.3971 -7644.5150 295.3782 -9401.9121 -7597.6670 297.2964 -1206.0158 -1114.5157 30931.9535 -262.5931 -199.3263
ENERGY: 900000 2.2381 4.5847 1.5511 0.0000 -10807.2214 1467.4170 0.0000 0.0000 1771.8569 -7559.5737 297.8086 -9331.4306 -7585.0740 299.2983 -0.8778 -5.9274 31161.7798 -202.7904 -139.8606
ENERGY: 1200000 1.2380 4.2063 1.8182 0.0000 -10744.5828 1426.0689 0.0000 0.0000 1757.0549 -7554.1965 295.3207 -9311.2514 -7581.3791 298.8209 105.5823 180.0548 30518.8886 -177.3727 -116.0282
ENERGY: 1500000 1.9126 1.2397 1.5288 0.0000 -10717.0295 1427.8737 0.0000 0.0000 1801.1607 -7483.3139 302.7339 -9284.4746 -7576.8847 299.0739 -116.6470 -60.3006 31009.7246 -133.3160 -68.4520
TCL: Exiting due to exit command.
