Info: SIMULATION PARAMETERS:
Info: TIMESTEP               2
Info: NUMBER OF STEPS        0
Info: STEPS PER CYCLE        10
Info: PERIODIC CELL BASIS 1  33.0777 0 0
Info: PERIODIC CELL BASIS 2  0 33.3967 0
Info: PERIODIC CELL BASIS 3  0 0 27.7001
Info: PERIODIC CELL CENTER   0 0 0
Info: WRAPPING WATERS AROUND PERIODIC BOUNDARIES ON OUTPUT.
Info: WRAPPING ALL CLUSTERS AROUND PERIODIC BOUNDARIES ON OUTPUT.
Info: FIRST LDB TIMESTEP     50
Info: LAST LDB TIMESTEP     -1
Info: HOM BACKGROUND SCALING 1
Info: PME BACKGROUND SCALING 1
Info: MIN ATOMS PER PATCH    40
Info: EMPTY PATCH LOAD       40 ATOMS
Info: VELOCITY FILE          mobley_2845466_equil.vel
Info: CENTER OF MASS MOVING INITIALLY? NO
Info: DIELECTRIC             1
Info: EXCLUDE                SCALED ONE-FOUR
Info: 1-4 ELECTROSTATICS SCALED BY 0.833333
Info: MODIFIED 1-4 VDW PARAMETERS WILL BE USED
Info: DCD FILENAME           mobley_2845466_prod.dcd
Info: DCD FREQUENCY          100000
Info: DCD FIRST STEP         100000
Info: DCD FILE WILL CONTAIN UNIT CELL DATA
Info: XST FILENAME           mobley_2845466_prod.xst
Info: XST FREQUENCY          100000
Info: NO VELOCITY DCD OUTPUT
Info: NO FORCE DCD OUTPUT
Info: OUTPUT FILENAME        mobley_2845466_prod
Info: BINARY OUTPUT FILES WILL BE USED
Info: RESTART FILENAME       mobley_2845466_prod.restart
Info: RESTART FREQUENCY      100000
Info: BINARY RESTART FILES WILL BE USED
Info: CUTOFF                 9
Info: PAIRLIST DISTANCE      11
Info: PAIRLIST SHRINK RATE   0.01
Info: PAIRLIST GROW RATE     0.01
Info: PAIRLIST TRIGGER       0.3
Info: PAIRLISTS PER CYCLE    2
Info: PAIRLISTS ENABLED
Info: MARGIN                 2
Info: HYDROGEN GROUP CUTOFF  2.5
Info: PATCH DIMENSION        15.5
Info: ENERGY OUTPUT STEPS    100000
Info: ENERGY EVALUATION STEPS    100000
Info: OUTPUT ENERGY PRECISION 4
Info: CROSSTERM ENERGY INCLUDED IN DIHEDRAL
Info: TIMING OUTPUT STEPS    1000000
Info: PRESSURE OUTPUT STEPS  100000
Info: ALCHEMICAL FEP ON
Info: FEP CURRENT LAMBDA VALUE     0
Info: FEP COMPARISON LAMBDA VALUE  0.05
Info: FEP INTRA-ALCHEMICAL NON-BONDED INTERACTIONS WILL BE RETAINED
Info: FEP INTRA-ALCHEMICAL BONDED INTERACTIONS WILL BE RETAINED
Info: FEP VDW SHIFTING COEFFICIENT 5
Info: FEP ELEC. ACTIVE FOR ANNIHILATED PARTICLES BETWEEN LAMBDA = 0 AND LAMBDA = 0.5
Info: FEP ELEC. ACTIVE FOR EXNIHILATED PARTICLES BETWEEN LAMBDA = 0.5 AND LAMBDA = 1
Info: FEP VDW ACTIVE FOR ANNIHILATED PARTICLES BETWEEN LAMBDA = 0 AND LAMBDA = 1
Info: FEP VDW ACTIVE FOR EXNIHILATED PARTICLES BETWEEN LAMBDA = 0 AND LAMBDA = 1
Info: FEP BOND ACTIVE FOR ANNIHILATED PARTICLES BETWEEN LAMBDA = 1 AND LAMBDA = 1
Info: FEP BOND ACTIVE FOR EXNIHILATED PARTICLES BETWEEN LAMBDA = 0 AND LAMBDA = 0
Info: LANGEVIN DYNAMICS ACTIVE
Info: LANGEVIN TEMPERATURE   300
Info: LANGEVIN USING BBK INTEGRATOR
Info: LANGEVIN DAMPING COEFFICIENT IS 1 INVERSE PS
Info: LANGEVIN DYNAMICS APPLIED TO HYDROGENS
Info: LANGEVIN PISTON PRESSURE CONTROL ACTIVE
Info:        TARGET PRESSURE IS 1.01325 BAR
Info:     OSCILLATION PERIOD IS 50 FS
Info:             DECAY TIME IS 25 FS
Info:     PISTON TEMPERATURE IS 300 K
Info:       PRESSURE CONTROL IS GROUP-BASED
Info:    INITIAL STRAIN RATE IS 0.000357741 0.000357741 0.000357741
Info:       CELL FLUCTUATION IS ISOTROPIC
Info: PARTICLE MESH EWALD (PME) ACTIVE
Info: PME TOLERANCE               1e-06
Info: PME EWALD COEFFICIENT       0.348832
Info: PME INTERPOLATION ORDER     4
Info: PME GRID DIMENSIONS         36 36 28
Info: PME MAXIMUM GRID SPACING    1
Info: PME CALCULATION WILL BE PERFORMED ON GPU
Info: FULL ELECTROSTATIC EVALUATION FREQUENCY      2
Info: USING VERLET I (r-RESPA) MTS SCHEME.
Info: C1 SPLITTING OF LONG RANGE ELECTROSTATICS
Info: PLACING ATOMS IN PATCHES BY HYDROGEN GROUPS
Info: RIGID BONDS TO HYDROGEN : ALL
Info:         ERROR TOLERANCE : 1e-08
Info:          MAX ITERATIONS : 100
Info: RIGID WATER USING SETTLE ALGORITHM
Info: RANDOM NUMBER SEED     1743631152
Info: USE HYDROGEN BONDS?    NO
Info: Using AMBER format force field!
Info: AMBER PARM FILE        mobley_2845466.prmtop
Info: COORDINATE PDB         mobley_2845466.pdb
Info: Exclusions will be read from PARM file!
Info: SCNB (VDW SCALING)     2
Info: USING ARITHMETIC MEAN TO COMBINE L-J SIGMA PARAMETERS
Info: BINARY COORDINATES     mobley_2845466_equil.coor
Info: SUMMARY OF PARAMETERS:
Info: 6 BONDS
Info: 5 ANGLES
Info:   5 HARMONIC
Info:   0 COSINE-BASED
Info: 3 DIHEDRAL
Info: 0 IMPROPER
Info: 0 CROSSTERM
Info: 0 VDW
Info: 21 VDW_PAIRS
Info: 0 NBTHOLE_PAIRS
Info: To read alchdata from file: mobley_2845466.pdb
Info: To read alchflag data from column: 5
Info: STRUCTURE SUMMARY:
Info: 2929 ATOMS
Info: 2931 BONDS
Info: 38 ANGLES
Info: 68 DIHEDRALS
Info: 0 IMPROPERS
Info: 0 CROSSTERMS
Info: 3016 EXCLUSIONS
Info: 2911 RIGID BONDS
Info: ALCH: 0 ATOMS TO DISAPPEAR IN FINAL STATE
Info: ALCH: 22 ATOMS TO APPEAR IN FINAL STATE
Info: 5876 DEGREES OF FREEDOM
Info: 987 HYDROGEN GROUPS
Info: 3 ATOMS IN LARGEST HYDROGEN GROUP
Info: 987 MIGRATION GROUPS
Info: 3 ATOMS IN LARGEST MIGRATION GROUP
Info: TOTAL MASS = 17779.5 amu
Info: TOTAL CHARGE = 0.000300042 e
Info: MASS DENSITY = 0.964847 g/cm^3
Info: ATOM DENSITY = 0.0957194 atoms/A^3
Info: ADDED 0 IMPLICIT EXCLUSIONS
Info: NONBONDED TABLE R-SQUARED SPACING: 0.0625
Info: NONBONDED TABLE SIZE: 705 POINTS
Info: REDUCING NUMBER OF PATCHES TO IMPROVE LOAD BALANCE
Info: REMOVING COM VELOCITY -0.00234028 -0.0526212 0.0316456
Info: Use 3D box decompostion in PME FFT.
Info: Updated CUDA force table with 4096 elements.
Info: Updated CUDA LJ table with 6 x 6 elements.
Info: Found 25 unique exclusion lists needing 72 bytes
TCL: Running for 1500000 steps
ETITLE: TS BOND ANGLE DIHED IMPRP ELECT VDW BOUNDARY MISC KINETIC TOTAL TEMP POTENTIAL TOTALAVG TEMPAVG PRESSURE GPRESSURE VOLUME PRESSAVG GPRESSAVG
ENERGY: 0 8.7427 5.4852 3.4321 0.0000 -10684.8531 1482.7183 0.0000 0.0000 1749.5637 -7434.9112 299.6666 -9184.4748 -7434.9112 299.6666 -79.4833 0.6607 30599.8539 -79.4833 0.6607
ENERGY: 300000 5.8623 5.1471 8.3934 0.0000 -10513.4319 1387.7493 0.0000 0.0000 1767.8199 -7338.4600 302.7936 -9106.2799 -7384.5975 298.5277 -508.3714 -432.1661 30169.8926 11.9687 91.1557
ENERGY: 600000 4.2385 3.3706 5.2794 0.0000 -10698.4830 1516.2642 0.0000 0.0000 1772.1225 -7397.2079 303.5305 -9169.3304 -7398.6783 298.4951 502.6042 522.8864 30042.3943 33.4023 101.1937
ENERGY: 900000 7.4973 5.0744 4.0382 0.0000 -10570.6193 1409.6454 0.0000 0.0000 1770.8975 -7373.4666 303.3207 -9144.3641 -7390.4398 300.4900 35.4617 77.4725 29573.6800 14.6107 71.3106
ENERGY: 1200000 6.1371 4.3142 5.7837 0.0000 -10657.3454 1492.4128 0.0000 0.0000 1749.0241 -7399.6733 299.5742 -9148.6975 -7396.2241 299.9862 199.9094 308.4173 29983.7168 6.7890 78.2287
ENERGY: 1500000 4.9567 6.8973 6.7934 0.0000 -10498.4578 1418.2844 0.0000 0.0000 1785.6743 -7275.8517 305.8517 -9061.5259 -7399.2337 299.2824 108.7620 125.4499 29990.4804 -56.4026 10.1836
TCL: Running FEP window   2: Lambda1 0.05   Lambda2 0.1    [dLambda 0.05  ]
TCL: Setting parameter firsttimestep to 0
TCL: Setting parameter alchLambda to 0.05
Info: NONBONDED TABLE R-SQUARED SPACING: 0.0625
Info: NONBONDED TABLE SIZE: 705 POINTS
TCL: Setting parameter alchLambda2 to 0.1
Info: NONBONDED TABLE R-SQUARED SPACING: 0.0625
Info: NONBONDED TABLE SIZE: 705 POINTS
TCL: Running for 1500000 steps
ETITLE: TS BOND ANGLE DIHED IMPRP ELECT VDW BOUNDARY MISC KINETIC TOTAL TEMP POTENTIAL TOTALAVG TEMPAVG PRESSURE GPRESSURE VOLUME PRESSAVG GPRESSAVG
ENERGY: 0 4.9567 6.8973 6.7934 0.0000 -10498.4583 1428.2209 0.0000 0.0000 1784.8352 -7266.7547 305.7079 -9051.5899 -7266.7547 305.7079 75.7080 148.9613 29990.4804 75.7080 148.9613
ENERGY: 300000 4.7692 5.7080 8.0300 0.0000 -10523.6917 1388.4791 0.0000 0.0000 1759.2974 -7357.4081 301.3338 -9116.7055 -7340.0368 302.9900 -224.9057 -196.4492 30091.2891 -1.6657 79.8082
ENERGY: 600000 6.8662 5.1873 6.6233 0.0000 -10802.7359 1457.8522 0.0000 0.0000 1766.0780 -7560.1289 302.4952 -9326.2069 -7392.2439 301.7721 -360.4360 -327.4016 29707.3720 108.0304 177.1485
ENERGY: 900000 2.3092 2.2369 6.4192 0.0000 -10612.2238 1401.2837 0.0000 0.0000 1762.6976 -7437.2773 301.9162 -9199.9749 -7394.8747 301.3160 -209.9550 -180.5206 29580.5026 14.3935 67.6957
ENERGY: 1200000 6.8713 5.5058 7.3563 0.0000 -10587.2111 1444.9519 0.0000 0.0000 1743.4754 -7379.0504 298.6238 -9122.5258 -7394.6918 300.3125 -18.7069 11.8355 30174.6549 0.9900 45.6724
ENERGY: 1500000 5.0476 4.8736 5.5377 0.0000 -10625.3154 1458.1623 0.0000 0.0000 1783.5375 -7368.1566 305.4857 -9151.6940 -7396.7210 300.1473 57.6249 139.4651 30157.7375 -130.9231 -82.1359
TCL: Running FEP window   3: Lambda1 0.1    Lambda2 0.15000000000000002 [dLambda 0.05000000000000002]
TCL: Setting parameter firsttimestep to 0
TCL: Setting parameter alchLambda to 0.1
Info: NONBONDED TABLE R-SQUARED SPACING: 0.0625
Info: NONBONDED TABLE SIZE: 705 POINTS
TCL: Setting parameter alchLambda2 to 0.15000000000000002
Info: NONBONDED TABLE R-SQUARED SPACING: 0.0625
Info: NONBONDED TABLE SIZE: 705 POINTS
TCL: Running for 1500000 steps
ETITLE: TS BOND ANGLE DIHED IMPRP ELECT VDW BOUNDARY MISC KINETIC TOTAL TEMP POTENTIAL TOTALAVG TEMPAVG PRESSURE GPRESSURE VOLUME PRESSAVG GPRESSAVG
ENERGY: 0 5.0476 4.8736 5.5377 0.0000 -10625.3159 1461.0643 0.0000 0.0000 1782.6349 -7366.1577 305.3311 -9148.7926 -7366.1577 305.3311 75.9944 152.4013 30157.7375 75.9944 152.4013
ENERGY: 300000 7.1395 6.2379 3.7894 0.0000 -10495.0084 1422.1901 0.0000 0.0000 1790.1959 -7265.4556 306.6261 -9055.6515 -7343.8322 303.7513 380.4678 377.9980 29772.9580 -317.6823 -262.4026
ENERGY: 600000 5.5164 7.8301 5.2094 0.0000 -10586.3538 1439.7487 0.0000 0.0000 1720.9460 -7407.1032 294.7649 -9128.0492 -7353.9778 304.1248 200.6118 288.7546 29661.3980 -198.6610 -142.0767
ENERGY: 900000 6.0209 6.2961 2.4982 0.0000 -10588.4679 1443.4749 0.0000 0.0000 1675.1727 -7455.0050 286.9249 -9130.1778 -7365.8534 301.7528 95.7028 120.1166 30354.9813 -3.1019 47.0650
ENERGY: 1200000 8.7832 4.0098 7.4521 0.0000 -10615.2506 1401.4611 0.0000 0.0000 1696.8427 -7496.7017 290.6365 -9193.5444 -7380.6503 300.0750 -716.5820 -659.5826 29980.3616 -120.3914 -67.1434
ENERGY: 1500000 6.4180 5.0367 4.6903 0.0000 -10525.9144 1407.7534 0.0000 0.0000 1683.7516 -7418.2643 288.3943 -9102.0160 -7365.7253 300.1261 205.0242 295.4810 29610.4222 -117.7499 -62.8637
TCL: Running FEP window   4: Lambda1 0.15000000000000002 Lambda2 0.2    [dLambda 0.04999999999999999]
TCL: Setting parameter firsttimestep to 0
TCL: Setting parameter alchLambda to 0.15000000000000002
Info: NONBONDED TABLE R-SQUARED SPACING: 0.0625
Info: NONBONDED TABLE SIZE: 705 POINTS
TCL: Setting parameter alchLambda2 to 0.2
Info: NONBONDED TABLE R-SQUARED SPACING: 0.0625
Info: NONBONDED TABLE SIZE: 705 POINTS
TCL: Running for 1500000 steps
ETITLE: TS BOND ANGLE DIHED IMPRP ELECT VDW BOUNDARY MISC KINETIC TOTAL TEMP POTENTIAL TOTALAVG TEMPAVG PRESSURE GPRESSURE VOLUME PRESSAVG GPRESSAVG
ENERGY: 0 6.4180 5.0367 4.6903 0.0000 -10525.9142 1410.0147 0.0000 0.0000 1682.8692 -7416.8853 288.2431 -9099.7544 -7416.8853 288.2431 234.7318 311.7960 29610.4222 234.7318 311.7960
ENERGY: 300000 6.8887 6.5964 7.8432 0.0000 -10609.3965 1427.3335 0.0000 0.0000 1793.5944 -7367.1404 307.2082 -9160.7348 -7366.1881 298.5975 69.0893 99.2960 29779.0989 -80.6980 -14.6618
ENERGY: 600000 8.4068 7.7090 4.6774 0.0000 -10564.4832 1401.6250 0.0000 0.0000 1813.3389 -7328.7261 310.5901 -9142.0650 -7370.4423 302.7340 -571.9772 -528.9954 30694.4926 -186.4315 -124.5968
ENERGY: 900000 4.0106 2.1848 11.1155 0.0000 -10550.5199 1437.7183 0.0000 0.0000 1801.1473 -7294.3433 308.5019 -9095.4906 -7368.9810 302.8962 304.8902 410.2030 29935.1169 -176.3408 -111.1651
ENERGY: 1200000 6.8187 6.3158 5.0216 0.0000 -10520.0573 1327.4296 0.0000 0.0000 1768.6783 -7405.7934 302.9406 -9174.4716 -7375.4985 301.3560 -1202.4735 -1120.3276 30223.1967 -306.4818 -242.9355
ENERGY: 1500000 5.5156 5.3093 6.6164 0.0000 -10464.3987 1379.0891 0.0000 0.0000 1710.7348 -7357.1335 293.0160 -9067.8684 -7374.9679 301.7445 -348.1000 -318.6392 30328.7314 -303.0842 -244.9488
TCL: Running FEP window   5: Lambda1 0.2    Lambda2 0.25   [dLambda 0.04999999999999999]
TCL: Setting parameter firsttimestep to 0
TCL: Setting parameter alchLambda to 0.2
Info: NONBONDED TABLE R-SQUARED SPACING: 0.0625
Info: NONBONDED TABLE SIZE: 705 POINTS
TCL: Setting parameter alchLambda2 to 0.25
Info: NONBONDED TABLE R-SQUARED SPACING: 0.0625
Info: NONBONDED TABLE SIZE: 705 POINTS
TCL: Running for 1500000 steps
ETITLE: TS BOND ANGLE DIHED IMPRP ELECT VDW BOUNDARY MISC KINETIC TOTAL TEMP POTENTIAL TOTALAVG TEMPAVG PRESSURE GPRESSURE VOLUME PRESSAVG GPRESSAVG
ENERGY: 0 5.5156 5.3093 6.6164 0.0000 -10464.3985 1380.5675 0.0000 0.0000 1709.8623 -7356.5274 292.8665 -9066.3897 -7356.5274 292.8665 -387.6576 -305.5828 30328.7314 -387.6576 -305.5828
ENERGY: 300000 13.1746 6.4042 9.2670 0.0000 -10529.8792 1372.6557 0.0000 0.0000 1797.4078 -7330.9699 307.8614 -9128.3777 -7395.2026 298.9875 -655.5775 -603.7681 30063.5653 -246.1495 -169.2958
ENERGY: 600000 8.5627 4.9546 6.1611 0.0000 -10507.5986 1382.5014 0.0000 0.0000 1710.3030 -7395.1159 292.9420 -9105.4189 -7391.5950 297.1102 -409.8658 -364.3990 29754.5906 32.8522 84.3161
ENERGY: 900000 6.6724 7.5624 3.5274 0.0000 -10774.3023 1589.7213 0.0000 0.0000 1697.4924 -7469.3264 290.7478 -9166.8189 -7384.6730 298.3590 1244.2932 1343.1365 29739.5506 79.5511 131.7227
ENERGY: 1200000 5.6272 4.8943 4.8979 0.0000 -10632.8154 1493.5971 0.0000 0.0000 1805.2446 -7318.5542 309.2037 -9123.7988 -7369.5174 299.7117 644.5496 651.6818 30006.9370 157.4854 210.3454
ENERGY: 1500000 6.7223 5.0836 7.9748 0.0000 -10476.2879 1324.6291 0.0000 0.0000 1660.1399 -7471.7383 284.3500 -9131.8782 -7373.7364 299.8162 -724.8671 -674.1179 29842.4051 71.3213 125.2168
TCL: Running FEP window   6: Lambda1 0.25   Lambda2 0.3    [dLambda 0.04999999999999999]
TCL: Setting parameter firsttimestep to 0
TCL: Setting parameter alchLambda to 0.25
Info: NONBONDED TABLE R-SQUARED SPACING: 0.0625
Info: NONBONDED TABLE SIZE: 705 POINTS
TCL: Setting parameter alchLambda2 to 0.3
Info: NONBONDED TABLE R-SQUARED SPACING: 0.0625
Info: NONBONDED TABLE SIZE: 705 POINTS
TCL: Running for 1500000 steps
ETITLE: TS BOND ANGLE DIHED IMPRP ELECT VDW BOUNDARY MISC KINETIC TOTAL TEMP POTENTIAL TOTALAVG TEMPAVG PRESSURE GPRESSURE VOLUME PRESSAVG GPRESSAVG
ENERGY: 0 6.7223 5.0836 7.9748 0.0000 -10476.2880 1325.7881 0.0000 0.0000 1659.2557 -7471.4635 284.1986 -9130.7192 -7471.4635 284.1986 -751.9147 -659.3248 29842.4051 -751.9147 -659.3248
ENERGY: 300000 7.7084 4.1109 4.1165 0.0000 -10554.7220 1436.6428 0.0000 0.0000 1722.1266 -7380.0168 294.9672 -9102.1434 -7434.8494 294.2407 115.3836 113.1850 29792.4433 -359.5439 -287.4110
ENERGY: 600000 7.0525 8.5828 5.3436 0.0000 -10667.8202 1456.3224 0.0000 0.0000 1746.5518 -7443.9671 299.1507 -9190.5189 -7414.0914 298.3546 -214.9471 -112.7150 30244.5370 -338.9622 -255.5608
ENERGY: 900000 7.7292 4.6617 6.2685 0.0000 -10715.4261 1478.5574 0.0000 0.0000 1793.3412 -7424.8681 307.1649 -9218.2093 -7393.5753 299.7971 303.6477 408.8336 29433.8937 -254.6241 -173.7517
ENERGY: 1200000 7.3775 6.0848 5.5266 0.0000 -10560.2892 1362.1437 0.0000 0.0000 1771.2132 -7407.9434 303.3748 -9179.1566 -7393.7047 299.2368 -913.2045 -787.1708 30194.5557 -248.5385 -168.4845
ENERGY: 1500000 3.8154 7.9808 5.1117 0.0000 -10633.9933 1432.6581 0.0000 0.0000 1796.9914 -7387.4359 307.7901 -9184.4273 -7391.3202 300.2100 -188.9052 -135.9286 30368.4243 -202.3159 -129.1966
TCL: Running FEP window   7: Lambda1 0.3    Lambda2 0.35   [dLambda 0.04999999999999999]
TCL: Setting parameter firsttimestep to 0
TCL: Setting parameter alchLambda to 0.3
Info: NONBONDED TABLE R-SQUARED SPACING: 0.0625
Info: NONBONDED TABLE SIZE: 705 POINTS
TCL: Setting parameter alchLambda2 to 0.35
Info: NONBONDED TABLE R-SQUARED SPACING: 0.0625
Info: NONBONDED TABLE SIZE: 705 POINTS
TCL: Running for 1500000 steps
ETITLE: TS BOND ANGLE DIHED IMPRP ELECT VDW BOUNDARY MISC KINETIC TOTAL TEMP POTENTIAL TOTALAVG TEMPAVG PRESSURE GPRESSURE VOLUME PRESSAVG GPRESSAVG
ENERGY: 0 3.8154 7.9808 5.1117 0.0000 -10633.9910 1432.3066 0.0000 0.0000 1796.1228 -7388.6538 307.6413 -9184.7766 -7388.6538 307.6413 -210.7712 -132.6804 30368.4243 -210.7712 -132.6804
ENERGY: 300000 4.5481 5.9589 8.0211 0.0000 -10712.3811 1449.4973 0.0000 0.0000 1754.1681 -7490.1876 300.4553 -9244.3558 -7382.4671 304.5951 50.5215 101.4808 29858.0869 272.7365 313.3449
ENERGY: 600000 4.1188 3.7540 4.2825 0.0000 -10580.5793 1429.3686 0.0000 0.0000 1782.0641 -7356.9914 305.2333 -9139.0555 -7391.7919 302.7968 170.8944 229.7960 29900.6994 36.3838 91.0330
ENERGY: 900000 4.2409 7.1903 5.8008 0.0000 -10482.5211 1405.0030 0.0000 0.0000 1760.9139 -7299.3721 301.6107 -9060.2860 -7375.2534 302.7040 269.3058 299.8383 29792.4605 -46.4056 7.0008
ENERGY: 1200000 5.2761 4.6721 4.1980 0.0000 -10592.9970 1431.5479 0.0000 0.0000 1742.7459 -7404.5571 298.4988 -9147.3030 -7376.2199 301.8746 -227.5607 -211.8843 30208.7297 -45.5767 10.1964
ENERGY: 1500000 10.1861 8.0354 8.2677 0.0000 -10693.4130 1497.1364 0.0000 0.0000 1797.3883 -7372.3991 307.8580 -9169.7874 -7372.7068 302.4227 518.3312 635.3211 29601.4645 -2.7831 56.3560
TCL: Running FEP window   8: Lambda1 0.35   Lambda2 0.39999999999999997 [dLambda 0.04999999999999999]
TCL: Setting parameter firsttimestep to 0
TCL: Setting parameter alchLambda to 0.35
Info: NONBONDED TABLE R-SQUARED SPACING: 0.0625
Info: NONBONDED TABLE SIZE: 705 POINTS
TCL: Setting parameter alchLambda2 to 0.39999999999999997
Info: NONBONDED TABLE R-SQUARED SPACING: 0.0625
Info: NONBONDED TABLE SIZE: 705 POINTS
TCL: Running for 1500000 steps
ETITLE: TS BOND ANGLE DIHED IMPRP ELECT VDW BOUNDARY MISC KINETIC TOTAL TEMP POTENTIAL TOTALAVG TEMPAVG PRESSURE GPRESSURE VOLUME PRESSAVG GPRESSAVG
ENERGY: 0 10.1861 8.0354 8.2677 0.0000 -10693.4123 1497.4055 0.0000 0.0000 1796.4809 -7373.0367 307.7026 -9169.5177 -7373.0367 307.7026 555.9376 648.0810 29601.4645 555.9376 648.0810
ENERGY: 300000 7.7385 4.1712 6.1860 0.0000 -10608.0674 1406.5417 0.0000 0.0000 1757.2598 -7426.1701 300.9848 -9183.4299 -7405.1953 299.4735 -245.4006 -156.6388 30166.5128 -66.8375 -7.8395
ENERGY: 600000 3.2995 5.3055 9.2334 0.0000 -10462.0748 1323.7278 0.0000 0.0000 1784.5051 -7336.0035 305.6514 -9120.5086 -7383.6949 300.8233 -793.8720 -784.2913 29967.7973 -161.4950 -116.0869
ENERGY: 900000 4.5047 3.9522 4.5540 0.0000 -10644.7136 1533.2255 0.0000 0.0000 1708.7762 -7389.7011 292.6805 -9098.4773 -7371.0108 300.6582 882.3493 1000.7712 30211.9919 -13.6102 45.4103
ENERGY: 1200000 9.2106 6.5146 4.8886 0.0000 -10434.6702 1300.2016 0.0000 0.0000 1800.8655 -7312.9892 308.4536 -9113.8547 -7364.9328 301.4996 -1257.0306 -1166.9990 30541.9229 -161.8484 -100.2584
ENERGY: 1500000 8.3679 3.5784 5.7224 0.0000 -10570.3035 1399.4973 0.0000 0.0000 1740.3159 -7412.8216 298.0826 -9153.1375 -7373.1686 301.4586 -556.9854 -474.3298 30092.9847 -203.3383 -142.9402
TCL: Running FEP window   9: Lambda1 0.39999999999999997 Lambda2 0.44999999999999996 [dLambda 0.04999999999999999]
TCL: Setting parameter firsttimestep to 0
TCL: Setting parameter alchLambda to 0.39999999999999997
Info: NONBONDED TABLE R-SQUARED SPACING: 0.0625
Info: NONBONDED TABLE SIZE: 705 POINTS
TCL: Setting parameter alchLambda2 to 0.44999999999999996
Info: NONBONDED TABLE R-SQUARED SPACING: 0.0625
Info: NONBONDED TABLE SIZE: 705 POINTS
TCL: Running for 1500000 steps
ETITLE: TS BOND ANGLE DIHED IMPRP ELECT VDW BOUNDARY MISC KINETIC TOTAL TEMP POTENTIAL TOTALAVG TEMPAVG PRESSURE GPRESSURE VOLUME PRESSAVG GPRESSAVG
ENERGY: 0 8.3679 3.5784 5.7224 0.0000 -10570.3038 1399.1912 0.0000 0.0000 1739.4450 -7413.9989 297.9335 -9153.4439 -7413.9989 297.9335 -564.6520 -469.1723 30092.9847 -564.6520 -469.1723
ENERGY: 300000 6.9522 4.6963 7.4118 0.0000 -10612.2178 1410.1033 0.0000 0.0000 1704.1483 -7478.9059 291.8878 -9183.0542 -7412.4083 297.1802 -294.8172 -206.0410 30139.3981 -589.4920 -496.2380
ENERGY: 600000 8.2063 7.5297 7.9278 0.0000 -10444.8257 1318.5194 0.0000 0.0000 1715.4548 -7387.1877 293.8244 -9102.6425 -7398.0892 297.0386 -1098.6162 -1012.0948 30784.7023 -346.0722 -265.3658
ENERGY: 900000 5.9965 6.9998 7.2098 0.0000 -10556.0422 1422.9549 0.0000 0.0000 1767.3252 -7345.5560 302.7088 -9112.8812 -7384.5230 297.6814 -326.1084 -288.6047 30861.3409 -290.8727 -218.5465
ENERGY: 1200000 2.4785 5.6355 4.3476 0.0000 -10498.2134 1406.8304 0.0000 0.0000 1730.7707 -7348.1506 296.4477 -9078.9213 -7387.0934 297.9250 86.6620 120.3427 29955.1361 -217.6428 -142.7390
ENERGY: 1500000 8.3823 4.7634 5.0493 0.0000 -10625.3601 1498.2562 0.0000 0.0000 1733.2808 -7375.6282 296.8777 -9108.9090 -7392.8226 296.7797 622.1497 643.0839 30004.3561 -204.5104 -136.4297
TCL: Running FEP window  10: Lambda1 0.44999999999999996 Lambda2 0.49999999999999994 [dLambda 0.04999999999999999]
TCL: Setting parameter firsttimestep to 0
TCL: Setting parameter alchLambda to 0.44999999999999996
Info: NONBONDED TABLE R-SQUARED SPACING: 0.0625
Info: NONBONDED TABLE SIZE: 705 POINTS
TCL: Setting parameter alchLambda2 to 0.49999999999999994
Info: NONBONDED TABLE R-SQUARED SPACING: 0.0625
Info: NONBONDED TABLE SIZE: 705 POINTS
TCL: Running for 1500000 steps
ETITLE: TS BOND ANGLE DIHED IMPRP ELECT VDW BOUNDARY MISC KINETIC TOTAL TEMP POTENTIAL TOTALAVG TEMPAVG PRESSURE GPRESSURE VOLUME PRESSAVG GPRESSAVG
ENERGY: 0 8.3823 4.7634 5.0493 0.0000 -10625.3617 1498.8065 0.0000 0.0000 1732.4113 -7375.9490 296.7287 -9108.3603 -7375.9490 296.7287 582.9405 657.7361 30004.3561 582.9405 657.7361
ENERGY: 300000 11.3367 6.1574 5.2466 0.0000 -10632.7895 1411.0489 0.0000 0.0000 1820.1256 -7378.8744 311.7525 -9199.0000 -7403.4859 301.6396 -477.5826 -398.9377 30029.0232 -258.5350 -185.9634
ENERGY: 600000 8.8145 3.3324 2.8426 0.0000 -10649.4641 1474.5501 0.0000 0.0000 1784.5850 -7375.3395 305.6651 -9159.9245 -7415.7438 299.0835 722.9531 821.7963 29728.2637 220.9225 298.6973
ENERGY: 900000 6.4646 6.0492 4.6768 0.0000 -10520.7548 1347.7073 0.0000 0.0000 1773.8722 -7381.9848 303.8302 -9155.8570 -7413.1472 299.6809 -626.1744 -534.4801 30288.3694 49.5721 124.5791
ENERGY: 1200000 9.7492 4.1156 4.6050 0.0000 -10499.0792 1382.1897 0.0000 0.0000 1733.4921 -7364.9277 296.9138 -9098.4198 -7408.4600 300.3686 -628.4246 -580.3717 30867.9928 97.5352 166.5248
ENERGY: 1500000 4.7040 3.7066 5.3850 0.0000 -10556.5955 1367.4927 0.0000 0.0000 1755.6582 -7419.6490 300.7105 -9175.3072 -7402.0103 300.6947 -307.3935 -212.6004 29648.7600 41.6659 112.6123
TCL: Running FEP window  11: Lambda1 0.49999999999999994 Lambda2 0.5499999999999999 [dLambda 0.04999999999999999]
TCL: Setting parameter firsttimestep to 0
TCL: Setting parameter alchLambda to 0.49999999999999994
Info: NONBONDED TABLE R-SQUARED SPACING: 0.0625
Info: NONBONDED TABLE SIZE: 705 POINTS
TCL: Setting parameter alchLambda2 to 0.5499999999999999
Info: NONBONDED TABLE R-SQUARED SPACING: 0.0625
Info: NONBONDED TABLE SIZE: 705 POINTS
TCL: Running for 1500000 steps
ETITLE: TS BOND ANGLE DIHED IMPRP ELECT VDW BOUNDARY MISC KINETIC TOTAL TEMP POTENTIAL TOTALAVG TEMPAVG PRESSURE GPRESSURE VOLUME PRESSAVG GPRESSAVG
ENERGY: 0 4.7040 3.7066 5.3850 0.0000 -10556.5950 1368.2917 0.0000 0.0000 1754.7992 -7419.7085 300.5633 -9174.5077 -7419.7085 300.5633 -285.6299 -192.9156 29648.7600 -285.6299 -192.9156
ENERGY: 300000 6.9680 5.0222 3.4566 0.0000 -10741.9477 1494.8743 0.0000 0.0000 1754.8843 -7476.7423 300.5779 -9231.6266 -7415.7945 301.8770 338.8567 316.6490 30263.2079 -183.0352 -146.5226
ENERGY: 600000 6.3865 8.9057 2.7744 0.0000 -10491.4371 1337.8552 0.0000 0.0000 1761.1383 -7374.3770 301.6491 -9135.5153 -7407.1986 301.4236 -528.0347 -439.8694 29765.1089 -225.1149 -172.6416
ENERGY: 900000 6.2946 3.1631 6.3661 0.0000 -10566.6443 1413.5492 0.0000 0.0000 1757.5110 -7379.7603 301.0278 -9137.2713 -7402.9351 300.1594 -51.9213 54.1035 30130.0396 -211.6080 -158.6255
ENERGY: 1200000 8.6699 6.8990 6.7959 0.0000 -10579.4212 1389.9511 0.0000 0.0000 1744.4253 -7422.6799 298.7865 -9167.1052 -7392.0037 300.0893 -609.8040 -549.0480 30505.3752 -222.6761 -158.2593
ENERGY: 1500000 4.2844 4.7573 6.6516 0.0000 -10566.8184 1384.7089 0.0000 0.0000 1730.8444 -7435.5719 296.4603 -9166.4162 -7397.0178 299.7647 -312.3797 -215.7640 29976.2159 -258.2864 -195.9427
TCL: Running FEP window  12: Lambda1 0.5499999999999999 Lambda2 0.6    [dLambda 0.050000000000000044]
TCL: Setting parameter firsttimestep to 0
TCL: Setting parameter alchLambda to 0.5499999999999999
Info: NONBONDED TABLE R-SQUARED SPACING: 0.0625
Info: NONBONDED TABLE SIZE: 705 POINTS
TCL: Setting parameter alchLambda2 to 0.6
Info: NONBONDED TABLE R-SQUARED SPACING: 0.0625
Info: NONBONDED TABLE SIZE: 705 POINTS
TCL: Running for 1500000 steps
ETITLE: TS BOND ANGLE DIHED IMPRP ELECT VDW BOUNDARY MISC KINETIC TOTAL TEMP POTENTIAL TOTALAVG TEMPAVG PRESSURE GPRESSURE VOLUME PRESSAVG GPRESSAVG
ENERGY: 0 4.2844 4.7573 6.6516 0.0000 -10566.6625 1384.2339 0.0000 0.0000 1729.9248 -7436.8105 296.3028 -9166.7353 -7436.8105 296.3028 -282.3293 -204.2881 29976.2159 -282.3293 -204.2881
ENERGY: 300000 3.7963 6.4124 2.7427 0.0000 -10730.5285 1498.2663 0.0000 0.0000 1723.2159 -7496.0949 295.1537 -9219.3108 -7443.6689 298.3593 321.3135 446.9913 29800.8208 -132.3469 -46.1475
ENERGY: 600000 7.8797 4.3421 7.0541 0.0000 -10500.2653 1318.5525 0.0000 0.0000 1753.8501 -7408.5869 300.4008 -9162.4370 -7406.0604 302.0983 -911.4351 -864.5679 29852.2932 -94.4007 -29.3071
ENERGY: 900000 7.2150 5.8425 6.0566 0.0000 -10538.4019 1383.7512 0.0000 0.0000 1809.2777 -7326.2589 309.8945 -9135.5366 -7383.7133 303.8757 -449.2970 -351.5295 30640.1959 -125.9729 -64.4694
ENERGY: 1200000 5.2753 3.2681 7.1629 0.0000 -10652.5094 1529.3789 0.0000 0.0000 1741.5705 -7365.8537 298.2975 -9107.4242 -7385.3547 303.2290 759.8802 800.8317 30506.6766 -44.6287 11.9472
ENERGY: 1500000 6.6160 3.4268 4.1988 0.0000 -10520.7135 1383.4241 0.0000 0.0000 1718.7928 -7404.2550 294.3961 -9123.0478 -7383.2754 302.2453 97.6175 104.8727 29763.6716 -148.0981 -94.5455
TCL: Running FEP window  13: Lambda1 0.6    Lambda2 0.65   [dLambda 0.050000000000000044]
TCL: Setting parameter firsttimestep to 0
TCL: Setting parameter alchLambda to 0.6
Info: NONBONDED TABLE R-SQUARED SPACING: 0.0625
Info: NONBONDED TABLE SIZE: 705 POINTS
TCL: Setting parameter alchLambda2 to 0.65
Info: NONBONDED TABLE R-SQUARED SPACING: 0.0625
Info: NONBONDED TABLE SIZE: 705 POINTS
TCL: Running for 1500000 steps
ETITLE: TS BOND ANGLE DIHED IMPRP ELECT VDW BOUNDARY MISC KINETIC TOTAL TEMP POTENTIAL TOTALAVG TEMPAVG PRESSURE GPRESSURE VOLUME PRESSAVG GPRESSAVG
ENERGY: 0 6.6160 3.4268 4.1988 0.0000 -10520.7975 1384.7075 0.0000 0.0000 1717.9365 -7403.9120 294.2495 -9121.8485 -7403.9120 294.2495 65.5519 133.9960 29763.6716 65.5519 133.9960
ENERGY: 300000 7.2369 7.4828 5.5968 0.0000 -10583.9902 1422.2365 0.0000 0.0000 1744.6806 -7396.7565 298.8302 -9141.4371 -7359.1969 300.7676 276.5888 307.1584 29868.6136 -108.4254 -49.0254
ENERGY: 600000 4.8635 4.4223 4.3381 0.0000 -10676.1720 1504.7791 0.0000 0.0000 1766.9288 -7390.8401 302.6409 -9157.7690 -7385.1033 302.7789 446.8060 538.7954 30373.8423 58.5545 115.5575
ENERGY: 900000 11.8684 6.8479 3.9016 0.0000 -10616.1495 1476.0084 0.0000 0.0000 1751.2614 -7366.2617 299.9574 -9117.5231 -7388.2136 302.0931 73.1788 234.6841 30210.4469 39.4282 115.6052
ENERGY: 1200000 11.5538 2.4695 5.3020 0.0000 -10553.0573 1396.0559 0.0000 0.0000 1763.8275 -7373.8487 302.1097 -9137.6762 -7383.9261 301.8851 -267.5591 -245.3462 30198.6371 -28.1256 46.2884
ENERGY: 1500000 14.6442 3.8068 5.5524 0.0000 -10568.4939 1420.1327 0.0000 0.0000 1754.5639 -7369.7939 300.5231 -9124.3579 -7388.0778 301.2954 -319.8038 -340.9787 30179.5104 -123.7643 -49.4582
TCL: Running FEP window  14: Lambda1 0.65   Lambda2 0.7000000000000001 [dLambda 0.050000000000000044]
TCL: Setting parameter firsttimestep to 0
TCL: Setting parameter alchLambda to 0.65
Info: NONBONDED TABLE R-SQUARED SPACING: 0.0625
Info: NONBONDED TABLE SIZE: 705 POINTS
TCL: Setting parameter alchLambda2 to 0.7000000000000001
Info: NONBONDED TABLE R-SQUARED SPACING: 0.0625
Info: NONBONDED TABLE SIZE: 705 POINTS
TCL: Running for 1500000 steps
ETITLE: TS BOND ANGLE DIHED IMPRP ELECT VDW BOUNDARY MISC KINETIC TOTAL TEMP POTENTIAL TOTALAVG TEMPAVG PRESSURE GPRESSURE VOLUME PRESSAVG GPRESSAVG
ENERGY: 0 14.6442 3.8068 5.5524 0.0000 -10568.8710 1419.5639 0.0000 0.0000 1753.6940 -7371.6097 300.3741 -9125.3037 -7371.6097 300.3741 -411.9564 -332.7767 30179.5104 -411.9564 -332.7767
ENERGY: 300000 6.6940 4.9843 2.1288 0.0000 -10578.7464 1403.2228 0.0000 0.0000 1682.4441 -7479.2723 288.1703 -9161.7165 -7347.6855 300.3746 -264.4173 -252.1840 30251.1783 5.5176 40.5970
ENERGY: 600000 7.9081 4.5098 4.9368 0.0000 -10526.0317 1336.2645 0.0000 0.0000 1720.5392 -7451.8733 294.6953 -9172.4126 -7367.8622 299.0122 -784.7169 -694.5891 29907.9430 30.0970 82.5446
ENERGY: 900000 6.4185 5.9679 5.8721 0.0000 -10387.0608 1304.2419 0.0000 0.0000 1752.4258 -7312.1346 300.1568 -9064.5605 -7371.8135 299.3495 -686.5167 -686.4881 30821.7472 61.0662 102.9045
ENERGY: 1200000 3.5691 4.3860 3.3121 0.0000 -10696.0959 1449.0426 0.0000 0.0000 1783.9733 -7451.8128 305.5603 -9235.7861 -7376.2751 300.8419 2.3413 67.0447 30082.5825 -5.1529 38.8894
ENERGY: 1500000 6.8296 4.1432 4.6372 0.0000 -10531.2272 1347.0632 0.0000 0.0000 1737.1209 -7431.4331 297.5354 -9168.5540 -7384.1672 301.2587 -1081.8518 -1008.8992 30750.6352 -8.7157 34.4029
TCL: Running FEP window  15: Lambda1 0.7000000000000001 Lambda2 0.7500000000000001 [dLambda 0.050000000000000044]
TCL: Setting parameter firsttimestep to 0
TCL: Setting parameter alchLambda to 0.7000000000000001
Info: NONBONDED TABLE R-SQUARED SPACING: 0.0625
Info: NONBONDED TABLE SIZE: 705 POINTS
TCL: Setting parameter alchLambda2 to 0.7500000000000001
Info: NONBONDED TABLE R-SQUARED SPACING: 0.0625
Info: NONBONDED TABLE SIZE: 705 POINTS
TCL: Running for 1500000 steps
ETITLE: TS BOND ANGLE DIHED IMPRP ELECT VDW BOUNDARY MISC KINETIC TOTAL TEMP POTENTIAL TOTALAVG TEMPAVG PRESSURE GPRESSURE VOLUME PRESSAVG GPRESSAVG
ENERGY: 0 6.8296 4.1432 4.6372 0.0000 -10532.0093 1347.7273 0.0000 0.0000 1736.2858 -7432.3863 297.3924 -9168.6721 -7432.3863 297.3924 -1078.5828 -988.0307 30750.6352 -1078.5828 -988.0307
ENERGY: 300000 5.6604 5.8033 7.3444 0.0000 -10669.7920 1482.7942 0.0000 0.0000 1765.7453 -7402.4444 302.4382 -9168.1897 -7454.0241 301.2402 747.8731 772.0551 29663.3716 30.9774 70.4046
ENERGY: 600000 6.2356 3.8648 5.4349 0.0000 -10636.9242 1425.0408 0.0000 0.0000 1711.3916 -7484.9564 293.1285 -9196.3481 -7434.8032 301.5940 -189.9596 -153.6614 30457.3000 -149.7961 -111.5439
ENERGY: 900000 7.2950 8.2886 7.3480 0.0000 -10615.7889 1442.2282 0.0000 0.0000 1779.3546 -7371.2744 304.7692 -9150.6290 -7421.1941 301.4997 -159.7232 -40.5256 30600.4658 -98.6198 -55.7643
ENERGY: 1200000 4.5421 1.5887 7.6283 0.0000 -10467.9626 1304.8269 0.0000 0.0000 1774.8907 -7374.4858 304.0046 -9149.3766 -7424.7643 300.9491 -734.2093 -684.8869 30056.6457 -89.8285 -47.4262
ENERGY: 1500000 3.9229 3.5546 4.9324 0.0000 -10546.4585 1393.8457 0.0000 0.0000 1745.6279 -7394.5750 298.9925 -9140.2029 -7414.7993 301.2195 -96.4047 -20.0153 29940.7680 -97.2678 -47.4489
TCL: Running FEP window  16: Lambda1 0.7500000000000001 Lambda2 0.8000000000000002 [dLambda 0.050000000000000044]
TCL: Setting parameter firsttimestep to 0
TCL: Setting parameter alchLambda to 0.7500000000000001
Info: NONBONDED TABLE R-SQUARED SPACING: 0.0625
Info: NONBONDED TABLE SIZE: 705 POINTS
TCL: Setting parameter alchLambda2 to 0.8000000000000002
Info: NONBONDED TABLE R-SQUARED SPACING: 0.0625
Info: NONBONDED TABLE SIZE: 705 POINTS
TCL: Running for 1500000 steps
ETITLE: TS BOND ANGLE DIHED IMPRP ELECT VDW BOUNDARY MISC KINETIC TOTAL TEMP POTENTIAL TOTALAVG TEMPAVG PRESSURE GPRESSURE VOLUME PRESSAVG GPRESSAVG
ENERGY: 0 3.9229 3.5546 4.9324 0.0000 -10547.0870 1393.7796 0.0000 0.0000 1744.7715 -7396.1260 298.8458 -9140.8975 -7396.1260 298.8458 -82.5308 -5.7889 29940.7680 -82.5308 -5.7889
ENERGY: 300000 5.6257 2.7975 7.6657 0.0000 -10587.2725 1452.3796 0.0000 0.0000 1769.5243 -7349.2795 303.0855 -9118.8039 -7401.5295 297.7934 315.9657 355.5797 30276.2470 12.0763 79.5168
ENERGY: 600000 5.0566 6.2044 5.6605 0.0000 -10372.7419 1254.9805 0.0000 0.0000 1795.2926 -7305.5474 307.4991 -9100.8400 -7397.6167 299.1268 -1473.1909 -1405.0577 31163.7861 -215.7365 -151.4233
ENERGY: 900000 4.6961 7.3081 6.9538 0.0000 -10657.2063 1406.5445 0.0000 0.0000 1766.1103 -7465.5934 302.5007 -9231.7038 -7409.0691 299.3795 -154.7668 -47.8853 29838.5960 -190.6505 -127.5381
ENERGY: 1200000 8.3750 5.4940 4.1031 0.0000 -10651.1414 1477.5016 0.0000 0.0000 1792.7589 -7362.9087 307.0651 -9155.6677 -7388.7758 300.8676 572.1980 552.0980 30249.5487 -209.8790 -148.0653
ENERGY: 1500000 5.4239 2.0149 5.5797 0.0000 -10564.4573 1423.1772 0.0000 0.0000 1720.9399 -7407.3217 294.7639 -9128.2616 -7390.9515 300.0846 166.2826 192.8387 30060.9375 -156.3900 -100.7265
TCL: Running FEP window  17: Lambda1 0.8000000000000002 Lambda2 0.8500000000000002 [dLambda 0.050000000000000044]
TCL: Setting parameter firsttimestep to 0
TCL: Setting parameter alchLambda to 0.8000000000000002
Info: NONBONDED TABLE R-SQUARED SPACING: 0.0625
Info: NONBONDED TABLE SIZE: 705 POINTS
TCL: Setting parameter alchLambda2 to 0.8500000000000002
Info: NONBONDED TABLE R-SQUARED SPACING: 0.0625
Info: NONBONDED TABLE SIZE: 705 POINTS
TCL: Running for 1500000 steps
ETITLE: TS BOND ANGLE DIHED IMPRP ELECT VDW BOUNDARY MISC KINETIC TOTAL TEMP POTENTIAL TOTALAVG TEMPAVG PRESSURE GPRESSURE VOLUME PRESSAVG GPRESSAVG
ENERGY: 0 5.4239 2.0149 5.5797 0.0000 -10564.1797 1423.3617 0.0000 0.0000 1720.0921 -7407.7075 294.6187 -9127.7995 -7407.7075 294.6187 128.6425 216.5837 30060.9375 128.6425 216.5837
ENERGY: 300000 4.4279 6.9135 7.4339 0.0000 -10522.0174 1377.6566 0.0000 0.0000 1705.2974 -7420.2881 292.0847 -9125.5856 -7408.8175 297.8481 -444.4260 -329.6119 30551.1598 -77.5438 16.1552
ENERGY: 600000 11.3167 5.8708 5.5936 0.0000 -10553.6405 1382.7765 0.0000 0.0000 1823.4597 -7324.6232 312.3236 -9148.0829 -7397.9649 299.6085 -889.2523 -892.2336 30928.5648 -94.9974 -26.3887
ENERGY: 900000 8.5037 8.0627 5.2165 0.0000 -10532.9694 1375.5244 0.0000 0.0000 1746.6799 -7388.9822 299.1727 -9135.6622 -7400.7622 299.6868 -138.9335 -113.3238 29935.9835 -60.2100 1.9827
ENERGY: 1200000 2.6364 4.9315 5.5928 0.0000 -10603.8438 1397.4123 0.0000 0.0000 1732.1424 -7461.1286 296.6827 -9193.2709 -7404.6897 300.0744 -34.7632 -30.0636 30011.9535 10.2773 72.7492
ENERGY: 1500000 4.3044 8.2219 6.5707 0.0000 -10536.2856 1425.1950 0.0000 0.0000 1792.0707 -7299.9228 306.9472 -9091.9935 -7399.0851 299.9616 63.7785 155.7152 30762.4889 -20.6908 41.3330
TCL: Running FEP window  18: Lambda1 0.8500000000000002 Lambda2 0.9000000000000002 [dLambda 0.050000000000000044]
TCL: Setting parameter firsttimestep to 0
TCL: Setting parameter alchLambda to 0.8500000000000002
Info: NONBONDED TABLE R-SQUARED SPACING: 0.0625
Info: NONBONDED TABLE SIZE: 705 POINTS
TCL: Setting parameter alchLambda2 to 0.9000000000000002
Info: NONBONDED TABLE R-SQUARED SPACING: 0.0625
Info: NONBONDED TABLE SIZE: 705 POINTS
TCL: Running for 1500000 steps
ETITLE: TS BOND ANGLE DIHED IMPRP ELECT VDW BOUNDARY MISC KINETIC TOTAL TEMP POTENTIAL TOTALAVG TEMPAVG PRESSURE GPRESSURE VOLUME PRESSAVG GPRESSAVG
ENERGY: 0 4.3044 8.2219 6.5707 0.0000 -10536.6294 1425.5781 0.0000 0.0000 1791.2177 -7300.7367 306.8011 -9091.9543 -7300.7367 306.8011 74.9204 177.0966 30762.4889 74.9204 177.0966
ENERGY: 300000 8.0416 4.6573 5.3396 0.0000 -10625.5832 1428.6219 0.0000 0.0000 1814.4744 -7364.4484 310.7846 -9178.9228 -7374.5425 304.8202 254.9157 297.4022 29894.2776 6.3483 73.6322
ENERGY: 600000 5.5526 7.2495 7.6590 0.0000 -10619.9887 1403.7546 0.0000 0.0000 1724.2855 -7471.4875 295.3369 -9195.7730 -7392.8690 303.8546 -129.3813 -103.9580 30063.2968 106.5836 165.5285
ENERGY: 900000 3.5671 7.0789 3.4635 0.0000 -10569.2979 1426.3168 0.0000 0.0000 1749.7919 -7379.0797 299.7057 -9128.8716 -7390.2015 303.1340 23.7194 67.7197 30320.0009 -11.3268 42.8996
ENERGY: 1200000 4.7407 6.0695 7.4586 0.0000 -10599.9964 1413.8007 0.0000 0.0000 1797.7420 -7370.1849 307.9186 -9167.9269 -7399.6289 303.3247 360.4473 399.2688 29781.7209 -24.6304 39.9214
ENERGY: 1500000 6.9724 9.1394 5.9877 0.0000 -10449.8250 1342.9133 0.0000 0.0000 1728.5475 -7356.2647 296.0669 -9084.8122 -7401.4959 302.2771 -647.5098 -587.0895 30583.3469 -20.7469 43.5555
TCL: Running FEP window  19: Lambda1 0.9000000000000002 Lambda2 0.9500000000000003 [dLambda 0.050000000000000044]
TCL: Setting parameter firsttimestep to 0
TCL: Setting parameter alchLambda to 0.9000000000000002
Info: NONBONDED TABLE R-SQUARED SPACING: 0.0625
Info: NONBONDED TABLE SIZE: 705 POINTS
TCL: Setting parameter alchLambda2 to 0.9500000000000003
Info: NONBONDED TABLE R-SQUARED SPACING: 0.0625
Info: NONBONDED TABLE SIZE: 705 POINTS
TCL: Running for 1500000 steps
ETITLE: TS BOND ANGLE DIHED IMPRP ELECT VDW BOUNDARY MISC KINETIC TOTAL TEMP POTENTIAL TOTALAVG TEMPAVG PRESSURE GPRESSURE VOLUME PRESSAVG GPRESSAVG
ENERGY: 0 6.9724 9.1394 5.9877 0.0000 -10450.4503 1342.3544 0.0000 0.0000 1727.6914 -7358.3050 295.9203 -9085.9964 -7358.3050 295.9203 -680.1652 -576.5510 30583.3469 -680.1652 -576.5510
ENERGY: 300000 7.6603 7.9437 4.7753 0.0000 -10619.5324 1394.4637 0.0000 0.0000 1786.7128 -7417.9767 306.0295 -9204.6895 -7383.1102 302.5168 -408.2305 -320.5941 30566.1583 -308.4911 -207.4489
ENERGY: 600000 8.7912 4.5108 3.9469 0.0000 -10533.4651 1407.9216 0.0000 0.0000 1760.1118 -7348.1828 301.4733 -9108.2946 -7374.0681 302.4083 -30.3858 -1.8593 30370.3538 -250.9145 -157.7347
ENERGY: 900000 7.7040 5.6665 5.1752 0.0000 -10779.1047 1536.1994 0.0000 0.0000 1722.9021 -7501.4575 295.1000 -9224.3596 -7382.5102 301.9670 683.2276 756.3478 29976.9224 -124.8195 -33.1031
ENERGY: 1200000 8.7908 7.7560 6.1461 0.0000 -10590.0018 1347.9011 0.0000 0.0000 1727.2283 -7492.1795 295.8410 -9219.4078 -7390.0183 301.7822 -507.7110 -488.6810 30109.6187 -193.8810 -112.3266
ENERGY: 1500000 7.6319 6.7065 6.1316 0.0000 -10518.4616 1368.6975 0.0000 0.0000 1754.2374 -7375.0568 300.4671 -9129.2941 -7391.1603 302.0016 -507.0279 -394.8138 30485.8458 -194.4303 -117.1751
TCL: Running FEP window  20: Lambda1 0.9500000000000003 Lambda2 1.0    [dLambda 0.04999999999999971]
TCL: Setting parameter firsttimestep to 0
TCL: Setting parameter alchLambda to 0.9500000000000003
Info: NONBONDED TABLE R-SQUARED SPACING: 0.0625
Info: NONBONDED TABLE SIZE: 705 POINTS
TCL: Setting parameter alchLambda2 to 1.0
Info: NONBONDED TABLE R-SQUARED SPACING: 0.0625
Info: NONBONDED TABLE SIZE: 705 POINTS
TCL: Running for 1500000 steps
ETITLE: TS BOND ANGLE DIHED IMPRP ELECT VDW BOUNDARY MISC KINETIC TOTAL TEMP POTENTIAL TOTALAVG TEMPAVG PRESSURE GPRESSURE VOLUME PRESSAVG GPRESSAVG
ENERGY: 0 7.6319 6.7065 6.1316 0.0000 -10518.6308 1368.5125 0.0000 0.0000 1753.3621 -7376.2862 300.3172 -9129.6483 -7376.2862 300.3172 -436.8694 -371.8640 30485.8458 -436.8694 -371.8640
ENERGY: 300000 9.8957 5.8354 8.2877 0.0000 -10569.7864 1472.0089 0.0000 0.0000 1741.9807 -7331.7779 298.3678 -9073.7587 -7358.9603 299.1921 384.7622 467.7313 30672.0543 -417.1815 -381.0800
ENERGY: 600000 5.5006 4.7113 9.0276 0.0000 -10736.7949 1493.1116 0.0000 0.0000 1736.0593 -7488.3843 297.3536 -9224.4437 -7384.7899 297.6074 324.1820 422.6262 30065.2668 -202.2045 -164.3287
ENERGY: 900000 4.8365 2.6968 5.3909 0.0000 -10541.2559 1432.3816 0.0000 0.0000 1712.8750 -7383.0750 293.3825 -9095.9500 -7372.5042 298.0534 433.6597 474.8398 30151.6142 -40.6874 2.5225
ENERGY: 1200000 11.9685 5.4058 8.4753 0.0000 -10592.8999 1406.3288 0.0000 0.0000 1717.0096 -7443.7118 294.0907 -9160.7214 -7374.9141 299.5028 -218.1235 -133.5071 30299.3571 -112.7444 -67.5469
ENERGY: 1500000 6.3084 3.1336 4.0108 0.0000 -10598.3113 1367.5244 0.0000 0.0000 1737.5348 -7479.7994 297.6063 -9217.3342 -7392.7068 299.1762 -409.8713 -373.7085 30094.6688 -74.9440 -33.1672
TCL: Exiting due to exit command.
