Info: SIMULATION PARAMETERS:
Info: TIMESTEP               2
Info: NUMBER OF STEPS        0
Info: STEPS PER CYCLE        10
Info: PERIODIC CELL BASIS 1  31.342 0 0
Info: PERIODIC CELL BASIS 2  0 30.1603 0
Info: PERIODIC CELL BASIS 3  0 0 32.4573
Info: PERIODIC CELL CENTER   0 0 0
Info: WRAPPING WATERS AROUND PERIODIC BOUNDARIES ON OUTPUT.
Info: WRAPPING ALL CLUSTERS AROUND PERIODIC BOUNDARIES ON OUTPUT.
Info: FIRST LDB TIMESTEP     50
Info: LAST LDB TIMESTEP     -1
Info: HOM BACKGROUND SCALING 1
Info: PME BACKGROUND SCALING 1
Info: MIN ATOMS PER PATCH    40
Info: EMPTY PATCH LOAD       40 ATOMS
Info: VELOCITY FILE          mobley_6743808_equil.vel
Info: CENTER OF MASS MOVING INITIALLY? NO
Info: DIELECTRIC             1
Info: EXCLUDE                SCALED ONE-FOUR
Info: 1-4 ELECTROSTATICS SCALED BY 0.833333
Info: MODIFIED 1-4 VDW PARAMETERS WILL BE USED
Info: DCD FILENAME           mobley_6743808_prod.dcd
Info: DCD FREQUENCY          100000
Info: DCD FIRST STEP         100000
Info: DCD FILE WILL CONTAIN UNIT CELL DATA
Info: XST FILENAME           mobley_6743808_prod.xst
Info: XST FREQUENCY          100000
Info: NO VELOCITY DCD OUTPUT
Info: NO FORCE DCD OUTPUT
Info: OUTPUT FILENAME        mobley_6743808_prod
Info: BINARY OUTPUT FILES WILL BE USED
Info: RESTART FILENAME       mobley_6743808_prod.restart
Info: RESTART FREQUENCY      100000
Info: BINARY RESTART FILES WILL BE USED
Info: CUTOFF                 9
Info: PAIRLIST DISTANCE      11
Info: PAIRLIST SHRINK RATE   0.01
Info: PAIRLIST GROW RATE     0.01
Info: PAIRLIST TRIGGER       0.3
Info: PAIRLISTS PER CYCLE    2
Info: PAIRLISTS ENABLED
Info: MARGIN                 2
Info: HYDROGEN GROUP CUTOFF  2.5
Info: PATCH DIMENSION        15.5
Info: ENERGY OUTPUT STEPS    100000
Info: ENERGY EVALUATION STEPS    100000
Info: OUTPUT ENERGY PRECISION 4
Info: CROSSTERM ENERGY INCLUDED IN DIHEDRAL
Info: TIMING OUTPUT STEPS    1000000
Info: PRESSURE OUTPUT STEPS  100000
Info: ALCHEMICAL FEP ON
Info: FEP CURRENT LAMBDA VALUE     0
Info: FEP COMPARISON LAMBDA VALUE  0.05
Info: FEP INTRA-ALCHEMICAL NON-BONDED INTERACTIONS WILL BE RETAINED
Info: FEP INTRA-ALCHEMICAL BONDED INTERACTIONS WILL BE RETAINED
Info: FEP VDW SHIFTING COEFFICIENT 5
Info: FEP ELEC. ACTIVE FOR ANNIHILATED PARTICLES BETWEEN LAMBDA = 0 AND LAMBDA = 0.5
Info: FEP ELEC. ACTIVE FOR EXNIHILATED PARTICLES BETWEEN LAMBDA = 0.5 AND LAMBDA = 1
Info: FEP VDW ACTIVE FOR ANNIHILATED PARTICLES BETWEEN LAMBDA = 0 AND LAMBDA = 1
Info: FEP VDW ACTIVE FOR EXNIHILATED PARTICLES BETWEEN LAMBDA = 0 AND LAMBDA = 1
Info: FEP BOND ACTIVE FOR ANNIHILATED PARTICLES BETWEEN LAMBDA = 1 AND LAMBDA = 1
Info: FEP BOND ACTIVE FOR EXNIHILATED PARTICLES BETWEEN LAMBDA = 0 AND LAMBDA = 0
Info: LANGEVIN DYNAMICS ACTIVE
Info: LANGEVIN TEMPERATURE   300
Info: LANGEVIN USING BBK INTEGRATOR
Info: LANGEVIN DAMPING COEFFICIENT IS 1 INVERSE PS
Info: LANGEVIN DYNAMICS APPLIED TO HYDROGENS
Info: LANGEVIN PISTON PRESSURE CONTROL ACTIVE
Info:        TARGET PRESSURE IS 1.01325 BAR
Info:     OSCILLATION PERIOD IS 50 FS
Info:             DECAY TIME IS 25 FS
Info:     PISTON TEMPERATURE IS 300 K
Info:       PRESSURE CONTROL IS GROUP-BASED
Info:    INITIAL STRAIN RATE IS -0.000229643 -0.000229643 -0.000229643
Info:       CELL FLUCTUATION IS ISOTROPIC
Info: PARTICLE MESH EWALD (PME) ACTIVE
Info: PME TOLERANCE               1e-06
Info: PME EWALD COEFFICIENT       0.348832
Info: PME INTERPOLATION ORDER     4
Info: PME GRID DIMENSIONS         32 32 36
Info: PME MAXIMUM GRID SPACING    1
Info: PME CALCULATION WILL BE PERFORMED ON GPU
Info: FULL ELECTROSTATIC EVALUATION FREQUENCY      2
Info: USING VERLET I (r-RESPA) MTS SCHEME.
Info: C1 SPLITTING OF LONG RANGE ELECTROSTATICS
Info: PLACING ATOMS IN PATCHES BY HYDROGEN GROUPS
Info: RIGID BONDS TO HYDROGEN : ALL
Info:         ERROR TOLERANCE : 1e-08
Info:          MAX ITERATIONS : 100
Info: RIGID WATER USING SETTLE ALGORITHM
Info: RANDOM NUMBER SEED     1743612730
Info: USE HYDROGEN BONDS?    NO
Info: Using AMBER format force field!
Info: AMBER PARM FILE        mobley_6743808.prmtop
Info: COORDINATE PDB         mobley_6743808.pdb
Info: Exclusions will be read from PARM file!
Info: SCNB (VDW SCALING)     2
Info: USING ARITHMETIC MEAN TO COMBINE L-J SIGMA PARAMETERS
Info: BINARY COORDINATES     mobley_6743808_equil.coor
Info: SUMMARY OF PARAMETERS:
Info: 8 BONDS
Info: 7 ANGLES
Info:   7 HARMONIC
Info:   0 COSINE-BASED
Info: 4 DIHEDRAL
Info: 0 IMPROPER
Info: 0 CROSSTERM
Info: 0 VDW
Info: 28 VDW_PAIRS
Info: 0 NBTHOLE_PAIRS
Info: To read alchdata from file: mobley_6743808.pdb
Info: To read alchflag data from column: 5
Info: STRUCTURE SUMMARY:
Info: 2965 ATOMS
Info: 2965 BONDS
Info: 31 ANGLES
Info: 44 DIHEDRALS
Info: 0 IMPROPERS
Info: 0 CROSSTERMS
Info: 3031 EXCLUSIONS
Info: 2956 RIGID BONDS
Info: ALCH: 0 ATOMS TO DISAPPEAR IN FINAL STATE
Info: ALCH: 19 ATOMS TO APPEAR IN FINAL STATE
Info: 5939 DEGREES OF FREEDOM
Info: 991 HYDROGEN GROUPS
Info: 4 ATOMS IN LARGEST HYDROGEN GROUP
Info: 991 MIGRATION GROUPS
Info: 4 ATOMS IN LARGEST MIGRATION GROUP
Info: TOTAL MASS = 17813.9 amu
Info: TOTAL CHARGE = -1.11759e-08 e
Info: MASS DENSITY = 0.964145 g/cm^3
Info: ATOM DENSITY = 0.0966384 atoms/A^3
Info: ADDED 0 IMPLICIT EXCLUSIONS
Info: NONBONDED TABLE R-SQUARED SPACING: 0.0625
Info: NONBONDED TABLE SIZE: 705 POINTS
Info: REMOVING COM VELOCITY 0.0174712 -0.00933653 -0.260259
Info: Use 3D box decompostion in PME FFT.
Info: Updated CUDA force table with 4096 elements.
Info: Updated CUDA LJ table with 7 x 7 elements.
Info: Found 18 unique exclusion lists needing 44 bytes
TCL: Running for 1500000 steps
ETITLE: TS BOND ANGLE DIHED IMPRP ELECT VDW BOUNDARY MISC KINETIC TOTAL TEMP POTENTIAL TOTALAVG TEMPAVG PRESSURE GPRESSURE VOLUME PRESSAVG GPRESSAVG
ENERGY: 0 1.6189 5.9072 3.3945 0.0000 -10814.4581 1516.8336 0.0000 0.0000 1776.2394 -7510.4645 301.0084 -9286.7038 -7510.4645 301.0084 371.0283 472.7942 30681.3988 371.0283 472.7942
ENERGY: 300000 1.7389 3.0107 1.5063 0.0000 -10778.4304 1468.7308 0.0000 0.0000 1743.6045 -7559.8392 295.4779 -9303.4437 -7498.3404 299.5218 202.7294 299.9700 30164.4499 -132.4944 -52.8978
ENERGY: 600000 3.3537 3.3095 1.5466 0.0000 -10822.4222 1508.3121 0.0000 0.0000 1853.7280 -7452.1724 314.1399 -9305.9004 -7509.6141 300.8091 537.4428 589.6643 30315.9067 -141.1856 -68.6571
ENERGY: 900000 4.4398 7.1991 1.9001 0.0000 -10703.9851 1474.8437 0.0000 0.0000 1752.9041 -7462.6982 297.0539 -9215.6024 -7509.0287 299.6366 -62.4112 43.3321 30858.8612 -122.9953 -44.5841
ENERGY: 1200000 4.8474 4.6520 3.6689 0.0000 -10669.5403 1387.1496 0.0000 0.0000 1814.5264 -7454.6961 307.4966 -9269.2224 -7503.9943 300.5884 -438.5067 -322.1421 30478.6674 -173.6119 -93.3762
ENERGY: 1500000 2.5884 6.5593 3.4405 0.0000 -10679.1305 1392.0600 0.0000 0.0000 1767.9247 -7506.5576 299.5993 -9274.4823 -7507.5495 300.9397 -507.6755 -501.7386 30487.5694 -238.7552 -165.9064
TCL: Running FEP window   2: Lambda1 0.05   Lambda2 0.1    [dLambda 0.05  ]
TCL: Setting parameter firsttimestep to 0
TCL: Setting parameter alchLambda to 0.05
Info: NONBONDED TABLE R-SQUARED SPACING: 0.0625
Info: NONBONDED TABLE SIZE: 705 POINTS
TCL: Setting parameter alchLambda2 to 0.1
Info: NONBONDED TABLE R-SQUARED SPACING: 0.0625
Info: NONBONDED TABLE SIZE: 705 POINTS
TCL: Running for 1500000 steps
ETITLE: TS BOND ANGLE DIHED IMPRP ELECT VDW BOUNDARY MISC KINETIC TOTAL TEMP POTENTIAL TOTALAVG TEMPAVG PRESSURE GPRESSURE VOLUME PRESSAVG GPRESSAVG
ENERGY: 0 2.5884 6.5593 3.4405 0.0000 -10679.1314 1394.7918 0.0000 0.0000 1767.0372 -7504.7140 299.4489 -9271.7513 -7504.7140 299.4489 -583.3831 -493.3397 30487.5694 -583.3831 -493.3397
ENERGY: 300000 3.2984 4.4739 2.0539 0.0000 -10750.1570 1437.5228 0.0000 0.0000 1750.2973 -7552.5108 296.6121 -9302.8081 -7490.7058 298.8343 -206.5651 -124.7732 30253.0759 -306.6850 -250.5193
ENERGY: 600000 1.5196 7.7456 2.2270 0.0000 -10740.5526 1435.4792 0.0000 0.0000 1800.9801 -7492.6011 305.2010 -9293.5812 -7490.8819 300.4158 173.0113 186.5027 30131.2019 -206.6844 -159.0829
ENERGY: 900000 3.1965 5.4860 2.5854 0.0000 -10806.8169 1484.1841 0.0000 0.0000 1777.2561 -7534.1087 301.1807 -9311.3648 -7492.0774 299.9092 623.1470 741.7724 29502.2798 -119.3460 -59.6858
ENERGY: 1200000 2.8270 5.1308 3.4066 0.0000 -10816.6074 1492.0754 0.0000 0.0000 1753.8189 -7559.3486 297.2089 -9313.1675 -7491.4484 299.4705 487.6875 505.6787 30191.8634 -48.0618 8.1036
ENERGY: 1500000 2.2434 6.9764 6.2701 0.0000 -10821.8636 1479.7637 0.0000 0.0000 1810.8824 -7515.7277 306.8791 -9326.6100 -7494.4480 299.4512 176.4267 260.7659 30425.4198 1.1994 55.7281
TCL: Running FEP window   3: Lambda1 0.1    Lambda2 0.15000000000000002 [dLambda 0.05000000000000002]
TCL: Setting parameter firsttimestep to 0
TCL: Setting parameter alchLambda to 0.1
Info: NONBONDED TABLE R-SQUARED SPACING: 0.0625
Info: NONBONDED TABLE SIZE: 705 POINTS
TCL: Setting parameter alchLambda2 to 0.15000000000000002
Info: NONBONDED TABLE R-SQUARED SPACING: 0.0625
Info: NONBONDED TABLE SIZE: 705 POINTS
TCL: Running for 1500000 steps
ETITLE: TS BOND ANGLE DIHED IMPRP ELECT VDW BOUNDARY MISC KINETIC TOTAL TEMP POTENTIAL TOTALAVG TEMPAVG PRESSURE GPRESSURE VOLUME PRESSAVG GPRESSAVG
ENERGY: 0 2.2434 6.9764 6.2701 0.0000 -10821.8652 1480.1123 0.0000 0.0000 1810.0349 -7516.2280 306.7355 -9326.2630 -7516.2280 306.7355 172.8587 265.1721 30425.4198 172.8587 265.1721
ENERGY: 300000 2.0044 5.5902 2.5403 0.0000 -10672.2485 1412.4149 0.0000 0.0000 1743.1656 -7506.5330 295.4036 -9249.6987 -7523.8435 299.5824 -203.4516 -184.1485 30421.6792 -176.1211 -135.8424
ENERGY: 600000 3.1216 6.8596 4.0639 0.0000 -10801.2519 1551.4696 0.0000 0.0000 1788.0755 -7447.6618 303.0141 -9235.7372 -7509.2429 301.1525 1021.5796 995.4399 30525.9396 168.2548 203.9680
ENERGY: 900000 2.5856 11.3547 4.5464 0.0000 -10692.3698 1410.3789 0.0000 0.0000 1803.3320 -7460.1721 305.5996 -9263.5042 -7498.7150 302.1266 -227.1321 -157.1364 30499.3838 22.8714 68.7617
ENERGY: 1200000 3.3418 8.8319 5.4739 0.0000 -10740.6285 1394.5379 0.0000 0.0000 1816.9196 -7511.5234 307.9022 -9328.4430 -7501.9759 302.8565 -876.7464 -820.2461 30917.2493 -56.6008 -1.8486
ENERGY: 1500000 1.1757 7.3050 3.5229 0.0000 -10677.3801 1423.9401 0.0000 0.0000 1802.2738 -7439.1626 305.4203 -9241.4365 -7498.9738 302.6784 -63.6250 17.8412 30633.5849 3.2290 59.8517
TCL: Running FEP window   4: Lambda1 0.15000000000000002 Lambda2 0.2    [dLambda 0.04999999999999999]
TCL: Setting parameter firsttimestep to 0
TCL: Setting parameter alchLambda to 0.15000000000000002
Info: NONBONDED TABLE R-SQUARED SPACING: 0.0625
Info: NONBONDED TABLE SIZE: 705 POINTS
TCL: Setting parameter alchLambda2 to 0.2
Info: NONBONDED TABLE R-SQUARED SPACING: 0.0625
Info: NONBONDED TABLE SIZE: 705 POINTS
TCL: Running for 1500000 steps
ETITLE: TS BOND ANGLE DIHED IMPRP ELECT VDW BOUNDARY MISC KINETIC TOTAL TEMP POTENTIAL TOTALAVG TEMPAVG PRESSURE GPRESSURE VOLUME PRESSAVG GPRESSAVG
ENERGY: 0 1.1757 7.3050 3.5229 0.0000 -10677.3794 1425.6664 0.0000 0.0000 1801.3465 -7438.3629 305.2631 -9239.7094 -7438.3629 305.2631 -69.1908 27.9755 30633.5849 -69.1908 27.9755
ENERGY: 300000 4.4208 4.9714 1.0436 0.0000 -10871.2036 1477.6851 0.0000 0.0000 1753.1606 -7629.9221 297.0973 -9383.0827 -7520.8642 299.3864 -160.5036 -104.1478 30490.2816 148.1324 191.8337
ENERGY: 600000 1.0732 4.4937 4.5951 0.0000 -10673.0718 1387.6599 0.0000 0.0000 1814.6461 -7460.6037 307.5169 -9275.2498 -7512.4831 301.0180 -421.7054 -421.0848 30386.1454 69.0277 87.4187
ENERGY: 900000 4.2465 11.2667 4.4026 0.0000 -10776.7583 1444.0540 0.0000 0.0000 1763.4068 -7549.3817 298.8337 -9312.7885 -7504.0483 301.8752 -245.6083 -183.9632 30555.1313 -102.8451 -65.0251
ENERGY: 1200000 1.8147 8.4813 1.8761 0.0000 -10683.1640 1428.8825 0.0000 0.0000 1788.9212 -7453.1882 303.1575 -9242.1093 -7501.3027 301.9209 -230.2448 -188.6123 30663.5853 -87.9895 -48.3054
ENERGY: 1500000 3.9998 6.5520 4.4626 0.0000 -10757.7926 1448.0600 0.0000 0.0000 1755.4788 -7539.2393 297.4902 -9294.7182 -7494.1772 302.0117 338.5914 415.3830 29857.0177 -87.7993 -44.6285
TCL: Running FEP window   5: Lambda1 0.2    Lambda2 0.25   [dLambda 0.04999999999999999]
TCL: Setting parameter firsttimestep to 0
TCL: Setting parameter alchLambda to 0.2
Info: NONBONDED TABLE R-SQUARED SPACING: 0.0625
Info: NONBONDED TABLE SIZE: 705 POINTS
TCL: Setting parameter alchLambda2 to 0.25
Info: NONBONDED TABLE R-SQUARED SPACING: 0.0625
Info: NONBONDED TABLE SIZE: 705 POINTS
TCL: Running for 1500000 steps
ETITLE: TS BOND ANGLE DIHED IMPRP ELECT VDW BOUNDARY MISC KINETIC TOTAL TEMP POTENTIAL TOTALAVG TEMPAVG PRESSURE GPRESSURE VOLUME PRESSAVG GPRESSAVG
ENERGY: 0 3.9998 6.5520 4.4626 0.0000 -10757.7933 1447.8807 0.0000 0.0000 1754.6208 -7540.2774 297.3448 -9294.8982 -7540.2774 297.3448 319.7228 416.5194 29857.0177 319.7228 416.5194
ENERGY: 300000 1.8500 4.5377 1.9216 0.0000 -10684.9671 1407.7199 0.0000 0.0000 1783.6131 -7485.3249 302.2579 -9268.9379 -7547.3954 297.0825 -362.3132 -320.9401 30557.7132 29.4231 89.6866
ENERGY: 600000 4.2499 6.2867 1.2771 0.0000 -10595.1336 1352.6556 0.0000 0.0000 1767.6459 -7463.0185 299.5521 -9230.6644 -7511.5546 299.0290 -726.3816 -620.8210 30470.6879 -116.3063 -44.6553
ENERGY: 900000 5.2608 3.9852 4.3735 0.0000 -10634.6020 1414.2624 0.0000 0.0000 1745.6265 -7461.0937 295.8206 -9206.7202 -7516.1618 298.7887 -292.4109 -205.8142 30871.7341 -57.5801 11.2100
ENERGY: 1200000 3.4954 4.6962 2.0282 0.0000 -10699.6444 1388.4783 0.0000 0.0000 1728.1600 -7572.7863 292.8606 -9300.9463 -7514.4682 299.2289 -477.4144 -388.4722 30380.3078 -143.0474 -83.0269
ENERGY: 1500000 4.5668 9.3479 2.7675 0.0000 -10850.0036 1486.7329 0.0000 0.0000 1759.3622 -7587.2263 298.1483 -9346.5885 -7512.4953 299.1643 171.0356 162.1683 30044.1370 -196.9527 -143.3539
TCL: Running FEP window   6: Lambda1 0.25   Lambda2 0.3    [dLambda 0.04999999999999999]
TCL: Setting parameter firsttimestep to 0
TCL: Setting parameter alchLambda to 0.25
Info: NONBONDED TABLE R-SQUARED SPACING: 0.0625
Info: NONBONDED TABLE SIZE: 705 POINTS
TCL: Setting parameter alchLambda2 to 0.3
Info: NONBONDED TABLE R-SQUARED SPACING: 0.0625
Info: NONBONDED TABLE SIZE: 705 POINTS
TCL: Running for 1500000 steps
ETITLE: TS BOND ANGLE DIHED IMPRP ELECT VDW BOUNDARY MISC KINETIC TOTAL TEMP POTENTIAL TOTALAVG TEMPAVG PRESSURE GPRESSURE VOLUME PRESSAVG GPRESSAVG
ENERGY: 0 4.5668 9.3479 2.7675 0.0000 -10850.0033 1488.9425 0.0000 0.0000 1758.4254 -7585.9531 297.9895 -9344.3785 -7585.9531 297.9895 100.2208 179.3404 30044.1370 100.2208 179.3404
ENERGY: 300000 2.4595 5.1295 1.7027 0.0000 -10607.3536 1376.3698 0.0000 0.0000 1777.4421 -7444.2500 301.2122 -9221.6921 -7498.0443 299.2673 -559.7533 -477.6702 30970.9952 -139.3944 -63.4226
ENERGY: 600000 1.9841 7.6022 3.8587 0.0000 -10847.6230 1477.5498 0.0000 0.0000 1799.5952 -7557.0329 304.9663 -9356.6281 -7528.6703 299.7624 432.0875 472.2837 29808.4236 -10.9637 74.1206
ENERGY: 900000 2.3441 4.2286 4.0198 0.0000 -10655.5927 1428.3732 0.0000 0.0000 1784.7174 -7431.9097 302.4451 -9216.6271 -7511.6655 300.0326 -93.6142 -41.0733 30769.0697 -103.4600 -34.3276
ENERGY: 1200000 4.6920 8.4915 2.5151 0.0000 -10877.1766 1528.1383 0.0000 0.0000 1814.8091 -7518.5305 307.5445 -9333.3396 -7515.1982 300.6675 379.8358 435.6147 30300.2622 -36.5262 25.5246
ENERGY: 1500000 2.5341 9.5141 4.1815 0.0000 -10808.0992 1454.6517 0.0000 0.0000 1805.0697 -7532.1480 305.8941 -9337.2177 -7509.5594 301.3562 -108.8030 -42.1747 30584.0138 45.8539 107.9880
TCL: Running FEP window   7: Lambda1 0.3    Lambda2 0.35   [dLambda 0.04999999999999999]
TCL: Setting parameter firsttimestep to 0
TCL: Setting parameter alchLambda to 0.3
Info: NONBONDED TABLE R-SQUARED SPACING: 0.0625
Info: NONBONDED TABLE SIZE: 705 POINTS
TCL: Setting parameter alchLambda2 to 0.35
Info: NONBONDED TABLE R-SQUARED SPACING: 0.0625
Info: NONBONDED TABLE SIZE: 705 POINTS
TCL: Running for 1500000 steps
ETITLE: TS BOND ANGLE DIHED IMPRP ELECT VDW BOUNDARY MISC KINETIC TOTAL TEMP POTENTIAL TOTALAVG TEMPAVG PRESSURE GPRESSURE VOLUME PRESSAVG GPRESSAVG
ENERGY: 0 2.5341 9.5141 4.1815 0.0000 -10808.0987 1454.8173 0.0000 0.0000 1804.2103 -7532.8413 305.7484 -9337.0516 -7532.8413 305.7484 -126.7218 -38.0950 30584.0138 -126.7218 -38.0950
ENERGY: 300000 3.6805 9.7380 2.8294 0.0000 -10727.0321 1420.0842 0.0000 0.0000 1734.1613 -7556.5387 293.8776 -9290.7000 -7497.0991 298.5877 -186.0106 -166.3191 30499.3529 -331.4827 -261.2062
ENERGY: 600000 6.4575 6.6959 1.8549 0.0000 -10757.8463 1493.8820 0.0000 0.0000 1795.1859 -7453.7702 304.2191 -9248.9562 -7494.6392 299.9303 498.3866 561.5781 30429.3345 -83.9072 -28.6518
ENERGY: 900000 4.7332 3.1239 2.4672 0.0000 -10714.0646 1425.3126 0.0000 0.0000 1751.1213 -7527.3064 296.7518 -9278.4278 -7492.0780 299.3946 68.9834 142.3580 29967.3140 -19.8752 36.6023
ENERGY: 1200000 1.8659 11.0514 3.2308 0.0000 -10840.2138 1445.0735 0.0000 0.0000 1776.0047 -7602.9875 300.9686 -9378.9922 -7506.6332 299.8970 -121.8696 -118.1682 30269.1502 -140.2041 -86.7080
ENERGY: 1500000 2.6711 7.2453 1.9868 0.0000 -10770.4898 1411.8403 0.0000 0.0000 1794.1031 -7552.6432 304.0356 -9346.7463 -7507.0394 300.1159 -414.0368 -397.7795 30381.0677 -176.8214 -126.0137
TCL: Running FEP window   8: Lambda1 0.35   Lambda2 0.39999999999999997 [dLambda 0.04999999999999999]
TCL: Setting parameter firsttimestep to 0
TCL: Setting parameter alchLambda to 0.35
Info: NONBONDED TABLE R-SQUARED SPACING: 0.0625
Info: NONBONDED TABLE SIZE: 705 POINTS
TCL: Setting parameter alchLambda2 to 0.39999999999999997
Info: NONBONDED TABLE R-SQUARED SPACING: 0.0625
Info: NONBONDED TABLE SIZE: 705 POINTS
TCL: Running for 1500000 steps
ETITLE: TS BOND ANGLE DIHED IMPRP ELECT VDW BOUNDARY MISC KINETIC TOTAL TEMP POTENTIAL TOTALAVG TEMPAVG PRESSURE GPRESSURE VOLUME PRESSAVG GPRESSAVG
ENERGY: 0 2.6711 7.2453 1.9868 0.0000 -10770.4894 1411.9397 0.0000 0.0000 1793.1903 -7553.4562 303.8809 -9346.6465 -7553.4562 303.8809 -479.6547 -394.2645 30381.0677 -479.6547 -394.2645
ENERGY: 300000 1.0173 3.6643 2.9467 0.0000 -10762.5224 1500.6202 0.0000 0.0000 1799.1370 -7455.1368 304.8887 -9254.2738 -7493.6814 300.1870 630.2300 672.9566 30646.6765 -125.0613 -54.3596
ENERGY: 600000 1.4147 6.4582 1.9178 0.0000 -10718.2426 1442.6872 0.0000 0.0000 1824.1374 -7441.6273 309.1253 -9265.7646 -7492.5601 301.0466 127.9542 180.4239 30464.2465 -111.7031 -42.8876
ENERGY: 900000 2.5073 5.2394 5.3680 0.0000 -10793.4766 1429.5282 0.0000 0.0000 1807.0602 -7543.7734 306.2314 -9350.8337 -7503.8662 301.8665 -204.1096 -180.4251 30404.2335 -103.3869 -43.2700
ENERGY: 1200000 3.1456 4.3494 3.4316 0.0000 -10723.3818 1471.6805 0.0000 0.0000 1720.3296 -7520.4451 291.5337 -9240.7748 -7493.3805 300.9485 377.7795 411.0009 30089.0904 -46.8064 17.9349
ENERGY: 1500000 5.4020 9.1713 3.2250 0.0000 -10820.6789 1466.4319 0.0000 0.0000 1726.4947 -7609.9540 292.5784 -9336.4487 -7509.1924 300.7527 -136.4830 -53.5470 30216.2635 -36.3942 22.3798
TCL: Running FEP window   9: Lambda1 0.39999999999999997 Lambda2 0.44999999999999996 [dLambda 0.04999999999999999]
TCL: Setting parameter firsttimestep to 0
TCL: Setting parameter alchLambda to 0.39999999999999997
Info: NONBONDED TABLE R-SQUARED SPACING: 0.0625
Info: NONBONDED TABLE SIZE: 705 POINTS
TCL: Setting parameter alchLambda2 to 0.44999999999999996
Info: NONBONDED TABLE R-SQUARED SPACING: 0.0625
Info: NONBONDED TABLE SIZE: 705 POINTS
TCL: Running for 1500000 steps
ETITLE: TS BOND ANGLE DIHED IMPRP ELECT VDW BOUNDARY MISC KINETIC TOTAL TEMP POTENTIAL TOTALAVG TEMPAVG PRESSURE GPRESSURE VOLUME PRESSAVG GPRESSAVG
ENERGY: 0 5.4020 9.1713 3.2250 0.0000 -10820.6780 1466.2647 0.0000 0.0000 1725.6280 -7610.9870 292.4316 -9336.6150 -7610.9870 292.4316 -132.6044 -49.6739 30216.2635 -132.6044 -49.6739
ENERGY: 300000 3.9220 5.2488 1.0518 0.0000 -10603.2475 1395.7291 0.0000 0.0000 1800.6908 -7396.6050 305.1520 -9197.2958 -7475.9204 298.3914 -113.8250 -20.7504 30439.9302 -17.9688 57.6864
ENERGY: 600000 1.3194 5.2218 2.5229 0.0000 -10713.5719 1416.2553 0.0000 0.0000 1736.2793 -7551.9732 294.2366 -9288.2525 -7513.7527 297.2766 13.6953 86.9381 30053.2935 22.2221 106.7980
ENERGY: 900000 3.4086 5.6817 5.9784 0.0000 -10794.0710 1451.2452 0.0000 0.0000 1737.7152 -7590.0419 294.4799 -9327.7571 -7534.8660 296.7093 23.7848 113.7693 30421.6812 75.4004 154.3132
ENERGY: 1200000 2.5213 5.8883 4.7447 0.0000 -10784.3544 1508.1028 0.0000 0.0000 1764.6288 -7498.4685 299.0408 -9263.0973 -7534.6416 297.2105 884.5636 1008.9894 29830.3886 194.4310 272.5303
ENERGY: 1500000 7.3392 6.9002 2.6315 0.0000 -10792.2002 1452.2533 0.0000 0.0000 1764.7905 -7558.2855 299.0682 -9323.0760 -7536.1703 297.7261 -367.1658 -282.5496 30736.7686 133.2075 203.8628
TCL: Running FEP window  10: Lambda1 0.44999999999999996 Lambda2 0.49999999999999994 [dLambda 0.04999999999999999]
TCL: Setting parameter firsttimestep to 0
TCL: Setting parameter alchLambda to 0.44999999999999996
Info: NONBONDED TABLE R-SQUARED SPACING: 0.0625
Info: NONBONDED TABLE SIZE: 705 POINTS
TCL: Setting parameter alchLambda2 to 0.49999999999999994
Info: NONBONDED TABLE R-SQUARED SPACING: 0.0625
Info: NONBONDED TABLE SIZE: 705 POINTS
TCL: Running for 1500000 steps
ETITLE: TS BOND ANGLE DIHED IMPRP ELECT VDW BOUNDARY MISC KINETIC TOTAL TEMP POTENTIAL TOTALAVG TEMPAVG PRESSURE GPRESSURE VOLUME PRESSAVG GPRESSAVG
ENERGY: 0 7.3392 6.9001 2.6315 0.0000 -10792.2007 1452.1175 0.0000 0.0000 1763.9104 -7559.3019 298.9190 -9323.2124 -7559.3019 298.9190 -366.8559 -278.8078 30736.7686 -366.8559 -278.8078
ENERGY: 300000 3.1421 7.9759 1.9463 0.0000 -10629.5475 1387.5773 0.0000 0.0000 1795.2504 -7433.6555 304.2300 -9228.9059 -7498.8902 302.5637 -396.1990 -274.2995 30276.3738 -418.6821 -352.8066
ENERGY: 600000 2.4648 10.4448 1.7596 0.0000 -10819.8441 1481.1879 0.0000 0.0000 1815.3969 -7508.5901 307.6441 -9323.9870 -7482.4269 303.9818 450.6584 486.5776 30268.5659 -174.1207 -105.4926
ENERGY: 900000 5.7046 5.5670 4.6458 0.0000 -10834.7856 1510.7847 0.0000 0.0000 1758.6741 -7549.4094 298.0317 -9308.0835 -7496.7758 302.5539 614.5075 647.3166 29784.9914 -69.2626 -10.0141
ENERGY: 1200000 6.1902 6.0796 3.9949 0.0000 -10581.5135 1353.5419 0.0000 0.0000 1773.3442 -7438.3627 300.5177 -9211.7069 -7497.4355 302.0851 -599.3902 -573.4454 30690.3715 -128.5953 -71.0178
ENERGY: 1500000 3.1240 7.9219 3.0519 0.0000 -10651.7652 1345.6037 0.0000 0.0000 1763.5309 -7528.5329 298.8547 -9292.0638 -7507.8413 301.0370 -811.3053 -810.4016 30537.0311 -163.6648 -110.6054
TCL: Running FEP window  11: Lambda1 0.49999999999999994 Lambda2 0.5499999999999999 [dLambda 0.04999999999999999]
TCL: Setting parameter firsttimestep to 0
TCL: Setting parameter alchLambda to 0.49999999999999994
Info: NONBONDED TABLE R-SQUARED SPACING: 0.0625
Info: NONBONDED TABLE SIZE: 705 POINTS
TCL: Setting parameter alchLambda2 to 0.5499999999999999
Info: NONBONDED TABLE R-SQUARED SPACING: 0.0625
Info: NONBONDED TABLE SIZE: 705 POINTS
TCL: Running for 1500000 steps
ETITLE: TS BOND ANGLE DIHED IMPRP ELECT VDW BOUNDARY MISC KINETIC TOTAL TEMP POTENTIAL TOTALAVG TEMPAVG PRESSURE GPRESSURE VOLUME PRESSAVG GPRESSAVG
ENERGY: 0 3.1240 7.9219 3.0519 0.0000 -10651.7649 1345.2196 0.0000 0.0000 1762.6566 -7529.7910 298.7066 -9292.4475 -7529.7910 298.7066 -886.9956 -808.0405 30537.0311 -886.9956 -808.0405
ENERGY: 300000 2.2875 3.4227 1.8607 0.0000 -10783.7500 1441.1689 0.0000 0.0000 1771.8269 -7563.1833 300.2606 -9335.0102 -7518.6682 300.4249 -56.8702 43.9048 30448.9591 -94.1872 -12.2627
ENERGY: 600000 1.1397 6.6006 1.2487 0.0000 -10775.4877 1455.7551 0.0000 0.0000 1696.8471 -7613.8964 287.5542 -9310.7435 -7519.0388 298.1648 110.3577 157.0283 30239.5092 -66.4581 2.0007
ENERGY: 900000 1.7518 8.3294 3.0271 0.0000 -10687.3791 1349.1974 0.0000 0.0000 1776.8313 -7548.2421 301.1087 -9325.0734 -7517.1821 299.2212 -950.4511 -911.1630 30781.8457 -58.5383 17.5059
ENERGY: 1200000 2.2781 8.1574 3.4610 0.0000 -10715.5028 1418.8265 0.0000 0.0000 1819.7773 -7463.0026 308.3865 -9282.7799 -7500.9018 301.2664 -185.2959 -125.8840 30544.6987 -138.7852 -63.9376
ENERGY: 1500000 1.3664 8.1547 2.1979 0.0000 -10631.7910 1391.9608 0.0000 0.0000 1735.7568 -7492.3542 294.1480 -9228.1111 -7495.3357 301.0280 -348.8890 -320.6310 30612.4434 -197.0774 -126.3399
TCL: Running FEP window  12: Lambda1 0.5499999999999999 Lambda2 0.6    [dLambda 0.050000000000000044]
TCL: Setting parameter firsttimestep to 0
TCL: Setting parameter alchLambda to 0.5499999999999999
Info: NONBONDED TABLE R-SQUARED SPACING: 0.0625
Info: NONBONDED TABLE SIZE: 705 POINTS
TCL: Setting parameter alchLambda2 to 0.6
Info: NONBONDED TABLE R-SQUARED SPACING: 0.0625
Info: NONBONDED TABLE SIZE: 705 POINTS
TCL: Running for 1500000 steps
ETITLE: TS BOND ANGLE DIHED IMPRP ELECT VDW BOUNDARY MISC KINETIC TOTAL TEMP POTENTIAL TOTALAVG TEMPAVG PRESSURE GPRESSURE VOLUME PRESSAVG GPRESSAVG
ENERGY: 0 1.3664 8.1547 2.1979 0.0000 -10631.7191 1391.4578 0.0000 0.0000 1734.9006 -7493.6415 294.0029 -9228.5422 -7493.6415 294.0029 -405.3249 -319.0254 30612.4434 -405.3249 -319.0254
ENERGY: 300000 1.6807 5.3093 4.4059 0.0000 -10780.0051 1485.3107 0.0000 0.0000 1775.6322 -7507.6663 300.9055 -9283.2985 -7499.0850 297.8355 385.1097 496.2305 30420.1948 151.0243 234.8387
ENERGY: 600000 3.8492 9.3625 3.2765 0.0000 -10653.7839 1411.5672 0.0000 0.0000 1750.4804 -7475.2481 296.6431 -9225.7285 -7516.6429 297.7913 -82.4780 -62.6233 30557.0733 101.6823 175.0628
ENERGY: 900000 2.2461 5.9509 1.7734 0.0000 -10673.5934 1410.8782 0.0000 0.0000 1758.9139 -7493.8309 298.0723 -9252.7447 -7514.0894 298.9316 -527.6559 -486.0576 30926.9966 -9.7176 58.4517
ENERGY: 1200000 1.1016 3.5070 2.0230 0.0000 -10747.2323 1419.5120 0.0000 0.0000 1747.1282 -7573.9606 296.0751 -9321.0888 -7511.9381 298.7551 -420.3201 -426.6002 31026.0022 95.0018 164.1798
ENERGY: 1500000 2.4384 5.5241 4.7769 0.0000 -10925.8032 1525.3545 0.0000 0.0000 1806.5647 -7581.1446 306.1474 -9387.7093 -7526.4595 298.7832 406.8596 515.3920 30021.4624 175.9820 249.9819
TCL: Running FEP window  13: Lambda1 0.6    Lambda2 0.65   [dLambda 0.050000000000000044]
TCL: Setting parameter firsttimestep to 0
TCL: Setting parameter alchLambda to 0.6
Info: NONBONDED TABLE R-SQUARED SPACING: 0.0625
Info: NONBONDED TABLE SIZE: 705 POINTS
TCL: Setting parameter alchLambda2 to 0.65
Info: NONBONDED TABLE R-SQUARED SPACING: 0.0625
Info: NONBONDED TABLE SIZE: 705 POINTS
TCL: Running for 1500000 steps
ETITLE: TS BOND ANGLE DIHED IMPRP ELECT VDW BOUNDARY MISC KINETIC TOTAL TEMP POTENTIAL TOTALAVG TEMPAVG PRESSURE GPRESSURE VOLUME PRESSAVG GPRESSAVG
ENERGY: 0 2.4384 5.5241 4.7769 0.0000 -10925.6010 1525.7697 0.0000 0.0000 1805.6766 -7581.4153 305.9969 -9387.0919 -7581.4153 305.9969 438.1569 529.3349 30021.4624 438.1569 529.3349
ENERGY: 300000 3.4845 7.2108 4.5523 0.0000 -10794.8165 1465.0730 0.0000 0.0000 1757.8736 -7556.6224 297.8960 -9314.4959 -7509.6507 302.3853 145.7057 210.3740 30291.7618 0.5976 76.3341
ENERGY: 600000 3.9605 6.7455 1.3442 0.0000 -10782.9794 1448.0211 0.0000 0.0000 1753.2717 -7569.6364 297.1162 -9322.9080 -7537.3230 299.0005 -85.4645 -57.7016 30355.0322 96.8514 157.0895
ENERGY: 900000 3.2437 5.7476 2.2036 0.0000 -10736.6572 1424.9341 0.0000 0.0000 1760.5842 -7539.9438 298.3554 -9300.5281 -7535.6913 298.8964 -201.5342 -97.6122 30153.5986 -15.7018 45.2865
ENERGY: 1200000 2.0307 11.4983 3.1432 0.0000 -10901.7390 1524.9267 0.0000 0.0000 1793.3608 -7566.7793 303.9098 -9360.1401 -7541.6188 298.7265 543.6177 581.1330 30357.5909 12.9459 78.2020
ENERGY: 1500000 3.1177 10.8449 7.0049 0.0000 -10682.6697 1396.1954 0.0000 0.0000 1780.6557 -7484.8512 301.7568 -9265.5069 -7531.6995 299.2359 -286.8940 -256.9351 30292.0938 49.3232 109.3841
TCL: Running FEP window  14: Lambda1 0.65   Lambda2 0.7000000000000001 [dLambda 0.050000000000000044]
TCL: Setting parameter firsttimestep to 0
TCL: Setting parameter alchLambda to 0.65
Info: NONBONDED TABLE R-SQUARED SPACING: 0.0625
Info: NONBONDED TABLE SIZE: 705 POINTS
TCL: Setting parameter alchLambda2 to 0.7000000000000001
Info: NONBONDED TABLE R-SQUARED SPACING: 0.0625
Info: NONBONDED TABLE SIZE: 705 POINTS
TCL: Running for 1500000 steps
ETITLE: TS BOND ANGLE DIHED IMPRP ELECT VDW BOUNDARY MISC KINETIC TOTAL TEMP POTENTIAL TOTALAVG TEMPAVG PRESSURE GPRESSURE VOLUME PRESSAVG GPRESSAVG
ENERGY: 0 3.1177 10.8449 7.0049 0.0000 -10683.6324 1395.9754 0.0000 0.0000 1779.7978 -7486.8916 301.6114 -9266.6894 -7486.8916 301.6114 -346.6978 -254.3718 30292.0938 -346.6978 -254.3718
ENERGY: 300000 3.9024 7.2558 1.8639 0.0000 -10703.8545 1397.0502 0.0000 0.0000 1775.0233 -7518.7591 300.8023 -9293.7823 -7498.7938 301.9023 -665.0207 -573.6035 30605.1301 -483.3604 -401.2397
ENERGY: 600000 1.8401 3.8956 3.3366 0.0000 -10675.6460 1418.8831 0.0000 0.0000 1806.2552 -7441.4354 306.0950 -9247.6906 -7519.2213 302.7641 -84.8626 -78.8702 30694.8507 -452.1776 -387.4128
ENERGY: 900000 4.3672 11.5839 5.0410 0.0000 -10671.4547 1420.6077 0.0000 0.0000 1808.6136 -7421.2413 306.4946 -9229.8549 -7501.8254 303.3927 -401.2282 -308.0986 30916.2160 -402.6155 -330.5562
ENERGY: 1200000 1.1382 4.3451 3.1247 0.0000 -10878.0487 1547.5841 0.0000 0.0000 1781.1213 -7540.7353 301.8357 -9321.8566 -7513.4096 302.9688 728.1860 854.1663 30208.7381 -165.4087 -92.0704
ENERGY: 1500000 2.7595 5.7556 3.5433 0.0000 -10603.2864 1414.1931 0.0000 0.0000 1812.9591 -7364.0758 307.2310 -9177.0348 -7502.3088 303.3482 148.7005 222.0123 30513.3123 -69.8243 2.6653
TCL: Running FEP window  15: Lambda1 0.7000000000000001 Lambda2 0.7500000000000001 [dLambda 0.050000000000000044]
TCL: Setting parameter firsttimestep to 0
TCL: Setting parameter alchLambda to 0.7000000000000001
Info: NONBONDED TABLE R-SQUARED SPACING: 0.0625
Info: NONBONDED TABLE SIZE: 705 POINTS
TCL: Setting parameter alchLambda2 to 0.7500000000000001
Info: NONBONDED TABLE R-SQUARED SPACING: 0.0625
Info: NONBONDED TABLE SIZE: 705 POINTS
TCL: Running for 1500000 steps
ETITLE: TS BOND ANGLE DIHED IMPRP ELECT VDW BOUNDARY MISC KINETIC TOTAL TEMP POTENTIAL TOTALAVG TEMPAVG PRESSURE GPRESSURE VOLUME PRESSAVG GPRESSAVG
ENERGY: 0 2.7595 5.7556 3.5433 0.0000 -10604.2596 1413.7671 0.0000 0.0000 1812.1014 -7366.3325 307.0857 -9178.4340 -7366.3325 307.0857 142.3083 220.7902 30513.3123 142.3083 220.7902
ENERGY: 300000 1.7141 6.7702 2.9732 0.0000 -10830.9548 1500.1870 0.0000 0.0000 1774.1418 -7545.1685 300.6529 -9319.3103 -7511.4535 299.8242 356.8903 432.9640 30524.4429 -29.0037 53.0305
ENERGY: 600000 1.9583 8.0220 1.8232 0.0000 -10648.5665 1371.0255 0.0000 0.0000 1725.7723 -7539.9651 292.4560 -9265.7374 -7522.2515 297.9489 -579.8496 -526.9368 30723.2011 14.5397 86.3094
ENERGY: 900000 1.7565 5.3139 4.0706 0.0000 -10779.9085 1512.1951 0.0000 0.0000 1792.3463 -7464.2261 303.7379 -9256.5724 -7518.9886 298.3563 612.9372 639.2225 30464.8509 -91.6954 -43.4040
ENERGY: 1200000 2.7340 7.3841 2.4378 0.0000 -10761.6944 1456.3841 0.0000 0.0000 1802.5856 -7490.1688 305.4731 -9292.7544 -7507.4015 299.6977 -93.5363 54.5818 30539.7397 -215.0839 -155.2314
ENERGY: 1500000 3.4312 4.8624 5.4305 0.0000 -10652.8345 1337.5613 0.0000 0.0000 1816.9204 -7484.6288 307.9023 -9301.5492 -7506.4309 300.3290 -663.4561 -625.8953 30121.9063 -209.2119 -155.2190
TCL: Running FEP window  16: Lambda1 0.7500000000000001 Lambda2 0.8000000000000002 [dLambda 0.050000000000000044]
TCL: Setting parameter firsttimestep to 0
TCL: Setting parameter alchLambda to 0.7500000000000001
Info: NONBONDED TABLE R-SQUARED SPACING: 0.0625
Info: NONBONDED TABLE SIZE: 705 POINTS
TCL: Setting parameter alchLambda2 to 0.8000000000000002
Info: NONBONDED TABLE R-SQUARED SPACING: 0.0625
Info: NONBONDED TABLE SIZE: 705 POINTS
TCL: Running for 1500000 steps
ETITLE: TS BOND ANGLE DIHED IMPRP ELECT VDW BOUNDARY MISC KINETIC TOTAL TEMP POTENTIAL TOTALAVG TEMPAVG PRESSURE GPRESSURE VOLUME PRESSAVG GPRESSAVG
ENERGY: 0 3.4312 4.8624 5.4305 0.0000 -10653.9567 1338.3359 0.0000 0.0000 1816.0318 -7485.8649 307.7517 -9301.8967 -7485.8649 307.7517 -706.2184 -608.6776 30121.9063 -706.2184 -608.6776
ENERGY: 300000 4.9570 5.7536 1.6847 0.0000 -10760.6992 1487.8238 0.0000 0.0000 1770.0496 -7490.4306 299.9594 -9260.4801 -7526.6945 300.7924 266.1328 311.0800 30439.2613 -393.4835 -317.2030
ENERGY: 600000 1.9796 9.6467 1.8037 0.0000 -10717.2398 1373.6311 0.0000 0.0000 1755.4896 -7574.6891 297.4920 -9330.1786 -7527.0694 299.9582 -574.0813 -540.4186 30158.4075 -348.5967 -269.1556
ENERGY: 900000 2.6253 6.2547 4.1339 0.0000 -10681.6005 1440.5613 0.0000 0.0000 1749.9465 -7478.0787 296.5527 -9228.0252 -7514.8708 300.1011 -4.7523 49.9596 30740.4588 -263.0068 -184.4240
ENERGY: 1200000 1.0340 7.2276 4.2683 0.0000 -10738.3032 1424.3190 0.0000 0.0000 1805.0928 -7496.3616 305.8980 -9301.4544 -7519.6455 299.4848 -288.2535 -271.0562 30748.8376 -187.1883 -115.4800
ENERGY: 1500000 2.5999 5.6097 4.0956 0.0000 -10745.0383 1473.9289 0.0000 0.0000 1797.8334 -7460.9709 304.6678 -9258.8042 -7514.0680 299.6843 125.7608 174.0832 30909.1475 -195.9623 -136.3793
TCL: Running FEP window  17: Lambda1 0.8000000000000002 Lambda2 0.8500000000000002 [dLambda 0.050000000000000044]
TCL: Setting parameter firsttimestep to 0
TCL: Setting parameter alchLambda to 0.8000000000000002
Info: NONBONDED TABLE R-SQUARED SPACING: 0.0625
Info: NONBONDED TABLE SIZE: 705 POINTS
TCL: Setting parameter alchLambda2 to 0.8500000000000002
Info: NONBONDED TABLE R-SQUARED SPACING: 0.0625
Info: NONBONDED TABLE SIZE: 705 POINTS
TCL: Running for 1500000 steps
ETITLE: TS BOND ANGLE DIHED IMPRP ELECT VDW BOUNDARY MISC KINETIC TOTAL TEMP POTENTIAL TOTALAVG TEMPAVG PRESSURE GPRESSURE VOLUME PRESSAVG GPRESSAVG
ENERGY: 0 2.5999 5.6097 4.0956 0.0000 -10746.0435 1474.2686 0.0000 0.0000 1796.9257 -7462.5440 304.5139 -9259.4697 -7462.5440 304.5139 96.9154 187.6477 30909.1475 96.9154 187.6477
ENERGY: 300000 3.4698 7.2311 4.7860 0.0000 -10647.2348 1383.9152 0.0000 0.0000 1736.4615 -7511.3712 294.2674 -9247.8327 -7506.5147 302.0838 -230.0602 -189.0829 30515.0902 -102.8341 -37.8907
ENERGY: 600000 1.3283 5.8610 4.1090 0.0000 -10641.0205 1398.4746 0.0000 0.0000 1790.3197 -7440.9281 303.3945 -9231.2477 -7511.2046 301.3944 -385.2678 -355.4679 31070.6932 -14.4693 43.5088
ENERGY: 900000 2.8036 8.4700 1.3672 0.0000 -10747.0479 1420.2429 0.0000 0.0000 1810.8005 -7503.3635 306.8652 -9314.1640 -7501.6282 302.3279 -57.2112 58.2277 30325.5121 28.5423 91.2591
ENERGY: 1200000 3.0942 5.0542 3.4025 0.0000 -10996.1756 1610.4774 0.0000 0.0000 1802.8505 -7571.2968 305.5180 -9374.1473 -7506.1503 302.1932 1034.3490 1056.9199 30470.2677 83.3201 147.3035
ENERGY: 1500000 3.0274 8.5582 1.3779 0.0000 -10833.4594 1459.5484 0.0000 0.0000 1826.4556 -7534.4919 309.5182 -9360.9475 -7517.4149 302.0906 -147.1742 -140.3180 30772.7792 51.3843 106.5600
TCL: Running FEP window  18: Lambda1 0.8500000000000002 Lambda2 0.9000000000000002 [dLambda 0.050000000000000044]
TCL: Setting parameter firsttimestep to 0
TCL: Setting parameter alchLambda to 0.8500000000000002
Info: NONBONDED TABLE R-SQUARED SPACING: 0.0625
Info: NONBONDED TABLE SIZE: 705 POINTS
TCL: Setting parameter alchLambda2 to 0.9000000000000002
Info: NONBONDED TABLE R-SQUARED SPACING: 0.0625
Info: NONBONDED TABLE SIZE: 705 POINTS
TCL: Running for 1500000 steps
ETITLE: TS BOND ANGLE DIHED IMPRP ELECT VDW BOUNDARY MISC KINETIC TOTAL TEMP POTENTIAL TOTALAVG TEMPAVG PRESSURE GPRESSURE VOLUME PRESSAVG GPRESSAVG
ENERGY: 0 3.0274 8.5582 1.3779 0.0000 -10835.2906 1460.8113 0.0000 0.0000 1825.5579 -7535.9578 309.3661 -9361.5157 -7535.9578 309.3661 -197.0286 -124.3149 30772.7792 -197.0286 -124.3149
ENERGY: 300000 3.3011 4.8891 2.7911 0.0000 -10718.8937 1388.4527 0.0000 0.0000 1776.4591 -7543.0008 301.0456 -9319.4598 -7528.7150 304.8152 -1.0754 70.3871 29796.7632 122.5504 189.0487
ENERGY: 600000 3.7730 3.0689 1.7093 0.0000 -10925.0192 1575.7286 0.0000 0.0000 1698.5792 -7642.1602 287.8478 -9340.7394 -7550.0241 300.1709 879.8456 911.4342 30312.9709 198.9065 253.5889
ENERGY: 900000 2.8940 4.0100 4.5155 0.0000 -10671.1239 1348.5018 0.0000 0.0000 1763.6777 -7547.5250 298.8796 -9311.2026 -7528.9440 300.3799 -951.0701 -866.5434 31012.5799 -13.3761 48.3894
ENERGY: 1200000 3.1123 8.4463 3.7334 0.0000 -10659.3036 1383.1337 0.0000 0.0000 1680.6658 -7580.2122 284.8121 -9260.8779 -7523.5745 299.2987 -405.5891 -371.3526 30544.4632 6.9319 68.9818
ENERGY: 1500000 2.2778 5.2990 4.6866 0.0000 -10852.5368 1460.4278 0.0000 0.0000 1774.2508 -7605.5947 300.6714 -9379.8456 -7534.1083 299.4792 -154.6017 -129.0240 30630.5336 -47.0364 17.5028
TCL: Running FEP window  19: Lambda1 0.9000000000000002 Lambda2 0.9500000000000003 [dLambda 0.050000000000000044]
TCL: Setting parameter firsttimestep to 0
TCL: Setting parameter alchLambda to 0.9000000000000002
Info: NONBONDED TABLE R-SQUARED SPACING: 0.0625
Info: NONBONDED TABLE SIZE: 705 POINTS
TCL: Setting parameter alchLambda2 to 0.9500000000000003
Info: NONBONDED TABLE R-SQUARED SPACING: 0.0625
Info: NONBONDED TABLE SIZE: 705 POINTS
TCL: Running for 1500000 steps
ETITLE: TS BOND ANGLE DIHED IMPRP ELECT VDW BOUNDARY MISC KINETIC TOTAL TEMP POTENTIAL TOTALAVG TEMPAVG PRESSURE GPRESSURE VOLUME PRESSAVG GPRESSAVG
ENERGY: 0 2.2778 5.2990 4.6866 0.0000 -10853.8410 1461.3324 0.0000 0.0000 1773.3873 -7606.8579 300.5250 -9380.2452 -7606.8579 300.5250 -194.8478 -110.9416 30630.5336 -194.8478 -110.9416
ENERGY: 300000 3.8492 8.6037 2.4286 0.0000 -10689.1151 1391.1123 0.0000 0.0000 1744.2781 -7538.8432 295.5921 -9283.1213 -7542.5773 298.0131 -427.9270 -350.6470 30637.5101 -297.4988 -229.6721
ENERGY: 600000 2.0236 5.1879 5.1860 0.0000 -10774.4241 1500.9297 0.0000 0.0000 1790.4363 -7470.6607 303.4142 -9261.0969 -7508.1051 300.6753 470.4091 552.5920 30469.8495 -58.7088 7.3265
ENERGY: 900000 2.1460 5.5213 4.2545 0.0000 -10735.5472 1486.0719 0.0000 0.0000 1741.6857 -7495.8679 295.1528 -9237.5536 -7510.2939 299.9043 360.9126 458.2334 30798.1060 7.2759 81.6152
ENERGY: 1200000 3.8811 8.3369 4.8416 0.0000 -10640.7308 1401.5434 0.0000 0.0000 1773.7340 -7448.3938 300.5838 -9222.1278 -7495.0999 300.4140 -306.6238 -191.4295 30796.3276 -53.9297 23.3317
ENERGY: 1500000 2.5880 7.4417 5.0877 0.0000 -10607.7297 1357.3161 0.0000 0.0000 1733.2046 -7502.0916 293.7155 -9235.2962 -7496.8163 300.0271 -652.7296 -623.6859 30789.8900 -151.7723 -80.1069
TCL: Running FEP window  20: Lambda1 0.9500000000000003 Lambda2 1.0    [dLambda 0.04999999999999971]
TCL: Setting parameter firsttimestep to 0
TCL: Setting parameter alchLambda to 0.9500000000000003
Info: NONBONDED TABLE R-SQUARED SPACING: 0.0625
Info: NONBONDED TABLE SIZE: 705 POINTS
TCL: Setting parameter alchLambda2 to 1.0
Info: NONBONDED TABLE R-SQUARED SPACING: 0.0625
Info: NONBONDED TABLE SIZE: 705 POINTS
TCL: Running for 1500000 steps
ETITLE: TS BOND ANGLE DIHED IMPRP ELECT VDW BOUNDARY MISC KINETIC TOTAL TEMP POTENTIAL TOTALAVG TEMPAVG PRESSURE GPRESSURE VOLUME PRESSAVG GPRESSAVG
ENERGY: 0 2.5880 7.4417 5.0877 0.0000 -10610.2028 1360.7650 0.0000 0.0000 1732.3580 -7501.9624 293.5720 -9234.3204 -7501.9624 293.5720 -664.7529 -576.4380 30789.8900 -664.7529 -576.4380
ENERGY: 300000 3.4461 9.1958 1.2824 0.0000 -10736.0617 1422.5927 0.0000 0.0000 1733.0961 -7566.4486 293.6971 -9299.5447 -7524.5985 298.6194 -209.9387 -167.0596 30612.2595 -130.6755 -79.3898
ENERGY: 600000 5.1501 5.9710 3.2115 0.0000 -10809.8677 1440.8642 0.0000 0.0000 1762.2470 -7592.4239 298.6372 -9354.6709 -7538.6065 299.3425 -263.3997 -163.2435 30216.7643 -122.8901 -85.0648
ENERGY: 900000 2.7775 5.1368 3.9261 0.0000 -10736.9659 1463.7009 0.0000 0.0000 1795.3258 -7466.0988 304.2428 -9261.4246 -7521.9277 300.5210 322.0760 436.3576 30336.1901 -20.0509 27.4741
ENERGY: 1200000 2.9217 5.2421 5.6851 0.0000 -10816.5707 1440.8447 0.0000 0.0000 1738.3507 -7623.5264 294.5876 -9361.8770 -7521.4201 301.0836 -237.1953 -204.8247 30502.1668 -48.2638 -1.6660
ENERGY: 1500000 4.1088 6.3598 3.9561 0.0000 -10650.3933 1380.0154 0.0000 0.0000 1751.1642 -7504.7889 296.7590 -9255.9531 -7524.8455 300.1121 -790.8173 -689.7037 31046.0652 -76.4871 -25.6149
TCL: Exiting due to exit command.
