Info: SIMULATION PARAMETERS:
Info: TIMESTEP               2
Info: NUMBER OF STEPS        0
Info: STEPS PER CYCLE        10
Info: PERIODIC CELL BASIS 1  32.6848 0 0
Info: PERIODIC CELL BASIS 2  0 32.0845 0
Info: PERIODIC CELL BASIS 3  0 0 29.2846
Info: PERIODIC CELL CENTER   0 0 0
Info: WRAPPING WATERS AROUND PERIODIC BOUNDARIES ON OUTPUT.
Info: WRAPPING ALL CLUSTERS AROUND PERIODIC BOUNDARIES ON OUTPUT.
Info: FIRST LDB TIMESTEP     50
Info: LAST LDB TIMESTEP     -1
Info: HOM BACKGROUND SCALING 1
Info: PME BACKGROUND SCALING 1
Info: MIN ATOMS PER PATCH    40
Info: EMPTY PATCH LOAD       40 ATOMS
Info: VELOCITY FILE          mobley_5665561_equil.vel
Info: CENTER OF MASS MOVING INITIALLY? NO
Info: DIELECTRIC             1
Info: EXCLUDE                SCALED ONE-FOUR
Info: 1-4 ELECTROSTATICS SCALED BY 0.833333
Info: MODIFIED 1-4 VDW PARAMETERS WILL BE USED
Info: DCD FILENAME           mobley_5665561_prod.dcd
Info: DCD FREQUENCY          100000
Info: DCD FIRST STEP         100000
Info: DCD FILE WILL CONTAIN UNIT CELL DATA
Info: XST FILENAME           mobley_5665561_prod.xst
Info: XST FREQUENCY          100000
Info: NO VELOCITY DCD OUTPUT
Info: NO FORCE DCD OUTPUT
Info: OUTPUT FILENAME        mobley_5665561_prod
Info: BINARY OUTPUT FILES WILL BE USED
Info: RESTART FILENAME       mobley_5665561_prod.restart
Info: RESTART FREQUENCY      100000
Info: BINARY RESTART FILES WILL BE USED
Info: CUTOFF                 9
Info: PAIRLIST DISTANCE      11
Info: PAIRLIST SHRINK RATE   0.01
Info: PAIRLIST GROW RATE     0.01
Info: PAIRLIST TRIGGER       0.3
Info: PAIRLISTS PER CYCLE    2
Info: PAIRLISTS ENABLED
Info: MARGIN                 2
Info: HYDROGEN GROUP CUTOFF  2.5
Info: PATCH DIMENSION        15.5
Info: ENERGY OUTPUT STEPS    100000
Info: ENERGY EVALUATION STEPS    100000
Info: OUTPUT ENERGY PRECISION 4
Info: CROSSTERM ENERGY INCLUDED IN DIHEDRAL
Info: TIMING OUTPUT STEPS    1000000
Info: PRESSURE OUTPUT STEPS  100000
Info: ALCHEMICAL FEP ON
Info: FEP CURRENT LAMBDA VALUE     1
Info: FEP COMPARISON LAMBDA VALUE  0.95
Info: FEP INTRA-ALCHEMICAL NON-BONDED INTERACTIONS WILL BE RETAINED
Info: FEP INTRA-ALCHEMICAL BONDED INTERACTIONS WILL BE RETAINED
Info: FEP VDW SHIFTING COEFFICIENT 5
Info: FEP ELEC. ACTIVE FOR ANNIHILATED PARTICLES BETWEEN LAMBDA = 0 AND LAMBDA = 0.5
Info: FEP ELEC. ACTIVE FOR EXNIHILATED PARTICLES BETWEEN LAMBDA = 0.5 AND LAMBDA = 1
Info: FEP VDW ACTIVE FOR ANNIHILATED PARTICLES BETWEEN LAMBDA = 0 AND LAMBDA = 1
Info: FEP VDW ACTIVE FOR EXNIHILATED PARTICLES BETWEEN LAMBDA = 0 AND LAMBDA = 1
Info: FEP BOND ACTIVE FOR ANNIHILATED PARTICLES BETWEEN LAMBDA = 1 AND LAMBDA = 1
Info: FEP BOND ACTIVE FOR EXNIHILATED PARTICLES BETWEEN LAMBDA = 0 AND LAMBDA = 0
Info: LANGEVIN DYNAMICS ACTIVE
Info: LANGEVIN TEMPERATURE   300
Info: LANGEVIN USING BBK INTEGRATOR
Info: LANGEVIN DAMPING COEFFICIENT IS 1 INVERSE PS
Info: LANGEVIN DYNAMICS APPLIED TO HYDROGENS
Info: LANGEVIN PISTON PRESSURE CONTROL ACTIVE
Info:        TARGET PRESSURE IS 1.01325 BAR
Info:     OSCILLATION PERIOD IS 50 FS
Info:             DECAY TIME IS 25 FS
Info:     PISTON TEMPERATURE IS 300 K
Info:       PRESSURE CONTROL IS GROUP-BASED
Info:    INITIAL STRAIN RATE IS 0.000152241 0.000152241 0.000152241
Info:       CELL FLUCTUATION IS ISOTROPIC
Info: PARTICLE MESH EWALD (PME) ACTIVE
Info: PME TOLERANCE               1e-06
Info: PME EWALD COEFFICIENT       0.348832
Info: PME INTERPOLATION ORDER     4
Info: PME GRID DIMENSIONS         36 36 32
Info: PME MAXIMUM GRID SPACING    1
Info: PME CALCULATION WILL BE PERFORMED ON GPU
Info: FULL ELECTROSTATIC EVALUATION FREQUENCY      2
Info: USING VERLET I (r-RESPA) MTS SCHEME.
Info: C1 SPLITTING OF LONG RANGE ELECTROSTATICS
Info: PLACING ATOMS IN PATCHES BY HYDROGEN GROUPS
Info: RIGID BONDS TO HYDROGEN : ALL
Info:         ERROR TOLERANCE : 1e-08
Info:          MAX ITERATIONS : 100
Info: RIGID WATER USING SETTLE ALGORITHM
Info: RANDOM NUMBER SEED     1743652397
Info: USE HYDROGEN BONDS?    NO
Info: Using AMBER format force field!
Info: AMBER PARM FILE        mobley_5665561.prmtop
Info: COORDINATE PDB         mobley_5665561.pdb
Info: Exclusions will be read from PARM file!
Info: SCNB (VDW SCALING)     2
Info: USING ARITHMETIC MEAN TO COMBINE L-J SIGMA PARAMETERS
Info: BINARY COORDINATES     mobley_5665561_equil.coor
Info: SUMMARY OF PARAMETERS:
Info: 6 BONDS
Info: 5 ANGLES
Info:   5 HARMONIC
Info:   0 COSINE-BASED
Info: 3 DIHEDRAL
Info: 0 IMPROPER
Info: 0 CROSSTERM
Info: 0 VDW
Info: 21 VDW_PAIRS
Info: 0 NBTHOLE_PAIRS
Info: To read alchdata from file: mobley_5665561.pdb
Info: To read alchflag data from column: 5
Info: STRUCTURE SUMMARY:
Info: 2946 ATOMS
Info: 2947 BONDS
Info: 42 ANGLES
Info: 66 DIHEDRALS
Info: 0 IMPROPERS
Info: 0 CROSSTERMS
Info: 3039 EXCLUSIONS
Info: 2934 RIGID BONDS
Info: ALCH: 0 ATOMS TO DISAPPEAR IN FINAL STATE
Info: ALCH: 24 ATOMS TO APPEAR IN FINAL STATE
Info: 5904 DEGREES OF FREEDOM
Info: 986 HYDROGEN GROUPS
Info: 4 ATOMS IN LARGEST HYDROGEN GROUP
Info: 986 MIGRATION GROUPS
Info: 4 ATOMS IN LARGEST MIGRATION GROUP
Info: TOTAL MASS = 17703.8 amu
Info: TOTAL CHARGE = -1.86265e-08 e
Info: MASS DENSITY = 0.957293 g/cm^3
Info: ATOM DENSITY = 0.0959294 atoms/A^3
Info: ADDED 0 IMPLICIT EXCLUSIONS
Info: NONBONDED TABLE R-SQUARED SPACING: 0.0625
Info: NONBONDED TABLE SIZE: 705 POINTS
Info: REDUCING NUMBER OF PATCHES TO IMPROVE LOAD BALANCE
Info: REMOVING COM VELOCITY -0.0803127 -0.127216 0.0171404
Info: Use 3D box decompostion in PME FFT.
Info: Updated CUDA force table with 4096 elements.
Info: Updated CUDA LJ table with 6 x 6 elements.
Info: Found 23 unique exclusion lists needing 76 bytes
TCL: Running for 1500000 steps
ETITLE: TS BOND ANGLE DIHED IMPRP ELECT VDW BOUNDARY MISC KINETIC TOTAL TEMP POTENTIAL TOTALAVG TEMPAVG PRESSURE GPRESSURE VOLUME PRESSAVG GPRESSAVG
ENERGY: 0 3.4187 10.1733 5.9592 0.0000 -10692.3744 1489.5327 0.0000 0.0000 1764.4174 -7418.8731 300.7775 -9183.2905 -7418.8731 300.7775 300.2151 380.8075 30710.0723 300.2151 380.8075
ENERGY: 300000 5.6105 8.5522 5.0877 0.0000 -10600.5527 1398.3828 0.0000 0.0000 1696.6521 -7486.2675 289.2257 -9182.9196 -7439.9130 298.6128 -327.3156 -245.0212 30495.6622 -184.3031 -116.0891
ENERGY: 600000 4.8242 8.0045 2.9804 0.0000 -10514.3373 1387.9079 0.0000 0.0000 1766.3093 -7344.3111 301.1000 -9110.6203 -7422.4947 298.1086 -158.0769 -108.0602 30602.9803 -161.9970 -101.9825
ENERGY: 900000 2.1864 5.7812 3.5060 0.0000 -10714.7210 1443.2459 0.0000 0.0000 1760.0693 -7499.9321 300.0363 -9260.0015 -7426.4638 298.9170 -139.3737 -45.8722 30559.3916 -129.7324 -62.9112
ENERGY: 1200000 5.4848 9.7086 4.9484 0.0000 -10501.2635 1358.7581 0.0000 0.0000 1762.2265 -7360.1370 300.4040 -9122.3635 -7420.9852 300.2868 -721.8575 -697.4670 30818.6387 -137.1113 -77.2575
ENERGY: 1500000 1.5908 5.6264 3.5570 0.0000 -10750.3818 1497.5738 0.0000 0.0000 1722.3135 -7519.7203 293.6001 -9242.0339 -7429.6408 299.5243 382.9693 493.7141 30223.5889 -101.1837 -38.4920
TCL: Running FEP window   2: Lambda1 0.95   Lambda2 0.8999999999999999 [dLambda -0.050000000000000044]
TCL: Setting parameter firsttimestep to 0
TCL: Setting parameter alchLambda to 0.95
Info: NONBONDED TABLE R-SQUARED SPACING: 0.0625
Info: NONBONDED TABLE SIZE: 705 POINTS
TCL: Setting parameter alchLambda2 to 0.8999999999999999
Info: NONBONDED TABLE R-SQUARED SPACING: 0.0625
Info: NONBONDED TABLE SIZE: 705 POINTS
TCL: Running for 1500000 steps
ETITLE: TS BOND ANGLE DIHED IMPRP ELECT VDW BOUNDARY MISC KINETIC TOTAL TEMP POTENTIAL TOTALAVG TEMPAVG PRESSURE GPRESSURE VOLUME PRESSAVG GPRESSAVG
ENERGY: 0 1.5908 5.6264 3.5570 0.0000 -10749.2884 1497.2489 0.0000 0.0000 1721.4565 -7519.8088 293.4540 -9241.2653 -7519.8088 293.4540 397.4053 471.6393 30223.5889 397.4053 471.6393
ENERGY: 300000 6.8978 5.9516 4.3129 0.0000 -10785.4042 1586.6481 0.0000 0.0000 1756.0708 -7425.5229 299.3547 -9181.5937 -7471.0721 298.9172 1388.7099 1393.6401 30110.7118 598.5885 653.6889
ENERGY: 600000 3.1554 5.8308 6.2805 0.0000 -10470.5606 1332.6217 0.0000 0.0000 1745.5201 -7377.1521 297.5561 -9122.6722 -7425.3087 300.2644 -545.4790 -505.1570 30480.8583 148.8138 205.2499
ENERGY: 900000 5.8424 6.7451 5.6902 0.0000 -10568.7691 1383.6817 0.0000 0.0000 1728.9540 -7437.8555 294.7321 -9166.8096 -7434.3399 299.0333 -445.2691 -300.0058 30510.4806 140.1632 213.2704
ENERGY: 1200000 6.3205 9.4289 9.3709 0.0000 -10736.0856 1476.5491 0.0000 0.0000 1806.9267 -7427.4895 308.0240 -9234.4162 -7432.7276 299.6050 446.7077 530.2224 30209.7460 56.7661 134.8099
ENERGY: 1500000 5.6925 6.1857 1.9859 0.0000 -10847.7443 1534.3617 0.0000 0.0000 1748.0261 -7551.4924 297.9833 -9299.5185 -7441.9154 299.6203 659.2976 704.8259 29815.8136 114.7929 194.1299
TCL: Running FEP window   3: Lambda1 0.8999999999999999 Lambda2 0.8499999999999999 [dLambda -0.050000000000000044]
TCL: Setting parameter firsttimestep to 0
TCL: Setting parameter alchLambda to 0.8999999999999999
Info: NONBONDED TABLE R-SQUARED SPACING: 0.0625
Info: NONBONDED TABLE SIZE: 705 POINTS
TCL: Setting parameter alchLambda2 to 0.8499999999999999
Info: NONBONDED TABLE R-SQUARED SPACING: 0.0625
Info: NONBONDED TABLE SIZE: 705 POINTS
TCL: Running for 1500000 steps
ETITLE: TS BOND ANGLE DIHED IMPRP ELECT VDW BOUNDARY MISC KINETIC TOTAL TEMP POTENTIAL TOTALAVG TEMPAVG PRESSURE GPRESSURE VOLUME PRESSAVG GPRESSAVG
ENERGY: 0 5.6925 6.1856 1.9859 0.0000 -10846.6314 1534.9818 0.0000 0.0000 1747.1451 -7550.6405 297.8331 -9297.7856 -7550.6405 297.8331 610.7281 701.5308 29815.8136 610.7281 701.5308
ENERGY: 300000 2.9360 9.1537 6.8050 0.0000 -10556.7074 1364.4477 0.0000 0.0000 1809.5422 -7363.8229 308.4699 -9173.3651 -7422.3225 304.2853 -577.0702 -519.0616 30739.9487 -153.4151 -62.2104
ENERGY: 600000 4.7637 11.2401 3.4816 0.0000 -10529.9952 1306.8137 0.0000 0.0000 1791.5956 -7412.1004 305.4105 -9203.6960 -7431.5657 303.6297 -1144.6837 -1145.6495 30737.8715 -306.1377 -236.3283
ENERGY: 900000 2.7268 5.1946 3.5113 0.0000 -10667.1373 1441.8765 0.0000 0.0000 1783.9270 -7429.9011 304.1033 -9213.8281 -7428.9329 303.4712 -90.4002 -37.6017 30616.6124 -299.7482 -231.7410
ENERGY: 1200000 3.0456 9.3901 5.3394 0.0000 -10756.5254 1471.7247 0.0000 0.0000 1801.0893 -7465.9363 307.0289 -9267.0256 -7435.2645 303.8234 456.9724 529.2520 29916.2000 -231.6426 -164.2731
ENERGY: 1500000 4.0255 9.9926 4.9452 0.0000 -10381.6824 1297.4920 0.0000 0.0000 1752.6384 -7312.5886 298.7696 -9065.2270 -7433.1926 301.8398 -586.6259 -573.0409 30637.4366 -260.0700 -196.8454
TCL: Running FEP window   4: Lambda1 0.8499999999999999 Lambda2 0.7999999999999998 [dLambda -0.050000000000000044]
TCL: Setting parameter firsttimestep to 0
TCL: Setting parameter alchLambda to 0.8499999999999999
Info: NONBONDED TABLE R-SQUARED SPACING: 0.0625
Info: NONBONDED TABLE SIZE: 705 POINTS
TCL: Setting parameter alchLambda2 to 0.7999999999999998
Info: NONBONDED TABLE R-SQUARED SPACING: 0.0625
Info: NONBONDED TABLE SIZE: 705 POINTS
TCL: Running for 1500000 steps
ETITLE: TS BOND ANGLE DIHED IMPRP ELECT VDW BOUNDARY MISC KINETIC TOTAL TEMP POTENTIAL TOTALAVG TEMPAVG PRESSURE GPRESSURE VOLUME PRESSAVG GPRESSAVG
ENERGY: 0 4.0255 9.9926 4.9452 0.0000 -10380.5228 1297.8988 0.0000 0.0000 1751.7589 -7311.9018 298.6196 -9063.6607 -7311.9018 298.6196 -662.8174 -583.3722 30637.4366 -662.8174 -583.3722
ENERGY: 300000 3.8614 7.5097 5.9048 0.0000 -10596.0892 1378.5781 0.0000 0.0000 1722.3337 -7477.9016 293.6036 -9200.2353 -7379.5822 298.1311 -458.6266 -380.2371 30521.9857 -374.9763 -304.3861
ENERGY: 600000 3.8465 6.3874 2.7102 0.0000 -10731.5890 1497.8274 0.0000 0.0000 1742.7974 -7478.0202 297.0920 -9220.8176 -7401.0873 299.1297 515.7202 587.9162 30041.0162 -212.2501 -140.8029
ENERGY: 900000 4.1481 9.2235 8.0054 0.0000 -10565.9050 1410.2306 0.0000 0.0000 1700.8545 -7433.4429 289.9420 -9134.2974 -7404.7332 298.4294 -308.0281 -262.0902 30704.5445 -238.6109 -182.1347
ENERGY: 1200000 3.0600 6.7602 9.5219 0.0000 -10628.9798 1420.8795 0.0000 0.0000 1769.1601 -7419.5981 301.5860 -9188.7582 -7402.2139 299.6608 -212.1364 -63.3885 30494.7104 -229.6431 -161.8537
ENERGY: 1500000 4.9121 8.0858 4.0857 0.0000 -10595.9070 1403.9766 0.0000 0.0000 1748.4359 -7426.4109 298.0532 -9174.8468 -7402.2394 299.9505 -136.7059 -72.6737 30056.3427 -194.0768 -125.0075
TCL: Running FEP window   5: Lambda1 0.7999999999999998 Lambda2 0.7499999999999998 [dLambda -0.050000000000000044]
TCL: Setting parameter firsttimestep to 0
TCL: Setting parameter alchLambda to 0.7999999999999998
Info: NONBONDED TABLE R-SQUARED SPACING: 0.0625
Info: NONBONDED TABLE SIZE: 705 POINTS
TCL: Setting parameter alchLambda2 to 0.7499999999999998
Info: NONBONDED TABLE R-SQUARED SPACING: 0.0625
Info: NONBONDED TABLE SIZE: 705 POINTS
TCL: Running for 1500000 steps
ETITLE: TS BOND ANGLE DIHED IMPRP ELECT VDW BOUNDARY MISC KINETIC TOTAL TEMP POTENTIAL TOTALAVG TEMPAVG PRESSURE GPRESSURE VOLUME PRESSAVG GPRESSAVG
ENERGY: 0 4.9121 8.0858 4.0857 0.0000 -10594.9188 1404.0053 0.0000 0.0000 1747.5999 -7426.2301 297.9107 -9173.8300 -7426.2301 297.9107 -162.8400 -85.1105 30056.3427 -162.8400 -85.1105
ENERGY: 300000 5.1795 8.7566 4.2508 0.0000 -10536.5812 1370.6181 0.0000 0.0000 1817.1293 -7330.6468 309.7632 -9147.7761 -7345.7732 302.7609 -563.1477 -536.3836 30862.8290 -209.1394 -157.0096
ENERGY: 600000 5.3647 9.9627 3.7982 0.0000 -10613.1843 1496.8659 0.0000 0.0000 1742.2956 -7354.8972 297.0064 -9097.1927 -7377.1475 302.1815 638.8543 711.7935 30359.8342 -40.9035 13.2783
ENERGY: 900000 3.9184 9.3785 2.4305 0.0000 -10583.0703 1408.6246 0.0000 0.0000 1754.4230 -7404.2954 299.0738 -9158.7184 -7381.1532 301.7468 -421.1320 -407.1677 30978.6537 -141.8164 -80.8287
ENERGY: 1200000 4.1120 11.2230 4.2388 0.0000 -10624.6994 1475.9096 0.0000 0.0000 1727.7688 -7401.4473 294.5301 -9129.2161 -7395.2082 301.0210 492.9665 635.7233 30054.4941 -109.4151 -37.9735
ENERGY: 1500000 4.3000 8.8697 6.4415 0.0000 -10626.3281 1465.4487 0.0000 0.0000 1751.0294 -7390.2388 298.4953 -9141.2682 -7403.2492 300.5878 213.1509 223.1765 30448.8038 -6.0909 61.1482
TCL: Running FEP window   6: Lambda1 0.7499999999999998 Lambda2 0.6999999999999997 [dLambda -0.050000000000000044]
TCL: Setting parameter firsttimestep to 0
TCL: Setting parameter alchLambda to 0.7499999999999998
Info: NONBONDED TABLE R-SQUARED SPACING: 0.0625
Info: NONBONDED TABLE SIZE: 705 POINTS
TCL: Setting parameter alchLambda2 to 0.6999999999999997
Info: NONBONDED TABLE R-SQUARED SPACING: 0.0625
Info: NONBONDED TABLE SIZE: 705 POINTS
TCL: Running for 1500000 steps
ETITLE: TS BOND ANGLE DIHED IMPRP ELECT VDW BOUNDARY MISC KINETIC TOTAL TEMP POTENTIAL TOTALAVG TEMPAVG PRESSURE GPRESSURE VOLUME PRESSAVG GPRESSAVG
ENERGY: 0 4.3000 8.8697 6.4415 0.0000 -10625.9516 1466.0071 0.0000 0.0000 1750.1339 -7390.1993 298.3426 -9140.3333 -7390.1993 298.3426 130.4323 218.1703 30448.8038 130.4323 218.1703
ENERGY: 300000 3.0784 5.4797 2.7006 0.0000 -10717.6998 1484.3870 0.0000 0.0000 1729.2637 -7492.7905 294.7849 -9222.0542 -7432.0942 297.3096 315.1013 393.8018 30458.7356 68.1883 137.0818
ENERGY: 600000 6.7749 5.5493 2.9535 0.0000 -10664.1275 1458.4448 0.0000 0.0000 1707.6797 -7482.7253 291.1055 -9190.4050 -7425.4456 297.9802 139.7720 160.1811 30114.5253 160.6784 215.7530
ENERGY: 900000 4.6345 6.6718 5.0504 0.0000 -10764.2956 1484.3174 0.0000 0.0000 1731.9325 -7531.6890 295.2399 -9263.6215 -7437.6289 297.8177 287.9608 322.5431 30185.3168 166.5830 220.7893
ENERGY: 1200000 5.5510 9.8691 3.0252 0.0000 -10606.5768 1392.8884 0.0000 0.0000 1710.8674 -7484.3758 291.6489 -9195.2431 -7449.2894 296.2454 -417.6813 -362.2298 30492.0713 28.1044 87.5746
ENERGY: 1500000 2.9887 7.1247 2.5055 0.0000 -10637.4520 1440.6973 0.0000 0.0000 1816.0830 -7368.0527 309.5849 -9184.1358 -7444.4241 297.6360 306.1887 283.4061 30303.1804 52.4013 107.6538
TCL: Running FEP window   7: Lambda1 0.6999999999999997 Lambda2 0.6499999999999997 [dLambda -0.050000000000000044]
TCL: Setting parameter firsttimestep to 0
TCL: Setting parameter alchLambda to 0.6999999999999997
Info: NONBONDED TABLE R-SQUARED SPACING: 0.0625
Info: NONBONDED TABLE SIZE: 705 POINTS
TCL: Setting parameter alchLambda2 to 0.6499999999999997
Info: NONBONDED TABLE R-SQUARED SPACING: 0.0625
Info: NONBONDED TABLE SIZE: 705 POINTS
TCL: Running for 1500000 steps
ETITLE: TS BOND ANGLE DIHED IMPRP ELECT VDW BOUNDARY MISC KINETIC TOTAL TEMP POTENTIAL TOTALAVG TEMPAVG PRESSURE GPRESSURE VOLUME PRESSAVG GPRESSAVG
ENERGY: 0 2.9887 7.1247 2.5055 0.0000 -10637.0777 1440.8020 0.0000 0.0000 1815.1711 -7368.4858 309.4294 -9183.6568 -7368.4858 309.4294 191.2259 273.1553 30303.1804 191.2259 273.1553
ENERGY: 300000 3.3358 13.6275 5.7930 0.0000 -10601.2184 1410.2307 0.0000 0.0000 1818.3962 -7349.8352 309.9792 -9168.2314 -7384.0410 306.4396 -105.4277 -86.0749 30336.2883 409.0789 491.1041
ENERGY: 600000 4.2237 8.9050 3.3256 0.0000 -10720.2166 1519.8974 0.0000 0.0000 1695.6415 -7488.2235 289.0534 -9183.8650 -7417.5506 302.8031 1023.1981 1068.8448 29840.3495 352.5177 419.3940
ENERGY: 900000 5.6109 13.9267 3.7183 0.0000 -10667.6160 1464.7471 0.0000 0.0000 1792.0593 -7387.5538 305.4896 -9179.6131 -7405.1979 303.3334 304.6991 325.9668 30507.4262 317.7320 384.0456
ENERGY: 1200000 6.0028 8.5277 4.3720 0.0000 -10608.7244 1414.5275 0.0000 0.0000 1723.6966 -7451.5979 293.8359 -9175.2945 -7403.0911 303.2522 24.5816 76.7629 30093.2242 235.2512 300.2140
ENERGY: 1500000 3.6958 7.7285 6.5645 0.0000 -10811.1932 1544.0817 0.0000 0.0000 1750.8714 -7498.2512 298.4684 -9249.1226 -7418.3895 302.6332 552.7003 595.7422 30257.6115 137.4587 196.8956
TCL: Running FEP window   8: Lambda1 0.6499999999999997 Lambda2 0.5999999999999996 [dLambda -0.050000000000000044]
TCL: Setting parameter firsttimestep to 0
TCL: Setting parameter alchLambda to 0.6499999999999997
Info: NONBONDED TABLE R-SQUARED SPACING: 0.0625
Info: NONBONDED TABLE SIZE: 705 POINTS
TCL: Setting parameter alchLambda2 to 0.5999999999999996
Info: NONBONDED TABLE R-SQUARED SPACING: 0.0625
Info: NONBONDED TABLE SIZE: 705 POINTS
TCL: Running for 1500000 steps
ETITLE: TS BOND ANGLE DIHED IMPRP ELECT VDW BOUNDARY MISC KINETIC TOTAL TEMP POTENTIAL TOTALAVG TEMPAVG PRESSURE GPRESSURE VOLUME PRESSAVG GPRESSAVG
ENERGY: 0 3.6958 7.7285 6.5645 0.0000 -10811.1241 1544.6010 0.0000 0.0000 1749.9872 -7498.5470 298.3176 -9248.5342 -7498.5470 298.3176 509.9051 591.5593 30257.6115 509.9051 591.5593
ENERGY: 300000 0.5855 10.0390 4.5606 0.0000 -10672.8407 1424.9214 0.0000 0.0000 1700.2596 -7532.4745 289.8406 -9232.7341 -7475.9470 298.6046 -165.4590 -124.3067 30442.2117 165.6374 231.5849
ENERGY: 600000 9.8122 8.6438 4.2234 0.0000 -10670.5518 1391.5537 0.0000 0.0000 1767.3679 -7488.9507 301.2805 -9256.3186 -7462.7292 298.9530 -434.9265 -364.3498 30237.0339 205.8263 290.3382
ENERGY: 900000 4.8303 7.8750 8.4118 0.0000 -10735.9557 1481.5186 0.0000 0.0000 1768.6745 -7464.6454 301.5032 -9233.3200 -7459.4551 299.8212 261.5939 292.1286 30364.1893 125.3121 203.4968
ENERGY: 1200000 2.8703 9.2446 6.1521 0.0000 -10637.9738 1423.1165 0.0000 0.0000 1711.3329 -7485.2574 291.7283 -9196.5903 -7456.4289 299.3084 -48.0530 35.8094 30260.8111 62.3648 136.2120
ENERGY: 1500000 2.1323 8.7508 4.9496 0.0000 -10688.7038 1458.0361 0.0000 0.0000 1805.3117 -7409.5232 307.7487 -9214.8349 -7445.4871 299.9551 123.3296 231.8438 30106.7619 14.1608 84.9372
TCL: Running FEP window   9: Lambda1 0.5999999999999996 Lambda2 0.5499999999999996 [dLambda -0.050000000000000044]
TCL: Setting parameter firsttimestep to 0
TCL: Setting parameter alchLambda to 0.5999999999999996
Info: NONBONDED TABLE R-SQUARED SPACING: 0.0625
Info: NONBONDED TABLE SIZE: 705 POINTS
TCL: Setting parameter alchLambda2 to 0.5499999999999996
Info: NONBONDED TABLE R-SQUARED SPACING: 0.0625
Info: NONBONDED TABLE SIZE: 705 POINTS
TCL: Running for 1500000 steps
ETITLE: TS BOND ANGLE DIHED IMPRP ELECT VDW BOUNDARY MISC KINETIC TOTAL TEMP POTENTIAL TOTALAVG TEMPAVG PRESSURE GPRESSURE VOLUME PRESSAVG GPRESSAVG
ENERGY: 0 2.1323 8.7508 4.9496 0.0000 -10688.4205 1458.4834 0.0000 0.0000 1804.4516 -7409.6527 307.6021 -9214.1043 -7409.6527 307.6021 128.2236 228.7165 30106.7619 128.2236 228.7165
ENERGY: 300000 5.3880 5.3394 4.1381 0.0000 -10673.9960 1387.0857 0.0000 0.0000 1743.6600 -7528.3848 297.2390 -9272.0448 -7449.9422 303.3715 -478.4821 -459.5859 30120.6040 160.4989 223.3522
ENERGY: 600000 1.9192 8.8209 5.5571 0.0000 -10697.6489 1412.4284 0.0000 0.0000 1761.5686 -7507.3547 300.2919 -9268.9233 -7458.4101 299.7649 27.1924 31.3708 29655.9750 49.5011 107.3409
ENERGY: 900000 3.8485 6.5274 5.1576 0.0000 -10589.8663 1438.1550 0.0000 0.0000 1753.8912 -7382.2866 298.9831 -9136.1778 -7437.7464 299.5892 205.7219 319.2519 30224.3149 200.8665 265.4014
ENERGY: 1200000 4.7841 7.8366 4.6969 0.0000 -10735.2944 1425.8873 0.0000 0.0000 1746.3869 -7545.7025 297.7039 -9292.0894 -7441.3243 299.5637 -145.7059 -100.3759 29672.8213 55.9647 123.6109
ENERGY: 1500000 4.7539 5.5258 2.4631 0.0000 -10522.3942 1372.4860 0.0000 0.0000 1764.0384 -7373.1268 300.7129 -9137.1652 -7437.9272 299.9389 -539.8134 -509.6249 30785.7538 -1.7112 61.7833
TCL: Running FEP window  10: Lambda1 0.5499999999999996 Lambda2 0.4999999999999996 [dLambda -0.04999999999999999]
TCL: Setting parameter firsttimestep to 0
TCL: Setting parameter alchLambda to 0.5499999999999996
Info: NONBONDED TABLE R-SQUARED SPACING: 0.0625
Info: NONBONDED TABLE SIZE: 705 POINTS
TCL: Setting parameter alchLambda2 to 0.4999999999999996
Info: NONBONDED TABLE R-SQUARED SPACING: 0.0625
Info: NONBONDED TABLE SIZE: 705 POINTS
TCL: Running for 1500000 steps
ETITLE: TS BOND ANGLE DIHED IMPRP ELECT VDW BOUNDARY MISC KINETIC TOTAL TEMP POTENTIAL TOTALAVG TEMPAVG PRESSURE GPRESSURE VOLUME PRESSAVG GPRESSAVG
ENERGY: 0 4.7539 5.5258 2.4632 0.0000 -10522.4617 1373.3591 0.0000 0.0000 1763.1443 -7373.2154 300.5605 -9136.3597 -7373.2154 300.5605 -586.3895 -509.4242 30785.7538 -586.3895 -509.4242
ENERGY: 300000 3.6569 7.5064 5.2935 0.0000 -10571.9552 1413.4305 0.0000 0.0000 1773.5427 -7368.5251 302.3331 -9142.0678 -7403.3350 300.7562 -125.9507 -40.4818 30574.8669 -326.5359 -256.1523
ENERGY: 600000 2.1317 10.1825 5.8779 0.0000 -10581.0140 1369.2928 0.0000 0.0000 1720.4161 -7473.1130 293.2767 -9193.5291 -7411.0342 301.5805 -308.1264 -251.3349 30200.4614 -409.5198 -354.3741
ENERGY: 900000 3.0479 11.2146 5.8324 0.0000 -10680.7735 1468.7026 0.0000 0.0000 1793.4858 -7398.4902 305.7328 -9191.9760 -7413.8371 301.4419 274.7297 396.7490 30288.9363 -303.5611 -240.7654
ENERGY: 1200000 8.9389 5.3875 7.4183 0.0000 -10521.7931 1397.0025 0.0000 0.0000 1766.8008 -7336.2451 301.1838 -9103.0459 -7397.3535 301.6169 -840.3704 -764.0502 31195.8416 -292.7940 -235.8318
ENERGY: 1500000 4.1735 7.5807 3.1804 0.0000 -10700.5857 1489.4182 0.0000 0.0000 1783.3170 -7412.9159 303.9993 -9196.2328 -7396.2718 302.0918 452.2846 536.0355 30263.9567 -241.0716 -183.9041
TCL: Running FEP window  11: Lambda1 0.4999999999999996 Lambda2 0.4499999999999996 [dLambda -0.04999999999999999]
TCL: Setting parameter firsttimestep to 0
TCL: Setting parameter alchLambda to 0.4999999999999996
Info: NONBONDED TABLE R-SQUARED SPACING: 0.0625
Info: NONBONDED TABLE SIZE: 705 POINTS
TCL: Setting parameter alchLambda2 to 0.4499999999999996
Info: NONBONDED TABLE R-SQUARED SPACING: 0.0625
Info: NONBONDED TABLE SIZE: 705 POINTS
TCL: Running for 1500000 steps
ETITLE: TS BOND ANGLE DIHED IMPRP ELECT VDW BOUNDARY MISC KINETIC TOTAL TEMP POTENTIAL TOTALAVG TEMPAVG PRESSURE GPRESSURE VOLUME PRESSAVG GPRESSAVG
ENERGY: 0 4.1735 7.5807 3.1804 0.0000 -10701.0334 1489.5320 0.0000 0.0000 1782.4307 -7414.1359 303.8482 -9196.5666 -7414.1359 303.8482 430.6510 526.5669 30263.9567 430.6510 526.5669
ENERGY: 300000 3.6713 6.1552 5.6414 0.0000 -10631.2827 1420.5871 0.0000 0.0000 1786.4757 -7408.7520 304.5378 -9195.2277 -7428.0981 300.8656 -162.2439 -48.5061 30061.3478 84.6079 174.7424
ENERGY: 600000 7.3138 10.9179 5.9067 0.0000 -10743.1633 1480.6908 0.0000 0.0000 1773.3887 -7464.9455 302.3068 -9238.3342 -7430.7315 300.7624 11.7208 38.2536 30429.6207 29.1920 111.7276
ENERGY: 900000 8.0265 7.8041 2.7945 0.0000 -10647.2111 1420.3867 0.0000 0.0000 1824.9683 -7383.2309 311.0995 -9208.1992 -7424.9515 300.8371 -207.8665 -182.5642 30189.0022 -29.8082 45.5394
ENERGY: 1200000 4.3445 7.3813 5.9542 0.0000 -10604.4048 1461.0923 0.0000 0.0000 1771.7900 -7353.8425 302.0343 -9125.6326 -7423.6502 300.3687 191.4117 311.0626 30290.6775 -63.1972 11.8902
ENERGY: 1500000 5.9039 13.4414 2.2155 0.0000 -10633.5703 1393.5451 0.0000 0.0000 1693.7662 -7524.6982 288.7337 -9218.4644 -7435.1214 299.6306 -826.4527 -697.2946 30204.4663 -47.9380 28.8065
TCL: Running FEP window  12: Lambda1 0.4499999999999996 Lambda2 0.39999999999999963 [dLambda -0.04999999999999999]
TCL: Setting parameter firsttimestep to 0
TCL: Setting parameter alchLambda to 0.4499999999999996
Info: NONBONDED TABLE R-SQUARED SPACING: 0.0625
Info: NONBONDED TABLE SIZE: 705 POINTS
TCL: Setting parameter alchLambda2 to 0.39999999999999963
Info: NONBONDED TABLE R-SQUARED SPACING: 0.0625
Info: NONBONDED TABLE SIZE: 705 POINTS
TCL: Running for 1500000 steps
ETITLE: TS BOND ANGLE DIHED IMPRP ELECT VDW BOUNDARY MISC KINETIC TOTAL TEMP POTENTIAL TOTALAVG TEMPAVG PRESSURE GPRESSURE VOLUME PRESSAVG GPRESSAVG
ENERGY: 0 5.9039 13.4414 2.2155 0.0000 -10633.5708 1392.9185 0.0000 0.0000 1692.8810 -7526.2105 288.5828 -9219.0915 -7526.2105 288.5828 -795.6405 -709.8756 30204.4663 -795.6405 -709.8756
ENERGY: 300000 2.4646 7.3843 3.2825 0.0000 -10772.5159 1498.4946 0.0000 0.0000 1765.6610 -7495.2288 300.9895 -9260.8898 -7485.4659 296.3980 421.0251 539.3686 29732.8587 -303.1282 -215.8078
ENERGY: 600000 5.8215 8.5866 4.2516 0.0000 -10783.5123 1492.9543 0.0000 0.0000 1763.3829 -7508.5154 300.6012 -9271.8983 -7478.0386 298.0728 -5.9038 69.8784 30140.1096 -422.2164 -340.8047
ENERGY: 900000 4.9145 8.5078 4.3592 0.0000 -10770.2487 1543.1579 0.0000 0.0000 1716.0213 -7493.2880 292.5275 -9209.3093 -7457.8967 298.2445 802.9242 794.7613 29832.8995 -297.7148 -235.9168
ENERGY: 1200000 3.1275 4.8203 1.2354 0.0000 -10679.0172 1463.2308 0.0000 0.0000 1749.7673 -7456.8359 298.2801 -9206.6032 -7448.6018 298.5919 387.0518 461.1679 30215.1495 -257.1966 -196.6726
ENERGY: 1500000 2.9087 8.4992 2.6949 0.0000 -10670.2028 1469.6664 0.0000 0.0000 1733.3953 -7453.0382 295.4892 -9186.4336 -7450.0788 298.3681 128.9096 177.1385 30569.7814 -151.3035 -97.2734
TCL: Running FEP window  13: Lambda1 0.39999999999999963 Lambda2 0.34999999999999964 [dLambda -0.04999999999999999]
TCL: Setting parameter firsttimestep to 0
TCL: Setting parameter alchLambda to 0.39999999999999963
Info: NONBONDED TABLE R-SQUARED SPACING: 0.0625
Info: NONBONDED TABLE SIZE: 705 POINTS
TCL: Setting parameter alchLambda2 to 0.34999999999999964
Info: NONBONDED TABLE R-SQUARED SPACING: 0.0625
Info: NONBONDED TABLE SIZE: 705 POINTS
TCL: Running for 1500000 steps
ETITLE: TS BOND ANGLE DIHED IMPRP ELECT VDW BOUNDARY MISC KINETIC TOTAL TEMP POTENTIAL TOTALAVG TEMPAVG PRESSURE GPRESSURE VOLUME PRESSAVG GPRESSAVG
ENERGY: 0 2.9087 8.4992 2.6949 0.0000 -10670.2041 1470.0459 0.0000 0.0000 1732.5674 -7453.4879 295.3481 -9186.0554 -7453.4879 295.3481 89.8599 172.5030 30569.7814 89.8599 172.5030
ENERGY: 300000 4.0921 9.1274 5.9666 0.0000 -10676.6037 1471.1999 0.0000 0.0000 1729.4544 -7456.7633 294.8174 -9186.2177 -7410.7066 298.7924 315.4632 364.5749 30224.5430 252.4335 333.3075
ENERGY: 600000 6.7270 7.4119 5.6243 0.0000 -10736.8457 1452.5427 0.0000 0.0000 1781.5844 -7482.9553 303.7039 -9264.5397 -7407.7655 300.7930 -251.1395 -210.9183 30439.0499 151.0413 229.3512
ENERGY: 900000 4.7550 6.0279 2.8270 0.0000 -10541.1151 1405.4163 0.0000 0.0000 1728.1969 -7393.8920 294.6031 -9122.0889 -7411.9454 299.4010 -231.3589 -194.4109 30463.7632 45.4841 124.9474
ENERGY: 1200000 5.1001 8.6894 3.0158 0.0000 -10622.6173 1411.4950 0.0000 0.0000 1716.5334 -7477.7837 292.6148 -9194.3171 -7424.9229 298.3439 -446.3381 -389.1393 30488.6406 35.4672 101.4200
ENERGY: 1500000 2.9152 9.8439 3.4057 0.0000 -10677.1066 1483.9793 0.0000 0.0000 1737.6984 -7439.2642 296.2228 -9176.9625 -7419.2976 298.6519 313.6456 371.5488 30357.5914 66.3542 128.7970
TCL: Running FEP window  14: Lambda1 0.34999999999999964 Lambda2 0.29999999999999966 [dLambda -0.04999999999999999]
TCL: Setting parameter firsttimestep to 0
TCL: Setting parameter alchLambda to 0.34999999999999964
Info: NONBONDED TABLE R-SQUARED SPACING: 0.0625
Info: NONBONDED TABLE SIZE: 705 POINTS
TCL: Setting parameter alchLambda2 to 0.29999999999999966
Info: NONBONDED TABLE R-SQUARED SPACING: 0.0625
Info: NONBONDED TABLE SIZE: 705 POINTS
TCL: Running for 1500000 steps
ETITLE: TS BOND ANGLE DIHED IMPRP ELECT VDW BOUNDARY MISC KINETIC TOTAL TEMP POTENTIAL TOTALAVG TEMPAVG PRESSURE GPRESSURE VOLUME PRESSAVG GPRESSAVG
ENERGY: 0 2.9152 9.8439 3.4057 0.0000 -10677.1082 1484.5496 0.0000 0.0000 1736.8166 -7439.5772 296.0725 -9176.3938 -7439.5772 296.0725 294.5749 371.0425 30357.5914 294.5749 371.0425
ENERGY: 300000 4.4313 5.9528 10.0244 0.0000 -10550.4013 1378.7455 0.0000 0.0000 1717.0716 -7434.1758 292.7065 -9151.2474 -7420.8029 300.4918 -201.4811 -103.2418 29618.0425 161.6119 263.7817
ENERGY: 600000 4.7170 7.8069 4.3009 0.0000 -10667.1912 1479.1736 0.0000 0.0000 1806.9838 -7364.2091 308.0337 -9171.1928 -7424.5288 300.2203 222.2632 294.6810 30310.6204 118.1959 211.5938
ENERGY: 900000 2.8194 10.3855 3.5034 0.0000 -10763.1869 1508.9749 0.0000 0.0000 1756.7328 -7480.7707 299.4675 -9237.5036 -7421.7137 299.8138 487.3690 600.9659 29879.7881 61.4972 151.0596
ENERGY: 1200000 3.4763 6.0403 5.0439 0.0000 -10802.7157 1588.8034 0.0000 0.0000 1772.1089 -7427.2428 302.0887 -9199.3518 -7424.8757 299.6412 1463.5707 1489.7032 29941.2515 218.0483 297.8252
ENERGY: 1500000 3.0623 10.6705 4.9915 0.0000 -10668.6172 1476.8421 0.0000 0.0000 1704.8294 -7468.2214 290.6196 -9173.0508 -7422.2423 299.0540 121.5199 254.9905 30393.0960 192.8625 272.6392
TCL: Running FEP window  15: Lambda1 0.29999999999999966 Lambda2 0.24999999999999967 [dLambda -0.04999999999999999]
TCL: Setting parameter firsttimestep to 0
TCL: Setting parameter alchLambda to 0.29999999999999966
Info: NONBONDED TABLE R-SQUARED SPACING: 0.0625
Info: NONBONDED TABLE SIZE: 705 POINTS
TCL: Setting parameter alchLambda2 to 0.24999999999999967
Info: NONBONDED TABLE R-SQUARED SPACING: 0.0625
Info: NONBONDED TABLE SIZE: 705 POINTS
TCL: Running for 1500000 steps
ETITLE: TS BOND ANGLE DIHED IMPRP ELECT VDW BOUNDARY MISC KINETIC TOTAL TEMP POTENTIAL TOTALAVG TEMPAVG PRESSURE GPRESSURE VOLUME PRESSAVG GPRESSAVG
ENERGY: 0 3.0623 10.6705 4.9915 0.0000 -10668.6171 1477.5320 0.0000 0.0000 1703.9367 -7468.4241 290.4675 -9172.3608 -7468.4241 290.4675 174.4284 257.3512 30393.0960 174.4284 257.3512
ENERGY: 300000 5.3764 4.6120 4.5680 0.0000 -10718.3557 1489.7176 0.0000 0.0000 1763.8981 -7450.1836 300.6890 -9214.0817 -7422.6671 298.7673 325.5246 387.5278 29992.8518 184.7361 248.0289
ENERGY: 600000 4.3561 9.1160 3.3418 0.0000 -10613.6464 1452.2881 0.0000 0.0000 1727.9412 -7416.6032 294.5595 -9144.5444 -7410.6113 297.5983 1.3156 89.5476 30279.6654 101.6830 166.1121
ENERGY: 900000 3.2578 5.9698 4.9672 0.0000 -10384.5295 1275.7249 0.0000 0.0000 1751.0285 -7343.5813 298.4951 -9094.6098 -7417.6888 297.7922 -1278.4191 -1186.4194 30540.7584 -37.7350 28.3350
ENERGY: 1200000 6.6556 10.2045 5.3700 0.0000 -10610.3956 1490.2415 0.0000 0.0000 1800.3873 -7297.5367 306.9092 -9097.9240 -7406.9498 299.2174 742.8386 770.9514 29747.0665 45.3132 101.6801
ENERGY: 1500000 2.8693 9.3642 9.6949 0.0000 -10711.5546 1488.5483 0.0000 0.0000 1713.3558 -7487.7221 292.0731 -9201.0779 -7408.4713 299.3056 359.2471 368.8002 30031.0062 34.5435 89.9285
TCL: Running FEP window  16: Lambda1 0.24999999999999967 Lambda2 0.19999999999999968 [dLambda -0.04999999999999999]
TCL: Setting parameter firsttimestep to 0
TCL: Setting parameter alchLambda to 0.24999999999999967
Info: NONBONDED TABLE R-SQUARED SPACING: 0.0625
Info: NONBONDED TABLE SIZE: 705 POINTS
TCL: Setting parameter alchLambda2 to 0.19999999999999968
Info: NONBONDED TABLE R-SQUARED SPACING: 0.0625
Info: NONBONDED TABLE SIZE: 705 POINTS
TCL: Running for 1500000 steps
ETITLE: TS BOND ANGLE DIHED IMPRP ELECT VDW BOUNDARY MISC KINETIC TOTAL TEMP POTENTIAL TOTALAVG TEMPAVG PRESSURE GPRESSURE VOLUME PRESSAVG GPRESSAVG
ENERGY: 0 2.8693 9.3642 9.6949 0.0000 -10711.5551 1489.0605 0.0000 0.0000 1712.4671 -7488.0992 291.9216 -9200.5662 -7488.0992 291.9216 284.4480 366.9522 30031.0062 284.4480 366.9522
ENERGY: 300000 1.7461 9.7139 5.9703 0.0000 -10642.9793 1419.4440 0.0000 0.0000 1715.5778 -7490.5271 292.4519 -9206.1049 -7440.5064 295.1869 -135.2922 -80.8247 30162.9351 91.3772 159.7022
ENERGY: 600000 3.1830 6.4221 5.2124 0.0000 -10661.0363 1452.7866 0.0000 0.0000 1776.7633 -7416.6689 302.8821 -9193.4323 -7452.3077 296.4641 247.2841 367.6004 29766.7698 59.8519 145.6883
ENERGY: 900000 1.0037 6.4811 7.1754 0.0000 -10686.2720 1491.5243 0.0000 0.0000 1779.2664 -7400.8211 303.3088 -9180.0874 -7436.5217 298.3204 511.5501 559.1195 30137.2708 22.4001 99.5948
ENERGY: 1200000 4.9155 5.2674 3.8557 0.0000 -10574.7212 1428.4797 0.0000 0.0000 1792.5107 -7339.6921 305.5665 -9132.2028 -7422.6846 298.9528 110.7832 174.0135 30091.4003 -9.4793 60.2612
ENERGY: 1500000 3.5580 10.0323 5.8297 0.0000 -10634.9170 1418.5958 0.0000 0.0000 1738.0255 -7458.8757 296.2785 -9196.9011 -7421.1483 299.5426 26.9561 66.9365 30365.2396 -6.9115 58.6181
TCL: Running FEP window  17: Lambda1 0.19999999999999968 Lambda2 0.1499999999999997 [dLambda -0.04999999999999999]
TCL: Setting parameter firsttimestep to 0
TCL: Setting parameter alchLambda to 0.19999999999999968
Info: NONBONDED TABLE R-SQUARED SPACING: 0.0625
Info: NONBONDED TABLE SIZE: 705 POINTS
TCL: Setting parameter alchLambda2 to 0.1499999999999997
Info: NONBONDED TABLE R-SQUARED SPACING: 0.0625
Info: NONBONDED TABLE SIZE: 705 POINTS
TCL: Running for 1500000 steps
ETITLE: TS BOND ANGLE DIHED IMPRP ELECT VDW BOUNDARY MISC KINETIC TOTAL TEMP POTENTIAL TOTALAVG TEMPAVG PRESSURE GPRESSURE VOLUME PRESSAVG GPRESSAVG
ENERGY: 0 3.5580 10.0323 5.8297 0.0000 -10634.9155 1418.4620 0.0000 0.0000 1737.1600 -7459.8734 296.1310 -9197.0334 -7459.8734 296.1310 -34.9764 59.2514 30365.2396 -34.9764 59.2514
ENERGY: 300000 5.3631 4.9327 3.2075 0.0000 -10553.0915 1400.1214 0.0000 0.0000 1831.4926 -7307.9741 312.2117 -9139.4666 -7421.1460 300.2133 -106.7266 -82.1737 30124.9424 -0.4176 48.9322
ENERGY: 600000 3.9880 7.8449 4.3987 0.0000 -10528.9055 1367.7717 0.0000 0.0000 1729.8487 -7415.0535 294.8846 -9144.9022 -7422.7111 299.6337 -617.0809 -591.8225 30512.3116 -290.7426 -251.2450
ENERGY: 900000 1.7896 6.3350 4.2606 0.0000 -10680.1275 1395.6981 0.0000 0.0000 1738.5055 -7533.5385 296.3604 -9272.0441 -7432.3175 300.1167 -485.3564 -408.1139 30013.7606 -280.3313 -224.3571
ENERGY: 1200000 4.2997 6.8884 4.1863 0.0000 -10548.6163 1394.1702 0.0000 0.0000 1728.8744 -7410.1974 294.7185 -9139.0717 -7427.3080 299.5246 -402.4666 -317.3035 30311.9590 -225.0556 -170.6487
ENERGY: 1500000 5.7489 5.4438 8.0699 0.0000 -10616.6121 1412.9921 0.0000 0.0000 1758.7663 -7425.5910 299.8142 -9184.3573 -7434.0683 299.1096 -303.1028 -204.2507 30060.6601 -175.9689 -125.7353
TCL: Running FEP window  18: Lambda1 0.1499999999999997 Lambda2 0.09999999999999969 [dLambda -0.05 ]
TCL: Setting parameter firsttimestep to 0
TCL: Setting parameter alchLambda to 0.1499999999999997
Info: NONBONDED TABLE R-SQUARED SPACING: 0.0625
Info: NONBONDED TABLE SIZE: 705 POINTS
TCL: Setting parameter alchLambda2 to 0.09999999999999969
Info: NONBONDED TABLE R-SQUARED SPACING: 0.0625
Info: NONBONDED TABLE SIZE: 705 POINTS
TCL: Running for 1500000 steps
ETITLE: TS BOND ANGLE DIHED IMPRP ELECT VDW BOUNDARY MISC KINETIC TOTAL TEMP POTENTIAL TOTALAVG TEMPAVG PRESSURE GPRESSURE VOLUME PRESSAVG GPRESSAVG
ENERGY: 0 5.7489 5.4438 8.0699 0.0000 -10616.6130 1412.8418 0.0000 0.0000 1757.9154 -7426.5932 299.6691 -9184.5085 -7426.5932 299.6691 -291.7528 -209.5882 30060.6601 -291.7528 -209.5882
ENERGY: 300000 4.3852 11.4465 4.0505 0.0000 -10536.1141 1426.0790 0.0000 0.0000 1789.9639 -7300.1890 305.1324 -9090.1529 -7413.4694 304.4606 -170.9609 -58.1670 30579.8475 152.7195 220.2095
ENERGY: 600000 5.2911 8.2414 5.2549 0.0000 -10543.1863 1449.8488 0.0000 0.0000 1794.8845 -7279.6656 305.9712 -9074.5501 -7406.5193 302.5454 286.9388 300.2934 30447.7915 128.1148 183.0813
ENERGY: 900000 6.5383 6.0971 4.5916 0.0000 -10725.4354 1509.5528 0.0000 0.0000 1786.9692 -7411.6863 304.6219 -9198.6555 -7418.6941 302.4661 579.2061 614.1494 29923.9651 124.8390 180.4932
ENERGY: 1200000 3.8206 9.1038 5.2203 0.0000 -10695.2523 1524.9694 0.0000 0.0000 1758.9310 -7393.2072 299.8423 -9152.1381 -7410.0967 303.2007 932.5587 975.5282 30103.8508 212.9976 262.3624
ENERGY: 1500000 3.3987 5.6961 4.6435 0.0000 -10635.5227 1445.7525 0.0000 0.0000 1720.6397 -7455.3922 293.3148 -9176.0319 -7415.9875 302.8292 138.4086 204.9424 29972.1800 205.5636 256.6950
TCL: Running FEP window  19: Lambda1 0.09999999999999969 Lambda2 0.049999999999999684 [dLambda -0.05 ]
TCL: Setting parameter firsttimestep to 0
TCL: Setting parameter alchLambda to 0.09999999999999969
Info: NONBONDED TABLE R-SQUARED SPACING: 0.0625
Info: NONBONDED TABLE SIZE: 705 POINTS
TCL: Setting parameter alchLambda2 to 0.049999999999999684
Info: NONBONDED TABLE R-SQUARED SPACING: 0.0625
Info: NONBONDED TABLE SIZE: 705 POINTS
TCL: Running for 1500000 steps
ETITLE: TS BOND ANGLE DIHED IMPRP ELECT VDW BOUNDARY MISC KINETIC TOTAL TEMP POTENTIAL TOTALAVG TEMPAVG PRESSURE GPRESSURE VOLUME PRESSAVG GPRESSAVG
ENERGY: 0 3.3987 5.6961 4.6435 0.0000 -10635.5233 1445.6131 0.0000 0.0000 1719.7682 -7456.4038 293.1662 -9176.1720 -7456.4038 293.1662 104.6072 201.1176 29972.1800 104.6072 201.1176
ENERGY: 300000 4.8735 7.3657 4.7117 0.0000 -10513.9683 1407.6812 0.0000 0.0000 1734.8214 -7354.5149 295.7323 -9089.3363 -7413.0314 299.4507 -304.3152 -255.4920 30446.6290 45.1515 92.1481
ENERGY: 600000 7.0606 6.0501 5.1142 0.0000 -10608.8577 1473.5069 0.0000 0.0000 1707.1290 -7409.9968 291.0117 -9117.1259 -7419.8150 296.5017 125.4051 216.9196 30465.3695 189.3510 246.5102
ENERGY: 900000 4.3954 7.9390 4.6348 0.0000 -10606.1991 1421.9102 0.0000 0.0000 1760.6137 -7406.7060 300.1291 -9167.3197 -7416.7298 297.5522 -152.6045 -142.9124 30230.8261 130.3308 185.5924
ENERGY: 1200000 3.5421 12.0661 5.4400 0.0000 -10537.0423 1349.3435 0.0000 0.0000 1777.9685 -7388.6821 303.0876 -9166.6506 -7417.6443 297.7197 -912.7848 -852.3494 30728.7564 19.4855 78.4564
ENERGY: 1500000 8.3479 4.4823 4.9111 0.0000 -10703.7651 1495.8879 0.0000 0.0000 1737.1002 -7453.0357 296.1208 -9190.1360 -7419.9766 298.4424 125.3408 215.8035 30319.7278 12.3032 74.0960
TCL: Running FEP window  20: Lambda1 0.049999999999999684 Lambda2 0.0    [dLambda -0.049999999999999684]
TCL: Setting parameter firsttimestep to 0
TCL: Setting parameter alchLambda to 0.049999999999999684
Info: NONBONDED TABLE R-SQUARED SPACING: 0.0625
Info: NONBONDED TABLE SIZE: 705 POINTS
TCL: Setting parameter alchLambda2 to 0.0
Info: NONBONDED TABLE R-SQUARED SPACING: 0.0625
Info: NONBONDED TABLE SIZE: 705 POINTS
TCL: Running for 1500000 steps
ETITLE: TS BOND ANGLE DIHED IMPRP ELECT VDW BOUNDARY MISC KINETIC TOTAL TEMP POTENTIAL TOTALAVG TEMPAVG PRESSURE GPRESSURE VOLUME PRESSAVG GPRESSAVG
ENERGY: 0 8.3479 4.4823 4.9111 0.0000 -10703.7651 1495.0564 0.0000 0.0000 1736.2588 -7454.7086 295.9774 -9190.9674 -7454.7086 295.9774 129.1489 211.8138 30319.7278 129.1489 211.8138
ENERGY: 300000 2.8353 4.7000 7.4526 0.0000 -10670.0053 1473.3548 0.0000 0.0000 1808.9442 -7372.7185 308.3679 -9181.6627 -7393.2552 303.3820 587.3058 676.3107 29840.2004 -18.9801 47.0107
ENERGY: 600000 3.6432 5.4142 1.7781 0.0000 -10731.9071 1495.5347 0.0000 0.0000 1795.1403 -7430.3965 306.0148 -9225.5368 -7407.9994 302.6577 642.8207 706.0194 29745.6280 73.7822 138.1296
ENERGY: 900000 3.0862 9.5976 7.0001 0.0000 -10502.7180 1345.3991 0.0000 0.0000 1747.2085 -7390.4266 297.8439 -9137.6351 -7409.5311 301.6179 -678.7700 -636.0648 30071.1733 -12.4886 50.0027
ENERGY: 1200000 4.7737 7.7616 7.0720 0.0000 -10681.9700 1440.7363 0.0000 0.0000 1794.5920 -7427.0343 305.9213 -9221.6264 -7413.2386 301.2392 4.0121 96.0436 29723.3129 -41.9333 26.2674
ENERGY: 1500000 3.7503 4.8602 2.9105 0.0000 -10618.4274 1416.3555 0.0000 0.0000 1774.5393 -7416.0115 302.5030 -9190.5509 -7411.9265 301.0920 26.6516 85.5134 29650.0649 -40.7343 27.2682
TCL: Exiting due to exit command.
