Info: SIMULATION PARAMETERS:
Info: TIMESTEP               2
Info: NUMBER OF STEPS        0
Info: STEPS PER CYCLE        10
Info: PERIODIC CELL BASIS 1  32.0718 0 0
Info: PERIODIC CELL BASIS 2  0 31.4188 0
Info: PERIODIC CELL BASIS 3  0 0 29.6913
Info: PERIODIC CELL CENTER   0 0 0
Info: WRAPPING WATERS AROUND PERIODIC BOUNDARIES ON OUTPUT.
Info: WRAPPING ALL CLUSTERS AROUND PERIODIC BOUNDARIES ON OUTPUT.
Info: FIRST LDB TIMESTEP     50
Info: LAST LDB TIMESTEP     -1
Info: HOM BACKGROUND SCALING 1
Info: PME BACKGROUND SCALING 1
Info: MIN ATOMS PER PATCH    40
Info: EMPTY PATCH LOAD       40 ATOMS
Info: VELOCITY FILE          mobley_9729792_equil.vel
Info: CENTER OF MASS MOVING INITIALLY? NO
Info: DIELECTRIC             1
Info: EXCLUDE                SCALED ONE-FOUR
Info: 1-4 ELECTROSTATICS SCALED BY 0.833333
Info: MODIFIED 1-4 VDW PARAMETERS WILL BE USED
Info: DCD FILENAME           mobley_9729792_prod.dcd
Info: DCD FREQUENCY          100000
Info: DCD FIRST STEP         100000
Info: DCD FILE WILL CONTAIN UNIT CELL DATA
Info: XST FILENAME           mobley_9729792_prod.xst
Info: XST FREQUENCY          100000
Info: NO VELOCITY DCD OUTPUT
Info: NO FORCE DCD OUTPUT
Info: OUTPUT FILENAME        mobley_9729792_prod
Info: BINARY OUTPUT FILES WILL BE USED
Info: RESTART FILENAME       mobley_9729792_prod.restart
Info: RESTART FREQUENCY      100000
Info: BINARY RESTART FILES WILL BE USED
Info: CUTOFF                 9
Info: PAIRLIST DISTANCE      11
Info: PAIRLIST SHRINK RATE   0.01
Info: PAIRLIST GROW RATE     0.01
Info: PAIRLIST TRIGGER       0.3
Info: PAIRLISTS PER CYCLE    2
Info: PAIRLISTS ENABLED
Info: MARGIN                 2
Info: HYDROGEN GROUP CUTOFF  2.5
Info: PATCH DIMENSION        15.5
Info: ENERGY OUTPUT STEPS    100000
Info: ENERGY EVALUATION STEPS    100000
Info: OUTPUT ENERGY PRECISION 4
Info: CROSSTERM ENERGY INCLUDED IN DIHEDRAL
Info: TIMING OUTPUT STEPS    1000000
Info: PRESSURE OUTPUT STEPS  100000
Info: ALCHEMICAL FEP ON
Info: FEP CURRENT LAMBDA VALUE     0
Info: FEP COMPARISON LAMBDA VALUE  0.05
Info: FEP INTRA-ALCHEMICAL NON-BONDED INTERACTIONS WILL BE RETAINED
Info: FEP INTRA-ALCHEMICAL BONDED INTERACTIONS WILL BE RETAINED
Info: FEP VDW SHIFTING COEFFICIENT 5
Info: FEP ELEC. ACTIVE FOR ANNIHILATED PARTICLES BETWEEN LAMBDA = 0 AND LAMBDA = 0.5
Info: FEP ELEC. ACTIVE FOR EXNIHILATED PARTICLES BETWEEN LAMBDA = 0.5 AND LAMBDA = 1
Info: FEP VDW ACTIVE FOR ANNIHILATED PARTICLES BETWEEN LAMBDA = 0 AND LAMBDA = 1
Info: FEP VDW ACTIVE FOR EXNIHILATED PARTICLES BETWEEN LAMBDA = 0 AND LAMBDA = 1
Info: FEP BOND ACTIVE FOR ANNIHILATED PARTICLES BETWEEN LAMBDA = 1 AND LAMBDA = 1
Info: FEP BOND ACTIVE FOR EXNIHILATED PARTICLES BETWEEN LAMBDA = 0 AND LAMBDA = 0
Info: LANGEVIN DYNAMICS ACTIVE
Info: LANGEVIN TEMPERATURE   300
Info: LANGEVIN USING BBK INTEGRATOR
Info: LANGEVIN DAMPING COEFFICIENT IS 1 INVERSE PS
Info: LANGEVIN DYNAMICS APPLIED TO HYDROGENS
Info: LANGEVIN PISTON PRESSURE CONTROL ACTIVE
Info:        TARGET PRESSURE IS 1.01325 BAR
Info:     OSCILLATION PERIOD IS 50 FS
Info:             DECAY TIME IS 25 FS
Info:     PISTON TEMPERATURE IS 300 K
Info:       PRESSURE CONTROL IS GROUP-BASED
Info:    INITIAL STRAIN RATE IS 8.24452e-05 8.24452e-05 8.24452e-05
Info:       CELL FLUCTUATION IS ISOTROPIC
Info: PARTICLE MESH EWALD (PME) ACTIVE
Info: PME TOLERANCE               1e-06
Info: PME EWALD COEFFICIENT       0.348832
Info: PME INTERPOLATION ORDER     4
Info: PME GRID DIMENSIONS         36 32 32
Info: PME MAXIMUM GRID SPACING    1
Info: PME CALCULATION WILL BE PERFORMED ON GPU
Info: FULL ELECTROSTATIC EVALUATION FREQUENCY      2
Info: USING VERLET I (r-RESPA) MTS SCHEME.
Info: C1 SPLITTING OF LONG RANGE ELECTROSTATICS
Info: PLACING ATOMS IN PATCHES BY HYDROGEN GROUPS
Info: RIGID BONDS TO HYDROGEN : ALL
Info:         ERROR TOLERANCE : 1e-08
Info:          MAX ITERATIONS : 100
Info: RIGID WATER USING SETTLE ALGORITHM
Info: RANDOM NUMBER SEED     1743577423
Info: USE HYDROGEN BONDS?    NO
Info: Using AMBER format force field!
Info: AMBER PARM FILE        mobley_9729792.prmtop
Info: COORDINATE PDB         mobley_9729792.pdb
Info: Exclusions will be read from PARM file!
Info: SCNB (VDW SCALING)     2
Info: USING ARITHMETIC MEAN TO COMBINE L-J SIGMA PARAMETERS
Info: BINARY COORDINATES     mobley_9729792_equil.coor
Info: SUMMARY OF PARAMETERS:
Info: 12 BONDS
Info: 18 ANGLES
Info:   18 HARMONIC
Info:   0 COSINE-BASED
Info: 4 DIHEDRAL
Info: 0 IMPROPER
Info: 0 CROSSTERM
Info: 0 VDW
Info: 21 VDW_PAIRS
Info: 0 NBTHOLE_PAIRS
Info: To read alchdata from file: mobley_9729792.pdb
Info: To read alchflag data from column: 5
Info: STRUCTURE SUMMARY:
Info: 2916 ATOMS
Info: 2916 BONDS
Info: 24 ANGLES
Info: 38 DIHEDRALS
Info: 0 IMPROPERS
Info: 0 CROSSTERMS
Info: 2972 EXCLUSIONS
Info: 2909 RIGID BONDS
Info: ALCH: 0 ATOMS TO DISAPPEAR IN FINAL STATE
Info: ALCH: 15 ATOMS TO APPEAR IN FINAL STATE
Info: 5839 DEGREES OF FREEDOM
Info: 974 HYDROGEN GROUPS
Info: 3 ATOMS IN LARGEST HYDROGEN GROUP
Info: 974 MIGRATION GROUPS
Info: 3 ATOMS IN LARGEST MIGRATION GROUP
Info: TOTAL MASS = 17513.6 amu
Info: TOTAL CHARGE = 6.51926e-09 e
Info: MASS DENSITY = 0.97206 g/cm^3
Info: ATOM DENSITY = 0.0974644 atoms/A^3
Info: ADDED 0 IMPLICIT EXCLUSIONS
Info: NONBONDED TABLE R-SQUARED SPACING: 0.0625
Info: NONBONDED TABLE SIZE: 705 POINTS
Info: REDUCING NUMBER OF PATCHES TO IMPROVE LOAD BALANCE
Info: REMOVING COM VELOCITY 0.0559816 0.0306469 -0.00302719
Info: Use 3D box decompostion in PME FFT.
Info: Updated CUDA force table with 4096 elements.
Info: Updated CUDA LJ table with 6 x 6 elements.
Info: Found 12 unique exclusion lists needing 28 bytes
TCL: Running for 1500000 steps
ETITLE: TS BOND ANGLE DIHED IMPRP ELECT VDW BOUNDARY MISC KINETIC TOTAL TEMP POTENTIAL TOTALAVG TEMPAVG PRESSURE GPRESSURE VOLUME PRESSAVG GPRESSAVG
ENERGY: 0 1.5033 6.2205 8.0439 0.0000 -10542.0448 1384.4253 0.0000 0.0000 1665.5985 -7476.2533 287.0928 -9141.8519 -7476.2533 287.0928 -451.9994 -371.2941 29918.6299 -451.9994 -371.2941
ENERGY: 300000 1.3204 8.1975 7.2982 0.0000 -10600.6387 1440.0971 0.0000 0.0000 1775.9231 -7367.8024 306.1090 -9143.7255 -7405.6274 302.5266 203.7596 282.8335 29741.5848 -255.4444 -201.9071
ENERGY: 600000 3.3599 6.4107 8.8300 0.0000 -10530.0048 1381.1546 0.0000 0.0000 1749.0696 -7381.1799 301.4803 -9130.2495 -7409.3312 302.1089 -322.5114 -281.8218 29852.6245 -280.2469 -229.2261
ENERGY: 900000 4.0099 5.5516 7.6444 0.0000 -10521.3228 1423.6748 0.0000 0.0000 1734.8621 -7345.5799 299.0314 -9080.4419 -7391.9057 301.0263 -307.2851 -250.4931 30429.9998 -169.8330 -123.2397
ENERGY: 1200000 2.1810 6.7088 6.4118 0.0000 -10608.3237 1408.1576 0.0000 0.0000 1723.9762 -7460.8883 297.1551 -9184.8645 -7385.2329 301.2305 -365.0949 -318.6017 29930.9248 -184.3337 -123.9679
ENERGY: 1500000 1.6413 1.9336 4.6819 0.0000 -10375.0383 1279.7376 0.0000 0.0000 1774.8659 -7312.1779 305.9268 -9087.0438 -7377.3740 300.5399 -1014.0766 -936.3070 29875.4094 -249.3068 -191.0781
TCL: Running FEP window   2: Lambda1 0.05   Lambda2 0.1    [dLambda 0.05  ]
TCL: Setting parameter firsttimestep to 0
TCL: Setting parameter alchLambda to 0.05
Info: NONBONDED TABLE R-SQUARED SPACING: 0.0625
Info: NONBONDED TABLE SIZE: 705 POINTS
TCL: Setting parameter alchLambda2 to 0.1
Info: NONBONDED TABLE R-SQUARED SPACING: 0.0625
Info: NONBONDED TABLE SIZE: 705 POINTS
TCL: Running for 1500000 steps
ETITLE: TS BOND ANGLE DIHED IMPRP ELECT VDW BOUNDARY MISC KINETIC TOTAL TEMP POTENTIAL TOTALAVG TEMPAVG PRESSURE GPRESSURE VOLUME PRESSAVG GPRESSAVG
ENERGY: 0 1.6413 1.9336 4.6819 0.0000 -10375.0393 1281.5480 0.0000 0.0000 1773.9863 -7311.2482 305.7751 -9085.2345 -7311.2482 305.7751 -1012.8554 -928.0137 29875.4094 -1012.8554 -928.0137
ENERGY: 300000 0.8133 7.1652 5.0601 0.0000 -10538.8081 1418.8990 0.0000 0.0000 1748.9709 -7357.8997 301.4633 -9106.8705 -7381.8000 296.1941 -176.1000 -88.3226 30098.6711 -232.7602 -159.3191
ENERGY: 600000 1.1811 9.5453 3.8608 0.0000 -10680.6149 1502.9075 0.0000 0.0000 1774.6095 -7388.5106 305.8826 -9163.1201 -7369.0458 300.1028 603.9416 671.4502 29737.1646 -29.4899 25.2183
ENERGY: 900000 2.5031 5.5706 8.7297 0.0000 -10524.5680 1395.8330 0.0000 0.0000 1730.2815 -7381.6502 298.2419 -9111.9317 -7370.8791 300.1441 -463.1700 -435.5572 30239.7392 -52.1780 -1.4176
ENERGY: 1200000 2.9665 3.9639 4.5286 0.0000 -10521.9579 1385.5029 0.0000 0.0000 1700.7457 -7424.2503 293.1509 -9124.9960 -7373.5260 299.8686 -593.1981 -513.7395 30447.7204 -56.0095 -2.7351
ENERGY: 1500000 1.6880 4.1941 5.2503 0.0000 -10519.2208 1382.7057 0.0000 0.0000 1762.8227 -7362.5599 303.8509 -9125.3826 -7380.2919 299.6980 -221.4544 -175.5419 29631.5292 -64.6435 -8.5415
TCL: Running FEP window   3: Lambda1 0.1    Lambda2 0.15000000000000002 [dLambda 0.05000000000000002]
TCL: Setting parameter firsttimestep to 0
TCL: Setting parameter alchLambda to 0.1
Info: NONBONDED TABLE R-SQUARED SPACING: 0.0625
Info: NONBONDED TABLE SIZE: 705 POINTS
TCL: Setting parameter alchLambda2 to 0.15000000000000002
Info: NONBONDED TABLE R-SQUARED SPACING: 0.0625
Info: NONBONDED TABLE SIZE: 705 POINTS
TCL: Running for 1500000 steps
ETITLE: TS BOND ANGLE DIHED IMPRP ELECT VDW BOUNDARY MISC KINETIC TOTAL TEMP POTENTIAL TOTALAVG TEMPAVG PRESSURE GPRESSURE VOLUME PRESSAVG GPRESSAVG
ENERGY: 0 1.6881 4.1942 5.2503 0.0000 -10519.2203 1383.3469 0.0000 0.0000 1761.9341 -7362.8068 303.6977 -9124.7409 -7362.8068 303.6977 -259.7095 -169.6861 29631.5292 -259.7095 -169.6861
ENERGY: 300000 5.0035 5.0319 5.2078 0.0000 -10640.1142 1469.3194 0.0000 0.0000 1764.7146 -7390.8371 304.1770 -9155.5517 -7349.7385 303.0264 167.6783 179.4172 29827.4573 29.4580 78.6356
ENERGY: 600000 1.9958 9.9766 9.3059 0.0000 -10433.9703 1357.1791 0.0000 0.0000 1741.6204 -7313.8926 300.1963 -9055.5129 -7351.0766 301.9478 -320.3167 -291.2237 29688.7491 -96.8593 -59.5025
ENERGY: 900000 2.4993 8.3155 3.8318 0.0000 -10615.9188 1440.3071 0.0000 0.0000 1728.5081 -7432.4569 297.9362 -9160.9651 -7352.9467 301.8410 123.6419 211.7132 29733.7327 -42.4277 3.5107
ENERGY: 1200000 4.8175 5.3455 5.7819 0.0000 -10423.7188 1323.8172 0.0000 0.0000 1786.7081 -7297.2486 307.9679 -9083.9567 -7352.7754 302.1844 -355.0344 -303.4118 29711.8354 -84.0661 -28.0255
ENERGY: 1500000 1.7613 3.9839 8.6249 0.0000 -10455.3867 1360.8585 0.0000 0.0000 1786.4759 -7293.6822 307.9279 -9080.1581 -7349.9475 302.8647 -33.3632 -31.9237 29753.7555 -80.1147 -22.7895
TCL: Running FEP window   4: Lambda1 0.15000000000000002 Lambda2 0.2    [dLambda 0.04999999999999999]
TCL: Setting parameter firsttimestep to 0
TCL: Setting parameter alchLambda to 0.15000000000000002
Info: NONBONDED TABLE R-SQUARED SPACING: 0.0625
Info: NONBONDED TABLE SIZE: 705 POINTS
TCL: Setting parameter alchLambda2 to 0.2
Info: NONBONDED TABLE R-SQUARED SPACING: 0.0625
Info: NONBONDED TABLE SIZE: 705 POINTS
TCL: Running for 1500000 steps
ETITLE: TS BOND ANGLE DIHED IMPRP ELECT VDW BOUNDARY MISC KINETIC TOTAL TEMP POTENTIAL TOTALAVG TEMPAVG PRESSURE GPRESSURE VOLUME PRESSAVG GPRESSAVG
ENERGY: 0 1.7613 3.9839 8.6249 0.0000 -10455.3866 1361.6751 0.0000 0.0000 1785.6127 -7293.7288 307.7791 -9079.3415 -7293.7288 307.7791 -105.3499 -24.2356 29753.7555 -105.3499 -24.2356
ENERGY: 300000 2.0942 9.1405 9.1528 0.0000 -10635.6812 1501.6043 0.0000 0.0000 1748.4510 -7365.2385 301.3737 -9113.6894 -7392.7331 299.2374 606.3571 680.4501 29529.5450 99.3213 163.8110
ENERGY: 600000 0.6241 5.3879 6.7957 0.0000 -10552.9613 1384.0832 0.0000 0.0000 1738.3908 -7417.6796 299.6397 -9156.0703 -7380.7395 300.2421 -436.1411 -332.4176 29840.8175 -167.3877 -101.7296
ENERGY: 900000 1.0056 5.4132 5.3035 0.0000 -10650.6724 1482.4594 0.0000 0.0000 1738.8567 -7417.6340 299.7200 -9156.4907 -7381.8541 300.1867 180.1780 314.5093 30016.7593 -115.0197 -37.5655
ENERGY: 1200000 1.4961 3.7186 6.5129 0.0000 -10608.9634 1434.7548 0.0000 0.0000 1702.8158 -7459.6652 293.5078 -9162.4809 -7386.5587 300.2575 -57.5863 -27.5227 30044.1901 -47.8396 25.7930
ENERGY: 1500000 0.5155 4.6949 5.3363 0.0000 -10500.6804 1405.4644 0.0000 0.0000 1764.2551 -7320.4142 304.0978 -9084.6693 -7383.4226 299.8280 -80.0559 -59.7048 30292.6434 56.6492 124.3269
TCL: Running FEP window   5: Lambda1 0.2    Lambda2 0.25   [dLambda 0.04999999999999999]
TCL: Setting parameter firsttimestep to 0
TCL: Setting parameter alchLambda to 0.2
Info: NONBONDED TABLE R-SQUARED SPACING: 0.0625
Info: NONBONDED TABLE SIZE: 705 POINTS
TCL: Setting parameter alchLambda2 to 0.25
Info: NONBONDED TABLE R-SQUARED SPACING: 0.0625
Info: NONBONDED TABLE SIZE: 705 POINTS
TCL: Running for 1500000 steps
ETITLE: TS BOND ANGLE DIHED IMPRP ELECT VDW BOUNDARY MISC KINETIC TOTAL TEMP POTENTIAL TOTALAVG TEMPAVG PRESSURE GPRESSURE VOLUME PRESSAVG GPRESSAVG
ENERGY: 0 0.5155 4.6949 5.3363 0.0000 -10500.6816 1404.9900 0.0000 0.0000 1763.3655 -7321.7793 303.9445 -9085.1448 -7321.7793 303.9445 -160.5943 -59.0736 30292.6434 -160.5943 -59.0736
ENERGY: 300000 3.9794 4.3491 6.6254 0.0000 -10729.6391 1541.2184 0.0000 0.0000 1792.5229 -7380.9438 308.9702 -9173.4668 -7353.8056 303.6263 914.5039 1012.3935 29655.2902 -135.7275 -55.2395
ENERGY: 600000 4.7931 5.8517 4.9014 0.0000 -10522.4793 1408.0664 0.0000 0.0000 1765.8815 -7332.9853 304.3781 -9098.8667 -7371.6403 303.1021 -74.7773 -47.0809 29952.9642 -133.1681 -66.8356
ENERGY: 900000 3.0728 3.6935 5.1624 0.0000 -10626.5055 1428.0708 0.0000 0.0000 1718.2875 -7468.2185 296.1745 -9186.5060 -7392.6454 301.6249 -314.1199 -324.9604 29983.2371 -90.4098 -34.6237
ENERGY: 1200000 1.8560 5.7586 4.5832 0.0000 -10551.4604 1394.3828 0.0000 0.0000 1687.7998 -7457.0800 290.9195 -9144.8798 -7403.4276 300.0979 -67.7432 -17.9924 29380.9410 -98.8690 -44.1390
ENERGY: 1500000 2.3050 5.8141 4.5279 0.0000 -10600.1670 1421.7891 0.0000 0.0000 1684.9717 -7480.7592 290.4320 -9165.7309 -7406.0876 299.9511 -221.0925 -162.7095 29841.2259 -71.3585 -13.7336
TCL: Running FEP window   6: Lambda1 0.25   Lambda2 0.3    [dLambda 0.04999999999999999]
TCL: Setting parameter firsttimestep to 0
TCL: Setting parameter alchLambda to 0.25
Info: NONBONDED TABLE R-SQUARED SPACING: 0.0625
Info: NONBONDED TABLE SIZE: 705 POINTS
TCL: Setting parameter alchLambda2 to 0.3
Info: NONBONDED TABLE R-SQUARED SPACING: 0.0625
Info: NONBONDED TABLE SIZE: 705 POINTS
TCL: Running for 1500000 steps
ETITLE: TS BOND ANGLE DIHED IMPRP ELECT VDW BOUNDARY MISC KINETIC TOTAL TEMP POTENTIAL TOTALAVG TEMPAVG PRESSURE GPRESSURE VOLUME PRESSAVG GPRESSAVG
ENERGY: 0 2.3050 5.8141 4.5279 0.0000 -10600.1682 1422.0452 0.0000 0.0000 1684.1253 -7481.3506 290.2861 -9165.4759 -7481.3506 290.2861 -226.5128 -157.5007 29841.2259 -226.5128 -157.5007
ENERGY: 300000 1.8002 3.4686 6.2878 0.0000 -10419.2034 1279.7475 0.0000 0.0000 1738.2824 -7389.6169 299.6210 -9127.8993 -7419.9146 296.4658 -1229.3568 -1189.3378 30130.6745 -274.8072 -201.9465
ENERGY: 600000 3.6979 4.6387 5.7809 0.0000 -10509.2616 1390.2522 0.0000 0.0000 1746.8174 -7358.0745 301.0921 -9104.8919 -7396.0569 298.7945 -222.6300 -153.3043 29890.5467 -152.3825 -79.4148
ENERGY: 900000 2.7620 7.3210 7.2459 0.0000 -10602.9855 1410.6339 0.0000 0.0000 1772.6650 -7402.3577 305.5474 -9175.0226 -7400.8273 299.2505 67.7796 109.8399 29468.4906 -36.0897 28.9483
ENERGY: 1200000 5.1272 9.6335 3.9703 0.0000 -10466.0935 1407.6485 0.0000 0.0000 1749.5541 -7290.1599 301.5638 -9039.7140 -7386.3260 299.8076 -15.0495 51.8716 29930.2046 -78.5945 -14.2151
ENERGY: 1500000 5.8126 6.2969 3.9762 0.0000 -10606.9571 1409.6162 0.0000 0.0000 1676.2069 -7505.0483 288.9213 -9181.2552 -7387.7308 299.5464 -407.6947 -321.7349 29796.9107 -115.0457 -47.1799
TCL: Running FEP window   7: Lambda1 0.3    Lambda2 0.35   [dLambda 0.04999999999999999]
TCL: Setting parameter firsttimestep to 0
TCL: Setting parameter alchLambda to 0.3
Info: NONBONDED TABLE R-SQUARED SPACING: 0.0625
Info: NONBONDED TABLE SIZE: 705 POINTS
TCL: Setting parameter alchLambda2 to 0.35
Info: NONBONDED TABLE R-SQUARED SPACING: 0.0625
Info: NONBONDED TABLE SIZE: 705 POINTS
TCL: Running for 1500000 steps
ETITLE: TS BOND ANGLE DIHED IMPRP ELECT VDW BOUNDARY MISC KINETIC TOTAL TEMP POTENTIAL TOTALAVG TEMPAVG PRESSURE GPRESSURE VOLUME PRESSAVG GPRESSAVG
ENERGY: 0 5.8126 6.2969 3.9762 0.0000 -10606.9571 1411.5253 0.0000 0.0000 1675.3677 -7503.9784 288.7766 -9179.3461 -7503.9784 288.7766 -379.5506 -306.6813 29796.9107 -379.5506 -306.6813
ENERGY: 300000 1.6653 9.1642 5.1744 0.0000 -10608.1164 1385.0937 0.0000 0.0000 1759.8503 -7447.1685 303.3386 -9207.0188 -7421.9306 300.4880 -740.1150 -648.2414 30318.9969 -341.5266 -270.9412
ENERGY: 600000 4.2997 10.1934 3.7878 0.0000 -10529.8981 1455.9358 0.0000 0.0000 1711.8301 -7343.8514 295.0615 -9055.6814 -7381.9064 301.0694 415.3497 511.7545 29888.4330 133.4129 200.0707
ENERGY: 900000 3.9147 7.2276 5.3870 0.0000 -10396.3930 1332.3566 0.0000 0.0000 1686.9905 -7360.5165 290.7800 -9047.5070 -7365.7491 300.5879 -601.9830 -634.4057 30215.0223 -98.3194 -33.6728
ENERGY: 1200000 1.3072 2.4740 5.7264 0.0000 -10508.7937 1415.0549 0.0000 0.0000 1728.5511 -7355.6801 297.9436 -9084.2312 -7374.9572 299.3821 143.6335 248.6827 29823.9573 -75.2359 -13.4590
ENERGY: 1500000 0.4310 6.3163 7.6341 0.0000 -10533.1852 1363.3793 0.0000 0.0000 1768.8933 -7386.5311 304.8973 -9155.4244 -7386.0718 298.6513 -653.1494 -587.7008 30119.3157 -89.6430 -24.4264
TCL: Running FEP window   8: Lambda1 0.35   Lambda2 0.39999999999999997 [dLambda 0.04999999999999999]
TCL: Setting parameter firsttimestep to 0
TCL: Setting parameter alchLambda to 0.35
Info: NONBONDED TABLE R-SQUARED SPACING: 0.0625
Info: NONBONDED TABLE SIZE: 705 POINTS
TCL: Setting parameter alchLambda2 to 0.39999999999999997
Info: NONBONDED TABLE R-SQUARED SPACING: 0.0625
Info: NONBONDED TABLE SIZE: 705 POINTS
TCL: Running for 1500000 steps
ETITLE: TS BOND ANGLE DIHED IMPRP ELECT VDW BOUNDARY MISC KINETIC TOTAL TEMP POTENTIAL TOTALAVG TEMPAVG PRESSURE GPRESSURE VOLUME PRESSAVG GPRESSAVG
ENERGY: 0 0.4310 6.3163 7.6341 0.0000 -10533.1849 1362.9896 0.0000 0.0000 1768.0476 -7387.7663 304.7515 -9155.8138 -7387.7663 304.7515 -660.7170 -586.7775 30119.3157 -660.7170 -586.7775
ENERGY: 300000 1.7544 5.4493 3.7914 0.0000 -10541.9111 1383.8335 0.0000 0.0000 1708.5096 -7438.5729 294.4892 -9147.0825 -7372.6725 299.9338 -471.2640 -447.2584 29970.7498 -297.0268 -247.7268
ENERGY: 600000 0.8248 7.3284 4.9332 0.0000 -10417.6034 1365.0370 0.0000 0.0000 1760.7110 -7278.7690 303.4869 -9039.4800 -7361.1903 300.3876 -161.8363 -158.5299 29999.9493 -255.5403 -205.7555
ENERGY: 900000 2.3007 10.6273 4.0593 0.0000 -10480.1721 1350.4277 0.0000 0.0000 1768.5361 -7344.2211 304.8357 -9112.7572 -7362.1247 300.6851 -348.3776 -310.8838 29410.1185 -280.3517 -239.9278
ENERGY: 1200000 2.2669 5.3865 6.4133 0.0000 -10420.8642 1351.0246 0.0000 0.0000 1738.1347 -7317.6382 299.5955 -9055.7729 -7359.6993 300.3355 -303.4615 -325.0111 29978.6062 -235.1179 -196.8438
ENERGY: 1500000 2.6345 10.3028 7.9766 0.0000 -10608.2942 1436.6386 0.0000 0.0000 1742.4359 -7408.3057 300.3369 -9150.7416 -7366.6478 300.0108 73.9050 154.8803 29537.6433 -202.8427 -161.2038
TCL: Running FEP window   9: Lambda1 0.39999999999999997 Lambda2 0.44999999999999996 [dLambda 0.04999999999999999]
TCL: Setting parameter firsttimestep to 0
TCL: Setting parameter alchLambda to 0.39999999999999997
Info: NONBONDED TABLE R-SQUARED SPACING: 0.0625
Info: NONBONDED TABLE SIZE: 705 POINTS
TCL: Setting parameter alchLambda2 to 0.44999999999999996
Info: NONBONDED TABLE R-SQUARED SPACING: 0.0625
Info: NONBONDED TABLE SIZE: 705 POINTS
TCL: Running for 1500000 steps
ETITLE: TS BOND ANGLE DIHED IMPRP ELECT VDW BOUNDARY MISC KINETIC TOTAL TEMP POTENTIAL TOTALAVG TEMPAVG PRESSURE GPRESSURE VOLUME PRESSAVG GPRESSAVG
ENERGY: 0 2.6345 10.3028 7.9766 0.0000 -10608.2956 1437.3751 0.0000 0.0000 1741.6040 -7408.4024 300.1935 -9150.0064 -7408.4024 300.1935 71.6503 164.1087 29537.6433 71.6503 164.1087
ENERGY: 300000 1.0838 4.1000 10.6760 0.0000 -10644.9986 1464.1173 0.0000 0.0000 1777.1144 -7387.9072 306.3143 -9165.0215 -7377.9421 303.4548 226.5926 372.0337 29790.1894 292.5691 393.3211
ENERGY: 600000 1.7435 3.9808 5.2936 0.0000 -10609.9904 1481.7881 0.0000 0.0000 1797.2266 -7319.9579 309.7810 -9117.1844 -7396.7662 303.3770 444.7170 507.3121 30144.6877 304.9465 391.9888
ENERGY: 900000 2.8532 4.7417 6.4313 0.0000 -10473.8341 1352.0543 0.0000 0.0000 1752.8893 -7354.8644 302.1387 -9107.7537 -7374.5174 303.2325 -621.8395 -549.8601 30436.9037 188.7695 259.8026
ENERGY: 1200000 1.8833 4.2660 5.8565 0.0000 -10756.9441 1506.0066 0.0000 0.0000 1726.5081 -7512.4236 297.5915 -9238.9317 -7392.9101 302.1496 750.5212 737.2061 29467.3542 108.7737 173.7161
ENERGY: 1500000 1.4208 3.4897 7.0651 0.0000 -10576.7160 1417.8143 0.0000 0.0000 1795.0969 -7351.8293 309.4139 -9146.9262 -7382.6638 302.8217 -183.8282 -148.3234 30301.1818 -14.6349 53.9948
TCL: Running FEP window  10: Lambda1 0.44999999999999996 Lambda2 0.49999999999999994 [dLambda 0.04999999999999999]
TCL: Setting parameter firsttimestep to 0
TCL: Setting parameter alchLambda to 0.44999999999999996
Info: NONBONDED TABLE R-SQUARED SPACING: 0.0625
Info: NONBONDED TABLE SIZE: 705 POINTS
TCL: Setting parameter alchLambda2 to 0.49999999999999994
Info: NONBONDED TABLE R-SQUARED SPACING: 0.0625
Info: NONBONDED TABLE SIZE: 705 POINTS
TCL: Running for 1500000 steps
ETITLE: TS BOND ANGLE DIHED IMPRP ELECT VDW BOUNDARY MISC KINETIC TOTAL TEMP POTENTIAL TOTALAVG TEMPAVG PRESSURE GPRESSURE VOLUME PRESSAVG GPRESSAVG
ENERGY: 0 1.4208 3.4897 7.0651 0.0000 -10576.7161 1417.7866 0.0000 0.0000 1794.2138 -7352.7401 309.2617 -9146.9539 -7352.7401 309.2617 -221.3681 -143.6914 30301.1818 -221.3681 -143.6914
ENERGY: 300000 3.0206 10.1527 5.1336 0.0000 -10578.2554 1428.5797 0.0000 0.0000 1775.8630 -7355.5058 306.0986 -9131.3688 -7323.4058 305.8714 -9.6184 62.1422 29993.8851 -235.2068 -158.5504
ENERGY: 600000 4.8771 6.6712 4.8596 0.0000 -10536.0849 1429.6076 0.0000 0.0000 1756.9418 -7333.1277 302.8372 -9090.0695 -7348.3737 302.4879 -34.0732 33.3384 30044.8928 3.8487 60.8120
ENERGY: 900000 1.9064 6.2012 7.9292 0.0000 -10450.2343 1340.5181 0.0000 0.0000 1706.7584 -7386.9209 294.1873 -9093.6794 -7357.7457 302.5465 -616.1092 -606.3109 30256.1181 -185.3775 -132.8896
ENERGY: 1200000 2.2062 6.3092 5.5006 0.0000 -10600.2567 1445.0886 0.0000 0.0000 1785.5610 -7355.5911 307.7702 -9141.1521 -7349.3964 304.0415 300.6285 364.7690 29812.3472 -157.3865 -97.9870
ENERGY: 1500000 2.3128 2.5734 8.1945 0.0000 -10511.0376 1360.3271 0.0000 0.0000 1771.4144 -7366.2154 305.3318 -9137.6298 -7353.9139 303.5456 -770.0335 -633.9400 30476.3319 -167.2374 -106.3495
TCL: Running FEP window  11: Lambda1 0.49999999999999994 Lambda2 0.5499999999999999 [dLambda 0.04999999999999999]
TCL: Setting parameter firsttimestep to 0
TCL: Setting parameter alchLambda to 0.49999999999999994
Info: NONBONDED TABLE R-SQUARED SPACING: 0.0625
Info: NONBONDED TABLE SIZE: 705 POINTS
TCL: Setting parameter alchLambda2 to 0.5499999999999999
Info: NONBONDED TABLE R-SQUARED SPACING: 0.0625
Info: NONBONDED TABLE SIZE: 705 POINTS
TCL: Running for 1500000 steps
ETITLE: TS BOND ANGLE DIHED IMPRP ELECT VDW BOUNDARY MISC KINETIC TOTAL TEMP POTENTIAL TOTALAVG TEMPAVG PRESSURE GPRESSURE VOLUME PRESSAVG GPRESSAVG
ENERGY: 0 2.3128 2.5734 8.1945 0.0000 -10511.0373 1360.0183 0.0000 0.0000 1770.5246 -7367.4137 305.1785 -9137.9383 -7367.4137 305.1785 -722.1497 -633.2751 30476.3319 -722.1497 -633.2751
ENERGY: 300000 2.9517 4.4604 8.6539 0.0000 -10723.8735 1540.7272 0.0000 0.0000 1784.7651 -7382.3152 307.6330 -9167.0803 -7400.1507 303.4682 755.6827 745.1604 29995.4146 335.5916 388.5528
ENERGY: 600000 2.0443 4.2594 6.1486 0.0000 -10588.0965 1419.9985 0.0000 0.0000 1780.4045 -7375.2413 306.8814 -9155.6457 -7385.4786 303.8344 7.1464 133.5664 29585.8273 171.1504 237.7247
ENERGY: 900000 1.7129 4.3743 7.5531 0.0000 -10506.7064 1406.3200 0.0000 0.0000 1738.5264 -7348.2197 299.6631 -9086.7461 -7389.0152 302.4298 -61.6642 21.8219 30143.3691 2.8218 78.2159
ENERGY: 1200000 1.2517 7.3756 4.2443 0.0000 -10557.9725 1407.2802 0.0000 0.0000 1695.7019 -7442.1188 292.2816 -9137.8207 -7384.0513 301.4934 -358.6687 -257.0025 30097.9357 -7.8676 65.3922
ENERGY: 1500000 2.8230 9.4017 5.1439 0.0000 -10575.4542 1430.9093 0.0000 0.0000 1723.7632 -7403.4131 297.1184 -9127.1763 -7387.2128 300.6613 -90.0739 7.0917 29867.6397 12.8647 88.3663
TCL: Running FEP window  12: Lambda1 0.5499999999999999 Lambda2 0.6    [dLambda 0.050000000000000044]
TCL: Setting parameter firsttimestep to 0
TCL: Setting parameter alchLambda to 0.5499999999999999
Info: NONBONDED TABLE R-SQUARED SPACING: 0.0625
Info: NONBONDED TABLE SIZE: 705 POINTS
TCL: Setting parameter alchLambda2 to 0.6
Info: NONBONDED TABLE R-SQUARED SPACING: 0.0625
Info: NONBONDED TABLE SIZE: 705 POINTS
TCL: Running for 1500000 steps
ETITLE: TS BOND ANGLE DIHED IMPRP ELECT VDW BOUNDARY MISC KINETIC TOTAL TEMP POTENTIAL TOTALAVG TEMPAVG PRESSURE GPRESSURE VOLUME PRESSAVG GPRESSAVG
ENERGY: 0 2.8230 9.4017 5.1439 0.0000 -10575.0687 1430.8681 0.0000 0.0000 1722.9043 -7403.9276 296.9703 -9126.8320 -7403.9276 296.9703 -62.3131 14.4125 29867.6397 -62.3131 14.4125
ENERGY: 300000 3.0030 4.2735 4.0068 0.0000 -10581.6053 1459.3194 0.0000 0.0000 1749.4615 -7361.5412 301.5479 -9111.0027 -7381.8473 301.0773 356.3620 317.1866 29852.6629 194.3351 217.2602
ENERGY: 600000 3.5498 8.9880 6.3825 0.0000 -10426.3138 1351.2761 0.0000 0.0000 1781.4418 -7274.6756 307.0602 -9056.1174 -7360.4825 304.0245 -110.2036 -35.2189 29552.9496 222.5823 274.3329
ENERGY: 900000 1.4686 7.7906 7.3381 0.0000 -10526.3625 1405.7911 0.0000 0.0000 1742.6299 -7361.3442 300.3704 -9103.9741 -7351.5236 303.3595 -190.5609 -131.6405 30240.9933 63.8641 123.5521
ENERGY: 1200000 2.4697 4.4816 6.3358 0.0000 -10461.0254 1343.8245 0.0000 0.0000 1722.4870 -7381.4268 296.8984 -9103.9138 -7373.0820 301.5258 -745.9300 -710.6194 30216.1632 -119.8773 -61.1725
ENERGY: 1500000 1.2776 3.5932 6.3874 0.0000 -10454.9455 1384.9317 0.0000 0.0000 1733.5770 -7325.1786 298.8099 -9058.7556 -7362.3861 301.4021 142.2604 127.1611 29742.1552 -68.7443 -12.3981
TCL: Running FEP window  13: Lambda1 0.6    Lambda2 0.65   [dLambda 0.050000000000000044]
TCL: Setting parameter firsttimestep to 0
TCL: Setting parameter alchLambda to 0.6
Info: NONBONDED TABLE R-SQUARED SPACING: 0.0625
Info: NONBONDED TABLE SIZE: 705 POINTS
TCL: Setting parameter alchLambda2 to 0.65
Info: NONBONDED TABLE R-SQUARED SPACING: 0.0625
Info: NONBONDED TABLE SIZE: 705 POINTS
TCL: Running for 1500000 steps
ETITLE: TS BOND ANGLE DIHED IMPRP ELECT VDW BOUNDARY MISC KINETIC TOTAL TEMP POTENTIAL TOTALAVG TEMPAVG PRESSURE GPRESSURE VOLUME PRESSAVG GPRESSAVG
ENERGY: 0 1.2776 3.5932 6.3874 0.0000 -10455.9993 1385.5076 0.0000 0.0000 1732.6688 -7326.5646 298.6534 -9059.2334 -7326.5646 298.6534 49.4382 137.2017 29742.1552 49.4382 137.2017
ENERGY: 300000 0.9880 5.3018 6.1889 0.0000 -10476.8645 1356.7111 0.0000 0.0000 1768.9471 -7338.7275 304.9066 -9107.6746 -7366.9111 299.0095 -495.4936 -474.4023 30205.6784 -13.6317 24.5416
ENERGY: 600000 1.8404 3.9833 6.6110 0.0000 -10620.1711 1457.7479 0.0000 0.0000 1743.0630 -7406.9254 300.4450 -9149.9885 -7365.5767 301.1545 -16.4386 95.9115 30397.0350 -71.6727 -15.4703
ENERGY: 900000 1.6034 6.8060 6.1919 0.0000 -10590.1787 1438.3738 0.0000 0.0000 1726.3719 -7410.8317 297.5680 -9137.2035 -7386.6829 300.5697 218.9703 264.3408 29941.0629 -91.5007 -34.7928
ENERGY: 1200000 2.2282 3.5262 5.5402 0.0000 -10648.7839 1518.4635 0.0000 0.0000 1739.4009 -7379.6250 299.8138 -9119.0259 -7380.1778 300.7587 600.1571 637.8002 30143.7655 -109.8343 -52.3209
ENERGY: 1500000 2.1684 5.4110 5.6313 0.0000 -10503.7257 1371.5768 0.0000 0.0000 1713.2227 -7405.7155 295.3015 -9118.9382 -7376.4252 300.5738 -724.9546 -639.3768 30260.2513 -92.6775 -33.1985
TCL: Running FEP window  14: Lambda1 0.65   Lambda2 0.7000000000000001 [dLambda 0.050000000000000044]
TCL: Setting parameter firsttimestep to 0
TCL: Setting parameter alchLambda to 0.65
Info: NONBONDED TABLE R-SQUARED SPACING: 0.0625
Info: NONBONDED TABLE SIZE: 705 POINTS
TCL: Setting parameter alchLambda2 to 0.7000000000000001
Info: NONBONDED TABLE R-SQUARED SPACING: 0.0625
Info: NONBONDED TABLE SIZE: 705 POINTS
TCL: Running for 1500000 steps
ETITLE: TS BOND ANGLE DIHED IMPRP ELECT VDW BOUNDARY MISC KINETIC TOTAL TEMP POTENTIAL TOTALAVG TEMPAVG PRESSURE GPRESSURE VOLUME PRESSAVG GPRESSAVG
ENERGY: 0 2.1684 5.4110 5.6313 0.0000 -10503.9720 1371.3342 0.0000 0.0000 1712.4019 -7407.0253 295.1601 -9119.4272 -7407.0253 295.1601 -713.9960 -632.4201 30260.2513 -713.9960 -632.4201
ENERGY: 300000 5.7777 4.6720 6.9276 0.0000 -10549.8005 1367.5047 0.0000 0.0000 1770.0908 -7394.8278 305.1037 -9164.9186 -7422.8323 296.5044 -754.8312 -703.4531 29934.2180 -329.5272 -247.2172
ENERGY: 600000 2.6658 6.0061 7.4684 0.0000 -10638.5400 1458.5974 0.0000 0.0000 1757.3159 -7406.4864 302.9017 -9163.8023 -7403.6202 299.2810 441.3775 522.4041 29753.1460 -219.9139 -144.8406
ENERGY: 900000 1.2630 8.0112 6.3588 0.0000 -10507.1761 1396.8980 0.0000 0.0000 1808.8201 -7285.8250 311.7793 -9094.6451 -7390.9431 300.6371 -114.8612 -74.6214 29919.0539 -62.3933 14.6502
ENERGY: 1200000 4.7935 4.5834 4.1765 0.0000 -10641.7622 1503.4468 0.0000 0.0000 1825.6058 -7299.1561 314.6726 -9124.7620 -7369.7054 303.2604 725.2787 777.7632 29597.6855 149.8266 225.9063
ENERGY: 1500000 1.6729 6.0655 7.2108 0.0000 -10549.2081 1395.4635 0.0000 0.0000 1769.0037 -7369.7917 304.9163 -9138.7954 -7371.8363 303.2256 -297.0300 -255.5297 30447.8427 142.9214 220.5426
TCL: Running FEP window  15: Lambda1 0.7000000000000001 Lambda2 0.7500000000000001 [dLambda 0.050000000000000044]
TCL: Setting parameter firsttimestep to 0
TCL: Setting parameter alchLambda to 0.7000000000000001
Info: NONBONDED TABLE R-SQUARED SPACING: 0.0625
Info: NONBONDED TABLE SIZE: 705 POINTS
TCL: Setting parameter alchLambda2 to 0.7500000000000001
Info: NONBONDED TABLE R-SQUARED SPACING: 0.0625
Info: NONBONDED TABLE SIZE: 705 POINTS
TCL: Running for 1500000 steps
ETITLE: TS BOND ANGLE DIHED IMPRP ELECT VDW BOUNDARY MISC KINETIC TOTAL TEMP POTENTIAL TOTALAVG TEMPAVG PRESSURE GPRESSURE VOLUME PRESSAVG GPRESSAVG
ENERGY: 0 1.6729 6.0655 7.2108 0.0000 -10549.3923 1395.5311 0.0000 0.0000 1768.1277 -7370.7843 304.7653 -9138.9120 -7370.7843 304.7653 -341.8843 -243.7323 30447.8427 -341.8843 -243.7323
ENERGY: 300000 1.3164 3.6072 8.8750 0.0000 -10683.7141 1457.8919 0.0000 0.0000 1756.4517 -7455.5720 302.7528 -9212.0237 -7374.4116 304.5923 254.0657 298.3967 29841.2270 131.5782 191.9996
ENERGY: 600000 0.6423 7.7866 5.5515 0.0000 -10598.8425 1380.1908 0.0000 0.0000 1717.1847 -7487.4867 295.9845 -9204.6714 -7394.1074 300.6844 -481.2386 -450.6013 29819.5130 71.6624 134.3061
ENERGY: 900000 1.8341 4.1915 6.7915 0.0000 -10529.5865 1406.5843 0.0000 0.0000 1787.2077 -7322.9774 308.0541 -9110.1852 -7373.8084 301.9168 -183.7657 -126.4804 30104.2977 -2.7626 61.9456
ENERGY: 1200000 1.8034 6.7424 6.7210 0.0000 -10578.1249 1425.4839 0.0000 0.0000 1690.7221 -7446.6520 291.4232 -9137.3741 -7373.1580 300.2565 139.1706 208.8043 29860.3081 -36.8953 25.9775
ENERGY: 1500000 0.2539 4.0681 7.7618 0.0000 -10422.9856 1369.3666 0.0000 0.0000 1701.1241 -7340.4111 293.2162 -9041.5352 -7377.8179 299.1430 -407.5404 -427.1047 30500.1467 -3.9814 48.1415
TCL: Running FEP window  16: Lambda1 0.7500000000000001 Lambda2 0.8000000000000002 [dLambda 0.050000000000000044]
TCL: Setting parameter firsttimestep to 0
TCL: Setting parameter alchLambda to 0.7500000000000001
Info: NONBONDED TABLE R-SQUARED SPACING: 0.0625
Info: NONBONDED TABLE SIZE: 705 POINTS
TCL: Setting parameter alchLambda2 to 0.8000000000000002
Info: NONBONDED TABLE R-SQUARED SPACING: 0.0625
Info: NONBONDED TABLE SIZE: 705 POINTS
TCL: Running for 1500000 steps
ETITLE: TS BOND ANGLE DIHED IMPRP ELECT VDW BOUNDARY MISC KINETIC TOTAL TEMP POTENTIAL TOTALAVG TEMPAVG PRESSURE GPRESSURE VOLUME PRESSAVG GPRESSAVG
ENERGY: 0 0.2539 4.0681 7.7618 0.0000 -10422.7811 1369.7688 0.0000 0.0000 1700.2743 -7340.6542 293.0697 -9040.9285 -7340.6542 293.0697 -482.6326 -414.2814 30500.1467 -482.6326 -414.2814
ENERGY: 300000 0.4327 8.8060 8.2550 0.0000 -10637.2775 1531.8788 0.0000 0.0000 1690.9760 -7396.9290 291.4670 -9087.9050 -7388.3412 295.3022 942.6968 1031.2352 30061.8424 103.7295 165.8835
ENERGY: 600000 1.3482 8.1973 7.9216 0.0000 -10617.4212 1418.5689 0.0000 0.0000 1725.1939 -7456.1914 297.3650 -9181.3853 -7396.7719 296.5761 -322.5477 -255.1594 30175.8207 -83.0537 -34.0737
ENERGY: 900000 2.0711 6.6292 5.8077 0.0000 -10666.6169 1460.2290 0.0000 0.0000 1708.3568 -7483.5231 294.4628 -9191.8799 -7396.2397 297.4593 -15.8001 15.5859 30024.5007 -62.3356 -11.5107
ENERGY: 1200000 4.3771 6.2104 3.3656 0.0000 -10597.2284 1435.4209 0.0000 0.0000 1716.7326 -7431.1219 295.9065 -9147.8544 -7392.4068 298.1432 -161.0757 -133.3677 30078.4062 -83.2976 -33.3832
ENERGY: 1500000 2.3241 4.6450 5.2355 0.0000 -10662.2563 1488.3689 0.0000 0.0000 1746.5020 -7415.1809 301.0378 -9161.6829 -7382.6899 299.5017 702.8719 759.1451 29490.0118 -81.1689 -34.0452
TCL: Running FEP window  17: Lambda1 0.8000000000000002 Lambda2 0.8500000000000002 [dLambda 0.050000000000000044]
TCL: Setting parameter firsttimestep to 0
TCL: Setting parameter alchLambda to 0.8000000000000002
Info: NONBONDED TABLE R-SQUARED SPACING: 0.0625
Info: NONBONDED TABLE SIZE: 705 POINTS
TCL: Setting parameter alchLambda2 to 0.8500000000000002
Info: NONBONDED TABLE R-SQUARED SPACING: 0.0625
Info: NONBONDED TABLE SIZE: 705 POINTS
TCL: Running for 1500000 steps
ETITLE: TS BOND ANGLE DIHED IMPRP ELECT VDW BOUNDARY MISC KINETIC TOTAL TEMP POTENTIAL TOTALAVG TEMPAVG PRESSURE GPRESSURE VOLUME PRESSAVG GPRESSAVG
ENERGY: 0 2.3241 4.6450 5.2355 0.0000 -10662.6083 1490.0231 0.0000 0.0000 1745.6105 -7414.7701 300.8841 -9160.3806 -7414.7701 300.8841 690.0353 784.7546 29490.0118 690.0353 784.7546
ENERGY: 300000 3.3737 4.6308 5.3719 0.0000 -10533.3726 1440.1696 0.0000 0.0000 1726.3867 -7353.4400 297.5706 -9079.8267 -7339.1741 300.9662 10.8488 120.2279 30024.9431 281.6491 367.6645
ENERGY: 600000 3.4274 3.8425 6.2759 0.0000 -10611.2209 1462.7019 0.0000 0.0000 1717.9674 -7417.0057 296.1194 -9134.9732 -7363.6565 299.7331 539.8865 655.8083 29945.6922 277.3061 360.4459
ENERGY: 900000 2.1988 6.1548 5.8960 0.0000 -10603.5415 1465.3777 0.0000 0.0000 1740.1228 -7383.7913 299.9382 -9123.9142 -7360.7479 300.3209 119.5742 175.2011 30260.1760 156.1971 237.8792
ENERGY: 1200000 1.2224 11.5486 3.7908 0.0000 -10542.9631 1435.5656 0.0000 0.0000 1755.4958 -7335.3400 302.5880 -9090.8358 -7358.4032 300.3681 538.0474 520.5957 29651.9766 80.3805 152.0179
ENERGY: 1500000 2.8483 4.9772 7.1505 0.0000 -10536.8527 1457.7076 0.0000 0.0000 1723.6337 -7340.5354 297.0961 -9064.1691 -7361.5869 300.3846 493.4702 469.4825 29983.4627 84.9750 153.7717
TCL: Running FEP window  18: Lambda1 0.8500000000000002 Lambda2 0.9000000000000002 [dLambda 0.050000000000000044]
TCL: Setting parameter firsttimestep to 0
TCL: Setting parameter alchLambda to 0.8500000000000002
Info: NONBONDED TABLE R-SQUARED SPACING: 0.0625
Info: NONBONDED TABLE SIZE: 705 POINTS
TCL: Setting parameter alchLambda2 to 0.9000000000000002
Info: NONBONDED TABLE R-SQUARED SPACING: 0.0625
Info: NONBONDED TABLE SIZE: 705 POINTS
TCL: Running for 1500000 steps
ETITLE: TS BOND ANGLE DIHED IMPRP ELECT VDW BOUNDARY MISC KINETIC TOTAL TEMP POTENTIAL TOTALAVG TEMPAVG PRESSURE GPRESSURE VOLUME PRESSAVG GPRESSAVG
ENERGY: 0 2.8483 4.9772 7.1505 0.0000 -10536.9803 1457.6046 0.0000 0.0000 1722.7867 -7341.6130 296.9501 -9064.3997 -7341.6130 296.9501 390.8334 477.2827 29983.4627 390.8334 477.2827
ENERGY: 300000 2.4542 5.7986 7.4111 0.0000 -10496.5629 1382.4591 0.0000 0.0000 1752.6530 -7345.7869 302.0980 -9098.4399 -7368.8713 298.3553 -264.1861 -268.6101 30006.7526 -500.1263 -464.3882
ENERGY: 600000 0.8853 5.1908 5.4137 0.0000 -10622.7320 1489.7375 0.0000 0.0000 1752.8017 -7368.7031 302.1236 -9121.5048 -7368.2440 298.6373 701.8903 754.5054 29817.5645 -259.3956 -207.6964
ENERGY: 900000 2.6355 8.2910 5.8904 0.0000 -10509.5189 1369.5213 0.0000 0.0000 1729.5768 -7393.6040 298.1204 -9123.1808 -7363.3151 300.4129 -424.2623 -354.8890 29902.8046 -145.5810 -90.9076
ENERGY: 1200000 3.8775 7.1740 3.7200 0.0000 -10426.3876 1380.9798 0.0000 0.0000 1745.4716 -7285.1647 300.8602 -9030.6363 -7368.8831 299.9336 6.7059 95.1870 29658.6901 -38.4749 23.7606
ENERGY: 1500000 1.4036 4.1832 8.1037 0.0000 -10498.4262 1364.3015 0.0000 0.0000 1777.6194 -7342.8147 306.4014 -9120.4342 -7366.2158 300.6041 -256.7451 -231.3301 29667.2748 5.5980 63.5213
TCL: Running FEP window  19: Lambda1 0.9000000000000002 Lambda2 0.9500000000000003 [dLambda 0.050000000000000044]
TCL: Setting parameter firsttimestep to 0
TCL: Setting parameter alchLambda to 0.9000000000000002
Info: NONBONDED TABLE R-SQUARED SPACING: 0.0625
Info: NONBONDED TABLE SIZE: 705 POINTS
TCL: Setting parameter alchLambda2 to 0.9500000000000003
Info: NONBONDED TABLE R-SQUARED SPACING: 0.0625
Info: NONBONDED TABLE SIZE: 705 POINTS
TCL: Running for 1500000 steps
ETITLE: TS BOND ANGLE DIHED IMPRP ELECT VDW BOUNDARY MISC KINETIC TOTAL TEMP POTENTIAL TOTALAVG TEMPAVG PRESSURE GPRESSURE VOLUME PRESSAVG GPRESSAVG
ENERGY: 0 1.4036 4.1832 8.1037 0.0000 -10498.7382 1364.4574 0.0000 0.0000 1776.7610 -7343.8294 306.2534 -9120.5903 -7343.8294 306.2534 -299.5821 -220.0831 29667.2748 -299.5821 -220.0831
ENERGY: 300000 3.2407 6.4182 5.0341 0.0000 -10480.7856 1352.8130 0.0000 0.0000 1767.3044 -7345.9752 304.6234 -9113.2796 -7362.1445 305.3529 -749.7803 -694.4439 30424.9163 -274.5344 -219.4493
ENERGY: 600000 1.4204 5.3868 6.5202 0.0000 -10542.2420 1425.6359 0.0000 0.0000 1726.2008 -7377.0780 297.5385 -9103.2787 -7378.3216 302.7546 208.1938 220.6817 29658.1530 -309.3384 -265.4998
ENERGY: 900000 3.7561 6.5654 7.3062 0.0000 -10734.7167 1503.6845 0.0000 0.0000 1757.2422 -7456.1623 302.8890 -9213.4045 -7400.4098 302.0637 282.6695 342.0001 29985.4444 -154.6945 -104.2220
ENERGY: 1200000 1.8208 3.5251 4.5185 0.0000 -10551.3848 1394.2979 0.0000 0.0000 1673.2833 -7473.9392 288.4174 -9147.2225 -7406.2826 300.1350 -231.1588 -156.8357 30211.1254 -246.3799 -185.9924
ENERGY: 1500000 1.2253 4.2475 4.6637 0.0000 -10541.8521 1367.2311 0.0000 0.0000 1746.1505 -7418.3340 300.9772 -9164.4845 -7402.4345 300.2671 -608.6954 -591.1327 30303.8772 -271.1362 -215.8242
TCL: Running FEP window  20: Lambda1 0.9500000000000003 Lambda2 1.0    [dLambda 0.04999999999999971]
TCL: Setting parameter firsttimestep to 0
TCL: Setting parameter alchLambda to 0.9500000000000003
Info: NONBONDED TABLE R-SQUARED SPACING: 0.0625
Info: NONBONDED TABLE SIZE: 705 POINTS
TCL: Setting parameter alchLambda2 to 1.0
Info: NONBONDED TABLE R-SQUARED SPACING: 0.0625
Info: NONBONDED TABLE SIZE: 705 POINTS
TCL: Running for 1500000 steps
ETITLE: TS BOND ANGLE DIHED IMPRP ELECT VDW BOUNDARY MISC KINETIC TOTAL TEMP POTENTIAL TOTALAVG TEMPAVG PRESSURE GPRESSURE VOLUME PRESSAVG GPRESSAVG
ENERGY: 0 1.2253 4.2475 4.6637 0.0000 -10542.5824 1366.9620 0.0000 0.0000 1745.2947 -7420.1893 300.8297 -9165.4840 -7420.1893 300.8297 -655.0743 -584.2018 30303.8772 -655.0743 -584.2018
ENERGY: 300000 3.6618 8.1545 6.1457 0.0000 -10532.2709 1400.3668 0.0000 0.0000 1750.0432 -7363.8990 301.6482 -9113.9421 -7341.6862 306.4844 -153.2955 -120.4278 30091.4170 330.0665 390.0120
ENERGY: 600000 3.1246 2.8989 5.7512 0.0000 -10477.9217 1370.8383 0.0000 0.0000 1717.4659 -7377.8428 296.0329 -9095.3087 -7340.5889 303.5199 -429.3799 -312.9866 30161.5340 232.9047 298.1234
ENERGY: 900000 1.3768 6.5310 5.7347 0.0000 -10620.2722 1366.6874 0.0000 0.0000 1700.3720 -7539.5704 293.0865 -9239.9423 -7365.1933 302.3494 -577.5329 -495.3735 29575.9454 113.4154 183.2759
ENERGY: 1200000 0.6491 1.9558 7.3205 0.0000 -10631.6257 1525.3970 0.0000 0.0000 1772.0926 -7324.2108 305.4487 -9096.3034 -7366.6421 302.3112 869.1614 956.5201 30074.3652 102.5656 171.9485
ENERGY: 1500000 2.0990 5.4650 5.7522 0.0000 -10570.2732 1422.7534 0.0000 0.0000 1709.2776 -7424.9259 294.6215 -9134.2035 -7368.1967 302.5119 75.5108 116.8097 30151.2804 -24.3020 41.0057
TCL: Exiting due to exit command.
