Info: SIMULATION PARAMETERS:
Info: TIMESTEP               2
Info: NUMBER OF STEPS        0
Info: STEPS PER CYCLE        10
Info: PERIODIC CELL BASIS 1  32.2922 0 0
Info: PERIODIC CELL BASIS 2  0 30.619 0
Info: PERIODIC CELL BASIS 3  0 0 30.8467
Info: PERIODIC CELL CENTER   0 0 0
Info: WRAPPING WATERS AROUND PERIODIC BOUNDARIES ON OUTPUT.
Info: WRAPPING ALL CLUSTERS AROUND PERIODIC BOUNDARIES ON OUTPUT.
Info: FIRST LDB TIMESTEP     50
Info: LAST LDB TIMESTEP     -1
Info: HOM BACKGROUND SCALING 1
Info: PME BACKGROUND SCALING 1
Info: MIN ATOMS PER PATCH    40
Info: EMPTY PATCH LOAD       40 ATOMS
Info: VELOCITY FILE          mobley_4678740_equil.vel
Info: CENTER OF MASS MOVING INITIALLY? NO
Info: DIELECTRIC             1
Info: EXCLUDE                SCALED ONE-FOUR
Info: 1-4 ELECTROSTATICS SCALED BY 0.833333
Info: MODIFIED 1-4 VDW PARAMETERS WILL BE USED
Info: DCD FILENAME           mobley_4678740_prod.dcd
Info: DCD FREQUENCY          100000
Info: DCD FIRST STEP         100000
Info: DCD FILE WILL CONTAIN UNIT CELL DATA
Info: XST FILENAME           mobley_4678740_prod.xst
Info: XST FREQUENCY          100000
Info: NO VELOCITY DCD OUTPUT
Info: NO FORCE DCD OUTPUT
Info: OUTPUT FILENAME        mobley_4678740_prod
Info: BINARY OUTPUT FILES WILL BE USED
Info: RESTART FILENAME       mobley_4678740_prod.restart
Info: RESTART FREQUENCY      100000
Info: BINARY RESTART FILES WILL BE USED
Info: CUTOFF                 9
Info: PAIRLIST DISTANCE      11
Info: PAIRLIST SHRINK RATE   0.01
Info: PAIRLIST GROW RATE     0.01
Info: PAIRLIST TRIGGER       0.3
Info: PAIRLISTS PER CYCLE    2
Info: PAIRLISTS ENABLED
Info: MARGIN                 2
Info: HYDROGEN GROUP CUTOFF  2.5
Info: PATCH DIMENSION        15.5
Info: ENERGY OUTPUT STEPS    100000
Info: ENERGY EVALUATION STEPS    100000
Info: OUTPUT ENERGY PRECISION 4
Info: CROSSTERM ENERGY INCLUDED IN DIHEDRAL
Info: TIMING OUTPUT STEPS    1000000
Info: PRESSURE OUTPUT STEPS  100000
Info: ALCHEMICAL FEP ON
Info: FEP CURRENT LAMBDA VALUE     0
Info: FEP COMPARISON LAMBDA VALUE  0.05
Info: FEP INTRA-ALCHEMICAL NON-BONDED INTERACTIONS WILL BE RETAINED
Info: FEP INTRA-ALCHEMICAL BONDED INTERACTIONS WILL BE RETAINED
Info: FEP VDW SHIFTING COEFFICIENT 5
Info: FEP ELEC. ACTIVE FOR ANNIHILATED PARTICLES BETWEEN LAMBDA = 0 AND LAMBDA = 0.5
Info: FEP ELEC. ACTIVE FOR EXNIHILATED PARTICLES BETWEEN LAMBDA = 0.5 AND LAMBDA = 1
Info: FEP VDW ACTIVE FOR ANNIHILATED PARTICLES BETWEEN LAMBDA = 0 AND LAMBDA = 1
Info: FEP VDW ACTIVE FOR EXNIHILATED PARTICLES BETWEEN LAMBDA = 0 AND LAMBDA = 1
Info: FEP BOND ACTIVE FOR ANNIHILATED PARTICLES BETWEEN LAMBDA = 1 AND LAMBDA = 1
Info: FEP BOND ACTIVE FOR EXNIHILATED PARTICLES BETWEEN LAMBDA = 0 AND LAMBDA = 0
Info: LANGEVIN DYNAMICS ACTIVE
Info: LANGEVIN TEMPERATURE   300
Info: LANGEVIN USING BBK INTEGRATOR
Info: LANGEVIN DAMPING COEFFICIENT IS 1 INVERSE PS
Info: LANGEVIN DYNAMICS APPLIED TO HYDROGENS
Info: LANGEVIN PISTON PRESSURE CONTROL ACTIVE
Info:        TARGET PRESSURE IS 1.01325 BAR
Info:     OSCILLATION PERIOD IS 50 FS
Info:             DECAY TIME IS 25 FS
Info:     PISTON TEMPERATURE IS 300 K
Info:       PRESSURE CONTROL IS GROUP-BASED
Info:    INITIAL STRAIN RATE IS -9.86514e-06 -9.86514e-06 -9.86514e-06
Info:       CELL FLUCTUATION IS ISOTROPIC
Info: PARTICLE MESH EWALD (PME) ACTIVE
Info: PME TOLERANCE               1e-06
Info: PME EWALD COEFFICIENT       0.348832
Info: PME INTERPOLATION ORDER     4
Info: PME GRID DIMENSIONS         36 32 32
Info: PME MAXIMUM GRID SPACING    1
Info: PME CALCULATION WILL BE PERFORMED ON GPU
Info: FULL ELECTROSTATIC EVALUATION FREQUENCY      2
Info: USING VERLET I (r-RESPA) MTS SCHEME.
Info: C1 SPLITTING OF LONG RANGE ELECTROSTATICS
Info: PLACING ATOMS IN PATCHES BY HYDROGEN GROUPS
Info: RIGID BONDS TO HYDROGEN : ALL
Info:         ERROR TOLERANCE : 1e-08
Info:          MAX ITERATIONS : 100
Info: RIGID WATER USING SETTLE ALGORITHM
Info: RANDOM NUMBER SEED     1743599809
Info: USE HYDROGEN BONDS?    NO
Info: Using AMBER format force field!
Info: AMBER PARM FILE        mobley_4678740.prmtop
Info: COORDINATE PDB         mobley_4678740.pdb
Info: Exclusions will be read from PARM file!
Info: SCNB (VDW SCALING)     2
Info: USING ARITHMETIC MEAN TO COMBINE L-J SIGMA PARAMETERS
Info: BINARY COORDINATES     mobley_4678740_equil.coor
Info: SUMMARY OF PARAMETERS:
Info: 6 BONDS
Info: 5 ANGLES
Info:   5 HARMONIC
Info:   0 COSINE-BASED
Info: 3 DIHEDRAL
Info: 0 IMPROPER
Info: 0 CROSSTERM
Info: 0 VDW
Info: 21 VDW_PAIRS
Info: 0 NBTHOLE_PAIRS
Info: To read alchdata from file: mobley_4678740.pdb
Info: To read alchflag data from column: 5
Info: STRUCTURE SUMMARY:
Info: 2949 ATOMS
Info: 2949 BONDS
Info: 30 ANGLES
Info: 42 DIHEDRALS
Info: 0 IMPROPERS
Info: 0 CROSSTERMS
Info: 3012 EXCLUSIONS
Info: 2935 RIGID BONDS
Info: ALCH: 0 ATOMS TO DISAPPEAR IN FINAL STATE
Info: ALCH: 18 ATOMS TO APPEAR IN FINAL STATE
Info: 5912 DEGREES OF FREEDOM
Info: 991 HYDROGEN GROUPS
Info: 3 ATOMS IN LARGEST HYDROGEN GROUP
Info: 991 MIGRATION GROUPS
Info: 3 ATOMS IN LARGEST MIGRATION GROUP
Info: TOTAL MASS = 17815.7 amu
Info: TOTAL CHARGE = 0.000200085 e
Info: MASS DENSITY = 0.969985 g/cm^3
Info: ATOM DENSITY = 0.0966889 atoms/A^3
Info: ADDED 0 IMPLICIT EXCLUSIONS
Info: NONBONDED TABLE R-SQUARED SPACING: 0.0625
Info: NONBONDED TABLE SIZE: 705 POINTS
Info: REMOVING COM VELOCITY -0.0862449 -0.0560269 0.00295724
Info: Use 3D box decompostion in PME FFT.
Info: Updated CUDA force table with 4096 elements.
Info: Updated CUDA LJ table with 6 x 6 elements.
Info: Found 21 unique exclusion lists needing 56 bytes
TCL: Running for 1500000 steps
ETITLE: TS BOND ANGLE DIHED IMPRP ELECT VDW BOUNDARY MISC KINETIC TOTAL TEMP POTENTIAL TOTALAVG TEMPAVG PRESSURE GPRESSURE VOLUME PRESSAVG GPRESSAVG
ENERGY: 0 3.4927 7.3429 3.5878 0.0000 -10669.4608 1466.3262 0.0000 0.0000 1761.3446 -7427.3666 299.8474 -9188.7112 -7427.3666 299.8474 -5.4400 67.5751 30499.8772 -5.4400 67.5751
ENERGY: 300000 6.3422 5.4170 3.3785 0.0000 -10580.8483 1365.6501 0.0000 0.0000 1723.8293 -7476.2311 293.4609 -9200.0604 -7450.7357 298.4903 -780.0296 -747.3855 30651.7007 -254.4600 -213.1542
ENERGY: 600000 4.1986 6.3224 2.3077 0.0000 -10803.0538 1544.6237 0.0000 0.0000 1786.2326 -7459.3688 304.0843 -9245.6014 -7453.6045 299.2013 182.1416 263.4525 30921.5400 -45.6259 -2.9945
ENERGY: 900000 5.1773 3.8219 3.8955 0.0000 -10629.8610 1430.3883 0.0000 0.0000 1771.0351 -7415.5428 301.4971 -9186.5780 -7446.1593 299.7613 -409.9640 -353.0878 30735.9254 -116.4276 -63.6025
ENERGY: 1200000 2.8312 8.4009 5.1030 0.0000 -10654.8481 1527.6571 0.0000 0.0000 1692.6827 -7418.1731 288.1586 -9110.8559 -7441.6797 299.2220 594.9274 680.7612 30576.4954 -33.0122 22.4605
ENERGY: 1500000 2.5988 4.8352 1.6804 0.0000 -10583.4027 1418.5190 0.0000 0.0000 1750.7913 -7404.9781 298.0508 -9155.7693 -7437.7784 299.8318 -167.8047 -133.6414 30349.3570 -10.9139 42.9375
TCL: Running FEP window   2: Lambda1 0.05   Lambda2 0.1    [dLambda 0.05  ]
TCL: Setting parameter firsttimestep to 0
TCL: Setting parameter alchLambda to 0.05
Info: NONBONDED TABLE R-SQUARED SPACING: 0.0625
Info: NONBONDED TABLE SIZE: 705 POINTS
TCL: Setting parameter alchLambda2 to 0.1
Info: NONBONDED TABLE R-SQUARED SPACING: 0.0625
Info: NONBONDED TABLE SIZE: 705 POINTS
TCL: Running for 1500000 steps
ETITLE: TS BOND ANGLE DIHED IMPRP ELECT VDW BOUNDARY MISC KINETIC TOTAL TEMP POTENTIAL TOTALAVG TEMPAVG PRESSURE GPRESSURE VOLUME PRESSAVG GPRESSAVG
ENERGY: 0 2.5988 4.8352 1.6804 0.0000 -10583.4012 1423.5841 0.0000 0.0000 1749.9326 -7400.7701 297.9046 -9150.7027 -7400.7701 297.9046 -213.4675 -122.6593 30349.3570 -213.4675 -122.6593
ENERGY: 300000 4.8883 7.7757 2.6437 0.0000 -10632.9471 1469.6100 0.0000 0.0000 1795.0121 -7353.0174 305.5789 -9148.0294 -7363.2743 303.5389 -206.2151 -106.0971 31028.5866 192.5536 274.9360
ENERGY: 600000 4.4110 3.1457 1.7031 0.0000 -10735.8144 1519.1154 0.0000 0.0000 1785.7237 -7421.7155 303.9976 -9207.4392 -7392.2588 301.6660 484.7259 557.1573 29992.3271 -0.9981 71.6357
ENERGY: 900000 9.3992 4.3742 3.3890 0.0000 -10713.6436 1459.0452 0.0000 0.0000 1721.1096 -7516.3264 292.9979 -9237.4360 -7418.1404 300.9413 82.7665 150.8177 30138.6882 -19.6237 55.9022
ENERGY: 1200000 3.1944 6.4536 3.2445 0.0000 -10605.4745 1412.5857 0.0000 0.0000 1797.2989 -7382.6975 305.9682 -9179.9963 -7426.6610 300.9845 -42.0270 2.2876 30425.9279 -59.3220 15.9807
ENERGY: 1500000 5.2479 4.5865 3.3921 0.0000 -10580.9721 1431.1608 0.0000 0.0000 1740.5878 -7395.9969 296.3138 -9136.5847 -7424.1731 300.6775 -31.3974 41.0622 30289.5458 -12.7782 66.7133
TCL: Running FEP window   3: Lambda1 0.1    Lambda2 0.15000000000000002 [dLambda 0.05000000000000002]
TCL: Setting parameter firsttimestep to 0
TCL: Setting parameter alchLambda to 0.1
Info: NONBONDED TABLE R-SQUARED SPACING: 0.0625
Info: NONBONDED TABLE SIZE: 705 POINTS
TCL: Setting parameter alchLambda2 to 0.15000000000000002
Info: NONBONDED TABLE R-SQUARED SPACING: 0.0625
Info: NONBONDED TABLE SIZE: 705 POINTS
TCL: Running for 1500000 steps
ETITLE: TS BOND ANGLE DIHED IMPRP ELECT VDW BOUNDARY MISC KINETIC TOTAL TEMP POTENTIAL TOTALAVG TEMPAVG PRESSURE GPRESSURE VOLUME PRESSAVG GPRESSAVG
ENERGY: 0 5.2479 4.5865 3.3921 0.0000 -10580.9728 1432.7248 0.0000 0.0000 1739.6933 -7395.3282 296.1615 -9135.0214 -7395.3282 296.1615 -31.2430 49.1128 30289.5458 -31.2430 49.1128
ENERGY: 300000 7.2344 6.8340 1.1661 0.0000 -10643.2195 1446.6173 0.0000 0.0000 1761.8987 -7419.4690 299.9417 -9181.3677 -7386.4976 299.5927 -102.8884 -24.8764 30219.0581 -150.7876 -52.8356
ENERGY: 600000 3.9860 6.5370 2.3503 0.0000 -10674.9023 1400.6832 0.0000 0.0000 1780.5179 -7480.8280 303.1114 -9261.3459 -7428.6686 299.4502 -214.5351 -122.5465 29548.1033 -232.4853 -150.7294
ENERGY: 900000 3.7308 4.6675 3.5590 0.0000 -10581.6983 1379.8978 0.0000 0.0000 1776.8650 -7412.9782 302.4896 -9189.8432 -7437.5616 299.4380 -651.2744 -613.1955 30411.0643 -217.5664 -137.4489
ENERGY: 1200000 5.4761 5.0336 2.2233 0.0000 -10587.6209 1476.6684 0.0000 0.0000 1750.3064 -7347.9129 297.9683 -9098.2193 -7442.0180 300.0943 368.5076 478.1485 30286.5279 -199.4968 -123.5948
ENERGY: 1500000 8.8680 7.5666 2.0941 0.0000 -10697.3051 1468.5808 0.0000 0.0000 1799.3725 -7410.8231 306.3212 -9210.1956 -7441.5618 300.2878 90.1509 141.3942 30098.6675 -151.5396 -76.7237
TCL: Running FEP window   4: Lambda1 0.15000000000000002 Lambda2 0.2    [dLambda 0.04999999999999999]
TCL: Setting parameter firsttimestep to 0
TCL: Setting parameter alchLambda to 0.15000000000000002
Info: NONBONDED TABLE R-SQUARED SPACING: 0.0625
Info: NONBONDED TABLE SIZE: 705 POINTS
TCL: Setting parameter alchLambda2 to 0.2
Info: NONBONDED TABLE R-SQUARED SPACING: 0.0625
Info: NONBONDED TABLE SIZE: 705 POINTS
TCL: Running for 1500000 steps
ETITLE: TS BOND ANGLE DIHED IMPRP ELECT VDW BOUNDARY MISC KINETIC TOTAL TEMP POTENTIAL TOTALAVG TEMPAVG PRESSURE GPRESSURE VOLUME PRESSAVG GPRESSAVG
ENERGY: 0 8.8680 7.5666 2.0941 0.0000 -10697.3058 1468.5838 0.0000 0.0000 1798.4693 -7411.7241 306.1674 -9210.1934 -7411.7241 306.1674 56.0398 144.1819 30098.6675 56.0398 144.1819
ENERGY: 300000 4.4762 6.6421 1.7226 0.0000 -10669.8337 1456.3195 0.0000 0.0000 1756.2630 -7444.4103 298.9823 -9200.6733 -7411.3185 305.9184 145.5554 223.2155 29740.1756 17.2764 89.5070
ENERGY: 600000 4.3176 5.3796 4.5087 0.0000 -10697.4721 1442.5577 0.0000 0.0000 1708.0397 -7532.6687 290.7729 -9240.7084 -7429.4177 301.6000 -345.7697 -305.2723 30480.5584 43.1466 103.5449
ENERGY: 900000 4.9308 4.3489 3.2043 0.0000 -10610.7523 1428.7250 0.0000 0.0000 1773.2994 -7396.2439 301.8826 -9169.5432 -7433.2215 301.0069 -128.9268 -27.3034 30546.4118 -114.7686 -41.4280
ENERGY: 1200000 3.3654 5.0698 2.5734 0.0000 -10565.3971 1300.0349 0.0000 0.0000 1709.5649 -7544.7888 291.0325 -9254.3537 -7439.2658 300.3218 -1433.9447 -1377.4130 30564.6490 -74.7060 -7.6693
ENERGY: 1500000 6.6663 5.2506 2.5268 0.0000 -10782.8696 1463.2544 0.0000 0.0000 1730.4022 -7574.7694 294.5798 -9305.1716 -7453.8169 298.8851 -258.9759 -186.5035 30101.9140 -113.4896 -47.8111
TCL: Running FEP window   5: Lambda1 0.2    Lambda2 0.25   [dLambda 0.04999999999999999]
TCL: Setting parameter firsttimestep to 0
TCL: Setting parameter alchLambda to 0.2
Info: NONBONDED TABLE R-SQUARED SPACING: 0.0625
Info: NONBONDED TABLE SIZE: 705 POINTS
TCL: Setting parameter alchLambda2 to 0.25
Info: NONBONDED TABLE R-SQUARED SPACING: 0.0625
Info: NONBONDED TABLE SIZE: 705 POINTS
TCL: Running for 1500000 steps
ETITLE: TS BOND ANGLE DIHED IMPRP ELECT VDW BOUNDARY MISC KINETIC TOTAL TEMP POTENTIAL TOTALAVG TEMPAVG PRESSURE GPRESSURE VOLUME PRESSAVG GPRESSAVG
ENERGY: 0 6.6663 5.2506 2.5268 0.0000 -10782.8705 1462.9184 0.0000 0.0000 1729.5349 -7575.9735 294.4322 -9305.5085 -7575.9735 294.4322 -274.8860 -185.1868 30101.9140 -274.8860 -185.1868
ENERGY: 300000 6.4524 9.2053 2.1601 0.0000 -10650.2764 1410.4175 0.0000 0.0000 1758.4974 -7463.5436 299.3627 -9222.0410 -7514.0009 296.2803 -135.4633 -137.8251 29882.6079 -233.0006 -183.8376
ENERGY: 600000 4.2773 6.0774 1.5929 0.0000 -10699.7833 1478.9044 0.0000 0.0000 1783.5439 -7425.3872 303.6266 -9208.9312 -7467.3890 298.3107 156.4400 217.6941 30394.9179 -208.1352 -153.5938
ENERGY: 900000 8.0511 4.6898 4.4180 0.0000 -10710.6480 1475.0144 0.0000 0.0000 1734.7529 -7483.7217 295.3205 -9218.4746 -7456.9072 299.0676 70.2045 104.8327 30165.1875 -141.3099 -93.2330
ENERGY: 1200000 3.0707 4.3236 1.5200 0.0000 -10797.2447 1463.8920 0.0000 0.0000 1767.5676 -7556.8708 300.9068 -9324.4384 -7462.5331 299.2592 -178.2563 -140.5161 30306.3647 -174.5041 -131.2078
ENERGY: 1500000 6.3487 5.2667 2.2081 0.0000 -10622.8735 1497.4829 0.0000 0.0000 1765.8701 -7345.6970 300.6178 -9111.5671 -7454.0247 299.3954 584.3108 715.9421 30308.4181 -133.5386 -82.0975
TCL: Running FEP window   6: Lambda1 0.25   Lambda2 0.3    [dLambda 0.04999999999999999]
TCL: Setting parameter firsttimestep to 0
TCL: Setting parameter alchLambda to 0.25
Info: NONBONDED TABLE R-SQUARED SPACING: 0.0625
Info: NONBONDED TABLE SIZE: 705 POINTS
TCL: Setting parameter alchLambda2 to 0.3
Info: NONBONDED TABLE R-SQUARED SPACING: 0.0625
Info: NONBONDED TABLE SIZE: 705 POINTS
TCL: Running for 1500000 steps
ETITLE: TS BOND ANGLE DIHED IMPRP ELECT VDW BOUNDARY MISC KINETIC TOTAL TEMP POTENTIAL TOTALAVG TEMPAVG PRESSURE GPRESSURE VOLUME PRESSAVG GPRESSAVG
ENERGY: 0 6.3487 5.2667 2.2081 0.0000 -10622.8740 1497.5011 0.0000 0.0000 1764.9955 -7346.5539 300.4689 -9111.5494 -7346.5539 300.4689 637.4534 721.8688 30308.4181 637.4534 721.8688
ENERGY: 300000 4.1178 5.3644 3.4591 0.0000 -10626.3165 1398.8703 0.0000 0.0000 1711.0630 -7503.4417 291.2876 -9214.5047 -7454.9064 299.1841 -110.1638 -113.4732 29986.6412 312.0524 364.5677
ENERGY: 600000 5.7816 9.0587 4.5309 0.0000 -10648.5845 1391.2712 0.0000 0.0000 1694.7772 -7543.1650 288.5151 -9237.9422 -7470.2287 298.9053 -476.0386 -435.9081 30174.4123 99.1961 162.5634
ENERGY: 900000 5.9435 11.3216 0.9071 0.0000 -10438.1205 1311.4172 0.0000 0.0000 1727.4417 -7381.0894 294.0758 -9108.5310 -7449.1777 297.6224 -1016.8130 -909.9499 30599.4074 -162.6383 -97.9645
ENERGY: 1200000 5.3710 4.9332 2.3165 0.0000 -10466.9599 1263.4581 0.0000 0.0000 1783.2345 -7407.6466 303.5739 -9190.8811 -7446.9586 298.3653 -1230.1189 -1126.2681 30005.5018 -252.6531 -188.8385
ENERGY: 1500000 4.1713 8.2158 5.3116 0.0000 -10592.5945 1409.7187 0.0000 0.0000 1759.3066 -7405.8706 299.5005 -9165.1772 -7452.8206 298.3551 -153.1409 -15.8334 30441.4775 -280.0257 -213.1130
TCL: Running FEP window   7: Lambda1 0.3    Lambda2 0.35   [dLambda 0.04999999999999999]
TCL: Setting parameter firsttimestep to 0
TCL: Setting parameter alchLambda to 0.3
Info: NONBONDED TABLE R-SQUARED SPACING: 0.0625
Info: NONBONDED TABLE SIZE: 705 POINTS
TCL: Setting parameter alchLambda2 to 0.35
Info: NONBONDED TABLE R-SQUARED SPACING: 0.0625
Info: NONBONDED TABLE SIZE: 705 POINTS
TCL: Running for 1500000 steps
ETITLE: TS BOND ANGLE DIHED IMPRP ELECT VDW BOUNDARY MISC KINETIC TOTAL TEMP POTENTIAL TOTALAVG TEMPAVG PRESSURE GPRESSURE VOLUME PRESSAVG GPRESSAVG
ENERGY: 0 4.1712 8.2158 5.3116 0.0000 -10592.5942 1409.7626 0.0000 0.0000 1758.4155 -7406.7175 299.3488 -9165.1330 -7406.7175 299.3488 -102.0882 -11.6701 30441.4775 -102.0882 -11.6701
ENERGY: 300000 3.4961 3.2933 0.9986 0.0000 -10735.9980 1456.3480 0.0000 0.0000 1817.6534 -7454.2086 309.4333 -9271.8620 -7417.7377 303.0080 -137.1888 -20.2354 30160.6162 14.2385 98.4589
ENERGY: 600000 3.7175 4.3094 1.9372 0.0000 -10629.3203 1423.2649 0.0000 0.0000 1789.7667 -7406.3247 304.6859 -9196.0914 -7442.9582 302.2262 -164.8190 -125.5702 30467.3462 -120.9311 -43.9509
ENERGY: 900000 5.6329 6.2823 1.9052 0.0000 -10662.0193 1436.3302 0.0000 0.0000 1740.2254 -7471.6433 296.2521 -9211.8687 -7441.5204 301.2570 45.5671 66.1722 30033.8324 -94.6409 -26.3127
ENERGY: 1200000 3.7056 4.3641 4.9192 0.0000 -10766.4980 1494.1790 0.0000 0.0000 1800.3407 -7458.9894 306.4860 -9259.3301 -7443.9680 301.2641 191.4990 279.2294 30170.3514 -101.1212 -34.2570
ENERGY: 1500000 4.6154 7.3470 3.2567 0.0000 -10677.3431 1472.4859 0.0000 0.0000 1751.5044 -7438.1336 298.1722 -9189.6380 -7441.8758 300.4905 467.0862 513.9468 30253.5523 5.5098 70.6287
TCL: Running FEP window   8: Lambda1 0.35   Lambda2 0.39999999999999997 [dLambda 0.04999999999999999]
TCL: Setting parameter firsttimestep to 0
TCL: Setting parameter alchLambda to 0.35
Info: NONBONDED TABLE R-SQUARED SPACING: 0.0625
Info: NONBONDED TABLE SIZE: 705 POINTS
TCL: Setting parameter alchLambda2 to 0.39999999999999997
Info: NONBONDED TABLE R-SQUARED SPACING: 0.0625
Info: NONBONDED TABLE SIZE: 705 POINTS
TCL: Running for 1500000 steps
ETITLE: TS BOND ANGLE DIHED IMPRP ELECT VDW BOUNDARY MISC KINETIC TOTAL TEMP POTENTIAL TOTALAVG TEMPAVG PRESSURE GPRESSURE VOLUME PRESSAVG GPRESSAVG
ENERGY: 0 4.6154 7.3470 3.2567 0.0000 -10677.3455 1472.3450 0.0000 0.0000 1750.6594 -7439.1220 298.0284 -9189.7814 -7439.1220 298.0284 443.2038 519.1281 30253.5523 443.2038 519.1281
ENERGY: 300000 1.9830 4.8166 1.4127 0.0000 -10696.2706 1456.3702 0.0000 0.0000 1778.6607 -7453.0275 302.7953 -9231.6881 -7441.9624 301.2810 159.5106 157.6160 30301.3732 13.3131 61.7461
ENERGY: 600000 6.1031 6.1368 2.3557 0.0000 -10841.0455 1508.9774 0.0000 0.0000 1783.0145 -7534.4580 303.5364 -9317.4725 -7448.7320 301.8141 307.2522 358.1141 30125.6416 51.1409 109.2611
ENERGY: 900000 4.9829 4.2249 1.7966 0.0000 -10695.7525 1509.5860 0.0000 0.0000 1749.2339 -7425.9282 297.7857 -9175.1620 -7447.2254 301.2889 689.8240 818.1586 30002.5490 52.5107 121.6549
ENERGY: 1200000 4.6245 4.5616 2.1592 0.0000 -10745.8244 1501.3088 0.0000 0.0000 1721.3755 -7511.7948 293.0432 -9233.1704 -7443.4586 300.8068 480.4771 537.4108 30178.8728 127.2096 180.1753
ENERGY: 1500000 5.5413 4.1323 2.1547 0.0000 -10610.7829 1409.9008 0.0000 0.0000 1778.3092 -7410.7446 302.7354 -9189.0538 -7438.5393 301.0854 41.3601 84.4205 29781.8780 27.6290 80.3624
TCL: Running FEP window   9: Lambda1 0.39999999999999997 Lambda2 0.44999999999999996 [dLambda 0.04999999999999999]
TCL: Setting parameter firsttimestep to 0
TCL: Setting parameter alchLambda to 0.39999999999999997
Info: NONBONDED TABLE R-SQUARED SPACING: 0.0625
Info: NONBONDED TABLE SIZE: 705 POINTS
TCL: Setting parameter alchLambda2 to 0.44999999999999996
Info: NONBONDED TABLE R-SQUARED SPACING: 0.0625
Info: NONBONDED TABLE SIZE: 705 POINTS
TCL: Running for 1500000 steps
ETITLE: TS BOND ANGLE DIHED IMPRP ELECT VDW BOUNDARY MISC KINETIC TOTAL TEMP POTENTIAL TOTALAVG TEMPAVG PRESSURE GPRESSURE VOLUME PRESSAVG GPRESSAVG
ENERGY: 0 5.5413 4.1323 2.1547 0.0000 -10610.7832 1409.8834 0.0000 0.0000 1777.4268 -7411.6447 302.5852 -9189.0715 -7411.6447 302.5852 7.5093 89.0111 29781.8780 7.5093 89.0111
ENERGY: 300000 5.5064 5.9321 3.1717 0.0000 -10607.1430 1394.0232 0.0000 0.0000 1850.6913 -7347.8182 315.0576 -9198.5095 -7394.6228 305.8087 -34.4274 -15.8827 30346.7040 -86.2169 -43.1187
ENERGY: 600000 4.3197 8.2786 3.3114 0.0000 -10493.3698 1332.0870 0.0000 0.0000 1719.8876 -7425.4856 292.7899 -9145.3732 -7403.8788 303.6753 -521.5511 -499.6401 30249.0107 -165.2505 -102.8471
ENERGY: 900000 6.6216 4.0903 2.0090 0.0000 -10783.8691 1499.3575 0.0000 0.0000 1738.7649 -7533.0258 296.0035 -9271.7906 -7415.7016 303.7005 61.4789 70.9624 30345.6411 -160.3491 -101.9563
ENERGY: 1200000 6.2640 3.0766 1.4575 0.0000 -10576.4889 1351.9402 0.0000 0.0000 1713.9799 -7499.7708 291.7841 -9213.7506 -7424.1644 301.7380 -745.3936 -668.7703 30211.2046 -183.7593 -123.0612
ENERGY: 1500000 4.4890 7.2781 3.7940 0.0000 -10744.8273 1518.1821 0.0000 0.0000 1790.8284 -7420.2558 304.8667 -9211.0841 -7432.1573 301.4604 454.6477 575.8059 30496.1222 -152.8423 -82.6045
TCL: Running FEP window  10: Lambda1 0.44999999999999996 Lambda2 0.49999999999999994 [dLambda 0.04999999999999999]
TCL: Setting parameter firsttimestep to 0
TCL: Setting parameter alchLambda to 0.44999999999999996
Info: NONBONDED TABLE R-SQUARED SPACING: 0.0625
Info: NONBONDED TABLE SIZE: 705 POINTS
TCL: Setting parameter alchLambda2 to 0.49999999999999994
Info: NONBONDED TABLE R-SQUARED SPACING: 0.0625
Info: NONBONDED TABLE SIZE: 705 POINTS
TCL: Running for 1500000 steps
ETITLE: TS BOND ANGLE DIHED IMPRP ELECT VDW BOUNDARY MISC KINETIC TOTAL TEMP POTENTIAL TOTALAVG TEMPAVG PRESSURE GPRESSURE VOLUME PRESSAVG GPRESSAVG
ENERGY: 0 4.4890 7.2781 3.7940 0.0000 -10744.8267 1518.0521 0.0000 0.0000 1789.9726 -7421.2410 304.7210 -9211.2135 -7421.2410 304.7210 489.7458 579.4220 30496.1222 489.7458 579.4220
ENERGY: 300000 4.2388 3.5593 1.3912 0.0000 -10708.1648 1466.3785 0.0000 0.0000 1787.8479 -7444.7490 304.3593 -9232.5969 -7424.7240 302.9003 118.3403 158.7366 30251.0197 228.6110 256.4002
ENERGY: 600000 4.2381 4.9025 5.1744 0.0000 -10551.4220 1397.7198 0.0000 0.0000 1773.0242 -7366.3631 301.8357 -9139.3873 -7408.6179 302.9079 -404.0531 -341.6404 30786.7021 227.4692 254.8533
ENERGY: 900000 5.6037 3.1250 2.4147 0.0000 -10638.6209 1447.7489 0.0000 0.0000 1759.1149 -7420.6136 299.4678 -9179.7285 -7412.0399 302.8930 671.9451 684.7275 29630.8465 213.2942 249.3498
ENERGY: 1200000 4.5415 4.7883 1.9375 0.0000 -10535.7103 1351.5545 0.0000 0.0000 1732.1715 -7440.7169 294.8810 -9172.8884 -7416.6110 301.4980 -499.2590 -412.7801 30059.4156 108.2739 144.1999
ENERGY: 1500000 3.6653 5.5224 2.3555 0.0000 -10586.3281 1410.8878 0.0000 0.0000 1752.8358 -7411.0612 298.3989 -9163.8971 -7419.5605 300.6726 -308.4503 -212.5336 30789.8237 139.1642 182.5438
TCL: Running FEP window  11: Lambda1 0.49999999999999994 Lambda2 0.5499999999999999 [dLambda 0.04999999999999999]
TCL: Setting parameter firsttimestep to 0
TCL: Setting parameter alchLambda to 0.49999999999999994
Info: NONBONDED TABLE R-SQUARED SPACING: 0.0625
Info: NONBONDED TABLE SIZE: 705 POINTS
TCL: Setting parameter alchLambda2 to 0.5499999999999999
Info: NONBONDED TABLE R-SQUARED SPACING: 0.0625
Info: NONBONDED TABLE SIZE: 705 POINTS
TCL: Running for 1500000 steps
ETITLE: TS BOND ANGLE DIHED IMPRP ELECT VDW BOUNDARY MISC KINETIC TOTAL TEMP POTENTIAL TOTALAVG TEMPAVG PRESSURE GPRESSURE VOLUME PRESSAVG GPRESSAVG
ENERGY: 0 3.6653 5.5224 2.3555 0.0000 -10586.3264 1410.7785 0.0000 0.0000 1751.9905 -7412.0142 298.2550 -9164.0047 -7412.0142 298.2550 -274.7554 -204.0886 30789.8237 -274.7554 -204.0886
ENERGY: 300000 5.5743 7.7940 1.4678 0.0000 -10713.2302 1494.2741 0.0000 0.0000 1765.3550 -7438.7650 300.5301 -9204.1199 -7439.3201 296.8525 426.2240 470.0488 30485.8972 -24.8624 24.3741
ENERGY: 600000 6.3608 4.2941 2.0848 0.0000 -10658.2766 1507.5002 0.0000 0.0000 1767.8446 -7370.1921 300.9540 -9138.0368 -7423.3598 299.7277 512.2799 493.9731 30577.3288 190.9980 240.1324
ENERGY: 900000 4.3633 5.3659 4.2976 0.0000 -10652.1984 1447.1460 0.0000 0.0000 1763.0318 -7427.9937 300.1346 -9191.0255 -7419.3606 300.6362 455.9144 595.3407 29760.7993 176.2962 246.2070
ENERGY: 1200000 2.9870 6.4969 2.7760 0.0000 -10694.2192 1458.0869 0.0000 0.0000 1764.8731 -7458.9993 300.4481 -9223.8725 -7433.9158 299.9210 395.6793 409.0823 30064.3904 181.9397 252.8516
ENERGY: 1500000 4.0702 5.5612 2.7764 0.0000 -10786.2474 1519.2498 0.0000 0.0000 1769.3693 -7485.2206 301.2135 -9254.5899 -7427.1953 300.1974 487.2510 491.2852 30282.2502 73.4751 131.5206
TCL: Running FEP window  12: Lambda1 0.5499999999999999 Lambda2 0.6    [dLambda 0.050000000000000044]
TCL: Setting parameter firsttimestep to 0
TCL: Setting parameter alchLambda to 0.5499999999999999
Info: NONBONDED TABLE R-SQUARED SPACING: 0.0625
Info: NONBONDED TABLE SIZE: 705 POINTS
TCL: Setting parameter alchLambda2 to 0.6
Info: NONBONDED TABLE R-SQUARED SPACING: 0.0625
Info: NONBONDED TABLE SIZE: 705 POINTS
TCL: Running for 1500000 steps
ETITLE: TS BOND ANGLE DIHED IMPRP ELECT VDW BOUNDARY MISC KINETIC TOTAL TEMP POTENTIAL TOTALAVG TEMPAVG PRESSURE GPRESSURE VOLUME PRESSAVG GPRESSAVG
ENERGY: 0 4.0702 5.5612 2.7764 0.0000 -10786.6823 1519.7064 0.0000 0.0000 1768.5130 -7486.0552 301.0677 -9254.5682 -7486.0552 301.0677 424.5915 500.8269 30282.2502 424.5915 500.8269
ENERGY: 300000 3.8423 5.0635 4.6881 0.0000 -10639.4196 1491.2391 0.0000 0.0000 1789.1138 -7345.4727 304.5748 -9134.5865 -7420.2124 301.8649 593.1145 689.4566 30292.8530 376.9490 436.0431
ENERGY: 600000 4.7499 7.5318 2.4918 0.0000 -10654.0070 1377.6253 0.0000 0.0000 1814.6475 -7446.9606 308.9216 -9261.6082 -7431.4077 300.5081 -912.7115 -892.3695 30677.7619 27.5163 80.3920
ENERGY: 900000 4.0870 7.2111 1.5262 0.0000 -10516.2890 1363.3747 0.0000 0.0000 1829.1085 -7310.9814 311.3834 -9140.0899 -7420.9013 300.6795 -365.3660 -238.8912 30127.0084 -19.9019 40.4347
ENERGY: 1200000 6.1133 7.0487 3.0408 0.0000 -10761.4026 1468.2732 0.0000 0.0000 1819.1125 -7457.8140 309.6817 -9276.9266 -7423.7471 301.1488 -168.5958 -84.5492 30688.0679 -49.2999 5.8653
ENERGY: 1500000 4.6880 7.0996 3.3814 0.0000 -10767.1335 1570.0970 0.0000 0.0000 1752.9479 -7428.9195 298.4180 -9181.8674 -7418.9565 300.7827 1118.0338 1165.0601 30502.8983 -42.6251 17.5823
TCL: Running FEP window  13: Lambda1 0.6    Lambda2 0.65   [dLambda 0.050000000000000044]
TCL: Setting parameter firsttimestep to 0
TCL: Setting parameter alchLambda to 0.6
Info: NONBONDED TABLE R-SQUARED SPACING: 0.0625
Info: NONBONDED TABLE SIZE: 705 POINTS
TCL: Setting parameter alchLambda2 to 0.65
Info: NONBONDED TABLE R-SQUARED SPACING: 0.0625
Info: NONBONDED TABLE SIZE: 705 POINTS
TCL: Running for 1500000 steps
ETITLE: TS BOND ANGLE DIHED IMPRP ELECT VDW BOUNDARY MISC KINETIC TOTAL TEMP POTENTIAL TOTALAVG TEMPAVG PRESSURE GPRESSURE VOLUME PRESSAVG GPRESSAVG
ENERGY: 0 4.6880 7.0996 3.3814 0.0000 -10767.1800 1569.4945 0.0000 0.0000 1752.0284 -7430.4881 298.2614 -9182.5165 -7430.4881 298.2614 1089.4725 1165.7570 30502.8983 1089.4725 1165.7570
ENERGY: 300000 8.1407 6.3057 2.5354 0.0000 -10543.2234 1334.6621 0.0000 0.0000 1715.3672 -7476.2122 292.0203 -9191.5794 -7457.3316 300.5051 -1114.0328 -1060.9828 30537.9446 -173.2000 -99.6300
ENERGY: 600000 5.0372 4.1492 3.2774 0.0000 -10569.6659 1407.8479 0.0000 0.0000 1796.6083 -7352.7460 305.8506 -9149.3543 -7433.9331 300.3991 48.4309 54.3887 30585.9308 -75.3066 -9.0469
ENERGY: 900000 5.6441 8.6413 3.9825 0.0000 -10686.0513 1467.3844 0.0000 0.0000 1784.3692 -7416.0297 303.7671 -9200.3989 -7433.4291 301.1091 583.3261 595.8513 29987.8613 2.5173 50.7795
ENERGY: 1200000 5.5355 3.3387 3.1095 0.0000 -10837.4274 1523.3290 0.0000 0.0000 1747.4766 -7554.6381 297.4866 -9302.1148 -7446.0012 300.0124 365.8908 427.3465 30005.7358 3.5638 56.9663
ENERGY: 1500000 6.6735 5.9593 1.9668 0.0000 -10636.6622 1441.1067 0.0000 0.0000 1736.9568 -7443.9990 295.6957 -9180.9559 -7444.1910 298.9808 143.8221 244.5229 30305.6845 -27.7616 25.5578
TCL: Running FEP window  14: Lambda1 0.65   Lambda2 0.7000000000000001 [dLambda 0.050000000000000044]
TCL: Setting parameter firsttimestep to 0
TCL: Setting parameter alchLambda to 0.65
Info: NONBONDED TABLE R-SQUARED SPACING: 0.0625
Info: NONBONDED TABLE SIZE: 705 POINTS
TCL: Setting parameter alchLambda2 to 0.7000000000000001
Info: NONBONDED TABLE R-SQUARED SPACING: 0.0625
Info: NONBONDED TABLE SIZE: 705 POINTS
TCL: Running for 1500000 steps
ETITLE: TS BOND ANGLE DIHED IMPRP ELECT VDW BOUNDARY MISC KINETIC TOTAL TEMP POTENTIAL TOTALAVG TEMPAVG PRESSURE GPRESSURE VOLUME PRESSAVG GPRESSAVG
ENERGY: 0 6.6735 5.9593 1.9668 0.0000 -10637.1057 1441.4237 0.0000 0.0000 1736.0860 -7444.9965 295.5474 -9181.0824 -7444.9965 295.5474 162.2164 253.9513 30305.6845 162.2164 253.9513
ENERGY: 300000 9.7349 4.2393 2.2230 0.0000 -10486.5668 1355.9565 0.0000 0.0000 1721.6409 -7392.7722 293.0883 -9114.4131 -7410.2360 296.7457 -565.8360 -479.9160 30607.4740 16.1482 103.3955
ENERGY: 600000 3.7864 7.0525 1.4385 0.0000 -10545.0254 1356.2371 0.0000 0.0000 1803.8282 -7372.6827 307.0797 -9176.5110 -7421.6326 298.6110 -577.6343 -530.4017 30405.1233 -128.6561 -55.6301
ENERGY: 900000 2.8407 6.1384 1.6261 0.0000 -10628.1033 1429.1091 0.0000 0.0000 1750.8632 -7437.5258 298.0631 -9188.3890 -7425.5837 299.3011 -43.2263 92.9168 30607.1858 -94.4368 -22.1874
ENERGY: 1200000 4.2127 9.9408 3.6555 0.0000 -10653.4497 1430.5094 0.0000 0.0000 1804.4367 -7400.6946 307.1833 -9205.1313 -7421.4241 300.5555 12.1113 23.9035 30399.2399 -7.2126 53.4151
ENERGY: 1500000 4.7544 4.5140 3.7962 0.0000 -10579.5925 1415.0442 0.0000 0.0000 1761.1618 -7390.3220 299.8163 -9151.4837 -7423.7376 300.9668 17.1790 33.9283 30104.6034 -13.6416 35.2896
TCL: Running FEP window  15: Lambda1 0.7000000000000001 Lambda2 0.7500000000000001 [dLambda 0.050000000000000044]
TCL: Setting parameter firsttimestep to 0
TCL: Setting parameter alchLambda to 0.7000000000000001
Info: NONBONDED TABLE R-SQUARED SPACING: 0.0625
Info: NONBONDED TABLE SIZE: 705 POINTS
TCL: Setting parameter alchLambda2 to 0.7500000000000001
Info: NONBONDED TABLE R-SQUARED SPACING: 0.0625
Info: NONBONDED TABLE SIZE: 705 POINTS
TCL: Running for 1500000 steps
ETITLE: TS BOND ANGLE DIHED IMPRP ELECT VDW BOUNDARY MISC KINETIC TOTAL TEMP POTENTIAL TOTALAVG TEMPAVG PRESSURE GPRESSURE VOLUME PRESSAVG GPRESSAVG
ENERGY: 0 4.7544 4.5140 3.7962 0.0000 -10580.2715 1415.7760 0.0000 0.0000 1760.2838 -7391.1471 299.6668 -9151.4309 -7391.1471 299.6668 -41.3858 54.1026 30104.6034 -41.3858 54.1026
ENERGY: 300000 4.2830 5.2813 3.6062 0.0000 -10752.1532 1506.7270 0.0000 0.0000 1745.9678 -7486.2879 297.2297 -9232.2557 -7428.7782 300.7323 392.5031 414.6632 30167.8904 -226.1212 -166.6799
ENERGY: 600000 5.5330 5.7833 1.6888 0.0000 -10657.1181 1448.1248 0.0000 0.0000 1796.0749 -7399.9132 305.7598 -9195.9881 -7446.3839 300.2291 -75.6130 32.3948 30647.1113 -233.7476 -168.2525
ENERGY: 900000 7.3018 8.7022 1.9796 0.0000 -10558.8254 1335.5804 0.0000 0.0000 1820.3875 -7384.8739 309.8987 -9205.2614 -7441.8595 299.6063 -788.0631 -755.9155 30491.0128 -274.4463 -206.2268
ENERGY: 1200000 2.4763 2.7904 1.2865 0.0000 -10642.0875 1449.4851 0.0000 0.0000 1765.2386 -7420.8107 300.5103 -9186.0493 -7440.5491 299.4846 76.3493 177.9634 30639.2920 -157.1231 -82.5624
ENERGY: 1500000 6.1115 9.3632 1.4138 0.0000 -10674.9160 1429.3007 0.0000 0.0000 1783.0245 -7445.7021 303.5381 -9228.7266 -7442.7226 299.6294 -207.4283 -133.1245 30314.6026 -97.4402 -22.7874
TCL: Running FEP window  16: Lambda1 0.7500000000000001 Lambda2 0.8000000000000002 [dLambda 0.050000000000000044]
TCL: Setting parameter firsttimestep to 0
TCL: Setting parameter alchLambda to 0.7500000000000001
Info: NONBONDED TABLE R-SQUARED SPACING: 0.0625
Info: NONBONDED TABLE SIZE: 705 POINTS
TCL: Setting parameter alchLambda2 to 0.8000000000000002
Info: NONBONDED TABLE R-SQUARED SPACING: 0.0625
Info: NONBONDED TABLE SIZE: 705 POINTS
TCL: Running for 1500000 steps
ETITLE: TS BOND ANGLE DIHED IMPRP ELECT VDW BOUNDARY MISC KINETIC TOTAL TEMP POTENTIAL TOTALAVG TEMPAVG PRESSURE GPRESSURE VOLUME PRESSAVG GPRESSAVG
ENERGY: 0 6.1115 9.3632 1.4138 0.0000 -10675.6010 1430.4110 0.0000 0.0000 1782.1622 -7446.1392 303.3913 -9228.3014 -7446.1392 303.3913 -194.1782 -111.5446 30314.6026 -194.1782 -111.5446
ENERGY: 300000 1.1414 5.6339 4.4042 0.0000 -10702.5568 1447.3865 0.0000 0.0000 1793.0369 -7450.9540 305.2426 -9243.9908 -7458.4795 302.8539 225.9401 301.8705 30205.0037 -310.6536 -255.9326
ENERGY: 600000 2.4571 3.0202 3.4121 0.0000 -10740.9143 1489.3168 0.0000 0.0000 1781.1499 -7461.5580 303.2190 -9242.7080 -7451.7806 302.1080 596.5211 709.4824 30037.1595 -89.1293 -24.9729
ENERGY: 900000 3.1743 6.3839 2.6503 0.0000 -10482.8286 1315.0269 0.0000 0.0000 1822.3057 -7333.2874 310.2253 -9155.5931 -7437.8513 303.8126 -721.0229 -671.9418 30584.5400 -84.6341 -18.3423
ENERGY: 1200000 6.3566 3.3601 2.1088 0.0000 -10638.6132 1402.3896 0.0000 0.0000 1753.0157 -7471.3822 298.4295 -9224.3980 -7439.4504 301.9858 -269.0208 -246.5368 30206.7884 -133.5763 -72.7828
ENERGY: 1500000 5.2282 5.7875 1.7962 0.0000 -10698.1024 1422.6034 0.0000 0.0000 1727.9861 -7534.7009 294.1685 -9262.6871 -7443.2995 302.4877 -393.1488 -308.8863 30455.8692 -133.0250 -67.4121
TCL: Running FEP window  17: Lambda1 0.8000000000000002 Lambda2 0.8500000000000002 [dLambda 0.050000000000000044]
TCL: Setting parameter firsttimestep to 0
TCL: Setting parameter alchLambda to 0.8000000000000002
Info: NONBONDED TABLE R-SQUARED SPACING: 0.0625
Info: NONBONDED TABLE SIZE: 705 POINTS
TCL: Setting parameter alchLambda2 to 0.8500000000000002
Info: NONBONDED TABLE R-SQUARED SPACING: 0.0625
Info: NONBONDED TABLE SIZE: 705 POINTS
TCL: Running for 1500000 steps
ETITLE: TS BOND ANGLE DIHED IMPRP ELECT VDW BOUNDARY MISC KINETIC TOTAL TEMP POTENTIAL TOTALAVG TEMPAVG PRESSURE GPRESSURE VOLUME PRESSAVG GPRESSAVG
ENERGY: 0 5.2282 5.7875 1.7962 0.0000 -10698.7205 1423.0811 0.0000 0.0000 1727.1210 -7535.7064 294.0213 -9262.8274 -7535.7064 294.0213 -373.0363 -292.7621 30455.8692 -373.0363 -292.7621
ENERGY: 300000 3.2302 6.9970 1.4631 0.0000 -10643.4624 1466.3639 0.0000 0.0000 1785.2624 -7380.1458 303.9191 -9165.4082 -7439.6179 300.1829 352.5933 466.1710 30341.6503 -188.0675 -110.9947
ENERGY: 600000 4.2779 2.7544 1.5644 0.0000 -10645.4130 1459.4510 0.0000 0.0000 1762.2002 -7415.1652 299.9931 -9177.3654 -7433.6950 299.8375 360.8088 330.1519 30585.8204 -202.5460 -143.6981
ENERGY: 900000 3.7251 5.1551 5.0408 0.0000 -10742.5270 1473.5056 0.0000 0.0000 1763.2369 -7491.8635 300.1695 -9255.1004 -7443.6617 300.4577 252.6168 388.6135 30121.7056 -100.8726 -37.1443
ENERGY: 1200000 7.5844 4.9705 3.2109 0.0000 -10575.4837 1386.8230 0.0000 0.0000 1718.8969 -7453.9980 292.6212 -9172.8949 -7445.4308 300.5549 -340.6011 -278.3630 30284.8406 -118.5444 -53.5009
ENERGY: 1500000 5.6031 4.8500 3.9384 0.0000 -10646.9903 1407.1489 0.0000 0.0000 1744.8020 -7480.6478 297.0312 -9225.4499 -7453.5800 300.5223 -497.0234 -393.7862 30274.2964 -169.2847 -95.2445
TCL: Running FEP window  18: Lambda1 0.8500000000000002 Lambda2 0.9000000000000002 [dLambda 0.050000000000000044]
TCL: Setting parameter firsttimestep to 0
TCL: Setting parameter alchLambda to 0.8500000000000002
Info: NONBONDED TABLE R-SQUARED SPACING: 0.0625
Info: NONBONDED TABLE SIZE: 705 POINTS
TCL: Setting parameter alchLambda2 to 0.9000000000000002
Info: NONBONDED TABLE R-SQUARED SPACING: 0.0625
Info: NONBONDED TABLE SIZE: 705 POINTS
TCL: Running for 1500000 steps
ETITLE: TS BOND ANGLE DIHED IMPRP ELECT VDW BOUNDARY MISC KINETIC TOTAL TEMP POTENTIAL TOTALAVG TEMPAVG PRESSURE GPRESSURE VOLUME PRESSAVG GPRESSAVG
ENERGY: 0 5.6031 4.8500 3.9384 0.0000 -10647.6515 1407.4521 0.0000 0.0000 1743.8982 -7481.9098 296.8774 -9225.8080 -7481.9098 296.8774 -458.3041 -378.4708 30274.2964 -458.3041 -378.4708
ENERGY: 300000 6.2501 5.8528 5.3025 0.0000 -10563.0411 1389.7299 0.0000 0.0000 1830.7818 -7325.1240 311.6682 -9155.9058 -7418.0025 304.6204 -175.4064 -151.2599 30667.4091 -141.7408 -61.2997
ENERGY: 600000 3.5180 3.5894 2.7325 0.0000 -10645.5560 1367.2969 0.0000 0.0000 1751.7242 -7516.6950 298.2096 -9268.4192 -7451.2306 301.8080 -720.7051 -599.3878 30246.7177 -121.2366 -31.1870
ENERGY: 900000 7.0050 2.7110 1.3342 0.0000 -10680.8651 1442.4469 0.0000 0.0000 1742.7810 -7484.5871 296.6872 -9227.3681 -7450.9296 302.0784 152.1989 205.5400 30269.1006 -14.9706 53.9832
ENERGY: 1200000 3.9343 4.8629 1.9101 0.0000 -10736.0767 1474.6649 0.0000 0.0000 1731.4798 -7519.2247 294.7633 -9250.7045 -7453.9257 301.2891 148.2269 185.4560 30515.5291 40.6661 104.6502
ENERGY: 1500000 1.9117 4.4028 0.8788 0.0000 -10688.0419 1480.6364 0.0000 0.0000 1767.0611 -7433.1511 300.8206 -9200.2122 -7440.4738 301.8088 168.2791 265.9575 30690.7387 45.4354 108.3757
TCL: Running FEP window  19: Lambda1 0.9000000000000002 Lambda2 0.9500000000000003 [dLambda 0.050000000000000044]
TCL: Setting parameter firsttimestep to 0
TCL: Setting parameter alchLambda to 0.9000000000000002
Info: NONBONDED TABLE R-SQUARED SPACING: 0.0625
Info: NONBONDED TABLE SIZE: 705 POINTS
TCL: Setting parameter alchLambda2 to 0.9500000000000003
Info: NONBONDED TABLE R-SQUARED SPACING: 0.0625
Info: NONBONDED TABLE SIZE: 705 POINTS
TCL: Running for 1500000 steps
ETITLE: TS BOND ANGLE DIHED IMPRP ELECT VDW BOUNDARY MISC KINETIC TOTAL TEMP POTENTIAL TOTALAVG TEMPAVG PRESSURE GPRESSURE VOLUME PRESSAVG GPRESSAVG
ENERGY: 0 1.9117 4.4028 0.8788 0.0000 -10688.6721 1479.8261 0.0000 0.0000 1766.1919 -7435.4608 300.6726 -9201.6527 -7435.4608 300.6726 176.8766 265.4599 30690.7387 176.8766 265.4599
ENERGY: 300000 5.5486 4.6950 2.3506 0.0000 -10634.2561 1392.2164 0.0000 0.0000 1782.2103 -7447.2353 303.3995 -9229.4456 -7453.7927 298.0413 -407.4215 -378.7193 30478.9613 18.9064 71.8902
ENERGY: 600000 5.9162 3.6555 2.1664 0.0000 -10663.1323 1416.7396 0.0000 0.0000 1832.0026 -7402.6520 311.8761 -9234.6545 -7451.2246 299.7162 -262.8055 -199.9741 30351.6713 -5.9696 48.4201
ENERGY: 900000 4.5526 5.7841 2.3172 0.0000 -10582.1557 1428.8119 0.0000 0.0000 1770.0031 -7370.6868 301.3214 -9140.6899 -7431.1076 300.5427 -176.9882 -98.2400 30810.3079 2.3847 50.6623
ENERGY: 1200000 7.6502 10.2878 2.8023 0.0000 -10605.4330 1402.9678 0.0000 0.0000 1805.2166 -7376.5084 307.3161 -9181.7250 -7427.2232 301.5494 -229.6653 -156.9849 30656.0127 -23.0308 25.2782
ENERGY: 1500000 4.4165 6.9532 4.7198 0.0000 -10539.2508 1339.5308 0.0000 0.0000 1791.3213 -7392.3092 304.9506 -9183.6305 -7422.5671 303.1835 -755.2231 -721.2235 30686.4539 19.2726 66.4754
TCL: Running FEP window  20: Lambda1 0.9500000000000003 Lambda2 1.0    [dLambda 0.04999999999999971]
TCL: Setting parameter firsttimestep to 0
TCL: Setting parameter alchLambda to 0.9500000000000003
Info: NONBONDED TABLE R-SQUARED SPACING: 0.0625
Info: NONBONDED TABLE SIZE: 705 POINTS
TCL: Setting parameter alchLambda2 to 1.0
Info: NONBONDED TABLE R-SQUARED SPACING: 0.0625
Info: NONBONDED TABLE SIZE: 705 POINTS
TCL: Running for 1500000 steps
ETITLE: TS BOND ANGLE DIHED IMPRP ELECT VDW BOUNDARY MISC KINETIC TOTAL TEMP POTENTIAL TOTALAVG TEMPAVG PRESSURE GPRESSURE VOLUME PRESSAVG GPRESSAVG
ENERGY: 0 4.4165 6.9532 4.7198 0.0000 -10540.1042 1340.1848 0.0000 0.0000 1790.4566 -7393.3735 304.8034 -9183.8301 -7393.3735 304.8034 -779.8648 -702.4080 30686.4539 -779.8648 -702.4080
ENERGY: 300000 5.5371 4.5470 1.5281 0.0000 -10613.3196 1447.0411 0.0000 0.0000 1704.0897 -7450.5767 290.1005 -9154.6664 -7443.2401 299.1689 -69.2714 98.2483 30664.7894 -290.1611 -197.3538
ENERGY: 600000 5.9151 3.7440 3.7785 0.0000 -10676.4810 1485.4858 0.0000 0.0000 1767.9700 -7409.5876 300.9753 -9177.5576 -7442.0475 299.2328 666.5175 692.1986 30121.1905 101.1993 174.2521
ENERGY: 900000 4.7155 7.6745 2.8542 0.0000 -10370.4597 1227.2877 0.0000 0.0000 1703.5436 -7424.3842 290.0075 -9127.9278 -7438.7168 298.7583 -1572.8888 -1504.6756 30857.7468 -22.6173 41.9628
ENERGY: 1200000 2.9233 5.0492 3.2023 0.0000 -10715.7798 1473.9169 0.0000 0.0000 1786.4989 -7444.1892 304.1296 -9230.6881 -7438.2752 298.5965 418.5569 457.2214 30162.8285 -10.2003 52.3357
ENERGY: 1500000 3.8988 5.6984 1.9633 0.0000 -10575.3045 1357.2468 0.0000 0.0000 1756.3464 -7450.1510 298.9965 -9206.4974 -7438.0231 299.0977 -644.4705 -575.8887 30865.2840 -97.4598 -33.3545
TCL: Exiting due to exit command.
