Info: SIMULATION PARAMETERS:
Info: TIMESTEP               2
Info: NUMBER OF STEPS        0
Info: STEPS PER CYCLE        10
Info: PERIODIC CELL BASIS 1  31.0811 0 0
Info: PERIODIC CELL BASIS 2  0 30.4152 0
Info: PERIODIC CELL BASIS 3  0 0 32.1366
Info: PERIODIC CELL CENTER   0 0 0
Info: WRAPPING WATERS AROUND PERIODIC BOUNDARIES ON OUTPUT.
Info: WRAPPING ALL CLUSTERS AROUND PERIODIC BOUNDARIES ON OUTPUT.
Info: FIRST LDB TIMESTEP     50
Info: LAST LDB TIMESTEP     -1
Info: HOM BACKGROUND SCALING 1
Info: PME BACKGROUND SCALING 1
Info: MIN ATOMS PER PATCH    40
Info: EMPTY PATCH LOAD       40 ATOMS
Info: VELOCITY FILE          mobley_5692472_equil.vel
Info: CENTER OF MASS MOVING INITIALLY? NO
Info: DIELECTRIC             1
Info: EXCLUDE                SCALED ONE-FOUR
Info: 1-4 ELECTROSTATICS SCALED BY 0.833333
Info: MODIFIED 1-4 VDW PARAMETERS WILL BE USED
Info: DCD FILENAME           mobley_5692472_prod.dcd
Info: DCD FREQUENCY          100000
Info: DCD FIRST STEP         100000
Info: DCD FILE WILL CONTAIN UNIT CELL DATA
Info: XST FILENAME           mobley_5692472_prod.xst
Info: XST FREQUENCY          100000
Info: NO VELOCITY DCD OUTPUT
Info: NO FORCE DCD OUTPUT
Info: OUTPUT FILENAME        mobley_5692472_prod
Info: BINARY OUTPUT FILES WILL BE USED
Info: RESTART FILENAME       mobley_5692472_prod.restart
Info: RESTART FREQUENCY      100000
Info: BINARY RESTART FILES WILL BE USED
Info: CUTOFF                 9
Info: PAIRLIST DISTANCE      11
Info: PAIRLIST SHRINK RATE   0.01
Info: PAIRLIST GROW RATE     0.01
Info: PAIRLIST TRIGGER       0.3
Info: PAIRLISTS PER CYCLE    2
Info: PAIRLISTS ENABLED
Info: MARGIN                 2
Info: HYDROGEN GROUP CUTOFF  2.5
Info: PATCH DIMENSION        15.5
Info: ENERGY OUTPUT STEPS    100000
Info: ENERGY EVALUATION STEPS    100000
Info: OUTPUT ENERGY PRECISION 4
Info: CROSSTERM ENERGY INCLUDED IN DIHEDRAL
Info: TIMING OUTPUT STEPS    1000000
Info: PRESSURE OUTPUT STEPS  100000
Info: ALCHEMICAL FEP ON
Info: FEP CURRENT LAMBDA VALUE     1
Info: FEP COMPARISON LAMBDA VALUE  0.95
Info: FEP INTRA-ALCHEMICAL NON-BONDED INTERACTIONS WILL BE RETAINED
Info: FEP INTRA-ALCHEMICAL BONDED INTERACTIONS WILL BE RETAINED
Info: FEP VDW SHIFTING COEFFICIENT 5
Info: FEP ELEC. ACTIVE FOR ANNIHILATED PARTICLES BETWEEN LAMBDA = 0 AND LAMBDA = 0.5
Info: FEP ELEC. ACTIVE FOR EXNIHILATED PARTICLES BETWEEN LAMBDA = 0.5 AND LAMBDA = 1
Info: FEP VDW ACTIVE FOR ANNIHILATED PARTICLES BETWEEN LAMBDA = 0 AND LAMBDA = 1
Info: FEP VDW ACTIVE FOR EXNIHILATED PARTICLES BETWEEN LAMBDA = 0 AND LAMBDA = 1
Info: FEP BOND ACTIVE FOR ANNIHILATED PARTICLES BETWEEN LAMBDA = 1 AND LAMBDA = 1
Info: FEP BOND ACTIVE FOR EXNIHILATED PARTICLES BETWEEN LAMBDA = 0 AND LAMBDA = 0
Info: LANGEVIN DYNAMICS ACTIVE
Info: LANGEVIN TEMPERATURE   300
Info: LANGEVIN USING BBK INTEGRATOR
Info: LANGEVIN DAMPING COEFFICIENT IS 1 INVERSE PS
Info: LANGEVIN DYNAMICS APPLIED TO HYDROGENS
Info: LANGEVIN PISTON PRESSURE CONTROL ACTIVE
Info:        TARGET PRESSURE IS 1.01325 BAR
Info:     OSCILLATION PERIOD IS 50 FS
Info:             DECAY TIME IS 25 FS
Info:     PISTON TEMPERATURE IS 300 K
Info:       PRESSURE CONTROL IS GROUP-BASED
Info:    INITIAL STRAIN RATE IS -0.000603161 -0.000603161 -0.000603161
Info:       CELL FLUCTUATION IS ISOTROPIC
Info: PARTICLE MESH EWALD (PME) ACTIVE
Info: PME TOLERANCE               1e-06
Info: PME EWALD COEFFICIENT       0.348832
Info: PME INTERPOLATION ORDER     4
Info: PME GRID DIMENSIONS         32 32 36
Info: PME MAXIMUM GRID SPACING    1
Info: PME CALCULATION WILL BE PERFORMED ON GPU
Info: FULL ELECTROSTATIC EVALUATION FREQUENCY      2
Info: USING VERLET I (r-RESPA) MTS SCHEME.
Info: C1 SPLITTING OF LONG RANGE ELECTROSTATICS
Info: PLACING ATOMS IN PATCHES BY HYDROGEN GROUPS
Info: RIGID BONDS TO HYDROGEN : ALL
Info:         ERROR TOLERANCE : 1e-08
Info:          MAX ITERATIONS : 100
Info: RIGID WATER USING SETTLE ALGORITHM
Info: RANDOM NUMBER SEED     1743523028
Info: USE HYDROGEN BONDS?    NO
Info: Using AMBER format force field!
Info: AMBER PARM FILE        mobley_5692472.prmtop
Info: COORDINATE PDB         mobley_5692472.pdb
Info: Exclusions will be read from PARM file!
Info: SCNB (VDW SCALING)     2
Info: USING ARITHMETIC MEAN TO COMBINE L-J SIGMA PARAMETERS
Info: BINARY COORDINATES     mobley_5692472_equil.coor
Info: SUMMARY OF PARAMETERS:
Info: 5 BONDS
Info: 4 ANGLES
Info:   4 HARMONIC
Info:   0 COSINE-BASED
Info: 1 DIHEDRAL
Info: 0 IMPROPER
Info: 0 CROSSTERM
Info: 0 VDW
Info: 21 VDW_PAIRS
Info: 0 NBTHOLE_PAIRS
Info: To read alchdata from file: mobley_5692472.pdb
Info: To read alchflag data from column: 5
Info: STRUCTURE SUMMARY:
Info: 2941 ATOMS
Info: 2940 BONDS
Info: 15 ANGLES
Info: 12 DIHEDRALS
Info: 0 IMPROPERS
Info: 0 CROSSTERMS
Info: 2967 EXCLUSIONS
Info: 2938 RIGID BONDS
Info: ALCH: 0 ATOMS TO DISAPPEAR IN FINAL STATE
Info: ALCH: 10 ATOMS TO APPEAR IN FINAL STATE
Info: 5885 DEGREES OF FREEDOM
Info: 980 HYDROGEN GROUPS
Info: 4 ATOMS IN LARGEST HYDROGEN GROUP
Info: 980 MIGRATION GROUPS
Info: 4 ATOMS IN LARGEST MIGRATION GROUP
Info: TOTAL MASS = 17646.7 amu
Info: TOTAL CHARGE = 7.45058e-09 e
Info: MASS DENSITY = 0.964575 g/cm^3
Info: ATOM DENSITY = 0.0968073 atoms/A^3
Info: ADDED 0 IMPLICIT EXCLUSIONS
Info: NONBONDED TABLE R-SQUARED SPACING: 0.0625
Info: NONBONDED TABLE SIZE: 705 POINTS
Info: REMOVING COM VELOCITY 0.012606 -0.0924573 0.328074
Info: Use 3D box decompostion in PME FFT.
Info: Updated CUDA force table with 4096 elements.
Info: Updated CUDA LJ table with 6 x 6 elements.
Info: Found 13 unique exclusion lists needing 20 bytes
TCL: Running for 1500000 steps
ETITLE: TS BOND ANGLE DIHED IMPRP ELECT VDW BOUNDARY MISC KINETIC TOTAL TEMP POTENTIAL TOTALAVG TEMPAVG PRESSURE GPRESSURE VOLUME PRESSAVG GPRESSAVG
ENERGY: 0 1.0634 5.5585 0.4266 0.0000 -10614.5472 1435.8793 0.0000 0.0000 1721.0218 -7450.5976 294.3271 -9171.6194 -7450.5976 294.3271 170.3876 248.2514 30379.9488 170.3876 248.2514
ENERGY: 300000 2.9382 4.6436 0.5809 0.0000 -10687.1420 1460.6728 0.0000 0.0000 1774.5627 -7443.7438 303.4836 -9218.3065 -7462.9394 296.8352 213.2176 329.7210 30216.9412 317.1399 389.5810
ENERGY: 600000 1.0818 4.8046 0.2933 0.0000 -10652.6212 1407.3166 0.0000 0.0000 1787.6947 -7451.4302 305.7295 -9239.1250 -7475.0803 299.5596 -122.8950 -41.0016 30058.9755 284.8053 337.0758
ENERGY: 900000 0.3390 7.5476 1.0839 0.0000 -10555.7918 1312.1036 0.0000 0.0000 1745.8385 -7488.8792 298.5712 -9234.7177 -7470.9373 299.1558 -1090.7708 -1004.6850 30434.7750 86.4266 138.5736
ENERGY: 1200000 0.1679 2.5475 0.5741 0.0000 -10648.0338 1432.2457 0.0000 0.0000 1753.6645 -7458.8340 299.9096 -9212.4985 -7461.4356 300.6120 -152.8861 -95.1494 30653.5120 67.9968 124.2720
ENERGY: 1500000 1.8320 3.2747 0.6946 0.0000 -10490.5220 1324.1133 0.0000 0.0000 1738.6164 -7421.9910 297.3361 -9160.6074 -7460.5199 300.3076 -881.5663 -879.6451 30731.2081 44.7152 101.8708
TCL: Running FEP window   2: Lambda1 0.95   Lambda2 0.8999999999999999 [dLambda -0.050000000000000044]
TCL: Setting parameter firsttimestep to 0
TCL: Setting parameter alchLambda to 0.95
Info: NONBONDED TABLE R-SQUARED SPACING: 0.0625
Info: NONBONDED TABLE SIZE: 705 POINTS
TCL: Setting parameter alchLambda2 to 0.8999999999999999
Info: NONBONDED TABLE R-SQUARED SPACING: 0.0625
Info: NONBONDED TABLE SIZE: 705 POINTS
TCL: Running for 1500000 steps
ETITLE: TS BOND ANGLE DIHED IMPRP ELECT VDW BOUNDARY MISC KINETIC TOTAL TEMP POTENTIAL TOTALAVG TEMPAVG PRESSURE GPRESSURE VOLUME PRESSAVG GPRESSAVG
ENERGY: 0 1.8320 3.2747 0.6946 0.0000 -10489.5028 1323.8453 0.0000 0.0000 1737.6888 -7422.1674 297.1775 -9159.8562 -7422.1674 297.1775 -960.5239 -885.5055 30731.2081 -960.5239 -885.5055
ENERGY: 300000 0.2827 5.0501 0.4648 0.0000 -10868.1958 1561.5079 0.0000 0.0000 1783.5355 -7517.3549 305.0181 -9300.8903 -7470.1689 301.3799 1029.3057 1066.2600 29751.7700 63.3277 142.8079
ENERGY: 600000 0.9611 3.3897 0.1870 0.0000 -10741.2383 1517.9155 0.0000 0.0000 1737.7386 -7481.0464 297.1860 -9218.7850 -7482.6785 299.4205 330.8122 388.0827 30521.8183 32.2900 97.5013
ENERGY: 900000 0.5601 2.8630 0.1546 0.0000 -10576.0660 1458.3285 0.0000 0.0000 1707.6725 -7406.4873 292.0441 -9114.1598 -7465.9691 299.8890 321.8508 394.8665 30313.0104 73.2063 136.0505
ENERGY: 1200000 0.0578 5.7917 0.3557 0.0000 -10674.7753 1380.5365 0.0000 0.0000 1757.4594 -7530.5742 300.5586 -9288.0336 -7474.2442 300.3274 -364.2044 -251.5507 29487.2136 -3.0269 65.4866
ENERGY: 1500000 0.1105 4.8022 0.1717 0.0000 -10642.1691 1408.7556 0.0000 0.0000 1773.1870 -7455.1420 303.2484 -9228.3291 -7466.6978 301.6929 -201.2980 -135.8581 30173.4049 -4.0036 62.3869
TCL: Running FEP window   3: Lambda1 0.8999999999999999 Lambda2 0.8499999999999999 [dLambda -0.050000000000000044]
TCL: Setting parameter firsttimestep to 0
TCL: Setting parameter alchLambda to 0.8999999999999999
Info: NONBONDED TABLE R-SQUARED SPACING: 0.0625
Info: NONBONDED TABLE SIZE: 705 POINTS
TCL: Setting parameter alchLambda2 to 0.8499999999999999
Info: NONBONDED TABLE R-SQUARED SPACING: 0.0625
Info: NONBONDED TABLE SIZE: 705 POINTS
TCL: Running for 1500000 steps
ETITLE: TS BOND ANGLE DIHED IMPRP ELECT VDW BOUNDARY MISC KINETIC TOTAL TEMP POTENTIAL TOTALAVG TEMPAVG PRESSURE GPRESSURE VOLUME PRESSAVG GPRESSAVG
ENERGY: 0 0.1105 4.8022 0.1717 0.0000 -10641.1192 1409.0288 0.0000 0.0000 1772.3283 -7454.6777 303.1015 -9227.0060 -7454.6777 303.1015 -234.7326 -138.8358 30173.4049 -234.7326 -138.8358
ENERGY: 300000 0.4443 3.7064 0.0828 0.0000 -10654.8133 1444.5707 0.0000 0.0000 1739.5958 -7466.4132 297.5036 -9206.0090 -7463.8323 300.5813 77.2086 131.8577 30212.0718 -14.7914 63.3053
ENERGY: 600000 3.4011 8.5875 0.2869 0.0000 -10702.8871 1469.7022 0.0000 0.0000 1806.6797 -7414.2296 308.9762 -9220.9093 -7455.6765 300.7404 -7.4431 82.0471 30688.3874 -188.2149 -119.6793
ENERGY: 900000 0.3440 3.7348 0.5591 0.0000 -10678.4847 1416.7043 0.0000 0.0000 1734.0594 -7523.0830 296.5568 -9257.1424 -7452.7531 300.4630 -208.1226 -130.5552 30186.2723 -208.8033 -136.7206
ENERGY: 1200000 1.1019 3.2782 0.7141 0.0000 -10546.4086 1360.1391 0.0000 0.0000 1769.4360 -7411.7391 302.6069 -9181.1752 -7455.0859 301.0177 -861.9111 -745.2341 30936.1010 -261.9834 -186.7422
ENERGY: 1500000 0.9243 5.8141 0.9250 0.0000 -10606.1939 1398.4684 0.0000 0.0000 1707.2295 -7492.8326 291.9684 -9200.0622 -7456.2344 301.0102 -342.2715 -305.1611 30224.9101 -233.1032 -157.8557
TCL: Running FEP window   4: Lambda1 0.8499999999999999 Lambda2 0.7999999999999998 [dLambda -0.050000000000000044]
TCL: Setting parameter firsttimestep to 0
TCL: Setting parameter alchLambda to 0.8499999999999999
Info: NONBONDED TABLE R-SQUARED SPACING: 0.0625
Info: NONBONDED TABLE SIZE: 705 POINTS
TCL: Setting parameter alchLambda2 to 0.7999999999999998
Info: NONBONDED TABLE R-SQUARED SPACING: 0.0625
Info: NONBONDED TABLE SIZE: 705 POINTS
TCL: Running for 1500000 steps
ETITLE: TS BOND ANGLE DIHED IMPRP ELECT VDW BOUNDARY MISC KINETIC TOTAL TEMP POTENTIAL TOTALAVG TEMPAVG PRESSURE GPRESSURE VOLUME PRESSAVG GPRESSAVG
ENERGY: 0 0.9243 5.8141 0.9250 0.0000 -10604.8143 1397.7327 0.0000 0.0000 1706.3250 -7493.0933 291.8137 -9199.4183 -7493.0933 291.8137 -404.4728 -318.8509 30224.9101 -404.4728 -318.8509
ENERGY: 300000 0.2616 3.6638 2.2063 0.0000 -10743.8764 1493.1835 0.0000 0.0000 1806.8122 -7437.7490 308.9989 -9244.5612 -7522.9609 297.8619 263.2382 321.0888 30473.5393 -212.5164 -138.4701
ENERGY: 600000 0.0211 3.5031 0.5000 0.0000 -10626.8715 1366.5144 0.0000 0.0000 1821.4678 -7434.8651 311.5053 -9256.3329 -7467.1313 302.7499 -662.3456 -584.8663 30434.2377 -212.6565 -148.4809
ENERGY: 900000 0.0751 2.1613 1.3950 0.0000 -10739.9345 1451.2310 0.0000 0.0000 1748.4138 -7536.6584 299.0117 -9285.0722 -7480.4855 301.1535 46.2990 152.4303 29930.5087 -166.5093 -94.2018
ENERGY: 1200000 1.8974 5.8717 1.4566 0.0000 -10599.8288 1389.0425 0.0000 0.0000 1773.1896 -7428.3710 303.2488 -9201.5606 -7468.6954 302.1199 -544.7216 -465.3871 30801.8119 -177.9859 -120.9713
ENERGY: 1500000 1.3953 5.2910 0.2324 0.0000 -10799.6053 1531.1499 0.0000 0.0000 1785.1312 -7476.4055 305.2910 -9261.5366 -7466.3721 302.5385 742.2745 830.7559 29923.5003 -71.9154 -11.0925
TCL: Running FEP window   5: Lambda1 0.7999999999999998 Lambda2 0.7499999999999998 [dLambda -0.050000000000000044]
TCL: Setting parameter firsttimestep to 0
TCL: Setting parameter alchLambda to 0.7999999999999998
Info: NONBONDED TABLE R-SQUARED SPACING: 0.0625
Info: NONBONDED TABLE SIZE: 705 POINTS
TCL: Setting parameter alchLambda2 to 0.7499999999999998
Info: NONBONDED TABLE R-SQUARED SPACING: 0.0625
Info: NONBONDED TABLE SIZE: 705 POINTS
TCL: Running for 1500000 steps
ETITLE: TS BOND ANGLE DIHED IMPRP ELECT VDW BOUNDARY MISC KINETIC TOTAL TEMP POTENTIAL TOTALAVG TEMPAVG PRESSURE GPRESSURE VOLUME PRESSAVG GPRESSAVG
ENERGY: 0 1.3953 5.2910 0.2324 0.0000 -10798.2781 1531.3208 0.0000 0.0000 1784.3003 -7475.7382 305.1489 -9260.0385 -7475.7382 305.1489 745.3361 828.9952 29923.5003 745.3361 828.9952
ENERGY: 300000 0.5080 2.8663 0.1574 0.0000 -10683.3137 1491.9879 0.0000 0.0000 1715.9327 -7471.8615 293.4568 -9187.7942 -7471.6627 301.5436 429.8491 443.2653 30328.0490 108.4076 157.2790
ENERGY: 600000 0.5776 3.1117 2.0477 0.0000 -10709.4981 1472.0402 0.0000 0.0000 1758.5837 -7473.1371 300.7509 -9231.7209 -7449.1982 302.0328 423.2908 499.1789 30027.0107 -28.9700 34.2947
ENERGY: 900000 0.2070 6.4567 0.1626 0.0000 -10580.4386 1399.0508 0.0000 0.0000 1766.0529 -7408.5086 302.0283 -9174.5615 -7453.3995 301.1650 -119.6126 -80.6820 30369.9915 -115.7422 -61.9699
ENERGY: 1200000 0.9642 4.7332 0.8686 0.0000 -10768.0923 1477.3724 0.0000 0.0000 1705.2333 -7578.9206 291.6270 -9284.1539 -7459.4163 300.0407 207.5620 191.3462 30292.7990 -53.7979 -11.8793
ENERGY: 1500000 1.0132 7.9750 0.6426 0.0000 -10863.3779 1579.8684 0.0000 0.0000 1731.2664 -7542.6123 296.0791 -9273.8787 -7467.0485 299.7484 1054.9651 1151.5980 29676.8796 21.3233 66.3405
TCL: Running FEP window   6: Lambda1 0.7499999999999998 Lambda2 0.6999999999999997 [dLambda -0.050000000000000044]
TCL: Setting parameter firsttimestep to 0
TCL: Setting parameter alchLambda to 0.7499999999999998
Info: NONBONDED TABLE R-SQUARED SPACING: 0.0625
Info: NONBONDED TABLE SIZE: 705 POINTS
TCL: Setting parameter alchLambda2 to 0.6999999999999997
Info: NONBONDED TABLE R-SQUARED SPACING: 0.0625
Info: NONBONDED TABLE SIZE: 705 POINTS
TCL: Running for 1500000 steps
ETITLE: TS BOND ANGLE DIHED IMPRP ELECT VDW BOUNDARY MISC KINETIC TOTAL TEMP POTENTIAL TOTALAVG TEMPAVG PRESSURE GPRESSURE VOLUME PRESSAVG GPRESSAVG
ENERGY: 0 1.0132 7.9750 0.6426 0.0000 -10862.9786 1579.9727 0.0000 0.0000 1730.4157 -7542.9594 295.9337 -9273.3752 -7542.9594 295.9337 1066.5450 1147.9103 29676.8796 1066.5450 1147.9103
ENERGY: 300000 0.9301 3.8547 1.1151 0.0000 -10665.8367 1493.9147 0.0000 0.0000 1721.8373 -7444.1848 294.4666 -9166.0221 -7510.7435 296.1152 338.9175 338.8115 30777.0196 250.0715 326.9446
ENERGY: 600000 0.8153 5.4329 0.9329 0.0000 -10695.9607 1461.2595 0.0000 0.0000 1771.8319 -7455.6883 303.0166 -9227.5202 -7491.6899 298.2637 99.7696 120.6852 30387.3140 66.4880 125.1481
ENERGY: 900000 0.5816 2.7612 0.7460 0.0000 -10656.6454 1470.5775 0.0000 0.0000 1767.5470 -7414.4321 302.2838 -9181.9791 -7475.7266 297.6607 355.0689 415.5904 30214.5070 30.4371 86.7427
ENERGY: 1200000 0.0024 3.5693 1.9611 0.0000 -10532.2712 1392.8897 0.0000 0.0000 1712.8234 -7421.0253 292.9250 -9133.8487 -7476.6980 297.7081 -259.0620 -164.5385 30556.4391 -46.3782 5.7965
ENERGY: 1500000 0.8536 3.3255 0.2659 0.0000 -10571.3178 1358.2065 0.0000 0.0000 1734.4348 -7474.2314 296.6210 -9208.6663 -7467.4219 298.9135 -408.4544 -357.4964 30067.3473 -43.8860 10.3165
TCL: Running FEP window   7: Lambda1 0.6999999999999997 Lambda2 0.6499999999999997 [dLambda -0.050000000000000044]
TCL: Setting parameter firsttimestep to 0
TCL: Setting parameter alchLambda to 0.6999999999999997
Info: NONBONDED TABLE R-SQUARED SPACING: 0.0625
Info: NONBONDED TABLE SIZE: 705 POINTS
TCL: Setting parameter alchLambda2 to 0.6499999999999997
Info: NONBONDED TABLE R-SQUARED SPACING: 0.0625
Info: NONBONDED TABLE SIZE: 705 POINTS
TCL: Running for 1500000 steps
ETITLE: TS BOND ANGLE DIHED IMPRP ELECT VDW BOUNDARY MISC KINETIC TOTAL TEMP POTENTIAL TOTALAVG TEMPAVG PRESSURE GPRESSURE VOLUME PRESSAVG GPRESSAVG
ENERGY: 0 0.8536 3.3255 0.2659 0.0000 -10570.1199 1357.9005 0.0000 0.0000 1733.5739 -7474.2005 296.4738 -9207.7744 -7474.2005 296.4738 -437.6296 -361.8102 30067.3473 -437.6296 -361.8102
ENERGY: 300000 0.7303 2.8444 0.8243 0.0000 -10573.0543 1387.8254 0.0000 0.0000 1716.3167 -7464.5132 293.5225 -9180.8299 -7466.2459 300.8924 -205.8045 -146.2646 30277.7076 -174.9989 -108.4624
ENERGY: 600000 0.8302 3.9079 0.7807 0.0000 -10634.3396 1467.3142 0.0000 0.0000 1757.4100 -7404.0967 300.5502 -9161.5067 -7458.8081 300.5465 471.7970 536.3237 30291.8821 52.3345 111.9854
ENERGY: 900000 0.3148 5.8018 0.4745 0.0000 -10572.0119 1384.6490 0.0000 0.0000 1740.4032 -7440.3686 297.6417 -9180.7718 -7454.4229 299.7435 -299.2566 -335.5304 30453.7084 -92.8598 -42.0552
ENERGY: 1200000 0.0189 3.3646 0.0360 0.0000 -10713.3274 1488.1850 0.0000 0.0000 1739.6636 -7482.0593 297.5152 -9221.7230 -7461.0564 299.8545 300.2348 344.0780 30351.2082 -62.5511 -8.6065
ENERGY: 1500000 0.0072 3.5163 1.1370 0.0000 -10629.1150 1394.9310 0.0000 0.0000 1763.0341 -7466.4895 301.5120 -9229.5236 -7467.0305 299.6776 -384.5908 -324.4827 30532.9736 -97.4558 -44.1001
TCL: Running FEP window   8: Lambda1 0.6499999999999997 Lambda2 0.5999999999999996 [dLambda -0.050000000000000044]
TCL: Setting parameter firsttimestep to 0
TCL: Setting parameter alchLambda to 0.6499999999999997
Info: NONBONDED TABLE R-SQUARED SPACING: 0.0625
Info: NONBONDED TABLE SIZE: 705 POINTS
TCL: Setting parameter alchLambda2 to 0.5999999999999996
Info: NONBONDED TABLE R-SQUARED SPACING: 0.0625
Info: NONBONDED TABLE SIZE: 705 POINTS
TCL: Running for 1500000 steps
ETITLE: TS BOND ANGLE DIHED IMPRP ELECT VDW BOUNDARY MISC KINETIC TOTAL TEMP POTENTIAL TOTALAVG TEMPAVG PRESSURE GPRESSURE VOLUME PRESSAVG GPRESSAVG
ENERGY: 0 0.0072 3.5163 1.1370 0.0000 -10627.9352 1394.8085 0.0000 0.0000 1762.2120 -7466.2543 301.3714 -9228.4662 -7466.2543 301.3714 -399.8604 -325.9578 30532.9736 -399.8604 -325.9578
ENERGY: 300000 0.3595 2.9998 0.8797 0.0000 -10602.5237 1409.0925 0.0000 0.0000 1741.8448 -7447.3473 297.8883 -9189.1921 -7457.4860 302.8443 -118.7360 -9.1459 30137.2654 -173.7422 -101.4849
ENERGY: 600000 1.2610 2.2599 0.5882 0.0000 -10690.0451 1457.7880 0.0000 0.0000 1768.9642 -7459.1838 302.5262 -9228.1480 -7479.9986 300.0551 125.9935 146.0875 30295.0407 -88.8508 -23.5780
ENERGY: 900000 0.2807 2.3907 2.6589 0.0000 -10623.3019 1440.5801 0.0000 0.0000 1711.7486 -7465.6428 292.7412 -9177.3914 -7474.5766 299.1995 146.8358 202.2830 30403.8253 -70.6918 -14.6541
ENERGY: 1200000 0.4941 3.9681 0.2611 0.0000 -10729.6517 1497.1692 0.0000 0.0000 1701.0654 -7526.6939 290.9142 -9227.7594 -7477.4875 298.1006 810.2843 802.7766 29683.1271 -128.1101 -81.0437
ENERGY: 1500000 0.2671 1.1898 0.3750 0.0000 -10620.8879 1413.0384 0.0000 0.0000 1752.0881 -7453.9294 299.6401 -9206.0175 -7481.3762 298.6000 -21.6089 64.3172 29905.9838 -115.7341 -62.0322
TCL: Running FEP window   9: Lambda1 0.5999999999999996 Lambda2 0.5499999999999996 [dLambda -0.050000000000000044]
TCL: Setting parameter firsttimestep to 0
TCL: Setting parameter alchLambda to 0.5999999999999996
Info: NONBONDED TABLE R-SQUARED SPACING: 0.0625
Info: NONBONDED TABLE SIZE: 705 POINTS
TCL: Setting parameter alchLambda2 to 0.5499999999999996
Info: NONBONDED TABLE R-SQUARED SPACING: 0.0625
Info: NONBONDED TABLE SIZE: 705 POINTS
TCL: Running for 1500000 steps
ETITLE: TS BOND ANGLE DIHED IMPRP ELECT VDW BOUNDARY MISC KINETIC TOTAL TEMP POTENTIAL TOTALAVG TEMPAVG PRESSURE GPRESSURE VOLUME PRESSAVG GPRESSAVG
ENERGY: 0 0.2671 1.1898 0.3750 0.0000 -10620.8240 1412.7273 0.0000 0.0000 1751.2089 -7455.0558 299.4897 -9206.2647 -7455.0558 299.4897 -35.5652 53.6075 29905.9838 -35.5652 53.6075
ENERGY: 300000 0.0261 3.7849 0.4286 0.0000 -10745.6351 1494.9596 0.0000 0.0000 1785.5933 -7460.8425 305.3701 -9246.4358 -7441.0678 303.3486 228.3639 252.0879 30392.6115 63.9697 127.1181
ENERGY: 600000 0.5801 4.0458 1.4198 0.0000 -10686.5207 1456.4994 0.0000 0.0000 1748.0878 -7475.8878 298.9559 -9223.9755 -7448.6444 302.6043 428.1477 514.5249 29495.4503 55.3147 117.4418
ENERGY: 900000 0.8245 4.8562 0.4888 0.0000 -10617.4342 1410.0060 0.0000 0.0000 1737.3554 -7463.9033 297.1205 -9201.2587 -7462.7317 300.5938 -223.3447 -187.4472 30407.9235 -45.5992 16.5820
ENERGY: 1200000 0.0632 5.0376 0.2346 0.0000 -10640.4472 1419.9413 0.0000 0.0000 1743.8337 -7471.3368 298.2284 -9215.1705 -7460.6675 300.0847 -63.8437 -81.9859 30341.3820 -47.9236 12.7767
ENERGY: 1500000 0.4672 2.1262 0.9697 0.0000 -10575.5787 1317.9624 0.0000 0.0000 1799.5657 -7454.4874 307.7596 -9254.0531 -7455.9609 301.3228 -1147.5447 -997.6342 30280.2373 -85.1414 -21.6889
TCL: Running FEP window  10: Lambda1 0.5499999999999996 Lambda2 0.4999999999999996 [dLambda -0.04999999999999999]
TCL: Setting parameter firsttimestep to 0
TCL: Setting parameter alchLambda to 0.5499999999999996
Info: NONBONDED TABLE R-SQUARED SPACING: 0.0625
Info: NONBONDED TABLE SIZE: 705 POINTS
TCL: Setting parameter alchLambda2 to 0.4999999999999996
Info: NONBONDED TABLE R-SQUARED SPACING: 0.0625
Info: NONBONDED TABLE SIZE: 705 POINTS
TCL: Running for 1500000 steps
ETITLE: TS BOND ANGLE DIHED IMPRP ELECT VDW BOUNDARY MISC KINETIC TOTAL TEMP POTENTIAL TOTALAVG TEMPAVG PRESSURE GPRESSURE VOLUME PRESSAVG GPRESSAVG
ENERGY: 0 0.4672 2.1262 0.9697 0.0000 -10575.0528 1318.2290 0.0000 0.0000 1798.6919 -7454.5688 307.6102 -9253.2607 -7454.5688 307.6102 -1077.2121 -999.5877 30280.2373 -1077.2121 -999.5877
ENERGY: 300000 0.1622 6.3278 1.0775 0.0000 -10874.6354 1570.8484 0.0000 0.0000 1759.2040 -7537.0154 300.8570 -9296.2195 -7467.7012 301.7465 874.9256 884.2295 30037.9746 -68.6757 -36.3170
ENERGY: 600000 0.2862 1.8096 1.5055 0.0000 -10904.6374 1586.4943 0.0000 0.0000 1739.1732 -7575.3686 297.4314 -9314.5419 -7490.0514 299.9189 1009.8556 1144.7542 29896.2290 143.4295 206.3047
ENERGY: 900000 0.9001 3.5714 1.2836 0.0000 -10728.4290 1491.4380 0.0000 0.0000 1716.8638 -7514.3722 293.6160 -9231.2360 -7498.8760 298.4668 -51.7328 39.7883 30587.5983 99.2378 159.9567
ENERGY: 1200000 0.9031 2.7937 0.6958 0.0000 -10457.3864 1293.9928 0.0000 0.0000 1715.7290 -7443.2720 293.4220 -9159.0010 -7508.3299 297.5158 -1145.8135 -1055.5070 30633.8269 -0.0495 66.7220
ENERGY: 1500000 0.9576 5.0230 0.8655 0.0000 -10654.3383 1447.1559 0.0000 0.0000 1724.4835 -7475.8529 294.9191 -9200.3364 -7503.9835 297.7325 -10.5812 31.2097 30513.9660 -2.0193 67.4457
TCL: Running FEP window  11: Lambda1 0.4999999999999996 Lambda2 0.4499999999999996 [dLambda -0.04999999999999999]
TCL: Setting parameter firsttimestep to 0
TCL: Setting parameter alchLambda to 0.4999999999999996
Info: NONBONDED TABLE R-SQUARED SPACING: 0.0625
Info: NONBONDED TABLE SIZE: 705 POINTS
TCL: Setting parameter alchLambda2 to 0.4499999999999996
Info: NONBONDED TABLE R-SQUARED SPACING: 0.0625
Info: NONBONDED TABLE SIZE: 705 POINTS
TCL: Running for 1500000 steps
ETITLE: TS BOND ANGLE DIHED IMPRP ELECT VDW BOUNDARY MISC KINETIC TOTAL TEMP POTENTIAL TOTALAVG TEMPAVG PRESSURE GPRESSURE VOLUME PRESSAVG GPRESSAVG
ENERGY: 0 0.9576 5.0230 0.8655 0.0000 -10653.9114 1447.1839 0.0000 0.0000 1723.6267 -7476.2546 294.7726 -9199.8814 -7476.2546 294.7726 -47.0235 27.7702 30513.9660 -47.0235 27.7702
ENERGY: 300000 0.5116 3.0483 0.3416 0.0000 -10465.1383 1342.3705 0.0000 0.0000 1806.3685 -7312.4979 308.9230 -9118.8664 -7419.7006 302.4853 -540.2533 -496.4553 30704.7318 188.7071 252.5656
ENERGY: 600000 0.1479 5.8956 0.2206 0.0000 -10914.6555 1594.5912 0.0000 0.0000 1773.2288 -7540.5715 303.2555 -9313.8003 -7449.9608 301.0908 1289.2603 1326.1720 29779.8059 206.1746 267.7279
ENERGY: 900000 0.8979 2.6323 0.2607 0.0000 -10581.0722 1339.1456 0.0000 0.0000 1726.9893 -7511.1465 295.3477 -9238.1358 -7455.1756 299.7028 -709.6106 -613.9961 29895.9529 17.0837 82.7703
ENERGY: 1200000 0.7697 3.4850 1.7334 0.0000 -10640.9849 1391.6288 0.0000 0.0000 1775.8501 -7467.5179 303.7038 -9243.3681 -7448.9290 300.1464 -368.0833 -363.8264 30224.4886 -140.3962 -75.8467
ENERGY: 1500000 0.5823 6.3884 1.5096 0.0000 -10588.1431 1394.5507 0.0000 0.0000 1776.7113 -7408.4008 303.8511 -9185.1121 -7446.1153 300.0571 -154.8458 -101.8502 30251.1366 -113.5894 -50.5644
TCL: Running FEP window  12: Lambda1 0.4499999999999996 Lambda2 0.39999999999999963 [dLambda -0.04999999999999999]
TCL: Setting parameter firsttimestep to 0
TCL: Setting parameter alchLambda to 0.4499999999999996
Info: NONBONDED TABLE R-SQUARED SPACING: 0.0625
Info: NONBONDED TABLE SIZE: 705 POINTS
TCL: Setting parameter alchLambda2 to 0.39999999999999963
Info: NONBONDED TABLE R-SQUARED SPACING: 0.0625
Info: NONBONDED TABLE SIZE: 705 POINTS
TCL: Running for 1500000 steps
ETITLE: TS BOND ANGLE DIHED IMPRP ELECT VDW BOUNDARY MISC KINETIC TOTAL TEMP POTENTIAL TOTALAVG TEMPAVG PRESSURE GPRESSURE VOLUME PRESSAVG GPRESSAVG
ENERGY: 0 0.5823 6.3884 1.5096 0.0000 -10588.1446 1394.4601 0.0000 0.0000 1775.8341 -7409.3701 303.7011 -9185.2042 -7409.3701 303.7011 -184.9689 -106.5737 30251.1366 -184.9689 -106.5737
ENERGY: 300000 0.6858 3.7178 0.1426 0.0000 -10764.0189 1496.3042 0.0000 0.0000 1724.0330 -7539.1355 294.8421 -9263.1685 -7461.5736 303.1928 353.7322 450.0687 29903.3226 85.1027 154.8289
ENERGY: 600000 0.9154 4.6691 0.6748 0.0000 -10671.4194 1468.9388 0.0000 0.0000 1732.5881 -7463.6333 296.3052 -9196.2214 -7465.1869 301.1190 148.2936 265.4112 30290.1037 1.1254 71.1225
ENERGY: 900000 1.0473 3.9511 0.4715 0.0000 -10753.9342 1495.6123 0.0000 0.0000 1711.7107 -7541.1414 292.7347 -9252.8520 -7468.2789 299.7982 205.9153 224.2807 30335.2045 12.5336 66.3690
ENERGY: 1200000 1.0747 2.9627 0.1078 0.0000 -10609.0930 1422.7909 0.0000 0.0000 1809.2699 -7372.8870 309.4192 -9182.1569 -7458.6041 301.1580 -289.5248 -172.8743 30466.8578 -122.3446 -65.4313
ENERGY: 1500000 0.3010 3.3967 0.4313 0.0000 -10622.2827 1458.5669 0.0000 0.0000 1694.7514 -7464.8356 289.8344 -9159.5869 -7460.6237 299.8488 362.6176 395.1098 30109.3394 -149.6691 -92.9317
TCL: Running FEP window  13: Lambda1 0.39999999999999963 Lambda2 0.34999999999999964 [dLambda -0.04999999999999999]
TCL: Setting parameter firsttimestep to 0
TCL: Setting parameter alchLambda to 0.39999999999999963
Info: NONBONDED TABLE R-SQUARED SPACING: 0.0625
Info: NONBONDED TABLE SIZE: 705 POINTS
TCL: Setting parameter alchLambda2 to 0.34999999999999964
Info: NONBONDED TABLE R-SQUARED SPACING: 0.0625
Info: NONBONDED TABLE SIZE: 705 POINTS
TCL: Running for 1500000 steps
ETITLE: TS BOND ANGLE DIHED IMPRP ELECT VDW BOUNDARY MISC KINETIC TOTAL TEMP POTENTIAL TOTALAVG TEMPAVG PRESSURE GPRESSURE VOLUME PRESSAVG GPRESSAVG
ENERGY: 0 0.3010 3.3967 0.4313 0.0000 -10622.2826 1458.7496 0.0000 0.0000 1693.9016 -7465.5025 289.6891 -9159.4041 -7465.5025 289.6891 289.6359 391.1977 30109.3394 289.6359 391.1977
ENERGY: 300000 0.4524 2.6964 2.8636 0.0000 -10638.7267 1377.3003 0.0000 0.0000 1756.6303 -7498.7837 300.4169 -9255.4140 -7491.1386 293.5745 -531.0932 -504.2333 30312.4804 287.4928 339.4536
ENERGY: 600000 3.2235 3.3022 0.5061 0.0000 -10774.9485 1451.4776 0.0000 0.0000 1772.1779 -7544.2612 303.0758 -9316.4391 -7485.8733 297.8228 -503.9822 -457.9468 30593.3729 7.7194 62.7061
ENERGY: 900000 1.4895 3.5589 0.4700 0.0000 -10734.5646 1471.7205 0.0000 0.0000 1755.9465 -7501.3792 300.2999 -9257.3256 -7481.2029 298.2570 51.8351 140.1205 30260.5995 -70.3343 -8.0623
ENERGY: 1200000 0.6466 4.7531 1.3417 0.0000 -10709.1792 1436.6495 0.0000 0.0000 1767.1849 -7498.6034 302.2219 -9265.7883 -7484.6119 300.0128 -173.6263 -150.5580 30248.8868 -43.4185 16.2799
ENERGY: 1500000 0.6006 3.6749 0.4530 0.0000 -10768.3829 1514.0107 0.0000 0.0000 1732.8555 -7516.7882 296.3509 -9249.6436 -7481.6345 299.7455 679.2682 761.4292 29833.8815 16.2890 76.6135
TCL: Running FEP window  14: Lambda1 0.34999999999999964 Lambda2 0.29999999999999966 [dLambda -0.04999999999999999]
TCL: Setting parameter firsttimestep to 0
TCL: Setting parameter alchLambda to 0.34999999999999964
Info: NONBONDED TABLE R-SQUARED SPACING: 0.0625
Info: NONBONDED TABLE SIZE: 705 POINTS
TCL: Setting parameter alchLambda2 to 0.29999999999999966
Info: NONBONDED TABLE R-SQUARED SPACING: 0.0625
Info: NONBONDED TABLE SIZE: 705 POINTS
TCL: Running for 1500000 steps
ETITLE: TS BOND ANGLE DIHED IMPRP ELECT VDW BOUNDARY MISC KINETIC TOTAL TEMP POTENTIAL TOTALAVG TEMPAVG PRESSURE GPRESSURE VOLUME PRESSAVG GPRESSAVG
ENERGY: 0 0.6006 3.6749 0.4530 0.0000 -10768.3827 1514.2150 0.0000 0.0000 1732.0084 -7517.4308 296.2060 -9249.4392 -7517.4308 296.2060 682.3671 762.0803 29833.8815 682.3671 762.0803
ENERGY: 300000 0.2650 3.4783 0.2298 0.0000 -10700.7727 1442.5216 0.0000 0.0000 1768.0420 -7486.2359 302.3685 -9254.2779 -7475.7157 298.9611 143.6480 230.7204 30036.0657 286.5707 385.2742
ENERGY: 600000 1.0492 4.0537 0.6662 0.0000 -10641.4964 1402.7143 0.0000 0.0000 1738.1567 -7494.8563 297.2575 -9233.0130 -7471.4116 298.6626 -222.4832 -177.3253 30133.3505 164.0427 249.6720
ENERGY: 900000 0.2079 6.9723 0.2700 0.0000 -10576.1379 1420.4031 0.0000 0.0000 1747.7285 -7400.5561 298.8945 -9148.2846 -7454.0927 299.1756 182.8509 176.7526 30111.8373 182.8825 253.2035
ENERGY: 1200000 0.5019 2.7240 0.7057 0.0000 -10749.9309 1544.9303 0.0000 0.0000 1695.7872 -7505.2818 290.0115 -9201.0691 -7478.2379 297.8725 1037.3234 1081.8207 29803.3803 184.5969 258.2901
ENERGY: 1500000 1.6083 7.1838 0.3183 0.0000 -10649.8507 1418.6604 0.0000 0.0000 1766.2775 -7455.8024 302.0667 -9222.0799 -7475.7421 298.5760 -209.7311 -135.2993 30190.0590 106.1641 176.9060
TCL: Running FEP window  15: Lambda1 0.29999999999999966 Lambda2 0.24999999999999967 [dLambda -0.04999999999999999]
TCL: Setting parameter firsttimestep to 0
TCL: Setting parameter alchLambda to 0.29999999999999966
Info: NONBONDED TABLE R-SQUARED SPACING: 0.0625
Info: NONBONDED TABLE SIZE: 705 POINTS
TCL: Setting parameter alchLambda2 to 0.24999999999999967
Info: NONBONDED TABLE R-SQUARED SPACING: 0.0625
Info: NONBONDED TABLE SIZE: 705 POINTS
TCL: Running for 1500000 steps
ETITLE: TS BOND ANGLE DIHED IMPRP ELECT VDW BOUNDARY MISC KINETIC TOTAL TEMP POTENTIAL TOTALAVG TEMPAVG PRESSURE GPRESSURE VOLUME PRESSAVG GPRESSAVG
ENERGY: 0 1.6083 7.1838 0.3183 0.0000 -10649.8518 1418.3034 0.0000 0.0000 1765.4078 -7457.0301 301.9180 -9222.4380 -7457.0301 301.9180 -233.0649 -142.0293 30190.0590 -233.0649 -142.0293
ENERGY: 300000 0.0998 3.1621 0.0937 0.0000 -10554.8294 1340.7799 0.0000 0.0000 1803.5116 -7407.1823 308.4344 -9210.6939 -7445.9221 303.0467 -809.7069 -761.8125 30483.0459 -289.0919 -244.1292
ENERGY: 600000 0.0165 2.7302 0.0304 0.0000 -10820.3552 1601.2035 0.0000 0.0000 1785.5707 -7430.8038 305.3662 -9216.3745 -7434.1006 304.7023 1216.7672 1327.4587 30287.1076 121.4256 194.6884
ENERGY: 900000 0.6121 2.6101 0.1822 0.0000 -10636.6047 1392.5288 0.0000 0.0000 1748.2675 -7492.4039 298.9867 -9240.6714 -7440.8356 302.5625 -263.5549 -269.9101 30230.4862 80.1825 146.6088
ENERGY: 1200000 1.1726 4.4365 0.6809 0.0000 -10584.6563 1317.1813 0.0000 0.0000 1798.2764 -7462.9086 307.5391 -9261.1850 -7452.2058 302.6173 -1049.2272 -1034.0511 30224.0254 -81.9935 -24.6037
ENERGY: 1500000 1.3493 2.6851 0.2595 0.0000 -10680.7545 1472.6187 0.0000 0.0000 1791.3019 -7412.5401 306.3463 -9203.8420 -7454.0551 302.2650 462.7372 521.6998 30129.8723 -61.7796 1.8788
TCL: Running FEP window  16: Lambda1 0.24999999999999967 Lambda2 0.19999999999999968 [dLambda -0.04999999999999999]
TCL: Setting parameter firsttimestep to 0
TCL: Setting parameter alchLambda to 0.24999999999999967
Info: NONBONDED TABLE R-SQUARED SPACING: 0.0625
Info: NONBONDED TABLE SIZE: 705 POINTS
TCL: Setting parameter alchLambda2 to 0.19999999999999968
Info: NONBONDED TABLE R-SQUARED SPACING: 0.0625
Info: NONBONDED TABLE SIZE: 705 POINTS
TCL: Running for 1500000 steps
ETITLE: TS BOND ANGLE DIHED IMPRP ELECT VDW BOUNDARY MISC KINETIC TOTAL TEMP POTENTIAL TOTALAVG TEMPAVG PRESSURE GPRESSURE VOLUME PRESSAVG GPRESSAVG
ENERGY: 0 1.3493 2.6851 0.2595 0.0000 -10680.7545 1472.5786 0.0000 0.0000 1790.3955 -7413.4865 306.1913 -9203.8820 -7413.4865 306.1913 425.6737 518.7461 30129.8723 425.6737 518.7461
ENERGY: 300000 0.4353 4.4761 0.8986 0.0000 -10658.3602 1459.0093 0.0000 0.0000 1814.2214 -7379.3196 310.2660 -9193.5409 -7427.0642 305.8794 266.4076 251.3724 30240.1138 38.1482 90.5609
ENERGY: 600000 0.5301 4.4685 0.8424 0.0000 -10802.1829 1514.7746 0.0000 0.0000 1686.1967 -7595.3706 288.3714 -9281.5673 -7473.2291 299.9423 323.2671 399.7286 30155.4749 0.9702 67.4821
ENERGY: 900000 2.5295 3.4615 0.4607 0.0000 -10670.2526 1449.6085 0.0000 0.0000 1767.8025 -7446.3899 302.3275 -9214.1924 -7458.4851 301.7673 -1.8404 38.2544 30353.7546 -16.5826 60.5003
ENERGY: 1200000 1.4295 5.7325 0.2769 0.0000 -10707.2612 1449.0555 0.0000 0.0000 1725.6712 -7525.0957 295.1223 -9250.7669 -7452.9867 300.9639 -212.4245 -146.7515 30419.1251 46.9699 107.9477
ENERGY: 1500000 0.3476 0.9909 0.5054 0.0000 -10637.2192 1397.6189 0.0000 0.0000 1691.2500 -7546.5065 289.2356 -9237.7565 -7466.0071 300.1727 -150.6602 -159.0260 29957.9715 -39.7611 17.4658
TCL: Running FEP window  17: Lambda1 0.19999999999999968 Lambda2 0.1499999999999997 [dLambda -0.04999999999999999]
TCL: Setting parameter firsttimestep to 0
TCL: Setting parameter alchLambda to 0.19999999999999968
Info: NONBONDED TABLE R-SQUARED SPACING: 0.0625
Info: NONBONDED TABLE SIZE: 705 POINTS
TCL: Setting parameter alchLambda2 to 0.1499999999999997
Info: NONBONDED TABLE R-SQUARED SPACING: 0.0625
Info: NONBONDED TABLE SIZE: 705 POINTS
TCL: Running for 1500000 steps
ETITLE: TS BOND ANGLE DIHED IMPRP ELECT VDW BOUNDARY MISC KINETIC TOTAL TEMP POTENTIAL TOTALAVG TEMPAVG PRESSURE GPRESSURE VOLUME PRESSAVG GPRESSAVG
ENERGY: 0 0.3476 0.9909 0.5054 0.0000 -10637.2200 1396.5192 0.0000 0.0000 1690.3710 -7548.4860 289.0853 -9238.8569 -7548.4860 289.0853 -253.9608 -166.1913 29957.9715 -253.9608 -166.1913
ENERGY: 300000 0.0197 4.0838 0.0947 0.0000 -10658.2046 1446.4593 0.0000 0.0000 1713.6188 -7493.9284 293.0611 -9207.5472 -7519.4407 296.5422 139.4258 135.2547 30250.9080 270.5977 331.9226
ENERGY: 600000 0.3632 3.1493 0.5407 0.0000 -10734.4942 1456.9343 0.0000 0.0000 1773.6146 -7499.8920 303.3215 -9273.5066 -7480.3786 300.2633 65.4559 155.3519 29922.5627 131.7459 197.8402
ENERGY: 900000 0.4956 3.6735 0.9116 0.0000 -10679.6965 1439.5185 0.0000 0.0000 1763.9932 -7471.1040 301.6761 -9235.0973 -7498.3115 299.6277 -367.3642 -328.9851 30609.3938 0.4765 67.3286
ENERGY: 1200000 1.3281 2.6493 0.6366 0.0000 -10721.3384 1409.9125 0.0000 0.0000 1768.5498 -7538.2622 302.4553 -9306.8119 -7484.2775 300.1712 -254.9250 -196.1021 29624.7919 -67.4664 -1.4251
ENERGY: 1500000 0.0383 2.2552 0.0830 0.0000 -10724.6266 1492.7938 0.0000 0.0000 1720.5692 -7508.8871 294.2497 -9229.4563 -7485.6685 299.6532 450.4955 509.3858 30258.0748 13.2344 79.7764
TCL: Running FEP window  18: Lambda1 0.1499999999999997 Lambda2 0.09999999999999969 [dLambda -0.05 ]
TCL: Setting parameter firsttimestep to 0
TCL: Setting parameter alchLambda to 0.1499999999999997
Info: NONBONDED TABLE R-SQUARED SPACING: 0.0625
Info: NONBONDED TABLE SIZE: 705 POINTS
TCL: Setting parameter alchLambda2 to 0.09999999999999969
Info: NONBONDED TABLE R-SQUARED SPACING: 0.0625
Info: NONBONDED TABLE SIZE: 705 POINTS
TCL: Running for 1500000 steps
ETITLE: TS BOND ANGLE DIHED IMPRP ELECT VDW BOUNDARY MISC KINETIC TOTAL TEMP POTENTIAL TOTALAVG TEMPAVG PRESSURE GPRESSURE VOLUME PRESSAVG GPRESSAVG
ENERGY: 0 0.0383 2.2552 0.0830 0.0000 -10724.6277 1492.5346 0.0000 0.0000 1719.7020 -7510.0146 294.1014 -9229.7166 -7510.0146 294.1014 409.6892 502.9790 30258.0748 409.6892 502.9790
ENERGY: 300000 0.2076 5.1187 0.8399 0.0000 -10501.5553 1370.0526 0.0000 0.0000 1776.4327 -7348.9038 303.8034 -9125.3365 -7443.7998 301.0970 -507.8439 -455.2757 30671.3896 53.4929 117.7443
ENERGY: 600000 0.3488 4.9103 0.2608 0.0000 -10718.9376 1404.1950 0.0000 0.0000 1787.7955 -7521.4271 305.7467 -9309.2227 -7448.6599 300.6444 -411.9395 -331.2185 29708.1989 -61.1999 7.7111
ENERGY: 900000 0.3096 4.8902 0.3279 0.0000 -10404.3499 1276.2228 0.0000 0.0000 1737.6432 -7384.9562 297.1697 -9122.5994 -7442.7284 300.5497 -1107.6647 -1079.1815 30516.6282 -132.1846 -66.8561
ENERGY: 1200000 0.4767 3.9177 0.6508 0.0000 -10620.5756 1415.0019 0.0000 0.0000 1775.5134 -7425.0151 303.6462 -9200.5284 -7450.6713 301.0887 -151.3562 -120.2902 30323.0538 -118.0547 -49.1123
ENERGY: 1500000 0.1482 4.8446 0.8210 0.0000 -10669.4499 1452.2831 0.0000 0.0000 1735.3692 -7475.9838 296.7808 -9211.3530 -7447.6107 301.0412 40.5941 68.1426 30235.8270 -163.1436 -94.3726
TCL: Running FEP window  19: Lambda1 0.09999999999999969 Lambda2 0.049999999999999684 [dLambda -0.05 ]
TCL: Setting parameter firsttimestep to 0
TCL: Setting parameter alchLambda to 0.09999999999999969
Info: NONBONDED TABLE R-SQUARED SPACING: 0.0625
Info: NONBONDED TABLE SIZE: 705 POINTS
TCL: Setting parameter alchLambda2 to 0.049999999999999684
Info: NONBONDED TABLE R-SQUARED SPACING: 0.0625
Info: NONBONDED TABLE SIZE: 705 POINTS
TCL: Running for 1500000 steps
ETITLE: TS BOND ANGLE DIHED IMPRP ELECT VDW BOUNDARY MISC KINETIC TOTAL TEMP POTENTIAL TOTALAVG TEMPAVG PRESSURE GPRESSURE VOLUME PRESSAVG GPRESSAVG
ENERGY: 0 0.1482 4.8446 0.8210 0.0000 -10669.4503 1452.3417 0.0000 0.0000 1734.4878 -7476.8070 296.6301 -9211.2948 -7476.8070 296.6301 -21.3193 66.5695 30235.8270 -21.3193 66.5695
ENERGY: 300000 0.1144 3.4911 0.9333 0.0000 -10675.2752 1445.5160 0.0000 0.0000 1774.3602 -7450.8601 303.4490 -9225.2203 -7470.3242 299.1966 136.8848 213.4437 29990.1493 238.1664 322.5730
ENERGY: 600000 1.7192 3.4612 0.4769 0.0000 -10734.9301 1475.2349 0.0000 0.0000 1717.6877 -7536.3503 293.7569 -9254.0380 -7487.7100 298.0856 81.3134 173.5118 30051.8060 122.7098 208.9497
ENERGY: 900000 0.3174 4.8131 0.7696 0.0000 -10519.5607 1358.3345 0.0000 0.0000 1760.5548 -7394.7712 301.0880 -9155.3261 -7460.9276 300.7742 -465.5121 -417.7304 30323.1686 87.2829 176.4247
ENERGY: 1200000 0.3845 2.1517 0.4452 0.0000 -10582.9021 1373.0548 0.0000 0.0000 1732.2239 -7474.6421 296.2429 -9206.8660 -7467.7483 300.2944 -379.1118 -304.5760 29989.0914 -35.7589 50.6562
ENERGY: 1500000 0.7751 4.6135 0.9046 0.0000 -10714.0290 1507.7525 0.0000 0.0000 1754.9320 -7445.0513 300.1264 -9199.9832 -7461.5621 300.4012 951.8410 967.8582 29768.7038 -32.8248 46.8774
TCL: Running FEP window  20: Lambda1 0.049999999999999684 Lambda2 0.0    [dLambda -0.049999999999999684]
TCL: Setting parameter firsttimestep to 0
TCL: Setting parameter alchLambda to 0.049999999999999684
Info: NONBONDED TABLE R-SQUARED SPACING: 0.0625
Info: NONBONDED TABLE SIZE: 705 POINTS
TCL: Setting parameter alchLambda2 to 0.0
Info: NONBONDED TABLE R-SQUARED SPACING: 0.0625
Info: NONBONDED TABLE SIZE: 705 POINTS
TCL: Running for 1500000 steps
ETITLE: TS BOND ANGLE DIHED IMPRP ELECT VDW BOUNDARY MISC KINETIC TOTAL TEMP POTENTIAL TOTALAVG TEMPAVG PRESSURE GPRESSURE VOLUME PRESSAVG GPRESSAVG
ENERGY: 0 0.7751 4.6135 0.9046 0.0000 -10714.0295 1506.9087 0.0000 0.0000 1754.0839 -7446.7438 299.9814 -9200.8276 -7446.7438 299.9814 885.9135 962.8272 29768.7038 885.9135 962.8272
ENERGY: 300000 0.1166 3.3024 1.6607 0.0000 -10509.2584 1305.3224 0.0000 0.0000 1762.7179 -7436.1383 301.4579 -9198.8562 -7454.6889 301.5259 -1188.1666 -1042.5122 30522.7741 -66.5135 20.4246
ENERGY: 600000 0.0617 4.3020 0.4355 0.0000 -10597.8498 1379.4868 0.0000 0.0000 1770.7160 -7442.8477 302.8258 -9213.5637 -7455.9115 302.7969 -367.7959 -306.4855 29931.2611 84.3255 158.0135
ENERGY: 900000 0.2741 3.6209 0.4399 0.0000 -10560.7431 1395.9558 0.0000 0.0000 1657.0323 -7503.4201 283.3837 -9160.4524 -7456.8465 300.7233 -433.5484 -414.5517 30473.1044 -11.5977 45.2773
ENERGY: 1200000 2.4943 2.9362 0.4762 0.0000 -10792.0164 1435.1432 0.0000 0.0000 1765.5974 -7585.3690 301.9504 -9350.9664 -7463.0116 300.5851 -400.3733 -365.1691 29932.0563 -101.8549 -47.9897
ENERGY: 1500000 0.1055 2.8803 0.4057 0.0000 -10577.9306 1406.3380 0.0000 0.0000 1737.7990 -7430.4021 297.1963 -9168.2011 -7462.4655 299.9200 -298.3359 -264.7934 30484.4243 -55.3112 1.7283
TCL: Exiting due to exit command.
