Info: SIMULATION PARAMETERS:
Info: TIMESTEP               2
Info: NUMBER OF STEPS        0
Info: STEPS PER CYCLE        10
Info: PERIODIC CELL BASIS 1  30.8992 0 0
Info: PERIODIC CELL BASIS 2  0 31.2531 0
Info: PERIODIC CELL BASIS 3  0 0 31.5284
Info: PERIODIC CELL CENTER   0 0 0
Info: WRAPPING WATERS AROUND PERIODIC BOUNDARIES ON OUTPUT.
Info: WRAPPING ALL CLUSTERS AROUND PERIODIC BOUNDARIES ON OUTPUT.
Info: FIRST LDB TIMESTEP     50
Info: LAST LDB TIMESTEP     -1
Info: HOM BACKGROUND SCALING 1
Info: PME BACKGROUND SCALING 1
Info: MIN ATOMS PER PATCH    40
Info: EMPTY PATCH LOAD       40 ATOMS
Info: VELOCITY FILE          mobley_4305650_equil.vel
Info: CENTER OF MASS MOVING INITIALLY? NO
Info: DIELECTRIC             1
Info: EXCLUDE                SCALED ONE-FOUR
Info: 1-4 ELECTROSTATICS SCALED BY 0.833333
Info: MODIFIED 1-4 VDW PARAMETERS WILL BE USED
Info: DCD FILENAME           mobley_4305650_prod.dcd
Info: DCD FREQUENCY          100000
Info: DCD FIRST STEP         100000
Info: DCD FILE WILL CONTAIN UNIT CELL DATA
Info: XST FILENAME           mobley_4305650_prod.xst
Info: XST FREQUENCY          100000
Info: NO VELOCITY DCD OUTPUT
Info: NO FORCE DCD OUTPUT
Info: OUTPUT FILENAME        mobley_4305650_prod
Info: BINARY OUTPUT FILES WILL BE USED
Info: RESTART FILENAME       mobley_4305650_prod.restart
Info: RESTART FREQUENCY      100000
Info: BINARY RESTART FILES WILL BE USED
Info: CUTOFF                 9
Info: PAIRLIST DISTANCE      11
Info: PAIRLIST SHRINK RATE   0.01
Info: PAIRLIST GROW RATE     0.01
Info: PAIRLIST TRIGGER       0.3
Info: PAIRLISTS PER CYCLE    2
Info: PAIRLISTS ENABLED
Info: MARGIN                 2
Info: HYDROGEN GROUP CUTOFF  2.5
Info: PATCH DIMENSION        15.5
Info: ENERGY OUTPUT STEPS    100000
Info: ENERGY EVALUATION STEPS    100000
Info: OUTPUT ENERGY PRECISION 4
Info: CROSSTERM ENERGY INCLUDED IN DIHEDRAL
Info: TIMING OUTPUT STEPS    1000000
Info: PRESSURE OUTPUT STEPS  100000
Info: ALCHEMICAL FEP ON
Info: FEP CURRENT LAMBDA VALUE     0
Info: FEP COMPARISON LAMBDA VALUE  0.05
Info: FEP INTRA-ALCHEMICAL NON-BONDED INTERACTIONS WILL BE RETAINED
Info: FEP INTRA-ALCHEMICAL BONDED INTERACTIONS WILL BE RETAINED
Info: FEP VDW SHIFTING COEFFICIENT 5
Info: FEP ELEC. ACTIVE FOR ANNIHILATED PARTICLES BETWEEN LAMBDA = 0 AND LAMBDA = 0.5
Info: FEP ELEC. ACTIVE FOR EXNIHILATED PARTICLES BETWEEN LAMBDA = 0.5 AND LAMBDA = 1
Info: FEP VDW ACTIVE FOR ANNIHILATED PARTICLES BETWEEN LAMBDA = 0 AND LAMBDA = 1
Info: FEP VDW ACTIVE FOR EXNIHILATED PARTICLES BETWEEN LAMBDA = 0 AND LAMBDA = 1
Info: FEP BOND ACTIVE FOR ANNIHILATED PARTICLES BETWEEN LAMBDA = 1 AND LAMBDA = 1
Info: FEP BOND ACTIVE FOR EXNIHILATED PARTICLES BETWEEN LAMBDA = 0 AND LAMBDA = 0
Info: LANGEVIN DYNAMICS ACTIVE
Info: LANGEVIN TEMPERATURE   300
Info: LANGEVIN USING BBK INTEGRATOR
Info: LANGEVIN DAMPING COEFFICIENT IS 1 INVERSE PS
Info: LANGEVIN DYNAMICS APPLIED TO HYDROGENS
Info: LANGEVIN PISTON PRESSURE CONTROL ACTIVE
Info:        TARGET PRESSURE IS 1.01325 BAR
Info:     OSCILLATION PERIOD IS 50 FS
Info:             DECAY TIME IS 25 FS
Info:     PISTON TEMPERATURE IS 300 K
Info:       PRESSURE CONTROL IS GROUP-BASED
Info:    INITIAL STRAIN RATE IS -0.000582359 -0.000582359 -0.000582359
Info:       CELL FLUCTUATION IS ISOTROPIC
Info: PARTICLE MESH EWALD (PME) ACTIVE
Info: PME TOLERANCE               1e-06
Info: PME EWALD COEFFICIENT       0.348832
Info: PME INTERPOLATION ORDER     4
Info: PME GRID DIMENSIONS         32 32 32
Info: PME MAXIMUM GRID SPACING    1
Info: PME CALCULATION WILL BE PERFORMED ON GPU
Info: FULL ELECTROSTATIC EVALUATION FREQUENCY      2
Info: USING VERLET I (r-RESPA) MTS SCHEME.
Info: C1 SPLITTING OF LONG RANGE ELECTROSTATICS
Info: PLACING ATOMS IN PATCHES BY HYDROGEN GROUPS
Info: RIGID BONDS TO HYDROGEN : ALL
Info:         ERROR TOLERANCE : 1e-08
Info:          MAX ITERATIONS : 100
Info: RIGID WATER USING SETTLE ALGORITHM
Info: RANDOM NUMBER SEED     1743497776
Info: USE HYDROGEN BONDS?    NO
Info: Using AMBER format force field!
Info: AMBER PARM FILE        mobley_4305650.prmtop
Info: COORDINATE PDB         mobley_4305650.pdb
Info: Exclusions will be read from PARM file!
Info: SCNB (VDW SCALING)     2
Info: USING ARITHMETIC MEAN TO COMBINE L-J SIGMA PARAMETERS
Info: BINARY COORDINATES     mobley_4305650_equil.coor
Info: SUMMARY OF PARAMETERS:
Info: 6 BONDS
Info: 5 ANGLES
Info:   5 HARMONIC
Info:   0 COSINE-BASED
Info: 3 DIHEDRAL
Info: 0 IMPROPER
Info: 0 CROSSTERM
Info: 0 VDW
Info: 21 VDW_PAIRS
Info: 0 NBTHOLE_PAIRS
Info: To read alchdata from file: mobley_4305650.pdb
Info: To read alchflag data from column: 5
Info: STRUCTURE SUMMARY:
Info: 2988 ATOMS
Info: 2987 BONDS
Info: 13 ANGLES
Info: 12 DIHEDRALS
Info: 0 IMPROPERS
Info: 0 CROSSTERMS
Info: 3012 EXCLUSIONS
Info: 2984 RIGID BONDS
Info: ALCH: 0 ATOMS TO DISAPPEAR IN FINAL STATE
Info: ALCH: 9 ATOMS TO APPEAR IN FINAL STATE
Info: 5980 DEGREES OF FREEDOM
Info: 997 HYDROGEN GROUPS
Info: 4 ATOMS IN LARGEST HYDROGEN GROUP
Info: 997 MIGRATION GROUPS
Info: 4 ATOMS IN LARGEST MIGRATION GROUP
Info: TOTAL MASS = 17945 amu
Info: TOTAL CHARGE = -0.000200007 e
Info: MASS DENSITY = 0.978724 g/cm^3
Info: ATOM DENSITY = 0.0981384 atoms/A^3
Info: ADDED 0 IMPLICIT EXCLUSIONS
Info: NONBONDED TABLE R-SQUARED SPACING: 0.0625
Info: NONBONDED TABLE SIZE: 705 POINTS
Info: REMOVING COM VELOCITY 0.102907 -0.0953774 0.0442662
Info: Use 3D box decompostion in PME FFT.
Info: Updated CUDA force table with 4096 elements.
Info: Updated CUDA LJ table with 6 x 6 elements.
Info: Found 11 unique exclusion lists needing 16 bytes
TCL: Running for 1500000 steps
ETITLE: TS BOND ANGLE DIHED IMPRP ELECT VDW BOUNDARY MISC KINETIC TOTAL TEMP POTENTIAL TOTALAVG TEMPAVG PRESSURE GPRESSURE VOLUME PRESSAVG GPRESSAVG
ENERGY: 0 0.5012 8.1963 0.1163 0.0000 -10968.5129 1564.9696 0.0000 0.0000 1769.5403 -7625.1892 297.8171 -9394.7294 -7625.1892 297.8171 789.4541 869.3845 30446.7957 789.4541 869.3845
ENERGY: 300000 0.4899 4.5061 0.2053 0.0000 -10904.7564 1452.1021 0.0000 0.0000 1775.4675 -7671.9854 298.8147 -9447.4529 -7609.3083 299.6542 -274.4287 -268.7612 30754.3700 164.1577 218.7563
ENERGY: 600000 0.5911 3.4294 0.1521 0.0000 -10895.9036 1451.5287 0.0000 0.0000 1790.5115 -7649.6908 301.3466 -9440.2024 -7609.3107 299.6834 -288.6927 -245.6600 30521.9989 113.4468 175.8277
ENERGY: 900000 1.6969 6.0332 0.0379 0.0000 -10919.1440 1528.0181 0.0000 0.0000 1790.4650 -7592.8928 301.3388 -9383.3578 -7612.3125 299.9916 317.7474 408.2942 30944.0760 124.1253 183.6680
ENERGY: 1200000 1.6860 6.9250 0.5832 0.0000 -10835.5122 1444.4274 0.0000 0.0000 1735.0549 -7646.8356 292.0132 -9381.8905 -7609.3598 299.6263 -320.1019 -266.6250 30799.6707 19.0123 74.8813
ENERGY: 1500000 0.3230 4.1200 0.2217 0.0000 -10937.7375 1466.4081 0.0000 0.0000 1736.2965 -7730.3682 292.2221 -9466.6648 -7614.1919 299.5217 -172.2479 -129.8755 30730.6490 26.7393 85.7430
TCL: Running FEP window   2: Lambda1 0.05   Lambda2 0.1    [dLambda 0.05  ]
TCL: Setting parameter firsttimestep to 0
TCL: Setting parameter alchLambda to 0.05
Info: NONBONDED TABLE R-SQUARED SPACING: 0.0625
Info: NONBONDED TABLE SIZE: 705 POINTS
TCL: Setting parameter alchLambda2 to 0.1
Info: NONBONDED TABLE R-SQUARED SPACING: 0.0625
Info: NONBONDED TABLE SIZE: 705 POINTS
TCL: Running for 1500000 steps
ETITLE: TS BOND ANGLE DIHED IMPRP ELECT VDW BOUNDARY MISC KINETIC TOTAL TEMP POTENTIAL TOTALAVG TEMPAVG PRESSURE GPRESSURE VOLUME PRESSAVG GPRESSAVG
ENERGY: 0 0.3230 4.1200 0.2217 0.0000 -10937.7379 1469.1523 0.0000 0.0000 1735.4132 -7728.5076 292.0735 -9463.9208 -7728.5076 292.0735 -221.1925 -125.4114 30730.6490 -221.1925 -125.4114
ENERGY: 300000 1.4774 5.0402 0.3197 0.0000 -10799.5115 1363.7323 0.0000 0.0000 1789.2018 -7639.7400 301.1262 -9428.9419 -7626.3895 298.2257 -1049.5867 -1009.8282 30993.5676 -242.2784 -175.6808
ENERGY: 600000 0.7717 2.7314 0.5548 0.0000 -10888.3739 1518.8071 0.0000 0.0000 1787.1127 -7578.3962 300.7746 -9365.5089 -7601.0418 299.7728 151.8084 207.4130 31281.6843 -170.1172 -119.8026
ENERGY: 900000 0.4001 3.4921 0.3090 0.0000 -10753.7573 1487.0874 0.0000 0.0000 1789.1269 -7473.3418 301.1136 -9262.4687 -7588.3820 299.9652 487.3493 529.3631 31175.1256 2.3931 49.1676
ENERGY: 1200000 0.8226 6.1363 0.1217 0.0000 -10839.3180 1467.3957 0.0000 0.0000 1802.5888 -7562.2529 303.3792 -9364.8417 -7576.6474 301.3536 125.6792 229.2360 30596.7012 47.3626 94.6411
ENERGY: 1500000 0.5335 4.4841 0.5722 0.0000 -10858.8385 1411.6979 0.0000 0.0000 1745.3136 -7696.2372 293.7397 -9441.5508 -7584.3431 300.9220 -369.1772 -287.6919 30267.8807 35.4550 84.8115
TCL: Running FEP window   3: Lambda1 0.1    Lambda2 0.15000000000000002 [dLambda 0.05000000000000002]
TCL: Setting parameter firsttimestep to 0
TCL: Setting parameter alchLambda to 0.1
Info: NONBONDED TABLE R-SQUARED SPACING: 0.0625
Info: NONBONDED TABLE SIZE: 705 POINTS
TCL: Setting parameter alchLambda2 to 0.15000000000000002
Info: NONBONDED TABLE R-SQUARED SPACING: 0.0625
Info: NONBONDED TABLE SIZE: 705 POINTS
TCL: Running for 1500000 steps
ETITLE: TS BOND ANGLE DIHED IMPRP ELECT VDW BOUNDARY MISC KINETIC TOTAL TEMP POTENTIAL TOTALAVG TEMPAVG PRESSURE GPRESSURE VOLUME PRESSAVG GPRESSAVG
ENERGY: 0 0.5335 4.4841 0.5722 0.0000 -10858.8392 1414.5507 0.0000 0.0000 1744.4073 -7694.2913 293.5872 -9438.6986 -7694.2913 293.5872 -367.3559 -282.5517 30267.8807 -367.3559 -282.5517
ENERGY: 300000 0.5505 3.2766 0.9753 0.0000 -10797.5258 1442.2450 0.0000 0.0000 1779.9644 -7570.5138 299.5715 -9350.4782 -7628.1571 296.4345 146.6769 219.4642 30070.8569 -21.6294 57.2821
ENERGY: 600000 0.5665 5.2675 0.1227 0.0000 -10814.6998 1473.7894 0.0000 0.0000 1755.8611 -7579.0926 295.5149 -9334.9537 -7617.5502 297.3085 245.5246 335.0207 30448.3374 -87.5554 -12.2933
ENERGY: 900000 0.3556 2.3443 0.4406 0.0000 -10782.2717 1432.0500 0.0000 0.0000 1788.7781 -7558.3032 301.0549 -9347.0812 -7596.4484 298.5280 -316.3493 -270.8268 31103.7029 -52.8499 12.1980
ENERGY: 1200000 0.3829 4.9868 0.3279 0.0000 -10737.2895 1415.6106 0.0000 0.0000 1813.9771 -7502.0043 305.2959 -9315.9814 -7582.3665 299.5757 -159.9749 -184.7787 30779.9124 30.5651 87.0167
ENERGY: 1500000 1.0960 5.2975 1.0471 0.0000 -10810.6406 1408.2921 0.0000 0.0000 1786.3677 -7608.5401 300.6492 -9394.9078 -7575.6465 299.8422 -556.7392 -532.0153 30935.8204 -60.6680 -2.8708
TCL: Running FEP window   4: Lambda1 0.15000000000000002 Lambda2 0.2    [dLambda 0.04999999999999999]
TCL: Setting parameter firsttimestep to 0
TCL: Setting parameter alchLambda to 0.15000000000000002
Info: NONBONDED TABLE R-SQUARED SPACING: 0.0625
Info: NONBONDED TABLE SIZE: 705 POINTS
TCL: Setting parameter alchLambda2 to 0.2
Info: NONBONDED TABLE R-SQUARED SPACING: 0.0625
Info: NONBONDED TABLE SIZE: 705 POINTS
TCL: Running for 1500000 steps
ETITLE: TS BOND ANGLE DIHED IMPRP ELECT VDW BOUNDARY MISC KINETIC TOTAL TEMP POTENTIAL TOTALAVG TEMPAVG PRESSURE GPRESSURE VOLUME PRESSAVG GPRESSAVG
ENERGY: 0 1.0960 5.2975 1.0471 0.0000 -10810.6416 1408.5302 0.0000 0.0000 1785.4686 -7609.2020 300.4979 -9394.6706 -7609.2020 300.4979 -619.2465 -528.6330 30935.8204 -619.2465 -528.6330
ENERGY: 300000 0.2444 3.5370 0.1260 0.0000 -10902.1969 1481.0980 0.0000 0.0000 1796.6459 -7620.5456 302.3790 -9417.1915 -7619.7262 301.6117 192.6932 255.3768 30390.7359 7.9409 58.3620
ENERGY: 600000 0.9935 5.1480 0.4379 0.0000 -10785.8428 1376.4880 0.0000 0.0000 1766.2155 -7636.5599 297.2575 -9402.7754 -7613.6160 300.6209 -692.9466 -695.3880 30536.0927 16.2238 48.3573
ENERGY: 900000 0.3562 4.4062 0.2678 0.0000 -10908.5806 1467.7956 0.0000 0.0000 1742.7420 -7693.0128 293.3069 -9435.7548 -7616.4887 299.9906 104.0771 170.9293 30273.4268 104.7956 143.4699
ENERGY: 1200000 1.4195 2.2384 0.2429 0.0000 -10925.8859 1474.6419 0.0000 0.0000 1804.9333 -7642.4099 303.7738 -9447.3432 -7615.2589 300.7565 -307.4951 -297.5240 31287.0653 103.5082 142.3404
ENERGY: 1500000 0.2971 3.5405 0.0050 0.0000 -10881.3358 1481.8716 0.0000 0.0000 1793.2774 -7602.3441 301.8121 -9395.6215 -7609.3280 301.5787 208.0999 259.7817 30671.2679 103.3026 146.0632
TCL: Running FEP window   5: Lambda1 0.2    Lambda2 0.25   [dLambda 0.04999999999999999]
TCL: Setting parameter firsttimestep to 0
TCL: Setting parameter alchLambda to 0.2
Info: NONBONDED TABLE R-SQUARED SPACING: 0.0625
Info: NONBONDED TABLE SIZE: 705 POINTS
TCL: Setting parameter alchLambda2 to 0.25
Info: NONBONDED TABLE R-SQUARED SPACING: 0.0625
Info: NONBONDED TABLE SIZE: 705 POINTS
TCL: Running for 1500000 steps
ETITLE: TS BOND ANGLE DIHED IMPRP ELECT VDW BOUNDARY MISC KINETIC TOTAL TEMP POTENTIAL TOTALAVG TEMPAVG PRESSURE GPRESSURE VOLUME PRESSAVG GPRESSAVG
ENERGY: 0 0.2971 3.5405 0.0050 0.0000 -10881.3381 1482.7259 0.0000 0.0000 1792.3501 -7602.4194 301.6560 -9394.7695 -7602.4194 301.6560 181.4605 266.1262 30671.2679 181.4605 266.1262
ENERGY: 300000 0.4251 7.1000 0.0929 0.0000 -10559.2925 1283.7942 0.0000 0.0000 1751.4272 -7516.4530 294.7686 -9267.8802 -7592.0803 300.5574 -1150.3408 -1062.8626 30870.4322 -334.8945 -279.1486
ENERGY: 600000 0.9457 5.6844 0.0467 0.0000 -10732.9146 1390.0814 0.0000 0.0000 1803.9779 -7532.1785 303.6130 -9336.1564 -7573.0836 300.3400 -283.4553 -252.8668 30733.4160 -255.4244 -199.5085
ENERGY: 900000 0.2467 2.0883 0.1752 0.0000 -10845.4038 1450.9589 0.0000 0.0000 1735.0942 -7656.8406 292.0198 -9391.9348 -7581.8715 300.5592 11.2977 88.9523 30435.4790 -151.8254 -105.3810
ENERGY: 1200000 0.0532 3.8852 0.1389 0.0000 -10846.5938 1395.0114 0.0000 0.0000 1827.5259 -7619.9792 307.5762 -9447.5051 -7579.4064 301.9312 -584.1741 -522.0059 30562.2439 -121.9317 -74.6652
ENERGY: 1500000 0.9217 3.3036 1.4216 0.0000 -10857.0331 1447.3351 0.0000 0.0000 1752.7420 -7651.3091 294.9899 -9404.0511 -7582.9488 301.1238 -386.8923 -321.0631 30833.9159 -133.0537 -85.7699
TCL: Running FEP window   6: Lambda1 0.25   Lambda2 0.3    [dLambda 0.04999999999999999]
TCL: Setting parameter firsttimestep to 0
TCL: Setting parameter alchLambda to 0.25
Info: NONBONDED TABLE R-SQUARED SPACING: 0.0625
Info: NONBONDED TABLE SIZE: 705 POINTS
TCL: Setting parameter alchLambda2 to 0.3
Info: NONBONDED TABLE R-SQUARED SPACING: 0.0625
Info: NONBONDED TABLE SIZE: 705 POINTS
TCL: Running for 1500000 steps
ETITLE: TS BOND ANGLE DIHED IMPRP ELECT VDW BOUNDARY MISC KINETIC TOTAL TEMP POTENTIAL TOTALAVG TEMPAVG PRESSURE GPRESSURE VOLUME PRESSAVG GPRESSAVG
ENERGY: 0 0.9217 3.3036 1.4216 0.0000 -10857.0329 1448.0568 0.0000 0.0000 1751.8765 -7651.4526 294.8443 -9403.3292 -7651.4526 294.8443 -389.5222 -312.6915 30833.9159 -389.5222 -312.6915
ENERGY: 300000 0.3673 3.3664 0.0279 0.0000 -10642.5839 1391.1840 0.0000 0.0000 1777.5469 -7470.0914 299.1646 -9247.6383 -7630.1240 297.1327 -184.1974 -69.0208 30734.6590 -247.1185 -135.3388
ENERGY: 600000 1.6943 2.6190 0.0343 0.0000 -10929.4280 1428.1227 0.0000 0.0000 1789.4510 -7707.5067 301.1681 -9496.9577 -7629.9203 298.7823 -600.8957 -465.3295 30693.6581 -346.3325 -236.7931
ENERGY: 900000 0.3137 3.2230 0.0056 0.0000 -10801.8431 1404.4256 0.0000 0.0000 1827.8653 -7566.0098 307.6333 -9393.8751 -7615.1259 300.7961 -376.9851 -351.8411 30868.1880 -396.9669 -306.9583
ENERGY: 1200000 0.9668 4.9387 0.2483 0.0000 -10862.0669 1463.2056 0.0000 0.0000 1843.7403 -7548.9671 310.3051 -9392.7074 -7619.2331 300.5218 -116.0484 -42.3349 31115.4637 -402.5497 -315.7869
ENERGY: 1500000 1.6455 4.3643 0.3063 0.0000 -10726.7869 1373.7443 0.0000 0.0000 1721.3955 -7625.3310 289.7142 -9346.7264 -7630.6404 298.8630 -893.5728 -824.8395 31162.5420 -378.5039 -296.5199
TCL: Running FEP window   7: Lambda1 0.3    Lambda2 0.35   [dLambda 0.04999999999999999]
TCL: Setting parameter firsttimestep to 0
TCL: Setting parameter alchLambda to 0.3
Info: NONBONDED TABLE R-SQUARED SPACING: 0.0625
Info: NONBONDED TABLE SIZE: 705 POINTS
TCL: Setting parameter alchLambda2 to 0.35
Info: NONBONDED TABLE R-SQUARED SPACING: 0.0625
Info: NONBONDED TABLE SIZE: 705 POINTS
TCL: Running for 1500000 steps
ETITLE: TS BOND ANGLE DIHED IMPRP ELECT VDW BOUNDARY MISC KINETIC TOTAL TEMP POTENTIAL TOTALAVG TEMPAVG PRESSURE GPRESSURE VOLUME PRESSAVG GPRESSAVG
ENERGY: 0 1.6455 4.3643 0.3063 0.0000 -10726.7871 1374.0060 0.0000 0.0000 1720.5093 -7625.9557 289.5651 -9346.4650 -7625.9557 289.5651 -894.5048 -819.5064 31162.5420 -894.5048 -819.5064
ENERGY: 300000 0.1557 4.8688 0.3787 0.0000 -10751.9660 1400.2286 0.0000 0.0000 1773.6306 -7572.7036 298.5055 -9346.3342 -7590.6520 296.9701 -281.3558 -237.4380 30729.5142 -588.1601 -518.2971
ENERGY: 600000 1.7268 1.7743 1.8572 0.0000 -10944.6370 1496.1780 0.0000 0.0000 1775.2249 -7667.8758 298.7739 -9443.1007 -7586.0207 299.8218 3.6168 100.0151 30654.8554 -324.1134 -243.7817
ENERGY: 900000 0.2376 2.0893 0.3946 0.0000 -10966.6083 1523.1553 0.0000 0.0000 1775.1778 -7665.5539 298.7659 -9440.7317 -7595.0859 300.1976 453.1710 542.5572 30391.5220 -212.0834 -138.6019
ENERGY: 1200000 0.6650 4.5396 0.0770 0.0000 -10939.3756 1512.1959 0.0000 0.0000 1770.3960 -7651.5021 297.9611 -9421.8981 -7603.4602 300.7631 134.3110 199.0360 30711.1957 -124.5623 -54.3205
ENERGY: 1500000 0.4443 5.0522 0.5945 0.0000 -10874.3153 1473.9381 0.0000 0.0000 1756.4036 -7637.8826 295.6062 -9394.2862 -7599.1521 300.9519 206.4939 259.1786 30499.3671 -108.3425 -43.2969
TCL: Running FEP window   8: Lambda1 0.35   Lambda2 0.39999999999999997 [dLambda 0.04999999999999999]
TCL: Setting parameter firsttimestep to 0
TCL: Setting parameter alchLambda to 0.35
Info: NONBONDED TABLE R-SQUARED SPACING: 0.0625
Info: NONBONDED TABLE SIZE: 705 POINTS
TCL: Setting parameter alchLambda2 to 0.39999999999999997
Info: NONBONDED TABLE R-SQUARED SPACING: 0.0625
Info: NONBONDED TABLE SIZE: 705 POINTS
TCL: Running for 1500000 steps
ETITLE: TS BOND ANGLE DIHED IMPRP ELECT VDW BOUNDARY MISC KINETIC TOTAL TEMP POTENTIAL TOTALAVG TEMPAVG PRESSURE GPRESSURE VOLUME PRESSAVG GPRESSAVG
ENERGY: 0 0.4443 5.0522 0.5945 0.0000 -10874.3154 1473.6808 0.0000 0.0000 1755.5001 -7639.0436 295.4541 -9394.5436 -7639.0436 295.4541 180.9737 258.0243 30499.3671 180.9737 258.0243
ENERGY: 300000 1.1045 2.1112 0.0077 0.0000 -10894.5453 1419.9084 0.0000 0.0000 1774.9752 -7696.4382 298.7318 -9471.4134 -7608.3659 299.9611 -802.4011 -731.6521 31027.9280 49.0590 127.1574
ENERGY: 600000 1.2891 4.2949 0.0861 0.0000 -10708.5980 1332.4349 0.0000 0.0000 1788.4538 -7582.0393 301.0003 -9370.4930 -7625.3137 298.0663 -1078.6709 -1026.0234 30834.2927 -224.5814 -177.2673
ENERGY: 900000 1.7086 2.8369 0.1760 0.0000 -10721.8485 1405.0881 0.0000 0.0000 1779.4810 -7532.5579 299.4902 -9312.0389 -7609.6172 299.8567 -107.6544 -36.8122 30518.6311 -194.1563 -147.2209
ENERGY: 1200000 1.6468 4.6407 0.3201 0.0000 -10906.7135 1425.1514 0.0000 0.0000 1772.1413 -7702.8133 298.2549 -9474.9546 -7618.5440 298.8345 -131.3793 -102.8528 30373.7491 -189.2320 -141.3659
ENERGY: 1500000 0.9919 2.5951 0.0633 0.0000 -10970.0154 1526.8497 0.0000 0.0000 1738.1959 -7701.3195 292.5418 -9439.5154 -7632.6569 297.9054 391.2323 417.1561 30436.6610 -49.7093 -2.3699
TCL: Running FEP window   9: Lambda1 0.39999999999999997 Lambda2 0.44999999999999996 [dLambda 0.04999999999999999]
TCL: Setting parameter firsttimestep to 0
TCL: Setting parameter alchLambda to 0.39999999999999997
Info: NONBONDED TABLE R-SQUARED SPACING: 0.0625
Info: NONBONDED TABLE SIZE: 705 POINTS
TCL: Setting parameter alchLambda2 to 0.44999999999999996
Info: NONBONDED TABLE R-SQUARED SPACING: 0.0625
Info: NONBONDED TABLE SIZE: 705 POINTS
TCL: Running for 1500000 steps
ETITLE: TS BOND ANGLE DIHED IMPRP ELECT VDW BOUNDARY MISC KINETIC TOTAL TEMP POTENTIAL TOTALAVG TEMPAVG PRESSURE GPRESSURE VOLUME PRESSAVG GPRESSAVG
ENERGY: 0 0.9919 2.5951 0.0633 0.0000 -10970.0158 1526.9285 0.0000 0.0000 1737.3034 -7702.1336 292.3916 -9439.4371 -7702.1336 292.3916 347.4634 424.0582 30436.6610 347.4634 424.0582
ENERGY: 300000 0.9272 1.5439 0.5320 0.0000 -10673.7617 1356.0454 0.0000 0.0000 1833.9229 -7480.7904 308.6528 -9314.7132 -7581.7380 300.4326 -322.4567 -366.5942 30702.0472 -310.0187 -278.0354
ENERGY: 600000 0.4696 5.1004 0.6645 0.0000 -10784.5280 1405.2303 0.0000 0.0000 1806.4143 -7566.6489 304.0231 -9373.0632 -7567.9089 303.1266 -391.7513 -339.0704 30807.9649 -137.6944 -95.6495
ENERGY: 900000 0.3361 1.4129 0.3751 0.0000 -10807.8722 1474.9709 0.0000 0.0000 1750.2292 -7580.5481 294.5670 -9330.7772 -7563.3343 301.6960 490.3130 506.4257 30371.6022 16.4334 56.1162
ENERGY: 1200000 0.4369 3.5691 0.1351 0.0000 -10867.3829 1474.3106 0.0000 0.0000 1763.6663 -7625.2650 296.8285 -9388.9313 -7570.8571 301.2804 73.6818 182.7279 30409.9246 -39.8353 10.1346
ENERGY: 1500000 0.3540 5.5172 0.4683 0.0000 -10855.8985 1516.8032 0.0000 0.0000 1793.6814 -7539.0744 301.8801 -9332.7558 -7573.3492 301.0488 727.4082 753.5936 30728.8424 -19.4987 29.0948
TCL: Running FEP window  10: Lambda1 0.44999999999999996 Lambda2 0.49999999999999994 [dLambda 0.04999999999999999]
TCL: Setting parameter firsttimestep to 0
TCL: Setting parameter alchLambda to 0.44999999999999996
Info: NONBONDED TABLE R-SQUARED SPACING: 0.0625
Info: NONBONDED TABLE SIZE: 705 POINTS
TCL: Setting parameter alchLambda2 to 0.49999999999999994
Info: NONBONDED TABLE R-SQUARED SPACING: 0.0625
Info: NONBONDED TABLE SIZE: 705 POINTS
TCL: Running for 1500000 steps
ETITLE: TS BOND ANGLE DIHED IMPRP ELECT VDW BOUNDARY MISC KINETIC TOTAL TEMP POTENTIAL TOTALAVG TEMPAVG PRESSURE GPRESSURE VOLUME PRESSAVG GPRESSAVG
ENERGY: 0 0.3540 5.5172 0.4683 0.0000 -10855.9002 1516.8733 0.0000 0.0000 1792.8013 -7539.8860 301.7320 -9332.6874 -7539.8860 301.7320 666.7587 759.4688 30728.8424 666.7587 759.4688
ENERGY: 300000 0.4022 5.3880 0.4669 0.0000 -10710.5995 1405.5725 0.0000 0.0000 1777.9834 -7520.7864 299.2381 -9298.7697 -7562.9332 302.3054 -364.4174 -285.2191 31224.8664 73.4100 146.3460
ENERGY: 600000 0.5632 4.8757 0.3231 0.0000 -11049.4880 1590.2001 0.0000 0.0000 1782.0571 -7671.4688 299.9237 -9453.5259 -7592.8198 301.4808 1258.7511 1349.7725 29977.6947 96.5245 167.0573
ENERGY: 900000 1.1203 3.0012 0.1449 0.0000 -10823.5484 1406.6884 0.0000 0.0000 1753.7507 -7658.8428 295.1597 -9412.5935 -7610.1207 299.4154 -614.7646 -561.2362 30772.8206 -88.2948 -14.5610
ENERGY: 1200000 0.2036 4.4775 0.0828 0.0000 -10836.4607 1510.4619 0.0000 0.0000 1766.5786 -7554.6564 297.3187 -9321.2349 -7608.4835 299.3460 624.1061 764.1769 30448.4664 -60.4954 14.2979
ENERGY: 1500000 0.8213 6.3081 0.4256 0.0000 -10702.9548 1349.8556 0.0000 0.0000 1765.3653 -7580.1789 297.1145 -9345.5442 -7601.2085 299.5311 -808.1426 -693.9818 30794.1414 -130.2201 -49.6015
TCL: Running FEP window  11: Lambda1 0.49999999999999994 Lambda2 0.5499999999999999 [dLambda 0.04999999999999999]
TCL: Setting parameter firsttimestep to 0
TCL: Setting parameter alchLambda to 0.49999999999999994
Info: NONBONDED TABLE R-SQUARED SPACING: 0.0625
Info: NONBONDED TABLE SIZE: 705 POINTS
TCL: Setting parameter alchLambda2 to 0.5499999999999999
Info: NONBONDED TABLE R-SQUARED SPACING: 0.0625
Info: NONBONDED TABLE SIZE: 705 POINTS
TCL: Running for 1500000 steps
ETITLE: TS BOND ANGLE DIHED IMPRP ELECT VDW BOUNDARY MISC KINETIC TOTAL TEMP POTENTIAL TOTALAVG TEMPAVG PRESSURE GPRESSURE VOLUME PRESSAVG GPRESSAVG
ENERGY: 0 0.8213 6.3081 0.4256 0.0000 -10702.9542 1350.4741 0.0000 0.0000 1764.4810 -7580.4441 296.9656 -9344.9251 -7580.4441 296.9656 -774.2054 -686.9115 30794.1414 -774.2054 -686.9115
ENERGY: 300000 0.9719 7.0138 0.9047 0.0000 -10807.9677 1422.6377 0.0000 0.0000 1782.4435 -7593.9961 299.9888 -9376.4396 -7595.2612 300.1795 -296.4857 -198.2455 30882.1593 -508.9136 -433.8216
ENERGY: 600000 1.5417 3.3314 0.6569 0.0000 -11011.0421 1546.5996 0.0000 0.0000 1805.5331 -7653.3794 303.8748 -9458.9125 -7607.5041 303.1631 247.2578 308.9923 30964.4604 -244.9311 -158.1507
ENERGY: 900000 0.3048 2.1690 0.2819 0.0000 -10730.0943 1378.1799 0.0000 0.0000 1788.4283 -7560.7304 300.9960 -9349.1587 -7594.7683 302.5218 -525.5680 -427.5772 30586.9254 -269.8424 -184.0200
ENERGY: 1200000 0.3690 2.3538 0.0019 0.0000 -10734.9405 1352.7974 0.0000 0.0000 1775.5918 -7603.8265 298.8356 -9379.4183 -7601.0339 300.6454 -821.2804 -787.0876 30903.4408 -303.5249 -220.5171
ENERGY: 1500000 0.0267 1.6933 0.0563 0.0000 -10755.9142 1380.8394 0.0000 0.0000 1815.8493 -7557.4491 305.6110 -9373.2985 -7594.8982 300.7756 -697.3209 -609.0275 30906.1565 -261.7074 -186.3996
TCL: Running FEP window  12: Lambda1 0.5499999999999999 Lambda2 0.6    [dLambda 0.050000000000000044]
TCL: Setting parameter firsttimestep to 0
TCL: Setting parameter alchLambda to 0.5499999999999999
Info: NONBONDED TABLE R-SQUARED SPACING: 0.0625
Info: NONBONDED TABLE SIZE: 705 POINTS
TCL: Setting parameter alchLambda2 to 0.6
Info: NONBONDED TABLE R-SQUARED SPACING: 0.0625
Info: NONBONDED TABLE SIZE: 705 POINTS
TCL: Running for 1500000 steps
ETITLE: TS BOND ANGLE DIHED IMPRP ELECT VDW BOUNDARY MISC KINETIC TOTAL TEMP POTENTIAL TOTALAVG TEMPAVG PRESSURE GPRESSURE VOLUME PRESSAVG GPRESSAVG
ENERGY: 0 0.0267 1.6933 0.0563 0.0000 -10755.9371 1381.3490 0.0000 0.0000 1814.9671 -7557.8446 305.4625 -9372.8117 -7557.8446 305.4625 -685.2949 -600.2866 30906.1565 -685.2949 -600.2866
ENERGY: 300000 0.3678 2.6280 0.0513 0.0000 -10796.4715 1393.2814 0.0000 0.0000 1817.1434 -7582.9996 305.8288 -9400.1430 -7600.5431 299.1234 -537.3865 -428.0856 30565.7881 -206.8454 -140.1900
ENERGY: 600000 0.5337 4.8065 0.2848 0.0000 -10896.4125 1535.1239 0.0000 0.0000 1810.6826 -7544.9810 304.7415 -9355.6636 -7571.2360 302.1535 399.1992 433.9397 31167.2577 -28.1829 33.3790
ENERGY: 900000 1.3454 5.9668 0.0353 0.0000 -10827.8233 1518.9054 0.0000 0.0000 1797.9039 -7503.6664 302.5908 -9301.5703 -7561.8907 303.5554 739.7916 723.1808 30958.6567 47.8045 94.7388
ENERGY: 1200000 0.2500 5.1307 0.7051 0.0000 -10763.6181 1456.6665 0.0000 0.0000 1808.3186 -7492.5471 304.3436 -9300.8657 -7562.6508 302.9262 93.7592 101.3490 31231.0972 114.5602 162.8274
ENERGY: 1500000 0.6048 0.7458 0.0203 0.0000 -10849.8330 1458.7767 0.0000 0.0000 1811.1478 -7578.5376 304.8197 -9389.6854 -7570.7682 302.6850 151.0996 189.3208 30345.3302 73.0991 126.0060
TCL: Running FEP window  13: Lambda1 0.6    Lambda2 0.65   [dLambda 0.050000000000000044]
TCL: Setting parameter firsttimestep to 0
TCL: Setting parameter alchLambda to 0.6
Info: NONBONDED TABLE R-SQUARED SPACING: 0.0625
Info: NONBONDED TABLE SIZE: 705 POINTS
TCL: Setting parameter alchLambda2 to 0.65
Info: NONBONDED TABLE R-SQUARED SPACING: 0.0625
Info: NONBONDED TABLE SIZE: 705 POINTS
TCL: Running for 1500000 steps
ETITLE: TS BOND ANGLE DIHED IMPRP ELECT VDW BOUNDARY MISC KINETIC TOTAL TEMP POTENTIAL TOTALAVG TEMPAVG PRESSURE GPRESSURE VOLUME PRESSAVG GPRESSAVG
ENERGY: 0 0.6048 0.7458 0.0203 0.0000 -10850.1410 1458.6355 0.0000 0.0000 1810.2610 -7579.8735 304.6705 -9390.1345 -7579.8735 304.6705 106.7053 192.2682 30345.3302 106.7053 192.2682
ENERGY: 300000 3.5667 3.5044 0.4819 0.0000 -10918.7082 1560.5100 0.0000 0.0000 1795.1343 -7555.5110 302.1246 -9350.6453 -7557.2766 302.6204 572.4288 631.0551 30839.6913 233.9489 280.8745
ENERGY: 600000 0.3482 0.5174 0.0123 0.0000 -10640.1398 1356.9318 0.0000 0.0000 1769.9275 -7512.4027 297.8823 -9282.3301 -7556.7799 302.5814 -731.7286 -638.3164 31130.2712 50.6280 109.2672
ENERGY: 900000 0.9909 4.0820 1.5688 0.0000 -11017.7166 1517.7420 0.0000 0.0000 1788.5948 -7704.7380 301.0240 -9493.3328 -7574.8554 301.2622 264.1994 307.2415 30578.5507 54.5800 117.5051
ENERGY: 1200000 0.3356 3.8274 0.2781 0.0000 -10899.4026 1480.9430 0.0000 0.0000 1828.0045 -7586.0139 307.6568 -9414.0184 -7575.2381 302.5441 155.1469 297.0057 30321.4579 149.0270 221.5728
ENERGY: 1500000 2.3430 3.0814 0.5621 0.0000 -10778.4287 1461.9066 0.0000 0.0000 1763.9318 -7546.6037 296.8732 -9310.5355 -7580.5657 301.4096 315.8712 334.2632 30797.1039 119.6249 188.2028
TCL: Running FEP window  14: Lambda1 0.65   Lambda2 0.7000000000000001 [dLambda 0.050000000000000044]
TCL: Setting parameter firsttimestep to 0
TCL: Setting parameter alchLambda to 0.65
Info: NONBONDED TABLE R-SQUARED SPACING: 0.0625
Info: NONBONDED TABLE SIZE: 705 POINTS
TCL: Setting parameter alchLambda2 to 0.7000000000000001
Info: NONBONDED TABLE R-SQUARED SPACING: 0.0625
Info: NONBONDED TABLE SIZE: 705 POINTS
TCL: Running for 1500000 steps
ETITLE: TS BOND ANGLE DIHED IMPRP ELECT VDW BOUNDARY MISC KINETIC TOTAL TEMP POTENTIAL TOTALAVG TEMPAVG PRESSURE GPRESSURE VOLUME PRESSAVG GPRESSAVG
ENERGY: 0 2.3430 3.0814 0.5621 0.0000 -10778.5080 1462.1633 0.0000 0.0000 1763.0376 -7547.3206 296.7227 -9310.3582 -7547.3206 296.7227 281.0565 339.4799 30797.1039 281.0565 339.4799
ENERGY: 300000 1.1350 4.1609 0.3435 0.0000 -10821.9090 1440.2839 0.0000 0.0000 1794.0151 -7581.9706 301.9363 -9375.9857 -7585.6071 299.4737 -73.6451 -53.8316 30677.2239 36.5380 96.1727
ENERGY: 600000 0.3865 6.5499 0.0541 0.0000 -10883.7419 1523.1191 0.0000 0.0000 1815.6824 -7537.9499 305.5829 -9353.6323 -7596.6228 299.4568 711.3664 857.7285 30344.4817 248.0341 322.8822
ENERGY: 900000 4.0210 2.2766 0.0417 0.0000 -10860.9638 1466.9981 0.0000 0.0000 1785.6467 -7601.9797 300.5279 -9387.6264 -7594.9488 300.3586 -170.1328 -103.0490 30939.1338 131.9927 200.4576
ENERGY: 1200000 0.0837 0.6878 0.1401 0.0000 -10751.5494 1420.1499 0.0000 0.0000 1779.8961 -7550.5918 299.5600 -9330.4879 -7589.1883 300.8043 -161.7670 -105.1193 31015.0342 74.1957 137.0491
ENERGY: 1500000 1.3051 6.2754 0.0584 0.0000 -10806.5870 1441.0247 0.0000 0.0000 1764.6094 -7593.3140 296.9872 -9357.9234 -7583.5622 301.2403 -59.3076 -19.0253 30657.6805 72.9179 137.7239
TCL: Running FEP window  15: Lambda1 0.7000000000000001 Lambda2 0.7500000000000001 [dLambda 0.050000000000000044]
TCL: Setting parameter firsttimestep to 0
TCL: Setting parameter alchLambda to 0.7000000000000001
Info: NONBONDED TABLE R-SQUARED SPACING: 0.0625
Info: NONBONDED TABLE SIZE: 705 POINTS
TCL: Setting parameter alchLambda2 to 0.7500000000000001
Info: NONBONDED TABLE R-SQUARED SPACING: 0.0625
Info: NONBONDED TABLE SIZE: 705 POINTS
TCL: Running for 1500000 steps
ETITLE: TS BOND ANGLE DIHED IMPRP ELECT VDW BOUNDARY MISC KINETIC TOTAL TEMP POTENTIAL TOTALAVG TEMPAVG PRESSURE GPRESSURE VOLUME PRESSAVG GPRESSAVG
ENERGY: 0 1.3051 6.2754 0.0584 0.0000 -10806.7994 1441.2997 0.0000 0.0000 1763.6941 -7594.1667 296.8332 -9357.8608 -7594.1667 296.8332 -95.0041 -8.3438 30657.6805 -95.0041 -8.3438
ENERGY: 300000 2.1990 3.0438 0.0278 0.0000 -10722.6560 1419.9725 0.0000 0.0000 1802.6174 -7494.7954 303.3841 -9297.4128 -7589.1348 300.1279 86.9059 165.2091 30582.1245 -262.3331 -185.8963
ENERGY: 600000 0.5471 3.6446 0.2753 0.0000 -10880.2350 1454.7788 0.0000 0.0000 1777.2869 -7643.7023 299.1209 -9420.9892 -7614.1834 298.8473 12.3400 39.3481 30519.6655 -72.7651 -15.6115
ENERGY: 900000 1.5775 4.3297 0.0110 0.0000 -10913.8613 1463.8310 0.0000 0.0000 1788.9670 -7655.1452 301.0867 -9444.1122 -7625.3061 298.7962 1.0411 -15.6170 30548.8911 19.2044 68.1636
ENERGY: 1200000 0.1333 7.0475 0.2347 0.0000 -10749.5886 1380.2336 0.0000 0.0000 1816.0676 -7545.8718 305.6477 -9361.9394 -7630.4273 298.8312 -777.5292 -707.4656 30931.9117 -29.2684 24.1396
ENERGY: 1500000 1.1184 4.6606 0.1249 0.0000 -10732.6166 1403.1899 0.0000 0.0000 1815.5982 -7507.9246 305.5688 -9323.5228 -7614.3906 300.2135 -361.5081 -297.3369 31138.7634 -49.6008 4.5596
TCL: Running FEP window  16: Lambda1 0.7500000000000001 Lambda2 0.8000000000000002 [dLambda 0.050000000000000044]
TCL: Setting parameter firsttimestep to 0
TCL: Setting parameter alchLambda to 0.7500000000000001
Info: NONBONDED TABLE R-SQUARED SPACING: 0.0625
Info: NONBONDED TABLE SIZE: 705 POINTS
TCL: Setting parameter alchLambda2 to 0.8000000000000002
Info: NONBONDED TABLE R-SQUARED SPACING: 0.0625
Info: NONBONDED TABLE SIZE: 705 POINTS
TCL: Running for 1500000 steps
ETITLE: TS BOND ANGLE DIHED IMPRP ELECT VDW BOUNDARY MISC KINETIC TOTAL TEMP POTENTIAL TOTALAVG TEMPAVG PRESSURE GPRESSURE VOLUME PRESSAVG GPRESSAVG
ENERGY: 0 1.1184 4.6606 0.1249 0.0000 -10733.8093 1403.6726 0.0000 0.0000 1814.7257 -7509.5070 305.4219 -9324.2327 -7509.5070 305.4219 -366.2533 -287.1837 31138.7634 -366.2533 -287.1837
ENERGY: 300000 0.5367 2.3581 0.4913 0.0000 -11000.1969 1551.1005 0.0000 0.0000 1704.6251 -7741.0852 286.8918 -9445.7103 -7616.3910 300.2132 643.6016 727.3078 30398.3013 3.2615 92.5155
ENERGY: 600000 0.4977 3.6916 0.6311 0.0000 -10731.6002 1354.2623 0.0000 0.0000 1801.0619 -7571.4556 303.1223 -9372.5175 -7592.8614 301.5728 -1022.3093 -928.6925 31178.9936 -52.4025 27.0639
ENERGY: 900000 0.7509 0.8990 0.0870 0.0000 -10970.7979 1545.3890 0.0000 0.0000 1699.4605 -7724.2115 286.0225 -9423.6720 -7602.0666 300.5623 850.0132 897.7652 30254.2199 -92.8273 -20.5506
ENERGY: 1200000 2.6129 3.8652 0.0706 0.0000 -10934.3573 1478.7399 0.0000 0.0000 1807.7963 -7641.2725 304.2557 -9449.0687 -7605.6623 300.2014 -7.4052 58.5645 30847.2102 -132.5637 -63.9242
ENERGY: 1500000 0.7523 3.7565 0.2266 0.0000 -10904.0193 1508.4214 0.0000 0.0000 1808.6156 -7582.2470 304.3936 -9390.8625 -7605.1644 300.6684 635.5152 634.5407 30489.7238 -92.6017 -24.4389
TCL: Running FEP window  17: Lambda1 0.8000000000000002 Lambda2 0.8500000000000002 [dLambda 0.050000000000000044]
TCL: Setting parameter firsttimestep to 0
TCL: Setting parameter alchLambda to 0.8000000000000002
Info: NONBONDED TABLE R-SQUARED SPACING: 0.0625
Info: NONBONDED TABLE SIZE: 705 POINTS
TCL: Setting parameter alchLambda2 to 0.8500000000000002
Info: NONBONDED TABLE R-SQUARED SPACING: 0.0625
Info: NONBONDED TABLE SIZE: 705 POINTS
TCL: Running for 1500000 steps
ETITLE: TS BOND ANGLE DIHED IMPRP ELECT VDW BOUNDARY MISC KINETIC TOTAL TEMP POTENTIAL TOTALAVG TEMPAVG PRESSURE GPRESSURE VOLUME PRESSAVG GPRESSAVG
ENERGY: 0 0.7523 3.7565 0.2266 0.0000 -10904.7274 1508.1362 0.0000 0.0000 1807.7079 -7584.1480 304.2408 -9391.8558 -7584.1480 304.2408 557.8484 636.0611 30489.7238 557.8484 636.0611
ENERGY: 300000 3.0145 2.4483 0.0259 0.0000 -10923.9277 1443.9046 0.0000 0.0000 1819.5247 -7655.0097 306.2296 -9474.5344 -7590.8849 302.1645 -410.4336 -312.6482 30770.2681 169.2573 254.5966
ENERGY: 600000 0.6821 4.8520 0.0706 0.0000 -10839.4255 1499.9489 0.0000 0.0000 1738.9514 -7594.9204 292.6690 -9333.8718 -7597.1663 299.8050 294.2084 348.5546 31049.8278 41.0346 117.4519
ENERGY: 900000 1.8086 2.1872 0.1261 0.0000 -10914.6923 1514.7178 0.0000 0.0000 1802.2580 -7593.5947 303.3236 -9395.8527 -7589.9293 300.3024 647.4335 720.8228 30271.7223 68.3886 152.0295
ENERGY: 1200000 2.9519 5.1205 0.6739 0.0000 -10739.0666 1421.8603 0.0000 0.0000 1826.0556 -7482.4044 307.3287 -9308.4600 -7579.3292 301.2179 219.1518 268.1113 30397.1164 104.0916 179.1705
ENERGY: 1500000 1.2461 3.8260 0.0833 0.0000 -10821.9865 1442.4853 0.0000 0.0000 1780.7692 -7593.5765 299.7070 -9374.3458 -7584.1566 300.7906 -65.7226 -46.3581 30814.7600 -5.3426 64.7456
TCL: Running FEP window  18: Lambda1 0.8500000000000002 Lambda2 0.9000000000000002 [dLambda 0.050000000000000044]
TCL: Setting parameter firsttimestep to 0
TCL: Setting parameter alchLambda to 0.8500000000000002
Info: NONBONDED TABLE R-SQUARED SPACING: 0.0625
Info: NONBONDED TABLE SIZE: 705 POINTS
TCL: Setting parameter alchLambda2 to 0.9000000000000002
Info: NONBONDED TABLE R-SQUARED SPACING: 0.0625
Info: NONBONDED TABLE SIZE: 705 POINTS
TCL: Running for 1500000 steps
ETITLE: TS BOND ANGLE DIHED IMPRP ELECT VDW BOUNDARY MISC KINETIC TOTAL TEMP POTENTIAL TOTALAVG TEMPAVG PRESSURE GPRESSURE VOLUME PRESSAVG GPRESSAVG
ENERGY: 0 1.2461 3.8260 0.0833 0.0000 -10822.2720 1443.0022 0.0000 0.0000 1779.8562 -7594.2581 299.5533 -9374.1143 -7594.2581 299.5533 -124.3831 -33.7472 30814.7600 -124.3831 -33.7472
ENERGY: 300000 1.0601 2.4534 0.0527 0.0000 -10768.6650 1433.9655 0.0000 0.0000 1757.4314 -7573.7019 295.7792 -9331.1333 -7623.4160 295.3405 -117.6161 -61.9847 31028.4142 -161.5579 -95.1864
ENERGY: 600000 2.9329 3.0726 0.2732 0.0000 -10900.4326 1459.8515 0.0000 0.0000 1811.1600 -7623.1424 304.8218 -9434.3024 -7624.5295 297.6181 -229.0949 -126.5633 30559.6090 -70.4929 -1.0872
ENERGY: 900000 0.8424 3.2449 0.2223 0.0000 -10873.5936 1520.9544 0.0000 0.0000 1789.4337 -7558.8959 301.1652 -9348.3295 -7628.0327 298.1906 503.3726 524.0408 30866.4541 51.5995 119.2354
ENERGY: 1200000 1.4759 5.3846 0.1970 0.0000 -10786.3953 1454.2071 0.0000 0.0000 1822.5913 -7502.5393 306.7457 -9325.1307 -7615.4990 298.5866 -7.7746 38.3411 30943.9661 -60.5376 -2.0731
ENERGY: 1500000 2.8165 5.1914 0.9825 0.0000 -10739.7193 1391.0511 0.0000 0.0000 1788.9581 -7550.7197 301.0852 -9339.6778 -7612.2320 298.4403 -393.2121 -322.2351 30738.9030 -90.8702 -31.0274
TCL: Running FEP window  19: Lambda1 0.9000000000000002 Lambda2 0.9500000000000003 [dLambda 0.050000000000000044]
TCL: Setting parameter firsttimestep to 0
TCL: Setting parameter alchLambda to 0.9000000000000002
Info: NONBONDED TABLE R-SQUARED SPACING: 0.0625
Info: NONBONDED TABLE SIZE: 705 POINTS
TCL: Setting parameter alchLambda2 to 0.9500000000000003
Info: NONBONDED TABLE R-SQUARED SPACING: 0.0625
Info: NONBONDED TABLE SIZE: 705 POINTS
TCL: Running for 1500000 steps
ETITLE: TS BOND ANGLE DIHED IMPRP ELECT VDW BOUNDARY MISC KINETIC TOTAL TEMP POTENTIAL TOTALAVG TEMPAVG PRESSURE GPRESSURE VOLUME PRESSAVG GPRESSAVG
ENERGY: 0 2.8165 5.1914 0.9825 0.0000 -10740.6561 1391.1901 0.0000 0.0000 1788.0696 -7552.4060 300.9356 -9340.4756 -7552.4060 300.9356 -388.7159 -315.6032 30738.9030 -388.7159 -315.6032
ENERGY: 300000 2.0101 2.7035 0.3362 0.0000 -10962.5161 1489.8730 0.0000 0.0000 1764.7340 -7702.8593 297.0082 -9467.5933 -7601.6872 298.0110 238.6803 292.0253 30358.5629 -269.5254 -217.1792
ENERGY: 600000 0.0309 4.8527 0.8916 0.0000 -10832.5718 1458.0833 0.0000 0.0000 1820.2714 -7548.4419 306.3553 -9368.7133 -7602.4387 299.0854 -56.2410 41.4523 30891.5005 -173.7198 -119.0749
ENERGY: 900000 1.6979 4.0201 0.1456 0.0000 -10673.2415 1390.0445 0.0000 0.0000 1761.5199 -7515.8135 296.4673 -9277.3334 -7608.7668 298.2620 -457.8005 -384.1872 31310.3814 -164.0015 -111.1281
ENERGY: 1200000 0.8424 2.8828 0.0319 0.0000 -10950.5655 1479.8559 0.0000 0.0000 1716.1891 -7750.7635 288.8380 -9466.9527 -7621.0019 297.5562 -227.9968 -193.8055 30864.6388 -81.5530 -32.8986
ENERGY: 1500000 1.4153 0.5860 0.0428 0.0000 -10928.2704 1538.8686 0.0000 0.0000 1751.6958 -7635.6618 294.8139 -9387.3576 -7618.2446 297.4953 590.2661 594.8352 30697.9972 -62.9890 -13.5023
TCL: Running FEP window  20: Lambda1 0.9500000000000003 Lambda2 1.0    [dLambda 0.04999999999999971]
TCL: Setting parameter firsttimestep to 0
TCL: Setting parameter alchLambda to 0.9500000000000003
Info: NONBONDED TABLE R-SQUARED SPACING: 0.0625
Info: NONBONDED TABLE SIZE: 705 POINTS
TCL: Setting parameter alchLambda2 to 1.0
Info: NONBONDED TABLE R-SQUARED SPACING: 0.0625
Info: NONBONDED TABLE SIZE: 705 POINTS
TCL: Running for 1500000 steps
ETITLE: TS BOND ANGLE DIHED IMPRP ELECT VDW BOUNDARY MISC KINETIC TOTAL TEMP POTENTIAL TOTALAVG TEMPAVG PRESSURE GPRESSURE VOLUME PRESSAVG GPRESSAVG
ENERGY: 0 1.4153 0.5860 0.0428 0.0000 -10929.0936 1538.8264 0.0000 0.0000 1750.8259 -7637.3971 294.6674 -9388.2230 -7637.3971 294.6674 509.9867 598.4660 30697.9972 509.9867 598.4660
ENERGY: 300000 0.9964 2.1948 0.5580 0.0000 -10917.0732 1497.2419 0.0000 0.0000 1777.9122 -7638.1699 299.2261 -9416.0821 -7644.3023 297.0389 309.1357 318.5509 30324.7926 98.9773 146.3507
ENERGY: 600000 3.2583 2.3033 0.1249 0.0000 -10816.5376 1435.8428 0.0000 0.0000 1772.3473 -7602.6610 298.2895 -9375.0083 -7647.2768 296.0331 8.2894 28.8734 30468.6831 86.6215 127.4593
ENERGY: 900000 0.1042 3.4776 0.8741 0.0000 -10797.4836 1402.4541 0.0000 0.0000 1755.4470 -7635.1267 295.4452 -9390.5736 -7630.6664 297.2409 -491.2216 -408.5371 30905.3628 -20.8409 26.8996
ENERGY: 1200000 0.4712 4.1115 0.1263 0.0000 -10779.2657 1345.5126 0.0000 0.0000 1726.3701 -7702.6740 290.5515 -9429.0441 -7631.7906 297.4371 -961.5900 -834.5412 30555.0699 64.4015 127.2503
ENERGY: 1500000 1.3983 1.5428 0.1178 0.0000 -10934.4939 1508.7816 0.0000 0.0000 1754.3594 -7668.2940 295.2621 -9422.6534 -7626.0761 297.3569 363.9707 450.7639 30501.4581 88.5704 151.2585
TCL: Exiting due to exit command.
