Info: SIMULATION PARAMETERS:
Info: TIMESTEP               2
Info: NUMBER OF STEPS        0
Info: STEPS PER CYCLE        10
Info: PERIODIC CELL BASIS 1  30.2435 0 0
Info: PERIODIC CELL BASIS 2  0 31.6334 0
Info: PERIODIC CELL BASIS 3  0 0 31.5839
Info: PERIODIC CELL CENTER   0 0 0
Info: WRAPPING WATERS AROUND PERIODIC BOUNDARIES ON OUTPUT.
Info: WRAPPING ALL CLUSTERS AROUND PERIODIC BOUNDARIES ON OUTPUT.
Info: FIRST LDB TIMESTEP     50
Info: LAST LDB TIMESTEP     -1
Info: HOM BACKGROUND SCALING 1
Info: PME BACKGROUND SCALING 1
Info: MIN ATOMS PER PATCH    40
Info: EMPTY PATCH LOAD       40 ATOMS
Info: VELOCITY FILE          mobley_9705941_equil.vel
Info: CENTER OF MASS MOVING INITIALLY? NO
Info: DIELECTRIC             1
Info: EXCLUDE                SCALED ONE-FOUR
Info: 1-4 ELECTROSTATICS SCALED BY 0.833333
Info: MODIFIED 1-4 VDW PARAMETERS WILL BE USED
Info: DCD FILENAME           mobley_9705941_prod.dcd
Info: DCD FREQUENCY          100000
Info: DCD FIRST STEP         100000
Info: DCD FILE WILL CONTAIN UNIT CELL DATA
Info: XST FILENAME           mobley_9705941_prod.xst
Info: XST FREQUENCY          100000
Info: NO VELOCITY DCD OUTPUT
Info: NO FORCE DCD OUTPUT
Info: OUTPUT FILENAME        mobley_9705941_prod
Info: BINARY OUTPUT FILES WILL BE USED
Info: RESTART FILENAME       mobley_9705941_prod.restart
Info: RESTART FREQUENCY      100000
Info: BINARY RESTART FILES WILL BE USED
Info: CUTOFF                 9
Info: PAIRLIST DISTANCE      11
Info: PAIRLIST SHRINK RATE   0.01
Info: PAIRLIST GROW RATE     0.01
Info: PAIRLIST TRIGGER       0.3
Info: PAIRLISTS PER CYCLE    2
Info: PAIRLISTS ENABLED
Info: MARGIN                 2
Info: HYDROGEN GROUP CUTOFF  2.5
Info: PATCH DIMENSION        15.5
Info: ENERGY OUTPUT STEPS    100000
Info: ENERGY EVALUATION STEPS    100000
Info: OUTPUT ENERGY PRECISION 4
Info: CROSSTERM ENERGY INCLUDED IN DIHEDRAL
Info: TIMING OUTPUT STEPS    1000000
Info: PRESSURE OUTPUT STEPS  100000
Info: ALCHEMICAL FEP ON
Info: FEP CURRENT LAMBDA VALUE     0
Info: FEP COMPARISON LAMBDA VALUE  0.05
Info: FEP INTRA-ALCHEMICAL NON-BONDED INTERACTIONS WILL BE RETAINED
Info: FEP INTRA-ALCHEMICAL BONDED INTERACTIONS WILL BE RETAINED
Info: FEP VDW SHIFTING COEFFICIENT 5
Info: FEP ELEC. ACTIVE FOR ANNIHILATED PARTICLES BETWEEN LAMBDA = 0 AND LAMBDA = 0.5
Info: FEP ELEC. ACTIVE FOR EXNIHILATED PARTICLES BETWEEN LAMBDA = 0.5 AND LAMBDA = 1
Info: FEP VDW ACTIVE FOR ANNIHILATED PARTICLES BETWEEN LAMBDA = 0 AND LAMBDA = 1
Info: FEP VDW ACTIVE FOR EXNIHILATED PARTICLES BETWEEN LAMBDA = 0 AND LAMBDA = 1
Info: FEP BOND ACTIVE FOR ANNIHILATED PARTICLES BETWEEN LAMBDA = 1 AND LAMBDA = 1
Info: FEP BOND ACTIVE FOR EXNIHILATED PARTICLES BETWEEN LAMBDA = 0 AND LAMBDA = 0
Info: LANGEVIN DYNAMICS ACTIVE
Info: LANGEVIN TEMPERATURE   300
Info: LANGEVIN USING BBK INTEGRATOR
Info: LANGEVIN DAMPING COEFFICIENT IS 1 INVERSE PS
Info: LANGEVIN DYNAMICS APPLIED TO HYDROGENS
Info: LANGEVIN PISTON PRESSURE CONTROL ACTIVE
Info:        TARGET PRESSURE IS 1.01325 BAR
Info:     OSCILLATION PERIOD IS 50 FS
Info:             DECAY TIME IS 25 FS
Info:     PISTON TEMPERATURE IS 300 K
Info:       PRESSURE CONTROL IS GROUP-BASED
Info:    INITIAL STRAIN RATE IS -8.84935e-05 -8.84935e-05 -8.84935e-05
Info:       CELL FLUCTUATION IS ISOTROPIC
Info: PARTICLE MESH EWALD (PME) ACTIVE
Info: PME TOLERANCE               1e-06
Info: PME EWALD COEFFICIENT       0.348832
Info: PME INTERPOLATION ORDER     4
Info: PME GRID DIMENSIONS         32 32 32
Info: PME MAXIMUM GRID SPACING    1
Info: PME CALCULATION WILL BE PERFORMED ON GPU
Info: FULL ELECTROSTATIC EVALUATION FREQUENCY      2
Info: USING VERLET I (r-RESPA) MTS SCHEME.
Info: C1 SPLITTING OF LONG RANGE ELECTROSTATICS
Info: PLACING ATOMS IN PATCHES BY HYDROGEN GROUPS
Info: RIGID BONDS TO HYDROGEN : ALL
Info:         ERROR TOLERANCE : 1e-08
Info:          MAX ITERATIONS : 100
Info: RIGID WATER USING SETTLE ALGORITHM
Info: RANDOM NUMBER SEED     1743542567
Info: USE HYDROGEN BONDS?    NO
Info: Using AMBER format force field!
Info: AMBER PARM FILE        mobley_9705941.prmtop
Info: COORDINATE PDB         mobley_9705941.pdb
Info: Exclusions will be read from PARM file!
Info: SCNB (VDW SCALING)     2
Info: USING ARITHMETIC MEAN TO COMBINE L-J SIGMA PARAMETERS
Info: BINARY COORDINATES     mobley_9705941_equil.coor
Info: SUMMARY OF PARAMETERS:
Info: 9 BONDS
Info: 11 ANGLES
Info:   11 HARMONIC
Info:   0 COSINE-BASED
Info: 4 DIHEDRAL
Info: 0 IMPROPER
Info: 0 CROSSTERM
Info: 0 VDW
Info: 36 VDW_PAIRS
Info: 0 NBTHOLE_PAIRS
Info: To read alchdata from file: mobley_9705941.pdb
Info: To read alchflag data from column: 5
Info: STRUCTURE SUMMARY:
Info: 2937 ATOMS
Info: 2937 BONDS
Info: 19 ANGLES
Info: 26 DIHEDRALS
Info: 0 IMPROPERS
Info: 0 CROSSTERMS
Info: 2973 EXCLUSIONS
Info: 2931 RIGID BONDS
Info: ALCH: 0 ATOMS TO DISAPPEAR IN FINAL STATE
Info: ALCH: 12 ATOMS TO APPEAR IN FINAL STATE
Info: 5880 DEGREES OF FREEDOM
Info: 981 HYDROGEN GROUPS
Info: 4 ATOMS IN LARGEST HYDROGEN GROUP
Info: 981 MIGRATION GROUPS
Info: 4 ATOMS IN LARGEST MIGRATION GROUP
Info: TOTAL MASS = 17663.8 amu
Info: TOTAL CHARGE = 3.72529e-09 e
Info: MASS DENSITY = 0.970732 g/cm^3
Info: ATOM DENSITY = 0.0971988 atoms/A^3
Info: ADDED 0 IMPLICIT EXCLUSIONS
Info: NONBONDED TABLE R-SQUARED SPACING: 0.0625
Info: NONBONDED TABLE SIZE: 705 POINTS
Info: REMOVING COM VELOCITY 0.0546984 -0.000249317 0.143805
Info: Use 3D box decompostion in PME FFT.
Info: Updated CUDA force table with 4096 elements.
Info: Updated CUDA LJ table with 8 x 8 elements.
Info: Found 13 unique exclusion lists needing 24 bytes
TCL: Running for 1500000 steps
ETITLE: TS BOND ANGLE DIHED IMPRP ELECT VDW BOUNDARY MISC KINETIC TOTAL TEMP POTENTIAL TOTALAVG TEMPAVG PRESSURE GPRESSURE VOLUME PRESSAVG GPRESSAVG
ENERGY: 0 2.1132 4.9841 0.9018 0.0000 -10690.7150 1400.0650 0.0000 0.0000 1729.5136 -7553.1372 296.0309 -9282.6508 -7553.1372 296.0309 -633.9971 -535.1010 30216.4249 -633.9971 -535.1010
ENERGY: 300000 0.9453 7.8628 6.5076 0.0000 -10767.7755 1536.3431 0.0000 0.0000 1716.9820 -7499.1348 293.8859 -9216.1168 -7488.0588 295.9870 725.2917 778.9598 29753.1989 -218.1223 -166.8015
ENERGY: 600000 1.8792 1.9011 1.9416 0.0000 -10503.7970 1347.4751 0.0000 0.0000 1745.6014 -7404.9984 298.7846 -9150.5999 -7461.8553 298.1415 -502.2646 -450.7786 30355.6624 -192.1577 -126.7137
ENERGY: 900000 2.7846 6.3123 3.7891 0.0000 -10718.8938 1446.1422 0.0000 0.0000 1666.4218 -7593.4438 285.2318 -9259.8656 -7472.2517 297.3374 -290.2935 -212.7721 30307.1015 -138.5406 -77.6648
ENERGY: 1200000 2.8563 4.5599 1.4163 0.0000 -10644.3885 1429.8503 0.0000 0.0000 1791.8670 -7413.8386 306.7036 -9205.7056 -7452.7331 298.8404 62.9701 102.4479 29706.9484 -187.3009 -126.5922
ENERGY: 1500000 0.7878 3.5904 4.0779 0.0000 -10685.7210 1451.1769 0.0000 0.0000 1761.7092 -7464.3787 301.5416 -9226.0880 -7454.3137 299.2255 101.6664 189.4558 29986.0888 -129.5423 -67.6685
TCL: Running FEP window   2: Lambda1 0.05   Lambda2 0.1    [dLambda 0.05  ]
TCL: Setting parameter firsttimestep to 0
TCL: Setting parameter alchLambda to 0.05
Info: NONBONDED TABLE R-SQUARED SPACING: 0.0625
Info: NONBONDED TABLE SIZE: 705 POINTS
TCL: Setting parameter alchLambda2 to 0.1
Info: NONBONDED TABLE R-SQUARED SPACING: 0.0625
Info: NONBONDED TABLE SIZE: 705 POINTS
TCL: Running for 1500000 steps
ETITLE: TS BOND ANGLE DIHED IMPRP ELECT VDW BOUNDARY MISC KINETIC TOTAL TEMP POTENTIAL TOTALAVG TEMPAVG PRESSURE GPRESSURE VOLUME PRESSAVG GPRESSAVG
ENERGY: 0 0.7878 3.5904 4.0779 0.0000 -10685.7221 1451.3770 0.0000 0.0000 1760.8299 -7465.0591 301.3911 -9225.8890 -7465.0591 301.3911 108.5862 190.4311 29986.0888 108.5862 190.4311
ENERGY: 300000 3.8426 4.5767 2.2248 0.0000 -10687.3824 1457.0219 0.0000 0.0000 1752.1000 -7467.6164 299.8969 -9219.7165 -7463.8767 298.2164 -30.4639 49.2917 30226.6386 212.3456 295.0658
ENERGY: 600000 2.8923 2.9705 2.2295 0.0000 -10511.3989 1359.7710 0.0000 0.0000 1745.1211 -7398.4144 298.7023 -9143.5355 -7433.2629 298.8411 -491.8734 -364.5322 30224.5975 -0.8109 79.6728
ENERGY: 900000 0.6326 7.2992 0.9050 0.0000 -10637.4405 1379.2663 0.0000 0.0000 1775.6176 -7473.7198 303.9222 -9249.3374 -7456.6218 300.2891 -580.7781 -519.8270 30207.1578 -8.4423 71.0644
ENERGY: 1200000 1.0362 3.7595 0.9450 0.0000 -10580.1770 1382.8386 0.0000 0.0000 1750.3671 -7441.2306 299.6003 -9191.5977 -7453.5329 300.0786 -312.4503 -273.9843 30026.5453 11.4356 80.7725
ENERGY: 1500000 2.1187 2.5662 7.7313 0.0000 -10619.0302 1414.2517 0.0000 0.0000 1762.4545 -7429.9079 301.6692 -9192.3624 -7454.2030 300.6492 -188.9070 -173.5892 30447.7114 10.3258 75.9511
TCL: Running FEP window   3: Lambda1 0.1    Lambda2 0.15000000000000002 [dLambda 0.05000000000000002]
TCL: Setting parameter firsttimestep to 0
TCL: Setting parameter alchLambda to 0.1
Info: NONBONDED TABLE R-SQUARED SPACING: 0.0625
Info: NONBONDED TABLE SIZE: 705 POINTS
TCL: Setting parameter alchLambda2 to 0.15000000000000002
Info: NONBONDED TABLE R-SQUARED SPACING: 0.0625
Info: NONBONDED TABLE SIZE: 705 POINTS
TCL: Running for 1500000 steps
ETITLE: TS BOND ANGLE DIHED IMPRP ELECT VDW BOUNDARY MISC KINETIC TOTAL TEMP POTENTIAL TOTALAVG TEMPAVG PRESSURE GPRESSURE VOLUME PRESSAVG GPRESSAVG
ENERGY: 0 2.1187 2.5662 7.7313 0.0000 -10619.0298 1416.0711 0.0000 0.0000 1761.5664 -7428.9762 301.5172 -9190.5426 -7428.9762 301.5172 -248.4902 -165.9810 30447.7114 -248.4902 -165.9810
ENERGY: 300000 1.3113 4.9631 2.1104 0.0000 -10612.9874 1416.6993 0.0000 0.0000 1697.5784 -7490.3249 290.5647 -9187.9033 -7429.5982 300.2696 -105.7221 -0.9935 30232.5453 34.8180 112.2820
ENERGY: 600000 3.1462 7.3912 1.7248 0.0000 -10551.8432 1308.1724 0.0000 0.0000 1728.4484 -7502.9602 295.8486 -9231.4086 -7465.4467 297.8230 -1103.6878 -1030.6874 30145.2625 -458.4623 -390.8959
ENERGY: 900000 1.6943 3.7682 2.9977 0.0000 -10683.9226 1428.2581 0.0000 0.0000 1688.1787 -7559.0256 288.9558 -9247.2043 -7464.4147 298.6820 -377.2054 -332.3283 30242.0244 -393.1704 -331.4075
ENERGY: 1200000 1.1708 3.3204 2.7057 0.0000 -10490.4812 1345.2960 0.0000 0.0000 1820.9518 -7317.0365 311.6819 -9137.9883 -7451.2865 300.5831 -639.6548 -566.6275 30509.1137 -358.5963 -294.7986
ENERGY: 1500000 3.9128 3.7129 1.8557 0.0000 -10536.3850 1348.1490 0.0000 0.0000 1737.7230 -7441.0318 297.4360 -9178.7547 -7450.7034 300.0169 -433.0079 -422.7936 30034.4096 -256.4941 -196.5534
TCL: Running FEP window   4: Lambda1 0.15000000000000002 Lambda2 0.2    [dLambda 0.04999999999999999]
TCL: Setting parameter firsttimestep to 0
TCL: Setting parameter alchLambda to 0.15000000000000002
Info: NONBONDED TABLE R-SQUARED SPACING: 0.0625
Info: NONBONDED TABLE SIZE: 705 POINTS
TCL: Setting parameter alchLambda2 to 0.2
Info: NONBONDED TABLE R-SQUARED SPACING: 0.0625
Info: NONBONDED TABLE SIZE: 705 POINTS
TCL: Running for 1500000 steps
ETITLE: TS BOND ANGLE DIHED IMPRP ELECT VDW BOUNDARY MISC KINETIC TOTAL TEMP POTENTIAL TOTALAVG TEMPAVG PRESSURE GPRESSURE VOLUME PRESSAVG GPRESSAVG
ENERGY: 0 3.9128 3.7129 1.8557 0.0000 -10536.3881 1348.1675 0.0000 0.0000 1736.8883 -7441.8508 297.2932 -9178.7392 -7441.8508 297.2932 -504.2532 -419.0374 30034.4096 -504.2532 -419.0374
ENERGY: 300000 2.1415 1.9642 1.7133 0.0000 -10639.0173 1438.0545 0.0000 0.0000 1804.3778 -7390.7660 308.8450 -9195.1437 -7426.9087 303.7702 -82.0912 -58.9027 30510.4900 -352.1630 -305.3031
ENERGY: 600000 1.1927 8.6748 2.0213 0.0000 -10524.2943 1358.0593 0.0000 0.0000 1766.8450 -7387.5012 302.4207 -9154.3462 -7419.4127 302.9033 -389.6793 -367.2568 30293.3228 -368.9966 -318.5066
ENERGY: 900000 0.8671 4.1463 1.1073 0.0000 -10677.3666 1383.0879 0.0000 0.0000 1693.6190 -7594.5390 289.8870 -9288.1580 -7454.1554 300.4931 -639.2152 -560.5723 30087.9575 -302.0390 -244.6562
ENERGY: 1200000 1.1324 2.7835 3.2144 0.0000 -10713.5071 1401.7387 0.0000 0.0000 1780.6026 -7524.0354 304.7755 -9304.6380 -7462.8768 299.8892 -625.4117 -571.9535 30075.0924 -218.1142 -160.2663
ENERGY: 1500000 1.5951 4.2029 1.1679 0.0000 -10704.0754 1439.5639 0.0000 0.0000 1740.1540 -7517.3916 297.8521 -9257.5456 -7467.4301 299.5448 -86.0183 -33.4435 30171.4923 -196.7110 -138.6194
TCL: Running FEP window   5: Lambda1 0.2    Lambda2 0.25   [dLambda 0.04999999999999999]
TCL: Setting parameter firsttimestep to 0
TCL: Setting parameter alchLambda to 0.2
Info: NONBONDED TABLE R-SQUARED SPACING: 0.0625
Info: NONBONDED TABLE SIZE: 705 POINTS
TCL: Setting parameter alchLambda2 to 0.25
Info: NONBONDED TABLE R-SQUARED SPACING: 0.0625
Info: NONBONDED TABLE SIZE: 705 POINTS
TCL: Running for 1500000 steps
ETITLE: TS BOND ANGLE DIHED IMPRP ELECT VDW BOUNDARY MISC KINETIC TOTAL TEMP POTENTIAL TOTALAVG TEMPAVG PRESSURE GPRESSURE VOLUME PRESSAVG GPRESSAVG
ENERGY: 0 1.5951 4.2029 1.1679 0.0000 -10704.0759 1439.0488 0.0000 0.0000 1739.2832 -7518.7781 297.7031 -9258.0613 -7518.7781 297.7031 -99.7632 -34.2334 30171.4923 -99.7632 -34.2334
ENERGY: 300000 1.6146 2.4077 2.7914 0.0000 -10649.8630 1481.4687 0.0000 0.0000 1744.1925 -7417.3881 298.5434 -9161.5806 -7476.2347 301.9724 695.6395 762.2306 30040.8901 -213.7565 -174.9589
ENERGY: 600000 0.9311 8.0085 2.0959 0.0000 -10665.2760 1484.7301 0.0000 0.0000 1808.5822 -7360.9281 309.5646 -9169.5103 -7438.7209 303.1192 386.0232 501.1604 30377.1173 -112.4991 -53.4554
ENERGY: 900000 1.6669 2.9538 0.2370 0.0000 -10697.5981 1463.2994 0.0000 0.0000 1714.0738 -7515.3673 293.3881 -9229.4411 -7455.6058 300.5257 130.6413 200.2379 30014.8942 -22.4011 39.9211
ENERGY: 1200000 0.9477 6.1455 0.7528 0.0000 -10696.0818 1440.7299 0.0000 0.0000 1728.1573 -7519.3485 295.7988 -9247.5058 -7462.6119 301.2409 -65.0541 -12.1119 29941.0700 30.1690 92.8371
ENERGY: 1500000 2.2893 6.3058 2.0187 0.0000 -10526.0777 1354.1903 0.0000 0.0000 1740.3487 -7420.9249 297.8855 -9161.2736 -7457.5897 301.6366 -706.6109 -654.4029 30758.0159 -107.4963 -47.2391
TCL: Running FEP window   6: Lambda1 0.25   Lambda2 0.3    [dLambda 0.04999999999999999]
TCL: Setting parameter firsttimestep to 0
TCL: Setting parameter alchLambda to 0.25
Info: NONBONDED TABLE R-SQUARED SPACING: 0.0625
Info: NONBONDED TABLE SIZE: 705 POINTS
TCL: Setting parameter alchLambda2 to 0.3
Info: NONBONDED TABLE R-SQUARED SPACING: 0.0625
Info: NONBONDED TABLE SIZE: 705 POINTS
TCL: Running for 1500000 steps
ETITLE: TS BOND ANGLE DIHED IMPRP ELECT VDW BOUNDARY MISC KINETIC TOTAL TEMP POTENTIAL TOTALAVG TEMPAVG PRESSURE GPRESSURE VOLUME PRESSAVG GPRESSAVG
ENERGY: 0 2.2893 6.3058 2.0187 0.0000 -10526.0774 1354.4023 0.0000 0.0000 1739.4563 -7421.6050 297.7327 -9161.0614 -7421.6050 297.7327 -726.8941 -649.7708 30758.0159 -726.8941 -649.7708
ENERGY: 300000 0.8937 3.7531 1.7217 0.0000 -10465.8668 1290.0205 0.0000 0.0000 1738.3409 -7431.1367 297.5418 -9169.4777 -7449.9075 302.9714 -774.4090 -727.8493 29737.4478 -507.8355 -451.8970
ENERGY: 600000 4.0176 3.2468 1.0972 0.0000 -10574.4682 1439.6019 0.0000 0.0000 1772.7982 -7353.7066 303.4397 -9126.5048 -7425.6833 301.1761 175.7865 243.9512 30464.3885 -465.3226 -405.1557
ENERGY: 900000 3.1648 4.4130 7.3520 0.0000 -10614.1772 1406.1603 0.0000 0.0000 1766.9460 -7426.1410 302.4380 -9193.0870 -7438.5943 301.0402 -427.6564 -367.8332 30360.4166 -377.5280 -321.6953
ENERGY: 1200000 4.6699 4.7970 0.4054 0.0000 -10572.4434 1458.2926 0.0000 0.0000 1738.7496 -7365.5290 297.6118 -9104.2786 -7440.9379 301.0639 611.1881 640.0037 30284.9949 -235.5529 -182.4381
ENERGY: 1500000 1.7976 6.0002 1.6145 0.0000 -10590.1077 1419.2197 0.0000 0.0000 1778.4217 -7383.0539 304.4022 -9161.4756 -7432.0652 301.4432 155.3835 115.4054 30221.6957 -186.7366 -142.0671
TCL: Running FEP window   7: Lambda1 0.3    Lambda2 0.35   [dLambda 0.04999999999999999]
TCL: Setting parameter firsttimestep to 0
TCL: Setting parameter alchLambda to 0.3
Info: NONBONDED TABLE R-SQUARED SPACING: 0.0625
Info: NONBONDED TABLE SIZE: 705 POINTS
TCL: Setting parameter alchLambda2 to 0.35
Info: NONBONDED TABLE R-SQUARED SPACING: 0.0625
Info: NONBONDED TABLE SIZE: 705 POINTS
TCL: Running for 1500000 steps
ETITLE: TS BOND ANGLE DIHED IMPRP ELECT VDW BOUNDARY MISC KINETIC TOTAL TEMP POTENTIAL TOTALAVG TEMPAVG PRESSURE GPRESSURE VOLUME PRESSAVG GPRESSAVG
ENERGY: 0 1.7976 6.0002 1.6145 0.0000 -10590.1084 1419.1133 0.0000 0.0000 1777.5805 -7384.0023 304.2582 -9161.5828 -7384.0023 304.2582 50.5856 118.9383 30221.6957 50.5856 118.9383
ENERGY: 300000 0.9215 5.1245 2.7449 0.0000 -10621.0476 1427.3130 0.0000 0.0000 1699.4104 -7485.5334 290.8783 -9184.9438 -7439.4521 303.0162 60.8884 127.9435 29753.6284 21.4603 78.6257
ENERGY: 600000 2.0579 5.5851 1.5576 0.0000 -10545.6783 1436.5761 0.0000 0.0000 1757.6802 -7342.2214 300.8520 -9099.9017 -7439.7016 302.0069 281.5254 335.2919 30134.4507 52.3378 123.0573
ENERGY: 900000 2.7396 3.3783 1.6182 0.0000 -10650.5264 1413.7313 0.0000 0.0000 1729.7418 -7499.3171 296.0700 -9229.0590 -7450.7991 301.1817 109.4113 169.0810 29797.9495 23.5118 84.4183
ENERGY: 1200000 0.9869 4.8827 2.3791 0.0000 -10730.6278 1434.5403 0.0000 0.0000 1768.4346 -7519.4042 302.6928 -9287.8388 -7461.2926 301.2691 201.7931 285.2838 29544.7197 41.0861 100.6979
ENERGY: 1500000 0.4964 6.8985 1.2739 0.0000 -10534.4370 1386.3030 0.0000 0.0000 1738.5481 -7400.9170 297.5773 -9139.4652 -7451.0973 301.0457 -405.2853 -399.9663 30564.1603 -55.4500 -0.0972
TCL: Running FEP window   8: Lambda1 0.35   Lambda2 0.39999999999999997 [dLambda 0.04999999999999999]
TCL: Setting parameter firsttimestep to 0
TCL: Setting parameter alchLambda to 0.35
Info: NONBONDED TABLE R-SQUARED SPACING: 0.0625
Info: NONBONDED TABLE SIZE: 705 POINTS
TCL: Setting parameter alchLambda2 to 0.39999999999999997
Info: NONBONDED TABLE R-SQUARED SPACING: 0.0625
Info: NONBONDED TABLE SIZE: 705 POINTS
TCL: Running for 1500000 steps
ETITLE: TS BOND ANGLE DIHED IMPRP ELECT VDW BOUNDARY MISC KINETIC TOTAL TEMP POTENTIAL TOTALAVG TEMPAVG PRESSURE GPRESSURE VOLUME PRESSAVG GPRESSAVG
ENERGY: 0 0.4964 6.8985 1.2739 0.0000 -10534.4361 1387.0520 0.0000 0.0000 1737.6299 -7401.0854 297.4201 -9138.7153 -7401.0854 297.4201 -458.7029 -389.1351 30564.1603 -458.7029 -389.1351
ENERGY: 300000 1.2743 2.5062 0.8241 0.0000 -10675.9922 1452.6299 0.0000 0.0000 1730.9150 -7487.8427 296.2708 -9218.7577 -7433.2264 299.9908 -65.3883 37.5322 30454.3313 -55.9357 26.7504
ENERGY: 600000 8.7022 4.4962 2.5658 0.0000 -10605.9907 1444.4370 0.0000 0.0000 1756.5757 -7389.2139 300.6630 -9145.7896 -7440.3255 300.9702 117.7555 225.9631 30200.6114 100.3994 170.4559
ENERGY: 900000 0.9349 4.0261 1.0826 0.0000 -10777.7714 1459.8390 0.0000 0.0000 1747.0031 -7564.8858 299.0245 -9311.8889 -7445.7493 301.2921 -21.8508 10.6713 30059.4261 101.8766 161.9215
ENERGY: 1200000 0.5741 2.6276 1.7282 0.0000 -10573.9732 1388.7780 0.0000 0.0000 1765.8623 -7414.4029 302.2525 -9180.2652 -7446.8446 301.2139 -227.6399 -217.1507 30172.4933 54.3776 109.6050
ENERGY: 1500000 0.8361 3.6048 0.7839 0.0000 -10517.2299 1421.9201 0.0000 0.0000 1772.0916 -7317.9934 303.3187 -9090.0850 -7442.8713 301.0523 300.0402 314.2823 30167.3584 68.3184 119.9690
TCL: Running FEP window   9: Lambda1 0.39999999999999997 Lambda2 0.44999999999999996 [dLambda 0.04999999999999999]
TCL: Setting parameter firsttimestep to 0
TCL: Setting parameter alchLambda to 0.39999999999999997
Info: NONBONDED TABLE R-SQUARED SPACING: 0.0625
Info: NONBONDED TABLE SIZE: 705 POINTS
TCL: Setting parameter alchLambda2 to 0.44999999999999996
Info: NONBONDED TABLE R-SQUARED SPACING: 0.0625
Info: NONBONDED TABLE SIZE: 705 POINTS
TCL: Running for 1500000 steps
ETITLE: TS BOND ANGLE DIHED IMPRP ELECT VDW BOUNDARY MISC KINETIC TOTAL TEMP POTENTIAL TOTALAVG TEMPAVG PRESSURE GPRESSURE VOLUME PRESSAVG GPRESSAVG
ENERGY: 0 0.8361 3.6048 0.7839 0.0000 -10517.2293 1421.7501 0.0000 0.0000 1771.2329 -7319.0215 303.1717 -9090.2544 -7319.0215 303.1717 253.6986 318.8043 30167.3584 253.6986 318.8043
ENERGY: 300000 3.6715 5.8298 1.2976 0.0000 -10765.4692 1464.7234 0.0000 0.0000 1755.8657 -7534.0813 300.5414 -9289.9470 -7440.3771 302.1266 156.9313 184.3794 29777.3989 287.1791 327.5315
ENERGY: 600000 3.6244 5.4669 3.9224 0.0000 -10756.7311 1484.9152 0.0000 0.0000 1708.1530 -7550.6492 292.3747 -9258.8022 -7459.1290 300.1252 122.6146 90.4460 30601.5059 101.7945 149.9523
ENERGY: 900000 1.3809 4.7282 1.5275 0.0000 -10465.2410 1310.6325 0.0000 0.0000 1755.8324 -7391.1395 300.5357 -9146.9718 -7436.8306 300.4175 -829.4509 -761.1708 30592.9494 -15.3117 36.3989
ENERGY: 1200000 2.0011 4.0756 1.8042 0.0000 -10674.7918 1480.6345 0.0000 0.0000 1752.5957 -7433.6808 299.9817 -9186.2765 -7431.8707 301.1506 691.8993 756.3268 29909.4122 74.8716 129.7680
ENERGY: 1500000 1.4654 3.8613 1.3491 0.0000 -10776.8040 1507.9815 0.0000 0.0000 1779.1313 -7483.0154 304.5237 -9262.1467 -7441.9027 301.0914 460.5329 546.3556 30133.6219 32.2320 90.2138
TCL: Running FEP window  10: Lambda1 0.44999999999999996 Lambda2 0.49999999999999994 [dLambda 0.04999999999999999]
TCL: Setting parameter firsttimestep to 0
TCL: Setting parameter alchLambda to 0.44999999999999996
Info: NONBONDED TABLE R-SQUARED SPACING: 0.0625
Info: NONBONDED TABLE SIZE: 705 POINTS
TCL: Setting parameter alchLambda2 to 0.49999999999999994
Info: NONBONDED TABLE R-SQUARED SPACING: 0.0625
Info: NONBONDED TABLE SIZE: 705 POINTS
TCL: Running for 1500000 steps
ETITLE: TS BOND ANGLE DIHED IMPRP ELECT VDW BOUNDARY MISC KINETIC TOTAL TEMP POTENTIAL TOTALAVG TEMPAVG PRESSURE GPRESSURE VOLUME PRESSAVG GPRESSAVG
ENERGY: 0 1.4653 3.8613 1.3491 0.0000 -10776.8037 1508.1001 0.0000 0.0000 1778.2641 -7483.7638 304.3752 -9262.0279 -7483.7638 304.3752 472.6916 555.4515 30133.6219 472.6916 555.4515
ENERGY: 300000 1.2151 2.6274 0.8319 0.0000 -10570.5805 1372.6216 0.0000 0.0000 1811.1746 -7382.1099 310.0083 -9193.2845 -7454.1236 303.3474 -296.6277 -268.6726 30285.3952 8.8179 69.3627
ENERGY: 600000 2.1755 2.4574 2.0995 0.0000 -10609.2020 1396.5027 0.0000 0.0000 1758.4725 -7447.4944 300.9876 -9205.9669 -7444.5709 303.1484 -307.2253 -235.7958 30318.8077 -185.0584 -117.9649
ENERGY: 900000 3.9885 3.8888 3.1282 0.0000 -10787.2326 1492.5275 0.0000 0.0000 1700.8438 -7582.8557 291.1237 -9283.6995 -7458.2160 302.8246 212.8029 326.6668 29696.6194 -168.8837 -98.3217
ENERGY: 1200000 3.3613 3.0062 2.4560 0.0000 -10582.1785 1365.2441 0.0000 0.0000 1741.4527 -7466.6582 298.0744 -9208.1109 -7461.6093 301.2769 -737.1770 -720.7532 30884.6870 -261.3848 -200.5349
ENERGY: 1500000 2.7912 3.9301 2.6621 0.0000 -10813.5148 1492.0760 0.0000 0.0000 1740.4860 -7571.5694 297.9090 -9312.0554 -7464.2690 300.9827 319.7133 366.3164 29775.4015 -246.7365 -184.0676
TCL: Running FEP window  11: Lambda1 0.49999999999999994 Lambda2 0.5499999999999999 [dLambda 0.04999999999999999]
TCL: Setting parameter firsttimestep to 0
TCL: Setting parameter alchLambda to 0.49999999999999994
Info: NONBONDED TABLE R-SQUARED SPACING: 0.0625
Info: NONBONDED TABLE SIZE: 705 POINTS
TCL: Setting parameter alchLambda2 to 0.5499999999999999
Info: NONBONDED TABLE R-SQUARED SPACING: 0.0625
Info: NONBONDED TABLE SIZE: 705 POINTS
TCL: Running for 1500000 steps
ETITLE: TS BOND ANGLE DIHED IMPRP ELECT VDW BOUNDARY MISC KINETIC TOTAL TEMP POTENTIAL TOTALAVG TEMPAVG PRESSURE GPRESSURE VOLUME PRESSAVG GPRESSAVG
ENERGY: 0 2.7912 3.9301 2.6621 0.0000 -10813.5156 1493.1614 0.0000 0.0000 1739.6203 -7571.3505 297.7608 -9310.9708 -7571.3505 297.7608 282.0780 384.4868 29775.4015 282.0780 384.4868
ENERGY: 300000 1.5811 4.8827 1.4399 0.0000 -10602.3312 1390.4445 0.0000 0.0000 1759.7846 -7444.1984 301.2122 -9203.9830 -7475.2360 298.4727 -324.7461 -240.9360 29984.9475 -330.2928 -269.2675
ENERGY: 600000 0.2780 5.0991 0.7168 0.0000 -10694.4479 1465.4586 0.0000 0.0000 1768.5725 -7454.3229 302.7164 -9222.8954 -7465.8097 299.4260 233.4977 310.2695 30274.6986 -253.2022 -186.4994
ENERGY: 900000 3.1697 6.8840 0.9976 0.0000 -10686.3528 1459.2975 0.0000 0.0000 1734.6315 -7481.3725 296.9069 -9216.0040 -7468.8343 298.7679 237.1887 269.3971 30147.4497 -154.9869 -93.2928
ENERGY: 1200000 0.9498 4.3137 1.4197 0.0000 -10685.9361 1455.4218 0.0000 0.0000 1737.5458 -7486.2852 297.4057 -9223.8310 -7469.3641 298.6420 -25.1736 34.3259 30330.0114 -128.9277 -70.9217
ENERGY: 1500000 2.0364 3.1482 3.0689 0.0000 -10834.7321 1549.6318 0.0000 0.0000 1759.5634 -7517.2835 301.1744 -9276.8469 -7468.0760 299.2718 956.2065 987.4575 30025.4354 -1.4480 49.9655
TCL: Running FEP window  12: Lambda1 0.5499999999999999 Lambda2 0.6    [dLambda 0.050000000000000044]
TCL: Setting parameter firsttimestep to 0
TCL: Setting parameter alchLambda to 0.5499999999999999
Info: NONBONDED TABLE R-SQUARED SPACING: 0.0625
Info: NONBONDED TABLE SIZE: 705 POINTS
TCL: Setting parameter alchLambda2 to 0.6
Info: NONBONDED TABLE R-SQUARED SPACING: 0.0625
Info: NONBONDED TABLE SIZE: 705 POINTS
TCL: Running for 1500000 steps
ETITLE: TS BOND ANGLE DIHED IMPRP ELECT VDW BOUNDARY MISC KINETIC TOTAL TEMP POTENTIAL TOTALAVG TEMPAVG PRESSURE GPRESSURE VOLUME PRESSAVG GPRESSAVG
ENERGY: 0 2.0364 3.1482 3.0689 0.0000 -10834.8479 1549.6363 0.0000 0.0000 1758.6719 -7518.2863 301.0217 -9276.9582 -7518.2863 301.0217 910.1743 994.9179 30025.4354 910.1743 994.9179
ENERGY: 300000 4.0611 5.1508 1.0342 0.0000 -10685.4627 1490.5437 0.0000 0.0000 1730.7966 -7453.8764 296.2505 -9184.6730 -7496.8590 297.3191 546.5511 652.2211 30152.7249 238.9599 314.4820
ENERGY: 600000 0.6034 4.8258 1.1742 0.0000 -10660.8545 1452.3271 0.0000 0.0000 1729.6585 -7472.2654 296.0557 -9201.9239 -7477.7149 298.1633 24.9136 69.6155 30470.6434 240.2500 301.4775
ENERGY: 900000 0.3107 4.2780 0.9596 0.0000 -10574.0517 1395.7447 0.0000 0.0000 1785.0322 -7387.7266 305.5337 -9172.7588 -7471.5017 298.0925 -65.5959 36.3798 30009.2084 79.3114 145.0456
ENERGY: 1200000 1.3369 3.7644 0.6332 0.0000 -10713.5802 1456.7034 0.0000 0.0000 1733.1387 -7518.0037 296.6514 -9251.1424 -7479.9407 298.1881 114.0064 151.5998 30120.8842 93.6650 153.0487
ENERGY: 1500000 3.9525 4.3185 2.0381 0.0000 -10615.4593 1408.3002 0.0000 0.0000 1795.7947 -7401.0553 307.3758 -9196.8500 -7470.8727 299.6183 -255.1176 -206.2767 30175.8932 20.1323 80.1979
TCL: Running FEP window  13: Lambda1 0.6    Lambda2 0.65   [dLambda 0.050000000000000044]
TCL: Setting parameter firsttimestep to 0
TCL: Setting parameter alchLambda to 0.6
Info: NONBONDED TABLE R-SQUARED SPACING: 0.0625
Info: NONBONDED TABLE SIZE: 705 POINTS
TCL: Setting parameter alchLambda2 to 0.65
Info: NONBONDED TABLE R-SQUARED SPACING: 0.0625
Info: NONBONDED TABLE SIZE: 705 POINTS
TCL: Running for 1500000 steps
ETITLE: TS BOND ANGLE DIHED IMPRP ELECT VDW BOUNDARY MISC KINETIC TOTAL TEMP POTENTIAL TOTALAVG TEMPAVG PRESSURE GPRESSURE VOLUME PRESSAVG GPRESSAVG
ENERGY: 0 3.9525 4.3185 2.0381 0.0000 -10615.2607 1408.5916 0.0000 0.0000 1794.9299 -7401.4301 307.2278 -9196.3600 -7401.4301 307.2278 -284.3558 -196.6107 30175.8932 -284.3558 -196.6107
ENERGY: 300000 1.3759 6.1768 2.3636 0.0000 -10590.9993 1341.3695 0.0000 0.0000 1734.1941 -7505.5193 296.8320 -9239.7134 -7480.0348 298.2528 -923.6243 -876.2192 30290.1493 -306.4340 -251.0733
ENERGY: 600000 1.7999 5.4008 1.2446 0.0000 -10694.2191 1444.9523 0.0000 0.0000 1776.2188 -7464.6027 304.0252 -9240.8215 -7477.9470 298.2011 -56.1814 46.1902 30232.0771 -270.9416 -201.1390
ENERGY: 900000 2.4064 4.5540 2.6082 0.0000 -10712.0434 1430.1410 0.0000 0.0000 1765.5975 -7506.7363 302.2072 -9272.3337 -7476.8770 301.3439 -310.5538 -154.6552 30033.7946 -189.2235 -116.3586
ENERGY: 1200000 2.1811 1.9557 1.2351 0.0000 -10449.6115 1277.1740 0.0000 0.0000 1784.4948 -7382.5708 305.4417 -9167.0656 -7468.4790 301.1885 -1040.9196 -986.2006 30377.9405 -180.3122 -102.4325
ENERGY: 1500000 1.1165 3.9023 4.9952 0.0000 -10599.8688 1387.7655 0.0000 0.0000 1726.6125 -7475.4769 295.5343 -9202.0894 -7464.4741 301.4539 -446.5077 -329.6809 30281.3139 -91.2330 -14.6087
TCL: Running FEP window  14: Lambda1 0.65   Lambda2 0.7000000000000001 [dLambda 0.050000000000000044]
TCL: Setting parameter firsttimestep to 0
TCL: Setting parameter alchLambda to 0.65
Info: NONBONDED TABLE R-SQUARED SPACING: 0.0625
Info: NONBONDED TABLE SIZE: 705 POINTS
TCL: Setting parameter alchLambda2 to 0.7000000000000001
Info: NONBONDED TABLE R-SQUARED SPACING: 0.0625
Info: NONBONDED TABLE SIZE: 705 POINTS
TCL: Running for 1500000 steps
ETITLE: TS BOND ANGLE DIHED IMPRP ELECT VDW BOUNDARY MISC KINETIC TOTAL TEMP POTENTIAL TOTALAVG TEMPAVG PRESSURE GPRESSURE VOLUME PRESSAVG GPRESSAVG
ENERGY: 0 1.1165 3.9023 4.9952 0.0000 -10599.8584 1387.6487 0.0000 0.0000 1725.7171 -7476.4787 295.3811 -9202.1957 -7476.4787 295.3811 -413.7162 -321.7241 30281.3139 -413.7162 -321.7241
ENERGY: 300000 2.6442 4.7397 0.5553 0.0000 -10736.7734 1540.9768 0.0000 0.0000 1793.6033 -7394.2542 307.0008 -9187.8575 -7432.4252 301.4553 1211.6246 1218.3799 29693.0913 149.7530 195.3852
ENERGY: 600000 0.9753 4.3052 1.3554 0.0000 -10650.7924 1429.3145 0.0000 0.0000 1720.5157 -7494.3264 294.4908 -9214.8421 -7458.3198 298.9461 -55.9181 25.4570 30196.3588 59.0184 110.6054
ENERGY: 900000 1.4018 4.6823 0.5677 0.0000 -10647.6462 1457.6401 0.0000 0.0000 1779.5770 -7403.7774 304.6000 -9183.3543 -7460.7251 300.6764 434.1832 471.6017 30079.8339 75.6628 128.6008
ENERGY: 1200000 1.3044 3.8667 0.9953 0.0000 -10684.5956 1461.5521 0.0000 0.0000 1778.2772 -7438.5998 304.3775 -9216.8770 -7445.5192 301.9057 512.5742 616.0845 29816.3922 136.8181 189.3280
ENERGY: 1500000 1.1598 4.1908 1.0448 0.0000 -10804.1038 1535.4539 0.0000 0.0000 1749.3439 -7512.9106 299.4251 -9262.2544 -7448.3091 300.8279 700.1748 709.2932 29982.3125 173.1749 224.7358
TCL: Running FEP window  15: Lambda1 0.7000000000000001 Lambda2 0.7500000000000001 [dLambda 0.050000000000000044]
TCL: Setting parameter firsttimestep to 0
TCL: Setting parameter alchLambda to 0.7000000000000001
Info: NONBONDED TABLE R-SQUARED SPACING: 0.0625
Info: NONBONDED TABLE SIZE: 705 POINTS
TCL: Setting parameter alchLambda2 to 0.7500000000000001
Info: NONBONDED TABLE R-SQUARED SPACING: 0.0625
Info: NONBONDED TABLE SIZE: 705 POINTS
TCL: Running for 1500000 steps
ETITLE: TS BOND ANGLE DIHED IMPRP ELECT VDW BOUNDARY MISC KINETIC TOTAL TEMP POTENTIAL TOTALAVG TEMPAVG PRESSURE GPRESSURE VOLUME PRESSAVG GPRESSAVG
ENERGY: 0 1.1598 4.1908 1.0448 0.0000 -10804.3129 1535.1151 0.0000 0.0000 1748.4259 -7514.3765 299.2680 -9262.8024 -7514.3765 299.2680 636.5039 711.2144 29982.3125 636.5039 711.2144
ENERGY: 300000 3.0364 3.4433 1.4478 0.0000 -10711.2036 1452.4143 0.0000 0.0000 1712.9703 -7537.8915 293.1993 -9250.8618 -7461.3100 301.5270 54.4503 125.1779 29838.7622 -89.3782 6.6484
ENERGY: 600000 1.4986 5.1366 2.5378 0.0000 -10628.0177 1407.3700 0.0000 0.0000 1736.4918 -7474.9830 297.2253 -9211.4748 -7471.0209 299.0364 114.6108 105.9459 29849.3463 -197.8686 -117.7211
ENERGY: 900000 1.4546 3.9041 0.7280 0.0000 -10814.4370 1558.5941 0.0000 0.0000 1748.7939 -7500.9622 299.3310 -9249.7561 -7464.5236 298.9963 824.4505 844.8803 30589.1675 -227.3137 -146.0836
ENERGY: 1200000 2.5971 5.0694 5.2643 0.0000 -10629.9272 1402.8573 0.0000 0.0000 1738.2925 -7475.8467 297.5335 -9214.1392 -7454.4036 299.4141 -118.5517 -107.5306 30026.9727 -201.3939 -126.0106
ENERGY: 1500000 1.1712 2.2549 0.9883 0.0000 -10668.7070 1433.1938 0.0000 0.0000 1716.7618 -7514.3371 293.8482 -9231.0988 -7460.1733 299.5203 13.0886 37.7342 30369.0907 -101.2858 -34.6319
TCL: Running FEP window  16: Lambda1 0.7500000000000001 Lambda2 0.8000000000000002 [dLambda 0.050000000000000044]
TCL: Setting parameter firsttimestep to 0
TCL: Setting parameter alchLambda to 0.7500000000000001
Info: NONBONDED TABLE R-SQUARED SPACING: 0.0625
Info: NONBONDED TABLE SIZE: 705 POINTS
TCL: Setting parameter alchLambda2 to 0.8000000000000002
Info: NONBONDED TABLE R-SQUARED SPACING: 0.0625
Info: NONBONDED TABLE SIZE: 705 POINTS
TCL: Running for 1500000 steps
ETITLE: TS BOND ANGLE DIHED IMPRP ELECT VDW BOUNDARY MISC KINETIC TOTAL TEMP POTENTIAL TOTALAVG TEMPAVG PRESSURE GPRESSURE VOLUME PRESSAVG GPRESSAVG
ENERGY: 0 1.1712 2.2549 0.9883 0.0000 -10668.9401 1433.9708 0.0000 0.0000 1715.9016 -7514.6533 293.7010 -9230.5549 -7514.6533 293.7010 -23.2325 54.5875 30369.0907 -23.2325 54.5875
ENERGY: 300000 2.4881 2.9971 2.4992 0.0000 -10767.3605 1463.3127 0.0000 0.0000 1708.5926 -7587.4708 292.4500 -9296.0634 -7537.5194 295.1561 117.8441 265.1096 29758.0805 -251.4962 -139.3022
ENERGY: 600000 1.3831 2.8851 0.8603 0.0000 -10643.0209 1361.9437 0.0000 0.0000 1763.5546 -7512.3941 301.8575 -9275.9487 -7506.7671 298.8425 -774.7587 -764.8074 30505.1933 -218.9971 -155.9731
ENERGY: 900000 2.2164 4.0349 2.7591 0.0000 -10556.7406 1400.7646 0.0000 0.0000 1793.4456 -7353.5200 306.9738 -9146.9656 -7494.1118 299.9102 -206.0519 -125.1500 30549.7585 -250.5830 -183.7860
ENERGY: 1200000 0.5626 3.5605 2.3969 0.0000 -10713.1201 1499.1622 0.0000 0.0000 1730.9868 -7476.4512 296.2831 -9207.4380 -7487.3911 299.7513 503.3721 574.9448 30267.8270 -265.0426 -201.5903
ENERGY: 1500000 1.0578 4.3711 1.2226 0.0000 -10718.9241 1450.5020 0.0000 0.0000 1706.8241 -7554.9466 292.1473 -9261.7706 -7479.9695 299.2137 161.0363 304.3806 29845.9363 -180.9784 -109.6663
TCL: Running FEP window  17: Lambda1 0.8000000000000002 Lambda2 0.8500000000000002 [dLambda 0.050000000000000044]
TCL: Setting parameter firsttimestep to 0
TCL: Setting parameter alchLambda to 0.8000000000000002
Info: NONBONDED TABLE R-SQUARED SPACING: 0.0625
Info: NONBONDED TABLE SIZE: 705 POINTS
TCL: Setting parameter alchLambda2 to 0.8500000000000002
Info: NONBONDED TABLE R-SQUARED SPACING: 0.0625
Info: NONBONDED TABLE SIZE: 705 POINTS
TCL: Running for 1500000 steps
ETITLE: TS BOND ANGLE DIHED IMPRP ELECT VDW BOUNDARY MISC KINETIC TOTAL TEMP POTENTIAL TOTALAVG TEMPAVG PRESSURE GPRESSURE VOLUME PRESSAVG GPRESSAVG
ENERGY: 0 1.0578 4.3711 1.2226 0.0000 -10719.4841 1450.6275 0.0000 0.0000 1705.9887 -7556.2163 292.0043 -9262.2050 -7556.2163 292.0043 227.0007 311.5202 29845.9363 227.0007 311.5202
ENERGY: 300000 0.7150 3.9082 2.7250 0.0000 -10635.9714 1369.2789 0.0000 0.0000 1745.9101 -7513.4342 298.8374 -9259.3443 -7484.2992 298.2939 -776.7646 -714.8365 30499.5228 -110.9217 -25.7944
ENERGY: 600000 1.2289 4.1063 1.3272 0.0000 -10591.0198 1388.3797 0.0000 0.0000 1765.2189 -7430.7588 302.1424 -9195.9776 -7485.8706 297.6695 -456.4194 -422.2843 30471.3010 -187.7439 -127.2166
ENERGY: 900000 1.3098 3.7053 0.8449 0.0000 -10638.1296 1449.1795 0.0000 0.0000 1799.4435 -7383.6464 308.0004 -9183.0899 -7476.6848 299.3036 543.0103 584.4224 29801.1628 -84.0746 -24.8366
ENERGY: 1200000 1.3460 3.1225 1.3537 0.0000 -10729.9189 1443.1085 0.0000 0.0000 1720.5876 -7560.4006 294.5031 -9280.9881 -7482.0176 299.0116 -277.4680 -240.8462 30465.1342 -90.4203 -33.2911
ENERGY: 1500000 3.4181 3.2749 2.5679 0.0000 -10578.5840 1394.0088 0.0000 0.0000 1778.4882 -7396.8260 304.4136 -9175.3142 -7474.0321 299.7149 -22.6005 51.6639 30173.5177 -48.2047 14.7646
TCL: Running FEP window  18: Lambda1 0.8500000000000002 Lambda2 0.9000000000000002 [dLambda 0.050000000000000044]
TCL: Setting parameter firsttimestep to 0
TCL: Setting parameter alchLambda to 0.8500000000000002
Info: NONBONDED TABLE R-SQUARED SPACING: 0.0625
Info: NONBONDED TABLE SIZE: 705 POINTS
TCL: Setting parameter alchLambda2 to 0.9000000000000002
Info: NONBONDED TABLE R-SQUARED SPACING: 0.0625
Info: NONBONDED TABLE SIZE: 705 POINTS
TCL: Running for 1500000 steps
ETITLE: TS BOND ANGLE DIHED IMPRP ELECT VDW BOUNDARY MISC KINETIC TOTAL TEMP POTENTIAL TOTALAVG TEMPAVG PRESSURE GPRESSURE VOLUME PRESSAVG GPRESSAVG
ENERGY: 0 3.4181 3.2749 2.5679 0.0000 -10579.1207 1393.7265 0.0000 0.0000 1777.6314 -7398.5018 304.2669 -9176.1332 -7398.5018 304.2669 -19.0896 57.3972 30173.5177 -19.0896 57.3972
ENERGY: 300000 1.8024 3.7673 0.8342 0.0000 -10594.0281 1372.0031 0.0000 0.0000 1800.4614 -7415.1597 308.1746 -9215.6211 -7455.0276 302.9931 -567.9952 -489.0335 30591.8503 -492.0698 -418.2128
ENERGY: 600000 2.1227 2.3933 2.3935 0.0000 -10635.3442 1395.0083 0.0000 0.0000 1763.3514 -7470.0750 301.8227 -9233.4264 -7449.9566 303.0407 -494.8442 -361.3919 30192.4466 -385.3267 -311.5380
ENERGY: 900000 5.0441 3.9781 1.1343 0.0000 -10817.1136 1507.8745 0.0000 0.0000 1720.2539 -7578.8287 294.4460 -9299.0826 -7460.9360 301.7916 614.4930 620.1508 29477.3076 -149.6913 -91.4289
ENERGY: 1200000 1.6240 5.0055 0.9417 0.0000 -10518.1086 1350.9265 0.0000 0.0000 1762.8631 -7396.7477 301.7391 -9159.6109 -7464.5891 300.8119 -409.2061 -351.8787 30298.8115 -218.7028 -158.7120
ENERGY: 1500000 2.6974 3.6234 0.5507 0.0000 -10667.2699 1427.2301 0.0000 0.0000 1728.5201 -7504.6483 295.8608 -9233.1683 -7468.4016 300.1701 -60.7731 63.4940 30103.2178 -183.5774 -115.4742
TCL: Running FEP window  19: Lambda1 0.9000000000000002 Lambda2 0.9500000000000003 [dLambda 0.050000000000000044]
TCL: Setting parameter firsttimestep to 0
TCL: Setting parameter alchLambda to 0.9000000000000002
Info: NONBONDED TABLE R-SQUARED SPACING: 0.0625
Info: NONBONDED TABLE SIZE: 705 POINTS
TCL: Setting parameter alchLambda2 to 0.9500000000000003
Info: NONBONDED TABLE R-SQUARED SPACING: 0.0625
Info: NONBONDED TABLE SIZE: 705 POINTS
TCL: Running for 1500000 steps
ETITLE: TS BOND ANGLE DIHED IMPRP ELECT VDW BOUNDARY MISC KINETIC TOTAL TEMP POTENTIAL TOTALAVG TEMPAVG PRESSURE GPRESSURE VOLUME PRESSAVG GPRESSAVG
ENERGY: 0 2.6974 3.6234 0.5507 0.0000 -10667.9625 1427.1933 0.0000 0.0000 1727.6807 -7506.2171 295.7172 -9233.8978 -7506.2171 295.7172 -8.9363 70.9332 30103.2178 -8.9363 70.9332
ENERGY: 300000 2.0069 5.3790 2.3265 0.0000 -10714.1742 1397.2786 0.0000 0.0000 1799.8133 -7507.3699 308.0637 -9307.1832 -7462.4350 302.7890 -466.6379 -437.6941 30290.8224 -109.4293 -58.2378
ENERGY: 600000 0.9031 3.7051 1.4966 0.0000 -10588.8818 1444.2415 0.0000 0.0000 1738.3369 -7400.1986 297.5411 -9138.5355 -7438.5393 300.6239 268.3391 271.6597 30513.0042 28.0959 80.5403
ENERGY: 900000 4.4338 3.0302 0.9876 0.0000 -10601.9440 1379.7292 0.0000 0.0000 1743.9048 -7469.8583 298.4942 -9213.7632 -7448.7911 301.3170 -312.9979 -293.4364 30392.6443 56.6093 104.1308
ENERGY: 1200000 2.0778 2.7553 3.1504 0.0000 -10576.4117 1294.2962 0.0000 0.0000 1755.5063 -7518.6256 300.4799 -9274.1319 -7454.0802 301.1673 -1360.8846 -1260.5129 30602.0856 -9.9790 48.8502
ENERGY: 1500000 1.9629 2.3745 4.8678 0.0000 -10662.8689 1449.8977 0.0000 0.0000 1761.9543 -7441.8117 301.5836 -9203.7660 -7453.4110 301.1322 73.9548 149.0952 30266.6016 30.1821 87.2798
TCL: Running FEP window  20: Lambda1 0.9500000000000003 Lambda2 1.0    [dLambda 0.04999999999999971]
TCL: Setting parameter firsttimestep to 0
TCL: Setting parameter alchLambda to 0.9500000000000003
Info: NONBONDED TABLE R-SQUARED SPACING: 0.0625
Info: NONBONDED TABLE SIZE: 705 POINTS
TCL: Setting parameter alchLambda2 to 1.0
Info: NONBONDED TABLE R-SQUARED SPACING: 0.0625
Info: NONBONDED TABLE SIZE: 705 POINTS
TCL: Running for 1500000 steps
ETITLE: TS BOND ANGLE DIHED IMPRP ELECT VDW BOUNDARY MISC KINETIC TOTAL TEMP POTENTIAL TOTALAVG TEMPAVG PRESSURE GPRESSURE VOLUME PRESSAVG GPRESSAVG
ENERGY: 0 1.9629 2.3745 4.8678 0.0000 -10663.0136 1450.0283 0.0000 0.0000 1761.0824 -7442.6978 301.4343 -9203.7802 -7442.6978 301.4343 81.8123 161.6933 30266.6016 81.8123 161.6933
ENERGY: 300000 2.3112 4.3228 2.7784 0.0000 -10610.2794 1393.9048 0.0000 0.0000 1729.7605 -7477.2017 296.0732 -9206.9622 -7459.9425 304.0033 -287.5151 -268.0018 30608.3755 -2.3577 58.2218
ENERGY: 600000 1.3197 5.4127 1.5314 0.0000 -10943.1134 1609.0416 0.0000 0.0000 1705.1144 -7620.6936 291.8546 -9325.8080 -7475.2508 301.5496 1102.8553 1147.9440 29841.6818 117.5265 172.3394
ENERGY: 900000 4.3588 2.4818 3.1118 0.0000 -10637.4549 1462.6179 0.0000 0.0000 1740.6967 -7424.1879 297.9450 -9164.8846 -7451.6665 302.3725 114.8169 189.1152 30564.4663 62.4538 117.1959
ENERGY: 1200000 0.8528 5.0314 1.2781 0.0000 -10615.8967 1406.5348 0.0000 0.0000 1756.5687 -7445.6310 300.6618 -9202.1997 -7445.1040 302.8457 -101.4090 -94.2663 30405.9655 70.2391 125.0330
ENERGY: 1500000 0.9148 5.0604 1.2135 0.0000 -10614.4061 1427.0511 0.0000 0.0000 1760.6465 -7419.5199 301.3597 -9180.1664 -7453.8898 302.0786 41.6253 40.1507 30448.1584 68.6460 119.6029
TCL: Exiting due to exit command.
