Info: SIMULATION PARAMETERS:
Info: TIMESTEP               2
Info: NUMBER OF STEPS        0
Info: STEPS PER CYCLE        10
Info: PERIODIC CELL BASIS 1  30.5113 0 0
Info: PERIODIC CELL BASIS 2  0 30.9475 0
Info: PERIODIC CELL BASIS 3  0 0 32.2881
Info: PERIODIC CELL CENTER   0 0 0
Info: WRAPPING WATERS AROUND PERIODIC BOUNDARIES ON OUTPUT.
Info: WRAPPING ALL CLUSTERS AROUND PERIODIC BOUNDARIES ON OUTPUT.
Info: FIRST LDB TIMESTEP     50
Info: LAST LDB TIMESTEP     -1
Info: HOM BACKGROUND SCALING 1
Info: PME BACKGROUND SCALING 1
Info: MIN ATOMS PER PATCH    40
Info: EMPTY PATCH LOAD       40 ATOMS
Info: VELOCITY FILE          mobley_6739648_equil.vel
Info: CENTER OF MASS MOVING INITIALLY? NO
Info: DIELECTRIC             1
Info: EXCLUDE                SCALED ONE-FOUR
Info: 1-4 ELECTROSTATICS SCALED BY 0.833333
Info: MODIFIED 1-4 VDW PARAMETERS WILL BE USED
Info: DCD FILENAME           mobley_6739648_prod.dcd
Info: DCD FREQUENCY          100000
Info: DCD FIRST STEP         100000
Info: DCD FILE WILL CONTAIN UNIT CELL DATA
Info: XST FILENAME           mobley_6739648_prod.xst
Info: XST FREQUENCY          100000
Info: NO VELOCITY DCD OUTPUT
Info: NO FORCE DCD OUTPUT
Info: OUTPUT FILENAME        mobley_6739648_prod
Info: BINARY OUTPUT FILES WILL BE USED
Info: RESTART FILENAME       mobley_6739648_prod.restart
Info: RESTART FREQUENCY      100000
Info: BINARY RESTART FILES WILL BE USED
Info: CUTOFF                 9
Info: PAIRLIST DISTANCE      11
Info: PAIRLIST SHRINK RATE   0.01
Info: PAIRLIST GROW RATE     0.01
Info: PAIRLIST TRIGGER       0.3
Info: PAIRLISTS PER CYCLE    2
Info: PAIRLISTS ENABLED
Info: MARGIN                 2
Info: HYDROGEN GROUP CUTOFF  2.5
Info: PATCH DIMENSION        15.5
Info: ENERGY OUTPUT STEPS    100000
Info: ENERGY EVALUATION STEPS    100000
Info: OUTPUT ENERGY PRECISION 4
Info: CROSSTERM ENERGY INCLUDED IN DIHEDRAL
Info: TIMING OUTPUT STEPS    1000000
Info: PRESSURE OUTPUT STEPS  100000
Info: ALCHEMICAL FEP ON
Info: FEP CURRENT LAMBDA VALUE     0
Info: FEP COMPARISON LAMBDA VALUE  0.05
Info: FEP INTRA-ALCHEMICAL NON-BONDED INTERACTIONS WILL BE RETAINED
Info: FEP INTRA-ALCHEMICAL BONDED INTERACTIONS WILL BE RETAINED
Info: FEP VDW SHIFTING COEFFICIENT 5
Info: FEP ELEC. ACTIVE FOR ANNIHILATED PARTICLES BETWEEN LAMBDA = 0 AND LAMBDA = 0.5
Info: FEP ELEC. ACTIVE FOR EXNIHILATED PARTICLES BETWEEN LAMBDA = 0.5 AND LAMBDA = 1
Info: FEP VDW ACTIVE FOR ANNIHILATED PARTICLES BETWEEN LAMBDA = 0 AND LAMBDA = 1
Info: FEP VDW ACTIVE FOR EXNIHILATED PARTICLES BETWEEN LAMBDA = 0 AND LAMBDA = 1
Info: FEP BOND ACTIVE FOR ANNIHILATED PARTICLES BETWEEN LAMBDA = 1 AND LAMBDA = 1
Info: FEP BOND ACTIVE FOR EXNIHILATED PARTICLES BETWEEN LAMBDA = 0 AND LAMBDA = 0
Info: LANGEVIN DYNAMICS ACTIVE
Info: LANGEVIN TEMPERATURE   300
Info: LANGEVIN USING BBK INTEGRATOR
Info: LANGEVIN DAMPING COEFFICIENT IS 1 INVERSE PS
Info: LANGEVIN DYNAMICS APPLIED TO HYDROGENS
Info: LANGEVIN PISTON PRESSURE CONTROL ACTIVE
Info:        TARGET PRESSURE IS 1.01325 BAR
Info:     OSCILLATION PERIOD IS 50 FS
Info:             DECAY TIME IS 25 FS
Info:     PISTON TEMPERATURE IS 300 K
Info:       PRESSURE CONTROL IS GROUP-BASED
Info:    INITIAL STRAIN RATE IS 4.58615e-06 4.58615e-06 4.58615e-06
Info:       CELL FLUCTUATION IS ISOTROPIC
Info: PARTICLE MESH EWALD (PME) ACTIVE
Info: PME TOLERANCE               1e-06
Info: PME EWALD COEFFICIENT       0.348832
Info: PME INTERPOLATION ORDER     4
Info: PME GRID DIMENSIONS         32 32 36
Info: PME MAXIMUM GRID SPACING    1
Info: PME CALCULATION WILL BE PERFORMED ON GPU
Info: FULL ELECTROSTATIC EVALUATION FREQUENCY      2
Info: USING VERLET I (r-RESPA) MTS SCHEME.
Info: C1 SPLITTING OF LONG RANGE ELECTROSTATICS
Info: PLACING ATOMS IN PATCHES BY HYDROGEN GROUPS
Info: RIGID BONDS TO HYDROGEN : ALL
Info:         ERROR TOLERANCE : 1e-08
Info:          MAX ITERATIONS : 100
Info: RIGID WATER USING SETTLE ALGORITHM
Info: RANDOM NUMBER SEED     1743566968
Info: USE HYDROGEN BONDS?    NO
Info: Using AMBER format force field!
Info: AMBER PARM FILE        mobley_6739648.prmtop
Info: COORDINATE PDB         mobley_6739648.pdb
Info: Exclusions will be read from PARM file!
Info: SCNB (VDW SCALING)     2
Info: USING ARITHMETIC MEAN TO COMBINE L-J SIGMA PARAMETERS
Info: BINARY COORDINATES     mobley_6739648_equil.coor
Info: SUMMARY OF PARAMETERS:
Info: 5 BONDS
Info: 5 ANGLES
Info:   5 HARMONIC
Info:   0 COSINE-BASED
Info: 8 DIHEDRAL
Info: 0 IMPROPER
Info: 0 CROSSTERM
Info: 0 VDW
Info: 15 VDW_PAIRS
Info: 0 NBTHOLE_PAIRS
Info: To read alchdata from file: mobley_6739648.pdb
Info: To read alchflag data from column: 5
Info: STRUCTURE SUMMARY:
Info: 2930 ATOMS
Info: 2930 BONDS
Info: 26 ANGLES
Info: 44 DIHEDRALS
Info: 0 IMPROPERS
Info: 0 CROSSTERMS
Info: 2983 EXCLUSIONS
Info: 2924 RIGID BONDS
Info: ALCH: 0 ATOMS TO DISAPPEAR IN FINAL STATE
Info: ALCH: 14 ATOMS TO APPEAR IN FINAL STATE
Info: 5866 DEGREES OF FREEDOM
Info: 978 HYDROGEN GROUPS
Info: 3 ATOMS IN LARGEST HYDROGEN GROUP
Info: 978 MIGRATION GROUPS
Info: 3 ATOMS IN LARGEST MIGRATION GROUP
Info: TOTAL MASS = 17599.7 amu
Info: TOTAL CHARGE = -0.000399977 e
Info: MASS DENSITY = 0.958595 g/cm^3
Info: ATOM DENSITY = 0.0961035 atoms/A^3
Info: ADDED 0 IMPLICIT EXCLUSIONS
Info: NONBONDED TABLE R-SQUARED SPACING: 0.0625
Info: NONBONDED TABLE SIZE: 705 POINTS
Info: REMOVING COM VELOCITY -0.065388 -0.0333553 0.0895247
Info: Use 3D box decompostion in PME FFT.
Info: Updated CUDA force table with 4096 elements.
Info: Updated CUDA LJ table with 5 x 5 elements.
Info: Found 15 unique exclusion lists needing 32 bytes
TCL: Running for 1500000 steps
ETITLE: TS BOND ANGLE DIHED IMPRP ELECT VDW BOUNDARY MISC KINETIC TOTAL TEMP POTENTIAL TOTALAVG TEMPAVG PRESSURE GPRESSURE VOLUME PRESSAVG GPRESSAVG
ENERGY: 0 2.5488 3.3738 4.2929 0.0000 -10589.4284 1438.9524 0.0000 0.0000 1729.8614 -7410.3992 296.7971 -9140.2606 -7410.3992 296.7971 -289.5779 -205.8793 30487.9636 -289.5779 -205.8793
ENERGY: 300000 2.6565 6.2901 4.9613 0.0000 -10657.9349 1432.2570 0.0000 0.0000 1735.1166 -7476.6535 297.6987 -9211.7701 -7423.1758 298.0142 -198.5310 -166.8298 29883.7587 -257.8475 -181.4032
ENERGY: 600000 1.4304 8.8845 3.9879 0.0000 -10612.1774 1410.1933 0.0000 0.0000 1809.9821 -7377.6992 310.5436 -9187.6812 -7402.5075 301.5153 79.5163 57.8968 29443.9266 -292.7942 -236.5565
ENERGY: 900000 2.0758 5.6492 4.6026 0.0000 -10652.6402 1475.6362 0.0000 0.0000 1750.1302 -7414.5462 300.2747 -9164.6764 -7394.1635 300.6346 89.9261 121.8921 30465.8627 -307.3746 -261.5672
ENERGY: 1200000 2.0419 5.8612 3.6825 0.0000 -10549.4106 1339.7334 0.0000 0.0000 1767.0069 -7431.0847 303.1702 -9198.0916 -7413.2504 300.7041 -659.1511 -631.6456 29817.2258 -274.0952 -225.9789
ENERGY: 1500000 0.9697 5.1247 3.7577 0.0000 -10521.6861 1370.1676 0.0000 0.0000 1730.5126 -7411.1539 296.9088 -9141.6665 -7412.7272 299.5099 -281.7436 -218.6965 29638.2018 -226.7538 -173.1221
TCL: Running FEP window   2: Lambda1 0.05   Lambda2 0.1    [dLambda 0.05  ]
TCL: Setting parameter firsttimestep to 0
TCL: Setting parameter alchLambda to 0.05
Info: NONBONDED TABLE R-SQUARED SPACING: 0.0625
Info: NONBONDED TABLE SIZE: 705 POINTS
TCL: Setting parameter alchLambda2 to 0.1
Info: NONBONDED TABLE R-SQUARED SPACING: 0.0625
Info: NONBONDED TABLE SIZE: 705 POINTS
TCL: Running for 1500000 steps
ETITLE: TS BOND ANGLE DIHED IMPRP ELECT VDW BOUNDARY MISC KINETIC TOTAL TEMP POTENTIAL TOTALAVG TEMPAVG PRESSURE GPRESSURE VOLUME PRESSAVG GPRESSAVG
ENERGY: 0 0.9697 5.1247 3.7577 0.0000 -10521.6862 1372.0291 0.0000 0.0000 1729.6513 -7410.1538 296.7610 -9139.8051 -7410.1538 296.7610 -303.7702 -212.3266 29638.2018 -303.7702 -212.3266
ENERGY: 300000 1.0569 6.9613 3.8945 0.0000 -10505.0102 1382.1194 0.0000 0.0000 1727.3719 -7383.6062 296.3700 -9110.9781 -7395.1763 297.9421 -550.8055 -543.2317 30465.2076 -306.1018 -236.0088
ENERGY: 600000 0.9792 5.8492 4.3130 0.0000 -10495.3949 1329.6025 0.0000 0.0000 1779.5893 -7375.0617 305.3290 -9154.6510 -7380.9839 301.0850 -630.4253 -605.8637 30119.6770 -317.8141 -257.9473
ENERGY: 900000 1.1941 2.9722 3.7660 0.0000 -10555.1729 1428.7614 0.0000 0.0000 1750.8671 -7367.6121 300.4011 -9118.4792 -7386.6946 300.6219 -72.2150 63.6816 30297.9151 -274.9764 -214.2195
ENERGY: 1200000 3.8894 5.5456 4.2641 0.0000 -10561.4815 1372.0895 0.0000 0.0000 1750.1186 -7425.5742 300.2727 -9175.6928 -7382.5889 301.2065 -561.5991 -529.5962 30277.3814 -196.8835 -139.9413
ENERGY: 1500000 2.6594 6.5483 3.5688 0.0000 -10658.5703 1434.5129 0.0000 0.0000 1811.0492 -7400.2317 310.7267 -9211.2809 -7391.6041 301.3212 -102.0935 -20.0140 29817.3021 -174.3390 -111.0840
TCL: Running FEP window   3: Lambda1 0.1    Lambda2 0.15000000000000002 [dLambda 0.05000000000000002]
TCL: Setting parameter firsttimestep to 0
TCL: Setting parameter alchLambda to 0.1
Info: NONBONDED TABLE R-SQUARED SPACING: 0.0625
Info: NONBONDED TABLE SIZE: 705 POINTS
TCL: Setting parameter alchLambda2 to 0.15000000000000002
Info: NONBONDED TABLE R-SQUARED SPACING: 0.0625
Info: NONBONDED TABLE SIZE: 705 POINTS
TCL: Running for 1500000 steps
ETITLE: TS BOND ANGLE DIHED IMPRP ELECT VDW BOUNDARY MISC KINETIC TOTAL TEMP POTENTIAL TOTALAVG TEMPAVG PRESSURE GPRESSURE VOLUME PRESSAVG GPRESSAVG
ENERGY: 0 2.6594 6.5484 3.5688 0.0000 -10658.5688 1434.7088 0.0000 0.0000 1810.1933 -7400.8902 310.5799 -9211.0835 -7400.8902 310.5799 -96.5713 -16.0185 29817.3021 -96.5713 -16.0185
ENERGY: 300000 0.7871 8.0906 3.8471 0.0000 -10638.1349 1477.0984 0.0000 0.0000 1717.7548 -7430.5569 294.7199 -9148.3117 -7392.1834 303.3985 281.5688 320.3449 30131.6813 127.2919 173.7837
ENERGY: 600000 3.0231 4.2268 3.6776 0.0000 -10576.2225 1393.4775 0.0000 0.0000 1738.7154 -7433.1021 298.3162 -9171.8175 -7390.1020 301.1284 -445.4786 -329.2282 30034.1459 -90.9506 -47.4771
ENERGY: 900000 2.6763 5.1480 3.6039 0.0000 -10598.3173 1466.4885 0.0000 0.0000 1754.0346 -7366.3659 300.9446 -9120.4005 -7393.8410 300.3643 457.4099 532.9479 29705.0272 -68.9306 -12.2110
ENERGY: 1200000 0.7849 3.2410 3.5101 0.0000 -10607.5831 1487.2162 0.0000 0.0000 1815.4162 -7297.4147 311.4760 -9112.8309 -7386.9731 300.8863 727.7097 847.6649 29732.1488 -3.2826 56.8433
ENERGY: 1500000 2.8532 5.6880 4.2465 0.0000 -10651.3879 1420.8661 0.0000 0.0000 1741.1970 -7476.5372 298.7420 -9217.7342 -7393.4927 301.4733 -248.6958 -179.4460 29990.4210 5.4782 68.8417
TCL: Running FEP window   4: Lambda1 0.15000000000000002 Lambda2 0.2    [dLambda 0.04999999999999999]
TCL: Setting parameter firsttimestep to 0
TCL: Setting parameter alchLambda to 0.15000000000000002
Info: NONBONDED TABLE R-SQUARED SPACING: 0.0625
Info: NONBONDED TABLE SIZE: 705 POINTS
TCL: Setting parameter alchLambda2 to 0.2
Info: NONBONDED TABLE R-SQUARED SPACING: 0.0625
Info: NONBONDED TABLE SIZE: 705 POINTS
TCL: Running for 1500000 steps
ETITLE: TS BOND ANGLE DIHED IMPRP ELECT VDW BOUNDARY MISC KINETIC TOTAL TEMP POTENTIAL TOTALAVG TEMPAVG PRESSURE GPRESSURE VOLUME PRESSAVG GPRESSAVG
ENERGY: 0 2.8532 5.6880 4.2465 0.0000 -10651.3863 1420.7145 0.0000 0.0000 1740.3359 -7477.5482 298.5942 -9217.8841 -7477.5482 298.5942 -268.7855 -176.8536 29990.4210 -268.7855 -176.8536
ENERGY: 300000 0.9646 4.8822 3.6462 0.0000 -10510.9060 1447.1106 0.0000 0.0000 1734.1325 -7320.1699 297.5299 -9054.3024 -7412.8390 297.7784 237.3575 295.2066 30331.5258 -115.1445 -40.8180
ENERGY: 600000 1.2196 5.5410 4.1020 0.0000 -10668.9670 1416.2272 0.0000 0.0000 1811.1750 -7430.7022 310.7483 -9241.8772 -7411.2633 299.8670 -211.6540 -111.4554 29777.4601 -223.6623 -133.0929
ENERGY: 900000 1.8160 6.2843 4.3675 0.0000 -10475.0997 1398.0839 0.0000 0.0000 1713.9785 -7350.5694 294.0720 -9064.5479 -7410.9265 298.8481 -126.8259 -72.9821 30172.2389 -204.4418 -121.1126
ENERGY: 1200000 3.0403 4.1266 4.1057 0.0000 -10557.0614 1419.5543 0.0000 0.0000 1747.1313 -7379.1032 299.7601 -9126.2345 -7406.5213 299.2272 5.3988 181.8091 30066.0046 -145.3392 -65.1818
ENERGY: 1500000 1.4653 10.0461 4.7832 0.0000 -10508.6665 1343.0498 0.0000 0.0000 1801.0652 -7348.2568 309.0137 -9149.3221 -7402.9621 300.3114 -643.4574 -557.5943 29902.7989 -136.5368 -64.0161
TCL: Running FEP window   5: Lambda1 0.2    Lambda2 0.25   [dLambda 0.04999999999999999]
TCL: Setting parameter firsttimestep to 0
TCL: Setting parameter alchLambda to 0.2
Info: NONBONDED TABLE R-SQUARED SPACING: 0.0625
Info: NONBONDED TABLE SIZE: 705 POINTS
TCL: Setting parameter alchLambda2 to 0.25
Info: NONBONDED TABLE R-SQUARED SPACING: 0.0625
Info: NONBONDED TABLE SIZE: 705 POINTS
TCL: Running for 1500000 steps
ETITLE: TS BOND ANGLE DIHED IMPRP ELECT VDW BOUNDARY MISC KINETIC TOTAL TEMP POTENTIAL TOTALAVG TEMPAVG PRESSURE GPRESSURE VOLUME PRESSAVG GPRESSAVG
ENERGY: 0 1.4653 10.0461 4.7832 0.0000 -10508.6654 1343.2979 0.0000 0.0000 1800.1578 -7348.9151 308.8580 -9149.0729 -7348.9151 308.8580 -652.7139 -553.9405 29902.7989 -652.7139 -553.9405
ENERGY: 300000 3.8147 9.1883 4.9604 0.0000 -10576.3374 1413.3112 0.0000 0.0000 1731.7328 -7413.3300 297.1182 -9145.0628 -7418.7615 299.0228 -285.3793 -266.2626 30071.5190 -285.7197 -221.2374
ENERGY: 600000 2.3382 6.9203 4.3889 0.0000 -10545.0808 1441.7209 0.0000 0.0000 1767.0927 -7322.6198 303.1850 -9089.7125 -7393.6245 301.4010 211.1572 320.4834 29828.0036 -213.8309 -137.9121
ENERGY: 900000 2.6936 4.5029 3.6044 0.0000 -10532.0289 1391.0273 0.0000 0.0000 1748.9641 -7381.2366 300.0746 -9130.2007 -7402.2869 301.8974 -367.8435 -287.1107 30031.7529 -136.0587 -71.0553
ENERGY: 1200000 0.8902 6.4206 4.1089 0.0000 -10728.0822 1504.0136 0.0000 0.0000 1790.9216 -7421.7273 307.2734 -9212.6489 -7402.1529 301.6830 853.9940 834.5827 29487.9441 -210.0642 -147.0918
ENERGY: 1500000 2.1509 7.8507 5.2428 0.0000 -10657.2243 1424.0289 0.0000 0.0000 1735.2054 -7482.7455 297.7140 -9217.9509 -7404.4178 300.8315 -266.5115 -190.4614 30033.0950 -263.2021 -201.3575
TCL: Running FEP window   6: Lambda1 0.25   Lambda2 0.3    [dLambda 0.04999999999999999]
TCL: Setting parameter firsttimestep to 0
TCL: Setting parameter alchLambda to 0.25
Info: NONBONDED TABLE R-SQUARED SPACING: 0.0625
Info: NONBONDED TABLE SIZE: 705 POINTS
TCL: Setting parameter alchLambda2 to 0.3
Info: NONBONDED TABLE R-SQUARED SPACING: 0.0625
Info: NONBONDED TABLE SIZE: 705 POINTS
TCL: Running for 1500000 steps
ETITLE: TS BOND ANGLE DIHED IMPRP ELECT VDW BOUNDARY MISC KINETIC TOTAL TEMP POTENTIAL TOTALAVG TEMPAVG PRESSURE GPRESSURE VOLUME PRESSAVG GPRESSAVG
ENERGY: 0 2.1509 7.8507 5.2428 0.0000 -10657.2246 1423.5724 0.0000 0.0000 1734.3492 -7484.0587 297.5671 -9218.4079 -7484.0587 297.5671 -261.1596 -191.4436 30033.0950 -261.1596 -191.4436
ENERGY: 300000 0.3942 6.4168 3.5812 0.0000 -10538.5314 1439.9073 0.0000 0.0000 1766.3389 -7321.8930 303.0556 -9088.2318 -7392.3547 300.6906 104.5394 208.2288 30197.3715 -186.2831 -98.9476
ENERGY: 600000 0.5401 9.0306 4.0668 0.0000 -10622.4093 1463.2601 0.0000 0.0000 1748.7256 -7396.7861 300.0337 -9145.5117 -7402.5476 300.0928 117.2801 198.9329 30206.8651 -306.9480 -222.2804
ENERGY: 900000 1.0560 6.5709 5.5254 0.0000 -10672.7669 1409.2313 0.0000 0.0000 1796.4829 -7453.9003 308.2275 -9250.3832 -7413.2572 300.9531 -359.1765 -344.6286 30137.9664 -320.7287 -259.0703
ENERGY: 1200000 1.1116 6.1408 4.0012 0.0000 -10478.6060 1411.0258 0.0000 0.0000 1759.4390 -7296.8876 301.8718 -9056.3266 -7403.0935 301.0626 157.1457 295.2894 30071.3670 -345.7654 -278.1327
ENERGY: 1500000 3.2753 5.9638 3.5549 0.0000 -10573.2735 1342.2708 0.0000 0.0000 1737.7079 -7480.5008 298.1433 -9218.2087 -7409.1591 300.4573 -1063.5846 -1028.3202 30488.4786 -417.2685 -351.0669
TCL: Running FEP window   7: Lambda1 0.3    Lambda2 0.35   [dLambda 0.04999999999999999]
TCL: Setting parameter firsttimestep to 0
TCL: Setting parameter alchLambda to 0.3
Info: NONBONDED TABLE R-SQUARED SPACING: 0.0625
Info: NONBONDED TABLE SIZE: 705 POINTS
TCL: Setting parameter alchLambda2 to 0.35
Info: NONBONDED TABLE R-SQUARED SPACING: 0.0625
Info: NONBONDED TABLE SIZE: 705 POINTS
TCL: Running for 1500000 steps
ETITLE: TS BOND ANGLE DIHED IMPRP ELECT VDW BOUNDARY MISC KINETIC TOTAL TEMP POTENTIAL TOTALAVG TEMPAVG PRESSURE GPRESSURE VOLUME PRESSAVG GPRESSAVG
ENERGY: 0 3.2753 5.9638 3.5549 0.0000 -10573.2733 1341.7441 0.0000 0.0000 1736.7920 -7481.9433 297.9862 -9218.7352 -7481.9433 297.9862 -1109.2952 -1028.1123 30488.4786 -1109.2952 -1028.1123
ENERGY: 300000 2.1752 8.1306 3.3387 0.0000 -10607.7014 1386.6249 0.0000 0.0000 1742.6885 -7464.7435 298.9979 -9207.4320 -7459.7245 296.8123 -418.0255 -310.7402 29857.9957 -401.3659 -307.9076
ENERGY: 600000 3.0828 4.7068 3.9372 0.0000 -10647.7928 1431.2558 0.0000 0.0000 1756.9490 -7447.8612 301.4446 -9204.8102 -7445.3773 297.0484 -245.8920 -209.7053 30008.6502 -398.9843 -322.0881
ENERGY: 900000 2.5959 7.8894 3.6252 0.0000 -10657.1728 1458.9112 0.0000 0.0000 1767.3842 -7416.7669 303.2350 -9184.1511 -7411.1659 299.0929 10.1962 82.9370 30300.2965 -239.2002 -172.4506
ENERGY: 1200000 2.3373 6.6306 3.5375 0.0000 -10529.5004 1362.9323 0.0000 0.0000 1768.4172 -7385.6455 303.4122 -9154.0627 -7412.5669 299.3326 -639.3368 -556.3135 30353.7727 -245.1326 -178.0066
ENERGY: 1500000 4.0473 2.2464 3.9014 0.0000 -10525.5077 1414.6785 0.0000 0.0000 1744.5865 -7356.0476 299.3235 -9100.6341 -7408.5867 299.2615 -63.7855 -5.4721 30003.0482 -190.8508 -126.9507
TCL: Running FEP window   8: Lambda1 0.35   Lambda2 0.39999999999999997 [dLambda 0.04999999999999999]
TCL: Setting parameter firsttimestep to 0
TCL: Setting parameter alchLambda to 0.35
Info: NONBONDED TABLE R-SQUARED SPACING: 0.0625
Info: NONBONDED TABLE SIZE: 705 POINTS
TCL: Setting parameter alchLambda2 to 0.39999999999999997
Info: NONBONDED TABLE R-SQUARED SPACING: 0.0625
Info: NONBONDED TABLE SIZE: 705 POINTS
TCL: Running for 1500000 steps
ETITLE: TS BOND ANGLE DIHED IMPRP ELECT VDW BOUNDARY MISC KINETIC TOTAL TEMP POTENTIAL TOTALAVG TEMPAVG PRESSURE GPRESSURE VOLUME PRESSAVG GPRESSAVG
ENERGY: 0 4.0473 2.2464 3.9014 0.0000 -10525.5057 1414.6771 0.0000 0.0000 1743.7009 -7356.9326 299.1716 -9100.6335 -7356.9326 299.1716 -93.8192 -3.9289 30003.0482 -93.8192 -3.9289
ENERGY: 300000 3.1312 4.4581 3.8209 0.0000 -10498.8094 1380.4573 0.0000 0.0000 1746.7816 -7360.1603 299.7001 -9106.9419 -7423.7249 297.0710 -100.1157 -5.0505 29958.5285 -95.9190 -33.4236
ENERGY: 600000 1.4676 5.1219 4.6155 0.0000 -10767.2146 1545.7312 0.0000 0.0000 1810.9891 -7399.2892 310.7164 -9210.2783 -7433.7911 299.2448 656.2211 709.5419 30201.6197 149.2588 215.8276
ENERGY: 900000 2.6327 3.8451 3.6278 0.0000 -10528.3459 1412.9580 0.0000 0.0000 1774.6592 -7330.6231 304.4832 -9105.2823 -7406.6656 302.1762 79.7735 161.4175 29903.5672 146.3528 208.7591
ENERGY: 1200000 1.6304 8.0129 3.8776 0.0000 -10552.6349 1392.8470 0.0000 0.0000 1754.4292 -7391.8379 301.0123 -9146.2671 -7402.4085 301.2263 -252.4585 -158.0621 30048.3046 116.3981 178.3580
ENERGY: 1500000 1.9241 6.0536 4.0470 0.0000 -10527.5899 1372.8318 0.0000 0.0000 1763.1004 -7379.6330 302.5000 -9142.7334 -7401.3359 301.5940 -370.9321 -375.8939 30296.6161 49.8472 108.9855
TCL: Running FEP window   9: Lambda1 0.39999999999999997 Lambda2 0.44999999999999996 [dLambda 0.04999999999999999]
TCL: Setting parameter firsttimestep to 0
TCL: Setting parameter alchLambda to 0.39999999999999997
Info: NONBONDED TABLE R-SQUARED SPACING: 0.0625
Info: NONBONDED TABLE SIZE: 705 POINTS
TCL: Setting parameter alchLambda2 to 0.44999999999999996
Info: NONBONDED TABLE R-SQUARED SPACING: 0.0625
Info: NONBONDED TABLE SIZE: 705 POINTS
TCL: Running for 1500000 steps
ETITLE: TS BOND ANGLE DIHED IMPRP ELECT VDW BOUNDARY MISC KINETIC TOTAL TEMP POTENTIAL TOTALAVG TEMPAVG PRESSURE GPRESSURE VOLUME PRESSAVG GPRESSAVG
ENERGY: 0 1.9241 6.0536 4.0470 0.0000 -10527.5885 1372.8562 0.0000 0.0000 1762.2296 -7380.4781 302.3506 -9142.7077 -7380.4781 302.3506 -456.3132 -372.3614 30296.6161 -456.3132 -372.3614
ENERGY: 300000 3.7790 2.8946 3.6346 0.0000 -10786.0809 1506.2598 0.0000 0.0000 1778.2310 -7491.2820 305.0960 -9269.5130 -7426.0035 301.6489 460.6520 504.2652 29500.9232 -138.2435 -70.4391
ENERGY: 600000 4.0771 6.6635 3.7173 0.0000 -10580.8690 1427.3177 0.0000 0.0000 1736.2946 -7402.7988 297.9008 -9139.0934 -7402.9180 302.0674 200.1840 207.3392 30135.3959 -194.3404 -136.2418
ENERGY: 900000 2.4568 8.0261 4.6892 0.0000 -10793.3276 1466.7770 0.0000 0.0000 1835.9788 -7475.3997 315.0039 -9311.3785 -7402.2174 302.5596 -193.3034 -130.7447 30221.0801 -144.3281 -81.2949
ENERGY: 1200000 3.0051 7.9962 4.1694 0.0000 -10599.3454 1413.1211 0.0000 0.0000 1733.2459 -7437.8076 297.3778 -9171.0535 -7409.9709 301.4799 -84.8307 -40.1982 29490.5212 -76.9591 -12.4752
ENERGY: 1500000 3.8641 7.4277 4.2103 0.0000 -10595.2977 1410.2090 0.0000 0.0000 1699.7095 -7469.8771 291.6238 -9169.5866 -7412.2178 301.2412 -459.6554 -385.9393 30160.0255 -89.5467 -24.7198
TCL: Running FEP window  10: Lambda1 0.44999999999999996 Lambda2 0.49999999999999994 [dLambda 0.04999999999999999]
TCL: Setting parameter firsttimestep to 0
TCL: Setting parameter alchLambda to 0.44999999999999996
Info: NONBONDED TABLE R-SQUARED SPACING: 0.0625
Info: NONBONDED TABLE SIZE: 705 POINTS
TCL: Setting parameter alchLambda2 to 0.49999999999999994
Info: NONBONDED TABLE R-SQUARED SPACING: 0.0625
Info: NONBONDED TABLE SIZE: 705 POINTS
TCL: Running for 1500000 steps
ETITLE: TS BOND ANGLE DIHED IMPRP ELECT VDW BOUNDARY MISC KINETIC TOTAL TEMP POTENTIAL TOTALAVG TEMPAVG PRESSURE GPRESSURE VOLUME PRESSAVG GPRESSAVG
ENERGY: 0 3.8642 7.4277 4.2103 0.0000 -10595.2968 1410.2530 0.0000 0.0000 1698.8637 -7470.6780 291.4787 -9169.5417 -7470.6780 291.4787 -468.8714 -379.2489 30160.0255 -468.8714 -379.2489
ENERGY: 300000 1.8908 8.4100 3.6169 0.0000 -10636.7909 1438.8739 0.0000 0.0000 1819.2702 -7364.7292 312.1372 -9183.9993 -7387.4763 305.6262 118.2028 157.9093 30239.8097 23.7795 62.5689
ENERGY: 600000 2.2754 7.1458 3.5957 0.0000 -10648.2180 1404.7718 0.0000 0.0000 1669.7416 -7560.6877 286.4822 -9230.4293 -7441.5132 300.7467 -207.8301 -207.3151 29656.6275 122.3748 177.4687
ENERGY: 900000 1.0996 2.8182 3.9430 0.0000 -10738.9942 1499.5292 0.0000 0.0000 1717.3880 -7514.2162 294.6570 -9231.6042 -7438.1685 299.5866 385.5145 473.6883 29837.4007 66.2882 118.5861
ENERGY: 1200000 4.5360 7.1072 3.9615 0.0000 -10608.2034 1432.7214 0.0000 0.0000 1744.2148 -7415.6625 299.2597 -9159.8773 -7436.9596 299.2275 -45.2374 -10.4033 30026.0921 9.6594 58.8040
ENERGY: 1500000 0.9635 2.8410 3.4862 0.0000 -10468.2215 1376.0414 0.0000 0.0000 1765.3596 -7319.5297 302.8876 -9084.8893 -7419.7509 300.0438 -111.1342 -64.4399 29798.7436 50.5774 100.6851
TCL: Running FEP window  11: Lambda1 0.49999999999999994 Lambda2 0.5499999999999999 [dLambda 0.04999999999999999]
TCL: Setting parameter firsttimestep to 0
TCL: Setting parameter alchLambda to 0.49999999999999994
Info: NONBONDED TABLE R-SQUARED SPACING: 0.0625
Info: NONBONDED TABLE SIZE: 705 POINTS
TCL: Setting parameter alchLambda2 to 0.5499999999999999
Info: NONBONDED TABLE R-SQUARED SPACING: 0.0625
Info: NONBONDED TABLE SIZE: 705 POINTS
TCL: Running for 1500000 steps
ETITLE: TS BOND ANGLE DIHED IMPRP ELECT VDW BOUNDARY MISC KINETIC TOTAL TEMP POTENTIAL TOTALAVG TEMPAVG PRESSURE GPRESSURE VOLUME PRESSAVG GPRESSAVG
ENERGY: 0 0.9635 2.8410 3.4862 0.0000 -10468.2209 1375.7882 0.0000 0.0000 1764.4553 -7320.6867 302.7325 -9085.1420 -7320.6867 302.7325 -144.8687 -58.6420 29798.7436 -144.8687 -58.6420
ENERGY: 300000 3.4509 5.0161 4.0097 0.0000 -10388.2244 1386.3624 0.0000 0.0000 1805.4635 -7183.9217 309.7684 -8989.3853 -7317.1226 304.5095 105.8352 146.3105 30523.9205 -79.9629 -23.7966
ENERGY: 600000 3.6999 10.0615 4.2521 0.0000 -10662.0049 1485.5390 0.0000 0.0000 1710.2243 -7448.2282 293.4279 -9158.4525 -7360.9012 301.4489 350.1350 372.3147 29960.6353 -110.5992 -67.0213
ENERGY: 900000 1.5657 5.1577 3.5543 0.0000 -10492.7810 1351.3765 0.0000 0.0000 1768.1130 -7363.0138 303.3600 -9131.1267 -7364.1300 301.1322 -463.3961 -348.6160 30002.0443 -155.4306 -102.0982
ENERGY: 1200000 0.6271 3.6523 3.8522 0.0000 -10760.7106 1495.7730 0.0000 0.0000 1754.9646 -7501.8415 301.1041 -9256.8061 -7386.0871 300.9348 293.3927 412.4620 29923.9438 -12.0658 49.3930
ENERGY: 1500000 2.0041 6.2221 3.5537 0.0000 -10583.1459 1443.8182 0.0000 0.0000 1758.1301 -7369.4177 301.6472 -9127.5477 -7387.3397 300.8327 176.8693 286.7849 30114.9320 -15.9124 51.8530
TCL: Running FEP window  12: Lambda1 0.5499999999999999 Lambda2 0.6    [dLambda 0.050000000000000044]
TCL: Setting parameter firsttimestep to 0
TCL: Setting parameter alchLambda to 0.5499999999999999
Info: NONBONDED TABLE R-SQUARED SPACING: 0.0625
Info: NONBONDED TABLE SIZE: 705 POINTS
TCL: Setting parameter alchLambda2 to 0.6
Info: NONBONDED TABLE R-SQUARED SPACING: 0.0625
Info: NONBONDED TABLE SIZE: 705 POINTS
TCL: Running for 1500000 steps
ETITLE: TS BOND ANGLE DIHED IMPRP ELECT VDW BOUNDARY MISC KINETIC TOTAL TEMP POTENTIAL TOTALAVG TEMPAVG PRESSURE GPRESSURE VOLUME PRESSAVG GPRESSAVG
ENERGY: 0 2.0041 6.2221 3.5537 0.0000 -10582.9174 1443.9669 0.0000 0.0000 1757.2671 -7369.9035 301.4992 -9127.1706 -7369.9035 301.4992 214.1170 298.4787 30114.9320 214.1170 298.4787
ENERGY: 300000 2.3635 6.7206 4.0755 0.0000 -10745.7792 1502.7768 0.0000 0.0000 1724.1909 -7505.6520 295.8242 -9229.8429 -7432.9614 298.7362 528.2744 610.5892 29700.1300 -141.1931 -50.8219
ENERGY: 600000 2.3530 5.5856 4.2561 0.0000 -10466.2984 1361.5782 0.0000 0.0000 1732.9228 -7359.6028 297.3223 -9092.5256 -7417.3833 298.5044 -490.3603 -520.7969 30535.5218 -176.7333 -100.4770
ENERGY: 900000 3.7278 3.5631 3.7229 0.0000 -10621.9415 1439.3410 0.0000 0.0000 1806.5668 -7365.0199 309.9576 -9171.5867 -7413.8751 300.2053 305.4120 261.8599 29968.3184 -112.4899 -46.0306
ENERGY: 1200000 2.4927 5.0766 4.0193 0.0000 -10652.1442 1443.4999 0.0000 0.0000 1761.6149 -7435.4409 302.2451 -9197.0558 -7400.7778 300.6966 -210.3082 -189.5411 30432.4568 -171.5807 -116.5680
ENERGY: 1500000 2.9217 6.4231 3.7593 0.0000 -10717.5771 1554.1366 0.0000 0.0000 1706.6700 -7443.6664 292.8181 -9150.3364 -7404.3812 300.1385 857.4571 1014.0520 29972.7418 -84.0217 -19.9112
TCL: Running FEP window  13: Lambda1 0.6    Lambda2 0.65   [dLambda 0.050000000000000044]
TCL: Setting parameter firsttimestep to 0
TCL: Setting parameter alchLambda to 0.6
Info: NONBONDED TABLE R-SQUARED SPACING: 0.0625
Info: NONBONDED TABLE SIZE: 705 POINTS
TCL: Setting parameter alchLambda2 to 0.65
Info: NONBONDED TABLE R-SQUARED SPACING: 0.0625
Info: NONBONDED TABLE SIZE: 705 POINTS
TCL: Running for 1500000 steps
ETITLE: TS BOND ANGLE DIHED IMPRP ELECT VDW BOUNDARY MISC KINETIC TOTAL TEMP POTENTIAL TOTALAVG TEMPAVG PRESSURE GPRESSURE VOLUME PRESSAVG GPRESSAVG
ENERGY: 0 2.9217 6.4231 3.7593 0.0000 -10717.7968 1554.1336 0.0000 0.0000 1705.7820 -7444.7772 292.6657 -9150.5592 -7444.7772 292.6657 927.8736 1021.0365 29972.7418 927.8736 1021.0365
ENERGY: 300000 1.3152 7.2456 3.4744 0.0000 -10645.5566 1462.1720 0.0000 0.0000 1723.3272 -7448.0221 295.6760 -9171.3493 -7423.6931 298.0625 288.7188 310.8942 29948.9384 420.3931 478.3302
ENERGY: 600000 4.0262 4.8738 3.6855 0.0000 -10474.3211 1361.2978 0.0000 0.0000 1757.1112 -7343.3266 301.4724 -9100.4378 -7400.7844 299.8934 -539.6040 -497.9170 30369.5766 195.0504 256.0564
ENERGY: 900000 0.9790 4.9748 3.8676 0.0000 -10601.9978 1442.9710 0.0000 0.0000 1706.3262 -7442.8791 292.7591 -9149.2054 -7384.1554 301.0327 9.9722 16.0132 30393.6228 53.8351 112.7946
ENERGY: 1200000 0.6669 5.4794 3.9294 0.0000 -10661.1335 1509.2872 0.0000 0.0000 1783.1442 -7358.6264 305.9390 -9141.7706 -7379.6575 302.0034 708.8331 797.7174 29916.9640 115.9756 174.8008
ENERGY: 1500000 0.9332 5.1003 4.1142 0.0000 -10512.8038 1353.4724 0.0000 0.0000 1729.3050 -7419.8788 296.7016 -9149.1837 -7387.2570 301.3848 -399.7967 -330.7685 29911.8673 34.1377 96.3228
TCL: Running FEP window  14: Lambda1 0.65   Lambda2 0.7000000000000001 [dLambda 0.050000000000000044]
TCL: Setting parameter firsttimestep to 0
TCL: Setting parameter alchLambda to 0.65
Info: NONBONDED TABLE R-SQUARED SPACING: 0.0625
Info: NONBONDED TABLE SIZE: 705 POINTS
TCL: Setting parameter alchLambda2 to 0.7000000000000001
Info: NONBONDED TABLE R-SQUARED SPACING: 0.0625
Info: NONBONDED TABLE SIZE: 705 POINTS
TCL: Running for 1500000 steps
ETITLE: TS BOND ANGLE DIHED IMPRP ELECT VDW BOUNDARY MISC KINETIC TOTAL TEMP POTENTIAL TOTALAVG TEMPAVG PRESSURE GPRESSURE VOLUME PRESSAVG GPRESSAVG
ENERGY: 0 0.9332 5.1003 4.1142 0.0000 -10513.7028 1354.2456 0.0000 0.0000 1728.4253 -7420.8843 296.5507 -9149.3096 -7420.8843 296.5507 -398.4949 -316.1728 29911.8673 -398.4949 -316.1728
ENERGY: 300000 3.1848 7.1923 4.9518 0.0000 -10759.7062 1502.4429 0.0000 0.0000 1734.4486 -7507.4858 297.5841 -9241.9344 -7450.0760 300.6207 498.7037 561.4570 29974.4907 113.4427 204.2850
ENERGY: 600000 0.9296 10.4881 5.1369 0.0000 -10617.6997 1526.5763 0.0000 0.0000 1725.5020 -7349.0668 296.0491 -9074.5688 -7400.5054 301.6676 1133.0587 1218.0459 29918.4294 153.1917 247.4036
ENERGY: 900000 2.1346 6.5967 3.7707 0.0000 -10546.3807 1403.5157 0.0000 0.0000 1711.7265 -7418.6364 293.6856 -9130.3630 -7392.0585 300.7517 -297.8413 -222.6546 30519.7386 101.7013 183.1526
ENERGY: 1200000 2.0841 8.2578 3.7400 0.0000 -10561.7179 1436.2169 0.0000 0.0000 1741.5571 -7369.8618 298.8038 -9111.4189 -7402.4436 300.1928 338.1584 375.8014 30014.6968 120.9471 194.7550
ENERGY: 1500000 2.0001 6.8015 3.9467 0.0000 -10701.8711 1417.1227 0.0000 0.0000 1691.2654 -7580.7347 290.1751 -9272.0001 -7421.4298 299.7611 -72.5738 20.7287 29570.6270 59.3371 134.7113
TCL: Running FEP window  15: Lambda1 0.7000000000000001 Lambda2 0.7500000000000001 [dLambda 0.050000000000000044]
TCL: Setting parameter firsttimestep to 0
TCL: Setting parameter alchLambda to 0.7000000000000001
Info: NONBONDED TABLE R-SQUARED SPACING: 0.0625
Info: NONBONDED TABLE SIZE: 705 POINTS
TCL: Setting parameter alchLambda2 to 0.7500000000000001
Info: NONBONDED TABLE R-SQUARED SPACING: 0.0625
Info: NONBONDED TABLE SIZE: 705 POINTS
TCL: Running for 1500000 steps
ETITLE: TS BOND ANGLE DIHED IMPRP ELECT VDW BOUNDARY MISC KINETIC TOTAL TEMP POTENTIAL TOTALAVG TEMPAVG PRESSURE GPRESSURE VOLUME PRESSAVG GPRESSAVG
ENERGY: 0 2.0001 6.8015 3.9467 0.0000 -10702.8884 1417.2070 0.0000 0.0000 1690.3514 -7582.5817 290.0183 -9272.9332 -7582.5817 290.0183 -70.7793 26.7698 29570.6270 -70.7793 26.7698
ENERGY: 300000 2.8127 4.7028 4.0604 0.0000 -10685.7229 1417.3903 0.0000 0.0000 1744.7163 -7512.0403 299.3458 -9256.7566 -7471.2205 296.4359 -374.1409 -336.2477 29936.5939 -312.0406 -251.4777
ENERGY: 600000 0.6807 6.0480 3.7970 0.0000 -10570.1682 1384.1990 0.0000 0.0000 1803.8263 -7371.6171 309.4875 -9175.4435 -7429.6728 299.3450 -102.0214 -54.2234 29845.2710 -44.8106 29.6767
ENERGY: 900000 0.9597 6.0554 3.6873 0.0000 -10640.7767 1476.5226 0.0000 0.0000 1707.4295 -7446.1221 292.9484 -9153.5516 -7415.8392 300.0308 687.7689 714.3353 29773.7912 -104.9729 -38.1602
ENERGY: 1200000 0.5344 2.7582 3.5997 0.0000 -10561.7020 1418.6246 0.0000 0.0000 1778.1583 -7358.0269 305.0835 -9136.1852 -7410.3349 300.0276 91.4472 156.7623 30269.1746 10.6972 76.4194
ENERGY: 1500000 0.4166 10.4052 3.8644 0.0000 -10596.8774 1400.0496 0.0000 0.0000 1758.4458 -7423.6958 301.7014 -9182.1415 -7402.7452 299.9955 -362.9991 -267.6438 30190.4664 -16.1996 50.6975
TCL: Running FEP window  16: Lambda1 0.7500000000000001 Lambda2 0.8000000000000002 [dLambda 0.050000000000000044]
TCL: Setting parameter firsttimestep to 0
TCL: Setting parameter alchLambda to 0.7500000000000001
Info: NONBONDED TABLE R-SQUARED SPACING: 0.0625
Info: NONBONDED TABLE SIZE: 705 POINTS
TCL: Setting parameter alchLambda2 to 0.8000000000000002
Info: NONBONDED TABLE R-SQUARED SPACING: 0.0625
Info: NONBONDED TABLE SIZE: 705 POINTS
TCL: Running for 1500000 steps
ETITLE: TS BOND ANGLE DIHED IMPRP ELECT VDW BOUNDARY MISC KINETIC TOTAL TEMP POTENTIAL TOTALAVG TEMPAVG PRESSURE GPRESSURE VOLUME PRESSAVG GPRESSAVG
ENERGY: 0 0.4166 10.4052 3.8644 0.0000 -10597.0216 1400.4224 0.0000 0.0000 1757.5983 -7424.3146 301.5560 -9181.9129 -7424.3146 301.5560 -334.7214 -248.7357 30190.4664 -334.7214 -248.7357
ENERGY: 300000 1.9651 5.2966 3.8012 0.0000 -10678.3762 1521.1121 0.0000 0.0000 1731.5047 -7414.6966 297.0790 -9146.2013 -7415.5649 295.1003 802.6884 880.7505 29642.0736 243.5546 334.6635
ENERGY: 600000 0.7351 7.5467 4.4032 0.0000 -10592.4414 1394.2235 0.0000 0.0000 1766.6255 -7418.9074 303.1048 -9185.5329 -7410.0979 298.1149 -277.5009 -215.4316 30081.1051 -5.6871 63.2089
ENERGY: 900000 1.9283 7.4672 3.6561 0.0000 -10631.3497 1437.3914 0.0000 0.0000 1740.4707 -7440.4360 298.6173 -9180.9066 -7402.6404 299.6254 -159.3096 -20.3145 30327.3348 116.7404 187.4646
ENERGY: 1200000 0.6061 4.8246 3.4003 0.0000 -10495.9636 1360.2374 0.0000 0.0000 1814.5977 -7312.2976 311.3355 -9126.8952 -7391.8820 299.9601 -576.8172 -523.3761 30604.2403 42.2911 112.3674
ENERGY: 1500000 2.2088 11.1143 4.0405 0.0000 -10571.0309 1416.9068 0.0000 0.0000 1784.0445 -7352.7160 306.0934 -9136.7605 -7390.5420 300.4624 130.2729 174.5231 30055.1220 57.6748 132.2946
TCL: Running FEP window  17: Lambda1 0.8000000000000002 Lambda2 0.8500000000000002 [dLambda 0.050000000000000044]
TCL: Setting parameter firsttimestep to 0
TCL: Setting parameter alchLambda to 0.8000000000000002
Info: NONBONDED TABLE R-SQUARED SPACING: 0.0625
Info: NONBONDED TABLE SIZE: 705 POINTS
TCL: Setting parameter alchLambda2 to 0.8500000000000002
Info: NONBONDED TABLE R-SQUARED SPACING: 0.0625
Info: NONBONDED TABLE SIZE: 705 POINTS
TCL: Running for 1500000 steps
ETITLE: TS BOND ANGLE DIHED IMPRP ELECT VDW BOUNDARY MISC KINETIC TOTAL TEMP POTENTIAL TOTALAVG TEMPAVG PRESSURE GPRESSURE VOLUME PRESSAVG GPRESSAVG
ENERGY: 0 2.2088 11.1143 4.0405 0.0000 -10571.8098 1417.7885 0.0000 0.0000 1783.1950 -7353.4627 305.9477 -9136.6577 -7353.4627 305.9477 107.7568 194.8731 30055.1220 107.7568 194.8731
ENERGY: 300000 1.6898 6.6577 3.6496 0.0000 -10545.5616 1391.9864 0.0000 0.0000 1743.2038 -7398.3743 299.0863 -9141.5781 -7417.4440 301.2507 -105.5560 -85.7626 29914.4767 -40.3319 -4.6979
ENERGY: 600000 1.0335 6.0108 4.9475 0.0000 -10553.0025 1344.9374 0.0000 0.0000 1734.1015 -7461.9718 297.5246 -9196.0733 -7420.8005 301.9974 -698.4738 -666.5906 30243.2387 -204.9565 -173.8043
ENERGY: 900000 2.2901 5.4055 4.1646 0.0000 -10547.1370 1378.0832 0.0000 0.0000 1701.7547 -7455.4387 291.9747 -9157.1934 -7407.1310 301.2874 -206.8077 -213.2784 29832.9741 -45.2173 -17.6935
ENERGY: 1200000 2.5077 8.8189 3.6865 0.0000 -10483.5939 1332.2489 0.0000 0.0000 1745.5518 -7390.7802 299.4891 -9136.3320 -7410.1576 300.7502 -691.6028 -655.2875 30225.6720 -69.6907 -39.8551
ENERGY: 1500000 3.5069 4.5623 3.9386 0.0000 -10565.2720 1462.2890 0.0000 0.0000 1756.3733 -7334.6018 301.3458 -9090.9751 -7408.0839 300.8708 772.5448 803.2473 29950.6193 8.9265 47.7084
TCL: Running FEP window  18: Lambda1 0.8500000000000002 Lambda2 0.9000000000000002 [dLambda 0.050000000000000044]
TCL: Setting parameter firsttimestep to 0
TCL: Setting parameter alchLambda to 0.8500000000000002
Info: NONBONDED TABLE R-SQUARED SPACING: 0.0625
Info: NONBONDED TABLE SIZE: 705 POINTS
TCL: Setting parameter alchLambda2 to 0.9000000000000002
Info: NONBONDED TABLE R-SQUARED SPACING: 0.0625
Info: NONBONDED TABLE SIZE: 705 POINTS
TCL: Running for 1500000 steps
ETITLE: TS BOND ANGLE DIHED IMPRP ELECT VDW BOUNDARY MISC KINETIC TOTAL TEMP POTENTIAL TOTALAVG TEMPAVG PRESSURE GPRESSURE VOLUME PRESSAVG GPRESSAVG
ENERGY: 0 3.5069 4.5623 3.9386 0.0000 -10566.3933 1462.6695 0.0000 0.0000 1755.4989 -7336.2170 301.1958 -9091.7159 -7336.2170 301.1958 723.9630 815.6898 29950.6193 723.9630 815.6898
ENERGY: 300000 1.6425 8.1392 3.7060 0.0000 -10586.8567 1394.4035 0.0000 0.0000 1690.1166 -7488.8488 289.9780 -9178.9654 -7442.0277 296.4578 -377.3604 -326.0736 30219.4235 8.3423 94.2069
ENERGY: 600000 1.7853 6.6356 3.8402 0.0000 -10733.0633 1549.7197 0.0000 0.0000 1809.3492 -7361.7333 310.4350 -9171.0825 -7419.7025 298.2321 828.5064 807.2319 30501.3817 99.6578 161.8935
ENERGY: 900000 1.6330 4.6506 4.1827 0.0000 -10782.1881 1478.8792 0.0000 0.0000 1782.2227 -7510.6199 305.7809 -9292.8426 -7426.4340 299.6420 182.7172 291.1326 29853.4470 57.7184 120.0458
ENERGY: 1200000 1.2246 11.5037 4.4960 0.0000 -10585.7021 1357.8327 0.0000 0.0000 1776.6763 -7433.9688 304.8293 -9210.6452 -7429.3783 300.0008 -621.3538 -582.9058 30157.2356 -35.4890 33.0747
ENERGY: 1500000 1.2320 11.0547 4.0168 0.0000 -10683.6938 1435.1160 0.0000 0.0000 1740.5790 -7491.6952 298.6359 -9232.2742 -7427.8697 300.4137 -159.5210 -97.8974 30192.5273 -65.2295 -2.8799
TCL: Running FEP window  19: Lambda1 0.9000000000000002 Lambda2 0.9500000000000003 [dLambda 0.050000000000000044]
TCL: Setting parameter firsttimestep to 0
TCL: Setting parameter alchLambda to 0.9000000000000002
Info: NONBONDED TABLE R-SQUARED SPACING: 0.0625
Info: NONBONDED TABLE SIZE: 705 POINTS
TCL: Setting parameter alchLambda2 to 0.9500000000000003
Info: NONBONDED TABLE R-SQUARED SPACING: 0.0625
Info: NONBONDED TABLE SIZE: 705 POINTS
TCL: Running for 1500000 steps
ETITLE: TS BOND ANGLE DIHED IMPRP ELECT VDW BOUNDARY MISC KINETIC TOTAL TEMP POTENTIAL TOTALAVG TEMPAVG PRESSURE GPRESSURE VOLUME PRESSAVG GPRESSAVG
ENERGY: 0 1.2320 11.0547 4.0168 0.0000 -10684.9075 1436.7438 0.0000 0.0000 1739.6968 -7492.1633 298.4846 -9231.8602 -7492.1633 298.4846 -153.0391 -69.7225 30192.5273 -153.0391 -69.7225
ENERGY: 300000 1.9363 5.5706 4.2903 0.0000 -10693.1960 1500.9553 0.0000 0.0000 1724.7175 -7455.7260 295.9145 -9180.4434 -7489.8097 296.6528 802.4718 694.1463 29928.9904 4.9416 19.7298
ENERGY: 600000 1.4059 5.6973 4.4118 0.0000 -10584.3903 1403.6070 0.0000 0.0000 1673.1723 -7496.0961 287.0708 -9169.2684 -7464.2452 295.5525 -88.1184 -30.5258 30015.5737 56.5021 85.2161
ENERGY: 900000 3.3556 4.3489 4.4221 0.0000 -10671.2178 1484.1308 0.0000 0.0000 1812.7353 -7362.2250 311.0160 -9174.9603 -7435.6231 299.0111 274.3986 375.7395 30151.4151 61.5017 108.8044
ENERGY: 1200000 2.6889 6.7300 5.8577 0.0000 -10515.8590 1364.1374 0.0000 0.0000 1793.0587 -7343.3862 307.6400 -9136.4449 -7416.5551 299.7176 -584.1208 -580.6264 30715.1900 35.6502 88.5434
ENERGY: 1500000 2.5208 4.3539 4.1288 0.0000 -10710.1195 1450.3139 0.0000 0.0000 1697.3629 -7551.4393 291.2212 -9248.8021 -7426.1714 299.5937 -74.5677 13.4431 29962.3832 -0.8730 51.8910
TCL: Running FEP window  20: Lambda1 0.9500000000000003 Lambda2 1.0    [dLambda 0.04999999999999971]
TCL: Setting parameter firsttimestep to 0
TCL: Setting parameter alchLambda to 0.9500000000000003
Info: NONBONDED TABLE R-SQUARED SPACING: 0.0625
Info: NONBONDED TABLE SIZE: 705 POINTS
TCL: Setting parameter alchLambda2 to 1.0
Info: NONBONDED TABLE R-SQUARED SPACING: 0.0625
Info: NONBONDED TABLE SIZE: 705 POINTS
TCL: Running for 1500000 steps
ETITLE: TS BOND ANGLE DIHED IMPRP ELECT VDW BOUNDARY MISC KINETIC TOTAL TEMP POTENTIAL TOTALAVG TEMPAVG PRESSURE GPRESSURE VOLUME PRESSAVG GPRESSAVG
ENERGY: 0 2.5208 4.3539 4.1288 0.0000 -10710.8990 1451.0721 0.0000 0.0000 1696.5088 -7552.3146 291.0747 -9248.8234 -7552.3146 291.0747 -58.1926 27.7865 29962.3832 -58.1926 27.7865
ENERGY: 300000 3.2198 4.5056 3.5313 0.0000 -10711.0693 1531.9077 0.0000 0.0000 1758.0532 -7409.8516 301.6340 -9167.9048 -7463.5721 298.1882 821.8974 969.4632 29702.6886 69.8976 159.6328
ENERGY: 600000 1.3027 5.5067 3.9548 0.0000 -10722.8673 1449.4889 0.0000 0.0000 1726.0677 -7536.5465 296.1462 -9262.6142 -7459.7483 298.0939 317.1723 395.6822 29373.7444 116.1921 204.8642
ENERGY: 900000 1.1510 6.6732 4.1355 0.0000 -10591.7496 1429.1381 0.0000 0.0000 1753.5449 -7397.1068 300.8605 -9150.6517 -7446.7083 299.8147 99.6345 125.4016 30185.7579 111.0590 192.4473
ENERGY: 1200000 4.6389 6.5600 3.7325 0.0000 -10616.8129 1467.8492 0.0000 0.0000 1791.3638 -7342.6686 307.3492 -9134.0324 -7428.3811 300.3901 492.7948 582.5919 29785.3496 91.8548 159.2735
ENERGY: 1500000 2.3480 7.7833 4.2178 0.0000 -10685.3031 1440.1851 0.0000 0.0000 1750.6398 -7480.1291 300.3621 -9230.7689 -7441.0609 299.7949 15.6150 69.2241 29901.4579 79.1889 143.9642
TCL: Exiting due to exit command.
