Info: SIMULATION PARAMETERS:
Info: TIMESTEP               2
Info: NUMBER OF STEPS        0
Info: STEPS PER CYCLE        10
Info: PERIODIC CELL BASIS 1  31.0416 0 0
Info: PERIODIC CELL BASIS 2  0 31.7451 0
Info: PERIODIC CELL BASIS 3  0 0 31.6955
Info: PERIODIC CELL CENTER   0 0 0
Info: WRAPPING WATERS AROUND PERIODIC BOUNDARIES ON OUTPUT.
Info: WRAPPING ALL CLUSTERS AROUND PERIODIC BOUNDARIES ON OUTPUT.
Info: FIRST LDB TIMESTEP     50
Info: LAST LDB TIMESTEP     -1
Info: HOM BACKGROUND SCALING 1
Info: PME BACKGROUND SCALING 1
Info: MIN ATOMS PER PATCH    40
Info: EMPTY PATCH LOAD       40 ATOMS
Info: VELOCITY FILE          mobley_3006808_equil.vel
Info: CENTER OF MASS MOVING INITIALLY? NO
Info: DIELECTRIC             1
Info: EXCLUDE                SCALED ONE-FOUR
Info: 1-4 ELECTROSTATICS SCALED BY 0.833333
Info: MODIFIED 1-4 VDW PARAMETERS WILL BE USED
Info: DCD FILENAME           mobley_3006808_prod.dcd
Info: DCD FREQUENCY          100000
Info: DCD FIRST STEP         100000
Info: DCD FILE WILL CONTAIN UNIT CELL DATA
Info: XST FILENAME           mobley_3006808_prod.xst
Info: XST FREQUENCY          100000
Info: NO VELOCITY DCD OUTPUT
Info: NO FORCE DCD OUTPUT
Info: OUTPUT FILENAME        mobley_3006808_prod
Info: BINARY OUTPUT FILES WILL BE USED
Info: RESTART FILENAME       mobley_3006808_prod.restart
Info: RESTART FREQUENCY      100000
Info: BINARY RESTART FILES WILL BE USED
Info: CUTOFF                 9
Info: PAIRLIST DISTANCE      11
Info: PAIRLIST SHRINK RATE   0.01
Info: PAIRLIST GROW RATE     0.01
Info: PAIRLIST TRIGGER       0.3
Info: PAIRLISTS PER CYCLE    2
Info: PAIRLISTS ENABLED
Info: MARGIN                 2
Info: HYDROGEN GROUP CUTOFF  2.5
Info: PATCH DIMENSION        15.5
Info: ENERGY OUTPUT STEPS    100000
Info: ENERGY EVALUATION STEPS    100000
Info: OUTPUT ENERGY PRECISION 4
Info: CROSSTERM ENERGY INCLUDED IN DIHEDRAL
Info: TIMING OUTPUT STEPS    1000000
Info: PRESSURE OUTPUT STEPS  100000
Info: ALCHEMICAL FEP ON
Info: FEP CURRENT LAMBDA VALUE     1
Info: FEP COMPARISON LAMBDA VALUE  0.95
Info: FEP INTRA-ALCHEMICAL NON-BONDED INTERACTIONS WILL BE RETAINED
Info: FEP INTRA-ALCHEMICAL BONDED INTERACTIONS WILL BE RETAINED
Info: FEP VDW SHIFTING COEFFICIENT 5
Info: FEP ELEC. ACTIVE FOR ANNIHILATED PARTICLES BETWEEN LAMBDA = 0 AND LAMBDA = 0.5
Info: FEP ELEC. ACTIVE FOR EXNIHILATED PARTICLES BETWEEN LAMBDA = 0.5 AND LAMBDA = 1
Info: FEP VDW ACTIVE FOR ANNIHILATED PARTICLES BETWEEN LAMBDA = 0 AND LAMBDA = 1
Info: FEP VDW ACTIVE FOR EXNIHILATED PARTICLES BETWEEN LAMBDA = 0 AND LAMBDA = 1
Info: FEP BOND ACTIVE FOR ANNIHILATED PARTICLES BETWEEN LAMBDA = 1 AND LAMBDA = 1
Info: FEP BOND ACTIVE FOR EXNIHILATED PARTICLES BETWEEN LAMBDA = 0 AND LAMBDA = 0
Info: LANGEVIN DYNAMICS ACTIVE
Info: LANGEVIN TEMPERATURE   300
Info: LANGEVIN USING BBK INTEGRATOR
Info: LANGEVIN DAMPING COEFFICIENT IS 1 INVERSE PS
Info: LANGEVIN DYNAMICS APPLIED TO HYDROGENS
Info: LANGEVIN PISTON PRESSURE CONTROL ACTIVE
Info:        TARGET PRESSURE IS 1.01325 BAR
Info:     OSCILLATION PERIOD IS 50 FS
Info:             DECAY TIME IS 25 FS
Info:     PISTON TEMPERATURE IS 300 K
Info:       PRESSURE CONTROL IS GROUP-BASED
Info:    INITIAL STRAIN RATE IS 0.000372008 0.000372008 0.000372008
Info:       CELL FLUCTUATION IS ISOTROPIC
Info: PARTICLE MESH EWALD (PME) ACTIVE
Info: PME TOLERANCE               1e-06
Info: PME EWALD COEFFICIENT       0.348832
Info: PME INTERPOLATION ORDER     4
Info: PME GRID DIMENSIONS         32 32 32
Info: PME MAXIMUM GRID SPACING    1
Info: PME CALCULATION WILL BE PERFORMED ON GPU
Info: FULL ELECTROSTATIC EVALUATION FREQUENCY      2
Info: USING VERLET I (r-RESPA) MTS SCHEME.
Info: C1 SPLITTING OF LONG RANGE ELECTROSTATICS
Info: PLACING ATOMS IN PATCHES BY HYDROGEN GROUPS
Info: RIGID BONDS TO HYDROGEN : ALL
Info:         ERROR TOLERANCE : 1e-08
Info:          MAX ITERATIONS : 100
Info: RIGID WATER USING SETTLE ALGORITHM
Info: RANDOM NUMBER SEED     1743514060
Info: USE HYDROGEN BONDS?    NO
Info: Using AMBER format force field!
Info: AMBER PARM FILE        mobley_3006808.prmtop
Info: COORDINATE PDB         mobley_3006808.pdb
Info: Exclusions will be read from PARM file!
Info: SCNB (VDW SCALING)     2
Info: USING ARITHMETIC MEAN TO COMBINE L-J SIGMA PARAMETERS
Info: BINARY COORDINATES     mobley_3006808_equil.coor
Info: SUMMARY OF PARAMETERS:
Info: 7 BONDS
Info: 7 ANGLES
Info:   7 HARMONIC
Info:   0 COSINE-BASED
Info: 6 DIHEDRAL
Info: 0 IMPROPER
Info: 0 CROSSTERM
Info: 0 VDW
Info: 21 VDW_PAIRS
Info: 0 NBTHOLE_PAIRS
Info: To read alchdata from file: mobley_3006808.pdb
Info: To read alchflag data from column: 5
Info: STRUCTURE SUMMARY:
Info: 2991 ATOMS
Info: 2990 BONDS
Info: 13 ANGLES
Info: 19 DIHEDRALS
Info: 0 IMPROPERS
Info: 0 CROSSTERMS
Info: 3015 EXCLUSIONS
Info: 2985 RIGID BONDS
Info: ALCH: 0 ATOMS TO DISAPPEAR IN FINAL STATE
Info: ALCH: 9 ATOMS TO APPEAR IN FINAL STATE
Info: 5988 DEGREES OF FREEDOM
Info: 1000 HYDROGEN GROUPS
Info: 3 ATOMS IN LARGEST HYDROGEN GROUP
Info: 1000 MIGRATION GROUPS
Info: 3 ATOMS IN LARGEST MIGRATION GROUP
Info: TOTAL MASS = 18007.9 amu
Info: TOTAL CHARGE = 1.11759e-07 e
Info: MASS DENSITY = 0.957427 g/cm^3
Info: ATOM DENSITY = 0.0957632 atoms/A^3
Info: ADDED 0 IMPLICIT EXCLUSIONS
Info: NONBONDED TABLE R-SQUARED SPACING: 0.0625
Info: NONBONDED TABLE SIZE: 705 POINTS
Info: REDUCING NUMBER OF PATCHES TO IMPROVE LOAD BALANCE
Info: REMOVING COM VELOCITY 0.0679238 -0.35053 -0.16328
Info: Use 3D box decompostion in PME FFT.
Info: Updated CUDA force table with 4096 elements.
Info: Updated CUDA LJ table with 6 x 6 elements.
Info: Found 12 unique exclusion lists needing 16 bytes
TCL: Running for 1500000 steps
ETITLE: TS BOND ANGLE DIHED IMPRP ELECT VDW BOUNDARY MISC KINETIC TOTAL TEMP POTENTIAL TOTALAVG TEMPAVG PRESSURE GPRESSURE VOLUME PRESSAVG GPRESSAVG
ENERGY: 0 3.0991 1.5487 2.0266 0.0000 -10797.5309 1406.7752 0.0000 0.0000 1806.3827 -7577.6986 303.6116 -9384.0813 -7577.6986 303.6116 -652.6215 -556.3118 31233.2932 -652.6215 -556.3118
ENERGY: 300000 0.4597 7.3640 2.2846 0.0000 -10875.9251 1492.3041 0.0000 0.0000 1816.4383 -7557.0744 305.3017 -9373.5127 -7564.9935 304.3397 272.8593 382.2702 30539.8089 -321.7600 -236.6125
ENERGY: 600000 0.4192 2.9804 1.3365 0.0000 -10778.5966 1453.5747 0.0000 0.0000 1785.6850 -7534.6008 300.1328 -9320.2858 -7572.9800 302.7015 291.1270 324.0416 30700.9223 -205.4396 -132.6271
ENERGY: 900000 3.2930 3.6171 1.3846 0.0000 -10804.2173 1442.7771 0.0000 0.0000 1777.7444 -7575.4010 298.7982 -9353.1454 -7575.0470 300.8638 -206.4332 -182.0032 30740.7908 -172.1763 -110.0351
ENERGY: 1200000 0.0557 5.7693 1.6191 0.0000 -10782.6667 1440.7780 0.0000 0.0000 1755.3528 -7579.0918 295.0346 -9334.4446 -7586.0655 300.1170 -257.5138 -228.8275 31227.4659 -263.0524 -199.5892
ENERGY: 1500000 2.0917 4.8770 2.1573 0.0000 -10804.0640 1437.1013 0.0000 0.0000 1741.1616 -7616.6751 292.6494 -9357.8367 -7594.0062 299.1443 -170.8827 -68.7785 30743.5525 -122.1956 -55.5134
TCL: Running FEP window   2: Lambda1 0.95   Lambda2 0.8999999999999999 [dLambda -0.050000000000000044]
TCL: Setting parameter firsttimestep to 0
TCL: Setting parameter alchLambda to 0.95
Info: NONBONDED TABLE R-SQUARED SPACING: 0.0625
Info: NONBONDED TABLE SIZE: 705 POINTS
TCL: Setting parameter alchLambda2 to 0.8999999999999999
Info: NONBONDED TABLE R-SQUARED SPACING: 0.0625
Info: NONBONDED TABLE SIZE: 705 POINTS
TCL: Running for 1500000 steps
ETITLE: TS BOND ANGLE DIHED IMPRP ELECT VDW BOUNDARY MISC KINETIC TOTAL TEMP POTENTIAL TOTALAVG TEMPAVG PRESSURE GPRESSURE VOLUME PRESSAVG GPRESSAVG
ENERGY: 0 2.0917 4.8770 2.1573 0.0000 -10802.2949 1435.7461 0.0000 0.0000 1740.2621 -7617.1607 292.4982 -9357.4228 -7617.1607 292.4982 -163.4046 -88.7538 30743.5525 -163.4046 -88.7538
ENERGY: 300000 0.8948 3.8123 2.7795 0.0000 -10829.3253 1447.4059 0.0000 0.0000 1780.8661 -7593.5668 299.3228 -9374.4329 -7572.5527 301.0210 -392.2546 -267.4198 31270.6521 -269.6266 -197.4730
ENERGY: 600000 1.8984 6.5979 1.5811 0.0000 -10894.4620 1496.8148 0.0000 0.0000 1726.6745 -7660.8954 290.2145 -9387.5699 -7582.5815 299.8611 197.1233 214.7274 30828.3077 -114.3594 -64.5877
ENERGY: 900000 1.6535 2.3819 1.5854 0.0000 -10842.8204 1475.4767 0.0000 0.0000 1816.1671 -7545.5557 305.2561 -9361.7228 -7584.5348 300.1501 163.3884 180.5691 30862.6120 -48.6078 1.3193
ENERGY: 1200000 3.8842 5.7540 1.3688 0.0000 -10733.4504 1397.8813 0.0000 0.0000 1788.6416 -7535.9206 300.6297 -9324.5622 -7581.0793 300.9999 -405.8808 -372.4286 30783.2258 -10.3737 44.5615
ENERGY: 1500000 0.9424 3.7056 1.9272 0.0000 -10731.9598 1358.2140 0.0000 0.0000 1826.5485 -7540.6220 307.0010 -9367.1705 -7582.1393 300.6644 -967.0115 -890.0911 31303.9225 -122.8356 -68.1748
TCL: Running FEP window   3: Lambda1 0.8999999999999999 Lambda2 0.8499999999999999 [dLambda -0.050000000000000044]
TCL: Setting parameter firsttimestep to 0
TCL: Setting parameter alchLambda to 0.8999999999999999
Info: NONBONDED TABLE R-SQUARED SPACING: 0.0625
Info: NONBONDED TABLE SIZE: 705 POINTS
TCL: Setting parameter alchLambda2 to 0.8499999999999999
Info: NONBONDED TABLE R-SQUARED SPACING: 0.0625
Info: NONBONDED TABLE SIZE: 705 POINTS
TCL: Running for 1500000 steps
ETITLE: TS BOND ANGLE DIHED IMPRP ELECT VDW BOUNDARY MISC KINETIC TOTAL TEMP POTENTIAL TOTALAVG TEMPAVG PRESSURE GPRESSURE VOLUME PRESSAVG GPRESSAVG
ENERGY: 0 0.9424 3.7056 1.9272 0.0000 -10731.0330 1358.0290 0.0000 0.0000 1825.6044 -7540.8244 306.8423 -9366.4288 -7540.8244 306.8423 -982.0973 -899.0670 31303.9225 -982.0973 -899.0670
ENERGY: 300000 1.1315 4.4293 1.6584 0.0000 -10720.2740 1401.8248 0.0000 0.0000 1830.2220 -7481.0080 307.6184 -9311.2300 -7492.3431 305.4844 -561.5535 -503.4142 31218.7744 -453.0088 -399.4931
ENERGY: 600000 1.2931 5.6177 1.4342 0.0000 -10989.1601 1611.4108 0.0000 0.0000 1863.3726 -7506.0317 313.1903 -9369.4043 -7529.2557 304.7588 1564.4911 1534.4938 30371.8730 -67.5561 -21.6093
ENERGY: 900000 0.9977 5.6330 2.1275 0.0000 -10850.5691 1528.1353 0.0000 0.0000 1775.5898 -7538.0858 298.4360 -9313.6756 -7538.9769 303.4083 660.4787 718.2109 30710.3948 97.7289 141.4710
ENERGY: 1200000 2.1323 3.4377 1.5162 0.0000 -10902.5483 1519.1960 0.0000 0.0000 1803.4668 -7572.7994 303.1215 -9376.2662 -7559.6973 302.5939 308.5482 378.3139 30878.0645 132.3756 187.2406
ENERGY: 1500000 2.8503 7.6971 2.3807 0.0000 -10800.4919 1419.2350 0.0000 0.0000 1812.9965 -7555.3324 304.7232 -9368.3288 -7559.3676 301.5908 -384.2415 -318.1516 31038.5235 31.8870 95.1341
TCL: Running FEP window   4: Lambda1 0.8499999999999999 Lambda2 0.7999999999999998 [dLambda -0.050000000000000044]
TCL: Setting parameter firsttimestep to 0
TCL: Setting parameter alchLambda to 0.8499999999999999
Info: NONBONDED TABLE R-SQUARED SPACING: 0.0625
Info: NONBONDED TABLE SIZE: 705 POINTS
TCL: Setting parameter alchLambda2 to 0.7999999999999998
Info: NONBONDED TABLE R-SQUARED SPACING: 0.0625
Info: NONBONDED TABLE SIZE: 705 POINTS
TCL: Running for 1500000 steps
ETITLE: TS BOND ANGLE DIHED IMPRP ELECT VDW BOUNDARY MISC KINETIC TOTAL TEMP POTENTIAL TOTALAVG TEMPAVG PRESSURE GPRESSURE VOLUME PRESSAVG GPRESSAVG
ENERGY: 0 2.8503 7.6971 2.3807 0.0000 -10799.0936 1418.5177 0.0000 0.0000 1812.0848 -7555.5629 304.5700 -9367.6478 -7555.5629 304.5700 -397.0099 -327.6501 31038.5235 -397.0099 -327.6501
ENERGY: 300000 1.2088 2.7498 1.5306 0.0000 -10868.5978 1508.2217 0.0000 0.0000 1808.3165 -7546.5704 303.9366 -9354.8869 -7555.1453 303.2670 750.2491 762.1908 30378.0124 -298.7284 -259.8791
ENERGY: 600000 1.4786 2.1806 2.0000 0.0000 -10952.5975 1536.1223 0.0000 0.0000 1792.1585 -7618.6575 301.2208 -9410.8160 -7563.9013 302.6363 284.6343 354.3382 30998.7729 -123.2071 -82.0310
ENERGY: 900000 0.1216 2.9088 1.7364 0.0000 -10933.1072 1521.2838 0.0000 0.0000 1792.4188 -7614.6378 301.2646 -9407.0566 -7562.3534 303.4887 411.1165 456.2662 30742.6346 -114.6460 -74.2280
ENERGY: 1200000 0.6738 3.2110 1.3241 0.0000 -10824.4334 1466.2388 0.0000 0.0000 1776.6630 -7576.3226 298.6164 -9352.9856 -7551.9936 303.0876 24.7370 82.5190 30893.3825 -31.8392 12.1780
ENERGY: 1500000 2.4925 3.7850 2.6021 0.0000 -10957.0381 1528.9575 0.0000 0.0000 1769.7404 -7649.4605 297.4529 -9419.2010 -7552.4831 303.2889 275.8159 375.9885 30620.2976 -13.1069 38.8313
TCL: Running FEP window   5: Lambda1 0.7999999999999998 Lambda2 0.7499999999999998 [dLambda -0.050000000000000044]
TCL: Setting parameter firsttimestep to 0
TCL: Setting parameter alchLambda to 0.7999999999999998
Info: NONBONDED TABLE R-SQUARED SPACING: 0.0625
Info: NONBONDED TABLE SIZE: 705 POINTS
TCL: Setting parameter alchLambda2 to 0.7499999999999998
Info: NONBONDED TABLE R-SQUARED SPACING: 0.0625
Info: NONBONDED TABLE SIZE: 705 POINTS
TCL: Running for 1500000 steps
ETITLE: TS BOND ANGLE DIHED IMPRP ELECT VDW BOUNDARY MISC KINETIC TOTAL TEMP POTENTIAL TOTALAVG TEMPAVG PRESSURE GPRESSURE VOLUME PRESSAVG GPRESSAVG
ENERGY: 0 2.4925 3.7850 2.6021 0.0000 -10955.2645 1528.0318 0.0000 0.0000 1768.8519 -7649.5011 297.3035 -9418.3531 -7649.5011 297.3035 271.7256 362.8965 30620.2976 271.7256 362.8965
ENERGY: 300000 1.7622 7.7875 1.5796 0.0000 -10805.5424 1406.4564 0.0000 0.0000 1775.1734 -7612.7832 298.3660 -9387.9566 -7635.8428 298.4657 -304.5728 -224.6137 30297.1565 -128.8532 -75.7544
ENERGY: 600000 0.4662 6.4283 2.3014 0.0000 -10866.5195 1516.3019 0.0000 0.0000 1796.4503 -7544.5712 301.9422 -9341.0216 -7604.6447 297.1498 641.2015 702.1345 30414.2528 -119.1484 -76.5434
ENERGY: 900000 0.4645 3.5112 1.6636 0.0000 -10747.1683 1408.6873 0.0000 0.0000 1788.8680 -7543.9738 300.6678 -9332.8417 -7589.2587 297.3653 -153.8209 -107.0405 30676.9630 -15.4022 26.6742
ENERGY: 1200000 1.7550 3.3381 1.8276 0.0000 -10837.6020 1481.9740 0.0000 0.0000 1835.4702 -7513.2371 308.5005 -9348.7072 -7579.7738 298.4870 40.3863 105.2698 31212.9637 76.8559 126.0564
ENERGY: 1500000 4.4654 1.7851 1.5032 0.0000 -10767.6822 1417.8807 0.0000 0.0000 1765.1571 -7576.8908 296.6825 -9342.0479 -7582.2472 298.2880 -481.6691 -431.0890 31265.1629 107.5125 157.8614
TCL: Running FEP window   6: Lambda1 0.7499999999999998 Lambda2 0.6999999999999997 [dLambda -0.050000000000000044]
TCL: Setting parameter firsttimestep to 0
TCL: Setting parameter alchLambda to 0.7499999999999998
Info: NONBONDED TABLE R-SQUARED SPACING: 0.0625
Info: NONBONDED TABLE SIZE: 705 POINTS
TCL: Setting parameter alchLambda2 to 0.6999999999999997
Info: NONBONDED TABLE R-SQUARED SPACING: 0.0625
Info: NONBONDED TABLE SIZE: 705 POINTS
TCL: Running for 1500000 steps
ETITLE: TS BOND ANGLE DIHED IMPRP ELECT VDW BOUNDARY MISC KINETIC TOTAL TEMP POTENTIAL TOTALAVG TEMPAVG PRESSURE GPRESSURE VOLUME PRESSAVG GPRESSAVG
ENERGY: 0 4.4654 1.7851 1.5032 0.0000 -10766.9247 1418.0147 0.0000 0.0000 1764.2459 -7576.9104 296.5294 -9341.1563 -7576.9104 296.5294 -495.8284 -428.9577 31265.1629 -495.8284 -428.9577
ENERGY: 300000 3.9483 4.0722 1.6475 0.0000 -10839.5701 1465.5901 0.0000 0.0000 1785.2359 -7579.0763 300.0573 -9364.3121 -7596.6683 297.4245 112.1428 190.0620 30573.1731 -291.8944 -218.0259
ENERGY: 600000 1.9854 4.0664 1.8759 0.0000 -10800.6760 1457.7435 0.0000 0.0000 1807.3119 -7527.6928 303.7678 -9335.0048 -7589.4296 299.9664 72.3286 153.5435 30575.7207 -43.6501 26.1382
ENERGY: 900000 1.1626 2.8481 1.7629 0.0000 -10880.0085 1605.4714 0.0000 0.0000 1745.2306 -7523.5329 293.3333 -9268.7635 -7575.9286 299.5577 1494.7483 1548.0656 30415.1530 33.3522 111.6468
ENERGY: 1200000 1.1402 2.9568 2.1105 0.0000 -10708.8712 1383.9186 0.0000 0.0000 1833.6962 -7485.0489 308.2024 -9318.7451 -7562.1426 300.7476 -508.8762 -418.4860 30781.7967 -48.5403 28.4448
ENERGY: 1500000 0.2601 1.7722 2.0092 0.0000 -10847.6168 1465.3683 0.0000 0.0000 1776.4289 -7601.7781 298.5771 -9378.2070 -7560.4126 300.3136 -32.3107 -16.5493 30814.4319 -68.9290 -1.1617
TCL: Running FEP window   7: Lambda1 0.6999999999999997 Lambda2 0.6499999999999997 [dLambda -0.050000000000000044]
TCL: Setting parameter firsttimestep to 0
TCL: Setting parameter alchLambda to 0.6999999999999997
Info: NONBONDED TABLE R-SQUARED SPACING: 0.0625
Info: NONBONDED TABLE SIZE: 705 POINTS
TCL: Setting parameter alchLambda2 to 0.6499999999999997
Info: NONBONDED TABLE R-SQUARED SPACING: 0.0625
Info: NONBONDED TABLE SIZE: 705 POINTS
TCL: Running for 1500000 steps
ETITLE: TS BOND ANGLE DIHED IMPRP ELECT VDW BOUNDARY MISC KINETIC TOTAL TEMP POTENTIAL TOTALAVG TEMPAVG PRESSURE GPRESSURE VOLUME PRESSAVG GPRESSAVG
ENERGY: 0 0.2601 1.7722 2.0092 0.0000 -10845.9540 1464.8285 0.0000 0.0000 1775.5369 -7601.5470 298.4271 -9377.0840 -7601.5470 298.4271 -103.4747 -23.5475 30814.4319 -103.4747 -23.5475
ENERGY: 300000 2.5582 5.9771 2.5992 0.0000 -10651.5325 1400.9682 0.0000 0.0000 1794.0759 -7445.3538 301.5431 -9239.4297 -7564.0153 300.5939 -296.6312 -211.4760 31076.3132 -347.6112 -275.4002
ENERGY: 600000 1.3972 2.8734 1.9017 0.0000 -10800.5393 1452.9793 0.0000 0.0000 1789.0778 -7552.3099 300.7030 -9341.3877 -7580.1430 299.5009 42.7508 37.6068 31111.1606 -47.7942 4.5621
ENERGY: 900000 2.3746 2.9077 2.3493 0.0000 -10611.2903 1417.1632 0.0000 0.0000 1772.0418 -7414.4538 297.8397 -9186.4956 -7549.3298 300.6924 89.6398 116.0543 30987.7208 20.6587 72.2767
ENERGY: 1200000 2.9483 2.7899 2.4398 0.0000 -10741.8214 1376.7988 0.0000 0.0000 1779.1968 -7577.6478 299.0423 -9356.8446 -7558.0769 299.7674 -575.6639 -482.5003 30768.3570 -44.9936 11.8523
ENERGY: 1500000 2.3263 2.6955 2.2563 0.0000 -10803.3000 1443.3904 0.0000 0.0000 1784.2009 -7568.4306 299.8833 -9352.6315 -7560.6056 300.3664 -185.2513 -127.5336 30982.3102 65.1512 115.4110
TCL: Running FEP window   8: Lambda1 0.6499999999999997 Lambda2 0.5999999999999996 [dLambda -0.050000000000000044]
TCL: Setting parameter firsttimestep to 0
TCL: Setting parameter alchLambda to 0.6499999999999997
Info: NONBONDED TABLE R-SQUARED SPACING: 0.0625
Info: NONBONDED TABLE SIZE: 705 POINTS
TCL: Setting parameter alchLambda2 to 0.5999999999999996
Info: NONBONDED TABLE R-SQUARED SPACING: 0.0625
Info: NONBONDED TABLE SIZE: 705 POINTS
TCL: Running for 1500000 steps
ETITLE: TS BOND ANGLE DIHED IMPRP ELECT VDW BOUNDARY MISC KINETIC TOTAL TEMP POTENTIAL TOTALAVG TEMPAVG PRESSURE GPRESSURE VOLUME PRESSAVG GPRESSAVG
ENERGY: 0 2.3263 2.6955 2.2563 0.0000 -10801.9793 1443.3114 0.0000 0.0000 1783.3012 -7568.0886 299.7321 -9351.3898 -7568.0886 299.7321 -215.8335 -130.1494 30982.3102 -215.8335 -130.1494
ENERGY: 300000 1.5171 2.2032 2.7704 0.0000 -10830.0179 1497.6245 0.0000 0.0000 1749.2128 -7576.6899 294.0026 -9325.9027 -7605.3570 294.8968 150.0580 245.2903 31124.1147 226.3207 304.6834
ENERGY: 600000 2.7609 3.3385 2.2332 0.0000 -10768.6205 1356.2068 0.0000 0.0000 1734.1785 -7669.9026 291.4757 -9404.0811 -7597.3005 297.4222 -1114.4882 -1085.0885 31066.7709 77.0268 142.0937
ENERGY: 900000 0.7513 3.2079 2.2514 0.0000 -10645.7691 1364.9444 0.0000 0.0000 1754.6814 -7519.9327 294.9218 -9274.6141 -7571.3383 298.5404 -823.0561 -704.6182 31264.5902 -43.7027 28.9036
ENERGY: 1200000 1.7170 3.8125 1.8776 0.0000 -10913.5582 1532.6427 0.0000 0.0000 1764.4311 -7609.0773 296.5605 -9373.5083 -7572.5010 298.1350 622.3762 683.6700 30482.8508 7.9810 86.3600
ENERGY: 1500000 1.0414 6.5876 2.4826 0.0000 -10816.1604 1432.6501 0.0000 0.0000 1766.4401 -7606.9586 296.8982 -9373.3987 -7567.0265 297.8981 25.6761 76.7157 30551.2405 -81.3293 -14.4633
TCL: Running FEP window   9: Lambda1 0.5999999999999996 Lambda2 0.5499999999999996 [dLambda -0.050000000000000044]
TCL: Setting parameter firsttimestep to 0
TCL: Setting parameter alchLambda to 0.5999999999999996
Info: NONBONDED TABLE R-SQUARED SPACING: 0.0625
Info: NONBONDED TABLE SIZE: 705 POINTS
TCL: Setting parameter alchLambda2 to 0.5499999999999996
Info: NONBONDED TABLE R-SQUARED SPACING: 0.0625
Info: NONBONDED TABLE SIZE: 705 POINTS
TCL: Running for 1500000 steps
ETITLE: TS BOND ANGLE DIHED IMPRP ELECT VDW BOUNDARY MISC KINETIC TOTAL TEMP POTENTIAL TOTALAVG TEMPAVG PRESSURE GPRESSURE VOLUME PRESSAVG GPRESSAVG
ENERGY: 0 1.0414 6.5876 2.4826 0.0000 -10815.8639 1432.1815 0.0000 0.0000 1765.5526 -7608.0181 296.7490 -9373.5707 -7608.0181 296.7490 -11.8733 68.1788 30551.2405 -11.8733 68.1788
ENERGY: 300000 1.4931 4.6674 2.2450 0.0000 -10801.9059 1476.3719 0.0000 0.0000 1732.4847 -7584.6439 291.1910 -9317.1286 -7610.8098 296.6451 139.6350 170.6155 30891.6349 201.4251 274.6094
ENERGY: 600000 2.4088 3.4856 2.0724 0.0000 -10803.4910 1412.7999 0.0000 0.0000 1779.4965 -7603.2279 299.0926 -9382.7243 -7602.2157 298.5549 -501.9388 -440.9833 30714.9488 80.5890 142.3366
ENERGY: 900000 0.6959 1.6069 2.1778 0.0000 -10791.6274 1435.9926 0.0000 0.0000 1778.7196 -7572.4346 298.9621 -9351.1542 -7585.4742 299.5056 -278.0592 -177.1972 30818.9237 -35.6334 29.9050
ENERGY: 1200000 2.7389 4.5253 1.5694 0.0000 -10893.3194 1497.3929 0.0000 0.0000 1785.4141 -7601.6787 300.0873 -9387.0928 -7581.1071 300.9873 541.4200 538.8600 30446.9672 -13.8496 48.2801
ENERGY: 1500000 1.5931 2.5536 2.2988 0.0000 -10892.5994 1477.4006 0.0000 0.0000 1852.4945 -7556.2588 311.3619 -9408.7532 -7583.2023 300.6541 -336.2045 -278.9274 31419.0506 -61.3451 2.4327
TCL: Running FEP window  10: Lambda1 0.5499999999999996 Lambda2 0.4999999999999996 [dLambda -0.04999999999999999]
TCL: Setting parameter firsttimestep to 0
TCL: Setting parameter alchLambda to 0.5499999999999996
Info: NONBONDED TABLE R-SQUARED SPACING: 0.0625
Info: NONBONDED TABLE SIZE: 705 POINTS
TCL: Setting parameter alchLambda2 to 0.4999999999999996
Info: NONBONDED TABLE R-SQUARED SPACING: 0.0625
Info: NONBONDED TABLE SIZE: 705 POINTS
TCL: Running for 1500000 steps
ETITLE: TS BOND ANGLE DIHED IMPRP ELECT VDW BOUNDARY MISC KINETIC TOTAL TEMP POTENTIAL TOTALAVG TEMPAVG PRESSURE GPRESSURE VOLUME PRESSAVG GPRESSAVG
ENERGY: 0 1.5931 2.5536 2.2988 0.0000 -10891.5230 1476.6782 0.0000 0.0000 1851.5729 -7556.8263 311.2070 -9408.3992 -7556.8263 311.2070 -365.9513 -285.3556 31419.0506 -365.9513 -285.3556
ENERGY: 300000 1.8738 8.2479 3.2793 0.0000 -10785.1686 1436.0989 0.0000 0.0000 1691.0450 -7644.6238 284.2260 -9335.6687 -7563.4371 299.3195 -350.8586 -320.8162 30948.1772 -141.6742 -83.3834
ENERGY: 600000 0.3760 4.0567 1.7178 0.0000 -10781.5469 1428.6797 0.0000 0.0000 1763.3292 -7583.3876 296.3753 -9346.7167 -7577.7822 299.4737 -75.3769 -46.9199 30595.0402 -80.8841 -20.1625
ENERGY: 900000 1.6432 3.1873 1.6004 0.0000 -10790.1532 1421.0435 0.0000 0.0000 1768.8855 -7593.7934 297.3092 -9362.6788 -7570.4732 299.7695 -252.3893 -158.5922 30689.2193 -72.7128 -17.7063
ENERGY: 1200000 2.3601 1.5351 3.4052 0.0000 -10799.5435 1431.2158 0.0000 0.0000 1830.8259 -7530.2015 307.7199 -9361.0273 -7577.9745 299.1587 -445.8123 -424.8368 31119.3342 -52.0740 -2.3734
ENERGY: 1500000 0.8882 2.2131 1.7362 0.0000 -10792.4099 1415.1528 0.0000 0.0000 1796.2541 -7576.1655 301.9092 -9372.4196 -7566.1317 300.2600 -622.9300 -494.8172 31202.7310 -129.3096 -71.3913
TCL: Running FEP window  11: Lambda1 0.4999999999999996 Lambda2 0.4499999999999996 [dLambda -0.04999999999999999]
TCL: Setting parameter firsttimestep to 0
TCL: Setting parameter alchLambda to 0.4999999999999996
Info: NONBONDED TABLE R-SQUARED SPACING: 0.0625
Info: NONBONDED TABLE SIZE: 705 POINTS
TCL: Setting parameter alchLambda2 to 0.4499999999999996
Info: NONBONDED TABLE R-SQUARED SPACING: 0.0625
Info: NONBONDED TABLE SIZE: 705 POINTS
TCL: Running for 1500000 steps
ETITLE: TS BOND ANGLE DIHED IMPRP ELECT VDW BOUNDARY MISC KINETIC TOTAL TEMP POTENTIAL TOTALAVG TEMPAVG PRESSURE GPRESSURE VOLUME PRESSAVG GPRESSAVG
ENERGY: 0 0.8882 2.2131 1.7362 0.0000 -10792.3872 1415.1817 0.0000 0.0000 1795.3828 -7576.9853 301.7628 -9372.3680 -7576.9853 301.7628 -587.1928 -499.4609 31202.7310 -587.1928 -499.4609
ENERGY: 300000 0.9377 3.4161 2.1347 0.0000 -10718.1082 1407.0621 0.0000 0.0000 1774.0909 -7530.4667 298.1841 -9304.5576 -7608.5789 299.1896 -131.2871 -68.5419 30541.7316 -224.5678 -171.7105
ENERGY: 600000 0.8261 3.9549 1.8354 0.0000 -10752.7359 1402.8742 0.0000 0.0000 1814.0274 -7529.2179 304.8965 -9343.2453 -7607.5256 299.6670 -267.0635 -239.2438 30590.7826 -228.5082 -184.2944
ENERGY: 900000 1.6398 4.9277 2.1474 0.0000 -10856.0684 1458.7025 0.0000 0.0000 1792.4104 -7596.2407 301.2632 -9388.6511 -7602.0301 300.1684 9.4838 60.7335 30659.7353 -188.4529 -138.6293
ENERGY: 1200000 1.7377 3.9736 2.1288 0.0000 -10958.7039 1536.5348 0.0000 0.0000 1795.6956 -7618.6334 301.8153 -9414.3290 -7609.9673 299.3678 186.9301 307.9051 30771.9142 -127.3924 -79.5899
ENERGY: 1500000 0.7053 2.2763 1.5429 0.0000 -10813.7137 1465.3865 0.0000 0.0000 1755.7998 -7588.0029 295.1098 -9343.8027 -7608.2471 298.7474 -119.8381 -93.7456 30996.2454 -63.4161 -11.7371
TCL: Running FEP window  12: Lambda1 0.4499999999999996 Lambda2 0.39999999999999963 [dLambda -0.04999999999999999]
TCL: Setting parameter firsttimestep to 0
TCL: Setting parameter alchLambda to 0.4499999999999996
Info: NONBONDED TABLE R-SQUARED SPACING: 0.0625
Info: NONBONDED TABLE SIZE: 705 POINTS
TCL: Setting parameter alchLambda2 to 0.39999999999999963
Info: NONBONDED TABLE R-SQUARED SPACING: 0.0625
Info: NONBONDED TABLE SIZE: 705 POINTS
TCL: Running for 1500000 steps
ETITLE: TS BOND ANGLE DIHED IMPRP ELECT VDW BOUNDARY MISC KINETIC TOTAL TEMP POTENTIAL TOTALAVG TEMPAVG PRESSURE GPRESSURE VOLUME PRESSAVG GPRESSAVG
ENERGY: 0 0.7053 2.2763 1.5429 0.0000 -10813.7139 1465.0921 0.0000 0.0000 1754.9127 -7589.1845 294.9607 -9344.0972 -7589.1845 294.9607 -171.9075 -97.6615 30996.2454 -171.9075 -97.6615
ENERGY: 300000 0.8066 2.7539 2.1559 0.0000 -10933.4921 1503.4019 0.0000 0.0000 1839.6240 -7584.7497 309.1987 -9424.3737 -7574.3211 301.4305 -157.9479 -39.4837 31101.2310 -34.0826 10.4565
ENERGY: 600000 1.4312 3.8537 1.7791 0.0000 -10863.5518 1527.6412 0.0000 0.0000 1790.7673 -7538.0793 300.9870 -9328.8466 -7551.0896 301.2327 814.9066 855.4653 30576.2235 225.2552 259.9541
ENERGY: 900000 3.5414 6.5910 1.3610 0.0000 -10786.5121 1415.7835 0.0000 0.0000 1750.4835 -7608.7516 294.2162 -9359.2351 -7546.2703 301.0258 -254.6382 -238.6895 30556.7335 177.5702 211.2001
ENERGY: 1200000 0.9092 3.1463 1.9560 0.0000 -10933.4419 1527.6695 0.0000 0.0000 1752.5106 -7647.2502 294.5569 -9399.7609 -7561.0449 298.6381 334.2387 429.7220 30804.1658 127.7927 171.3179
ENERGY: 1500000 0.3360 2.3674 2.2208 0.0000 -10841.5212 1486.4865 0.0000 0.0000 1779.4485 -7570.6620 299.0846 -9350.1105 -7564.2106 299.2740 295.7838 320.5977 30446.4056 154.8122 192.9347
TCL: Running FEP window  13: Lambda1 0.39999999999999963 Lambda2 0.34999999999999964 [dLambda -0.04999999999999999]
TCL: Setting parameter firsttimestep to 0
TCL: Setting parameter alchLambda to 0.39999999999999963
Info: NONBONDED TABLE R-SQUARED SPACING: 0.0625
Info: NONBONDED TABLE SIZE: 705 POINTS
TCL: Setting parameter alchLambda2 to 0.34999999999999964
Info: NONBONDED TABLE R-SQUARED SPACING: 0.0625
Info: NONBONDED TABLE SIZE: 705 POINTS
TCL: Running for 1500000 steps
ETITLE: TS BOND ANGLE DIHED IMPRP ELECT VDW BOUNDARY MISC KINETIC TOTAL TEMP POTENTIAL TOTALAVG TEMPAVG PRESSURE GPRESSURE VOLUME PRESSAVG GPRESSAVG
ENERGY: 0 0.3360 2.3674 2.2208 0.0000 -10841.5208 1486.5748 0.0000 0.0000 1778.5592 -7571.4627 298.9351 -9350.0218 -7571.4627 298.9351 231.4680 321.5956 30446.4056 231.4680 321.5956
ENERGY: 300000 3.7365 6.3476 1.8076 0.0000 -10848.3034 1454.4907 0.0000 0.0000 1783.3914 -7598.5296 299.7473 -9381.9210 -7587.5865 300.0350 -293.3439 -224.8134 30973.2823 -28.1063 42.0928
ENERGY: 600000 0.6377 4.4221 1.7785 0.0000 -10799.9918 1440.3267 0.0000 0.0000 1772.9039 -7579.9229 297.9846 -9352.8268 -7593.3290 299.1161 -186.6118 -160.4123 30784.8738 -131.2623 -56.3275
ENERGY: 900000 2.8939 6.5130 1.8763 0.0000 -10931.7378 1548.9316 0.0000 0.0000 1816.9797 -7554.5433 305.3927 -9371.5230 -7591.6339 299.0959 784.4822 782.2467 30465.9594 14.9050 80.0630
ENERGY: 1200000 1.0214 2.7438 2.0137 0.0000 -10841.7087 1411.4674 0.0000 0.0000 1760.1034 -7664.3589 295.8331 -9424.4624 -7596.6574 299.5394 -716.4976 -583.5900 30910.6850 -27.4908 37.9427
ENERGY: 1500000 1.0387 5.8834 2.1169 0.0000 -10910.8174 1494.2597 0.0000 0.0000 1735.4809 -7672.0379 291.6946 -9407.5188 -7590.2060 298.7256 249.5243 256.9519 30611.1263 -8.0883 53.8972
TCL: Running FEP window  14: Lambda1 0.34999999999999964 Lambda2 0.29999999999999966 [dLambda -0.04999999999999999]
TCL: Setting parameter firsttimestep to 0
TCL: Setting parameter alchLambda to 0.34999999999999964
Info: NONBONDED TABLE R-SQUARED SPACING: 0.0625
Info: NONBONDED TABLE SIZE: 705 POINTS
TCL: Setting parameter alchLambda2 to 0.29999999999999966
Info: NONBONDED TABLE R-SQUARED SPACING: 0.0625
Info: NONBONDED TABLE SIZE: 705 POINTS
TCL: Running for 1500000 steps
ETITLE: TS BOND ANGLE DIHED IMPRP ELECT VDW BOUNDARY MISC KINETIC TOTAL TEMP POTENTIAL TOTALAVG TEMPAVG PRESSURE GPRESSURE VOLUME PRESSAVG GPRESSAVG
ENERGY: 0 1.0387 5.8834 2.1169 0.0000 -10910.8166 1494.3685 0.0000 0.0000 1734.5773 -7672.8319 291.5428 -9407.4092 -7672.8319 291.5428 161.8229 251.5196 30611.1263 161.8229 251.5196
ENERGY: 300000 1.9380 2.6363 2.5880 0.0000 -10761.1491 1360.3030 0.0000 0.0000 1765.8221 -7627.8617 296.7943 -9393.6839 -7624.9467 298.3323 -970.8072 -893.5846 30792.4808 -107.0911 -42.7634
ENERGY: 600000 2.8123 2.0210 2.4273 0.0000 -10886.6288 1504.1841 0.0000 0.0000 1758.8621 -7616.3219 295.6245 -9375.1840 -7614.6579 297.6616 329.4681 397.6220 30562.0229 -50.6583 9.5641
ENERGY: 900000 3.1761 3.4469 1.5845 0.0000 -10818.6264 1454.7834 0.0000 0.0000 1772.6348 -7583.0007 297.9393 -9355.6355 -7605.5726 297.5398 -156.3510 -88.4536 30733.4720 -79.1361 -22.8989
ENERGY: 1200000 0.3775 1.9571 2.2578 0.0000 -10743.9958 1455.0032 0.0000 0.0000 1769.6841 -7514.7162 297.4434 -9284.4003 -7584.8060 298.0877 4.8248 77.2381 31044.1851 -17.2901 37.4271
ENERGY: 1500000 2.7091 4.8832 1.6454 0.0000 -10928.3081 1456.2602 0.0000 0.0000 1770.3087 -7692.5014 297.5484 -9462.8101 -7589.7325 298.5276 -186.3859 -76.5819 30478.9699 -71.9900 -14.3851
TCL: Running FEP window  15: Lambda1 0.29999999999999966 Lambda2 0.24999999999999967 [dLambda -0.04999999999999999]
TCL: Setting parameter firsttimestep to 0
TCL: Setting parameter alchLambda to 0.29999999999999966
Info: NONBONDED TABLE R-SQUARED SPACING: 0.0625
Info: NONBONDED TABLE SIZE: 705 POINTS
TCL: Setting parameter alchLambda2 to 0.24999999999999967
Info: NONBONDED TABLE R-SQUARED SPACING: 0.0625
Info: NONBONDED TABLE SIZE: 705 POINTS
TCL: Running for 1500000 steps
ETITLE: TS BOND ANGLE DIHED IMPRP ELECT VDW BOUNDARY MISC KINETIC TOTAL TEMP POTENTIAL TOTALAVG TEMPAVG PRESSURE GPRESSURE VOLUME PRESSAVG GPRESSAVG
ENERGY: 0 2.7091 4.8832 1.6454 0.0000 -10928.3075 1456.6030 0.0000 0.0000 1769.4093 -7693.0575 297.3972 -9462.4668 -7693.0575 297.3972 -158.5397 -77.7671 30478.9699 -158.5397 -77.7671
ENERGY: 300000 0.9171 4.3536 2.0176 0.0000 -11039.8826 1555.0478 0.0000 0.0000 1776.8454 -7700.7011 298.6471 -9477.5465 -7648.4325 300.3685 698.4645 725.8402 30123.2450 398.9389 458.6662
ENERGY: 600000 1.4571 6.3411 3.5040 0.0000 -10768.5158 1370.0534 0.0000 0.0000 1760.8420 -7626.3183 295.9572 -9387.1602 -7621.9291 299.9203 -766.3474 -681.1612 30802.5332 76.4452 140.8760
ENERGY: 900000 1.0300 3.1453 3.1044 0.0000 -10962.7450 1544.8805 0.0000 0.0000 1718.8459 -7691.7390 288.8987 -9410.5849 -7632.7469 298.8802 427.5263 449.8657 30692.9768 -50.9485 18.2357
ENERGY: 1200000 0.3995 2.6034 2.3313 0.0000 -10914.7259 1453.0438 0.0000 0.0000 1797.5772 -7658.7707 302.1316 -9456.3479 -7639.9330 297.9337 -556.1418 -481.8841 30933.3301 -101.1580 -32.2462
ENERGY: 1500000 0.8923 5.0608 2.3524 0.0000 -10805.0562 1437.4950 0.0000 0.0000 1811.6882 -7547.5676 304.5033 -9359.2558 -7625.3758 298.5975 -193.3168 -102.7554 30690.6429 -18.7312 49.6371
TCL: Running FEP window  16: Lambda1 0.24999999999999967 Lambda2 0.19999999999999968 [dLambda -0.04999999999999999]
TCL: Setting parameter firsttimestep to 0
TCL: Setting parameter alchLambda to 0.24999999999999967
Info: NONBONDED TABLE R-SQUARED SPACING: 0.0625
Info: NONBONDED TABLE SIZE: 705 POINTS
TCL: Setting parameter alchLambda2 to 0.19999999999999968
Info: NONBONDED TABLE R-SQUARED SPACING: 0.0625
Info: NONBONDED TABLE SIZE: 705 POINTS
TCL: Running for 1500000 steps
ETITLE: TS BOND ANGLE DIHED IMPRP ELECT VDW BOUNDARY MISC KINETIC TOTAL TEMP POTENTIAL TOTALAVG TEMPAVG PRESSURE GPRESSURE VOLUME PRESSAVG GPRESSAVG
ENERGY: 0 0.8923 5.0608 2.3524 0.0000 -10805.0564 1437.6119 0.0000 0.0000 1810.7875 -7548.3516 304.3519 -9359.1391 -7548.3516 304.3519 -191.5127 -104.7344 30690.6429 -191.5127 -104.7344
ENERGY: 300000 0.8922 6.5506 1.5581 0.0000 -10826.7895 1465.0272 0.0000 0.0000 1833.2953 -7519.4661 308.1350 -9352.7614 -7516.0141 303.7949 174.9084 206.0570 30544.1507 -9.0222 40.5784
ENERGY: 600000 1.2524 3.5175 1.8350 0.0000 -10778.2157 1430.2951 0.0000 0.0000 1789.0620 -7552.2537 300.7004 -9341.3157 -7531.9880 301.4952 -218.9417 -243.9783 30907.8817 -51.9199 -21.1803
ENERGY: 900000 1.9212 6.0720 2.1794 0.0000 -10752.0432 1380.2563 0.0000 0.0000 1778.0631 -7583.5512 298.8517 -9361.6143 -7565.9274 300.1771 -735.4533 -749.2925 31018.1853 -153.1175 -127.4408
ENERGY: 1200000 5.1794 3.6025 3.5187 0.0000 -10825.7965 1460.8108 0.0000 0.0000 1797.8174 -7554.8678 302.1720 -9352.6851 -7565.4002 300.5024 59.1596 117.9292 30388.0238 -27.7975 5.5830
ENERGY: 1500000 0.3888 3.3260 1.5489 0.0000 -10746.0242 1425.7249 0.0000 0.0000 1832.8696 -7482.1659 308.0634 -9315.0355 -7557.0217 300.5606 -351.0774 -236.9818 31205.7561 -38.1168 1.0882
TCL: Running FEP window  17: Lambda1 0.19999999999999968 Lambda2 0.1499999999999997 [dLambda -0.04999999999999999]
TCL: Setting parameter firsttimestep to 0
TCL: Setting parameter alchLambda to 0.19999999999999968
Info: NONBONDED TABLE R-SQUARED SPACING: 0.0625
Info: NONBONDED TABLE SIZE: 705 POINTS
TCL: Setting parameter alchLambda2 to 0.1499999999999997
Info: NONBONDED TABLE R-SQUARED SPACING: 0.0625
Info: NONBONDED TABLE SIZE: 705 POINTS
TCL: Running for 1500000 steps
ETITLE: TS BOND ANGLE DIHED IMPRP ELECT VDW BOUNDARY MISC KINETIC TOTAL TEMP POTENTIAL TOTALAVG TEMPAVG PRESSURE GPRESSURE VOLUME PRESSAVG GPRESSAVG
ENERGY: 0 0.3888 3.3260 1.5489 0.0000 -10746.0246 1425.7386 0.0000 0.0000 1831.9619 -7483.0605 307.9109 -9315.0224 -7483.0605 307.9109 -327.6780 -236.6202 31205.7561 -327.6780 -236.6202
ENERGY: 300000 2.8815 4.4221 1.9584 0.0000 -10990.9379 1498.1245 0.0000 0.0000 1776.8188 -7706.7327 298.6426 -9483.5515 -7552.9916 303.9792 131.9297 167.7238 30433.6059 -170.7965 -119.2095
ENERGY: 600000 1.6248 4.3159 1.6569 0.0000 -10636.8589 1341.0559 0.0000 0.0000 1824.8139 -7463.3915 306.7095 -9288.2054 -7534.1779 304.7730 -795.7668 -654.5286 30809.4229 -363.4921 -300.1799
ENERGY: 900000 1.6605 4.5654 1.3073 0.0000 -10765.5348 1471.2579 0.0000 0.0000 1748.3196 -7538.4241 293.8525 -9286.7437 -7540.2891 302.6101 156.7754 261.1439 30511.3169 -196.7244 -127.2335
ENERGY: 1200000 0.9044 2.7317 1.7688 0.0000 -10900.4554 1473.9062 0.0000 0.0000 1757.0161 -7664.1281 295.3142 -9421.1443 -7548.6685 301.7910 49.1382 81.3421 30775.3133 -112.6912 -49.5777
ENERGY: 1500000 1.2709 5.6688 1.6451 0.0000 -11005.7736 1595.5183 0.0000 0.0000 1805.8400 -7595.8305 303.5204 -9401.6705 -7541.6984 302.2410 880.3188 935.3138 30860.9422 -69.5571 -4.2295
TCL: Running FEP window  18: Lambda1 0.1499999999999997 Lambda2 0.09999999999999969 [dLambda -0.05 ]
TCL: Setting parameter firsttimestep to 0
TCL: Setting parameter alchLambda to 0.1499999999999997
Info: NONBONDED TABLE R-SQUARED SPACING: 0.0625
Info: NONBONDED TABLE SIZE: 705 POINTS
TCL: Setting parameter alchLambda2 to 0.09999999999999969
Info: NONBONDED TABLE R-SQUARED SPACING: 0.0625
Info: NONBONDED TABLE SIZE: 705 POINTS
TCL: Running for 1500000 steps
ETITLE: TS BOND ANGLE DIHED IMPRP ELECT VDW BOUNDARY MISC KINETIC TOTAL TEMP POTENTIAL TOTALAVG TEMPAVG PRESSURE GPRESSURE VOLUME PRESSAVG GPRESSAVG
ENERGY: 0 1.2709 5.6688 1.6451 0.0000 -11005.7744 1595.1205 0.0000 0.0000 1804.9551 -7597.1139 303.3717 -9402.0690 -7597.1139 303.3717 860.3820 931.8078 30860.9422 860.3820 931.8078
ENERGY: 300000 1.1474 5.1027 1.8006 0.0000 -10784.4370 1392.7071 0.0000 0.0000 1801.6693 -7582.0098 302.8194 -9383.6791 -7602.1340 304.0259 -487.3051 -321.7000 30366.8625 -168.0939 -54.0841
ENERGY: 600000 1.1439 6.7809 2.4084 0.0000 -10804.2949 1458.8813 0.0000 0.0000 1849.1037 -7485.9766 310.7920 -9335.0803 -7596.2638 302.9737 -49.4767 79.5560 30659.6677 -73.9678 31.4603
ENERGY: 900000 0.9917 3.6243 2.5375 0.0000 -10772.9176 1442.4952 0.0000 0.0000 1754.3707 -7568.8981 294.8696 -9323.2688 -7590.6352 302.3218 -62.0999 4.1263 30680.8186 -87.2562 5.5821
ENERGY: 1200000 1.9346 6.2732 2.7757 0.0000 -10773.2967 1364.2971 0.0000 0.0000 1732.6938 -7665.3224 291.2262 -9398.0162 -7588.3670 302.8683 -776.9714 -689.2636 30574.2817 -165.8329 -74.5181
ENERGY: 1500000 2.3195 3.3353 1.5319 0.0000 -10789.0858 1370.0659 0.0000 0.0000 1803.9720 -7607.8611 303.2064 -9411.8331 -7588.1663 303.0190 -966.8582 -894.3141 30706.5978 -223.6215 -136.0524
TCL: Running FEP window  19: Lambda1 0.09999999999999969 Lambda2 0.049999999999999684 [dLambda -0.05 ]
TCL: Setting parameter firsttimestep to 0
TCL: Setting parameter alchLambda to 0.09999999999999969
Info: NONBONDED TABLE R-SQUARED SPACING: 0.0625
Info: NONBONDED TABLE SIZE: 705 POINTS
TCL: Setting parameter alchLambda2 to 0.049999999999999684
Info: NONBONDED TABLE R-SQUARED SPACING: 0.0625
Info: NONBONDED TABLE SIZE: 705 POINTS
TCL: Running for 1500000 steps
ETITLE: TS BOND ANGLE DIHED IMPRP ELECT VDW BOUNDARY MISC KINETIC TOTAL TEMP POTENTIAL TOTALAVG TEMPAVG PRESSURE GPRESSURE VOLUME PRESSAVG GPRESSAVG
ENERGY: 0 2.3195 3.3353 1.5319 0.0000 -10789.0857 1370.1591 0.0000 0.0000 1803.0712 -7608.6687 303.0550 -9411.7399 -7608.6687 303.0550 -979.7747 -892.5571 30706.5978 -979.7747 -892.5571
ENERGY: 300000 2.6430 2.3986 2.5147 0.0000 -10771.3164 1420.3107 0.0000 0.0000 1801.0725 -7542.3767 302.7191 -9343.4493 -7586.5984 296.9891 -244.7397 -160.9237 30431.8478 -582.1119 -511.0426
ENERGY: 600000 3.4046 3.9889 1.6602 0.0000 -10917.3842 1492.2014 0.0000 0.0000 1779.1094 -7637.0198 299.0276 -9416.1292 -7596.7270 297.8481 -197.1152 -109.0113 30717.8866 -429.7053 -366.0197
ENERGY: 900000 2.7727 2.9857 1.6927 0.0000 -10888.3799 1489.8072 0.0000 0.0000 1849.4060 -7541.7157 310.8428 -9391.1216 -7582.1165 300.3479 231.0713 310.7925 30380.1351 -400.4824 -333.8330
ENERGY: 1200000 1.4258 3.9585 1.5541 0.0000 -10991.2393 1574.7087 0.0000 0.0000 1804.9590 -7604.6330 303.3723 -9409.5921 -7580.9384 301.3762 891.3258 957.2134 30318.3494 -249.9710 -179.3706
ENERGY: 1500000 2.0261 3.6983 2.3694 0.0000 -10837.4332 1496.4498 0.0000 0.0000 1735.5624 -7597.3272 291.7083 -9332.8896 -7577.3214 300.7322 183.9756 228.3246 31094.3054 -206.0304 -140.4430
TCL: Running FEP window  20: Lambda1 0.049999999999999684 Lambda2 0.0    [dLambda -0.049999999999999684]
TCL: Setting parameter firsttimestep to 0
TCL: Setting parameter alchLambda to 0.049999999999999684
Info: NONBONDED TABLE R-SQUARED SPACING: 0.0625
Info: NONBONDED TABLE SIZE: 705 POINTS
TCL: Setting parameter alchLambda2 to 0.0
Info: NONBONDED TABLE R-SQUARED SPACING: 0.0625
Info: NONBONDED TABLE SIZE: 705 POINTS
TCL: Running for 1500000 steps
ETITLE: TS BOND ANGLE DIHED IMPRP ELECT VDW BOUNDARY MISC KINETIC TOTAL TEMP POTENTIAL TOTALAVG TEMPAVG PRESSURE GPRESSURE VOLUME PRESSAVG GPRESSAVG
ENERGY: 0 2.0261 3.6983 2.3694 0.0000 -10837.4332 1496.5376 0.0000 0.0000 1734.6608 -7598.1409 291.5568 -9332.8018 -7598.1409 291.5568 150.9245 227.2604 31094.3054 150.9245 227.2604
ENERGY: 300000 1.9821 10.1928 2.8397 0.0000 -10788.1088 1459.1707 0.0000 0.0000 1840.8446 -7473.0789 309.4039 -9313.9235 -7528.5210 299.9051 -24.2315 -38.5179 31043.9296 20.4108 81.3912
ENERGY: 600000 3.0296 1.9820 1.8391 0.0000 -10894.5750 1474.8587 0.0000 0.0000 1833.7309 -7579.1347 308.2082 -9412.8656 -7540.8883 301.6639 28.9229 126.4973 30377.6009 -73.0909 -5.0301
ENERGY: 900000 1.0898 5.0099 1.4157 0.0000 -10939.8716 1544.1201 0.0000 0.0000 1745.5823 -7642.6538 293.3924 -9388.2361 -7552.3916 299.7462 546.4968 701.8025 30405.6716 -44.6711 31.9368
ENERGY: 1200000 1.5557 1.7447 1.6413 0.0000 -10740.7917 1433.6212 0.0000 0.0000 1842.5688 -7459.6601 309.6937 -9302.2289 -7548.8545 299.7285 -136.7733 -133.9201 31244.1970 -66.3182 -3.6002
ENERGY: 1500000 4.8598 4.8608 2.3238 0.0000 -10866.4068 1470.5069 0.0000 0.0000 1778.0785 -7605.7770 298.8543 -9383.8555 -7560.7252 299.2585 -127.3365 -77.0395 30711.6189 -36.7202 22.1413
TCL: Exiting due to exit command.
