Info: SIMULATION PARAMETERS:
Info: TIMESTEP               2
Info: NUMBER OF STEPS        0
Info: STEPS PER CYCLE        10
Info: PERIODIC CELL BASIS 1  32.1378 0 0
Info: PERIODIC CELL BASIS 2  0 30.0897 0
Info: PERIODIC CELL BASIS 3  0 0 31.3746
Info: PERIODIC CELL CENTER   0 0 0
Info: WRAPPING WATERS AROUND PERIODIC BOUNDARIES ON OUTPUT.
Info: WRAPPING ALL CLUSTERS AROUND PERIODIC BOUNDARIES ON OUTPUT.
Info: FIRST LDB TIMESTEP     50
Info: LAST LDB TIMESTEP     -1
Info: HOM BACKGROUND SCALING 1
Info: PME BACKGROUND SCALING 1
Info: MIN ATOMS PER PATCH    40
Info: EMPTY PATCH LOAD       40 ATOMS
Info: VELOCITY FILE          mobley_2661134_equil.vel
Info: CENTER OF MASS MOVING INITIALLY? NO
Info: DIELECTRIC             1
Info: EXCLUDE                SCALED ONE-FOUR
Info: 1-4 ELECTROSTATICS SCALED BY 0.833333
Info: MODIFIED 1-4 VDW PARAMETERS WILL BE USED
Info: DCD FILENAME           mobley_2661134_prod.dcd
Info: DCD FREQUENCY          100000
Info: DCD FIRST STEP         100000
Info: DCD FILE WILL CONTAIN UNIT CELL DATA
Info: XST FILENAME           mobley_2661134_prod.xst
Info: XST FREQUENCY          100000
Info: NO VELOCITY DCD OUTPUT
Info: NO FORCE DCD OUTPUT
Info: OUTPUT FILENAME        mobley_2661134_prod
Info: BINARY OUTPUT FILES WILL BE USED
Info: RESTART FILENAME       mobley_2661134_prod.restart
Info: RESTART FREQUENCY      100000
Info: BINARY RESTART FILES WILL BE USED
Info: CUTOFF                 9
Info: PAIRLIST DISTANCE      11
Info: PAIRLIST SHRINK RATE   0.01
Info: PAIRLIST GROW RATE     0.01
Info: PAIRLIST TRIGGER       0.3
Info: PAIRLISTS PER CYCLE    2
Info: PAIRLISTS ENABLED
Info: MARGIN                 2
Info: HYDROGEN GROUP CUTOFF  2.5
Info: PATCH DIMENSION        15.5
Info: ENERGY OUTPUT STEPS    100000
Info: ENERGY EVALUATION STEPS    100000
Info: OUTPUT ENERGY PRECISION 4
Info: CROSSTERM ENERGY INCLUDED IN DIHEDRAL
Info: TIMING OUTPUT STEPS    1000000
Info: PRESSURE OUTPUT STEPS  100000
Info: ALCHEMICAL FEP ON
Info: FEP CURRENT LAMBDA VALUE     1
Info: FEP COMPARISON LAMBDA VALUE  0.95
Info: FEP INTRA-ALCHEMICAL NON-BONDED INTERACTIONS WILL BE RETAINED
Info: FEP INTRA-ALCHEMICAL BONDED INTERACTIONS WILL BE RETAINED
Info: FEP VDW SHIFTING COEFFICIENT 5
Info: FEP ELEC. ACTIVE FOR ANNIHILATED PARTICLES BETWEEN LAMBDA = 0 AND LAMBDA = 0.5
Info: FEP ELEC. ACTIVE FOR EXNIHILATED PARTICLES BETWEEN LAMBDA = 0.5 AND LAMBDA = 1
Info: FEP VDW ACTIVE FOR ANNIHILATED PARTICLES BETWEEN LAMBDA = 0 AND LAMBDA = 1
Info: FEP VDW ACTIVE FOR EXNIHILATED PARTICLES BETWEEN LAMBDA = 0 AND LAMBDA = 1
Info: FEP BOND ACTIVE FOR ANNIHILATED PARTICLES BETWEEN LAMBDA = 1 AND LAMBDA = 1
Info: FEP BOND ACTIVE FOR EXNIHILATED PARTICLES BETWEEN LAMBDA = 0 AND LAMBDA = 0
Info: LANGEVIN DYNAMICS ACTIVE
Info: LANGEVIN TEMPERATURE   300
Info: LANGEVIN USING BBK INTEGRATOR
Info: LANGEVIN DAMPING COEFFICIENT IS 1 INVERSE PS
Info: LANGEVIN DYNAMICS APPLIED TO HYDROGENS
Info: LANGEVIN PISTON PRESSURE CONTROL ACTIVE
Info:        TARGET PRESSURE IS 1.01325 BAR
Info:     OSCILLATION PERIOD IS 50 FS
Info:             DECAY TIME IS 25 FS
Info:     PISTON TEMPERATURE IS 300 K
Info:       PRESSURE CONTROL IS GROUP-BASED
Info:    INITIAL STRAIN RATE IS -0.000836706 -0.000836706 -0.000836706
Info:       CELL FLUCTUATION IS ISOTROPIC
Info: PARTICLE MESH EWALD (PME) ACTIVE
Info: PME TOLERANCE               1e-06
Info: PME EWALD COEFFICIENT       0.348832
Info: PME INTERPOLATION ORDER     4
Info: PME GRID DIMENSIONS         36 32 32
Info: PME MAXIMUM GRID SPACING    1
Info: PME CALCULATION WILL BE PERFORMED ON GPU
Info: FULL ELECTROSTATIC EVALUATION FREQUENCY      2
Info: USING VERLET I (r-RESPA) MTS SCHEME.
Info: C1 SPLITTING OF LONG RANGE ELECTROSTATICS
Info: PLACING ATOMS IN PATCHES BY HYDROGEN GROUPS
Info: RIGID BONDS TO HYDROGEN : ALL
Info:         ERROR TOLERANCE : 1e-08
Info:          MAX ITERATIONS : 100
Info: RIGID WATER USING SETTLE ALGORITHM
Info: RANDOM NUMBER SEED     1743574526
Info: USE HYDROGEN BONDS?    NO
Info: Using AMBER format force field!
Info: AMBER PARM FILE        mobley_2661134.prmtop
Info: COORDINATE PDB         mobley_2661134.pdb
Info: Exclusions will be read from PARM file!
Info: SCNB (VDW SCALING)     2
Info: USING ARITHMETIC MEAN TO COMBINE L-J SIGMA PARAMETERS
Info: BINARY COORDINATES     mobley_2661134_equil.coor
Info: SUMMARY OF PARAMETERS:
Info: 8 BONDS
Info: 6 ANGLES
Info:   6 HARMONIC
Info:   0 COSINE-BASED
Info: 4 DIHEDRAL
Info: 0 IMPROPER
Info: 0 CROSSTERM
Info: 0 VDW
Info: 28 VDW_PAIRS
Info: 0 NBTHOLE_PAIRS
Info: To read alchdata from file: mobley_2661134.pdb
Info: To read alchflag data from column: 5
Info: STRUCTURE SUMMARY:
Info: 2960 ATOMS
Info: 2960 BONDS
Info: 20 ANGLES
Info: 34 DIHEDRALS
Info: 0 IMPROPERS
Info: 0 CROSSTERMS
Info: 3005 EXCLUSIONS
Info: 2951 RIGID BONDS
Info: ALCH: 0 ATOMS TO DISAPPEAR IN FINAL STATE
Info: ALCH: 14 ATOMS TO APPEAR IN FINAL STATE
Info: 5929 DEGREES OF FREEDOM
Info: 991 HYDROGEN GROUPS
Info: 3 ATOMS IN LARGEST HYDROGEN GROUP
Info: 991 MIGRATION GROUPS
Info: 3 ATOMS IN LARGEST MIGRATION GROUP
Info: TOTAL MASS = 17810.8 amu
Info: TOTAL CHARGE = -0.000100004 e
Info: MASS DENSITY = 0.974834 g/cm^3
Info: ATOM DENSITY = 0.0975616 atoms/A^3
Info: ADDED 0 IMPLICIT EXCLUSIONS
Info: NONBONDED TABLE R-SQUARED SPACING: 0.0625
Info: NONBONDED TABLE SIZE: 705 POINTS
Info: REMOVING COM VELOCITY -0.0581171 -0.0910683 0.135995
Info: Use 3D box decompostion in PME FFT.
Info: Updated CUDA force table with 4096 elements.
Info: Updated CUDA LJ table with 7 x 7 elements.
Info: Found 17 unique exclusion lists needing 36 bytes
TCL: Running for 1500000 steps
ETITLE: TS BOND ANGLE DIHED IMPRP ELECT VDW BOUNDARY MISC KINETIC TOTAL TEMP POTENTIAL TOTALAVG TEMPAVG PRESSURE GPRESSURE VOLUME PRESSAVG GPRESSAVG
ENERGY: 0 4.2375 3.7530 2.5768 0.0000 -10820.6064 1431.0912 0.0000 0.0000 1774.1971 -7604.7509 301.1694 -9378.9480 -7604.7509 301.1694 -428.8258 -343.7738 30339.8062 -428.8258 -343.7738
ENERGY: 300000 3.0129 2.8506 0.5394 0.0000 -10652.5842 1348.5394 0.0000 0.0000 1798.9595 -7498.6824 305.3728 -9297.6419 -7548.3301 302.9352 -803.5137 -756.1194 30701.9228 -166.1844 -102.1367
ENERGY: 600000 3.9216 4.2450 6.7338 0.0000 -10728.1754 1450.4827 0.0000 0.0000 1792.3768 -7470.4156 304.2554 -9262.7923 -7539.0547 301.4599 133.0482 150.1221 30595.3506 -163.1295 -100.5653
ENERGY: 900000 1.8189 1.6855 0.6886 0.0000 -10666.5285 1427.0832 0.0000 0.0000 1827.5702 -7407.6821 310.2294 -9235.2523 -7529.1648 302.0331 -89.2614 -12.4669 30851.5757 -159.3549 -98.5448
ENERGY: 1200000 3.6713 5.0629 3.3390 0.0000 -10670.9189 1443.5329 0.0000 0.0000 1706.5734 -7508.7394 289.6903 -9215.3128 -7521.9680 301.4015 332.0357 379.0918 30192.1420 -153.9446 -96.4618
ENERGY: 1500000 0.6829 4.3825 2.5434 0.0000 -10714.9212 1419.7707 0.0000 0.0000 1717.7714 -7569.7704 291.5911 -9287.5418 -7522.5329 300.2911 -319.8789 -264.4733 30714.5550 -139.3665 -82.3922
TCL: Running FEP window   2: Lambda1 0.95   Lambda2 0.8999999999999999 [dLambda -0.050000000000000044]
TCL: Setting parameter firsttimestep to 0
TCL: Setting parameter alchLambda to 0.95
Info: NONBONDED TABLE R-SQUARED SPACING: 0.0625
Info: NONBONDED TABLE SIZE: 705 POINTS
TCL: Setting parameter alchLambda2 to 0.8999999999999999
Info: NONBONDED TABLE R-SQUARED SPACING: 0.0625
Info: NONBONDED TABLE SIZE: 705 POINTS
TCL: Running for 1500000 steps
ETITLE: TS BOND ANGLE DIHED IMPRP ELECT VDW BOUNDARY MISC KINETIC TOTAL TEMP POTENTIAL TOTALAVG TEMPAVG PRESSURE GPRESSURE VOLUME PRESSAVG GPRESSAVG
ENERGY: 0 0.6829 4.3825 2.5434 0.0000 -10713.2859 1419.4223 0.0000 0.0000 1716.9151 -7569.3398 291.4458 -9286.2549 -7569.3398 291.4458 -342.2626 -279.7351 30714.5550 -342.2626 -279.7351
ENERGY: 300000 2.6528 4.4424 4.3778 0.0000 -10595.2302 1315.4412 0.0000 0.0000 1726.5455 -7541.7705 293.0805 -9268.3160 -7531.4805 297.0150 -921.0386 -846.0414 30552.5384 -532.0731 -459.7648
ENERGY: 600000 0.8473 3.8522 2.8372 0.0000 -10799.6107 1486.1327 0.0000 0.0000 1743.9645 -7561.9768 296.0374 -9305.9414 -7532.1214 296.9483 437.2216 497.1911 30349.4490 -345.9836 -266.7167
ENERGY: 900000 4.4842 1.2046 4.9603 0.0000 -10707.0681 1436.0312 0.0000 0.0000 1771.9808 -7488.4071 300.7932 -9260.3879 -7547.7607 295.0305 -68.2711 52.4619 30711.2756 -351.3402 -275.1701
ENERGY: 1200000 1.9688 2.7529 3.0030 0.0000 -10694.8843 1396.4709 0.0000 0.0000 1744.1447 -7546.5439 296.0680 -9290.6886 -7537.1772 295.2319 -486.7631 -482.8338 30998.9279 -331.4603 -257.1182
ENERGY: 1500000 1.7832 1.7645 1.8621 0.0000 -10722.2945 1463.1442 0.0000 0.0000 1786.3469 -7467.3935 303.2318 -9253.7404 -7541.1143 295.6744 231.1536 246.4024 30850.4324 -256.1843 -184.0175
TCL: Running FEP window   3: Lambda1 0.8999999999999999 Lambda2 0.8499999999999999 [dLambda -0.050000000000000044]
TCL: Setting parameter firsttimestep to 0
TCL: Setting parameter alchLambda to 0.8999999999999999
Info: NONBONDED TABLE R-SQUARED SPACING: 0.0625
Info: NONBONDED TABLE SIZE: 705 POINTS
TCL: Setting parameter alchLambda2 to 0.8499999999999999
Info: NONBONDED TABLE R-SQUARED SPACING: 0.0625
Info: NONBONDED TABLE SIZE: 705 POINTS
TCL: Running for 1500000 steps
ETITLE: TS BOND ANGLE DIHED IMPRP ELECT VDW BOUNDARY MISC KINETIC TOTAL TEMP POTENTIAL TOTALAVG TEMPAVG PRESSURE GPRESSURE VOLUME PRESSAVG GPRESSAVG
ENERGY: 0 1.7832 1.7645 1.8621 0.0000 -10720.4028 1463.3649 0.0000 0.0000 1785.4567 -7466.1713 303.0807 -9251.6280 -7466.1713 303.0807 166.0202 240.7034 30850.4324 166.0202 240.7034
ENERGY: 300000 1.6490 1.6945 3.4338 0.0000 -10742.6056 1459.7047 0.0000 0.0000 1829.8931 -7446.2305 310.6238 -9276.1236 -7488.3984 304.7295 276.6222 394.9038 30442.6161 -187.7034 -103.8353
ENERGY: 600000 2.3529 3.3589 2.7477 0.0000 -10651.9715 1378.7500 0.0000 0.0000 1770.8373 -7493.9247 300.5990 -9264.7619 -7501.1850 302.0722 -228.8616 -134.4579 30149.2070 -201.3681 -120.4940
ENERGY: 900000 2.4140 2.2536 2.9261 0.0000 -10756.3029 1460.3075 0.0000 0.0000 1722.0073 -7566.3944 292.3102 -9288.4017 -7514.4405 300.9223 239.1082 249.1717 30480.1435 -197.0544 -133.7989
ENERGY: 1200000 5.1060 2.7128 2.4456 0.0000 -10818.9424 1438.3703 0.0000 0.0000 1756.9571 -7613.3506 298.2429 -9370.3077 -7545.5952 299.8712 -47.6800 -25.0065 30038.7214 -133.9377 -73.3276
ENERGY: 1500000 2.8790 2.2470 3.8462 0.0000 -10693.4802 1339.1977 0.0000 0.0000 1781.1573 -7564.1529 302.3509 -9345.3102 -7538.1514 300.1671 -1056.9014 -1017.4067 30732.0971 -131.8708 -73.9116
TCL: Running FEP window   4: Lambda1 0.8499999999999999 Lambda2 0.7999999999999998 [dLambda -0.050000000000000044]
TCL: Setting parameter firsttimestep to 0
TCL: Setting parameter alchLambda to 0.8499999999999999
Info: NONBONDED TABLE R-SQUARED SPACING: 0.0625
Info: NONBONDED TABLE SIZE: 705 POINTS
TCL: Setting parameter alchLambda2 to 0.7999999999999998
Info: NONBONDED TABLE R-SQUARED SPACING: 0.0625
Info: NONBONDED TABLE SIZE: 705 POINTS
TCL: Running for 1500000 steps
ETITLE: TS BOND ANGLE DIHED IMPRP ELECT VDW BOUNDARY MISC KINETIC TOTAL TEMP POTENTIAL TOTALAVG TEMPAVG PRESSURE GPRESSURE VOLUME PRESSAVG GPRESSAVG
ENERGY: 0 2.8790 2.2470 3.8462 0.0000 -10692.1972 1338.8750 0.0000 0.0000 1780.3172 -7564.0327 302.2083 -9344.3499 -7564.0327 302.2083 -1107.3528 -1034.1862 30732.0971 -1107.3528 -1034.1862
ENERGY: 300000 2.5097 2.0856 2.9981 0.0000 -10757.1071 1429.0707 0.0000 0.0000 1777.7679 -7542.6752 301.7755 -9320.4431 -7552.3299 300.1777 -46.7864 -47.2504 30416.4204 -497.9449 -461.5272
ENERGY: 600000 2.0557 6.0735 2.3390 0.0000 -10682.8173 1351.2639 0.0000 0.0000 1731.1578 -7589.9275 293.8635 -9321.0853 -7558.4182 300.1374 -653.1185 -686.8750 30456.9191 -409.6816 -392.9784
ENERGY: 900000 2.6423 2.5651 1.9030 0.0000 -10777.3718 1452.1528 0.0000 0.0000 1755.2826 -7562.8261 297.9586 -9318.1086 -7539.6633 301.6232 -114.5984 -42.9095 30497.7569 -232.9654 -201.2665
ENERGY: 1200000 2.9386 2.2729 2.2475 0.0000 -10673.0814 1446.6860 0.0000 0.0000 1697.0860 -7521.8503 288.0798 -9218.9363 -7542.2849 300.4286 -23.7003 41.4956 30610.3472 -231.1532 -193.0122
ENERGY: 1500000 1.4141 4.1864 3.5995 0.0000 -10737.9062 1416.5678 0.0000 0.0000 1776.2208 -7535.9176 301.5129 -9312.1384 -7538.9394 300.4621 -381.8875 -277.7676 30501.5791 -280.3192 -230.1651
TCL: Running FEP window   5: Lambda1 0.7999999999999998 Lambda2 0.7499999999999998 [dLambda -0.050000000000000044]
TCL: Setting parameter firsttimestep to 0
TCL: Setting parameter alchLambda to 0.7999999999999998
Info: NONBONDED TABLE R-SQUARED SPACING: 0.0625
Info: NONBONDED TABLE SIZE: 705 POINTS
TCL: Setting parameter alchLambda2 to 0.7499999999999998
Info: NONBONDED TABLE R-SQUARED SPACING: 0.0625
Info: NONBONDED TABLE SIZE: 705 POINTS
TCL: Running for 1500000 steps
ETITLE: TS BOND ANGLE DIHED IMPRP ELECT VDW BOUNDARY MISC KINETIC TOTAL TEMP POTENTIAL TOTALAVG TEMPAVG PRESSURE GPRESSURE VOLUME PRESSAVG GPRESSAVG
ENERGY: 0 1.4141 4.1864 3.5995 0.0000 -10736.0028 1416.7389 0.0000 0.0000 1775.3301 -7534.7338 301.3617 -9310.0639 -7534.7338 301.3617 -375.2237 -279.7263 30501.5791 -375.2237 -279.7263
ENERGY: 300000 3.5359 5.7649 3.7537 0.0000 -10697.6300 1432.1593 0.0000 0.0000 1772.0634 -7480.3529 300.8072 -9252.4163 -7524.9287 299.0445 357.9998 394.5536 30125.2707 -170.4193 -100.1450
ENERGY: 600000 2.6800 1.0775 3.1558 0.0000 -10891.4576 1489.6788 0.0000 0.0000 1782.3030 -7612.5626 302.5453 -9394.8656 -7536.5750 298.9049 191.1019 290.0422 30186.4152 -76.5235 -27.4197
ENERGY: 900000 3.0827 5.2933 4.3810 0.0000 -10794.9961 1462.5427 0.0000 0.0000 1791.1989 -7528.4974 304.0554 -9319.6963 -7524.7394 300.0823 358.1138 333.7931 30087.4340 4.7439 48.2112
ENERGY: 1200000 3.3299 1.9682 4.1136 0.0000 -10711.4103 1386.9410 0.0000 0.0000 1771.9858 -7543.0718 300.7940 -9315.0577 -7533.4956 299.7407 -526.4568 -484.6974 30354.7630 -41.1591 1.0294
ENERGY: 1500000 4.0329 2.1018 7.5226 0.0000 -10786.4642 1471.0047 0.0000 0.0000 1786.9858 -7514.8165 303.3402 -9301.8022 -7535.3422 299.3272 229.5434 341.1591 30334.0931 -38.0709 7.3285
TCL: Running FEP window   6: Lambda1 0.7499999999999998 Lambda2 0.6999999999999997 [dLambda -0.050000000000000044]
TCL: Setting parameter firsttimestep to 0
TCL: Setting parameter alchLambda to 0.7499999999999998
Info: NONBONDED TABLE R-SQUARED SPACING: 0.0625
Info: NONBONDED TABLE SIZE: 705 POINTS
TCL: Setting parameter alchLambda2 to 0.6999999999999997
Info: NONBONDED TABLE R-SQUARED SPACING: 0.0625
Info: NONBONDED TABLE SIZE: 705 POINTS
TCL: Running for 1500000 steps
ETITLE: TS BOND ANGLE DIHED IMPRP ELECT VDW BOUNDARY MISC KINETIC TOTAL TEMP POTENTIAL TOTALAVG TEMPAVG PRESSURE GPRESSURE VOLUME PRESSAVG GPRESSAVG
ENERGY: 0 4.0329 2.1018 7.5226 0.0000 -10784.5466 1470.1798 0.0000 0.0000 1786.1484 -7514.5611 303.1981 -9300.7095 -7514.5611 303.1981 249.4502 327.2563 30334.0931 249.4502 327.2563
ENERGY: 300000 3.3153 4.5225 3.8257 0.0000 -10687.3109 1408.6323 0.0000 0.0000 1806.5544 -7460.4607 306.6620 -9267.0151 -7497.8099 303.0028 -242.8447 -209.7807 30647.5987 130.2085 175.4963
ENERGY: 600000 5.3950 7.0269 3.3391 0.0000 -10746.7004 1434.2979 0.0000 0.0000 1753.7480 -7542.8935 297.6981 -9296.6415 -7512.3892 301.3507 43.0891 81.1701 30144.9351 18.3479 70.2418
ENERGY: 900000 2.3187 4.2565 1.8514 0.0000 -10746.8950 1466.2420 0.0000 0.0000 1814.0459 -7458.1804 307.9337 -9272.2263 -7507.5914 301.9703 447.2041 552.8757 30090.4008 58.3892 118.8855
ENERGY: 1200000 1.7732 1.5927 1.8040 0.0000 -10777.2536 1483.9419 0.0000 0.0000 1802.0658 -7486.0760 305.9001 -9288.1418 -7502.2451 303.4180 753.5665 767.0371 30085.1380 162.6100 212.1150
ENERGY: 1500000 1.1052 4.0154 5.7085 0.0000 -10762.1611 1398.8518 0.0000 0.0000 1764.7076 -7587.7727 299.5585 -9352.4803 -7503.7921 302.7070 -306.0234 -203.5615 30051.7992 149.8187 203.7121
TCL: Running FEP window   7: Lambda1 0.6999999999999997 Lambda2 0.6499999999999997 [dLambda -0.050000000000000044]
TCL: Setting parameter firsttimestep to 0
TCL: Setting parameter alchLambda to 0.6999999999999997
Info: NONBONDED TABLE R-SQUARED SPACING: 0.0625
Info: NONBONDED TABLE SIZE: 705 POINTS
TCL: Setting parameter alchLambda2 to 0.6499999999999997
Info: NONBONDED TABLE R-SQUARED SPACING: 0.0625
Info: NONBONDED TABLE SIZE: 705 POINTS
TCL: Running for 1500000 steps
ETITLE: TS BOND ANGLE DIHED IMPRP ELECT VDW BOUNDARY MISC KINETIC TOTAL TEMP POTENTIAL TOTALAVG TEMPAVG PRESSURE GPRESSURE VOLUME PRESSAVG GPRESSAVG
ENERGY: 0 1.1052 4.0154 5.7085 0.0000 -10760.7563 1399.2065 0.0000 0.0000 1763.7917 -7586.9290 299.4031 -9350.7208 -7586.9290 299.4031 -282.1601 -207.8912 30051.7992 -282.1601 -207.8912
ENERGY: 300000 1.9023 5.3001 2.5265 0.0000 -10724.9722 1457.6738 0.0000 0.0000 1782.8879 -7474.6816 302.6446 -9257.5695 -7536.1030 298.7308 74.1770 154.7224 30895.9975 -13.1665 52.9338
ENERGY: 600000 6.1906 1.8059 4.2039 0.0000 -10780.3221 1484.3714 0.0000 0.0000 1717.2056 -7566.5446 291.4951 -9283.7502 -7545.7292 297.8523 264.7940 265.9047 30731.2502 45.5526 92.8093
ENERGY: 900000 3.4743 1.7624 5.3717 0.0000 -10837.6681 1450.3903 0.0000 0.0000 1746.2476 -7630.4218 296.4250 -9376.6694 -7543.7213 297.4027 -154.4575 -108.2268 30422.2998 -67.2714 -26.0760
ENERGY: 1200000 2.8055 3.0455 2.6048 0.0000 -10601.0547 1386.1038 0.0000 0.0000 1757.9593 -7448.5357 298.4130 -9206.4950 -7527.5197 297.8091 -464.4115 -353.7494 31051.6844 -97.0644 -42.2566
ENERGY: 1500000 3.1443 3.4850 1.8802 0.0000 -10822.3750 1489.7946 0.0000 0.0000 1716.6948 -7607.3761 291.4084 -9324.0709 -7539.5369 297.5457 90.8485 170.5700 30725.4985 -44.3527 11.1670
TCL: Running FEP window   8: Lambda1 0.6499999999999997 Lambda2 0.5999999999999996 [dLambda -0.050000000000000044]
TCL: Setting parameter firsttimestep to 0
TCL: Setting parameter alchLambda to 0.6499999999999997
Info: NONBONDED TABLE R-SQUARED SPACING: 0.0625
Info: NONBONDED TABLE SIZE: 705 POINTS
TCL: Setting parameter alchLambda2 to 0.5999999999999996
Info: NONBONDED TABLE R-SQUARED SPACING: 0.0625
Info: NONBONDED TABLE SIZE: 705 POINTS
TCL: Running for 1500000 steps
ETITLE: TS BOND ANGLE DIHED IMPRP ELECT VDW BOUNDARY MISC KINETIC TOTAL TEMP POTENTIAL TOTALAVG TEMPAVG PRESSURE GPRESSURE VOLUME PRESSAVG GPRESSAVG
ENERGY: 0 3.1443 3.4850 1.8802 0.0000 -10820.8100 1490.3929 0.0000 0.0000 1715.7888 -7606.1187 291.2546 -9321.9076 -7606.1187 291.2546 78.8325 172.9394 30725.4985 78.8325 172.9394
ENERGY: 300000 3.6599 3.7108 3.4414 0.0000 -10788.7902 1480.5031 0.0000 0.0000 1821.4402 -7476.0348 309.1889 -9297.4750 -7531.6630 297.4077 187.4276 235.8655 30510.9860 -108.8842 -39.5319
ENERGY: 600000 2.3318 2.8677 4.1080 0.0000 -10897.3662 1515.9367 0.0000 0.0000 1772.9829 -7599.1390 300.9633 -9372.1219 -7542.3330 300.4225 497.2179 565.4533 29983.7917 16.1035 79.3049
ENERGY: 900000 3.6190 4.1531 5.4599 0.0000 -10741.3653 1434.8781 0.0000 0.0000 1760.4231 -7532.8320 298.8312 -9293.2552 -7528.2044 300.6596 -41.6341 67.5615 30053.2522 94.8776 165.1969
ENERGY: 1200000 1.3514 5.1925 1.1238 0.0000 -10684.7503 1420.2920 0.0000 0.0000 1729.8540 -7526.9365 293.6422 -9256.7905 -7516.2999 301.4571 104.4340 161.0935 30457.9368 135.9364 195.8926
ENERGY: 1500000 1.8744 3.0786 4.4207 0.0000 -10686.6489 1340.8341 0.0000 0.0000 1761.3565 -7575.0846 298.9897 -9336.4411 -7515.3851 301.6429 -927.6488 -886.5799 30455.2571 45.3461 103.6868
TCL: Running FEP window   9: Lambda1 0.5999999999999996 Lambda2 0.5499999999999996 [dLambda -0.050000000000000044]
TCL: Setting parameter firsttimestep to 0
TCL: Setting parameter alchLambda to 0.5999999999999996
Info: NONBONDED TABLE R-SQUARED SPACING: 0.0625
Info: NONBONDED TABLE SIZE: 705 POINTS
TCL: Setting parameter alchLambda2 to 0.5499999999999996
Info: NONBONDED TABLE R-SQUARED SPACING: 0.0625
Info: NONBONDED TABLE SIZE: 705 POINTS
TCL: Running for 1500000 steps
ETITLE: TS BOND ANGLE DIHED IMPRP ELECT VDW BOUNDARY MISC KINETIC TOTAL TEMP POTENTIAL TOTALAVG TEMPAVG PRESSURE GPRESSURE VOLUME PRESSAVG GPRESSAVG
ENERGY: 0 1.8744 3.0786 4.4207 0.0000 -10685.8688 1340.2682 0.0000 0.0000 1760.4648 -7575.7620 298.8383 -9336.2268 -7575.7620 298.8383 -983.7576 -898.0486 30455.2571 -983.7576 -898.0486
ENERGY: 300000 3.5797 2.8087 2.3921 0.0000 -10772.9059 1463.1102 0.0000 0.0000 1760.9563 -7540.0590 298.9217 -9301.0152 -7545.3630 297.0512 498.9918 591.3557 29846.6271 -188.8320 -102.5506
ENERGY: 600000 1.1734 5.6688 2.1157 0.0000 -10774.4887 1499.3718 0.0000 0.0000 1775.0667 -7491.0922 301.3170 -9266.1589 -7527.1538 298.5129 183.0366 293.6723 30673.8281 -246.7372 -169.6727
ENERGY: 900000 6.9199 3.9314 4.9043 0.0000 -10794.7863 1513.6298 0.0000 0.0000 1791.0825 -7474.3185 304.0357 -9265.4009 -7510.4299 299.4480 408.9238 485.4506 30282.2172 -36.5935 41.6346
ENERGY: 1200000 2.6576 4.0918 3.0518 0.0000 -10613.3715 1358.3699 0.0000 0.0000 1747.3933 -7497.8071 296.6194 -9245.2004 -7508.4507 299.3704 -453.5104 -377.0511 30315.6260 -51.6765 24.4987
ENERGY: 1500000 5.2318 3.4959 0.6149 0.0000 -10798.2600 1466.2696 0.0000 0.0000 1759.1450 -7563.5028 298.6143 -9322.6477 -7512.0271 299.7516 347.7262 383.9707 30095.8887 -72.5251 -2.1384
TCL: Running FEP window  10: Lambda1 0.5499999999999996 Lambda2 0.4999999999999996 [dLambda -0.04999999999999999]
TCL: Setting parameter firsttimestep to 0
TCL: Setting parameter alchLambda to 0.5499999999999996
Info: NONBONDED TABLE R-SQUARED SPACING: 0.0625
Info: NONBONDED TABLE SIZE: 705 POINTS
TCL: Setting parameter alchLambda2 to 0.4999999999999996
Info: NONBONDED TABLE R-SQUARED SPACING: 0.0625
Info: NONBONDED TABLE SIZE: 705 POINTS
TCL: Running for 1500000 steps
ETITLE: TS BOND ANGLE DIHED IMPRP ELECT VDW BOUNDARY MISC KINETIC TOTAL TEMP POTENTIAL TOTALAVG TEMPAVG PRESSURE GPRESSURE VOLUME PRESSAVG GPRESSAVG
ENERGY: 0 5.2319 3.4959 0.6149 0.0000 -10797.7879 1466.6112 0.0000 0.0000 1758.2948 -7563.5392 298.4700 -9321.8340 -7563.5392 298.4700 307.5801 384.0001 30095.8887 307.5801 384.0001
ENERGY: 300000 1.6965 7.3878 3.1069 0.0000 -10697.7714 1349.3028 0.0000 0.0000 1792.0036 -7544.2738 304.1920 -9336.2774 -7536.8010 299.0267 -926.6259 -870.5654 30377.5975 -344.6313 -270.8804
ENERGY: 600000 5.0710 5.8572 2.7426 0.0000 -10801.5919 1476.5826 0.0000 0.0000 1786.4158 -7524.9226 303.2435 -9311.3385 -7544.3231 299.4725 203.2671 226.5333 30188.2475 -139.2914 -83.1093
ENERGY: 900000 3.2606 4.4394 3.7459 0.0000 -10643.6847 1369.7702 0.0000 0.0000 1752.0973 -7510.3713 297.4179 -9262.4686 -7533.8788 298.7676 -458.5134 -408.7331 30400.4283 -141.0109 -86.4478
ENERGY: 1200000 2.2013 1.2916 2.6032 0.0000 -10718.8413 1443.9691 0.0000 0.0000 1739.6993 -7529.0767 295.3134 -9268.7760 -7525.0489 299.0261 -146.1508 -70.1388 30512.1802 -119.4722 -68.1500
ENERGY: 1500000 3.3160 3.4920 2.5462 0.0000 -10673.5593 1374.6237 0.0000 0.0000 1760.2493 -7529.3322 298.8017 -9289.5814 -7524.1940 299.4039 -628.9868 -558.8812 30553.0645 -170.8166 -114.9644
TCL: Running FEP window  11: Lambda1 0.4999999999999996 Lambda2 0.4499999999999996 [dLambda -0.04999999999999999]
TCL: Setting parameter firsttimestep to 0
TCL: Setting parameter alchLambda to 0.4999999999999996
Info: NONBONDED TABLE R-SQUARED SPACING: 0.0625
Info: NONBONDED TABLE SIZE: 705 POINTS
TCL: Setting parameter alchLambda2 to 0.4499999999999996
Info: NONBONDED TABLE R-SQUARED SPACING: 0.0625
Info: NONBONDED TABLE SIZE: 705 POINTS
TCL: Running for 1500000 steps
ETITLE: TS BOND ANGLE DIHED IMPRP ELECT VDW BOUNDARY MISC KINETIC TOTAL TEMP POTENTIAL TOTALAVG TEMPAVG PRESSURE GPRESSURE VOLUME PRESSAVG GPRESSAVG
ENERGY: 0 3.3160 3.4920 2.5462 0.0000 -10673.0409 1374.9497 0.0000 0.0000 1759.3649 -7529.3721 298.6516 -9288.7370 -7529.3721 298.6516 -637.0153 -560.9353 30553.0645 -637.0153 -560.9353
ENERGY: 300000 3.4173 3.6868 2.2290 0.0000 -10792.1325 1477.5630 0.0000 0.0000 1720.0548 -7585.1815 291.9787 -9305.2364 -7551.8942 296.2802 20.2034 116.0950 30577.0855 -196.4432 -106.8982
ENERGY: 600000 1.9635 3.1804 4.5342 0.0000 -10760.0297 1432.6219 0.0000 0.0000 1808.6980 -7509.0317 307.0259 -9317.7297 -7549.8397 298.1990 304.5159 297.9451 30032.9037 -60.9897 15.3699
ENERGY: 900000 2.4749 5.5680 2.8050 0.0000 -10709.9633 1515.4364 0.0000 0.0000 1755.8026 -7427.8764 298.0469 -9183.6790 -7538.0463 297.5657 727.6148 763.9218 30730.0514 -17.2726 48.5815
ENERGY: 1200000 3.0752 4.5523 1.1526 0.0000 -10766.7932 1491.4096 0.0000 0.0000 1786.2159 -7480.3877 303.2096 -9266.6035 -7535.8433 298.2415 272.4793 384.3235 30432.2955 -24.1777 48.2219
ENERGY: 1500000 2.7801 4.2475 1.7871 0.0000 -10636.9892 1372.5414 0.0000 0.0000 1765.3940 -7490.2391 299.6750 -9255.6331 -7522.2715 298.1030 -651.6585 -641.0093 30854.6983 -11.7287 53.7852
TCL: Running FEP window  12: Lambda1 0.4499999999999996 Lambda2 0.39999999999999963 [dLambda -0.04999999999999999]
TCL: Setting parameter firsttimestep to 0
TCL: Setting parameter alchLambda to 0.4499999999999996
Info: NONBONDED TABLE R-SQUARED SPACING: 0.0625
Info: NONBONDED TABLE SIZE: 705 POINTS
TCL: Setting parameter alchLambda2 to 0.39999999999999963
Info: NONBONDED TABLE R-SQUARED SPACING: 0.0625
Info: NONBONDED TABLE SIZE: 705 POINTS
TCL: Running for 1500000 steps
ETITLE: TS BOND ANGLE DIHED IMPRP ELECT VDW BOUNDARY MISC KINETIC TOTAL TEMP POTENTIAL TOTALAVG TEMPAVG PRESSURE GPRESSURE VOLUME PRESSAVG GPRESSAVG
ENERGY: 0 2.7801 4.2475 1.7871 0.0000 -10636.9894 1372.8843 0.0000 0.0000 1764.5188 -7490.7716 299.5265 -9255.2905 -7490.7716 299.5265 -738.7367 -643.0928 30854.6983 -738.7367 -643.0928
ENERGY: 300000 3.8215 4.3894 4.8124 0.0000 -10703.3527 1416.3468 0.0000 0.0000 1749.1429 -7524.8397 296.9164 -9273.9825 -7533.4529 299.3459 -104.7587 -52.4656 30186.4011 36.2192 117.2961
ENERGY: 600000 3.8240 2.7178 2.9621 0.0000 -10823.5105 1460.7573 0.0000 0.0000 1831.0713 -7522.1779 310.8237 -9353.2493 -7527.4245 300.0040 132.9388 245.0089 30184.8711 -73.4913 18.7859
ENERGY: 900000 1.8775 4.0731 6.5209 0.0000 -10717.4476 1415.4220 0.0000 0.0000 1758.4454 -7531.1087 298.4955 -9289.5541 -7521.4153 301.1682 -224.3726 -186.0658 30254.2163 -72.4734 3.0226
ENERGY: 1200000 0.9856 2.5310 3.5949 0.0000 -10762.4800 1474.2372 0.0000 0.0000 1800.3618 -7480.7696 305.6108 -9281.1314 -7519.1995 301.4423 453.4510 518.4931 30008.0636 4.6543 77.5249
ENERGY: 1500000 1.3521 3.4108 2.4439 0.0000 -10636.0961 1385.6793 0.0000 0.0000 1750.2916 -7492.9183 297.1114 -9243.2099 -7508.4536 302.0034 -339.6609 -243.2731 30401.1015 -79.0810 -7.4552
TCL: Running FEP window  13: Lambda1 0.39999999999999963 Lambda2 0.34999999999999964 [dLambda -0.04999999999999999]
TCL: Setting parameter firsttimestep to 0
TCL: Setting parameter alchLambda to 0.39999999999999963
Info: NONBONDED TABLE R-SQUARED SPACING: 0.0625
Info: NONBONDED TABLE SIZE: 705 POINTS
TCL: Setting parameter alchLambda2 to 0.34999999999999964
Info: NONBONDED TABLE R-SQUARED SPACING: 0.0625
Info: NONBONDED TABLE SIZE: 705 POINTS
TCL: Running for 1500000 steps
ETITLE: TS BOND ANGLE DIHED IMPRP ELECT VDW BOUNDARY MISC KINETIC TOTAL TEMP POTENTIAL TOTALAVG TEMPAVG PRESSURE GPRESSURE VOLUME PRESSAVG GPRESSAVG
ENERGY: 0 1.3521 3.4108 2.4439 0.0000 -10636.0955 1385.1924 0.0000 0.0000 1749.4144 -7494.2818 296.9625 -9243.6962 -7494.2818 296.9625 -348.5420 -252.7298 30401.1015 -348.5420 -252.7298
ENERGY: 300000 4.3806 4.7166 2.4750 0.0000 -10592.2982 1420.6067 0.0000 0.0000 1720.3411 -7439.7783 292.0273 -9160.1194 -7504.9548 296.1858 -213.2755 -104.7063 30756.0132 -162.4687 -86.5110
ENERGY: 600000 4.1592 3.1993 3.2765 0.0000 -10768.8321 1491.1266 0.0000 0.0000 1787.3349 -7479.7357 303.3995 -9267.0706 -7493.8788 300.1142 607.4430 660.5268 30044.2966 18.8056 95.5686
ENERGY: 900000 2.6610 3.8439 3.9733 0.0000 -10774.6605 1452.0441 0.0000 0.0000 1714.4847 -7597.6536 291.0332 -9312.1383 -7496.6373 299.4098 -2.4604 35.5145 30527.1031 -38.6877 37.3188
ENERGY: 1200000 1.6621 1.9770 5.0304 0.0000 -10844.1665 1481.5899 0.0000 0.0000 1781.2231 -7572.6841 302.3620 -9353.9072 -7505.1874 301.6337 303.8690 346.4376 30110.8202 9.6462 80.2578
ENERGY: 1500000 2.5522 3.8984 1.3959 0.0000 -10593.7466 1347.8777 0.0000 0.0000 1729.3643 -7508.6581 293.5590 -9238.0225 -7498.5647 301.1198 -962.3547 -915.1575 30919.4350 -61.2326 7.9547
TCL: Running FEP window  14: Lambda1 0.34999999999999964 Lambda2 0.29999999999999966 [dLambda -0.04999999999999999]
TCL: Setting parameter firsttimestep to 0
TCL: Setting parameter alchLambda to 0.34999999999999964
Info: NONBONDED TABLE R-SQUARED SPACING: 0.0625
Info: NONBONDED TABLE SIZE: 705 POINTS
TCL: Setting parameter alchLambda2 to 0.29999999999999966
Info: NONBONDED TABLE R-SQUARED SPACING: 0.0625
Info: NONBONDED TABLE SIZE: 705 POINTS
TCL: Running for 1500000 steps
ETITLE: TS BOND ANGLE DIHED IMPRP ELECT VDW BOUNDARY MISC KINETIC TOTAL TEMP POTENTIAL TOTALAVG TEMPAVG PRESSURE GPRESSURE VOLUME PRESSAVG GPRESSAVG
ENERGY: 0 2.5521 3.8984 1.3959 0.0000 -10593.7465 1348.0572 0.0000 0.0000 1728.4947 -7509.3482 293.4114 -9237.8429 -7509.3482 293.4114 -1009.9316 -920.9766 30919.4350 -1009.9316 -920.9766
ENERGY: 300000 6.5202 3.6169 2.6373 0.0000 -10828.0297 1509.0490 0.0000 0.0000 1797.0322 -7509.1741 305.0456 -9306.2063 -7515.0590 300.6141 464.8920 495.1318 30595.0330 235.3449 273.8728
ENERGY: 600000 5.2457 1.7396 2.3326 0.0000 -10745.5989 1446.0794 0.0000 0.0000 1786.4022 -7503.7993 303.2412 -9290.2015 -7515.8744 300.1063 -261.9540 -259.3881 30543.7796 26.8908 80.7373
ENERGY: 900000 1.2838 3.8030 2.6921 0.0000 -10691.0712 1409.4623 0.0000 0.0000 1803.4232 -7470.4069 306.1305 -9273.8301 -7523.3744 299.9129 41.6750 74.0337 30167.9928 89.5079 148.5203
ENERGY: 1200000 4.2572 2.2196 1.4843 0.0000 -10622.4088 1329.7350 0.0000 0.0000 1729.1773 -7555.5354 293.5273 -9284.7127 -7540.0901 298.7826 -1124.1604 -1076.8441 30911.3282 38.6341 100.4114
ENERGY: 1500000 4.1399 4.5544 2.1584 0.0000 -10907.0211 1515.7549 0.0000 0.0000 1785.1280 -7595.2856 303.0249 -9380.4136 -7536.7076 298.7822 186.8157 234.7746 30427.3671 41.9174 100.8745
TCL: Running FEP window  15: Lambda1 0.29999999999999966 Lambda2 0.24999999999999967 [dLambda -0.04999999999999999]
TCL: Setting parameter firsttimestep to 0
TCL: Setting parameter alchLambda to 0.29999999999999966
Info: NONBONDED TABLE R-SQUARED SPACING: 0.0625
Info: NONBONDED TABLE SIZE: 705 POINTS
TCL: Setting parameter alchLambda2 to 0.24999999999999967
Info: NONBONDED TABLE R-SQUARED SPACING: 0.0625
Info: NONBONDED TABLE SIZE: 705 POINTS
TCL: Running for 1500000 steps
ETITLE: TS BOND ANGLE DIHED IMPRP ELECT VDW BOUNDARY MISC KINETIC TOTAL TEMP POTENTIAL TOTALAVG TEMPAVG PRESSURE GPRESSURE VOLUME PRESSAVG GPRESSAVG
ENERGY: 0 4.1399 4.5544 2.1584 0.0000 -10907.0213 1515.2574 0.0000 0.0000 1784.2493 -7596.6619 302.8757 -9380.9112 -7596.6619 302.8757 153.2551 226.5078 30427.3671 153.2551 226.5078
ENERGY: 300000 0.9475 2.4923 4.3985 0.0000 -10749.8789 1435.1221 0.0000 0.0000 1763.7481 -7543.1705 299.3957 -9306.9186 -7513.0384 301.7191 74.5969 166.6571 29837.2735 197.1163 280.3015
ENERGY: 600000 1.8834 7.8417 3.8226 0.0000 -10640.9840 1381.6431 0.0000 0.0000 1811.9990 -7433.7940 307.5862 -9245.7931 -7495.9108 300.6954 -412.0609 -296.2426 30295.7690 -21.2454 56.4927
ENERGY: 900000 3.2238 3.5406 7.1257 0.0000 -10782.8852 1402.9193 0.0000 0.0000 1768.4506 -7597.6251 300.1939 -9366.0758 -7514.5328 299.4505 -596.3072 -462.0217 29933.0643 -215.9780 -143.4663
ENERGY: 1200000 3.4291 1.8927 3.4899 0.0000 -10707.2710 1485.1399 0.0000 0.0000 1781.5646 -7431.7549 302.4200 -9213.3196 -7504.7939 300.0515 267.7187 336.6441 30608.2169 -229.2197 -158.1987
ENERGY: 1500000 1.9847 3.4125 3.7156 0.0000 -10861.6265 1499.7422 0.0000 0.0000 1791.8062 -7560.9652 304.1585 -9352.7714 -7518.6336 299.8920 16.5985 24.6876 30705.5597 -102.3270 -35.1150
TCL: Running FEP window  16: Lambda1 0.24999999999999967 Lambda2 0.19999999999999968 [dLambda -0.04999999999999999]
TCL: Setting parameter firsttimestep to 0
TCL: Setting parameter alchLambda to 0.24999999999999967
Info: NONBONDED TABLE R-SQUARED SPACING: 0.0625
Info: NONBONDED TABLE SIZE: 705 POINTS
TCL: Setting parameter alchLambda2 to 0.19999999999999968
Info: NONBONDED TABLE R-SQUARED SPACING: 0.0625
Info: NONBONDED TABLE SIZE: 705 POINTS
TCL: Running for 1500000 steps
ETITLE: TS BOND ANGLE DIHED IMPRP ELECT VDW BOUNDARY MISC KINETIC TOTAL TEMP POTENTIAL TOTALAVG TEMPAVG PRESSURE GPRESSURE VOLUME PRESSAVG GPRESSAVG
ENERGY: 0 1.9847 3.4125 3.7157 0.0000 -10861.6271 1499.6262 0.0000 0.0000 1790.9408 -7561.9473 304.0116 -9352.8881 -7561.9473 304.0116 -61.6817 20.4868 30705.5597 -61.6817 20.4868
ENERGY: 300000 4.2897 3.6458 3.9300 0.0000 -10704.5840 1391.8271 0.0000 0.0000 1786.9127 -7513.9786 303.3278 -9300.8913 -7507.7754 301.9844 -346.7577 -349.4515 30323.4590 -454.2842 -385.8804
ENERGY: 600000 2.6331 2.2360 3.1099 0.0000 -10756.1934 1504.8559 0.0000 0.0000 1762.7797 -7480.5789 299.2313 -9243.3586 -7499.9406 300.8118 436.4461 496.3139 30328.3020 -201.4048 -138.3823
ENERGY: 900000 3.4079 2.8064 3.9048 0.0000 -10803.3941 1471.1074 0.0000 0.0000 1777.4223 -7544.7454 301.7168 -9322.1677 -7507.9063 301.3708 -83.6055 -17.1658 30479.2402 -13.3161 45.1852
ENERGY: 1200000 2.0847 3.9677 1.9892 0.0000 -10735.9859 1448.4327 0.0000 0.0000 1796.8764 -7482.6353 305.0192 -9279.5117 -7506.7184 302.0801 181.4900 212.4361 29996.4712 39.7479 91.5053
ENERGY: 1500000 2.7153 2.0862 1.3959 0.0000 -10574.6644 1330.6202 0.0000 0.0000 1725.0286 -7512.8183 292.8230 -9237.8468 -7511.6894 301.0571 -766.7333 -763.9210 30365.1002 -69.1653 -18.6152
TCL: Running FEP window  17: Lambda1 0.19999999999999968 Lambda2 0.1499999999999997 [dLambda -0.04999999999999999]
TCL: Setting parameter firsttimestep to 0
TCL: Setting parameter alchLambda to 0.19999999999999968
Info: NONBONDED TABLE R-SQUARED SPACING: 0.0625
Info: NONBONDED TABLE SIZE: 705 POINTS
TCL: Setting parameter alchLambda2 to 0.1499999999999997
Info: NONBONDED TABLE R-SQUARED SPACING: 0.0625
Info: NONBONDED TABLE SIZE: 705 POINTS
TCL: Running for 1500000 steps
ETITLE: TS BOND ANGLE DIHED IMPRP ELECT VDW BOUNDARY MISC KINETIC TOTAL TEMP POTENTIAL TOTALAVG TEMPAVG PRESSURE GPRESSURE VOLUME PRESSAVG GPRESSAVG
ENERGY: 0 2.7153 2.0862 1.3959 0.0000 -10574.6635 1331.0053 0.0000 0.0000 1724.1197 -7513.3410 292.6688 -9237.4607 -7513.3410 292.6688 -853.1987 -767.6364 30365.1002 -853.1987 -767.6364
ENERGY: 300000 5.8257 3.2974 4.4370 0.0000 -10658.0944 1339.2958 0.0000 0.0000 1741.5317 -7563.7067 295.6244 -9305.2384 -7555.8886 292.4928 -1015.5214 -988.0699 30381.9395 -649.9721 -592.4220
ENERGY: 600000 3.0850 3.0344 1.4365 0.0000 -10689.5987 1414.5030 0.0000 0.0000 1769.1208 -7498.4191 300.3077 -9267.5399 -7542.7137 294.1685 -112.7099 -75.6366 30250.3422 -397.2007 -340.2049
ENERGY: 900000 2.1185 5.1711 2.6182 0.0000 -10668.5105 1445.4349 0.0000 0.0000 1773.0421 -7440.1258 300.9733 -9213.1679 -7531.7185 295.9236 -11.2487 113.9902 30569.6648 -249.5272 -186.6855
ENERGY: 1200000 5.1534 4.3675 3.6895 0.0000 -10635.6984 1419.2107 0.0000 0.0000 1763.4872 -7439.7900 299.3514 -9203.2772 -7521.3709 296.8923 -88.5495 -17.2358 30570.5204 -200.4993 -133.4104
ENERGY: 1500000 1.6749 3.3081 5.0848 0.0000 -10725.7248 1458.6074 0.0000 0.0000 1801.9276 -7455.1219 305.8766 -9257.0495 -7518.8363 296.6992 105.6913 184.6180 30395.7247 -235.1276 -172.4792
TCL: Running FEP window  18: Lambda1 0.1499999999999997 Lambda2 0.09999999999999969 [dLambda -0.05 ]
TCL: Setting parameter firsttimestep to 0
TCL: Setting parameter alchLambda to 0.1499999999999997
Info: NONBONDED TABLE R-SQUARED SPACING: 0.0625
Info: NONBONDED TABLE SIZE: 705 POINTS
TCL: Setting parameter alchLambda2 to 0.09999999999999969
Info: NONBONDED TABLE R-SQUARED SPACING: 0.0625
Info: NONBONDED TABLE SIZE: 705 POINTS
TCL: Running for 1500000 steps
ETITLE: TS BOND ANGLE DIHED IMPRP ELECT VDW BOUNDARY MISC KINETIC TOTAL TEMP POTENTIAL TOTALAVG TEMPAVG PRESSURE GPRESSURE VOLUME PRESSAVG GPRESSAVG
ENERGY: 0 1.6749 3.3081 5.0848 0.0000 -10725.7239 1459.0864 0.0000 0.0000 1801.0531 -7455.5165 305.7282 -9256.5696 -7455.5165 305.7282 111.0578 185.0796 30395.7247 111.0578 185.0796
ENERGY: 300000 3.3001 7.0579 1.7304 0.0000 -10849.1038 1524.0371 0.0000 0.0000 1790.2758 -7522.7025 303.8987 -9312.9782 -7485.7940 300.1651 541.5003 562.7211 30303.2889 240.7602 297.6081
ENERGY: 600000 2.0170 3.6869 2.8700 0.0000 -10938.1707 1502.8330 0.0000 0.0000 1712.2420 -7714.5218 290.6525 -9426.7638 -7526.7091 299.1883 214.8609 267.0334 29857.6541 167.7960 235.4859
ENERGY: 900000 2.2570 4.9354 2.5089 0.0000 -10778.7547 1426.4590 0.0000 0.0000 1760.5859 -7582.0085 298.8589 -9342.5944 -7548.1461 298.5956 -282.0225 -256.8846 30227.9544 70.4782 120.5511
ENERGY: 1200000 1.6247 8.1724 3.6468 0.0000 -10757.5782 1466.7535 0.0000 0.0000 1813.7072 -7463.6736 307.8762 -9277.3808 -7548.9705 299.5368 -43.3344 -0.1409 30518.1511 21.5972 76.8635
ENERGY: 1500000 2.3654 6.2627 3.2826 0.0000 -10494.7145 1272.4325 0.0000 0.0000 1764.3938 -7445.9775 299.5053 -9210.3713 -7553.5985 298.9139 -1441.4022 -1378.6493 30879.8760 -20.8566 35.7224
TCL: Running FEP window  19: Lambda1 0.09999999999999969 Lambda2 0.049999999999999684 [dLambda -0.05 ]
TCL: Setting parameter firsttimestep to 0
TCL: Setting parameter alchLambda to 0.09999999999999969
Info: NONBONDED TABLE R-SQUARED SPACING: 0.0625
Info: NONBONDED TABLE SIZE: 705 POINTS
TCL: Setting parameter alchLambda2 to 0.049999999999999684
Info: NONBONDED TABLE R-SQUARED SPACING: 0.0625
Info: NONBONDED TABLE SIZE: 705 POINTS
TCL: Running for 1500000 steps
ETITLE: TS BOND ANGLE DIHED IMPRP ELECT VDW BOUNDARY MISC KINETIC TOTAL TEMP POTENTIAL TOTALAVG TEMPAVG PRESSURE GPRESSURE VOLUME PRESSAVG GPRESSAVG
ENERGY: 0 2.3654 6.2627 3.2826 0.0000 -10494.7139 1271.8393 0.0000 0.0000 1763.5062 -7447.4577 299.3546 -9210.9640 -7447.4577 299.3546 -1470.1024 -1385.7415 30879.8760 -1470.1024 -1385.7415
ENERGY: 300000 3.1475 1.3616 3.5712 0.0000 -10784.4507 1472.7933 0.0000 0.0000 1798.0171 -7505.5601 305.2128 -9303.5772 -7493.9450 302.5297 -103.3004 -34.9560 30692.3621 -413.9735 -337.4431
ENERGY: 600000 1.5368 1.9210 3.8034 0.0000 -10677.6616 1396.6627 0.0000 0.0000 1776.8321 -7496.9057 301.6167 -9273.7377 -7503.3671 300.5963 -306.1155 -257.9723 30387.4844 -387.3278 -326.4740
ENERGY: 900000 1.2746 3.0716 3.2955 0.0000 -10686.3388 1390.5199 0.0000 0.0000 1742.4730 -7545.7042 295.7842 -9288.1772 -7496.8003 299.4550 -534.7664 -480.5935 30416.5728 -264.2630 -210.7014
ENERGY: 1200000 3.2403 4.5500 2.4264 0.0000 -10719.2269 1414.5973 0.0000 0.0000 1769.8104 -7524.6026 300.4247 -9294.4130 -7503.8901 299.7016 -407.1152 -359.9475 30357.0452 -178.3858 -125.7975
ENERGY: 1500000 4.2407 3.6055 2.0715 0.0000 -10752.3824 1472.0960 0.0000 0.0000 1775.9387 -7494.4300 301.4650 -9270.3687 -7504.6861 299.9503 284.1495 313.4793 30083.5338 -138.5236 -89.1734
TCL: Running FEP window  20: Lambda1 0.049999999999999684 Lambda2 0.0    [dLambda -0.049999999999999684]
TCL: Setting parameter firsttimestep to 0
TCL: Setting parameter alchLambda to 0.049999999999999684
Info: NONBONDED TABLE R-SQUARED SPACING: 0.0625
Info: NONBONDED TABLE SIZE: 705 POINTS
TCL: Setting parameter alchLambda2 to 0.0
Info: NONBONDED TABLE R-SQUARED SPACING: 0.0625
Info: NONBONDED TABLE SIZE: 705 POINTS
TCL: Running for 1500000 steps
ETITLE: TS BOND ANGLE DIHED IMPRP ELECT VDW BOUNDARY MISC KINETIC TOTAL TEMP POTENTIAL TOTALAVG TEMPAVG PRESSURE GPRESSURE VOLUME PRESSAVG GPRESSAVG
ENERGY: 0 4.2407 3.6055 2.0715 0.0000 -10752.3823 1472.1710 0.0000 0.0000 1775.0643 -7495.2292 301.3166 -9270.2936 -7495.2292 301.3166 224.2799 312.0997 30083.5338 224.2799 312.0997
ENERGY: 300000 2.8629 2.0507 4.1081 0.0000 -10613.1735 1377.8861 0.0000 0.0000 1754.4102 -7471.8555 297.8105 -9226.2657 -7505.2246 297.7650 -692.4996 -612.6370 30940.2862 -398.6552 -344.1897
ENERGY: 600000 0.9261 5.8934 1.1274 0.0000 -10725.0030 1431.7496 0.0000 0.0000 1738.7141 -7546.5925 295.1461 -9285.3066 -7514.8397 298.7112 -150.4266 -142.8233 30663.4985 -350.2635 -301.3278
ENERGY: 900000 2.4928 5.9251 5.0687 0.0000 -10624.7955 1411.8239 0.0000 0.0000 1866.8964 -7332.5886 316.9050 -9199.4850 -7486.4687 301.1247 -140.7859 -85.5358 30495.2590 -316.4889 -261.3801
ENERGY: 1200000 8.1174 8.6984 4.1263 0.0000 -10734.1782 1372.6906 0.0000 0.0000 1778.4450 -7562.1005 301.8904 -9340.5454 -7494.7737 301.3683 -1200.0428 -1139.7548 30607.1452 -376.2643 -312.7634
ENERGY: 1500000 3.4712 4.9138 2.6876 0.0000 -10787.0299 1450.8850 0.0000 0.0000 1784.6318 -7540.4404 302.9407 -9325.0722 -7506.0906 300.9439 -203.2871 -96.4855 30268.1136 -294.8719 -228.9848
TCL: Exiting due to exit command.
