Info: SIMULATION PARAMETERS:
Info: TIMESTEP               2
Info: NUMBER OF STEPS        0
Info: STEPS PER CYCLE        10
Info: PERIODIC CELL BASIS 1  30.9927 0 0
Info: PERIODIC CELL BASIS 2  0 29.5868 0
Info: PERIODIC CELL BASIS 3  0 0 32.5084
Info: PERIODIC CELL CENTER   0 0 0
Info: WRAPPING WATERS AROUND PERIODIC BOUNDARIES ON OUTPUT.
Info: WRAPPING ALL CLUSTERS AROUND PERIODIC BOUNDARIES ON OUTPUT.
Info: FIRST LDB TIMESTEP     50
Info: LAST LDB TIMESTEP     -1
Info: HOM BACKGROUND SCALING 1
Info: PME BACKGROUND SCALING 1
Info: MIN ATOMS PER PATCH    40
Info: EMPTY PATCH LOAD       40 ATOMS
Info: VELOCITY FILE          mobley_3183805_equil.vel
Info: CENTER OF MASS MOVING INITIALLY? NO
Info: DIELECTRIC             1
Info: EXCLUDE                SCALED ONE-FOUR
Info: 1-4 ELECTROSTATICS SCALED BY 0.833333
Info: MODIFIED 1-4 VDW PARAMETERS WILL BE USED
Info: DCD FILENAME           mobley_3183805_prod.dcd
Info: DCD FREQUENCY          100000
Info: DCD FIRST STEP         100000
Info: DCD FILE WILL CONTAIN UNIT CELL DATA
Info: XST FILENAME           mobley_3183805_prod.xst
Info: XST FREQUENCY          100000
Info: NO VELOCITY DCD OUTPUT
Info: NO FORCE DCD OUTPUT
Info: OUTPUT FILENAME        mobley_3183805_prod
Info: BINARY OUTPUT FILES WILL BE USED
Info: RESTART FILENAME       mobley_3183805_prod.restart
Info: RESTART FREQUENCY      100000
Info: BINARY RESTART FILES WILL BE USED
Info: CUTOFF                 9
Info: PAIRLIST DISTANCE      11
Info: PAIRLIST SHRINK RATE   0.01
Info: PAIRLIST GROW RATE     0.01
Info: PAIRLIST TRIGGER       0.3
Info: PAIRLISTS PER CYCLE    2
Info: PAIRLISTS ENABLED
Info: MARGIN                 2
Info: HYDROGEN GROUP CUTOFF  2.5
Info: PATCH DIMENSION        15.5
Info: ENERGY OUTPUT STEPS    100000
Info: ENERGY EVALUATION STEPS    100000
Info: OUTPUT ENERGY PRECISION 4
Info: CROSSTERM ENERGY INCLUDED IN DIHEDRAL
Info: TIMING OUTPUT STEPS    1000000
Info: PRESSURE OUTPUT STEPS  100000
Info: ALCHEMICAL FEP ON
Info: FEP CURRENT LAMBDA VALUE     0
Info: FEP COMPARISON LAMBDA VALUE  0.05
Info: FEP INTRA-ALCHEMICAL NON-BONDED INTERACTIONS WILL BE RETAINED
Info: FEP INTRA-ALCHEMICAL BONDED INTERACTIONS WILL BE RETAINED
Info: FEP VDW SHIFTING COEFFICIENT 5
Info: FEP ELEC. ACTIVE FOR ANNIHILATED PARTICLES BETWEEN LAMBDA = 0 AND LAMBDA = 0.5
Info: FEP ELEC. ACTIVE FOR EXNIHILATED PARTICLES BETWEEN LAMBDA = 0.5 AND LAMBDA = 1
Info: FEP VDW ACTIVE FOR ANNIHILATED PARTICLES BETWEEN LAMBDA = 0 AND LAMBDA = 1
Info: FEP VDW ACTIVE FOR EXNIHILATED PARTICLES BETWEEN LAMBDA = 0 AND LAMBDA = 1
Info: FEP BOND ACTIVE FOR ANNIHILATED PARTICLES BETWEEN LAMBDA = 1 AND LAMBDA = 1
Info: FEP BOND ACTIVE FOR EXNIHILATED PARTICLES BETWEEN LAMBDA = 0 AND LAMBDA = 0
Info: LANGEVIN DYNAMICS ACTIVE
Info: LANGEVIN TEMPERATURE   300
Info: LANGEVIN USING BBK INTEGRATOR
Info: LANGEVIN DAMPING COEFFICIENT IS 1 INVERSE PS
Info: LANGEVIN DYNAMICS APPLIED TO HYDROGENS
Info: LANGEVIN PISTON PRESSURE CONTROL ACTIVE
Info:        TARGET PRESSURE IS 1.01325 BAR
Info:     OSCILLATION PERIOD IS 50 FS
Info:             DECAY TIME IS 25 FS
Info:     PISTON TEMPERATURE IS 300 K
Info:       PRESSURE CONTROL IS GROUP-BASED
Info:    INITIAL STRAIN RATE IS -0.000274809 -0.000274809 -0.000274809
Info:       CELL FLUCTUATION IS ISOTROPIC
Info: PARTICLE MESH EWALD (PME) ACTIVE
Info: PME TOLERANCE               1e-06
Info: PME EWALD COEFFICIENT       0.348832
Info: PME INTERPOLATION ORDER     4
Info: PME GRID DIMENSIONS         32 32 36
Info: PME MAXIMUM GRID SPACING    1
Info: PME CALCULATION WILL BE PERFORMED ON GPU
Info: FULL ELECTROSTATIC EVALUATION FREQUENCY      2
Info: USING VERLET I (r-RESPA) MTS SCHEME.
Info: C1 SPLITTING OF LONG RANGE ELECTROSTATICS
Info: PLACING ATOMS IN PATCHES BY HYDROGEN GROUPS
Info: RIGID BONDS TO HYDROGEN : ALL
Info:         ERROR TOLERANCE : 1e-08
Info:          MAX ITERATIONS : 100
Info: RIGID WATER USING SETTLE ALGORITHM
Info: RANDOM NUMBER SEED     1743623193
Info: USE HYDROGEN BONDS?    NO
Info: Using AMBER format force field!
Info: AMBER PARM FILE        mobley_3183805.prmtop
Info: COORDINATE PDB         mobley_3183805.pdb
Info: Exclusions will be read from PARM file!
Info: SCNB (VDW SCALING)     2
Info: USING ARITHMETIC MEAN TO COMBINE L-J SIGMA PARAMETERS
Info: BINARY COORDINATES     mobley_3183805_equil.coor
Info: SUMMARY OF PARAMETERS:
Info: 6 BONDS
Info: 5 ANGLES
Info:   5 HARMONIC
Info:   0 COSINE-BASED
Info: 3 DIHEDRAL
Info: 0 IMPROPER
Info: 0 CROSSTERM
Info: 0 VDW
Info: 21 VDW_PAIRS
Info: 0 NBTHOLE_PAIRS
Info: To read alchdata from file: mobley_3183805.pdb
Info: To read alchflag data from column: 5
Info: STRUCTURE SUMMARY:
Info: 2913 ATOMS
Info: 2913 BONDS
Info: 36 ANGLES
Info: 48 DIHEDRALS
Info: 0 IMPROPERS
Info: 0 CROSSTERMS
Info: 2988 EXCLUSIONS
Info: 2904 RIGID BONDS
Info: ALCH: 0 ATOMS TO DISAPPEAR IN FINAL STATE
Info: ALCH: 21 ATOMS TO APPEAR IN FINAL STATE
Info: 5835 DEGREES OF FREEDOM
Info: 973 HYDROGEN GROUPS
Info: 4 ATOMS IN LARGEST HYDROGEN GROUP
Info: 973 MIGRATION GROUPS
Info: 4 ATOMS IN LARGEST MIGRATION GROUP
Info: TOTAL MASS = 17487.6 amu
Info: TOTAL CHARGE = 0.000399988 e
Info: MASS DENSITY = 0.974172 g/cm^3
Info: ATOM DENSITY = 0.0977207 atoms/A^3
Info: ADDED 0 IMPLICIT EXCLUSIONS
Info: NONBONDED TABLE R-SQUARED SPACING: 0.0625
Info: NONBONDED TABLE SIZE: 705 POINTS
Info: REMOVING COM VELOCITY 0.0401733 -0.0175937 0.134905
Info: Use 3D box decompostion in PME FFT.
Info: Updated CUDA force table with 4096 elements.
Info: Updated CUDA LJ table with 6 x 6 elements.
Info: Found 23 unique exclusion lists needing 64 bytes
TCL: Running for 1500000 steps
ETITLE: TS BOND ANGLE DIHED IMPRP ELECT VDW BOUNDARY MISC KINETIC TOTAL TEMP POTENTIAL TOTALAVG TEMPAVG PRESSURE GPRESSURE VOLUME PRESSAVG GPRESSAVG
ENERGY: 0 1.5368 5.9412 1.7647 0.0000 -10698.8964 1514.2312 0.0000 0.0000 1734.9707 -7440.4518 299.2552 -9175.4225 -7440.4518 299.2552 494.2220 575.5307 29809.4572 494.2220 575.5307
ENERGY: 300000 3.8793 8.6064 2.8002 0.0000 -10364.6806 1358.4889 0.0000 0.0000 1740.2361 -7250.6697 300.1634 -8990.9058 -7376.9897 298.0830 -659.8849 -574.0726 30443.5041 -194.1180 -114.6662
ENERGY: 600000 3.8156 7.1267 1.1228 0.0000 -10444.4408 1368.5253 0.0000 0.0000 1760.2422 -7303.6084 303.6141 -9063.8506 -7338.3905 301.0162 -441.4425 -443.3967 30242.4504 -188.6939 -128.9014
ENERGY: 900000 2.4133 7.1560 1.9599 0.0000 -10566.5577 1443.2674 0.0000 0.0000 1734.8374 -7376.9236 299.2322 -9111.7610 -7347.6578 300.5235 221.7601 302.5502 29505.0229 -17.8196 49.1151
ENERGY: 1200000 4.6484 4.3573 2.3467 0.0000 -10659.6715 1490.7764 0.0000 0.0000 1674.6167 -7482.9261 288.8451 -9157.5428 -7361.0049 299.7376 178.5163 224.7100 29928.1551 45.0546 110.6686
ENERGY: 1500000 5.1098 8.8131 2.9068 0.0000 -10611.6042 1433.6144 0.0000 0.0000 1742.4446 -7418.7154 300.5443 -9161.1600 -7370.8879 299.2710 -15.1202 12.6309 29549.6573 54.2357 109.7999
TCL: Running FEP window   2: Lambda1 0.05   Lambda2 0.1    [dLambda 0.05  ]
TCL: Setting parameter firsttimestep to 0
TCL: Setting parameter alchLambda to 0.05
Info: NONBONDED TABLE R-SQUARED SPACING: 0.0625
Info: NONBONDED TABLE SIZE: 705 POINTS
TCL: Setting parameter alchLambda2 to 0.1
Info: NONBONDED TABLE R-SQUARED SPACING: 0.0625
Info: NONBONDED TABLE SIZE: 705 POINTS
TCL: Running for 1500000 steps
ETITLE: TS BOND ANGLE DIHED IMPRP ELECT VDW BOUNDARY MISC KINETIC TOTAL TEMP POTENTIAL TOTALAVG TEMPAVG PRESSURE GPRESSURE VOLUME PRESSAVG GPRESSAVG
ENERGY: 0 5.1098 8.8131 2.9068 0.0000 -10611.6037 1436.3772 0.0000 0.0000 1741.5859 -7416.8109 300.3962 -9158.3968 -7416.8109 300.3962 -73.0280 18.7676 29549.6573 -73.0280 18.7676
ENERGY: 300000 3.2208 6.6431 1.1292 0.0000 -10500.4961 1367.9549 0.0000 0.0000 1697.1928 -7424.3553 292.7391 -9121.5482 -7355.5354 295.9838 -541.0109 -441.7971 29770.7800 -240.1374 -157.8874
ENERGY: 600000 1.0836 8.3275 1.5932 0.0000 -10483.6263 1293.7461 0.0000 0.0000 1693.2505 -7485.6253 292.0591 -9178.8759 -7382.8543 295.9283 -1206.1338 -1141.7144 29661.0408 -327.5206 -258.0221
ENERGY: 900000 3.1509 7.8133 3.4552 0.0000 -10750.2391 1551.2011 0.0000 0.0000 1751.5846 -7433.0340 302.1208 -9184.6186 -7389.2799 297.2347 783.2204 845.9740 29552.4031 -331.0011 -264.3899
ENERGY: 1200000 2.3496 8.8130 2.4844 0.0000 -10465.7719 1399.1652 0.0000 0.0000 1728.6892 -7324.2705 298.1717 -9052.9597 -7386.3010 299.0834 -101.7531 -63.0576 30069.3455 -174.4413 -108.9157
ENERGY: 1500000 2.1497 12.1644 1.3598 0.0000 -10507.1088 1375.8938 0.0000 0.0000 1731.6211 -7383.9200 298.6774 -9115.5410 -7387.5829 299.0522 -223.7773 -180.6823 29295.0383 -180.2447 -115.6972
TCL: Running FEP window   3: Lambda1 0.1    Lambda2 0.15000000000000002 [dLambda 0.05000000000000002]
TCL: Setting parameter firsttimestep to 0
TCL: Setting parameter alchLambda to 0.1
Info: NONBONDED TABLE R-SQUARED SPACING: 0.0625
Info: NONBONDED TABLE SIZE: 705 POINTS
TCL: Setting parameter alchLambda2 to 0.15000000000000002
Info: NONBONDED TABLE R-SQUARED SPACING: 0.0625
Info: NONBONDED TABLE SIZE: 705 POINTS
TCL: Running for 1500000 steps
ETITLE: TS BOND ANGLE DIHED IMPRP ELECT VDW BOUNDARY MISC KINETIC TOTAL TEMP POTENTIAL TOTALAVG TEMPAVG PRESSURE GPRESSURE VOLUME PRESSAVG GPRESSAVG
ENERGY: 0 2.1497 12.1644 1.3598 0.0000 -10507.1088 1377.5576 0.0000 0.0000 1730.7378 -7383.1394 298.5251 -9113.8772 -7383.1394 298.5251 -283.3031 -173.3013 29295.0383 -283.3031 -173.3013
ENERGY: 300000 4.4191 11.1563 4.3554 0.0000 -10469.4986 1376.8833 0.0000 0.0000 1745.9955 -7326.6890 301.1568 -9072.6845 -7340.1666 303.7276 -435.5619 -449.1844 30237.6506 244.6528 255.4869
ENERGY: 600000 1.5849 6.3303 4.6714 0.0000 -10585.2592 1415.6364 0.0000 0.0000 1783.6020 -7373.4342 307.6433 -9157.0362 -7356.4428 303.9401 178.1663 201.3464 29200.0628 261.9244 291.2034
ENERGY: 900000 2.0275 6.1859 3.4298 0.0000 -10590.9783 1503.8638 0.0000 0.0000 1801.7059 -7273.7653 310.7659 -9075.4712 -7336.2949 303.7563 808.5719 928.8948 29715.6360 146.6669 191.4830
ENERGY: 1200000 4.6269 4.5189 2.2456 0.0000 -10507.3863 1377.8947 0.0000 0.0000 1795.4124 -7322.6878 309.6804 -9118.1002 -7336.7564 303.6071 -537.2325 -497.4343 29712.1581 20.8473 69.8931
ENERGY: 1500000 3.0042 10.1006 1.5050 0.0000 -10520.8651 1377.8858 0.0000 0.0000 1734.7948 -7393.5746 299.2248 -9128.3695 -7348.9587 302.2678 -446.9484 -338.5283 29762.9136 -7.5013 45.8239
TCL: Running FEP window   4: Lambda1 0.15000000000000002 Lambda2 0.2    [dLambda 0.04999999999999999]
TCL: Setting parameter firsttimestep to 0
TCL: Setting parameter alchLambda to 0.15000000000000002
Info: NONBONDED TABLE R-SQUARED SPACING: 0.0625
Info: NONBONDED TABLE SIZE: 705 POINTS
TCL: Setting parameter alchLambda2 to 0.2
Info: NONBONDED TABLE R-SQUARED SPACING: 0.0625
Info: NONBONDED TABLE SIZE: 705 POINTS
TCL: Running for 1500000 steps
ETITLE: TS BOND ANGLE DIHED IMPRP ELECT VDW BOUNDARY MISC KINETIC TOTAL TEMP POTENTIAL TOTALAVG TEMPAVG PRESSURE GPRESSURE VOLUME PRESSAVG GPRESSAVG
ENERGY: 0 3.0042 10.1006 1.5050 0.0000 -10520.8656 1380.7516 0.0000 0.0000 1733.9509 -7391.5534 299.0793 -9125.5043 -7391.5534 299.0793 -403.7230 -323.5071 29762.9136 -403.7230 -323.5071
ENERGY: 300000 2.2932 5.4646 4.6069 0.0000 -10546.7565 1480.8102 0.0000 0.0000 1754.8075 -7298.7741 302.6767 -9053.5816 -7320.2089 299.7249 575.8272 662.0651 29737.2532 260.8215 312.8632
ENERGY: 600000 2.6933 14.5110 4.3524 0.0000 -10388.9158 1368.9846 0.0000 0.0000 1758.2448 -7240.1298 303.2696 -8998.3746 -7311.6226 300.0423 -521.9983 -432.5100 30377.2091 -148.1667 -81.4186
ENERGY: 900000 2.7059 6.7293 5.3144 0.0000 -10504.0446 1450.0914 0.0000 0.0000 1738.0524 -7301.1512 299.7867 -9039.2036 -7325.9589 299.5349 442.2913 420.7272 29896.7829 -41.4816 10.7764
ENERGY: 1200000 3.6677 7.1257 5.8433 0.0000 -10601.2175 1486.7293 0.0000 0.0000 1714.5248 -7383.3268 295.7286 -9097.8516 -7337.6774 299.1915 261.4382 419.1382 29835.7583 -25.4063 40.7090
ENERGY: 1500000 0.7818 6.5424 0.8401 0.0000 -10596.0943 1447.0177 0.0000 0.0000 1782.1340 -7358.7783 307.3901 -9140.9123 -7342.7898 299.5390 84.9216 139.1397 29829.9361 -63.9511 0.0972
TCL: Running FEP window   5: Lambda1 0.2    Lambda2 0.25   [dLambda 0.04999999999999999]
TCL: Setting parameter firsttimestep to 0
TCL: Setting parameter alchLambda to 0.2
Info: NONBONDED TABLE R-SQUARED SPACING: 0.0625
Info: NONBONDED TABLE SIZE: 705 POINTS
TCL: Setting parameter alchLambda2 to 0.25
Info: NONBONDED TABLE R-SQUARED SPACING: 0.0625
Info: NONBONDED TABLE SIZE: 705 POINTS
TCL: Running for 1500000 steps
ETITLE: TS BOND ANGLE DIHED IMPRP ELECT VDW BOUNDARY MISC KINETIC TOTAL TEMP POTENTIAL TOTALAVG TEMPAVG PRESSURE GPRESSURE VOLUME PRESSAVG GPRESSAVG
ENERGY: 0 0.7818 6.5424 0.8401 0.0000 -10596.0956 1447.3552 0.0000 0.0000 1781.2728 -7359.3032 307.2416 -9140.5760 -7359.3032 307.2416 56.4789 146.5721 29829.9361 56.4789 146.5721
ENERGY: 300000 2.4562 5.7205 2.5826 0.0000 -10485.2573 1394.8222 0.0000 0.0000 1668.2558 -7411.4200 287.7479 -9079.6758 -7364.9594 301.2751 -230.3028 -169.6589 29931.4302 -150.5089 -107.6456
ENERGY: 600000 1.5813 11.3118 1.3589 0.0000 -10395.6708 1331.9514 0.0000 0.0000 1694.3430 -7355.1245 292.2475 -9049.4674 -7359.0310 299.7062 -506.9351 -466.3938 29736.4604 -253.1377 -199.8889
ENERGY: 900000 2.4872 10.8269 1.8394 0.0000 -10441.2895 1453.7685 0.0000 0.0000 1720.7654 -7251.6020 296.8050 -8972.3675 -7341.9735 299.4062 538.3755 610.2776 29881.9879 -133.8002 -81.6096
ENERGY: 1200000 5.0342 7.1666 2.7549 0.0000 -10486.9558 1410.7104 0.0000 0.0000 1786.7287 -7274.5610 308.1826 -9061.2897 -7341.2495 300.8143 -281.8807 -240.6221 30335.8032 -95.1188 -34.6877
ENERGY: 1500000 3.1556 8.2146 2.0085 0.0000 -10398.3713 1336.2690 0.0000 0.0000 1727.2167 -7321.5069 297.9177 -9048.7236 -7347.5015 300.0403 -298.4251 -279.2622 29716.7937 -110.9810 -56.5731
TCL: Running FEP window   6: Lambda1 0.25   Lambda2 0.3    [dLambda 0.04999999999999999]
TCL: Setting parameter firsttimestep to 0
TCL: Setting parameter alchLambda to 0.25
Info: NONBONDED TABLE R-SQUARED SPACING: 0.0625
Info: NONBONDED TABLE SIZE: 705 POINTS
TCL: Setting parameter alchLambda2 to 0.3
Info: NONBONDED TABLE R-SQUARED SPACING: 0.0625
Info: NONBONDED TABLE SIZE: 705 POINTS
TCL: Running for 1500000 steps
ETITLE: TS BOND ANGLE DIHED IMPRP ELECT VDW BOUNDARY MISC KINETIC TOTAL TEMP POTENTIAL TOTALAVG TEMPAVG PRESSURE GPRESSURE VOLUME PRESSAVG GPRESSAVG
ENERGY: 0 3.1556 8.2146 2.0085 0.0000 -10398.3702 1336.8867 0.0000 0.0000 1726.3434 -7321.7615 297.7671 -9048.1048 -7321.7615 297.7671 -362.7363 -270.1416 29716.7937 -362.7363 -270.1416
ENERGY: 300000 4.3666 5.1877 4.3183 0.0000 -10472.0699 1399.2498 0.0000 0.0000 1669.2152 -7389.7322 287.9134 -9058.9474 -7368.5749 296.4576 -258.2980 -229.2733 30110.3983 -70.4569 -4.4812
ENERGY: 600000 3.2263 9.0852 2.9957 0.0000 -10521.1811 1438.4396 0.0000 0.0000 1691.0220 -7376.4122 291.6747 -9067.4342 -7365.9592 297.5434 -2.6638 56.8728 30152.2440 73.9577 134.8668
ENERGY: 900000 3.9085 9.8567 3.6632 0.0000 -10531.8951 1425.6274 0.0000 0.0000 1752.2289 -7336.6104 302.2319 -9088.8393 -7364.6893 299.7796 -103.9034 -44.9930 29950.2252 197.9864 264.1187
ENERGY: 1200000 3.3077 4.7986 4.2768 0.0000 -10519.2062 1386.2083 0.0000 0.0000 1738.0570 -7382.5578 299.7875 -9120.6148 -7371.6119 299.7692 -503.4635 -435.3581 29882.7027 74.6402 136.5620
ENERGY: 1500000 2.8037 9.8996 1.3426 0.0000 -10435.6886 1356.1779 0.0000 0.0000 1774.6788 -7290.7858 306.1042 -9065.4646 -7362.1496 300.6323 -616.4838 -565.8430 30405.3021 90.7501 149.6701
TCL: Running FEP window   7: Lambda1 0.3    Lambda2 0.35   [dLambda 0.04999999999999999]
TCL: Setting parameter firsttimestep to 0
TCL: Setting parameter alchLambda to 0.3
Info: NONBONDED TABLE R-SQUARED SPACING: 0.0625
Info: NONBONDED TABLE SIZE: 705 POINTS
TCL: Setting parameter alchLambda2 to 0.35
Info: NONBONDED TABLE R-SQUARED SPACING: 0.0625
Info: NONBONDED TABLE SIZE: 705 POINTS
TCL: Running for 1500000 steps
ETITLE: TS BOND ANGLE DIHED IMPRP ELECT VDW BOUNDARY MISC KINETIC TOTAL TEMP POTENTIAL TOTALAVG TEMPAVG PRESSURE GPRESSURE VOLUME PRESSAVG GPRESSAVG
ENERGY: 0 2.8037 9.8996 1.3426 0.0000 -10435.6873 1356.8240 0.0000 0.0000 1773.8045 -7291.0129 305.9534 -9064.8174 -7291.0129 305.9534 -634.6013 -556.0970 30405.3021 -634.6013 -556.0970
ENERGY: 300000 1.3240 6.1331 1.7941 0.0000 -10427.8155 1394.4144 0.0000 0.0000 1731.8053 -7292.3445 298.7092 -9024.1498 -7326.4726 301.5080 254.4007 296.8508 29434.6638 109.4848 171.7950
ENERGY: 600000 2.3887 7.9534 2.6252 0.0000 -10605.6722 1491.8727 0.0000 0.0000 1758.1702 -7342.6621 303.2567 -9100.8322 -7336.4722 300.6362 652.0124 722.2795 30025.8772 83.2993 155.8768
ENERGY: 900000 2.8475 8.1054 1.8205 0.0000 -10525.6583 1464.6439 0.0000 0.0000 1708.8002 -7339.4408 294.7412 -9048.2410 -7351.0411 299.4557 365.0133 451.3126 29676.1498 59.1013 125.2790
ENERGY: 1200000 4.1249 6.7276 1.7893 0.0000 -10614.5974 1523.4080 0.0000 0.0000 1708.6573 -7369.8903 294.7165 -9078.5476 -7350.1611 299.1364 800.3071 856.4082 29663.5478 30.5283 97.8546
ENERGY: 1500000 5.8275 13.5754 1.3143 0.0000 -10631.2359 1495.1122 0.0000 0.0000 1785.2903 -7330.1161 307.9345 -9115.4064 -7346.3251 300.1504 530.1526 594.6059 29890.5896 67.0038 136.2153
TCL: Running FEP window   8: Lambda1 0.35   Lambda2 0.39999999999999997 [dLambda 0.04999999999999999]
TCL: Setting parameter firsttimestep to 0
TCL: Setting parameter alchLambda to 0.35
Info: NONBONDED TABLE R-SQUARED SPACING: 0.0625
Info: NONBONDED TABLE SIZE: 705 POINTS
TCL: Setting parameter alchLambda2 to 0.39999999999999997
Info: NONBONDED TABLE R-SQUARED SPACING: 0.0625
Info: NONBONDED TABLE SIZE: 705 POINTS
TCL: Running for 1500000 steps
ETITLE: TS BOND ANGLE DIHED IMPRP ELECT VDW BOUNDARY MISC KINETIC TOTAL TEMP POTENTIAL TOTALAVG TEMPAVG PRESSURE GPRESSURE VOLUME PRESSAVG GPRESSAVG
ENERGY: 0 5.8275 13.5754 1.3143 0.0000 -10631.2342 1495.3177 0.0000 0.0000 1784.4660 -7330.7333 307.7923 -9115.1993 -7330.7333 307.7923 519.0229 603.6480 29890.5896 519.0229 603.6480
ENERGY: 300000 1.9092 8.7237 3.4010 0.0000 -10380.6073 1346.7628 0.0000 0.0000 1784.8188 -7234.9918 307.8532 -9019.8105 -7306.5099 305.4208 -468.7966 -385.6098 30293.4516 415.0724 486.7361
ENERGY: 600000 4.2322 9.6596 1.7374 0.0000 -10571.8340 1440.1150 0.0000 0.0000 1770.0558 -7346.0340 305.3068 -9116.0898 -7337.3206 303.8276 12.8482 109.8094 29656.9162 230.7546 307.7459
ENERGY: 900000 1.7815 7.1164 1.3311 0.0000 -10656.8154 1524.8093 0.0000 0.0000 1732.9742 -7388.8031 298.9108 -9121.7772 -7341.6791 303.2298 939.0241 932.7005 29812.1113 142.2693 207.9507
ENERGY: 1200000 2.2483 10.7133 1.0302 0.0000 -10376.6321 1326.7614 0.0000 0.0000 1703.4226 -7332.4563 293.8136 -9035.8789 -7344.4808 301.7988 -761.6823 -710.5617 30504.1883 94.5686 158.2487
ENERGY: 1500000 2.2193 5.7856 2.3912 0.0000 -10515.8907 1369.4644 0.0000 0.0000 1707.7509 -7428.2792 294.5602 -9136.0301 -7348.6841 301.2173 -475.7216 -406.2171 29997.4892 7.0039 70.6024
TCL: Running FEP window   9: Lambda1 0.39999999999999997 Lambda2 0.44999999999999996 [dLambda 0.04999999999999999]
TCL: Setting parameter firsttimestep to 0
TCL: Setting parameter alchLambda to 0.39999999999999997
Info: NONBONDED TABLE R-SQUARED SPACING: 0.0625
Info: NONBONDED TABLE SIZE: 705 POINTS
TCL: Setting parameter alchLambda2 to 0.44999999999999996
Info: NONBONDED TABLE R-SQUARED SPACING: 0.0625
Info: NONBONDED TABLE SIZE: 705 POINTS
TCL: Running for 1500000 steps
ETITLE: TS BOND ANGLE DIHED IMPRP ELECT VDW BOUNDARY MISC KINETIC TOTAL TEMP POTENTIAL TOTALAVG TEMPAVG PRESSURE GPRESSURE VOLUME PRESSAVG GPRESSAVG
ENERGY: 0 2.2193 5.7856 2.3912 0.0000 -10515.8895 1368.9420 0.0000 0.0000 1706.8965 -7429.6548 294.4128 -9136.5514 -7429.6548 294.4128 -495.2750 -404.6819 29997.4892 -495.2750 -404.6819
ENERGY: 300000 3.0722 8.5267 1.6209 0.0000 -10576.1933 1453.5631 0.0000 0.0000 1783.7080 -7325.7024 307.6616 -9109.4104 -7356.5424 299.3747 42.4612 60.2390 29864.0098 -312.2007 -251.2457
ENERGY: 600000 3.6946 7.4925 5.8487 0.0000 -10623.8634 1449.1672 0.0000 0.0000 1722.4884 -7435.1720 297.1022 -9157.6604 -7353.0365 299.9542 -10.8368 64.0954 29748.1885 -435.6851 -362.8971
ENERGY: 900000 2.8277 10.7632 6.6542 0.0000 -10565.9461 1478.0976 0.0000 0.0000 1728.3539 -7339.2496 298.1139 -9067.6034 -7350.0990 300.7806 428.7839 477.8179 30040.3661 -278.2806 -213.9997
ENERGY: 1200000 5.0985 7.2167 3.0665 0.0000 -10445.0259 1363.5979 0.0000 0.0000 1701.5102 -7364.5360 293.4838 -9066.0462 -7350.0388 299.1092 -400.6444 -321.4459 29708.9877 -333.4078 -259.8410
ENERGY: 1500000 1.5289 10.3374 2.9242 0.0000 -10643.6417 1519.1190 0.0000 0.0000 1711.8191 -7397.9131 295.2619 -9109.7322 -7351.7956 298.5012 319.1447 421.4984 30490.6266 -204.3482 -128.2541
TCL: Running FEP window  10: Lambda1 0.44999999999999996 Lambda2 0.49999999999999994 [dLambda 0.04999999999999999]
TCL: Setting parameter firsttimestep to 0
TCL: Setting parameter alchLambda to 0.44999999999999996
Info: NONBONDED TABLE R-SQUARED SPACING: 0.0625
Info: NONBONDED TABLE SIZE: 705 POINTS
TCL: Setting parameter alchLambda2 to 0.49999999999999994
Info: NONBONDED TABLE R-SQUARED SPACING: 0.0625
Info: NONBONDED TABLE SIZE: 705 POINTS
TCL: Running for 1500000 steps
ETITLE: TS BOND ANGLE DIHED IMPRP ELECT VDW BOUNDARY MISC KINETIC TOTAL TEMP POTENTIAL TOTALAVG TEMPAVG PRESSURE GPRESSURE VOLUME PRESSAVG GPRESSAVG
ENERGY: 0 1.5289 10.3374 2.9242 0.0000 -10643.6425 1519.4285 0.0000 0.0000 1710.9458 -7398.4777 295.1113 -9109.4235 -7398.4777 295.1113 344.6060 431.2648 30490.6266 344.6060 431.2648
ENERGY: 300000 3.0639 9.0303 2.7060 0.0000 -10418.9055 1322.2948 0.0000 0.0000 1737.2255 -7344.5849 299.6441 -9081.8104 -7385.5520 301.7718 -799.0931 -756.6547 29954.1288 -161.1658 -81.9915
ENERGY: 600000 4.8777 6.5202 3.9178 0.0000 -10586.3036 1447.2839 0.0000 0.0000 1682.8936 -7440.8104 290.2727 -9123.7040 -7378.2990 299.9495 -65.8693 41.3381 30022.2314 -265.5007 -188.5842
ENERGY: 900000 1.4477 6.2473 3.7566 0.0000 -10513.5554 1412.5248 0.0000 0.0000 1824.0233 -7265.5557 314.6153 -9089.5790 -7357.3877 302.2986 107.5503 130.1751 29951.9022 -154.1912 -84.7585
ENERGY: 1200000 3.6174 10.1357 3.1903 0.0000 -10553.5769 1426.0417 0.0000 0.0000 1742.8334 -7367.7583 300.6114 -9110.5917 -7364.9888 301.7333 23.4398 52.8405 29751.9572 -162.1386 -96.4872
ENERGY: 1500000 2.1881 9.4047 2.1704 0.0000 -10503.6609 1397.6739 0.0000 0.0000 1717.6130 -7374.6108 296.2613 -9092.2238 -7363.3081 301.6062 -436.7158 -359.7011 30324.4189 -145.5883 -83.4776
TCL: Running FEP window  11: Lambda1 0.49999999999999994 Lambda2 0.5499999999999999 [dLambda 0.04999999999999999]
TCL: Setting parameter firsttimestep to 0
TCL: Setting parameter alchLambda to 0.49999999999999994
Info: NONBONDED TABLE R-SQUARED SPACING: 0.0625
Info: NONBONDED TABLE SIZE: 705 POINTS
TCL: Setting parameter alchLambda2 to 0.5499999999999999
Info: NONBONDED TABLE R-SQUARED SPACING: 0.0625
Info: NONBONDED TABLE SIZE: 705 POINTS
TCL: Running for 1500000 steps
ETITLE: TS BOND ANGLE DIHED IMPRP ELECT VDW BOUNDARY MISC KINETIC TOTAL TEMP POTENTIAL TOTALAVG TEMPAVG PRESSURE GPRESSURE VOLUME PRESSAVG GPRESSAVG
ENERGY: 0 2.1881 9.4047 2.1704 0.0000 -10503.6601 1397.4493 0.0000 0.0000 1716.7931 -7375.6544 296.1198 -9092.4475 -7375.6544 296.1198 -432.1229 -355.6098 30324.4189 -432.1229 -355.6098
ENERGY: 300000 1.4415 3.5426 1.7519 0.0000 -10517.4388 1394.0900 0.0000 0.0000 1752.4196 -7364.1931 302.2648 -9116.6128 -7344.9986 304.9056 -157.2118 -105.8888 29933.9508 132.7311 164.7664
ENERGY: 600000 2.3375 5.8095 2.1419 0.0000 -10514.3333 1428.8170 0.0000 0.0000 1729.3785 -7345.8489 298.2906 -9075.2274 -7336.9621 303.9432 221.0884 361.6092 29582.8716 170.5680 226.0208
ENERGY: 900000 4.5664 7.5947 2.0370 0.0000 -10537.6621 1499.0552 0.0000 0.0000 1753.6266 -7270.7823 302.4730 -9024.4088 -7328.9326 302.6544 723.1655 756.9126 30147.5204 110.7820 163.6817
ENERGY: 1200000 5.2445 12.8093 3.2691 0.0000 -10519.8123 1418.5677 0.0000 0.0000 1741.2253 -7338.6965 300.3340 -9079.9218 -7326.7716 302.9248 -74.9783 67.6963 29614.6655 168.0166 220.6932
ENERGY: 1500000 7.6598 8.5562 4.1465 0.0000 -10593.3956 1379.0553 0.0000 0.0000 1686.4888 -7507.4890 290.8928 -9193.9778 -7340.9679 302.3567 -652.0984 -555.5793 29438.8132 54.2333 110.3417
TCL: Running FEP window  12: Lambda1 0.5499999999999999 Lambda2 0.6    [dLambda 0.050000000000000044]
TCL: Setting parameter firsttimestep to 0
TCL: Setting parameter alchLambda to 0.5499999999999999
Info: NONBONDED TABLE R-SQUARED SPACING: 0.0625
Info: NONBONDED TABLE SIZE: 705 POINTS
TCL: Setting parameter alchLambda2 to 0.6
Info: NONBONDED TABLE R-SQUARED SPACING: 0.0625
Info: NONBONDED TABLE SIZE: 705 POINTS
TCL: Running for 1500000 steps
ETITLE: TS BOND ANGLE DIHED IMPRP ELECT VDW BOUNDARY MISC KINETIC TOTAL TEMP POTENTIAL TOTALAVG TEMPAVG PRESSURE GPRESSURE VOLUME PRESSAVG GPRESSAVG
ENERGY: 0 7.6598 8.5562 4.1465 0.0000 -10593.5880 1378.9565 0.0000 0.0000 1685.6157 -7508.6533 290.7422 -9194.2690 -7508.6533 290.7422 -629.9600 -550.3156 29438.8132 -629.9600 -550.3156
ENERGY: 300000 2.1026 6.2030 1.5704 0.0000 -10372.7796 1319.9958 0.0000 0.0000 1739.5872 -7303.3206 300.0515 -9042.9078 -7400.2213 295.9864 -834.4290 -816.7483 30207.0537 -183.2299 -120.5857
ENERGY: 600000 2.0106 8.8325 5.8645 0.0000 -10414.4311 1338.0567 0.0000 0.0000 1771.1643 -7288.5024 305.4980 -9059.6668 -7363.8550 300.2908 -343.0135 -322.5759 29919.1957 -334.0951 -274.8833
ENERGY: 900000 4.1475 10.8987 2.3475 0.0000 -10607.8241 1518.8122 0.0000 0.0000 1749.3668 -7322.2514 301.7383 -9071.6182 -7353.0412 300.1134 977.4857 1019.8010 29610.6804 -136.7151 -90.0694
ENERGY: 1200000 3.9663 10.7085 4.0572 0.0000 -10514.8356 1437.8801 0.0000 0.0000 1752.6942 -7305.5293 302.3122 -9058.2235 -7348.1585 299.9358 289.6922 376.2623 29691.7267 -37.0248 18.3487
ENERGY: 1500000 2.9097 6.2710 2.0507 0.0000 -10450.8359 1449.9547 0.0000 0.0000 1725.1415 -7264.5082 297.5598 -8989.6497 -7332.2486 301.0779 389.3127 466.3311 30377.7241 44.9021 102.7159
TCL: Running FEP window  13: Lambda1 0.6    Lambda2 0.65   [dLambda 0.050000000000000044]
TCL: Setting parameter firsttimestep to 0
TCL: Setting parameter alchLambda to 0.6
Info: NONBONDED TABLE R-SQUARED SPACING: 0.0625
Info: NONBONDED TABLE SIZE: 705 POINTS
TCL: Setting parameter alchLambda2 to 0.65
Info: NONBONDED TABLE R-SQUARED SPACING: 0.0625
Info: NONBONDED TABLE SIZE: 705 POINTS
TCL: Running for 1500000 steps
ETITLE: TS BOND ANGLE DIHED IMPRP ELECT VDW BOUNDARY MISC KINETIC TOTAL TEMP POTENTIAL TOTALAVG TEMPAVG PRESSURE GPRESSURE VOLUME PRESSAVG GPRESSAVG
ENERGY: 0 2.9097 6.2710 2.0507 0.0000 -10450.7614 1449.5335 0.0000 0.0000 1724.2494 -7265.7471 297.4059 -8989.9965 -7265.7471 297.4059 379.3721 468.1466 30377.7241 379.3721 468.1466
ENERGY: 300000 1.3294 6.8634 1.7918 0.0000 -10487.4812 1338.2396 0.0000 0.0000 1747.9490 -7391.3079 301.4937 -9139.2569 -7364.6935 296.4296 -455.1474 -411.9916 29666.3957 -337.4458 -286.5520
ENERGY: 600000 5.1343 9.7180 2.3352 0.0000 -10421.6167 1354.9988 0.0000 0.0000 1770.6727 -7278.7578 305.4132 -9049.4305 -7360.2754 297.6238 -466.7550 -489.5080 30304.2359 -322.8031 -277.6172
ENERGY: 900000 2.8564 5.6671 2.5268 0.0000 -10505.8079 1368.0129 0.0000 0.0000 1739.1041 -7387.6407 299.9681 -9126.7447 -7366.6225 296.9077 -806.4073 -753.1884 30338.6230 -341.0309 -297.5003
ENERGY: 1200000 2.7632 7.6071 0.9934 0.0000 -10488.0463 1384.8375 0.0000 0.0000 1746.5855 -7345.2596 301.2585 -9091.8451 -7354.1634 297.9805 -511.9267 -426.0297 30146.0746 -293.9845 -244.7177
ENERGY: 1500000 3.7918 7.7411 2.6837 0.0000 -10524.3878 1374.4879 0.0000 0.0000 1838.9119 -7296.7715 317.1834 -9135.6833 -7360.3476 298.6366 -544.3756 -508.9406 30259.8324 -262.5892 -210.7092
TCL: Running FEP window  14: Lambda1 0.65   Lambda2 0.7000000000000001 [dLambda 0.050000000000000044]
TCL: Setting parameter firsttimestep to 0
TCL: Setting parameter alchLambda to 0.65
Info: NONBONDED TABLE R-SQUARED SPACING: 0.0625
Info: NONBONDED TABLE SIZE: 705 POINTS
TCL: Setting parameter alchLambda2 to 0.7000000000000001
Info: NONBONDED TABLE R-SQUARED SPACING: 0.0625
Info: NONBONDED TABLE SIZE: 705 POINTS
TCL: Running for 1500000 steps
ETITLE: TS BOND ANGLE DIHED IMPRP ELECT VDW BOUNDARY MISC KINETIC TOTAL TEMP POTENTIAL TOTALAVG TEMPAVG PRESSURE GPRESSURE VOLUME PRESSAVG GPRESSAVG
ENERGY: 0 3.7918 7.7411 2.6837 0.0000 -10524.2575 1374.4189 0.0000 0.0000 1838.0406 -7297.5814 317.0331 -9135.6220 -7297.5814 317.0331 -595.4961 -500.2861 30259.8324 -595.4961 -500.2861
ENERGY: 300000 3.9191 5.5628 3.9926 0.0000 -10602.0870 1476.4452 0.0000 0.0000 1716.4008 -7395.7665 296.0522 -9112.1673 -7335.7169 303.9949 449.7858 447.1354 29932.1584 -142.3244 -100.3961
ENERGY: 600000 2.0227 8.7424 1.5952 0.0000 -10549.7471 1402.3643 0.0000 0.0000 1751.5004 -7383.5220 302.1063 -9135.0224 -7336.1317 302.5229 -180.8817 -149.0044 29891.7799 1.3192 38.0113
ENERGY: 900000 5.8592 7.7599 2.5887 0.0000 -10555.7828 1449.8447 0.0000 0.0000 1713.6310 -7376.0993 295.5744 -9089.7303 -7356.2979 301.2019 8.3861 47.8464 30293.9137 -22.6342 27.0497
ENERGY: 1200000 1.9296 6.6748 4.0956 0.0000 -10585.4260 1445.1176 0.0000 0.0000 1772.2296 -7355.3789 305.6817 -9127.6084 -7351.6750 301.9901 73.3588 72.6739 30112.0259 -113.5442 -60.4845
ENERGY: 1500000 1.3689 10.3828 2.7805 0.0000 -10500.9538 1381.3551 0.0000 0.0000 1783.0188 -7322.0476 307.5427 -9105.0664 -7352.7221 301.8918 -157.5683 -135.6026 29792.8695 -45.8563 1.9842
TCL: Running FEP window  15: Lambda1 0.7000000000000001 Lambda2 0.7500000000000001 [dLambda 0.050000000000000044]
TCL: Setting parameter firsttimestep to 0
TCL: Setting parameter alchLambda to 0.7000000000000001
Info: NONBONDED TABLE R-SQUARED SPACING: 0.0625
Info: NONBONDED TABLE SIZE: 705 POINTS
TCL: Setting parameter alchLambda2 to 0.7500000000000001
Info: NONBONDED TABLE R-SQUARED SPACING: 0.0625
Info: NONBONDED TABLE SIZE: 705 POINTS
TCL: Running for 1500000 steps
ETITLE: TS BOND ANGLE DIHED IMPRP ELECT VDW BOUNDARY MISC KINETIC TOTAL TEMP POTENTIAL TOTALAVG TEMPAVG PRESSURE GPRESSURE VOLUME PRESSAVG GPRESSAVG
ENERGY: 0 1.3689 10.3828 2.7805 0.0000 -10501.2907 1381.2781 0.0000 0.0000 1782.1685 -7323.3118 307.3961 -9105.4803 -7323.3118 307.3961 -197.6959 -126.3599 29792.8695 -197.6959 -126.3599
ENERGY: 300000 3.5984 4.7083 3.0548 0.0000 -10399.0049 1359.0479 0.0000 0.0000 1755.5299 -7273.0656 302.8013 -9028.5955 -7287.3263 303.1657 -433.4510 -359.3514 30116.7085 23.2720 65.7968
ENERGY: 600000 0.9061 9.0887 1.3774 0.0000 -10665.8138 1544.3351 0.0000 0.0000 1736.3467 -7373.7598 299.4925 -9110.1064 -7316.8329 302.9872 1156.0993 1178.1850 29791.2492 298.4219 348.2496
ENERGY: 900000 0.9893 7.5322 2.5326 0.0000 -10545.2379 1453.1700 0.0000 0.0000 1709.2549 -7371.7590 294.8196 -9081.0139 -7329.3288 301.4105 121.1261 172.8787 30508.9891 379.8999 428.7015
ENERGY: 1200000 2.6293 11.0081 4.8800 0.0000 -10544.6319 1436.8358 0.0000 0.0000 1707.9325 -7381.3462 294.5915 -9089.2788 -7350.6759 299.9538 172.7888 255.7380 30020.2344 300.9633 358.9485
ENERGY: 1500000 1.2470 5.4940 1.7953 0.0000 -10425.4309 1405.9159 0.0000 0.0000 1756.0787 -7254.9000 302.8960 -9010.9788 -7345.2885 301.0271 191.5474 194.3432 30218.9276 230.7773 285.1352
TCL: Running FEP window  16: Lambda1 0.7500000000000001 Lambda2 0.8000000000000002 [dLambda 0.050000000000000044]
TCL: Setting parameter firsttimestep to 0
TCL: Setting parameter alchLambda to 0.7500000000000001
Info: NONBONDED TABLE R-SQUARED SPACING: 0.0625
Info: NONBONDED TABLE SIZE: 705 POINTS
TCL: Setting parameter alchLambda2 to 0.8000000000000002
Info: NONBONDED TABLE R-SQUARED SPACING: 0.0625
Info: NONBONDED TABLE SIZE: 705 POINTS
TCL: Running for 1500000 steps
ETITLE: TS BOND ANGLE DIHED IMPRP ELECT VDW BOUNDARY MISC KINETIC TOTAL TEMP POTENTIAL TOTALAVG TEMPAVG PRESSURE GPRESSURE VOLUME PRESSAVG GPRESSAVG
ENERGY: 0 1.2470 5.4940 1.7953 0.0000 -10425.7673 1406.0435 0.0000 0.0000 1755.2041 -7255.9834 302.7451 -9011.1875 -7255.9834 302.7451 122.7579 204.4506 30218.9276 122.7579 204.4506
ENERGY: 300000 4.0519 7.0557 2.3271 0.0000 -10604.6854 1515.9891 0.0000 0.0000 1716.9599 -7358.3017 296.1486 -9075.2616 -7345.2467 299.2362 646.4212 650.6772 30212.9667 106.8880 160.4844
ENERGY: 600000 1.6325 12.8563 3.3111 0.0000 -10584.8685 1471.3715 0.0000 0.0000 1747.7252 -7347.9720 301.4551 -9095.6972 -7356.6851 299.8201 398.6284 414.2705 30135.0265 53.7685 109.5307
ENERGY: 900000 1.9182 6.7721 1.2750 0.0000 -10588.2527 1450.9633 0.0000 0.0000 1726.3364 -7400.9877 297.7659 -9127.3241 -7355.5496 299.1185 174.1587 281.8635 29933.7073 85.4114 148.4850
ENERGY: 1200000 5.7247 5.2518 1.1676 0.0000 -10475.0024 1401.7192 0.0000 0.0000 1767.9266 -7293.2125 304.9396 -9061.1391 -7363.5587 299.0291 0.4452 31.2377 30016.3295 48.0866 107.7701
ENERGY: 1500000 2.5627 4.1534 4.4252 0.0000 -10415.3242 1299.1127 0.0000 0.0000 1749.9291 -7355.1411 301.8353 -9105.0702 -7365.6712 299.1293 -981.8399 -871.4562 30010.2391 -21.8403 39.6093
TCL: Running FEP window  17: Lambda1 0.8000000000000002 Lambda2 0.8500000000000002 [dLambda 0.050000000000000044]
TCL: Setting parameter firsttimestep to 0
TCL: Setting parameter alchLambda to 0.8000000000000002
Info: NONBONDED TABLE R-SQUARED SPACING: 0.0625
Info: NONBONDED TABLE SIZE: 705 POINTS
TCL: Setting parameter alchLambda2 to 0.8500000000000002
Info: NONBONDED TABLE R-SQUARED SPACING: 0.0625
Info: NONBONDED TABLE SIZE: 705 POINTS
TCL: Running for 1500000 steps
ETITLE: TS BOND ANGLE DIHED IMPRP ELECT VDW BOUNDARY MISC KINETIC TOTAL TEMP POTENTIAL TOTALAVG TEMPAVG PRESSURE GPRESSURE VOLUME PRESSAVG GPRESSAVG
ENERGY: 0 2.5627 4.1534 4.4252 0.0000 -10416.1049 1298.8032 0.0000 0.0000 1749.0408 -7357.1196 301.6820 -9106.1604 -7357.1196 301.6820 -937.4596 -863.9037 30010.2391 -937.4596 -863.9037
ENERGY: 300000 1.4072 11.4154 2.0763 0.0000 -10629.5758 1493.4263 0.0000 0.0000 1738.9808 -7382.2699 299.9468 -9121.2506 -7394.7650 298.9692 681.9738 706.1794 29809.0130 -346.0223 -287.3837
ENERGY: 600000 4.9844 7.0362 1.2235 0.0000 -10655.1868 1478.2004 0.0000 0.0000 1727.4870 -7436.2553 297.9643 -9163.7423 -7365.6136 303.6233 90.6569 131.7245 30013.6439 -175.7965 -111.0109
ENERGY: 900000 7.0005 11.0672 1.6580 0.0000 -10336.9363 1344.0953 0.0000 0.0000 1787.5159 -7185.5994 308.3184 -8973.1153 -7343.9005 302.9388 -619.4009 -607.1966 30643.4552 -177.5550 -118.9647
ENERGY: 1200000 6.9765 8.1940 3.1440 0.0000 -10463.3559 1357.9326 0.0000 0.0000 1741.9942 -7345.1146 300.4666 -9087.1088 -7353.5601 301.7857 -585.2046 -558.5352 30035.6381 -86.0263 -30.2097
ENERGY: 1500000 2.9298 5.1722 3.7946 0.0000 -10569.6151 1427.6002 0.0000 0.0000 1723.7700 -7406.3483 297.3232 -9130.1183 -7354.9895 301.8371 -63.9358 39.7544 30142.2064 -51.4540 1.4081
TCL: Running FEP window  18: Lambda1 0.8500000000000002 Lambda2 0.9000000000000002 [dLambda 0.050000000000000044]
TCL: Setting parameter firsttimestep to 0
TCL: Setting parameter alchLambda to 0.8500000000000002
Info: NONBONDED TABLE R-SQUARED SPACING: 0.0625
Info: NONBONDED TABLE SIZE: 705 POINTS
TCL: Setting parameter alchLambda2 to 0.9000000000000002
Info: NONBONDED TABLE R-SQUARED SPACING: 0.0625
Info: NONBONDED TABLE SIZE: 705 POINTS
TCL: Running for 1500000 steps
ETITLE: TS BOND ANGLE DIHED IMPRP ELECT VDW BOUNDARY MISC KINETIC TOTAL TEMP POTENTIAL TOTALAVG TEMPAVG PRESSURE GPRESSURE VOLUME PRESSAVG GPRESSAVG
ENERGY: 0 2.9298 5.1722 3.7946 0.0000 -10569.9789 1427.4523 0.0000 0.0000 1722.9264 -7407.7036 297.1777 -9130.6300 -7407.7036 297.1777 -32.8952 47.2944 30142.2064 -32.8952 47.2944
ENERGY: 300000 1.4959 7.6021 2.0162 0.0000 -10626.8971 1485.2206 0.0000 0.0000 1762.9873 -7367.5750 304.0876 -9130.5623 -7370.3424 299.9717 548.1399 635.9024 29769.9093 -144.2087 -73.5720
ENERGY: 600000 2.2968 7.7158 1.9111 0.0000 -10467.9006 1355.7145 0.0000 0.0000 1717.0192 -7383.2431 296.1588 -9100.2624 -7359.4167 298.0251 -544.1222 -461.3679 30088.6404 -308.1521 -230.6055
ENERGY: 900000 3.3903 8.0972 2.5921 0.0000 -10550.3394 1412.2412 0.0000 0.0000 1740.7348 -7383.2839 300.2494 -9124.0187 -7339.6033 299.2087 -161.0649 -171.5248 30317.7509 -207.2684 -133.5506
ENERGY: 1200000 4.4068 5.1218 5.3897 0.0000 -10567.8206 1414.9372 0.0000 0.0000 1739.3092 -7398.6559 300.0035 -9137.9651 -7347.2295 299.8585 47.2795 120.8758 29766.1577 -110.0282 -27.5997
ENERGY: 1500000 5.1534 5.1369 2.1990 0.0000 -10547.6724 1370.0379 0.0000 0.0000 1740.8114 -7424.3340 300.2626 -9165.1453 -7355.5176 299.9206 -498.8736 -373.9514 30053.4928 -102.6901 -25.3427
TCL: Running FEP window  19: Lambda1 0.9000000000000002 Lambda2 0.9500000000000003 [dLambda 0.050000000000000044]
TCL: Setting parameter firsttimestep to 0
TCL: Setting parameter alchLambda to 0.9000000000000002
Info: NONBONDED TABLE R-SQUARED SPACING: 0.0625
Info: NONBONDED TABLE SIZE: 705 POINTS
TCL: Setting parameter alchLambda2 to 0.9500000000000003
Info: NONBONDED TABLE R-SQUARED SPACING: 0.0625
Info: NONBONDED TABLE SIZE: 705 POINTS
TCL: Running for 1500000 steps
ETITLE: TS BOND ANGLE DIHED IMPRP ELECT VDW BOUNDARY MISC KINETIC TOTAL TEMP POTENTIAL TOTALAVG TEMPAVG PRESSURE GPRESSURE VOLUME PRESSAVG GPRESSAVG
ENERGY: 0 5.1533 5.1369 2.1990 0.0000 -10548.1676 1370.1324 0.0000 0.0000 1739.9474 -7425.5987 300.1136 -9165.5460 -7425.5987 300.1136 -448.2969 -360.1239 30053.4928 -448.2969 -360.1239
ENERGY: 300000 6.1776 11.3811 2.4422 0.0000 -10465.3567 1353.7783 0.0000 0.0000 1740.0128 -7351.5646 300.1249 -9091.5774 -7388.9176 299.9027 -700.7443 -596.4369 30213.2235 -258.9960 -188.2617
ENERGY: 600000 2.1086 9.8438 1.6716 0.0000 -10657.3124 1518.1915 0.0000 0.0000 1736.4826 -7389.0142 299.5160 -9125.4968 -7397.0277 298.7125 986.9795 1018.1564 29898.3200 -182.0990 -117.6501
ENERGY: 900000 3.2915 7.4603 3.6046 0.0000 -10573.4701 1412.7121 0.0000 0.0000 1737.9577 -7408.4439 299.7704 -9146.4016 -7380.3585 300.5473 -234.1283 -156.6665 30004.5596 -71.2752 -10.0207
ENERGY: 1200000 5.0912 8.7908 1.6219 0.0000 -10315.7610 1295.2417 0.0000 0.0000 1716.2790 -7288.7365 296.0312 -9005.0155 -7369.7102 300.2973 -843.4826 -895.3674 30690.9626 -40.0801 11.9022
ENERGY: 1500000 2.5229 12.3949 2.1275 0.0000 -10608.9171 1447.1313 0.0000 0.0000 1717.4400 -7427.3004 296.2314 -9144.7403 -7363.8657 301.0300 -21.6734 42.8573 30021.7349 -3.9422 53.3156
TCL: Running FEP window  20: Lambda1 0.9500000000000003 Lambda2 1.0    [dLambda 0.04999999999999971]
TCL: Setting parameter firsttimestep to 0
TCL: Setting parameter alchLambda to 0.9500000000000003
Info: NONBONDED TABLE R-SQUARED SPACING: 0.0625
Info: NONBONDED TABLE SIZE: 705 POINTS
TCL: Setting parameter alchLambda2 to 1.0
Info: NONBONDED TABLE R-SQUARED SPACING: 0.0625
Info: NONBONDED TABLE SIZE: 705 POINTS
TCL: Running for 1500000 steps
ETITLE: TS BOND ANGLE DIHED IMPRP ELECT VDW BOUNDARY MISC KINETIC TOTAL TEMP POTENTIAL TOTALAVG TEMPAVG PRESSURE GPRESSURE VOLUME PRESSAVG GPRESSAVG
ENERGY: 0 2.5229 12.3949 2.1275 0.0000 -10609.9813 1449.7336 0.0000 0.0000 1716.5793 -7426.6230 296.0830 -9143.2023 -7426.6230 296.0830 8.4830 91.7175 30021.7349 8.4830 91.7175
ENERGY: 300000 5.1477 8.9753 0.9776 0.0000 -10601.3911 1460.3066 0.0000 0.0000 1714.2450 -7411.7389 295.6803 -9125.9839 -7397.7636 297.8861 274.9737 365.1244 30140.8993 490.9968 559.6372
ENERGY: 600000 1.6373 6.5291 2.4845 0.0000 -10531.7128 1457.3411 0.0000 0.0000 1745.9002 -7317.8206 301.1403 -9063.7208 -7379.9127 300.3271 266.2106 327.8934 30251.0911 308.0230 376.2391
ENERGY: 900000 4.1108 6.6978 1.3138 0.0000 -10394.4668 1377.8309 0.0000 0.0000 1753.1023 -7251.4111 302.3826 -9004.5135 -7375.3663 299.8571 -226.8755 -106.9318 30283.5980 151.0389 223.9760
ENERGY: 1200000 2.5649 7.6848 5.0545 0.0000 -10496.5370 1377.1721 0.0000 0.0000 1751.6078 -7352.4528 302.1248 -9104.0606 -7361.1193 301.1994 -261.0778 -242.0331 30349.7703 92.4645 162.2214
ENERGY: 1500000 2.5883 6.9241 4.3125 0.0000 -10507.1804 1300.6317 0.0000 0.0000 1705.9948 -7486.7290 294.2573 -9192.7238 -7360.9963 301.6851 -1157.3659 -1080.1788 30068.0274 -9.7775 56.6722
TCL: Exiting due to exit command.
