Info: SIMULATION PARAMETERS:
Info: TIMESTEP               2
Info: NUMBER OF STEPS        0
Info: STEPS PER CYCLE        10
Info: PERIODIC CELL BASIS 1  30.7751 0 0
Info: PERIODIC CELL BASIS 2  0 31.4537 0
Info: PERIODIC CELL BASIS 3  0 0 31.7308
Info: PERIODIC CELL CENTER   0 0 0
Info: WRAPPING WATERS AROUND PERIODIC BOUNDARIES ON OUTPUT.
Info: WRAPPING ALL CLUSTERS AROUND PERIODIC BOUNDARIES ON OUTPUT.
Info: FIRST LDB TIMESTEP     50
Info: LAST LDB TIMESTEP     -1
Info: HOM BACKGROUND SCALING 1
Info: PME BACKGROUND SCALING 1
Info: MIN ATOMS PER PATCH    40
Info: EMPTY PATCH LOAD       40 ATOMS
Info: VELOCITY FILE          mobley_1261349_equil.vel
Info: CENTER OF MASS MOVING INITIALLY? NO
Info: DIELECTRIC             1
Info: EXCLUDE                SCALED ONE-FOUR
Info: 1-4 ELECTROSTATICS SCALED BY 0.833333
Info: MODIFIED 1-4 VDW PARAMETERS WILL BE USED
Info: DCD FILENAME           mobley_1261349_prod.dcd
Info: DCD FREQUENCY          100000
Info: DCD FIRST STEP         100000
Info: DCD FILE WILL CONTAIN UNIT CELL DATA
Info: XST FILENAME           mobley_1261349_prod.xst
Info: XST FREQUENCY          100000
Info: NO VELOCITY DCD OUTPUT
Info: NO FORCE DCD OUTPUT
Info: OUTPUT FILENAME        mobley_1261349_prod
Info: BINARY OUTPUT FILES WILL BE USED
Info: RESTART FILENAME       mobley_1261349_prod.restart
Info: RESTART FREQUENCY      100000
Info: BINARY RESTART FILES WILL BE USED
Info: CUTOFF                 9
Info: PAIRLIST DISTANCE      11
Info: PAIRLIST SHRINK RATE   0.01
Info: PAIRLIST GROW RATE     0.01
Info: PAIRLIST TRIGGER       0.3
Info: PAIRLISTS PER CYCLE    2
Info: PAIRLISTS ENABLED
Info: MARGIN                 2
Info: HYDROGEN GROUP CUTOFF  2.5
Info: PATCH DIMENSION        15.5
Info: ENERGY OUTPUT STEPS    100000
Info: ENERGY EVALUATION STEPS    100000
Info: OUTPUT ENERGY PRECISION 4
Info: CROSSTERM ENERGY INCLUDED IN DIHEDRAL
Info: TIMING OUTPUT STEPS    1000000
Info: PRESSURE OUTPUT STEPS  100000
Info: ALCHEMICAL FEP ON
Info: FEP CURRENT LAMBDA VALUE     1
Info: FEP COMPARISON LAMBDA VALUE  0.95
Info: FEP INTRA-ALCHEMICAL NON-BONDED INTERACTIONS WILL BE RETAINED
Info: FEP INTRA-ALCHEMICAL BONDED INTERACTIONS WILL BE RETAINED
Info: FEP VDW SHIFTING COEFFICIENT 5
Info: FEP ELEC. ACTIVE FOR ANNIHILATED PARTICLES BETWEEN LAMBDA = 0 AND LAMBDA = 0.5
Info: FEP ELEC. ACTIVE FOR EXNIHILATED PARTICLES BETWEEN LAMBDA = 0.5 AND LAMBDA = 1
Info: FEP VDW ACTIVE FOR ANNIHILATED PARTICLES BETWEEN LAMBDA = 0 AND LAMBDA = 1
Info: FEP VDW ACTIVE FOR EXNIHILATED PARTICLES BETWEEN LAMBDA = 0 AND LAMBDA = 1
Info: FEP BOND ACTIVE FOR ANNIHILATED PARTICLES BETWEEN LAMBDA = 1 AND LAMBDA = 1
Info: FEP BOND ACTIVE FOR EXNIHILATED PARTICLES BETWEEN LAMBDA = 0 AND LAMBDA = 0
Info: LANGEVIN DYNAMICS ACTIVE
Info: LANGEVIN TEMPERATURE   300
Info: LANGEVIN USING BBK INTEGRATOR
Info: LANGEVIN DAMPING COEFFICIENT IS 1 INVERSE PS
Info: LANGEVIN DYNAMICS APPLIED TO HYDROGENS
Info: LANGEVIN PISTON PRESSURE CONTROL ACTIVE
Info:        TARGET PRESSURE IS 1.01325 BAR
Info:     OSCILLATION PERIOD IS 50 FS
Info:             DECAY TIME IS 25 FS
Info:     PISTON TEMPERATURE IS 300 K
Info:       PRESSURE CONTROL IS GROUP-BASED
Info:    INITIAL STRAIN RATE IS 0.000364186 0.000364186 0.000364186
Info:       CELL FLUCTUATION IS ISOTROPIC
Info: PARTICLE MESH EWALD (PME) ACTIVE
Info: PME TOLERANCE               1e-06
Info: PME EWALD COEFFICIENT       0.348832
Info: PME INTERPOLATION ORDER     4
Info: PME GRID DIMENSIONS         32 32 32
Info: PME MAXIMUM GRID SPACING    1
Info: PME CALCULATION WILL BE PERFORMED ON GPU
Info: FULL ELECTROSTATIC EVALUATION FREQUENCY      2
Info: USING VERLET I (r-RESPA) MTS SCHEME.
Info: C1 SPLITTING OF LONG RANGE ELECTROSTATICS
Info: PLACING ATOMS IN PATCHES BY HYDROGEN GROUPS
Info: RIGID BONDS TO HYDROGEN : ALL
Info:         ERROR TOLERANCE : 1e-08
Info:          MAX ITERATIONS : 100
Info: RIGID WATER USING SETTLE ALGORITHM
Info: RANDOM NUMBER SEED     1743601115
Info: USE HYDROGEN BONDS?    NO
Info: Using AMBER format force field!
Info: AMBER PARM FILE        mobley_1261349.prmtop
Info: COORDINATE PDB         mobley_1261349.pdb
Info: Exclusions will be read from PARM file!
Info: SCNB (VDW SCALING)     2
Info: USING ARITHMETIC MEAN TO COMBINE L-J SIGMA PARAMETERS
Info: BINARY COORDINATES     mobley_1261349_equil.coor
Info: SUMMARY OF PARAMETERS:
Info: 4 BONDS
Info: 3 ANGLES
Info:   3 HARMONIC
Info:   0 COSINE-BASED
Info: 1 DIHEDRAL
Info: 0 IMPROPER
Info: 0 CROSSTERM
Info: 0 VDW
Info: 10 VDW_PAIRS
Info: 0 NBTHOLE_PAIRS
Info: To read alchdata from file: mobley_1261349.pdb
Info: To read alchflag data from column: 5
Info: STRUCTURE SUMMARY:
Info: 2939 ATOMS
Info: 2938 BONDS
Info: 30 ANGLES
Info: 36 DIHEDRALS
Info: 0 IMPROPERS
Info: 0 CROSSTERMS
Info: 3004 EXCLUSIONS
Info: 2934 RIGID BONDS
Info: ALCH: 0 ATOMS TO DISAPPEAR IN FINAL STATE
Info: ALCH: 17 ATOMS TO APPEAR IN FINAL STATE
Info: 5883 DEGREES OF FREEDOM
Info: 979 HYDROGEN GROUPS
Info: 4 ATOMS IN LARGEST HYDROGEN GROUP
Info: 979 MIGRATION GROUPS
Info: 4 ATOMS IN LARGEST MIGRATION GROUP
Info: TOTAL MASS = 17619.7 amu
Info: TOTAL CHARGE = 0.000400018 e
Info: MASS DENSITY = 0.952593 g/cm^3
Info: ATOM DENSITY = 0.095686 atoms/A^3
Info: ADDED 0 IMPLICIT EXCLUSIONS
Info: NONBONDED TABLE R-SQUARED SPACING: 0.0625
Info: NONBONDED TABLE SIZE: 705 POINTS
Info: REMOVING COM VELOCITY 0.0900783 0.0283898 -0.0921027
Info: Use 3D box decompostion in PME FFT.
Info: Updated CUDA force table with 4096 elements.
Info: Updated CUDA LJ table with 4 x 4 elements.
Info: Found 20 unique exclusion lists needing 48 bytes
TCL: Running for 1500000 steps
ETITLE: TS BOND ANGLE DIHED IMPRP ELECT VDW BOUNDARY MISC KINETIC TOTAL TEMP POTENTIAL TOTALAVG TEMPAVG PRESSURE GPRESSURE VOLUME PRESSAVG GPRESSAVG
ENERGY: 0 0.9930 6.9834 1.0314 0.0000 -10614.4922 1438.1357 0.0000 0.0000 1787.8502 -7379.4986 305.8600 -9167.3488 -7379.4986 305.8600 -124.0689 -45.5949 30715.0465 -124.0689 -45.5949
ENERGY: 300000 0.6505 10.0048 0.8369 0.0000 -10662.8247 1441.7969 0.0000 0.0000 1746.9313 -7462.6043 298.8597 -9209.5356 -7419.3144 301.2207 146.7072 218.3028 30511.3359 -14.7925 69.2050
ENERGY: 600000 1.6989 14.0397 1.2221 0.0000 -10624.8101 1418.4141 0.0000 0.0000 1767.0922 -7422.3431 302.3088 -9189.4352 -7426.7042 299.4583 -42.4573 -11.3800 30267.6315 -19.4071 53.3851
ENERGY: 900000 1.1804 10.4970 1.6306 0.0000 -10620.4141 1438.1309 0.0000 0.0000 1737.5411 -7431.4341 297.2533 -9168.9753 -7436.9835 298.4515 357.1773 433.6307 29766.9302 -79.4279 -16.5578
ENERGY: 1200000 1.3758 5.6260 0.5924 0.0000 -10796.2293 1531.6407 0.0000 0.0000 1807.4947 -7449.4997 309.2207 -9256.9944 -7430.8289 300.0422 572.3836 604.6126 30442.0978 -44.0641 11.5331
ENERGY: 1500000 1.2232 13.8241 0.8412 0.0000 -10707.4674 1446.3330 0.0000 0.0000 1787.2471 -7457.9989 305.7568 -9245.2460 -7442.2935 299.5852 -56.2583 9.6464 30192.9983 -73.5246 -17.0725
TCL: Running FEP window   2: Lambda1 0.95   Lambda2 0.8999999999999999 [dLambda -0.050000000000000044]
TCL: Setting parameter firsttimestep to 0
TCL: Setting parameter alchLambda to 0.95
Info: NONBONDED TABLE R-SQUARED SPACING: 0.0625
Info: NONBONDED TABLE SIZE: 705 POINTS
TCL: Setting parameter alchLambda2 to 0.8999999999999999
Info: NONBONDED TABLE R-SQUARED SPACING: 0.0625
Info: NONBONDED TABLE SIZE: 705 POINTS
TCL: Running for 1500000 steps
ETITLE: TS BOND ANGLE DIHED IMPRP ELECT VDW BOUNDARY MISC KINETIC TOTAL TEMP POTENTIAL TOTALAVG TEMPAVG PRESSURE GPRESSURE VOLUME PRESSAVG GPRESSAVG
ENERGY: 0 1.2232 13.8241 0.8412 0.0000 -10707.4890 1446.3656 0.0000 0.0000 1786.3293 -7458.9056 305.5998 -9245.2349 -7458.9056 305.5998 -87.1076 -4.1555 30192.9983 -87.1076 -4.1555
ENERGY: 300000 1.4157 10.8465 0.9993 0.0000 -10549.3762 1342.6292 0.0000 0.0000 1772.1662 -7421.3193 303.1768 -9193.4855 -7446.0792 303.8563 -708.0673 -655.8000 30634.2090 -219.2368 -183.0537
ENERGY: 600000 1.3627 9.8711 1.1875 0.0000 -10647.9431 1438.6923 0.0000 0.0000 1755.1319 -7441.6975 300.2626 -9196.8294 -7451.8066 301.4798 114.8632 179.6081 30191.1582 -31.3020 18.0272
ENERGY: 900000 2.5084 6.5990 0.4366 0.0000 -10669.3857 1477.0172 0.0000 0.0000 1783.8864 -7398.9383 305.1819 -9182.8246 -7441.3003 302.7566 627.4949 640.7561 29851.3176 -16.1578 32.5972
ENERGY: 1200000 0.7736 3.9711 1.9260 0.0000 -10697.5770 1441.9025 0.0000 0.0000 1832.7698 -7416.2340 313.5447 -9249.0038 -7443.2897 304.0772 21.4516 64.3439 30173.6355 -40.3316 11.8964
ENERGY: 1500000 0.9572 10.4118 1.9593 0.0000 -10499.0509 1358.1128 0.0000 0.0000 1748.8936 -7378.7162 299.1954 -9127.6098 -7436.3996 304.2608 -698.7238 -660.4742 30885.3549 -83.2384 -27.0648
TCL: Running FEP window   3: Lambda1 0.8999999999999999 Lambda2 0.8499999999999999 [dLambda -0.050000000000000044]
TCL: Setting parameter firsttimestep to 0
TCL: Setting parameter alchLambda to 0.8999999999999999
Info: NONBONDED TABLE R-SQUARED SPACING: 0.0625
Info: NONBONDED TABLE SIZE: 705 POINTS
TCL: Setting parameter alchLambda2 to 0.8499999999999999
Info: NONBONDED TABLE R-SQUARED SPACING: 0.0625
Info: NONBONDED TABLE SIZE: 705 POINTS
TCL: Running for 1500000 steps
ETITLE: TS BOND ANGLE DIHED IMPRP ELECT VDW BOUNDARY MISC KINETIC TOTAL TEMP POTENTIAL TOTALAVG TEMPAVG PRESSURE GPRESSURE VOLUME PRESSAVG GPRESSAVG
ENERGY: 0 0.9572 10.4118 1.9593 0.0000 -10499.0486 1358.6367 0.0000 0.0000 1748.0046 -7379.0790 299.0433 -9127.0836 -7379.0790 299.0433 -752.5002 -662.8647 30885.3549 -752.5002 -662.8647
ENERGY: 300000 0.8261 5.4960 0.4256 0.0000 -10553.7893 1383.5002 0.0000 0.0000 1716.0505 -7447.4909 293.5767 -9163.5414 -7427.9495 298.2337 -65.2871 -38.2075 30098.9561 -342.7130 -288.7769
ENERGY: 600000 0.4340 7.3364 0.2389 0.0000 -10613.6923 1421.0818 0.0000 0.0000 1763.1326 -7421.4686 301.6314 -9184.6012 -7438.3282 300.1520 -162.0184 -148.8037 30833.3469 -375.3064 -321.9007
ENERGY: 900000 2.8511 4.9492 1.0287 0.0000 -10738.3123 1458.0932 0.0000 0.0000 1772.4078 -7498.9823 303.2181 -9271.3901 -7452.7257 300.1782 111.2919 95.6189 30166.2752 -159.9317 -119.7878
ENERGY: 1200000 2.5287 8.5060 0.4639 0.0000 -10628.9072 1449.2837 0.0000 0.0000 1798.6700 -7369.4548 307.7110 -9168.1249 -7454.6969 299.7039 381.3783 428.5190 30035.8060 -129.4419 -85.7370
ENERGY: 1500000 0.5042 6.3289 0.4633 0.0000 -10485.3438 1302.9279 0.0000 0.0000 1808.5154 -7366.6040 309.3953 -9175.1195 -7449.1046 299.6757 -987.5787 -905.4001 30749.0096 -178.3760 -127.6467
TCL: Running FEP window   4: Lambda1 0.8499999999999999 Lambda2 0.7999999999999998 [dLambda -0.050000000000000044]
TCL: Setting parameter firsttimestep to 0
TCL: Setting parameter alchLambda to 0.8499999999999999
Info: NONBONDED TABLE R-SQUARED SPACING: 0.0625
Info: NONBONDED TABLE SIZE: 705 POINTS
TCL: Setting parameter alchLambda2 to 0.7999999999999998
Info: NONBONDED TABLE R-SQUARED SPACING: 0.0625
Info: NONBONDED TABLE SIZE: 705 POINTS
TCL: Running for 1500000 steps
ETITLE: TS BOND ANGLE DIHED IMPRP ELECT VDW BOUNDARY MISC KINETIC TOTAL TEMP POTENTIAL TOTALAVG TEMPAVG PRESSURE GPRESSURE VOLUME PRESSAVG GPRESSAVG
ENERGY: 0 0.5042 6.3289 0.4633 0.0000 -10485.3335 1303.2704 0.0000 0.0000 1807.6516 -7367.1151 309.2475 -9174.7666 -7367.1151 309.2475 -985.8058 -911.2048 30749.0096 -985.8058 -911.2048
ENERGY: 300000 0.2295 10.1678 0.4281 0.0000 -10507.2296 1322.8100 0.0000 0.0000 1765.8676 -7407.7266 302.0993 -9173.5942 -7432.6010 300.7939 -896.2642 -817.0199 30674.1556 -655.7157 -564.9021
ENERGY: 600000 2.4827 8.5241 1.2992 0.0000 -10538.3173 1403.0078 0.0000 0.0000 1710.5680 -7412.4356 292.6388 -9123.0035 -7452.3086 298.9692 -119.6895 -15.9758 30397.8111 -310.7706 -231.5072
ENERGY: 900000 0.5090 5.5006 1.2356 0.0000 -10821.2227 1523.8885 0.0000 0.0000 1745.7521 -7544.3369 298.6580 -9290.0889 -7471.3655 298.3601 416.7418 506.8835 30374.8960 -179.1214 -101.4945
ENERGY: 1200000 1.3855 6.9831 0.2867 0.0000 -10667.8726 1438.0561 0.0000 0.0000 1758.5411 -7462.6201 300.8459 -9221.1612 -7469.5378 298.1976 -138.5869 -149.2279 30634.4810 -202.0981 -133.4483
ENERGY: 1500000 1.1451 9.1197 1.7839 0.0000 -10693.0526 1415.2677 0.0000 0.0000 1730.8861 -7534.8501 296.1147 -9265.7362 -7486.3960 297.1738 -442.3464 -409.7998 30508.0077 -298.9637 -231.8981
TCL: Running FEP window   5: Lambda1 0.7999999999999998 Lambda2 0.7499999999999998 [dLambda -0.050000000000000044]
TCL: Setting parameter firsttimestep to 0
TCL: Setting parameter alchLambda to 0.7999999999999998
Info: NONBONDED TABLE R-SQUARED SPACING: 0.0625
Info: NONBONDED TABLE SIZE: 705 POINTS
TCL: Setting parameter alchLambda2 to 0.7499999999999998
Info: NONBONDED TABLE R-SQUARED SPACING: 0.0625
Info: NONBONDED TABLE SIZE: 705 POINTS
TCL: Running for 1500000 steps
ETITLE: TS BOND ANGLE DIHED IMPRP ELECT VDW BOUNDARY MISC KINETIC TOTAL TEMP POTENTIAL TOTALAVG TEMPAVG PRESSURE GPRESSURE VOLUME PRESSAVG GPRESSAVG
ENERGY: 0 1.1451 9.1197 1.7839 0.0000 -10693.0169 1415.7411 0.0000 0.0000 1730.0343 -7535.1929 295.9690 -9265.2272 -7535.1929 295.9690 -480.8760 -413.0665 30508.0077 -480.8760 -413.0665
ENERGY: 300000 2.3928 9.1654 2.4465 0.0000 -10572.6073 1388.3534 0.0000 0.0000 1737.6527 -7432.5965 297.2723 -9170.2492 -7475.4500 299.1359 -469.6270 -380.4512 30416.6854 -255.3443 -202.4924
ENERGY: 600000 1.5003 6.0865 0.4728 0.0000 -10528.6926 1300.6689 0.0000 0.0000 1701.2525 -7518.7115 291.0451 -9219.9641 -7478.9255 298.2201 -1201.7057 -1153.5134 30388.2973 -462.7573 -400.8931
ENERGY: 900000 2.3483 4.8594 0.8005 0.0000 -10783.9764 1477.0745 0.0000 0.0000 1777.2770 -7521.6166 304.0511 -9298.8936 -7467.9644 299.6537 -26.9967 49.7708 30074.5860 -309.2284 -252.9568
ENERGY: 1200000 1.0456 10.1435 0.6786 0.0000 -10668.6673 1433.4744 0.0000 0.0000 1718.6096 -7504.7155 294.0145 -9223.3251 -7465.9326 298.6609 -110.0972 -12.5046 30209.3168 -219.7126 -161.9203
ENERGY: 1500000 1.4048 7.2420 2.6755 0.0000 -10482.9291 1294.5617 0.0000 0.0000 1680.9659 -7496.0792 287.5745 -9177.0451 -7458.2749 298.7118 -1104.3605 -1087.7111 30524.6851 -241.2184 -189.7171
TCL: Running FEP window   6: Lambda1 0.7499999999999998 Lambda2 0.6999999999999997 [dLambda -0.050000000000000044]
TCL: Setting parameter firsttimestep to 0
TCL: Setting parameter alchLambda to 0.7499999999999998
Info: NONBONDED TABLE R-SQUARED SPACING: 0.0625
Info: NONBONDED TABLE SIZE: 705 POINTS
TCL: Setting parameter alchLambda2 to 0.6999999999999997
Info: NONBONDED TABLE R-SQUARED SPACING: 0.0625
Info: NONBONDED TABLE SIZE: 705 POINTS
TCL: Running for 1500000 steps
ETITLE: TS BOND ANGLE DIHED IMPRP ELECT VDW BOUNDARY MISC KINETIC TOTAL TEMP POTENTIAL TOTALAVG TEMPAVG PRESSURE GPRESSURE VOLUME PRESSAVG GPRESSAVG
ENERGY: 0 1.4048 7.2420 2.6755 0.0000 -10482.9132 1294.4587 0.0000 0.0000 1680.1119 -7497.0203 287.4285 -9177.1323 -7497.0203 287.4285 -1155.5822 -1095.6211 30524.6851 -1155.5822 -1095.6211
ENERGY: 300000 2.3861 9.5096 1.0598 0.0000 -10589.3811 1474.2453 0.0000 0.0000 1707.4577 -7394.7225 292.1067 -9102.1802 -7474.6732 295.6589 569.5734 568.6827 30297.8418 -2.7666 49.9226
ENERGY: 600000 1.1592 7.2347 0.7133 0.0000 -10669.3680 1456.1012 0.0000 0.0000 1771.4164 -7432.7432 303.0485 -9204.1596 -7463.4191 296.3427 -67.6042 -9.8210 30877.1662 152.6647 214.6784
ENERGY: 900000 0.9607 10.1093 0.4439 0.0000 -10545.3995 1391.2648 0.0000 0.0000 1753.1567 -7389.4641 299.9247 -9142.6208 -7457.5405 296.5556 -328.7485 -307.2152 30463.9858 38.5590 100.0985
ENERGY: 1200000 1.2144 6.7519 0.5860 0.0000 -10713.1313 1466.1757 0.0000 0.0000 1737.4887 -7500.9147 297.2443 -9238.4034 -7458.7086 297.3999 413.2815 451.4824 29813.9234 20.2661 86.9128
ENERGY: 1500000 0.7627 9.4220 0.3058 0.0000 -10659.7101 1434.5853 0.0000 0.0000 1808.2240 -7406.4104 309.3455 -9214.6344 -7449.6984 298.1798 351.6737 394.6846 29537.0298 162.3061 221.2537
TCL: Running FEP window   7: Lambda1 0.6999999999999997 Lambda2 0.6499999999999997 [dLambda -0.050000000000000044]
TCL: Setting parameter firsttimestep to 0
TCL: Setting parameter alchLambda to 0.6999999999999997
Info: NONBONDED TABLE R-SQUARED SPACING: 0.0625
Info: NONBONDED TABLE SIZE: 705 POINTS
TCL: Setting parameter alchLambda2 to 0.6499999999999997
Info: NONBONDED TABLE R-SQUARED SPACING: 0.0625
Info: NONBONDED TABLE SIZE: 705 POINTS
TCL: Running for 1500000 steps
ETITLE: TS BOND ANGLE DIHED IMPRP ELECT VDW BOUNDARY MISC KINETIC TOTAL TEMP POTENTIAL TOTALAVG TEMPAVG PRESSURE GPRESSURE VOLUME PRESSAVG GPRESSAVG
ENERGY: 0 0.7627 9.4220 0.3058 0.0000 -10659.7291 1434.9611 0.0000 0.0000 1807.3355 -7406.9421 309.1935 -9214.2776 -7406.9421 309.1935 296.4841 390.3569 29537.0298 296.4841 390.3569
ENERGY: 300000 0.8821 8.1193 1.0637 0.0000 -10571.5602 1415.6221 0.0000 0.0000 1709.6890 -7436.1840 292.4884 -9145.8730 -7418.9314 299.5600 149.1229 225.2280 30198.9379 98.3262 190.3727
ENERGY: 600000 1.2976 12.9516 0.4915 0.0000 -10756.5648 1504.4009 0.0000 0.0000 1701.7099 -7535.7133 291.1234 -9237.4232 -7456.9979 296.9238 781.7077 700.4700 29690.2390 350.2207 418.5661
ENERGY: 900000 0.3274 9.9024 0.7061 0.0000 -10542.9250 1337.5921 0.0000 0.0000 1851.9287 -7342.4683 316.8223 -9194.3969 -7429.3451 300.0577 -671.2308 -661.8046 30572.1628 121.0966 186.0640
ENERGY: 1200000 2.2478 7.7815 0.5835 0.0000 -10523.2333 1351.4713 0.0000 0.0000 1707.7791 -7453.3701 292.1617 -9161.1492 -7434.4122 299.8395 -651.4251 -639.0688 30758.7670 50.8047 106.8457
ENERGY: 1500000 2.5899 6.1909 0.5165 0.0000 -10559.7380 1362.2999 0.0000 0.0000 1755.2471 -7432.8937 300.2823 -9188.1408 -7444.7589 299.3277 -540.1972 -445.2515 29926.6824 -8.9667 50.6376
TCL: Running FEP window   8: Lambda1 0.6499999999999997 Lambda2 0.5999999999999996 [dLambda -0.050000000000000044]
TCL: Setting parameter firsttimestep to 0
TCL: Setting parameter alchLambda to 0.6499999999999997
Info: NONBONDED TABLE R-SQUARED SPACING: 0.0625
Info: NONBONDED TABLE SIZE: 705 POINTS
TCL: Setting parameter alchLambda2 to 0.5999999999999996
Info: NONBONDED TABLE R-SQUARED SPACING: 0.0625
Info: NONBONDED TABLE SIZE: 705 POINTS
TCL: Running for 1500000 steps
ETITLE: TS BOND ANGLE DIHED IMPRP ELECT VDW BOUNDARY MISC KINETIC TOTAL TEMP POTENTIAL TOTALAVG TEMPAVG PRESSURE GPRESSURE VOLUME PRESSAVG GPRESSAVG
ENERGY: 0 2.5899 6.1909 0.5165 0.0000 -10559.7134 1362.7817 0.0000 0.0000 1754.4136 -7433.2208 300.1398 -9187.6344 -7433.2208 300.1398 -526.0320 -447.0272 29926.6824 -526.0320 -447.0272
ENERGY: 300000 0.3364 9.2798 0.9157 0.0000 -10523.6685 1355.5652 0.0000 0.0000 1706.4861 -7451.0852 291.9405 -9157.5713 -7428.5899 299.4642 -819.6832 -777.8411 30776.4551 -227.2329 -154.4166
ENERGY: 600000 1.4030 11.0343 1.2151 0.0000 -10766.8717 1555.8140 0.0000 0.0000 1727.4402 -7469.9650 295.5252 -9197.4052 -7443.9282 299.2965 894.6376 1006.0053 30066.3266 30.6622 103.6950
ENERGY: 900000 1.2511 11.5765 0.6501 0.0000 -10612.5772 1408.8689 0.0000 0.0000 1698.4848 -7491.7458 290.5716 -9190.2306 -7446.1119 297.9636 -66.0576 -3.0642 29704.7397 -36.8364 29.5331
ENERGY: 1200000 0.7612 4.6654 1.8385 0.0000 -10667.0125 1431.8003 0.0000 0.0000 1828.5559 -7399.3913 312.8238 -9227.9471 -7440.1749 299.0214 -226.0951 -160.5056 30217.5285 -55.1679 11.6514
ENERGY: 1500000 0.4771 6.6088 0.8150 0.0000 -10750.4056 1509.0381 0.0000 0.0000 1734.4301 -7499.0365 296.7210 -9233.4666 -7443.9090 298.9916 674.1113 682.3396 29944.6636 -41.0894 25.1296
TCL: Running FEP window   9: Lambda1 0.5999999999999996 Lambda2 0.5499999999999996 [dLambda -0.050000000000000044]
TCL: Setting parameter firsttimestep to 0
TCL: Setting parameter alchLambda to 0.5999999999999996
Info: NONBONDED TABLE R-SQUARED SPACING: 0.0625
Info: NONBONDED TABLE SIZE: 705 POINTS
TCL: Setting parameter alchLambda2 to 0.5499999999999996
Info: NONBONDED TABLE R-SQUARED SPACING: 0.0625
Info: NONBONDED TABLE SIZE: 705 POINTS
TCL: Running for 1500000 steps
ETITLE: TS BOND ANGLE DIHED IMPRP ELECT VDW BOUNDARY MISC KINETIC TOTAL TEMP POTENTIAL TOTALAVG TEMPAVG PRESSURE GPRESSURE VOLUME PRESSAVG GPRESSAVG
ENERGY: 0 0.4771 6.6088 0.8150 0.0000 -10750.4249 1508.9199 0.0000 0.0000 1733.5735 -7500.0306 296.5745 -9233.6041 -7500.0306 296.5745 587.5685 673.2820 29944.6636 587.5685 673.2820
ENERGY: 300000 0.6546 6.8800 0.5543 0.0000 -10597.9644 1382.9043 0.0000 0.0000 1787.3024 -7419.6688 305.7663 -9206.9712 -7444.5154 302.9390 -399.6532 -369.6330 30231.1801 94.2770 135.6732
ENERGY: 600000 0.7458 7.6140 0.4868 0.0000 -10728.7722 1520.2423 0.0000 0.0000 1782.2549 -7417.4283 304.9028 -9199.6833 -7439.5265 302.4799 905.5238 952.2760 29870.6936 70.0563 114.8780
ENERGY: 900000 0.9581 6.1335 1.2856 0.0000 -10753.9814 1571.3001 0.0000 0.0000 1805.9392 -7368.3650 308.9546 -9174.3042 -7441.9322 302.2321 1075.1033 1054.7887 30493.9205 136.9940 169.8741
ENERGY: 1200000 0.9924 14.8052 0.8051 0.0000 -10548.9639 1400.0462 0.0000 0.0000 1746.1406 -7386.1744 298.7244 -9132.3150 -7437.3997 300.9911 63.0509 134.0270 30040.6613 90.8853 132.9411
ENERGY: 1500000 0.6202 5.0804 0.7446 0.0000 -10704.3821 1431.4218 0.0000 0.0000 1713.1177 -7553.3974 293.0750 -9266.5152 -7442.1636 299.7973 -235.7691 -125.1874 29944.5297 21.8513 74.3697
TCL: Running FEP window  10: Lambda1 0.5499999999999996 Lambda2 0.4999999999999996 [dLambda -0.04999999999999999]
TCL: Setting parameter firsttimestep to 0
TCL: Setting parameter alchLambda to 0.5499999999999996
Info: NONBONDED TABLE R-SQUARED SPACING: 0.0625
Info: NONBONDED TABLE SIZE: 705 POINTS
TCL: Setting parameter alchLambda2 to 0.4999999999999996
Info: NONBONDED TABLE R-SQUARED SPACING: 0.0625
Info: NONBONDED TABLE SIZE: 705 POINTS
TCL: Running for 1500000 steps
ETITLE: TS BOND ANGLE DIHED IMPRP ELECT VDW BOUNDARY MISC KINETIC TOTAL TEMP POTENTIAL TOTALAVG TEMPAVG PRESSURE GPRESSURE VOLUME PRESSAVG GPRESSAVG
ENERGY: 0 0.6202 5.0804 0.7446 0.0000 -10704.3499 1431.5003 0.0000 0.0000 1712.2355 -7554.1690 292.9240 -9266.4045 -7554.1690 292.9240 -228.2959 -130.1685 29944.5297 -228.2959 -130.1685
ENERGY: 300000 1.9230 8.2991 0.3608 0.0000 -10638.8855 1469.2551 0.0000 0.0000 1738.5361 -7420.5114 297.4235 -9159.0475 -7472.6926 297.8477 455.0895 500.0713 30368.5587 -140.5277 -73.5549
ENERGY: 600000 4.1391 9.9503 2.4616 0.0000 -10757.0693 1537.7112 0.0000 0.0000 1739.1652 -7463.6419 297.5311 -9202.8071 -7471.3638 297.0480 743.5868 823.5039 30237.8822 -134.7921 -68.3259
ENERGY: 900000 0.1489 6.6151 1.0096 0.0000 -10649.5328 1428.3342 0.0000 0.0000 1786.8768 -7426.5483 305.6935 -9213.4251 -7469.6113 298.4472 56.8390 80.2517 30137.3464 -70.3779 -8.2750
ENERGY: 1200000 1.4661 6.9696 0.5843 0.0000 -10583.1750 1313.3575 0.0000 0.0000 1749.5898 -7511.2076 299.3145 -9260.7974 -7475.4370 297.9956 -1204.3931 -1126.8186 30347.8631 -239.6971 -179.4204
ENERGY: 1500000 1.5834 7.8934 1.1798 0.0000 -10598.8262 1404.1510 0.0000 0.0000 1790.1607 -7393.8579 306.2553 -9184.0186 -7461.7720 298.7245 -429.4821 -385.5522 30572.0620 -185.2618 -125.0843
TCL: Running FEP window  11: Lambda1 0.4999999999999996 Lambda2 0.4499999999999996 [dLambda -0.04999999999999999]
TCL: Setting parameter firsttimestep to 0
TCL: Setting parameter alchLambda to 0.4999999999999996
Info: NONBONDED TABLE R-SQUARED SPACING: 0.0625
Info: NONBONDED TABLE SIZE: 705 POINTS
TCL: Setting parameter alchLambda2 to 0.4499999999999996
Info: NONBONDED TABLE R-SQUARED SPACING: 0.0625
Info: NONBONDED TABLE SIZE: 705 POINTS
TCL: Running for 1500000 steps
ETITLE: TS BOND ANGLE DIHED IMPRP ELECT VDW BOUNDARY MISC KINETIC TOTAL TEMP POTENTIAL TOTALAVG TEMPAVG PRESSURE GPRESSURE VOLUME PRESSAVG GPRESSAVG
ENERGY: 0 1.5834 7.8934 1.1798 0.0000 -10598.8187 1404.6799 0.0000 0.0000 1789.3129 -7394.1692 306.1102 -9183.4821 -7394.1692 306.1102 -471.7460 -384.0023 30572.0620 -471.7460 -384.0023
ENERGY: 300000 0.6968 5.8465 0.8620 0.0000 -10616.8821 1372.9334 0.0000 0.0000 1784.4151 -7452.1284 305.2723 -9236.5434 -7411.9393 305.1278 -704.8861 -657.3764 30407.7544 54.9366 102.8335
ENERGY: 600000 1.4945 6.6983 0.7318 0.0000 -10657.2814 1444.2005 0.0000 0.0000 1784.1062 -7420.0501 305.2195 -9204.1562 -7423.9677 304.8744 -107.1404 -119.6356 30754.2295 -131.9450 -79.1660
ENERGY: 900000 2.0307 10.5770 0.5129 0.0000 -10613.2235 1391.1354 0.0000 0.0000 1759.9986 -7448.9689 301.0952 -9208.9675 -7422.0129 304.4060 -378.7923 -251.6510 30027.2017 -145.0413 -82.4787
ENERGY: 1200000 0.8585 6.3210 1.1678 0.0000 -10630.3409 1415.4808 0.0000 0.0000 1790.8982 -7415.6145 306.3814 -9206.5127 -7411.0499 304.6552 -178.3722 -131.1828 30452.7549 -72.4251 -12.3626
ENERGY: 1500000 1.8616 6.4018 0.3979 0.0000 -10611.8897 1425.7822 0.0000 0.0000 1781.4612 -7395.9849 304.7670 -9177.4462 -7421.4101 303.7918 74.7621 90.8451 30133.3236 -118.1413 -64.9145
TCL: Running FEP window  12: Lambda1 0.4499999999999996 Lambda2 0.39999999999999963 [dLambda -0.04999999999999999]
TCL: Setting parameter firsttimestep to 0
TCL: Setting parameter alchLambda to 0.4499999999999996
Info: NONBONDED TABLE R-SQUARED SPACING: 0.0625
Info: NONBONDED TABLE SIZE: 705 POINTS
TCL: Setting parameter alchLambda2 to 0.39999999999999963
Info: NONBONDED TABLE R-SQUARED SPACING: 0.0625
Info: NONBONDED TABLE SIZE: 705 POINTS
TCL: Running for 1500000 steps
ETITLE: TS BOND ANGLE DIHED IMPRP ELECT VDW BOUNDARY MISC KINETIC TOTAL TEMP POTENTIAL TOTALAVG TEMPAVG PRESSURE GPRESSURE VOLUME PRESSAVG GPRESSAVG
ENERGY: 0 1.8616 6.4018 0.3979 0.0000 -10611.8910 1425.4178 0.0000 0.0000 1780.5519 -7397.2600 304.6114 -9177.8119 -7397.2600 304.6114 -10.1972 82.5654 30133.3236 -10.1972 82.5654
ENERGY: 300000 0.8510 12.0293 1.3212 0.0000 -10636.8012 1422.1033 0.0000 0.0000 1801.7760 -7398.7204 308.2424 -9200.4963 -7423.3360 303.2054 14.3441 12.7689 30145.1242 367.7777 413.3596
ENERGY: 600000 2.0313 11.2898 1.1197 0.0000 -10507.3835 1375.9084 0.0000 0.0000 1809.7087 -7307.3256 309.5995 -9117.0344 -7410.1964 303.8454 -377.8796 -293.8867 30448.8462 227.8099 290.2078
ENERGY: 900000 5.4130 7.8933 0.8155 0.0000 -10454.0467 1292.6958 0.0000 0.0000 1778.8129 -7368.4163 304.3139 -9147.2292 -7422.1974 302.2156 -1270.7124 -1199.8523 30504.5007 -71.1113 -0.2436
ENERGY: 1200000 0.1482 8.3941 1.4842 0.0000 -10550.0821 1389.2071 0.0000 0.0000 1752.4932 -7398.3552 299.8112 -9150.8485 -7415.9037 301.3177 -279.6242 -203.8958 30344.5140 -132.2057 -58.5252
ENERGY: 1500000 1.1842 8.0709 0.8458 0.0000 -10648.4339 1442.5081 0.0000 0.0000 1758.5898 -7437.2351 300.8542 -9195.8249 -7427.6164 300.4222 -62.0991 65.1015 30243.2275 -148.7293 -72.8230
TCL: Running FEP window  13: Lambda1 0.39999999999999963 Lambda2 0.34999999999999964 [dLambda -0.04999999999999999]
TCL: Setting parameter firsttimestep to 0
TCL: Setting parameter alchLambda to 0.39999999999999963
Info: NONBONDED TABLE R-SQUARED SPACING: 0.0625
Info: NONBONDED TABLE SIZE: 705 POINTS
TCL: Setting parameter alchLambda2 to 0.34999999999999964
Info: NONBONDED TABLE R-SQUARED SPACING: 0.0625
Info: NONBONDED TABLE SIZE: 705 POINTS
TCL: Running for 1500000 steps
ETITLE: TS BOND ANGLE DIHED IMPRP ELECT VDW BOUNDARY MISC KINETIC TOTAL TEMP POTENTIAL TOTALAVG TEMPAVG PRESSURE GPRESSURE VOLUME PRESSAVG GPRESSAVG
ENERGY: 0 1.1842 8.0709 0.8458 0.0000 -10648.4327 1442.3281 0.0000 0.0000 1757.7376 -7438.2660 300.7084 -9196.0037 -7438.2660 300.7084 -38.4703 57.8220 30243.2275 -38.4703 57.8220
ENERGY: 300000 0.4000 9.2553 0.4992 0.0000 -10738.7298 1529.8991 0.0000 0.0000 1739.7297 -7458.9465 297.6277 -9198.6762 -7442.8454 299.6334 732.3881 810.4513 30191.4910 34.7225 124.6972
ENERGY: 600000 0.6747 11.4651 0.7240 0.0000 -10640.0262 1430.7146 0.0000 0.0000 1710.1380 -7486.3099 292.5652 -9196.4479 -7467.0911 296.6873 -159.4206 -94.5928 30154.3713 -71.0703 6.7481
ENERGY: 900000 1.2622 6.4804 0.6721 0.0000 -10588.3379 1383.7496 0.0000 0.0000 1746.0587 -7450.1149 298.7104 -9196.1736 -7467.4874 297.5475 -328.8728 -228.9327 29996.8920 -130.2097 -54.0006
ENERGY: 1200000 1.3520 8.4028 0.4886 0.0000 -10727.0373 1439.7472 0.0000 0.0000 1726.0392 -7551.0075 295.2856 -9277.0467 -7459.4002 297.8957 -248.5393 -111.6725 29791.7338 -86.1652 -11.2917
ENERGY: 1500000 0.5447 4.7954 0.6985 0.0000 -10516.9177 1398.8330 0.0000 0.0000 1675.3735 -7436.6726 286.6178 -9112.0461 -7463.5523 297.2194 69.9563 69.2282 30096.9227 -5.3307 65.0769
TCL: Running FEP window  14: Lambda1 0.34999999999999964 Lambda2 0.29999999999999966 [dLambda -0.04999999999999999]
TCL: Setting parameter firsttimestep to 0
TCL: Setting parameter alchLambda to 0.34999999999999964
Info: NONBONDED TABLE R-SQUARED SPACING: 0.0625
Info: NONBONDED TABLE SIZE: 705 POINTS
TCL: Setting parameter alchLambda2 to 0.29999999999999966
Info: NONBONDED TABLE R-SQUARED SPACING: 0.0625
Info: NONBONDED TABLE SIZE: 705 POINTS
TCL: Running for 1500000 steps
ETITLE: TS BOND ANGLE DIHED IMPRP ELECT VDW BOUNDARY MISC KINETIC TOTAL TEMP POTENTIAL TOTALAVG TEMPAVG PRESSURE GPRESSURE VOLUME PRESSAVG GPRESSAVG
ENERGY: 0 0.5447 4.7954 0.6985 0.0000 -10516.9173 1399.2983 0.0000 0.0000 1674.4987 -7437.0816 286.4682 -9111.5803 -7437.0816 286.4682 -7.7719 70.7063 30096.9227 -7.7719 70.7063
ENERGY: 300000 0.7264 8.2795 1.0454 0.0000 -10645.5589 1429.4735 0.0000 0.0000 1790.6525 -7415.3817 306.3394 -9206.0342 -7408.3095 301.2792 65.4054 169.5789 29773.8116 447.9943 546.8605
ENERGY: 600000 1.2012 9.7548 0.3444 0.0000 -10855.5834 1583.2297 0.0000 0.0000 1756.3264 -7504.7269 300.4670 -9261.0533 -7440.6766 299.7626 950.5859 1028.5718 29766.7245 254.2024 338.2984
ENERGY: 900000 0.8807 10.9292 1.2891 0.0000 -10749.0587 1459.5982 0.0000 0.0000 1749.1333 -7527.2283 299.2364 -9276.3616 -7458.9539 299.3326 87.1221 95.4988 29858.1335 269.8700 331.8233
ENERGY: 1200000 1.5756 7.5789 1.6273 0.0000 -10593.6648 1375.1355 0.0000 0.0000 1799.2095 -7408.5380 307.8033 -9207.7475 -7459.3426 299.8104 -545.0546 -495.6338 30422.5375 125.5615 178.6280
ENERGY: 1500000 0.4866 11.4637 1.7442 0.0000 -10789.9124 1489.7492 0.0000 0.0000 1729.2023 -7557.2664 295.8267 -9286.4688 -7471.3447 299.3919 39.0440 78.5450 30330.7603 141.0794 190.6576
TCL: Running FEP window  15: Lambda1 0.29999999999999966 Lambda2 0.24999999999999967 [dLambda -0.04999999999999999]
TCL: Setting parameter firsttimestep to 0
TCL: Setting parameter alchLambda to 0.29999999999999966
Info: NONBONDED TABLE R-SQUARED SPACING: 0.0625
Info: NONBONDED TABLE SIZE: 705 POINTS
TCL: Setting parameter alchLambda2 to 0.24999999999999967
Info: NONBONDED TABLE R-SQUARED SPACING: 0.0625
Info: NONBONDED TABLE SIZE: 705 POINTS
TCL: Running for 1500000 steps
ETITLE: TS BOND ANGLE DIHED IMPRP ELECT VDW BOUNDARY MISC KINETIC TOTAL TEMP POTENTIAL TOTALAVG TEMPAVG PRESSURE GPRESSURE VOLUME PRESSAVG GPRESSAVG
ENERGY: 0 0.4866 11.4637 1.7442 0.0000 -10789.9110 1489.5243 0.0000 0.0000 1728.3209 -7558.3713 295.6759 -9286.6922 -7558.3713 295.6759 -13.2593 70.5029 30330.7603 -13.2593 70.5029
ENERGY: 300000 1.3100 10.7559 0.6827 0.0000 -10596.6304 1401.8721 0.0000 0.0000 1677.4369 -7504.5728 286.9708 -9182.0097 -7458.3586 298.3861 -377.4209 -267.2548 30198.0288 -151.8278 -68.7399
ENERGY: 600000 0.5333 6.6548 0.4331 0.0000 -10541.4472 1379.8402 0.0000 0.0000 1695.1493 -7458.8365 290.0010 -9153.9858 -7467.8819 296.5233 -238.9980 -142.8652 30064.4149 -83.5885 -1.3049
ENERGY: 900000 0.4855 9.1235 0.6244 0.0000 -10648.5378 1496.1454 0.0000 0.0000 1726.8144 -7415.3446 295.4182 -9142.1589 -7452.5238 297.1095 491.9218 497.6909 30186.7595 -23.5788 49.2496
ENERGY: 1200000 1.0782 7.2594 0.7224 0.0000 -10646.3067 1454.5875 0.0000 0.0000 1702.6470 -7480.0122 291.2837 -9182.6592 -7454.5226 297.0416 344.3584 441.6095 29704.7720 32.5005 104.9711
ENERGY: 1500000 1.3604 7.8947 1.6788 0.0000 -10701.1616 1422.6257 0.0000 0.0000 1804.5427 -7463.0591 308.7157 -9267.6019 -7459.0463 297.8374 -355.4498 -282.3568 30423.5936 -2.6863 72.8913
TCL: Running FEP window  16: Lambda1 0.24999999999999967 Lambda2 0.19999999999999968 [dLambda -0.04999999999999999]
TCL: Setting parameter firsttimestep to 0
TCL: Setting parameter alchLambda to 0.24999999999999967
Info: NONBONDED TABLE R-SQUARED SPACING: 0.0625
Info: NONBONDED TABLE SIZE: 705 POINTS
TCL: Setting parameter alchLambda2 to 0.19999999999999968
Info: NONBONDED TABLE R-SQUARED SPACING: 0.0625
Info: NONBONDED TABLE SIZE: 705 POINTS
TCL: Running for 1500000 steps
ETITLE: TS BOND ANGLE DIHED IMPRP ELECT VDW BOUNDARY MISC KINETIC TOTAL TEMP POTENTIAL TOTALAVG TEMPAVG PRESSURE GPRESSURE VOLUME PRESSAVG GPRESSAVG
ENERGY: 0 1.3604 7.8947 1.6788 0.0000 -10701.1621 1422.8770 0.0000 0.0000 1803.6530 -7463.6980 308.5635 -9267.3511 -7463.6980 308.5635 -363.7951 -285.1224 30423.5936 -363.7951 -285.1224
ENERGY: 300000 0.1091 7.2371 0.4125 0.0000 -10756.1426 1485.6576 0.0000 0.0000 1733.6733 -7529.0530 296.5916 -9262.7263 -7497.9188 298.9787 205.6236 254.9147 29876.3050 78.5279 125.1799
ENERGY: 600000 0.7567 9.0997 0.8786 0.0000 -10678.4409 1464.2584 0.0000 0.0000 1772.3365 -7431.1110 303.2059 -9203.4475 -7489.1740 301.1608 308.4623 369.0214 29981.0839 201.8241 256.7753
ENERGY: 900000 1.0241 10.4032 0.3306 0.0000 -10582.6530 1376.3527 0.0000 0.0000 1782.7003 -7411.8420 304.9790 -9194.5423 -7461.1256 301.6258 -467.0559 -436.8768 30214.7475 165.8671 212.6785
ENERGY: 1200000 1.6642 6.2139 1.5868 0.0000 -10570.2515 1423.0570 0.0000 0.0000 1795.2072 -7342.5224 307.1186 -9137.7296 -7452.5176 301.8644 369.8997 418.3307 29673.7244 151.9126 195.6870
ENERGY: 1500000 1.7184 6.0667 0.7661 0.0000 -10600.9731 1396.1761 0.0000 0.0000 1799.4951 -7396.7508 307.8522 -9196.2459 -7453.4008 301.9202 -457.9265 -480.1088 30475.4022 101.0008 142.4538
TCL: Running FEP window  17: Lambda1 0.19999999999999968 Lambda2 0.1499999999999997 [dLambda -0.04999999999999999]
TCL: Setting parameter firsttimestep to 0
TCL: Setting parameter alchLambda to 0.19999999999999968
Info: NONBONDED TABLE R-SQUARED SPACING: 0.0625
Info: NONBONDED TABLE SIZE: 705 POINTS
TCL: Setting parameter alchLambda2 to 0.1499999999999997
Info: NONBONDED TABLE R-SQUARED SPACING: 0.0625
Info: NONBONDED TABLE SIZE: 705 POINTS
TCL: Running for 1500000 steps
ETITLE: TS BOND ANGLE DIHED IMPRP ELECT VDW BOUNDARY MISC KINETIC TOTAL TEMP POTENTIAL TOTALAVG TEMPAVG PRESSURE GPRESSURE VOLUME PRESSAVG GPRESSAVG
ENERGY: 0 1.7184 6.0667 0.7661 0.0000 -10600.9725 1396.5085 0.0000 0.0000 1798.6238 -7397.2890 307.7031 -9195.9128 -7397.2890 307.7031 -556.8738 -481.3231 30475.4022 -556.8738 -481.3231
ENERGY: 300000 1.0693 9.5696 3.3425 0.0000 -10828.3688 1514.4657 0.0000 0.0000 1804.5802 -7495.3414 308.7221 -9299.9216 -7480.0372 302.6643 613.7590 719.3221 29376.7022 -258.6306 -178.6752
ENERGY: 600000 2.1770 7.5669 0.2886 0.0000 -10622.1057 1470.9174 0.0000 0.0000 1715.8723 -7425.2835 293.5462 -9141.1558 -7439.2637 303.3114 384.6369 480.1738 30043.1598 -143.1403 -73.1934
ENERGY: 900000 2.8955 8.7239 1.7011 0.0000 -10558.0014 1403.6257 0.0000 0.0000 1702.6133 -7438.4419 291.2779 -9141.0551 -7438.1407 300.5762 -252.1902 -128.1805 30029.7745 -226.8436 -152.5647
ENERGY: 1200000 1.1143 11.7658 2.8001 0.0000 -10813.6912 1511.2951 0.0000 0.0000 1730.2431 -7556.4727 296.0047 -9286.7158 -7445.3302 299.5249 466.4587 543.0928 29761.7830 -200.9027 -127.2816
ENERGY: 1500000 0.5696 8.5530 0.7352 0.0000 -10686.2627 1420.7653 0.0000 0.0000 1768.6147 -7487.0249 302.5692 -9255.6396 -7450.0233 299.9192 -60.7379 -25.8894 29822.7002 -200.0329 -128.3734
TCL: Running FEP window  18: Lambda1 0.1499999999999997 Lambda2 0.09999999999999969 [dLambda -0.05 ]
TCL: Setting parameter firsttimestep to 0
TCL: Setting parameter alchLambda to 0.1499999999999997
Info: NONBONDED TABLE R-SQUARED SPACING: 0.0625
Info: NONBONDED TABLE SIZE: 705 POINTS
TCL: Setting parameter alchLambda2 to 0.09999999999999969
Info: NONBONDED TABLE R-SQUARED SPACING: 0.0625
Info: NONBONDED TABLE SIZE: 705 POINTS
TCL: Running for 1500000 steps
ETITLE: TS BOND ANGLE DIHED IMPRP ELECT VDW BOUNDARY MISC KINETIC TOTAL TEMP POTENTIAL TOTALAVG TEMPAVG PRESSURE GPRESSURE VOLUME PRESSAVG GPRESSAVG
ENERGY: 0 0.5696 8.5530 0.7352 0.0000 -10686.2626 1420.4606 0.0000 0.0000 1767.7267 -7488.2176 302.4173 -9255.9443 -7488.2176 302.4173 -125.7767 -28.6929 29822.7002 -125.7767 -28.6929
ENERGY: 300000 1.4426 7.5069 1.0364 0.0000 -10779.4573 1497.5011 0.0000 0.0000 1808.3779 -7463.5924 309.3718 -9271.9703 -7507.8012 298.2172 350.7536 336.4327 30174.6746 -78.8836 -26.9464
ENERGY: 600000 1.6243 7.9482 1.2161 0.0000 -10676.2717 1468.3632 0.0000 0.0000 1769.7241 -7427.3959 302.7590 -9197.1200 -7488.8188 299.1625 362.1138 417.9639 30038.8169 -29.6751 13.5585
ENERGY: 900000 0.2630 9.0677 0.2891 0.0000 -10691.3582 1481.3770 0.0000 0.0000 1794.0188 -7406.3426 306.9153 -9200.3614 -7458.6484 301.7970 195.8732 280.3609 30510.2198 -94.3206 -45.1410
ENERGY: 1200000 1.5276 7.0009 1.3246 0.0000 -10680.9527 1459.3985 0.0000 0.0000 1734.9015 -7476.7996 296.8017 -9211.7011 -7448.4813 300.8460 50.5667 106.3725 30155.1977 -156.3039 -104.5068
ENERGY: 1500000 0.4686 7.6107 2.0224 0.0000 -10668.4681 1441.9662 0.0000 0.0000 1767.2570 -7449.1432 302.3370 -9216.4003 -7439.0591 301.8822 -122.3245 -48.4554 30379.7099 -80.6177 -18.9133
TCL: Running FEP window  19: Lambda1 0.09999999999999969 Lambda2 0.049999999999999684 [dLambda -0.05 ]
TCL: Setting parameter firsttimestep to 0
TCL: Setting parameter alchLambda to 0.09999999999999969
Info: NONBONDED TABLE R-SQUARED SPACING: 0.0625
Info: NONBONDED TABLE SIZE: 705 POINTS
TCL: Setting parameter alchLambda2 to 0.049999999999999684
Info: NONBONDED TABLE R-SQUARED SPACING: 0.0625
Info: NONBONDED TABLE SIZE: 705 POINTS
TCL: Running for 1500000 steps
ETITLE: TS BOND ANGLE DIHED IMPRP ELECT VDW BOUNDARY MISC KINETIC TOTAL TEMP POTENTIAL TOTALAVG TEMPAVG PRESSURE GPRESSURE VOLUME PRESSAVG GPRESSAVG
ENERGY: 0 0.4686 7.6107 2.0224 0.0000 -10668.4672 1442.3007 0.0000 0.0000 1766.3560 -7449.7088 302.1828 -9216.0649 -7449.7088 302.1828 -122.6170 -46.1350 30379.7099 -122.6170 -46.1350
ENERGY: 300000 2.0392 5.9745 0.7775 0.0000 -10686.8026 1445.7107 0.0000 0.0000 1767.1366 -7465.1642 302.3164 -9232.3008 -7453.6616 301.3348 -129.4977 20.8722 29764.2977 24.1727 125.0967
ENERGY: 600000 1.2870 5.4484 0.6517 0.0000 -10639.1753 1426.7752 0.0000 0.0000 1750.8894 -7454.1236 299.5368 -9205.0130 -7456.6109 300.3712 -184.0001 -160.4109 30120.0123 -114.7110 -42.5762
ENERGY: 900000 2.5326 14.3473 1.5616 0.0000 -10662.0103 1414.8929 0.0000 0.0000 1766.6993 -7461.9766 302.2416 -9228.6759 -7454.3902 299.9737 -517.7391 -438.1201 30355.7156 -219.5360 -151.5064
ENERGY: 1200000 0.8955 8.9739 1.0944 0.0000 -10739.8893 1494.1474 0.0000 0.0000 1805.6043 -7429.1738 308.8973 -9234.7781 -7457.2637 300.6872 436.4403 534.2796 29912.9961 -106.4828 -36.3544
ENERGY: 1500000 2.1436 7.2668 0.7083 0.0000 -10686.2679 1440.1620 0.0000 0.0000 1809.4209 -7426.5661 309.5502 -9235.9870 -7449.4953 301.6357 -42.2847 90.1367 29788.6323 -125.2903 -49.2611
TCL: Running FEP window  20: Lambda1 0.049999999999999684 Lambda2 0.0    [dLambda -0.049999999999999684]
TCL: Setting parameter firsttimestep to 0
TCL: Setting parameter alchLambda to 0.049999999999999684
Info: NONBONDED TABLE R-SQUARED SPACING: 0.0625
Info: NONBONDED TABLE SIZE: 705 POINTS
TCL: Setting parameter alchLambda2 to 0.0
Info: NONBONDED TABLE R-SQUARED SPACING: 0.0625
Info: NONBONDED TABLE SIZE: 705 POINTS
TCL: Running for 1500000 steps
ETITLE: TS BOND ANGLE DIHED IMPRP ELECT VDW BOUNDARY MISC KINETIC TOTAL TEMP POTENTIAL TOTALAVG TEMPAVG PRESSURE GPRESSURE VOLUME PRESSAVG GPRESSAVG
ENERGY: 0 2.1436 7.2668 0.7083 0.0000 -10686.2684 1440.5463 0.0000 0.0000 1808.5446 -7427.0587 309.4003 -9235.6033 -7427.0587 309.4003 -5.0840 87.1521 29788.6323 -5.0840 87.1521
ENERGY: 300000 0.0921 2.7824 0.6226 0.0000 -10592.8075 1442.8261 0.0000 0.0000 1777.7066 -7368.7776 304.1247 -9146.4842 -7432.9551 302.5671 93.6841 99.3472 30522.2879 120.3265 174.8952
ENERGY: 600000 0.1469 6.8218 0.6445 0.0000 -10660.8282 1421.6870 0.0000 0.0000 1733.6935 -7497.8345 296.5950 -9231.5280 -7451.4009 301.5559 -3.8662 83.0553 29692.0548 -78.6373 -26.4274
ENERGY: 900000 1.2518 6.2520 0.4712 0.0000 -10619.7104 1444.3718 0.0000 0.0000 1709.4051 -7457.9585 292.4398 -9167.3635 -7448.6867 300.5121 -78.4667 -39.3660 30405.5419 -36.5652 17.9318
ENERGY: 1200000 2.0596 6.2143 0.8245 0.0000 -10623.0340 1463.5569 0.0000 0.0000 1715.4538 -7434.9249 293.4746 -9150.3787 -7454.1736 299.9439 558.0683 593.2295 29807.8360 -73.0700 -19.7242
ENERGY: 1500000 1.1023 7.9350 0.9487 0.0000 -10714.6329 1404.1688 0.0000 0.0000 1782.8065 -7517.6716 304.9971 -9300.4781 -7449.8561 300.5686 -337.3848 -294.3680 29925.3126 -74.2519 -22.5505
TCL: Exiting due to exit command.
