Info: SIMULATION PARAMETERS:
Info: TIMESTEP               2
Info: NUMBER OF STEPS        0
Info: STEPS PER CYCLE        10
Info: PERIODIC CELL BASIS 1  31.0312 0 0
Info: PERIODIC CELL BASIS 2  0 31.3866 0
Info: PERIODIC CELL BASIS 3  0 0 31.5932
Info: PERIODIC CELL CENTER   0 0 0
Info: WRAPPING WATERS AROUND PERIODIC BOUNDARIES ON OUTPUT.
Info: WRAPPING ALL CLUSTERS AROUND PERIODIC BOUNDARIES ON OUTPUT.
Info: FIRST LDB TIMESTEP     50
Info: LAST LDB TIMESTEP     -1
Info: HOM BACKGROUND SCALING 1
Info: PME BACKGROUND SCALING 1
Info: MIN ATOMS PER PATCH    40
Info: EMPTY PATCH LOAD       40 ATOMS
Info: VELOCITY FILE          mobley_8899867_equil.vel
Info: CENTER OF MASS MOVING INITIALLY? NO
Info: DIELECTRIC             1
Info: EXCLUDE                SCALED ONE-FOUR
Info: 1-4 ELECTROSTATICS SCALED BY 0.833333
Info: MODIFIED 1-4 VDW PARAMETERS WILL BE USED
Info: DCD FILENAME           mobley_8899867_prod.dcd
Info: DCD FREQUENCY          100000
Info: DCD FIRST STEP         100000
Info: DCD FILE WILL CONTAIN UNIT CELL DATA
Info: XST FILENAME           mobley_8899867_prod.xst
Info: XST FREQUENCY          100000
Info: NO VELOCITY DCD OUTPUT
Info: NO FORCE DCD OUTPUT
Info: OUTPUT FILENAME        mobley_8899867_prod
Info: BINARY OUTPUT FILES WILL BE USED
Info: RESTART FILENAME       mobley_8899867_prod.restart
Info: RESTART FREQUENCY      100000
Info: BINARY RESTART FILES WILL BE USED
Info: CUTOFF                 9
Info: PAIRLIST DISTANCE      11
Info: PAIRLIST SHRINK RATE   0.01
Info: PAIRLIST GROW RATE     0.01
Info: PAIRLIST TRIGGER       0.3
Info: PAIRLISTS PER CYCLE    2
Info: PAIRLISTS ENABLED
Info: MARGIN                 2
Info: HYDROGEN GROUP CUTOFF  2.5
Info: PATCH DIMENSION        15.5
Info: ENERGY OUTPUT STEPS    100000
Info: ENERGY EVALUATION STEPS    100000
Info: OUTPUT ENERGY PRECISION 4
Info: CROSSTERM ENERGY INCLUDED IN DIHEDRAL
Info: TIMING OUTPUT STEPS    1000000
Info: PRESSURE OUTPUT STEPS  100000
Info: ALCHEMICAL FEP ON
Info: FEP CURRENT LAMBDA VALUE     0
Info: FEP COMPARISON LAMBDA VALUE  0.05
Info: FEP INTRA-ALCHEMICAL NON-BONDED INTERACTIONS WILL BE RETAINED
Info: FEP INTRA-ALCHEMICAL BONDED INTERACTIONS WILL BE RETAINED
Info: FEP VDW SHIFTING COEFFICIENT 5
Info: FEP ELEC. ACTIVE FOR ANNIHILATED PARTICLES BETWEEN LAMBDA = 0 AND LAMBDA = 0.5
Info: FEP ELEC. ACTIVE FOR EXNIHILATED PARTICLES BETWEEN LAMBDA = 0.5 AND LAMBDA = 1
Info: FEP VDW ACTIVE FOR ANNIHILATED PARTICLES BETWEEN LAMBDA = 0 AND LAMBDA = 1
Info: FEP VDW ACTIVE FOR EXNIHILATED PARTICLES BETWEEN LAMBDA = 0 AND LAMBDA = 1
Info: FEP BOND ACTIVE FOR ANNIHILATED PARTICLES BETWEEN LAMBDA = 1 AND LAMBDA = 1
Info: FEP BOND ACTIVE FOR EXNIHILATED PARTICLES BETWEEN LAMBDA = 0 AND LAMBDA = 0
Info: LANGEVIN DYNAMICS ACTIVE
Info: LANGEVIN TEMPERATURE   300
Info: LANGEVIN USING BBK INTEGRATOR
Info: LANGEVIN DAMPING COEFFICIENT IS 1 INVERSE PS
Info: LANGEVIN DYNAMICS APPLIED TO HYDROGENS
Info: LANGEVIN PISTON PRESSURE CONTROL ACTIVE
Info:        TARGET PRESSURE IS 1.01325 BAR
Info:     OSCILLATION PERIOD IS 50 FS
Info:             DECAY TIME IS 25 FS
Info:     PISTON TEMPERATURE IS 300 K
Info:       PRESSURE CONTROL IS GROUP-BASED
Info:    INITIAL STRAIN RATE IS -0.000471475 -0.000471475 -0.000471475
Info:       CELL FLUCTUATION IS ISOTROPIC
Info: PARTICLE MESH EWALD (PME) ACTIVE
Info: PME TOLERANCE               1e-06
Info: PME EWALD COEFFICIENT       0.348832
Info: PME INTERPOLATION ORDER     4
Info: PME GRID DIMENSIONS         32 32 32
Info: PME MAXIMUM GRID SPACING    1
Info: PME CALCULATION WILL BE PERFORMED ON GPU
Info: FULL ELECTROSTATIC EVALUATION FREQUENCY      2
Info: USING VERLET I (r-RESPA) MTS SCHEME.
Info: C1 SPLITTING OF LONG RANGE ELECTROSTATICS
Info: PLACING ATOMS IN PATCHES BY HYDROGEN GROUPS
Info: RIGID BONDS TO HYDROGEN : ALL
Info:         ERROR TOLERANCE : 1e-08
Info:          MAX ITERATIONS : 100
Info: RIGID WATER USING SETTLE ALGORITHM
Info: RANDOM NUMBER SEED     1743585837
Info: USE HYDROGEN BONDS?    NO
Info: Using AMBER format force field!
Info: AMBER PARM FILE        mobley_8899867.prmtop
Info: COORDINATE PDB         mobley_8899867.pdb
Info: Exclusions will be read from PARM file!
Info: SCNB (VDW SCALING)     2
Info: USING ARITHMETIC MEAN TO COMBINE L-J SIGMA PARAMETERS
Info: BINARY COORDINATES     mobley_8899867_equil.coor
Info: SUMMARY OF PARAMETERS:
Info: 7 BONDS
Info: 7 ANGLES
Info:   7 HARMONIC
Info:   0 COSINE-BASED
Info: 9 DIHEDRAL
Info: 0 IMPROPER
Info: 0 CROSSTERM
Info: 0 VDW
Info: 21 VDW_PAIRS
Info: 0 NBTHOLE_PAIRS
Info: To read alchdata from file: mobley_8899867.pdb
Info: To read alchflag data from column: 5
Info: STRUCTURE SUMMARY:
Info: 2956 ATOMS
Info: 2956 BONDS
Info: 31 ANGLES
Info: 64 DIHEDRALS
Info: 0 IMPROPERS
Info: 0 CROSSTERMS
Info: 3030 EXCLUSIONS
Info: 2950 RIGID BONDS
Info: ALCH: 0 ATOMS TO DISAPPEAR IN FINAL STATE
Info: ALCH: 16 ATOMS TO APPEAR IN FINAL STATE
Info: 5918 DEGREES OF FREEDOM
Info: 986 HYDROGEN GROUPS
Info: 3 ATOMS IN LARGEST HYDROGEN GROUP
Info: 986 MIGRATION GROUPS
Info: 3 ATOMS IN LARGEST MIGRATION GROUP
Info: TOTAL MASS = 17741.8 amu
Info: TOTAL CHARGE = 0.000200015 e
Info: MASS DENSITY = 0.95746 g/cm^3
Info: ATOM DENSITY = 0.0960656 atoms/A^3
Info: ADDED 0 IMPLICIT EXCLUSIONS
Info: NONBONDED TABLE R-SQUARED SPACING: 0.0625
Info: NONBONDED TABLE SIZE: 705 POINTS
Info: REDUCING NUMBER OF PATCHES TO IMPROVE LOAD BALANCE
Info: REMOVING COM VELOCITY 0.245931 0.157485 -0.000742753
Info: Use 3D box decompostion in PME FFT.
Info: Updated CUDA force table with 4096 elements.
Info: Updated CUDA LJ table with 6 x 6 elements.
Info: Found 19 unique exclusion lists needing 48 bytes
TCL: Running for 1500000 steps
ETITLE: TS BOND ANGLE DIHED IMPRP ELECT VDW BOUNDARY MISC KINETIC TOTAL TEMP POTENTIAL TOTALAVG TEMPAVG PRESSURE GPRESSURE VOLUME PRESSAVG GPRESSAVG
ENERGY: 0 3.2800 8.2307 13.1263 0.0000 -10704.3558 1439.6584 0.0000 0.0000 1784.2682 -7455.7922 303.4419 -9240.0604 -7455.7922 303.4419 -131.7577 -41.5264 30770.6442 -131.7577 -41.5264
ENERGY: 300000 1.1307 11.3711 11.3078 0.0000 -10716.1885 1398.5094 0.0000 0.0000 1755.5210 -7538.3484 298.5530 -9293.8695 -7499.7390 299.7631 -348.6567 -268.7591 30035.5458 -205.9517 -137.2220
ENERGY: 600000 2.2229 13.5389 7.7803 0.0000 -10616.1004 1398.7045 0.0000 0.0000 1755.8766 -7437.9773 298.6135 -9193.8539 -7481.9482 300.2150 -300.3648 -259.1795 30568.7287 1.7949 64.2543
ENERGY: 900000 0.7360 17.6648 9.4153 0.0000 -10679.6411 1427.2201 0.0000 0.0000 1727.8688 -7496.7361 293.8503 -9224.6050 -7485.5770 299.6770 -111.2990 -42.5336 30109.2709 -92.5664 -29.3534
ENERGY: 1200000 1.4562 10.6530 10.3222 0.0000 -10529.2118 1357.9864 0.0000 0.0000 1726.1557 -7422.6384 293.5590 -9148.7941 -7483.0947 298.5540 -480.6545 -420.1869 30528.5885 -157.1748 -96.1150
ENERGY: 1500000 1.4148 11.6342 11.3434 0.0000 -10466.0878 1240.2735 0.0000 0.0000 1792.3230 -7409.0989 304.8117 -9201.4219 -7479.5152 298.7931 -1622.7913 -1647.9209 30772.9423 -189.0470 -131.0865
TCL: Running FEP window   2: Lambda1 0.05   Lambda2 0.1    [dLambda 0.05  ]
TCL: Setting parameter firsttimestep to 0
TCL: Setting parameter alchLambda to 0.05
Info: NONBONDED TABLE R-SQUARED SPACING: 0.0625
Info: NONBONDED TABLE SIZE: 705 POINTS
TCL: Setting parameter alchLambda2 to 0.1
Info: NONBONDED TABLE R-SQUARED SPACING: 0.0625
Info: NONBONDED TABLE SIZE: 705 POINTS
TCL: Running for 1500000 steps
ETITLE: TS BOND ANGLE DIHED IMPRP ELECT VDW BOUNDARY MISC KINETIC TOTAL TEMP POTENTIAL TOTALAVG TEMPAVG PRESSURE GPRESSURE VOLUME PRESSAVG GPRESSAVG
ENERGY: 0 1.4148 11.6342 11.3434 0.0000 -10466.0866 1242.0095 0.0000 0.0000 1791.4551 -7408.2297 304.6641 -9199.6848 -7408.2297 304.6641 -1714.9269 -1643.9535 30772.9423 -1714.9269 -1643.9535
ENERGY: 300000 1.5828 13.6938 9.0327 0.0000 -10652.6861 1452.8566 0.0000 0.0000 1789.7654 -7385.7548 304.3768 -9175.5202 -7468.8104 299.3446 170.1477 260.5496 30329.2456 -417.2933 -343.9489
ENERGY: 600000 2.8591 12.7829 9.9215 0.0000 -10665.4373 1427.9969 0.0000 0.0000 1744.8520 -7467.0248 296.7386 -9211.8769 -7460.2195 300.3934 -263.4880 -209.6221 30775.1457 -439.4849 -375.0860
ENERGY: 900000 2.8396 13.0692 9.8315 0.0000 -10772.6135 1417.1373 0.0000 0.0000 1784.6336 -7545.1024 303.5040 -9329.7360 -7479.7298 299.2965 -241.9243 -167.0056 29729.2308 -227.8933 -169.4456
ENERGY: 1200000 2.2122 8.1867 11.8784 0.0000 -10624.7013 1377.6454 0.0000 0.0000 1736.6330 -7488.1456 295.3408 -9224.7786 -7472.8758 299.7836 -351.0066 -312.9454 30184.5525 -188.7026 -127.7713
ENERGY: 1500000 0.6732 14.1676 9.8844 0.0000 -10791.0577 1478.0217 0.0000 0.0000 1788.0097 -7500.3011 304.0782 -9288.3108 -7477.5123 300.5312 154.0941 210.1453 30215.1148 -100.3776 -39.8513
TCL: Running FEP window   3: Lambda1 0.1    Lambda2 0.15000000000000002 [dLambda 0.05000000000000002]
TCL: Setting parameter firsttimestep to 0
TCL: Setting parameter alchLambda to 0.1
Info: NONBONDED TABLE R-SQUARED SPACING: 0.0625
Info: NONBONDED TABLE SIZE: 705 POINTS
TCL: Setting parameter alchLambda2 to 0.15000000000000002
Info: NONBONDED TABLE R-SQUARED SPACING: 0.0625
Info: NONBONDED TABLE SIZE: 705 POINTS
TCL: Running for 1500000 steps
ETITLE: TS BOND ANGLE DIHED IMPRP ELECT VDW BOUNDARY MISC KINETIC TOTAL TEMP POTENTIAL TOTALAVG TEMPAVG PRESSURE GPRESSURE VOLUME PRESSAVG GPRESSAVG
ENERGY: 0 0.6732 14.1676 9.8844 0.0000 -10791.0597 1478.9265 0.0000 0.0000 1787.1595 -7500.2484 303.9336 -9287.4079 -7500.2484 303.9336 120.5406 215.1841 30215.1148 120.5406 215.1841
ENERGY: 300000 0.8337 11.7538 12.6646 0.0000 -10552.5071 1364.5251 0.0000 0.0000 1714.5809 -7448.1490 291.5905 -9162.7298 -7480.7035 296.5032 -595.5772 -531.9755 30843.8450 -330.5463 -251.7906
ENERGY: 600000 1.3406 10.0809 11.1057 0.0000 -10747.6818 1534.5010 0.0000 0.0000 1768.3979 -7422.2557 300.7429 -9190.6536 -7484.9344 297.8145 797.0971 865.5927 30392.8897 -110.3345 -35.4343
ENERGY: 900000 2.3109 9.3515 11.6208 0.0000 -10722.3775 1428.4212 0.0000 0.0000 1768.3801 -7502.2931 300.7399 -9270.6732 -7474.4961 299.1078 -202.5537 -145.1390 30387.4709 -69.5702 -6.2072
ENERGY: 1200000 0.7001 8.2756 10.1483 0.0000 -10784.4734 1467.7776 0.0000 0.0000 1765.0352 -7532.5367 300.1710 -9297.5719 -7477.0827 299.4711 441.3056 501.8325 29851.0595 -18.2182 50.0039
ENERGY: 1500000 1.9998 19.2182 10.6512 0.0000 -10732.0377 1440.0093 0.0000 0.0000 1808.0914 -7452.0676 307.4934 -9260.1590 -7478.7836 299.6968 -195.7631 -137.8394 30455.2651 3.3373 68.6695
TCL: Running FEP window   4: Lambda1 0.15000000000000002 Lambda2 0.2    [dLambda 0.04999999999999999]
TCL: Setting parameter firsttimestep to 0
TCL: Setting parameter alchLambda to 0.15000000000000002
Info: NONBONDED TABLE R-SQUARED SPACING: 0.0625
Info: NONBONDED TABLE SIZE: 705 POINTS
TCL: Setting parameter alchLambda2 to 0.2
Info: NONBONDED TABLE R-SQUARED SPACING: 0.0625
Info: NONBONDED TABLE SIZE: 705 POINTS
TCL: Running for 1500000 steps
ETITLE: TS BOND ANGLE DIHED IMPRP ELECT VDW BOUNDARY MISC KINETIC TOTAL TEMP POTENTIAL TOTALAVG TEMPAVG PRESSURE GPRESSURE VOLUME PRESSAVG GPRESSAVG
ENERGY: 0 1.9998 19.2182 10.6512 0.0000 -10732.0385 1440.3085 0.0000 0.0000 1807.2212 -7452.6395 307.3454 -9259.8607 -7452.6395 307.3454 -216.3039 -132.6785 30455.2651 -216.3039 -132.6785
ENERGY: 300000 1.0584 9.8033 9.4717 0.0000 -10735.2084 1451.0525 0.0000 0.0000 1837.5023 -7426.3201 312.4952 -9263.8224 -7473.1876 304.4929 -236.5312 -168.6907 30680.7165 158.1663 227.7540
ENERGY: 600000 1.6648 13.7769 11.6982 0.0000 -10634.1306 1373.7102 0.0000 0.0000 1775.8927 -7457.3878 302.0175 -9233.2805 -7476.0617 301.2865 -450.0648 -382.6036 30133.3389 -3.8606 80.8012
ENERGY: 900000 3.1430 7.8021 10.6276 0.0000 -10705.2037 1433.2684 0.0000 0.0000 1796.2417 -7454.1209 305.4782 -9250.3627 -7479.7173 302.2210 9.5404 62.5454 30343.6131 -30.4971 57.1031
ENERGY: 1200000 1.1716 11.7047 13.5414 0.0000 -10705.7339 1378.7031 0.0000 0.0000 1726.0804 -7574.5326 293.5462 -9300.6131 -7478.9362 302.6563 -632.0394 -606.6806 30477.6595 -11.4668 68.8236
ENERGY: 1500000 3.1145 15.6450 9.5960 0.0000 -10611.6964 1376.5891 0.0000 0.0000 1776.0543 -7430.6974 302.0450 -9206.7517 -7485.5867 301.4946 -309.3958 -251.2715 30310.9742 -78.3464 -6.0709
TCL: Running FEP window   5: Lambda1 0.2    Lambda2 0.25   [dLambda 0.04999999999999999]
TCL: Setting parameter firsttimestep to 0
TCL: Setting parameter alchLambda to 0.2
Info: NONBONDED TABLE R-SQUARED SPACING: 0.0625
Info: NONBONDED TABLE SIZE: 705 POINTS
TCL: Setting parameter alchLambda2 to 0.25
Info: NONBONDED TABLE R-SQUARED SPACING: 0.0625
Info: NONBONDED TABLE SIZE: 705 POINTS
TCL: Running for 1500000 steps
ETITLE: TS BOND ANGLE DIHED IMPRP ELECT VDW BOUNDARY MISC KINETIC TOTAL TEMP POTENTIAL TOTALAVG TEMPAVG PRESSURE GPRESSURE VOLUME PRESSAVG GPRESSAVG
ENERGY: 0 3.1145 15.6450 9.5960 0.0000 -10611.6964 1376.1899 0.0000 0.0000 1775.1708 -7431.9803 301.8947 -9207.1510 -7431.9803 301.8947 -338.6524 -249.1694 30310.9742 -338.6524 -249.1694
ENERGY: 300000 2.9056 13.6746 10.0410 0.0000 -10649.2674 1412.8149 0.0000 0.0000 1821.1484 -7388.6828 309.7139 -9209.8312 -7438.2068 301.7797 -92.0565 -71.4806 30317.9913 -131.8376 -69.0357
ENERGY: 600000 0.5420 12.0318 9.5937 0.0000 -10684.0448 1410.0395 0.0000 0.0000 1767.1275 -7484.7104 300.5269 -9251.8379 -7449.9862 302.4040 -613.8147 -529.0301 30674.8136 -157.1544 -104.6816
ENERGY: 900000 0.9966 8.2647 12.4953 0.0000 -10689.2380 1454.7942 0.0000 0.0000 1770.7610 -7441.9262 301.1448 -9212.6872 -7456.2437 301.3518 180.6537 242.8195 30396.0231 -95.1089 -38.6428
ENERGY: 1200000 0.2614 12.0413 7.7611 0.0000 -10697.0630 1396.1903 0.0000 0.0000 1769.6221 -7511.1868 300.9511 -9280.8089 -7473.7833 301.3275 -416.1927 -355.5398 30188.2424 -76.1131 -18.4636
ENERGY: 1500000 0.6000 8.3973 11.4550 0.0000 -10663.6670 1409.8800 0.0000 0.0000 1799.7635 -7433.5712 306.0771 -9233.3347 -7477.6130 301.2769 -243.5272 -245.8819 30416.5615 -75.2618 -23.9835
TCL: Running FEP window   6: Lambda1 0.25   Lambda2 0.3    [dLambda 0.04999999999999999]
TCL: Setting parameter firsttimestep to 0
TCL: Setting parameter alchLambda to 0.25
Info: NONBONDED TABLE R-SQUARED SPACING: 0.0625
Info: NONBONDED TABLE SIZE: 705 POINTS
TCL: Setting parameter alchLambda2 to 0.3
Info: NONBONDED TABLE R-SQUARED SPACING: 0.0625
Info: NONBONDED TABLE SIZE: 705 POINTS
TCL: Running for 1500000 steps
ETITLE: TS BOND ANGLE DIHED IMPRP ELECT VDW BOUNDARY MISC KINETIC TOTAL TEMP POTENTIAL TOTALAVG TEMPAVG PRESSURE GPRESSURE VOLUME PRESSAVG GPRESSAVG
ENERGY: 0 0.6000 8.3973 11.4550 0.0000 -10663.6676 1410.8648 0.0000 0.0000 1798.8978 -7433.4527 305.9299 -9232.3505 -7433.4527 305.9299 -317.7293 -238.0443 30416.5615 -317.7293 -238.0443
ENERGY: 300000 0.6567 12.6014 14.8724 0.0000 -10576.3076 1348.1719 0.0000 0.0000 1823.7423 -7376.2628 310.1551 -9200.0051 -7430.1991 309.9823 -442.7251 -425.6351 30403.2719 -256.0185 -208.6448
ENERGY: 600000 1.3118 9.2811 9.1211 0.0000 -10680.1996 1462.1907 0.0000 0.0000 1784.0153 -7414.2797 303.3989 -9198.2949 -7432.7374 305.8779 429.8556 548.1742 29985.7670 -24.3525 42.1081
ENERGY: 900000 0.6079 9.7006 12.5513 0.0000 -10864.0257 1559.8775 0.0000 0.0000 1802.6366 -7478.6520 306.5657 -9281.2885 -7429.5651 306.6333 768.4714 835.5139 30170.5110 12.2774 79.9778
ENERGY: 1200000 1.3237 10.7608 8.6420 0.0000 -10726.5526 1428.6590 0.0000 0.0000 1700.5697 -7576.5974 289.2077 -9277.1672 -7442.0350 303.8526 -327.8977 -295.4600 30512.2822 -137.4726 -75.9798
ENERGY: 1500000 0.4469 9.4686 12.5818 0.0000 -10753.9172 1429.9785 0.0000 0.0000 1818.4174 -7483.0241 309.2495 -9301.4415 -7450.5127 303.3937 -250.5555 -238.5768 30290.1453 -195.5287 -133.5116
TCL: Running FEP window   7: Lambda1 0.3    Lambda2 0.35   [dLambda 0.04999999999999999]
TCL: Setting parameter firsttimestep to 0
TCL: Setting parameter alchLambda to 0.3
Info: NONBONDED TABLE R-SQUARED SPACING: 0.0625
Info: NONBONDED TABLE SIZE: 705 POINTS
TCL: Setting parameter alchLambda2 to 0.35
Info: NONBONDED TABLE R-SQUARED SPACING: 0.0625
Info: NONBONDED TABLE SIZE: 705 POINTS
TCL: Running for 1500000 steps
ETITLE: TS BOND ANGLE DIHED IMPRP ELECT VDW BOUNDARY MISC KINETIC TOTAL TEMP POTENTIAL TOTALAVG TEMPAVG PRESSURE GPRESSURE VOLUME PRESSAVG GPRESSAVG
ENERGY: 0 0.4469 9.4686 12.5818 0.0000 -10753.9164 1429.7541 0.0000 0.0000 1817.5167 -7484.1483 309.0963 -9301.6650 -7484.1483 309.0963 -320.3863 -232.7880 30290.1453 -320.3863 -232.7880
ENERGY: 300000 1.2492 7.1415 10.5817 0.0000 -10724.2998 1470.9699 0.0000 0.0000 1752.0584 -7482.2991 297.9641 -9234.3574 -7485.1364 301.4850 322.0532 380.8470 30154.7545 126.2967 190.8030
ENERGY: 600000 1.8245 11.5317 11.2251 0.0000 -10721.6355 1471.8188 0.0000 0.0000 1755.4014 -7469.8341 298.5327 -9225.2355 -7472.5732 300.8277 463.6850 472.8871 30091.4589 258.1485 317.0331
ENERGY: 900000 1.8229 9.4464 10.0744 0.0000 -10735.2292 1458.6720 0.0000 0.0000 1758.2850 -7496.9285 299.0231 -9255.2136 -7470.5283 301.1552 138.1852 200.4052 30392.5707 113.5021 175.7777
ENERGY: 1200000 1.7989 14.7818 9.3598 0.0000 -10644.3074 1348.6190 0.0000 0.0000 1784.9182 -7484.8297 303.5524 -9269.7479 -7484.6834 300.9684 -693.4886 -580.9154 30424.1625 -65.7096 -4.7508
ENERGY: 1500000 0.2709 15.4039 8.6401 0.0000 -10698.9167 1458.5415 0.0000 0.0000 1776.8039 -7439.2563 302.1725 -9216.0602 -7486.3112 300.8795 55.2343 126.2629 30717.0752 -37.8439 25.8979
TCL: Running FEP window   8: Lambda1 0.35   Lambda2 0.39999999999999997 [dLambda 0.04999999999999999]
TCL: Setting parameter firsttimestep to 0
TCL: Setting parameter alchLambda to 0.35
Info: NONBONDED TABLE R-SQUARED SPACING: 0.0625
Info: NONBONDED TABLE SIZE: 705 POINTS
TCL: Setting parameter alchLambda2 to 0.39999999999999997
Info: NONBONDED TABLE R-SQUARED SPACING: 0.0625
Info: NONBONDED TABLE SIZE: 705 POINTS
TCL: Running for 1500000 steps
ETITLE: TS BOND ANGLE DIHED IMPRP ELECT VDW BOUNDARY MISC KINETIC TOTAL TEMP POTENTIAL TOTALAVG TEMPAVG PRESSURE GPRESSURE VOLUME PRESSAVG GPRESSAVG
ENERGY: 0 0.2709 15.4039 8.6401 0.0000 -10698.9165 1458.1625 0.0000 0.0000 1775.9269 -7440.5121 302.0233 -9216.4390 -7440.5121 302.0233 60.8084 127.2896 30717.0752 60.8084 127.2896
ENERGY: 300000 1.5299 8.3980 11.6831 0.0000 -10746.1746 1510.3209 0.0000 0.0000 1799.1964 -7415.0463 305.9807 -9214.2427 -7461.4774 300.2148 763.1231 889.2976 30069.1671 337.7444 431.7907
ENERGY: 600000 2.2774 10.3175 10.5233 0.0000 -10581.1882 1392.8886 0.0000 0.0000 1781.0802 -7384.1012 302.8997 -9165.1814 -7476.7235 298.4427 -412.9583 -355.5813 30587.9182 167.6600 257.1183
ENERGY: 900000 2.0979 10.5452 10.2094 0.0000 -10622.8722 1404.6001 0.0000 0.0000 1747.0541 -7448.3656 297.1131 -9195.4196 -7481.9827 299.3029 -298.0484 -236.4188 30521.4836 85.1954 173.3996
ENERGY: 1200000 1.8130 12.3752 11.5791 0.0000 -10699.7600 1428.9959 0.0000 0.0000 1707.6277 -7537.3691 290.4080 -9244.9968 -7484.4495 298.3167 -327.6202 -204.1124 30490.1663 9.5189 89.5889
ENERGY: 1500000 1.3303 13.7156 9.0335 0.0000 -10748.8912 1419.1590 0.0000 0.0000 1760.5153 -7545.1374 299.4024 -9305.6528 -7479.3221 298.6078 -13.5817 28.6931 29591.9363 3.7053 80.8466
TCL: Running FEP window   9: Lambda1 0.39999999999999997 Lambda2 0.44999999999999996 [dLambda 0.04999999999999999]
TCL: Setting parameter firsttimestep to 0
TCL: Setting parameter alchLambda to 0.39999999999999997
Info: NONBONDED TABLE R-SQUARED SPACING: 0.0625
Info: NONBONDED TABLE SIZE: 705 POINTS
TCL: Setting parameter alchLambda2 to 0.44999999999999996
Info: NONBONDED TABLE R-SQUARED SPACING: 0.0625
Info: NONBONDED TABLE SIZE: 705 POINTS
TCL: Running for 1500000 steps
ETITLE: TS BOND ANGLE DIHED IMPRP ELECT VDW BOUNDARY MISC KINETIC TOTAL TEMP POTENTIAL TOTALAVG TEMPAVG PRESSURE GPRESSURE VOLUME PRESSAVG GPRESSAVG
ENERGY: 0 1.3303 13.7156 9.0335 0.0000 -10748.8909 1418.9833 0.0000 0.0000 1759.6322 -7546.1960 299.2522 -9305.8282 -7546.1960 299.2522 -50.4672 30.8554 29591.9363 -50.4672 30.8554
ENERGY: 300000 1.0527 10.2123 9.9688 0.0000 -10772.0801 1469.3923 0.0000 0.0000 1757.5305 -7523.9235 298.8948 -9281.4540 -7491.1450 300.8610 46.8834 148.7677 30205.8270 -182.5974 -115.0400
ENERGY: 600000 1.7182 9.2748 10.5902 0.0000 -10709.6792 1447.9735 0.0000 0.0000 1739.1776 -7500.9450 295.7736 -9240.1226 -7493.5886 299.6762 -34.8668 -9.7025 30671.6825 -284.7401 -222.7645
ENERGY: 900000 0.2956 10.8945 9.3677 0.0000 -10714.2140 1477.7262 0.0000 0.0000 1740.5950 -7475.3351 296.0146 -9215.9301 -7490.2155 298.3453 415.3936 438.0358 30436.9478 -194.6030 -129.5851
ENERGY: 1200000 3.8054 12.3730 9.1277 0.0000 -10592.9445 1387.4533 0.0000 0.0000 1725.4307 -7454.7543 293.4357 -9180.1850 -7480.1920 297.6024 -368.8654 -350.3671 30445.7228 -150.3945 -88.5383
ENERGY: 1500000 3.0098 9.4456 11.4323 0.0000 -10851.7849 1549.7898 0.0000 0.0000 1777.9299 -7500.1776 302.3640 -9278.1075 -7487.3765 297.9071 546.3882 612.7285 30352.4012 -28.3707 35.1238
TCL: Running FEP window  10: Lambda1 0.44999999999999996 Lambda2 0.49999999999999994 [dLambda 0.04999999999999999]
TCL: Setting parameter firsttimestep to 0
TCL: Setting parameter alchLambda to 0.44999999999999996
Info: NONBONDED TABLE R-SQUARED SPACING: 0.0625
Info: NONBONDED TABLE SIZE: 705 POINTS
TCL: Setting parameter alchLambda2 to 0.49999999999999994
Info: NONBONDED TABLE R-SQUARED SPACING: 0.0625
Info: NONBONDED TABLE SIZE: 705 POINTS
TCL: Running for 1500000 steps
ETITLE: TS BOND ANGLE DIHED IMPRP ELECT VDW BOUNDARY MISC KINETIC TOTAL TEMP POTENTIAL TOTALAVG TEMPAVG PRESSURE GPRESSURE VOLUME PRESSAVG GPRESSAVG
ENERGY: 0 3.0098 9.4456 11.4323 0.0000 -10851.7863 1549.7487 0.0000 0.0000 1777.0275 -7501.1225 302.2105 -9278.1500 -7501.1225 302.2105 517.6704 615.4867 30352.4012 517.6704 615.4867
ENERGY: 300000 3.0642 10.3162 10.6577 0.0000 -10640.9450 1426.2372 0.0000 0.0000 1820.2609 -7370.4088 309.5630 -9190.6697 -7447.4247 302.2021 -61.6990 60.0814 30517.2204 -64.5888 15.2347
ENERGY: 600000 1.3387 9.4016 11.7412 0.0000 -10898.5663 1536.1593 0.0000 0.0000 1805.6052 -7534.3204 307.0706 -9339.9256 -7464.9780 301.8495 516.3356 563.8716 30261.5422 -108.6733 -51.3639
ENERGY: 900000 1.9900 10.2017 10.7595 0.0000 -10858.0159 1519.0633 0.0000 0.0000 1802.1638 -7513.8376 306.4853 -9316.0015 -7468.9183 303.2248 127.9126 281.8399 30602.9855 -76.7200 -16.0880
ENERGY: 1200000 0.6965 10.6696 11.1621 0.0000 -10686.3483 1421.5379 0.0000 0.0000 1755.6731 -7486.6091 298.5789 -9242.2822 -7469.0113 302.9621 -136.9429 -69.6215 30494.4295 -46.1895 17.6725
ENERGY: 1500000 1.8546 11.5679 8.9648 0.0000 -10713.7126 1423.0102 0.0000 0.0000 1772.3467 -7495.9684 301.4145 -9268.3151 -7465.4088 303.1777 4.3064 55.7389 29996.5118 72.9045 131.4099
TCL: Running FEP window  11: Lambda1 0.49999999999999994 Lambda2 0.5499999999999999 [dLambda 0.04999999999999999]
TCL: Setting parameter firsttimestep to 0
TCL: Setting parameter alchLambda to 0.49999999999999994
Info: NONBONDED TABLE R-SQUARED SPACING: 0.0625
Info: NONBONDED TABLE SIZE: 705 POINTS
TCL: Setting parameter alchLambda2 to 0.5499999999999999
Info: NONBONDED TABLE R-SQUARED SPACING: 0.0625
Info: NONBONDED TABLE SIZE: 705 POINTS
TCL: Running for 1500000 steps
ETITLE: TS BOND ANGLE DIHED IMPRP ELECT VDW BOUNDARY MISC KINETIC TOTAL TEMP POTENTIAL TOTALAVG TEMPAVG PRESSURE GPRESSURE VOLUME PRESSAVG GPRESSAVG
ENERGY: 0 1.8546 11.5679 8.9648 0.0000 -10713.7109 1422.9032 0.0000 0.0000 1771.4920 -7496.9286 301.2691 -9268.4205 -7496.9286 301.2691 -25.4478 63.6008 29996.5118 -25.4478 63.6008
ENERGY: 300000 1.3731 10.7458 13.0859 0.0000 -10702.9156 1437.0316 0.0000 0.0000 1765.0260 -7475.6532 300.1695 -9240.6792 -7445.0953 301.8691 -110.4078 -95.4396 30575.7007 -283.5741 -231.6428
ENERGY: 600000 1.3961 14.4377 12.5944 0.0000 -10795.4040 1558.0390 0.0000 0.0000 1761.8821 -7447.0548 299.6348 -9208.9369 -7437.2191 302.1009 914.7300 988.4725 30256.1505 105.1508 170.6084
ENERGY: 900000 2.9383 9.8480 10.8930 0.0000 -10831.7019 1531.1544 0.0000 0.0000 1786.2091 -7490.6591 303.7720 -9276.8682 -7449.5986 300.2962 704.2649 747.4168 30046.5234 44.0802 106.5068
ENERGY: 1200000 1.9561 9.9914 11.5390 0.0000 -10700.2648 1396.2714 0.0000 0.0000 1761.5410 -7518.9659 299.5768 -9280.5069 -7448.0810 300.3886 -283.0834 -276.6470 30426.3076 21.6132 84.4564
ENERGY: 1500000 1.3645 13.1396 9.9720 0.0000 -10726.9302 1440.1768 0.0000 0.0000 1787.0485 -7475.2289 303.9147 -9262.2774 -7454.9643 300.3355 119.0163 166.6259 30130.5780 19.8728 81.4326
TCL: Running FEP window  12: Lambda1 0.5499999999999999 Lambda2 0.6    [dLambda 0.050000000000000044]
TCL: Setting parameter firsttimestep to 0
TCL: Setting parameter alchLambda to 0.5499999999999999
Info: NONBONDED TABLE R-SQUARED SPACING: 0.0625
Info: NONBONDED TABLE SIZE: 705 POINTS
TCL: Setting parameter alchLambda2 to 0.6
Info: NONBONDED TABLE R-SQUARED SPACING: 0.0625
Info: NONBONDED TABLE SIZE: 705 POINTS
TCL: Running for 1500000 steps
ETITLE: TS BOND ANGLE DIHED IMPRP ELECT VDW BOUNDARY MISC KINETIC TOTAL TEMP POTENTIAL TOTALAVG TEMPAVG PRESSURE GPRESSURE VOLUME PRESSAVG GPRESSAVG
ENERGY: 0 1.3645 13.1396 9.9720 0.0000 -10726.9177 1440.0051 0.0000 0.0000 1786.1562 -7476.2804 303.7630 -9262.4366 -7476.2804 303.7630 83.9925 170.3292 30130.5780 83.9925 170.3292
ENERGY: 300000 1.6679 9.2294 11.6785 0.0000 -10663.1761 1410.1763 0.0000 0.0000 1733.2875 -7497.1365 294.7719 -9230.4240 -7461.8014 303.1759 -146.2386 -97.1171 30482.8360 245.8618 317.0329
ENERGY: 600000 2.3807 10.3836 12.3443 0.0000 -10622.1273 1423.5434 0.0000 0.0000 1771.8792 -7401.5961 301.3350 -9173.4753 -7438.9728 302.7807 165.1807 246.6517 30326.0105 218.4010 278.8280
ENERGY: 900000 2.0404 10.7545 10.8275 0.0000 -10846.9305 1496.0277 0.0000 0.0000 1784.7419 -7542.5385 303.5225 -9327.2804 -7461.7088 301.8453 259.1136 364.9200 30142.5625 152.8359 223.5735
ENERGY: 1200000 1.6731 14.3291 11.4663 0.0000 -10765.2885 1495.2983 0.0000 0.0000 1738.1814 -7504.3404 295.6041 -9242.5218 -7472.5629 300.3993 309.4600 376.8368 30505.3750 147.1346 220.1937
ENERGY: 1500000 1.9312 12.3778 11.2273 0.0000 -10504.0334 1296.5111 0.0000 0.0000 1785.0542 -7396.9318 303.5756 -9181.9860 -7468.6449 300.1634 -857.8702 -847.8960 30499.5685 75.4312 144.9723
TCL: Running FEP window  13: Lambda1 0.6    Lambda2 0.65   [dLambda 0.050000000000000044]
TCL: Setting parameter firsttimestep to 0
TCL: Setting parameter alchLambda to 0.6
Info: NONBONDED TABLE R-SQUARED SPACING: 0.0625
Info: NONBONDED TABLE SIZE: 705 POINTS
TCL: Setting parameter alchLambda2 to 0.65
Info: NONBONDED TABLE R-SQUARED SPACING: 0.0625
Info: NONBONDED TABLE SIZE: 705 POINTS
TCL: Running for 1500000 steps
ETITLE: TS BOND ANGLE DIHED IMPRP ELECT VDW BOUNDARY MISC KINETIC TOTAL TEMP POTENTIAL TOTALAVG TEMPAVG PRESSURE GPRESSURE VOLUME PRESSAVG GPRESSAVG
ENERGY: 0 1.9312 12.3778 11.2273 0.0000 -10504.2927 1296.8659 0.0000 0.0000 1784.1897 -7397.7008 303.4286 -9181.8905 -7397.7008 303.4286 -923.3816 -837.0485 30499.5685 -923.3816 -837.0485
ENERGY: 300000 1.6777 13.3456 12.8389 0.0000 -10819.3964 1503.0091 0.0000 0.0000 1777.4885 -7511.0366 302.2889 -9288.5251 -7485.1952 303.3640 230.9079 285.8746 30423.6821 -102.9631 -22.5391
ENERGY: 600000 0.8296 9.9754 9.0665 0.0000 -10841.2911 1544.4269 0.0000 0.0000 1706.7162 -7570.2765 290.2530 -9276.9927 -7476.9724 301.2230 674.5952 726.1775 30345.5230 95.0004 173.8708
ENERGY: 900000 0.9515 11.3397 10.2027 0.0000 -10725.9429 1461.6486 0.0000 0.0000 1699.0494 -7542.7510 288.9492 -9241.8004 -7487.4012 298.6869 183.2189 216.5109 30428.7693 50.4683 115.9008
ENERGY: 1200000 3.5472 11.7403 11.8443 0.0000 -10548.9368 1339.2185 0.0000 0.0000 1770.6909 -7411.8956 301.1329 -9182.5865 -7491.8240 298.7488 -503.1091 -445.7813 30419.2717 31.0807 94.0113
ENERGY: 1500000 2.9102 14.0498 12.1068 0.0000 -10797.7044 1486.4504 0.0000 0.0000 1769.8526 -7512.3345 300.9903 -9282.1871 -7497.8883 299.2987 -11.8329 -14.1062 30630.6702 -34.7980 20.6349
TCL: Running FEP window  14: Lambda1 0.65   Lambda2 0.7000000000000001 [dLambda 0.050000000000000044]
TCL: Setting parameter firsttimestep to 0
TCL: Setting parameter alchLambda to 0.65
Info: NONBONDED TABLE R-SQUARED SPACING: 0.0625
Info: NONBONDED TABLE SIZE: 705 POINTS
TCL: Setting parameter alchLambda2 to 0.7000000000000001
Info: NONBONDED TABLE R-SQUARED SPACING: 0.0625
Info: NONBONDED TABLE SIZE: 705 POINTS
TCL: Running for 1500000 steps
ETITLE: TS BOND ANGLE DIHED IMPRP ELECT VDW BOUNDARY MISC KINETIC TOTAL TEMP POTENTIAL TOTALAVG TEMPAVG PRESSURE GPRESSURE VOLUME PRESSAVG GPRESSAVG
ENERGY: 0 2.9103 14.0498 12.1068 0.0000 -10798.9368 1486.2247 0.0000 0.0000 1769.0276 -7514.6175 300.8500 -9283.6452 -7514.6175 300.8500 -102.1925 -16.5443 30630.6702 -102.1925 -16.5443
ENERGY: 300000 3.5343 8.5423 12.1801 0.0000 -10718.3182 1381.5083 0.0000 0.0000 1732.5251 -7580.0281 294.6422 -9312.5532 -7544.9611 295.8924 -65.0374 -38.9569 29598.2782 -120.1337 -48.9216
ENERGY: 600000 1.9765 11.2388 8.7415 0.0000 -10714.5831 1386.3292 0.0000 0.0000 1766.3034 -7539.9937 300.3867 -9306.2971 -7540.5571 296.4005 -564.7408 -510.6861 30421.0867 -20.4993 41.2714
ENERGY: 900000 1.1748 10.0869 8.7562 0.0000 -10636.9193 1387.5010 0.0000 0.0000 1780.4488 -7448.9516 302.7924 -9229.4004 -7521.4289 298.5419 -238.1872 -192.5454 30260.1938 -74.8620 -6.8770
ENERGY: 1200000 4.1019 10.4562 10.9971 0.0000 -10533.3301 1330.6696 0.0000 0.0000 1727.2720 -7449.8333 293.7488 -9177.1054 -7491.5140 299.0685 -648.9375 -595.6300 30400.2284 -52.8874 20.4955
ENERGY: 1500000 1.0498 6.2712 12.7563 0.0000 -10573.5440 1357.4539 0.0000 0.0000 1773.0961 -7422.9167 301.5419 -9196.0128 -7489.1738 298.8279 -320.9725 -226.2422 30121.4096 -64.6885 -0.5731
TCL: Running FEP window  15: Lambda1 0.7000000000000001 Lambda2 0.7500000000000001 [dLambda 0.050000000000000044]
TCL: Setting parameter firsttimestep to 0
TCL: Setting parameter alchLambda to 0.7000000000000001
Info: NONBONDED TABLE R-SQUARED SPACING: 0.0625
Info: NONBONDED TABLE SIZE: 705 POINTS
TCL: Setting parameter alchLambda2 to 0.7500000000000001
Info: NONBONDED TABLE R-SQUARED SPACING: 0.0625
Info: NONBONDED TABLE SIZE: 705 POINTS
TCL: Running for 1500000 steps
ETITLE: TS BOND ANGLE DIHED IMPRP ELECT VDW BOUNDARY MISC KINETIC TOTAL TEMP POTENTIAL TOTALAVG TEMPAVG PRESSURE GPRESSURE VOLUME PRESSAVG GPRESSAVG
ENERGY: 0 1.0498 6.2712 12.7563 0.0000 -10574.3073 1357.2060 0.0000 0.0000 1772.2357 -7424.7883 301.3956 -9197.0240 -7424.7883 301.3956 -310.0183 -224.7165 30121.4096 -310.0183 -224.7165
ENERGY: 300000 0.6632 8.4813 11.1864 0.0000 -10783.8406 1544.7735 0.0000 0.0000 1726.2789 -7492.4573 293.5799 -9218.7362 -7426.3452 300.8537 956.0196 990.4898 30554.8729 -360.9434 -279.6361
ENERGY: 600000 0.6128 9.8765 10.8818 0.0000 -10619.9231 1352.9375 0.0000 0.0000 1749.2194 -7496.3951 297.4813 -9245.6145 -7452.8248 300.8039 -654.0171 -602.8496 30562.1323 -248.7957 -169.0617
ENERGY: 900000 1.4140 10.8434 9.4997 0.0000 -10621.4952 1379.8371 0.0000 0.0000 1781.1077 -7438.7934 302.9044 -9219.9010 -7454.9940 301.2164 -334.1478 -279.2632 30585.9530 -234.8898 -154.5173
ENERGY: 1200000 3.0335 11.9290 10.3501 0.0000 -10630.8675 1399.8968 0.0000 0.0000 1734.4354 -7471.2226 294.9671 -9205.6581 -7451.2967 301.3292 -521.3914 -422.4483 30990.7236 -220.2507 -137.8013
ENERGY: 1500000 0.9971 10.9694 10.6763 0.0000 -10724.8375 1405.6313 0.0000 0.0000 1761.0100 -7535.5534 299.4865 -9296.5634 -7461.1584 301.0738 -402.8771 -326.9293 30181.6157 -148.4517 -69.5010
TCL: Running FEP window  16: Lambda1 0.7500000000000001 Lambda2 0.8000000000000002 [dLambda 0.050000000000000044]
TCL: Setting parameter firsttimestep to 0
TCL: Setting parameter alchLambda to 0.7500000000000001
Info: NONBONDED TABLE R-SQUARED SPACING: 0.0625
Info: NONBONDED TABLE SIZE: 705 POINTS
TCL: Setting parameter alchLambda2 to 0.8000000000000002
Info: NONBONDED TABLE R-SQUARED SPACING: 0.0625
Info: NONBONDED TABLE SIZE: 705 POINTS
TCL: Running for 1500000 steps
ETITLE: TS BOND ANGLE DIHED IMPRP ELECT VDW BOUNDARY MISC KINETIC TOTAL TEMP POTENTIAL TOTALAVG TEMPAVG PRESSURE GPRESSURE VOLUME PRESSAVG GPRESSAVG
ENERGY: 0 0.9971 10.9694 10.6763 0.0000 -10725.8800 1406.2756 0.0000 0.0000 1760.1258 -7536.8357 299.3361 -9296.9616 -7536.8357 299.3361 -400.9622 -316.9451 30181.6157 -400.9622 -316.9451
ENERGY: 300000 1.3921 14.6035 7.8873 0.0000 -10813.4182 1546.0692 0.0000 0.0000 1782.7023 -7460.7639 303.1756 -9243.4662 -7494.8248 302.2887 1098.6285 1189.4129 29991.1138 418.1396 481.3072
ENERGY: 600000 0.9836 11.9233 10.1768 0.0000 -10633.8051 1436.5318 0.0000 0.0000 1784.9270 -7389.2625 303.5539 -9174.1895 -7468.7427 301.9552 323.6196 383.3760 30221.8280 214.3184 287.2146
ENERGY: 900000 3.5888 10.6013 11.0544 0.0000 -10761.2409 1478.5760 0.0000 0.0000 1779.2905 -7478.1300 302.5954 -9257.4205 -7468.0037 303.3224 675.1153 735.3222 29893.0512 218.6630 294.1397
ENERGY: 1200000 0.6236 6.4986 11.9358 0.0000 -10840.9101 1570.4432 0.0000 0.0000 1756.9094 -7494.4996 298.7891 -9251.4090 -7467.2719 302.2221 921.3909 994.7536 30304.5253 207.9307 277.4084
ENERGY: 1500000 1.8262 10.6318 10.2415 0.0000 -10634.7590 1381.9753 0.0000 0.0000 1781.3810 -7448.7031 302.9509 -9230.0842 -7464.9247 302.4886 -512.2851 -441.4304 30659.2596 171.4849 238.8538
TCL: Running FEP window  17: Lambda1 0.8000000000000002 Lambda2 0.8500000000000002 [dLambda 0.050000000000000044]
TCL: Setting parameter firsttimestep to 0
TCL: Setting parameter alchLambda to 0.8000000000000002
Info: NONBONDED TABLE R-SQUARED SPACING: 0.0625
Info: NONBONDED TABLE SIZE: 705 POINTS
TCL: Setting parameter alchLambda2 to 0.8500000000000002
Info: NONBONDED TABLE R-SQUARED SPACING: 0.0625
Info: NONBONDED TABLE SIZE: 705 POINTS
TCL: Running for 1500000 steps
ETITLE: TS BOND ANGLE DIHED IMPRP ELECT VDW BOUNDARY MISC KINETIC TOTAL TEMP POTENTIAL TOTALAVG TEMPAVG PRESSURE GPRESSURE VOLUME PRESSAVG GPRESSAVG
ENERGY: 0 1.8262 10.6318 10.2415 0.0000 -10635.0910 1383.0644 0.0000 0.0000 1780.5118 -7448.8153 302.8031 -9229.3271 -7448.8153 302.8031 -491.4088 -416.4840 30659.2596 -491.4088 -416.4840
ENERGY: 300000 3.9606 11.3082 9.0147 0.0000 -10887.8086 1525.8702 0.0000 0.0000 1711.6381 -7626.0168 291.0900 -9337.6549 -7491.1347 302.4117 74.4615 204.2996 30686.3975 -192.0615 -117.0356
ENERGY: 600000 2.1484 11.4592 11.1356 0.0000 -10676.2163 1445.0164 0.0000 0.0000 1753.3655 -7453.0911 298.1864 -9206.4565 -7459.9230 301.3671 89.0037 93.8449 30696.7007 -247.9135 -192.6894
ENERGY: 900000 1.5603 7.8437 12.7213 0.0000 -10648.7629 1424.6548 0.0000 0.0000 1740.0469 -7461.9360 295.9214 -9201.9829 -7468.8709 300.4108 -240.6478 -157.2253 30805.5515 -114.2678 -57.7497
ENERGY: 1200000 1.4936 11.9780 9.7540 0.0000 -10613.5112 1423.1912 0.0000 0.0000 1781.8966 -7385.1978 303.0386 -9167.0944 -7459.9430 300.7956 50.0991 122.4467 30472.2427 -166.2845 -109.8689
ENERGY: 1500000 1.2897 12.8079 9.4683 0.0000 -10719.8442 1435.4454 0.0000 0.0000 1744.6403 -7516.1924 296.7026 -9260.8327 -7462.8017 300.8400 285.3961 361.9238 29811.1492 -125.9334 -67.5773
TCL: Running FEP window  18: Lambda1 0.8500000000000002 Lambda2 0.9000000000000002 [dLambda 0.050000000000000044]
TCL: Setting parameter firsttimestep to 0
TCL: Setting parameter alchLambda to 0.8500000000000002
Info: NONBONDED TABLE R-SQUARED SPACING: 0.0625
Info: NONBONDED TABLE SIZE: 705 POINTS
TCL: Setting parameter alchLambda2 to 0.9000000000000002
Info: NONBONDED TABLE R-SQUARED SPACING: 0.0625
Info: NONBONDED TABLE SIZE: 705 POINTS
TCL: Running for 1500000 steps
ETITLE: TS BOND ANGLE DIHED IMPRP ELECT VDW BOUNDARY MISC KINETIC TOTAL TEMP POTENTIAL TOTALAVG TEMPAVG PRESSURE GPRESSURE VOLUME PRESSAVG GPRESSAVG
ENERGY: 0 1.2897 12.8079 9.4683 0.0000 -10721.5111 1436.6267 0.0000 0.0000 1743.7346 -7517.5837 296.5486 -9261.3183 -7517.5837 296.5486 295.8633 379.0467 29811.1492 295.8633 379.0467
ENERGY: 300000 0.7899 14.1374 10.6387 0.0000 -10719.9741 1450.2036 0.0000 0.0000 1774.9251 -7469.2793 301.8530 -9244.2044 -7477.6304 298.9735 116.9373 185.3152 30407.6388 -74.5392 -5.2367
ENERGY: 600000 1.2210 10.7382 11.7314 0.0000 -10586.0885 1320.0820 0.0000 0.0000 1744.7513 -7497.5646 296.7215 -9242.3159 -7472.6124 300.6617 -1009.8803 -965.9718 30659.4198 -232.9674 -173.1869
ENERGY: 900000 4.1555 10.6066 13.3528 0.0000 -10555.8635 1339.2942 0.0000 0.0000 1773.6315 -7414.8229 301.6330 -9188.4544 -7480.7209 298.6074 -754.4606 -677.3375 30612.4003 -317.0022 -252.8422
ENERGY: 1200000 0.4033 11.3402 9.1351 0.0000 -10755.9736 1476.7292 0.0000 0.0000 1815.4738 -7442.8919 308.7489 -9258.3657 -7477.4116 299.6413 484.5818 558.6566 30149.2308 -169.4915 -102.7143
ENERGY: 1500000 1.0020 7.9463 10.4901 0.0000 -10735.4649 1441.2863 0.0000 0.0000 1708.2132 -7566.5270 290.5076 -9274.7402 -7474.7433 299.2372 -112.8905 -49.1197 30236.6728 -151.5080 -84.7886
TCL: Running FEP window  19: Lambda1 0.9000000000000002 Lambda2 0.9500000000000003 [dLambda 0.050000000000000044]
TCL: Setting parameter firsttimestep to 0
TCL: Setting parameter alchLambda to 0.9000000000000002
Info: NONBONDED TABLE R-SQUARED SPACING: 0.0625
Info: NONBONDED TABLE SIZE: 705 POINTS
TCL: Setting parameter alchLambda2 to 0.9500000000000003
Info: NONBONDED TABLE R-SQUARED SPACING: 0.0625
Info: NONBONDED TABLE SIZE: 705 POINTS
TCL: Running for 1500000 steps
ETITLE: TS BOND ANGLE DIHED IMPRP ELECT VDW BOUNDARY MISC KINETIC TOTAL TEMP POTENTIAL TOTALAVG TEMPAVG PRESSURE GPRESSURE VOLUME PRESSAVG GPRESSAVG
ENERGY: 0 1.0020 7.9463 10.4901 0.0000 -10737.4923 1442.5053 0.0000 0.0000 1707.3084 -7568.2402 290.3537 -9275.5486 -7568.2402 290.3537 -118.7797 -33.5124 30236.6728 -118.7797 -33.5124
ENERGY: 300000 3.8921 12.0007 9.9161 0.0000 -10770.0595 1499.9687 0.0000 0.0000 1816.4064 -7427.8755 308.9075 -9244.2819 -7489.6299 300.0537 328.8584 402.2666 30557.5319 -404.8696 -323.8219
ENERGY: 600000 1.2953 12.6879 12.1538 0.0000 -10659.0399 1370.6826 0.0000 0.0000 1777.1396 -7485.0807 302.2296 -9262.2203 -7497.9842 299.3551 -639.4667 -554.1663 30460.2392 -366.8003 -300.3188
ENERGY: 900000 1.7042 12.3915 8.8507 0.0000 -10613.4461 1352.4742 0.0000 0.0000 1763.1161 -7474.9094 299.8447 -9238.0255 -7493.5674 299.4751 -854.6385 -772.7683 30911.8128 -397.0162 -321.4849
ENERGY: 1200000 1.5613 11.3549 9.6960 0.0000 -10645.7699 1364.3194 0.0000 0.0000 1731.9941 -7526.8442 294.5519 -9258.8383 -7490.2014 300.1527 -462.6309 -426.3991 30152.7811 -336.7231 -268.8229
ENERGY: 1500000 1.1504 9.4516 9.5401 0.0000 -10754.7422 1520.2922 0.0000 0.0000 1749.3265 -7464.9812 297.4995 -9214.3077 -7483.6485 300.0663 593.4523 696.9627 30460.8605 -278.1844 -202.9067
TCL: Running FEP window  20: Lambda1 0.9500000000000003 Lambda2 1.0    [dLambda 0.04999999999999971]
TCL: Setting parameter firsttimestep to 0
TCL: Setting parameter alchLambda to 0.9500000000000003
Info: NONBONDED TABLE R-SQUARED SPACING: 0.0625
Info: NONBONDED TABLE SIZE: 705 POINTS
TCL: Setting parameter alchLambda2 to 1.0
Info: NONBONDED TABLE R-SQUARED SPACING: 0.0625
Info: NONBONDED TABLE SIZE: 705 POINTS
TCL: Running for 1500000 steps
ETITLE: TS BOND ANGLE DIHED IMPRP ELECT VDW BOUNDARY MISC KINETIC TOTAL TEMP POTENTIAL TOTALAVG TEMPAVG PRESSURE GPRESSURE VOLUME PRESSAVG GPRESSAVG
ENERGY: 0 1.1504 9.4516 9.5401 0.0000 -10755.6546 1520.9166 0.0000 0.0000 1748.4564 -7466.1394 297.3516 -9214.5958 -7466.1394 297.3516 624.1010 711.3617 30460.8605 624.1010 711.3617
ENERGY: 300000 1.0491 11.4547 9.9010 0.0000 -10758.0812 1502.3749 0.0000 0.0000 1766.1251 -7467.1764 300.3564 -9233.3015 -7463.8256 298.1141 712.7193 714.3507 30160.0249 402.9229 477.3534
ENERGY: 600000 1.9469 8.9937 12.0559 0.0000 -10705.9803 1411.3950 0.0000 0.0000 1786.3551 -7485.2338 303.7968 -9271.5889 -7488.7616 299.4743 -220.3920 -177.3849 30433.9654 167.7848 222.5228
ENERGY: 900000 1.3524 13.9140 11.3729 0.0000 -10855.1817 1524.0486 0.0000 0.0000 1741.6790 -7562.8148 296.1990 -9304.4938 -7496.9222 299.0598 504.6959 602.5583 30569.9736 116.8470 184.4510
ENERGY: 1200000 1.2674 13.9649 12.7413 0.0000 -10663.1765 1401.7873 0.0000 0.0000 1811.7611 -7421.6545 308.1175 -9233.4156 -7492.5572 300.3257 -58.5829 -30.6261 30258.4737 -19.0503 48.7144
ENERGY: 1500000 3.4986 11.8487 11.8652 0.0000 -10741.1328 1489.3135 0.0000 0.0000 1771.1971 -7453.4096 301.2190 -9224.6068 -7490.8054 300.1245 273.1188 323.2107 30461.3545 -52.1749 12.4167
TCL: Exiting due to exit command.
