Info: SIMULATION PARAMETERS:
Info: TIMESTEP               2
Info: NUMBER OF STEPS        0
Info: STEPS PER CYCLE        10
Info: PERIODIC CELL BASIS 1  31.0018 0 0
Info: PERIODIC CELL BASIS 2  0 31.3569 0
Info: PERIODIC CELL BASIS 3  0 0 31.6332
Info: PERIODIC CELL CENTER   0 0 0
Info: WRAPPING WATERS AROUND PERIODIC BOUNDARIES ON OUTPUT.
Info: WRAPPING ALL CLUSTERS AROUND PERIODIC BOUNDARIES ON OUTPUT.
Info: FIRST LDB TIMESTEP     50
Info: LAST LDB TIMESTEP     -1
Info: HOM BACKGROUND SCALING 1
Info: PME BACKGROUND SCALING 1
Info: MIN ATOMS PER PATCH    40
Info: EMPTY PATCH LOAD       40 ATOMS
Info: VELOCITY FILE          mobley_2784376_equil.vel
Info: CENTER OF MASS MOVING INITIALLY? NO
Info: DIELECTRIC             1
Info: EXCLUDE                SCALED ONE-FOUR
Info: 1-4 ELECTROSTATICS SCALED BY 0.833333
Info: MODIFIED 1-4 VDW PARAMETERS WILL BE USED
Info: DCD FILENAME           mobley_2784376_prod.dcd
Info: DCD FREQUENCY          100000
Info: DCD FIRST STEP         100000
Info: DCD FILE WILL CONTAIN UNIT CELL DATA
Info: XST FILENAME           mobley_2784376_prod.xst
Info: XST FREQUENCY          100000
Info: NO VELOCITY DCD OUTPUT
Info: NO FORCE DCD OUTPUT
Info: OUTPUT FILENAME        mobley_2784376_prod
Info: BINARY OUTPUT FILES WILL BE USED
Info: RESTART FILENAME       mobley_2784376_prod.restart
Info: RESTART FREQUENCY      100000
Info: BINARY RESTART FILES WILL BE USED
Info: CUTOFF                 9
Info: PAIRLIST DISTANCE      11
Info: PAIRLIST SHRINK RATE   0.01
Info: PAIRLIST GROW RATE     0.01
Info: PAIRLIST TRIGGER       0.3
Info: PAIRLISTS PER CYCLE    2
Info: PAIRLISTS ENABLED
Info: MARGIN                 2
Info: HYDROGEN GROUP CUTOFF  2.5
Info: PATCH DIMENSION        15.5
Info: ENERGY OUTPUT STEPS    100000
Info: ENERGY EVALUATION STEPS    100000
Info: OUTPUT ENERGY PRECISION 4
Info: CROSSTERM ENERGY INCLUDED IN DIHEDRAL
Info: TIMING OUTPUT STEPS    1000000
Info: PRESSURE OUTPUT STEPS  100000
Info: ALCHEMICAL FEP ON
Info: FEP CURRENT LAMBDA VALUE     1
Info: FEP COMPARISON LAMBDA VALUE  0.95
Info: FEP INTRA-ALCHEMICAL NON-BONDED INTERACTIONS WILL BE RETAINED
Info: FEP INTRA-ALCHEMICAL BONDED INTERACTIONS WILL BE RETAINED
Info: FEP VDW SHIFTING COEFFICIENT 5
Info: FEP ELEC. ACTIVE FOR ANNIHILATED PARTICLES BETWEEN LAMBDA = 0 AND LAMBDA = 0.5
Info: FEP ELEC. ACTIVE FOR EXNIHILATED PARTICLES BETWEEN LAMBDA = 0.5 AND LAMBDA = 1
Info: FEP VDW ACTIVE FOR ANNIHILATED PARTICLES BETWEEN LAMBDA = 0 AND LAMBDA = 1
Info: FEP VDW ACTIVE FOR EXNIHILATED PARTICLES BETWEEN LAMBDA = 0 AND LAMBDA = 1
Info: FEP BOND ACTIVE FOR ANNIHILATED PARTICLES BETWEEN LAMBDA = 1 AND LAMBDA = 1
Info: FEP BOND ACTIVE FOR EXNIHILATED PARTICLES BETWEEN LAMBDA = 0 AND LAMBDA = 0
Info: LANGEVIN DYNAMICS ACTIVE
Info: LANGEVIN TEMPERATURE   300
Info: LANGEVIN USING BBK INTEGRATOR
Info: LANGEVIN DAMPING COEFFICIENT IS 1 INVERSE PS
Info: LANGEVIN DYNAMICS APPLIED TO HYDROGENS
Info: LANGEVIN PISTON PRESSURE CONTROL ACTIVE
Info:        TARGET PRESSURE IS 1.01325 BAR
Info:     OSCILLATION PERIOD IS 50 FS
Info:             DECAY TIME IS 25 FS
Info:     PISTON TEMPERATURE IS 300 K
Info:       PRESSURE CONTROL IS GROUP-BASED
Info:    INITIAL STRAIN RATE IS -0.000110768 -0.000110768 -0.000110768
Info:       CELL FLUCTUATION IS ISOTROPIC
Info: PARTICLE MESH EWALD (PME) ACTIVE
Info: PME TOLERANCE               1e-06
Info: PME EWALD COEFFICIENT       0.348832
Info: PME INTERPOLATION ORDER     4
Info: PME GRID DIMENSIONS         32 32 32
Info: PME MAXIMUM GRID SPACING    1
Info: PME CALCULATION WILL BE PERFORMED ON GPU
Info: FULL ELECTROSTATIC EVALUATION FREQUENCY      2
Info: USING VERLET I (r-RESPA) MTS SCHEME.
Info: C1 SPLITTING OF LONG RANGE ELECTROSTATICS
Info: PLACING ATOMS IN PATCHES BY HYDROGEN GROUPS
Info: RIGID BONDS TO HYDROGEN : ALL
Info:         ERROR TOLERANCE : 1e-08
Info:          MAX ITERATIONS : 100
Info: RIGID WATER USING SETTLE ALGORITHM
Info: RANDOM NUMBER SEED     1743509595
Info: USE HYDROGEN BONDS?    NO
Info: Using AMBER format force field!
Info: AMBER PARM FILE        mobley_2784376.prmtop
Info: COORDINATE PDB         mobley_2784376.pdb
Info: Exclusions will be read from PARM file!
Info: SCNB (VDW SCALING)     2
Info: USING ARITHMETIC MEAN TO COMBINE L-J SIGMA PARAMETERS
Info: BINARY COORDINATES     mobley_2784376_equil.coor
Info: SUMMARY OF PARAMETERS:
Info: 4 BONDS
Info: 3 ANGLES
Info:   3 HARMONIC
Info:   0 COSINE-BASED
Info: 1 DIHEDRAL
Info: 0 IMPROPER
Info: 0 CROSSTERM
Info: 0 VDW
Info: 10 VDW_PAIRS
Info: 0 NBTHOLE_PAIRS
Info: To read alchdata from file: mobley_2784376.pdb
Info: To read alchflag data from column: 5
Info: STRUCTURE SUMMARY:
Info: 2997 ATOMS
Info: 2997 BONDS
Info: 18 ANGLES
Info: 24 DIHEDRALS
Info: 0 IMPROPERS
Info: 0 CROSSTERMS
Info: 3024 EXCLUSIONS
Info: 2994 RIGID BONDS
Info: ALCH: 0 ATOMS TO DISAPPEAR IN FINAL STATE
Info: ALCH: 9 ATOMS TO APPEAR IN FINAL STATE
Info: 5997 DEGREES OF FREEDOM
Info: 999 HYDROGEN GROUPS
Info: 3 ATOMS IN LARGEST HYDROGEN GROUP
Info: 999 MIGRATION GROUPS
Info: 3 ATOMS IN LARGEST MIGRATION GROUP
Info: TOTAL MASS = 17986 amu
Info: TOTAL CHARGE = 0.000300005 e
Info: MASS DENSITY = 0.97125 g/cm^3
Info: ATOM DENSITY = 0.0974594 atoms/A^3
Info: ADDED 0 IMPLICIT EXCLUSIONS
Info: NONBONDED TABLE R-SQUARED SPACING: 0.0625
Info: NONBONDED TABLE SIZE: 705 POINTS
Info: REDUCING NUMBER OF PATCHES TO IMPROVE LOAD BALANCE
Info: REMOVING COM VELOCITY 0.170654 0.0371497 0.0661002
Info: Use 3D box decompostion in PME FFT.
Info: Updated CUDA force table with 4096 elements.
Info: Updated CUDA LJ table with 4 x 4 elements.
Info: Found 12 unique exclusion lists needing 20 bytes
TCL: Running for 1500000 steps
ETITLE: TS BOND ANGLE DIHED IMPRP ELECT VDW BOUNDARY MISC KINETIC TOTAL TEMP POTENTIAL TOTALAVG TEMPAVG PRESSURE GPRESSURE VOLUME PRESSAVG GPRESSAVG
ENERGY: 0 0.1226 4.1499 6.0370 0.0000 -11033.7211 1560.3436 0.0000 0.0000 1743.1681 -7719.8999 292.5470 -9463.0680 -7719.8999 292.5470 525.2340 596.2776 30751.2710 525.2340 596.2776
ENERGY: 300000 0.3164 3.3486 6.3221 0.0000 -10820.9043 1419.8457 0.0000 0.0000 1786.7719 -7604.2996 299.8648 -9391.0715 -7659.3174 295.0543 -358.0449 -301.3437 31289.9663 222.1959 264.0843
ENERGY: 600000 0.9356 4.2411 6.4299 0.0000 -10834.1216 1481.7494 0.0000 0.0000 1798.0033 -7542.7623 301.7497 -9340.7656 -7625.5131 298.8071 291.4669 329.2862 30913.1922 250.2699 300.9604
ENERGY: 900000 1.8924 2.7423 6.3618 0.0000 -10917.4029 1516.4480 0.0000 0.0000 1782.4606 -7607.4977 299.1412 -9389.9583 -7614.6340 298.8664 330.3692 393.5243 31153.5463 118.4784 174.3833
ENERGY: 1200000 0.4226 4.6927 5.9995 0.0000 -10900.2192 1452.4487 0.0000 0.0000 1799.8091 -7636.8467 302.0527 -9436.6557 -7610.2457 298.8823 -309.1869 -169.8087 30968.1580 95.6340 160.1572
ENERGY: 1500000 0.1595 3.5030 6.5112 0.0000 -10901.3263 1493.2299 0.0000 0.0000 1822.8466 -7575.0761 305.9190 -9397.9227 -7607.1278 298.9628 489.4244 534.8367 30540.1422 64.0409 126.3064
TCL: Running FEP window   2: Lambda1 0.95   Lambda2 0.8999999999999999 [dLambda -0.050000000000000044]
TCL: Setting parameter firsttimestep to 0
TCL: Setting parameter alchLambda to 0.95
Info: NONBONDED TABLE R-SQUARED SPACING: 0.0625
Info: NONBONDED TABLE SIZE: 705 POINTS
TCL: Setting parameter alchLambda2 to 0.8999999999999999
Info: NONBONDED TABLE R-SQUARED SPACING: 0.0625
Info: NONBONDED TABLE SIZE: 705 POINTS
TCL: Running for 1500000 steps
ETITLE: TS BOND ANGLE DIHED IMPRP ELECT VDW BOUNDARY MISC KINETIC TOTAL TEMP POTENTIAL TOTALAVG TEMPAVG PRESSURE GPRESSURE VOLUME PRESSAVG GPRESSAVG
ENERGY: 0 0.1595 3.5030 6.5112 0.0000 -10901.3201 1492.8136 0.0000 0.0000 1821.9437 -7576.3892 305.7675 -9398.3329 -7576.3892 305.7675 434.0810 520.4811 30540.1422 434.0810 520.4811
ENERGY: 300000 4.5801 5.6500 6.0737 0.0000 -10858.0855 1370.5571 0.0000 0.0000 1793.0393 -7678.1854 300.9166 -9471.2247 -7631.3395 303.2639 -880.3734 -797.6207 30420.9993 -251.0090 -191.3616
ENERGY: 600000 0.6495 9.3010 5.9519 0.0000 -10970.2168 1477.0721 0.0000 0.0000 1763.5215 -7713.7209 295.9628 -9477.2424 -7631.3830 300.9394 -113.2995 -55.6473 30645.1331 -160.2980 -119.2395
ENERGY: 900000 0.1717 2.4020 6.4719 0.0000 -10906.7714 1430.5625 0.0000 0.0000 1758.3053 -7708.8580 295.0874 -9467.1633 -7646.3159 299.9495 -142.9779 -137.2895 30386.8093 -167.1598 -128.8957
ENERGY: 1200000 0.7027 7.3860 6.1111 0.0000 -10822.7350 1433.1012 0.0000 0.0000 1822.8680 -7552.5660 305.9226 -9375.4341 -7634.6896 299.3461 -228.3675 -116.2480 30840.3754 -202.1602 -157.4380
ENERGY: 1500000 1.0937 4.7526 6.1912 0.0000 -10868.0673 1500.5665 0.0000 0.0000 1805.6368 -7549.8265 303.0308 -9355.4633 -7621.8113 299.7200 508.6689 540.5131 30705.0722 -116.8837 -71.9200
TCL: Running FEP window   3: Lambda1 0.8999999999999999 Lambda2 0.8499999999999999 [dLambda -0.050000000000000044]
TCL: Setting parameter firsttimestep to 0
TCL: Setting parameter alchLambda to 0.8999999999999999
Info: NONBONDED TABLE R-SQUARED SPACING: 0.0625
Info: NONBONDED TABLE SIZE: 705 POINTS
TCL: Setting parameter alchLambda2 to 0.8499999999999999
Info: NONBONDED TABLE R-SQUARED SPACING: 0.0625
Info: NONBONDED TABLE SIZE: 705 POINTS
TCL: Running for 1500000 steps
ETITLE: TS BOND ANGLE DIHED IMPRP ELECT VDW BOUNDARY MISC KINETIC TOTAL TEMP POTENTIAL TOTALAVG TEMPAVG PRESSURE GPRESSURE VOLUME PRESSAVG GPRESSAVG
ENERGY: 0 1.0937 4.7526 6.1912 0.0000 -10868.0548 1500.8189 0.0000 0.0000 1804.7193 -7550.4791 302.8768 -9355.1983 -7550.4791 302.8768 466.7356 537.8836 30705.0722 466.7356 537.8836
ENERGY: 300000 1.4184 5.0990 6.0905 0.0000 -10925.9701 1486.4639 0.0000 0.0000 1811.7028 -7615.1955 304.0488 -9426.8984 -7591.0665 303.3677 147.3142 227.7533 30844.3043 128.9666 198.5216
ENERGY: 600000 1.4638 4.6831 6.0752 0.0000 -11103.9235 1502.8044 0.0000 0.0000 1800.7828 -7788.1142 302.2162 -9588.8970 -7641.3524 301.7198 -93.1868 -28.7009 30452.6245 128.7361 197.4477
ENERGY: 900000 1.1899 3.0398 6.3011 0.0000 -11028.1053 1605.0581 0.0000 0.0000 1740.9013 -7671.6150 292.1665 -9412.5163 -7639.7184 300.0005 984.0416 1097.2763 30654.2317 206.6331 291.5230
ENERGY: 1200000 0.5018 5.1890 5.9672 0.0000 -10915.2047 1554.6941 0.0000 0.0000 1812.5754 -7536.2772 304.1952 -9348.8526 -7625.5649 299.9810 883.7097 883.3353 30924.2918 135.9215 211.3655
ENERGY: 1500000 0.3004 5.7947 6.0057 0.0000 -10911.1695 1526.8797 0.0000 0.0000 1760.1657 -7612.0233 295.3996 -9372.1890 -7620.2929 299.9134 664.2597 653.1696 30872.8641 283.1028 347.0876
TCL: Running FEP window   4: Lambda1 0.8499999999999999 Lambda2 0.7999999999999998 [dLambda -0.050000000000000044]
TCL: Setting parameter firsttimestep to 0
TCL: Setting parameter alchLambda to 0.8499999999999999
Info: NONBONDED TABLE R-SQUARED SPACING: 0.0625
Info: NONBONDED TABLE SIZE: 705 POINTS
TCL: Setting parameter alchLambda2 to 0.7999999999999998
Info: NONBONDED TABLE R-SQUARED SPACING: 0.0625
Info: NONBONDED TABLE SIZE: 705 POINTS
TCL: Running for 1500000 steps
ETITLE: TS BOND ANGLE DIHED IMPRP ELECT VDW BOUNDARY MISC KINETIC TOTAL TEMP POTENTIAL TOTALAVG TEMPAVG PRESSURE GPRESSURE VOLUME PRESSAVG GPRESSAVG
ENERGY: 0 0.3004 5.7947 6.0057 0.0000 -10911.1977 1527.1326 0.0000 0.0000 1759.2866 -7612.6776 295.2521 -9371.9642 -7612.6776 295.2521 574.3081 652.0788 30872.8641 574.3081 652.0788
ENERGY: 300000 0.5550 3.6110 6.1048 0.0000 -10940.8083 1500.9003 0.0000 0.0000 1732.9942 -7696.6429 290.8395 -9429.6371 -7641.8497 297.0405 10.4417 58.5461 31009.2303 1.7610 55.2724
ENERGY: 600000 0.3258 8.7007 6.0195 0.0000 -10992.7442 1514.6250 0.0000 0.0000 1786.4837 -7676.5895 299.8164 -9463.0732 -7633.0653 297.9072 314.9573 394.2258 30438.3907 58.8321 126.4001
ENERGY: 900000 0.9862 5.4498 5.8542 0.0000 -10808.1535 1389.8153 0.0000 0.0000 1767.3824 -7638.6656 296.6107 -9406.0480 -7643.8283 297.3898 -447.8344 -343.3280 30569.1811 -70.1421 9.6020
ENERGY: 1200000 2.0426 4.9080 6.2168 0.0000 -10960.2160 1500.6316 0.0000 0.0000 1817.1675 -7629.2494 304.9659 -9446.4170 -7625.9796 298.6625 -252.1518 -200.5093 31496.5977 -120.3962 -39.3754
ENERGY: 1500000 1.2380 5.9176 6.0470 0.0000 -10923.2017 1440.2168 0.0000 0.0000 1763.6865 -7706.0957 295.9905 -9469.7822 -7636.0504 298.8570 -409.6651 -366.7173 30840.5892 -97.5827 -15.3279
TCL: Running FEP window   5: Lambda1 0.7999999999999998 Lambda2 0.7499999999999998 [dLambda -0.050000000000000044]
TCL: Setting parameter firsttimestep to 0
TCL: Setting parameter alchLambda to 0.7999999999999998
Info: NONBONDED TABLE R-SQUARED SPACING: 0.0625
Info: NONBONDED TABLE SIZE: 705 POINTS
TCL: Setting parameter alchLambda2 to 0.7499999999999998
Info: NONBONDED TABLE R-SQUARED SPACING: 0.0625
Info: NONBONDED TABLE SIZE: 705 POINTS
TCL: Running for 1500000 steps
ETITLE: TS BOND ANGLE DIHED IMPRP ELECT VDW BOUNDARY MISC KINETIC TOTAL TEMP POTENTIAL TOTALAVG TEMPAVG PRESSURE GPRESSURE VOLUME PRESSAVG GPRESSAVG
ENERGY: 0 1.2380 5.9176 6.0470 0.0000 -10923.1543 1439.8494 0.0000 0.0000 1762.8216 -7707.2807 295.8453 -9470.1023 -7707.2807 295.8453 -469.4804 -377.7018 30840.5892 -469.4804 -377.7018
ENERGY: 300000 0.1097 1.0697 6.3297 0.0000 -10894.4321 1472.7537 0.0000 0.0000 1760.4762 -7653.6932 295.4517 -9414.1694 -7637.5867 295.6903 -1.5931 -1.8363 31125.1491 85.8493 140.2116
ENERGY: 600000 2.6531 5.9862 6.0851 0.0000 -10919.4897 1484.5192 0.0000 0.0000 1733.4154 -7686.8306 290.9102 -9420.2460 -7618.5331 297.9228 -152.5698 -78.2156 31144.4243 -42.1210 -3.6806
ENERGY: 900000 0.6847 4.2142 6.2775 0.0000 -10949.3068 1496.7751 0.0000 0.0000 1784.1576 -7657.1977 299.4260 -9441.3553 -7616.3572 297.9273 -66.7777 -42.4633 31209.5529 -47.6245 -7.6883
ENERGY: 1200000 0.7771 2.2509 6.1595 0.0000 -10933.0542 1490.2852 0.0000 0.0000 1759.2182 -7674.3634 295.2406 -9433.5816 -7625.5183 298.1539 179.3685 294.8861 30403.6589 15.7298 66.2242
ENERGY: 1500000 1.9548 3.0198 6.3069 0.0000 -10750.1392 1407.7809 0.0000 0.0000 1766.6493 -7564.4275 296.4877 -9331.0768 -7616.8526 298.0911 -376.7188 -279.2546 30944.4092 -37.0899 24.8849
TCL: Running FEP window   6: Lambda1 0.7499999999999998 Lambda2 0.6999999999999997 [dLambda -0.050000000000000044]
TCL: Setting parameter firsttimestep to 0
TCL: Setting parameter alchLambda to 0.7499999999999998
Info: NONBONDED TABLE R-SQUARED SPACING: 0.0625
Info: NONBONDED TABLE SIZE: 705 POINTS
TCL: Setting parameter alchLambda2 to 0.6999999999999997
Info: NONBONDED TABLE R-SQUARED SPACING: 0.0625
Info: NONBONDED TABLE SIZE: 705 POINTS
TCL: Running for 1500000 steps
ETITLE: TS BOND ANGLE DIHED IMPRP ELECT VDW BOUNDARY MISC KINETIC TOTAL TEMP POTENTIAL TOTALAVG TEMPAVG PRESSURE GPRESSURE VOLUME PRESSAVG GPRESSAVG
ENERGY: 0 1.9547 3.0199 6.3069 0.0000 -10750.0800 1407.9077 0.0000 0.0000 1765.7356 -7565.1552 296.3344 -9330.8908 -7565.1552 296.3344 -368.4411 -282.5188 30944.4092 -368.4411 -282.5188
ENERGY: 300000 1.7176 4.9613 6.1023 0.0000 -10820.0888 1418.3166 0.0000 0.0000 1769.8947 -7619.0964 297.0324 -9388.9910 -7583.3927 297.6514 -438.8996 -320.6410 30951.0063 -136.8706 -63.5488
ENERGY: 600000 0.3991 6.5133 6.0580 0.0000 -10818.7478 1445.6149 0.0000 0.0000 1737.6134 -7622.5491 291.6147 -9360.1624 -7611.8004 296.9807 -294.6413 -275.5780 31223.8899 -79.7385 -8.0184
ENERGY: 900000 1.2188 5.2357 6.2580 0.0000 -10845.1381 1442.4017 0.0000 0.0000 1800.8707 -7589.1532 302.2309 -9390.0239 -7615.6543 297.7458 -360.9974 -301.4541 31400.5389 -129.1243 -63.0721
ENERGY: 1200000 0.6992 4.5016 6.1660 0.0000 -10933.8167 1492.4338 0.0000 0.0000 1850.6721 -7579.3439 310.5888 -9430.0160 -7597.1133 300.1086 68.0378 125.6481 30842.7311 7.0856 68.9626
ENERGY: 1500000 0.2931 4.2276 6.1660 0.0000 -10850.3703 1482.2691 0.0000 0.0000 1764.7116 -7592.7030 296.1625 -9357.4145 -7601.8609 300.2883 79.5957 111.2434 31175.7061 18.4519 84.5150
TCL: Running FEP window   7: Lambda1 0.6999999999999997 Lambda2 0.6499999999999997 [dLambda -0.050000000000000044]
TCL: Setting parameter firsttimestep to 0
TCL: Setting parameter alchLambda to 0.6999999999999997
Info: NONBONDED TABLE R-SQUARED SPACING: 0.0625
Info: NONBONDED TABLE SIZE: 705 POINTS
TCL: Setting parameter alchLambda2 to 0.6499999999999997
Info: NONBONDED TABLE R-SQUARED SPACING: 0.0625
Info: NONBONDED TABLE SIZE: 705 POINTS
TCL: Running for 1500000 steps
ETITLE: TS BOND ANGLE DIHED IMPRP ELECT VDW BOUNDARY MISC KINETIC TOTAL TEMP POTENTIAL TOTALAVG TEMPAVG PRESSURE GPRESSURE VOLUME PRESSAVG GPRESSAVG
ENERGY: 0 0.2931 4.2276 6.1660 0.0000 -10850.3388 1482.5213 0.0000 0.0000 1763.8523 -7593.2784 296.0183 -9357.1307 -7593.2784 296.0183 34.7103 109.2770 31175.7061 34.7103 109.2770
ENERGY: 300000 1.0559 2.9006 6.2714 0.0000 -10997.7064 1510.8472 0.0000 0.0000 1795.8423 -7680.7889 301.3870 -9476.6312 -7621.3993 297.4295 268.0219 340.9837 30603.3383 -15.3217 55.9920
ENERGY: 600000 0.0584 3.8061 6.4210 0.0000 -10942.5820 1572.9853 0.0000 0.0000 1834.6084 -7524.7027 307.8929 -9359.3111 -7599.6402 299.6848 880.9792 942.1996 30977.3561 152.8014 232.9245
ENERGY: 900000 1.9755 7.2610 6.1115 0.0000 -10900.2088 1479.3551 0.0000 0.0000 1792.8692 -7612.6363 300.8881 -9405.5055 -7607.0881 299.2478 231.8567 315.8903 30759.4554 59.3429 136.5209
ENERGY: 1200000 1.3509 5.4914 6.0050 0.0000 -10782.6915 1413.5663 0.0000 0.0000 1798.5556 -7557.7223 301.8424 -9356.2778 -7612.7978 299.3518 -239.0817 -174.5393 30891.1993 32.8272 109.9402
ENERGY: 1500000 1.5612 2.8538 6.2133 0.0000 -10901.3468 1467.8803 0.0000 0.0000 1744.4024 -7678.4358 292.7541 -9422.8382 -7619.7608 298.8103 -86.0992 1.4253 30995.0168 -27.7218 53.5075
TCL: Running FEP window   8: Lambda1 0.6499999999999997 Lambda2 0.5999999999999996 [dLambda -0.050000000000000044]
TCL: Setting parameter firsttimestep to 0
TCL: Setting parameter alchLambda to 0.6499999999999997
Info: NONBONDED TABLE R-SQUARED SPACING: 0.0625
Info: NONBONDED TABLE SIZE: 705 POINTS
TCL: Setting parameter alchLambda2 to 0.5999999999999996
Info: NONBONDED TABLE R-SQUARED SPACING: 0.0625
Info: NONBONDED TABLE SIZE: 705 POINTS
TCL: Running for 1500000 steps
ETITLE: TS BOND ANGLE DIHED IMPRP ELECT VDW BOUNDARY MISC KINETIC TOTAL TEMP POTENTIAL TOTALAVG TEMPAVG PRESSURE GPRESSURE VOLUME PRESSAVG GPRESSAVG
ENERGY: 0 1.5612 2.8538 6.2133 0.0000 -10901.3946 1467.9025 0.0000 0.0000 1743.5439 -7679.3198 292.6100 -9422.8638 -7679.3198 292.6100 -96.6219 -4.4864 30995.0168 -96.6219 -4.4864
ENERGY: 300000 0.6327 9.6173 6.5133 0.0000 -10870.7156 1438.0679 0.0000 0.0000 1750.1373 -7665.7472 293.7166 -9415.8845 -7647.6920 295.2645 -251.0654 -240.1389 30635.3712 -23.2646 27.0457
ENERGY: 600000 0.6437 2.3577 6.3120 0.0000 -10919.4740 1506.7707 0.0000 0.0000 1853.0360 -7550.3538 310.9855 -9403.3897 -7625.8311 298.8531 337.1463 366.7524 30927.6311 -61.0467 -9.3036
ENERGY: 900000 0.3498 5.4535 6.1826 0.0000 -10889.0787 1515.1913 0.0000 0.0000 1789.3558 -7572.5457 300.2984 -9361.9016 -7627.9034 299.3681 204.9648 268.9048 31514.4223 -24.2065 28.0175
ENERGY: 1200000 0.7224 3.5727 6.1863 0.0000 -10859.6756 1481.9661 0.0000 0.0000 1849.6573 -7517.5708 310.4185 -9367.2281 -7615.3089 300.1005 482.9917 496.4129 30271.3137 4.3208 47.8986
ENERGY: 1500000 0.4253 6.8398 6.1139 0.0000 -10729.0544 1336.9773 0.0000 0.0000 1793.6669 -7585.0313 301.0219 -9378.6982 -7614.8959 299.8980 -904.0875 -842.7602 31038.8454 -83.2276 -36.5069
TCL: Running FEP window   9: Lambda1 0.5999999999999996 Lambda2 0.5499999999999996 [dLambda -0.050000000000000044]
TCL: Setting parameter firsttimestep to 0
TCL: Setting parameter alchLambda to 0.5999999999999996
Info: NONBONDED TABLE R-SQUARED SPACING: 0.0625
Info: NONBONDED TABLE SIZE: 705 POINTS
TCL: Setting parameter alchLambda2 to 0.5499999999999996
Info: NONBONDED TABLE R-SQUARED SPACING: 0.0625
Info: NONBONDED TABLE SIZE: 705 POINTS
TCL: Running for 1500000 steps
ETITLE: TS BOND ANGLE DIHED IMPRP ELECT VDW BOUNDARY MISC KINETIC TOTAL TEMP POTENTIAL TOTALAVG TEMPAVG PRESSURE GPRESSURE VOLUME PRESSAVG GPRESSAVG
ENERGY: 0 0.4253 6.8398 6.1139 0.0000 -10728.9946 1336.7322 0.0000 0.0000 1792.7722 -7586.1111 300.8718 -9378.8834 -7586.1111 300.8718 -933.8132 -851.6119 31038.8454 -933.8132 -851.6119
ENERGY: 300000 0.2930 4.0568 6.2327 0.0000 -10908.7159 1493.5449 0.0000 0.0000 1797.7651 -7606.8235 301.7097 -9404.5885 -7609.3887 298.5954 -2.1828 59.2524 31161.8466 -431.7067 -374.5770
ENERGY: 600000 1.1042 1.9515 6.2317 0.0000 -10870.3313 1432.1132 0.0000 0.0000 1873.5482 -7555.3826 314.4280 -9428.9307 -7600.1369 300.5594 -316.3093 -311.9329 30752.6076 -423.4619 -365.1245
ENERGY: 900000 0.0885 4.3081 6.2522 0.0000 -10806.3177 1404.3989 0.0000 0.0000 1760.8693 -7630.4007 295.5177 -9391.2700 -7603.2621 300.4022 -544.0347 -379.5208 30850.4437 -291.3149 -232.1652
ENERGY: 1200000 1.0059 4.5535 6.2076 0.0000 -10927.5495 1502.5526 0.0000 0.0000 1815.8732 -7597.3567 304.7487 -9413.2299 -7606.4248 301.4433 321.1492 386.5244 30578.8394 -165.1180 -101.8130
ENERGY: 1500000 0.7429 7.9153 5.9638 0.0000 -10796.2192 1447.1515 0.0000 0.0000 1758.4538 -7575.9919 295.1123 -9334.4457 -7600.9696 302.1705 -242.1234 -163.3824 31413.9442 -90.4977 -25.2754
TCL: Running FEP window  10: Lambda1 0.5499999999999996 Lambda2 0.4999999999999996 [dLambda -0.04999999999999999]
TCL: Setting parameter firsttimestep to 0
TCL: Setting parameter alchLambda to 0.5499999999999996
Info: NONBONDED TABLE R-SQUARED SPACING: 0.0625
Info: NONBONDED TABLE SIZE: 705 POINTS
TCL: Setting parameter alchLambda2 to 0.4999999999999996
Info: NONBONDED TABLE R-SQUARED SPACING: 0.0625
Info: NONBONDED TABLE SIZE: 705 POINTS
TCL: Running for 1500000 steps
ETITLE: TS BOND ANGLE DIHED IMPRP ELECT VDW BOUNDARY MISC KINETIC TOTAL TEMP POTENTIAL TOTALAVG TEMPAVG PRESSURE GPRESSURE VOLUME PRESSAVG GPRESSAVG
ENERGY: 0 0.7429 7.9153 5.9638 0.0000 -10796.1672 1447.3723 0.0000 0.0000 1757.5401 -7576.6328 294.9589 -9334.1729 -7576.6328 294.9589 -244.2081 -163.3431 31413.9442 -244.2081 -163.3431
ENERGY: 300000 1.3804 4.1610 6.1136 0.0000 -10932.4559 1484.5886 0.0000 0.0000 1748.1872 -7688.0252 293.3893 -9436.2124 -7648.4407 298.6754 209.2137 284.9106 30397.9101 98.6886 149.7562
ENERGY: 600000 0.8411 3.5803 6.3306 0.0000 -10789.3438 1459.9941 0.0000 0.0000 1754.2696 -7564.3280 294.4101 -9318.5976 -7621.0385 299.8312 276.7370 336.8063 30645.4933 218.6102 276.0457
ENERGY: 900000 0.3236 6.9879 6.1060 0.0000 -10865.4741 1463.0928 0.0000 0.0000 1822.9840 -7565.9799 305.9421 -9388.9638 -7612.3314 299.7793 91.2661 141.6336 30736.3252 156.6170 216.9470
ENERGY: 1200000 1.7783 3.2089 6.1588 0.0000 -10855.7537 1501.0472 0.0000 0.0000 1823.0555 -7520.5049 305.9541 -9343.5605 -7602.3774 300.3180 409.5480 462.6661 30847.5267 210.8033 272.5340
ENERGY: 1500000 0.0178 6.9634 5.8662 0.0000 -10750.5798 1395.3187 0.0000 0.0000 1797.0381 -7545.3755 301.5877 -9342.4136 -7606.2642 299.9127 -502.2104 -473.3680 31399.1890 182.5713 240.7700
TCL: Running FEP window  11: Lambda1 0.4999999999999996 Lambda2 0.4499999999999996 [dLambda -0.04999999999999999]
TCL: Setting parameter firsttimestep to 0
TCL: Setting parameter alchLambda to 0.4999999999999996
Info: NONBONDED TABLE R-SQUARED SPACING: 0.0625
Info: NONBONDED TABLE SIZE: 705 POINTS
TCL: Setting parameter alchLambda2 to 0.4499999999999996
Info: NONBONDED TABLE R-SQUARED SPACING: 0.0625
Info: NONBONDED TABLE SIZE: 705 POINTS
TCL: Running for 1500000 steps
ETITLE: TS BOND ANGLE DIHED IMPRP ELECT VDW BOUNDARY MISC KINETIC TOTAL TEMP POTENTIAL TOTALAVG TEMPAVG PRESSURE GPRESSURE VOLUME PRESSAVG GPRESSAVG
ENERGY: 0 0.0178 6.9634 5.8662 0.0000 -10750.5871 1395.1914 0.0000 0.0000 1796.1709 -7546.3774 301.4422 -9342.5483 -7546.3774 301.4422 -566.2990 -477.6817 31399.1890 -566.2990 -477.6817
ENERGY: 300000 0.0733 2.5503 6.3557 0.0000 -10900.0609 1514.2783 0.0000 0.0000 1741.4744 -7635.3290 292.2627 -9376.8033 -7562.3270 300.7876 459.8327 485.2422 30751.9690 48.7310 106.7499
ENERGY: 600000 0.2061 4.4183 6.2018 0.0000 -10904.4871 1505.8076 0.0000 0.0000 1747.4601 -7640.3933 293.2673 -9387.8534 -7604.1754 297.5345 496.5031 550.5065 30666.8131 93.5144 157.6058
ENERGY: 900000 0.4606 2.0812 6.3605 0.0000 -10804.7553 1423.7712 0.0000 0.0000 1801.9412 -7570.1408 302.4106 -9372.0819 -7591.5312 298.0239 -263.8371 -199.7087 30793.6443 91.7510 147.3238
ENERGY: 1200000 0.0148 3.0543 6.2976 0.0000 -10988.1600 1504.7769 0.0000 0.0000 1780.1331 -7693.8833 298.7506 -9474.0164 -7603.6317 298.6446 224.5484 314.6853 30411.4428 115.1751 171.2637
ENERGY: 1500000 0.6413 5.8708 6.0804 0.0000 -10903.1653 1463.2042 0.0000 0.0000 1824.9916 -7602.3771 306.2790 -9427.3686 -7598.4301 299.6113 68.4672 120.5004 30601.5757 100.7762 158.3857
TCL: Running FEP window  12: Lambda1 0.4499999999999996 Lambda2 0.39999999999999963 [dLambda -0.04999999999999999]
TCL: Setting parameter firsttimestep to 0
TCL: Setting parameter alchLambda to 0.4499999999999996
Info: NONBONDED TABLE R-SQUARED SPACING: 0.0625
Info: NONBONDED TABLE SIZE: 705 POINTS
TCL: Setting parameter alchLambda2 to 0.39999999999999963
Info: NONBONDED TABLE R-SQUARED SPACING: 0.0625
Info: NONBONDED TABLE SIZE: 705 POINTS
TCL: Running for 1500000 steps
ETITLE: TS BOND ANGLE DIHED IMPRP ELECT VDW BOUNDARY MISC KINETIC TOTAL TEMP POTENTIAL TOTALAVG TEMPAVG PRESSURE GPRESSURE VOLUME PRESSAVG GPRESSAVG
ENERGY: 0 0.6413 5.8708 6.0804 0.0000 -10903.1665 1463.3399 0.0000 0.0000 1824.1446 -7603.0897 306.1368 -9427.2343 -7603.0897 306.1368 48.8666 117.9479 30601.5757 48.8666 117.9479
ENERGY: 300000 0.0765 3.6265 6.1311 0.0000 -10920.2838 1431.0878 0.0000 0.0000 1792.9310 -7686.4309 300.8984 -9479.3619 -7629.0899 300.1496 -673.7997 -592.3939 30831.7873 -160.0311 -86.8356
ENERGY: 600000 1.1636 3.4709 6.1930 0.0000 -10826.9513 1462.2833 0.0000 0.0000 1723.8547 -7629.9858 289.3057 -9353.8405 -7623.5867 299.0375 -287.3986 -146.7780 31050.2710 -332.4044 -241.9324
ENERGY: 900000 0.3633 5.9455 6.4706 0.0000 -10745.2058 1397.2587 0.0000 0.0000 1803.1491 -7532.0185 302.6133 -9335.1677 -7622.6578 299.2083 -367.0755 -268.1283 30979.0605 -218.2555 -137.2776
ENERGY: 1200000 0.5400 3.9397 6.4108 0.0000 -10982.9942 1597.1579 0.0000 0.0000 1725.5991 -7649.3468 289.5984 -9374.9458 -7615.6250 298.3113 1020.0685 1099.7151 30793.2445 -97.4934 -23.4545
ENERGY: 1500000 0.0785 6.1181 5.9923 0.0000 -11038.9812 1536.3282 0.0000 0.0000 1823.9633 -7666.5008 306.1064 -9490.4640 -7615.9087 298.4878 436.6974 477.9546 30389.3938 -47.2267 18.2721
TCL: Running FEP window  13: Lambda1 0.39999999999999963 Lambda2 0.34999999999999964 [dLambda -0.04999999999999999]
TCL: Setting parameter firsttimestep to 0
TCL: Setting parameter alchLambda to 0.39999999999999963
Info: NONBONDED TABLE R-SQUARED SPACING: 0.0625
Info: NONBONDED TABLE SIZE: 705 POINTS
TCL: Setting parameter alchLambda2 to 0.34999999999999964
Info: NONBONDED TABLE R-SQUARED SPACING: 0.0625
Info: NONBONDED TABLE SIZE: 705 POINTS
TCL: Running for 1500000 steps
ETITLE: TS BOND ANGLE DIHED IMPRP ELECT VDW BOUNDARY MISC KINETIC TOTAL TEMP POTENTIAL TOTALAVG TEMPAVG PRESSURE GPRESSURE VOLUME PRESSAVG GPRESSAVG
ENERGY: 0 0.0785 6.1181 5.9923 0.0000 -11038.9808 1536.1756 0.0000 0.0000 1823.0561 -7667.5601 305.9542 -9490.6162 -7667.5601 305.9542 385.6656 472.9428 30389.3938 385.6656 472.9428
ENERGY: 300000 0.8192 5.6445 6.2022 0.0000 -10959.8733 1480.7370 0.0000 0.0000 1768.4652 -7698.0051 296.7925 -9466.4704 -7620.1229 305.6146 -72.9964 -61.8873 30702.0272 29.3010 75.8975
ENERGY: 600000 0.6194 4.1480 6.1768 0.0000 -10868.7780 1424.8369 0.0000 0.0000 1775.2531 -7657.7439 297.9316 -9432.9970 -7617.8236 303.6873 -626.8512 -555.2645 31020.5863 -197.8936 -146.1372
ENERGY: 900000 0.9914 3.5986 6.4402 0.0000 -10934.5522 1479.1042 0.0000 0.0000 1805.1201 -7639.2977 302.9441 -9444.4178 -7621.6025 303.3243 -38.2801 52.6716 30905.4510 -45.8381 14.4216
ENERGY: 1200000 0.9996 3.2912 6.2196 0.0000 -10749.4534 1395.0845 0.0000 0.0000 1796.8167 -7547.0418 301.5505 -9343.8585 -7617.4148 302.3011 -460.6010 -330.3520 31056.1572 -47.8798 13.2456
ENERGY: 1500000 0.7689 2.9973 6.1484 0.0000 -10852.6581 1446.3830 0.0000 0.0000 1767.3651 -7628.9954 296.6078 -9396.3605 -7612.2922 301.8683 5.5998 85.6882 30628.1406 -83.2194 -22.5637
TCL: Running FEP window  14: Lambda1 0.34999999999999964 Lambda2 0.29999999999999966 [dLambda -0.04999999999999999]
TCL: Setting parameter firsttimestep to 0
TCL: Setting parameter alchLambda to 0.34999999999999964
Info: NONBONDED TABLE R-SQUARED SPACING: 0.0625
Info: NONBONDED TABLE SIZE: 705 POINTS
TCL: Setting parameter alchLambda2 to 0.29999999999999966
Info: NONBONDED TABLE R-SQUARED SPACING: 0.0625
Info: NONBONDED TABLE SIZE: 705 POINTS
TCL: Running for 1500000 steps
ETITLE: TS BOND ANGLE DIHED IMPRP ELECT VDW BOUNDARY MISC KINETIC TOTAL TEMP POTENTIAL TOTALAVG TEMPAVG PRESSURE GPRESSURE VOLUME PRESSAVG GPRESSAVG
ENERGY: 0 0.7689 2.9973 6.1484 0.0000 -10852.6583 1445.9800 0.0000 0.0000 1766.4463 -7630.3174 296.4536 -9396.7637 -7630.3174 296.4536 -8.8308 82.6181 30628.1406 -8.8308 82.6181
ENERGY: 300000 0.7752 3.1550 6.2072 0.0000 -10987.3792 1540.0538 0.0000 0.0000 1792.9020 -7644.2861 300.8935 -9437.1881 -7619.6387 298.8166 440.1872 482.1087 30566.9603 10.1615 63.4617
ENERGY: 600000 1.1030 4.8366 6.2260 0.0000 -10847.3715 1429.3557 0.0000 0.0000 1773.0647 -7632.7856 297.5644 -9405.8503 -7627.0586 298.1453 -433.4738 -403.2840 30941.5729 -88.4609 -35.1687
ENERGY: 900000 2.1504 4.0468 6.3756 0.0000 -10686.3200 1305.0001 0.0000 0.0000 1834.4652 -7534.2821 307.8689 -9368.7473 -7613.7625 299.3217 -1013.8173 -958.3074 30990.8337 -181.3369 -120.4664
ENERGY: 1200000 0.4855 4.3067 6.2998 0.0000 -11038.7482 1557.6349 0.0000 0.0000 1751.2319 -7718.7894 293.9003 -9470.0214 -7619.3758 298.6445 434.4119 455.4580 30814.3625 -97.0538 -36.1409
ENERGY: 1500000 1.9982 3.5974 6.4157 0.0000 -10795.2543 1448.9876 0.0000 0.0000 1773.2941 -7560.9613 297.6029 -9334.2554 -7616.6592 298.5157 313.2974 365.9866 30561.3645 -83.5270 -17.6489
TCL: Running FEP window  15: Lambda1 0.29999999999999966 Lambda2 0.24999999999999967 [dLambda -0.04999999999999999]
TCL: Setting parameter firsttimestep to 0
TCL: Setting parameter alchLambda to 0.29999999999999966
Info: NONBONDED TABLE R-SQUARED SPACING: 0.0625
Info: NONBONDED TABLE SIZE: 705 POINTS
TCL: Setting parameter alchLambda2 to 0.24999999999999967
Info: NONBONDED TABLE R-SQUARED SPACING: 0.0625
Info: NONBONDED TABLE SIZE: 705 POINTS
TCL: Running for 1500000 steps
ETITLE: TS BOND ANGLE DIHED IMPRP ELECT VDW BOUNDARY MISC KINETIC TOTAL TEMP POTENTIAL TOTALAVG TEMPAVG PRESSURE GPRESSURE VOLUME PRESSAVG GPRESSAVG
ENERGY: 0 1.9982 3.5974 6.4157 0.0000 -10795.2508 1449.0165 0.0000 0.0000 1772.4534 -7561.7696 297.4618 -9334.2231 -7561.7696 297.4618 273.7455 362.9838 30561.3645 273.7455 362.9838
ENERGY: 300000 0.5647 2.7958 6.2730 0.0000 -10903.5222 1472.6187 0.0000 0.0000 1827.6248 -7593.6453 306.7209 -9421.2700 -7599.4262 301.7762 -118.5406 -66.2367 31059.3409 34.8244 113.3563
ENERGY: 600000 0.2467 1.8799 6.2263 0.0000 -10627.7361 1334.3336 0.0000 0.0000 1773.0882 -7511.9615 297.5683 -9285.0497 -7565.8619 301.5421 -712.9147 -637.3245 30780.4865 -20.7606 45.7638
ENERGY: 900000 2.0449 3.2048 6.1277 0.0000 -10717.1764 1368.3681 0.0000 0.0000 1769.3875 -7568.0434 296.9472 -9337.4308 -7575.2466 300.8570 -818.9802 -788.1346 31138.8247 -91.7538 -26.9769
ENERGY: 1200000 0.3227 4.2104 6.0141 0.0000 -10880.5582 1478.3746 0.0000 0.0000 1796.3863 -7595.2500 301.4783 -9391.6363 -7595.8943 299.8461 163.2043 237.8815 30731.3872 -28.1538 41.4617
ENERGY: 1500000 0.2806 2.1277 6.3292 0.0000 -10856.9991 1460.9491 0.0000 0.0000 1772.6606 -7614.6519 297.4965 -9387.3125 -7600.9324 299.8686 -125.0982 -93.4346 30940.3682 -6.1643 61.1110
TCL: Running FEP window  16: Lambda1 0.24999999999999967 Lambda2 0.19999999999999968 [dLambda -0.04999999999999999]
TCL: Setting parameter firsttimestep to 0
TCL: Setting parameter alchLambda to 0.24999999999999967
Info: NONBONDED TABLE R-SQUARED SPACING: 0.0625
Info: NONBONDED TABLE SIZE: 705 POINTS
TCL: Setting parameter alchLambda2 to 0.19999999999999968
Info: NONBONDED TABLE R-SQUARED SPACING: 0.0625
Info: NONBONDED TABLE SIZE: 705 POINTS
TCL: Running for 1500000 steps
ETITLE: TS BOND ANGLE DIHED IMPRP ELECT VDW BOUNDARY MISC KINETIC TOTAL TEMP POTENTIAL TOTALAVG TEMPAVG PRESSURE GPRESSURE VOLUME PRESSAVG GPRESSAVG
ENERGY: 0 0.2806 2.1277 6.3292 0.0000 -10856.9976 1460.3389 0.0000 0.0000 1771.7649 -7616.1564 297.3462 -9387.9212 -7616.1564 297.3462 -176.5350 -99.1058 30940.3682 -176.5350 -99.1058
ENERGY: 300000 0.3890 1.8212 6.3763 0.0000 -10948.8452 1477.7254 0.0000 0.0000 1810.0057 -7652.5275 303.7640 -9462.5332 -7612.9908 299.7206 -201.9837 -41.0644 30872.4356 -158.9371 -22.9769
ENERGY: 600000 0.4368 2.7533 6.1761 0.0000 -10890.9223 1467.1846 0.0000 0.0000 1766.1526 -7648.2189 296.4043 -9414.3715 -7630.5060 298.4576 -121.2504 -33.1692 30858.0877 -316.6803 -207.0083
ENERGY: 900000 0.4999 4.9536 6.2275 0.0000 -10848.4036 1441.5894 0.0000 0.0000 1774.4620 -7620.6712 297.7989 -9395.1331 -7629.5581 297.6520 -169.1268 -145.9030 30862.7489 -206.0619 -115.3713
ENERGY: 1200000 0.3358 7.4698 5.6885 0.0000 -10809.1057 1441.7810 0.0000 0.0000 1820.4358 -7533.3948 305.5144 -9353.8306 -7614.4268 298.7862 35.9487 89.4991 30736.7839 -108.0546 -18.0461
ENERGY: 1500000 1.4671 4.2106 6.0990 0.0000 -10878.5293 1519.2582 0.0000 0.0000 1772.1741 -7575.3203 297.4149 -9347.4945 -7610.5652 298.2790 412.7216 518.7563 30796.5099 8.6294 93.1037
TCL: Running FEP window  17: Lambda1 0.19999999999999968 Lambda2 0.1499999999999997 [dLambda -0.04999999999999999]
TCL: Setting parameter firsttimestep to 0
TCL: Setting parameter alchLambda to 0.19999999999999968
Info: NONBONDED TABLE R-SQUARED SPACING: 0.0625
Info: NONBONDED TABLE SIZE: 705 POINTS
TCL: Setting parameter alchLambda2 to 0.1499999999999997
Info: NONBONDED TABLE R-SQUARED SPACING: 0.0625
Info: NONBONDED TABLE SIZE: 705 POINTS
TCL: Running for 1500000 steps
ETITLE: TS BOND ANGLE DIHED IMPRP ELECT VDW BOUNDARY MISC KINETIC TOTAL TEMP POTENTIAL TOTALAVG TEMPAVG PRESSURE GPRESSURE VOLUME PRESSAVG GPRESSAVG
ENERGY: 0 1.4671 4.2106 6.0990 0.0000 -10878.5301 1519.1920 0.0000 0.0000 1771.2929 -7576.2685 297.2670 -9347.5614 -7576.2685 297.2670 430.3676 516.9312 30796.5099 430.3676 516.9312
ENERGY: 300000 1.0944 4.6230 6.1916 0.0000 -10862.9368 1482.7999 0.0000 0.0000 1763.3322 -7604.8956 295.9310 -9368.2278 -7607.1578 297.4114 138.7138 194.4338 30990.2209 188.9921 240.4914
ENERGY: 600000 0.4866 7.3952 6.3270 0.0000 -10824.5721 1456.3688 0.0000 0.0000 1766.7206 -7587.2740 296.4997 -9353.9946 -7574.1510 300.0523 -14.7242 20.5928 30904.3828 -2.4175 55.4446
ENERGY: 900000 0.6410 2.1607 6.2322 0.0000 -11079.4556 1626.1473 0.0000 0.0000 1792.3975 -7651.8769 300.8089 -9444.2744 -7585.2150 299.6814 1028.8187 1091.8888 30859.3084 31.6302 94.2770
ENERGY: 1200000 0.3050 6.1429 6.2159 0.0000 -10872.8106 1473.8291 0.0000 0.0000 1749.7062 -7636.6114 293.6442 -9386.3176 -7586.7631 299.7264 -103.4138 -62.3606 31005.4210 12.6389 79.1807
ENERGY: 1500000 0.2035 6.3264 6.0137 0.0000 -10686.8419 1267.1424 0.0000 0.0000 1744.7313 -7662.4247 292.8093 -9407.1559 -7593.8588 299.2768 -1818.0422 -1696.7088 31021.7029 -21.2118 47.0652
TCL: Running FEP window  18: Lambda1 0.1499999999999997 Lambda2 0.09999999999999969 [dLambda -0.05 ]
TCL: Setting parameter firsttimestep to 0
TCL: Setting parameter alchLambda to 0.1499999999999997
Info: NONBONDED TABLE R-SQUARED SPACING: 0.0625
Info: NONBONDED TABLE SIZE: 705 POINTS
TCL: Setting parameter alchLambda2 to 0.09999999999999969
Info: NONBONDED TABLE R-SQUARED SPACING: 0.0625
Info: NONBONDED TABLE SIZE: 705 POINTS
TCL: Running for 1500000 steps
ETITLE: TS BOND ANGLE DIHED IMPRP ELECT VDW BOUNDARY MISC KINETIC TOTAL TEMP POTENTIAL TOTALAVG TEMPAVG PRESSURE GPRESSURE VOLUME PRESSAVG GPRESSAVG
ENERGY: 0 0.2035 6.3264 6.0137 0.0000 -10686.8407 1267.2890 0.0000 0.0000 1743.8340 -7663.1741 292.6587 -9407.0081 -7663.1741 292.6587 -1786.8849 -1695.7661 31021.7029 -1786.8849 -1695.7661
ENERGY: 300000 0.4812 3.4463 6.3714 0.0000 -10935.1813 1477.9398 0.0000 0.0000 1739.0281 -7707.9145 291.8522 -9446.9427 -7601.4387 299.2935 64.8938 98.9947 30423.6633 -511.0869 -454.0370
ENERGY: 600000 0.0829 5.5735 6.2263 0.0000 -10829.8915 1428.2534 0.0000 0.0000 1818.0893 -7571.6660 305.1206 -9389.7553 -7610.2044 301.2995 -190.5370 -188.3885 30720.4160 -272.2970 -225.2004
ENERGY: 900000 0.2135 4.9063 6.0881 0.0000 -10836.0917 1422.2938 0.0000 0.0000 1807.8948 -7594.6953 303.4097 -9402.5901 -7618.7432 300.5627 -499.7362 -413.2326 31132.1584 -299.0758 -244.1095
ENERGY: 1200000 0.5958 2.4641 6.1505 0.0000 -10813.8571 1426.7955 0.0000 0.0000 1827.1970 -7550.6542 306.6491 -9377.8512 -7609.4540 299.7347 -522.5486 -418.1225 31311.2033 -272.6242 -211.0318
ENERGY: 1500000 0.0694 4.5896 6.0381 0.0000 -10885.8337 1450.0015 0.0000 0.0000 1821.0055 -7604.1296 305.6100 -9425.1351 -7604.6126 301.0803 -157.4570 -108.1182 30771.8055 -206.2436 -145.2042
TCL: Running FEP window  19: Lambda1 0.09999999999999969 Lambda2 0.049999999999999684 [dLambda -0.05 ]
TCL: Setting parameter firsttimestep to 0
TCL: Setting parameter alchLambda to 0.09999999999999969
Info: NONBONDED TABLE R-SQUARED SPACING: 0.0625
Info: NONBONDED TABLE SIZE: 705 POINTS
TCL: Setting parameter alchLambda2 to 0.049999999999999684
Info: NONBONDED TABLE R-SQUARED SPACING: 0.0625
Info: NONBONDED TABLE SIZE: 705 POINTS
TCL: Running for 1500000 steps
ETITLE: TS BOND ANGLE DIHED IMPRP ELECT VDW BOUNDARY MISC KINETIC TOTAL TEMP POTENTIAL TOTALAVG TEMPAVG PRESSURE GPRESSURE VOLUME PRESSAVG GPRESSAVG
ENERGY: 0 0.0694 4.5896 6.0381 0.0000 -10885.8326 1449.6875 0.0000 0.0000 1820.1199 -7605.3281 305.4614 -9425.4480 -7605.3281 305.4614 -197.3193 -109.7675 30771.8055 -197.3193 -109.7675
ENERGY: 300000 1.2067 2.9588 6.1059 0.0000 -10895.6266 1449.1565 0.0000 0.0000 1785.1080 -7651.0907 299.5855 -9436.1987 -7569.3218 303.7797 -195.0004 -156.1778 30497.1463 39.7595 132.5977
ENERGY: 600000 0.3663 0.7805 6.4374 0.0000 -10907.3791 1482.5162 0.0000 0.0000 1780.4125 -7636.8661 298.7975 -9417.2787 -7587.6513 301.9408 -105.9103 -40.3517 31045.1301 48.8943 123.8374
ENERGY: 900000 0.8888 2.7108 6.4092 0.0000 -10866.8767 1443.2071 0.0000 0.0000 1738.3075 -7675.3533 291.7312 -9413.6608 -7609.2104 300.4125 -90.0489 -44.2626 30566.8651 64.7227 144.2997
ENERGY: 1200000 1.4433 4.8489 6.3744 0.0000 -10952.0109 1536.9431 0.0000 0.0000 1766.9063 -7635.4948 296.5308 -9402.4011 -7610.4999 299.5401 457.0571 485.5911 30726.7174 69.6660 139.7451
ENERGY: 1500000 0.6885 7.3695 5.9382 0.0000 -10831.4350 1425.1788 0.0000 0.0000 1770.1826 -7622.0775 297.0807 -9392.2601 -7603.1643 299.6335 -263.5486 -211.3270 30677.3648 -30.3809 38.6128
TCL: Running FEP window  20: Lambda1 0.049999999999999684 Lambda2 0.0    [dLambda -0.049999999999999684]
TCL: Setting parameter firsttimestep to 0
TCL: Setting parameter alchLambda to 0.049999999999999684
Info: NONBONDED TABLE R-SQUARED SPACING: 0.0625
Info: NONBONDED TABLE SIZE: 705 POINTS
TCL: Setting parameter alchLambda2 to 0.0
Info: NONBONDED TABLE R-SQUARED SPACING: 0.0625
Info: NONBONDED TABLE SIZE: 705 POINTS
TCL: Running for 1500000 steps
ETITLE: TS BOND ANGLE DIHED IMPRP ELECT VDW BOUNDARY MISC KINETIC TOTAL TEMP POTENTIAL TOTALAVG TEMPAVG PRESSURE GPRESSURE VOLUME PRESSAVG GPRESSAVG
ENERGY: 0 0.6885 7.3695 5.9382 0.0000 -10831.4370 1425.0466 0.0000 0.0000 1769.3146 -7623.0797 296.9350 -9392.3943 -7623.0797 296.9350 -298.6552 -215.3000 30677.3648 -298.6552 -215.3000
ENERGY: 300000 0.0570 2.5068 6.3896 0.0000 -10798.7263 1410.5277 0.0000 0.0000 1823.8935 -7555.3519 306.0947 -9379.2453 -7627.4067 296.6774 -587.7942 -513.9203 31415.8538 -265.0595 -210.7043
ENERGY: 600000 0.3647 5.8362 6.5406 0.0000 -10986.9096 1585.4964 0.0000 0.0000 1790.7101 -7597.9616 300.5257 -9388.6718 -7623.9970 298.1896 1001.0462 1049.4961 30712.9483 1.7752 56.8634
ENERGY: 900000 1.1710 5.5551 6.3284 0.0000 -10855.9137 1426.3595 0.0000 0.0000 1783.7756 -7632.7241 299.3619 -9416.4997 -7612.9721 299.4110 -431.0088 -378.0256 31039.7213 -277.9890 -227.4597
ENERGY: 1200000 0.1402 1.6861 6.2408 0.0000 -10719.7202 1387.8536 0.0000 0.0000 1803.3879 -7520.4116 302.6534 -9323.7995 -7595.3145 300.6986 -40.4089 7.9183 30344.3528 -211.3864 -155.9576
ENERGY: 1500000 0.5458 4.5972 6.3104 0.0000 -10757.9145 1373.4093 0.0000 0.0000 1753.3332 -7619.7185 294.2529 -9373.0517 -7597.8805 299.8131 -755.1829 -691.8569 31051.9781 -178.8157 -125.7670
TCL: Exiting due to exit command.
