Info: SIMULATION PARAMETERS:
Info: TIMESTEP               2
Info: NUMBER OF STEPS        0
Info: STEPS PER CYCLE        10
Info: PERIODIC CELL BASIS 1  30.7523 0 0
Info: PERIODIC CELL BASIS 2  0 31.1259 0
Info: PERIODIC CELL BASIS 3  0 0 31.4001
Info: PERIODIC CELL CENTER   0 0 0
Info: WRAPPING WATERS AROUND PERIODIC BOUNDARIES ON OUTPUT.
Info: WRAPPING ALL CLUSTERS AROUND PERIODIC BOUNDARIES ON OUTPUT.
Info: FIRST LDB TIMESTEP     50
Info: LAST LDB TIMESTEP     -1
Info: HOM BACKGROUND SCALING 1
Info: PME BACKGROUND SCALING 1
Info: MIN ATOMS PER PATCH    40
Info: EMPTY PATCH LOAD       40 ATOMS
Info: VELOCITY FILE          mobley_1231151_equil.vel
Info: CENTER OF MASS MOVING INITIALLY? NO
Info: DIELECTRIC             1
Info: EXCLUDE                SCALED ONE-FOUR
Info: 1-4 ELECTROSTATICS SCALED BY 0.833333
Info: MODIFIED 1-4 VDW PARAMETERS WILL BE USED
Info: DCD FILENAME           mobley_1231151_prod.dcd
Info: DCD FREQUENCY          100000
Info: DCD FIRST STEP         100000
Info: DCD FILE WILL CONTAIN UNIT CELL DATA
Info: XST FILENAME           mobley_1231151_prod.xst
Info: XST FREQUENCY          100000
Info: NO VELOCITY DCD OUTPUT
Info: NO FORCE DCD OUTPUT
Info: OUTPUT FILENAME        mobley_1231151_prod
Info: BINARY OUTPUT FILES WILL BE USED
Info: RESTART FILENAME       mobley_1231151_prod.restart
Info: RESTART FREQUENCY      100000
Info: BINARY RESTART FILES WILL BE USED
Info: CUTOFF                 9
Info: PAIRLIST DISTANCE      11
Info: PAIRLIST SHRINK RATE   0.01
Info: PAIRLIST GROW RATE     0.01
Info: PAIRLIST TRIGGER       0.3
Info: PAIRLISTS PER CYCLE    2
Info: PAIRLISTS ENABLED
Info: MARGIN                 2
Info: HYDROGEN GROUP CUTOFF  2.5
Info: PATCH DIMENSION        15.5
Info: ENERGY OUTPUT STEPS    100000
Info: ENERGY EVALUATION STEPS    100000
Info: OUTPUT ENERGY PRECISION 4
Info: CROSSTERM ENERGY INCLUDED IN DIHEDRAL
Info: TIMING OUTPUT STEPS    1000000
Info: PRESSURE OUTPUT STEPS  100000
Info: ALCHEMICAL FEP ON
Info: FEP CURRENT LAMBDA VALUE     0
Info: FEP COMPARISON LAMBDA VALUE  0.05
Info: FEP INTRA-ALCHEMICAL NON-BONDED INTERACTIONS WILL BE RETAINED
Info: FEP INTRA-ALCHEMICAL BONDED INTERACTIONS WILL BE RETAINED
Info: FEP VDW SHIFTING COEFFICIENT 5
Info: FEP ELEC. ACTIVE FOR ANNIHILATED PARTICLES BETWEEN LAMBDA = 0 AND LAMBDA = 0.5
Info: FEP ELEC. ACTIVE FOR EXNIHILATED PARTICLES BETWEEN LAMBDA = 0.5 AND LAMBDA = 1
Info: FEP VDW ACTIVE FOR ANNIHILATED PARTICLES BETWEEN LAMBDA = 0 AND LAMBDA = 1
Info: FEP VDW ACTIVE FOR EXNIHILATED PARTICLES BETWEEN LAMBDA = 0 AND LAMBDA = 1
Info: FEP BOND ACTIVE FOR ANNIHILATED PARTICLES BETWEEN LAMBDA = 1 AND LAMBDA = 1
Info: FEP BOND ACTIVE FOR EXNIHILATED PARTICLES BETWEEN LAMBDA = 0 AND LAMBDA = 0
Info: LANGEVIN DYNAMICS ACTIVE
Info: LANGEVIN TEMPERATURE   300
Info: LANGEVIN USING BBK INTEGRATOR
Info: LANGEVIN DAMPING COEFFICIENT IS 1 INVERSE PS
Info: LANGEVIN DYNAMICS APPLIED TO HYDROGENS
Info: LANGEVIN PISTON PRESSURE CONTROL ACTIVE
Info:        TARGET PRESSURE IS 1.01325 BAR
Info:     OSCILLATION PERIOD IS 50 FS
Info:             DECAY TIME IS 25 FS
Info:     PISTON TEMPERATURE IS 300 K
Info:       PRESSURE CONTROL IS GROUP-BASED
Info:    INITIAL STRAIN RATE IS 0.000356851 0.000356851 0.000356851
Info:       CELL FLUCTUATION IS ISOTROPIC
Info: PARTICLE MESH EWALD (PME) ACTIVE
Info: PME TOLERANCE               1e-06
Info: PME EWALD COEFFICIENT       0.348832
Info: PME INTERPOLATION ORDER     4
Info: PME GRID DIMENSIONS         32 32 32
Info: PME MAXIMUM GRID SPACING    1
Info: PME CALCULATION WILL BE PERFORMED ON GPU
Info: FULL ELECTROSTATIC EVALUATION FREQUENCY      2
Info: USING VERLET I (r-RESPA) MTS SCHEME.
Info: C1 SPLITTING OF LONG RANGE ELECTROSTATICS
Info: PLACING ATOMS IN PATCHES BY HYDROGEN GROUPS
Info: RIGID BONDS TO HYDROGEN : ALL
Info:         ERROR TOLERANCE : 1e-08
Info:          MAX ITERATIONS : 100
Info: RIGID WATER USING SETTLE ALGORITHM
Info: RANDOM NUMBER SEED     1743508333
Info: USE HYDROGEN BONDS?    NO
Info: Using AMBER format force field!
Info: AMBER PARM FILE        mobley_1231151.prmtop
Info: COORDINATE PDB         mobley_1231151.pdb
Info: Exclusions will be read from PARM file!
Info: SCNB (VDW SCALING)     2
Info: USING ARITHMETIC MEAN TO COMBINE L-J SIGMA PARAMETERS
Info: BINARY COORDINATES     mobley_1231151_equil.coor
Info: SUMMARY OF PARAMETERS:
Info: 6 BONDS
Info: 6 ANGLES
Info:   6 HARMONIC
Info:   0 COSINE-BASED
Info: 4 DIHEDRAL
Info: 0 IMPROPER
Info: 0 CROSSTERM
Info: 0 VDW
Info: 21 VDW_PAIRS
Info: 0 NBTHOLE_PAIRS
Info: To read alchdata from file: mobley_1231151.pdb
Info: To read alchflag data from column: 5
Info: STRUCTURE SUMMARY:
Info: 2945 ATOMS
Info: 2944 BONDS
Info: 18 ANGLES
Info: 24 DIHEDRALS
Info: 0 IMPROPERS
Info: 0 CROSSTERMS
Info: 2980 EXCLUSIONS
Info: 2941 RIGID BONDS
Info: ALCH: 0 ATOMS TO DISAPPEAR IN FINAL STATE
Info: ALCH: 11 ATOMS TO APPEAR IN FINAL STATE
Info: 5894 DEGREES OF FREEDOM
Info: 982 HYDROGEN GROUPS
Info: 4 ATOMS IN LARGEST HYDROGEN GROUP
Info: 982 MIGRATION GROUPS
Info: 4 ATOMS IN LARGEST MIGRATION GROUP
Info: TOTAL MASS = 17698.2 amu
Info: TOTAL CHARGE = 0.000199996 e
Info: MASS DENSITY = 0.977814 g/cm^3
Info: ATOM DENSITY = 0.0979837 atoms/A^3
Info: ADDED 0 IMPLICIT EXCLUSIONS
Info: NONBONDED TABLE R-SQUARED SPACING: 0.0625
Info: NONBONDED TABLE SIZE: 705 POINTS
Info: REMOVING COM VELOCITY -0.179581 0.0545531 0.234901
Info: Use 3D box decompostion in PME FFT.
Info: Updated CUDA force table with 4096 elements.
Info: Updated CUDA LJ table with 6 x 6 elements.
Info: Found 14 unique exclusion lists needing 24 bytes
TCL: Running for 1500000 steps
ETITLE: TS BOND ANGLE DIHED IMPRP ELECT VDW BOUNDARY MISC KINETIC TOTAL TEMP POTENTIAL TOTALAVG TEMPAVG PRESSURE GPRESSURE VOLUME PRESSAVG GPRESSAVG
ENERGY: 0 0.1584 3.7614 2.1085 0.0000 -10567.3583 1398.4906 0.0000 0.0000 1774.6056 -7388.2338 303.0275 -9162.8394 -7388.2338 303.0275 -12.7129 95.6988 30056.0234 -12.7129 95.6988
ENERGY: 300000 0.9969 5.2548 3.5209 0.0000 -10789.4964 1553.0512 0.0000 0.0000 1765.4572 -7461.2154 301.4654 -9226.6725 -7469.1366 297.7855 772.1663 889.5536 30406.8534 -156.0866 -55.4491
ENERGY: 600000 0.6308 6.9354 1.7698 0.0000 -10752.8610 1478.6794 0.0000 0.0000 1714.6034 -7550.2422 292.7817 -9264.8456 -7465.7912 298.2689 175.8727 253.3915 30298.9005 -2.1302 74.7668
ENERGY: 900000 0.2015 3.0746 1.5665 0.0000 -10715.0926 1443.4090 0.0000 0.0000 1745.7037 -7521.1373 298.0923 -9266.8410 -7470.3298 299.5618 -60.9254 -38.4953 30283.6446 -60.9787 10.2443
ENERGY: 1200000 0.5881 3.9093 2.3126 0.0000 -10699.0861 1417.7175 0.0000 0.0000 1758.0755 -7516.4832 300.2049 -9274.5587 -7480.7806 299.0770 -216.5801 -171.8127 30053.8194 -82.6667 -12.7776
ENERGY: 1500000 1.0390 6.2175 1.6011 0.0000 -10715.9243 1428.5876 0.0000 0.0000 1727.7789 -7550.7002 295.0315 -9278.4791 -7477.5303 299.1846 -461.8503 -422.7787 30662.8547 -144.9960 -72.2623
TCL: Running FEP window   2: Lambda1 0.05   Lambda2 0.1    [dLambda 0.05  ]
TCL: Setting parameter firsttimestep to 0
TCL: Setting parameter alchLambda to 0.05
Info: NONBONDED TABLE R-SQUARED SPACING: 0.0625
Info: NONBONDED TABLE SIZE: 705 POINTS
TCL: Setting parameter alchLambda2 to 0.1
Info: NONBONDED TABLE R-SQUARED SPACING: 0.0625
Info: NONBONDED TABLE SIZE: 705 POINTS
TCL: Running for 1500000 steps
ETITLE: TS BOND ANGLE DIHED IMPRP ELECT VDW BOUNDARY MISC KINETIC TOTAL TEMP POTENTIAL TOTALAVG TEMPAVG PRESSURE GPRESSURE VOLUME PRESSAVG GPRESSAVG
ENERGY: 0 1.0390 6.2175 1.6011 0.0000 -10715.9238 1430.2875 0.0000 0.0000 1726.9353 -7549.8434 294.8875 -9276.7788 -7549.8434 294.8875 -503.7986 -418.4451 30662.8547 -503.7986 -418.4451
ENERGY: 300000 0.8057 6.1518 1.9291 0.0000 -10795.9936 1537.5909 0.0000 0.0000 1793.4149 -7456.1013 306.2394 -9249.5161 -7503.0556 301.5165 672.3704 706.3243 30445.9583 -44.8110 17.4601
ENERGY: 600000 0.5921 4.3020 2.6936 0.0000 -10805.5220 1564.3893 0.0000 0.0000 1762.3818 -7471.1632 300.9402 -9233.5450 -7513.4886 300.2784 1123.0069 1151.4312 30007.0442 -27.4716 31.2497
ENERGY: 900000 0.2496 3.1916 1.6284 0.0000 -10594.6359 1389.2726 0.0000 0.0000 1757.9383 -7442.3553 300.1815 -9200.2937 -7506.1074 301.0996 -368.7572 -318.3688 30466.9587 -55.4451 1.6461
ENERGY: 1200000 0.6181 5.1065 2.1094 0.0000 -10649.1507 1389.9080 0.0000 0.0000 1794.5670 -7456.8416 306.4361 -9251.4086 -7490.0965 301.5566 -381.2278 -284.6099 30124.6675 -167.7351 -108.4237
ENERGY: 1500000 0.6121 7.3934 1.8123 0.0000 -10793.5189 1449.2959 0.0000 0.0000 1730.5104 -7603.8947 295.4980 -9334.4052 -7501.5131 301.1946 -303.0788 -260.5204 30267.5524 -193.8426 -131.5411
TCL: Running FEP window   3: Lambda1 0.1    Lambda2 0.15000000000000002 [dLambda 0.05000000000000002]
TCL: Setting parameter firsttimestep to 0
TCL: Setting parameter alchLambda to 0.1
Info: NONBONDED TABLE R-SQUARED SPACING: 0.0625
Info: NONBONDED TABLE SIZE: 705 POINTS
TCL: Setting parameter alchLambda2 to 0.15000000000000002
Info: NONBONDED TABLE R-SQUARED SPACING: 0.0625
Info: NONBONDED TABLE SIZE: 705 POINTS
TCL: Running for 1500000 steps
ETITLE: TS BOND ANGLE DIHED IMPRP ELECT VDW BOUNDARY MISC KINETIC TOTAL TEMP POTENTIAL TOTALAVG TEMPAVG PRESSURE GPRESSURE VOLUME PRESSAVG GPRESSAVG
ENERGY: 0 0.6121 7.3934 1.8123 0.0000 -10793.5191 1450.5785 0.0000 0.0000 1729.6380 -7603.4847 295.3490 -9333.1227 -7603.4847 295.3490 -336.6309 -253.3628 30267.5524 -336.6309 -253.3628
ENERGY: 300000 0.7182 6.9239 1.7356 0.0000 -10655.8044 1420.8984 0.0000 0.0000 1779.9431 -7445.5853 303.9390 -9225.5284 -7500.2967 299.1678 -12.0435 2.4969 30132.3914 -286.8320 -235.0764
ENERGY: 600000 0.5943 2.7953 2.0576 0.0000 -10625.6483 1427.3980 0.0000 0.0000 1816.7653 -7376.0379 310.2266 -9192.8032 -7493.8029 300.0773 80.8573 128.1149 30396.5015 -39.7302 20.3706
ENERGY: 900000 0.9942 4.6982 1.5818 0.0000 -10755.3507 1490.7875 0.0000 0.0000 1785.0021 -7472.2870 304.8028 -9257.2891 -7477.2995 302.1234 281.3159 310.7978 30365.1596 4.7437 67.5665
ENERGY: 1200000 0.6083 4.6338 1.9691 0.0000 -10633.3402 1414.8119 0.0000 0.0000 1777.8398 -7433.4774 303.5798 -9211.3172 -7464.7817 302.6935 -124.0438 -62.9992 30262.5481 -0.8183 60.0534
ENERGY: 1500000 0.3231 2.4348 1.7030 0.0000 -10550.9650 1351.7448 0.0000 0.0000 1725.7244 -7469.0349 294.6807 -9194.7593 -7470.4122 302.2029 -413.3584 -337.0810 29764.6412 -15.5969 46.8554
TCL: Running FEP window   4: Lambda1 0.15000000000000002 Lambda2 0.2    [dLambda 0.04999999999999999]
TCL: Setting parameter firsttimestep to 0
TCL: Setting parameter alchLambda to 0.15000000000000002
Info: NONBONDED TABLE R-SQUARED SPACING: 0.0625
Info: NONBONDED TABLE SIZE: 705 POINTS
TCL: Setting parameter alchLambda2 to 0.2
Info: NONBONDED TABLE R-SQUARED SPACING: 0.0625
Info: NONBONDED TABLE SIZE: 705 POINTS
TCL: Running for 1500000 steps
ETITLE: TS BOND ANGLE DIHED IMPRP ELECT VDW BOUNDARY MISC KINETIC TOTAL TEMP POTENTIAL TOTALAVG TEMPAVG PRESSURE GPRESSURE VOLUME PRESSAVG GPRESSAVG
ENERGY: 0 0.3231 2.4348 1.7030 0.0000 -10550.9651 1352.0896 0.0000 0.0000 1724.8595 -7469.5551 294.5330 -9194.4146 -7469.5551 294.5330 -418.2498 -336.0358 29764.6412 -418.2498 -336.0358
ENERGY: 300000 0.1057 4.0482 2.7812 0.0000 -10784.6104 1499.2233 0.0000 0.0000 1747.1536 -7531.2984 298.3399 -9278.4520 -7474.8311 297.5569 375.4644 459.7695 30039.3497 189.2134 271.3129
ENERGY: 600000 0.5181 5.5857 1.7039 0.0000 -10523.4328 1286.6704 0.0000 0.0000 1714.5645 -7514.3902 292.7751 -9228.9547 -7486.4905 296.8560 -1474.0363 -1422.3114 30741.4362 -102.2554 -22.1022
ENERGY: 900000 0.0837 4.6967 2.2645 0.0000 -10748.1189 1464.2582 0.0000 0.0000 1779.2206 -7497.5953 303.8156 -9276.8159 -7487.3585 299.1617 217.8279 277.3655 30055.2320 -71.7923 2.7813
ENERGY: 1200000 1.3005 2.6737 1.7800 0.0000 -10662.8232 1380.6564 0.0000 0.0000 1726.1006 -7550.3120 294.7449 -9276.4126 -7493.5161 299.7764 -892.6109 -837.5936 30791.5874 -105.8528 -29.7429
ENERGY: 1500000 0.4046 4.0127 1.5726 0.0000 -10661.9754 1503.4369 0.0000 0.0000 1828.1961 -7324.3525 312.1785 -9152.5486 -7481.5147 301.2438 742.2851 801.1186 30516.8386 -73.1844 1.7368
TCL: Running FEP window   5: Lambda1 0.2    Lambda2 0.25   [dLambda 0.04999999999999999]
TCL: Setting parameter firsttimestep to 0
TCL: Setting parameter alchLambda to 0.2
Info: NONBONDED TABLE R-SQUARED SPACING: 0.0625
Info: NONBONDED TABLE SIZE: 705 POINTS
TCL: Setting parameter alchLambda2 to 0.25
Info: NONBONDED TABLE R-SQUARED SPACING: 0.0625
Info: NONBONDED TABLE SIZE: 705 POINTS
TCL: Running for 1500000 steps
ETITLE: TS BOND ANGLE DIHED IMPRP ELECT VDW BOUNDARY MISC KINETIC TOTAL TEMP POTENTIAL TOTALAVG TEMPAVG PRESSURE GPRESSURE VOLUME PRESSAVG GPRESSAVG
ENERGY: 0 0.4046 4.0127 1.5726 0.0000 -10661.9762 1503.6934 0.0000 0.0000 1827.3110 -7324.9819 312.0274 -9152.2929 -7324.9819 312.0274 743.9918 807.8389 30516.8386 743.9918 807.8389
ENERGY: 300000 1.2333 2.6949 2.3130 0.0000 -10707.6505 1495.9163 0.0000 0.0000 1745.4192 -7460.0739 298.0437 -9205.4931 -7398.4958 306.3844 445.2293 577.7514 30477.4140 250.3779 353.9138
ENERGY: 600000 0.1218 4.0646 2.1018 0.0000 -10795.0741 1482.5511 0.0000 0.0000 1764.8172 -7541.4177 301.3561 -9306.2349 -7431.8701 304.0139 276.1831 348.4429 29891.1291 185.8604 259.4157
ENERGY: 900000 0.4097 2.9132 1.6206 0.0000 -10708.6338 1493.0872 0.0000 0.0000 1776.3858 -7434.2173 303.3315 -9210.6031 -7429.8966 303.2825 497.3675 608.9299 30150.5584 173.7866 241.9469
ENERGY: 1200000 1.0309 5.5802 2.8872 0.0000 -10981.3266 1598.0980 0.0000 0.0000 1754.0425 -7619.6878 299.5162 -9373.7303 -7442.8522 303.1324 990.3931 1023.5535 29554.6197 171.2680 236.9693
ENERGY: 1500000 1.4903 3.3508 1.9603 0.0000 -10682.7597 1502.1389 0.0000 0.0000 1783.2699 -7390.5495 304.5070 -9173.8194 -7446.1311 302.3027 492.1418 599.6401 30392.4266 145.7201 203.9195
TCL: Running FEP window   6: Lambda1 0.25   Lambda2 0.3    [dLambda 0.04999999999999999]
TCL: Setting parameter firsttimestep to 0
TCL: Setting parameter alchLambda to 0.25
Info: NONBONDED TABLE R-SQUARED SPACING: 0.0625
Info: NONBONDED TABLE SIZE: 705 POINTS
TCL: Setting parameter alchLambda2 to 0.3
Info: NONBONDED TABLE R-SQUARED SPACING: 0.0625
Info: NONBONDED TABLE SIZE: 705 POINTS
TCL: Running for 1500000 steps
ETITLE: TS BOND ANGLE DIHED IMPRP ELECT VDW BOUNDARY MISC KINETIC TOTAL TEMP POTENTIAL TOTALAVG TEMPAVG PRESSURE GPRESSURE VOLUME PRESSAVG GPRESSAVG
ENERGY: 0 1.4903 3.3508 1.9603 0.0000 -10682.7597 1502.0122 0.0000 0.0000 1782.3968 -7391.5492 304.3579 -9173.9460 -7391.5492 304.3579 509.7559 603.7524 30392.4266 509.7559 603.7524
ENERGY: 300000 0.3280 3.0534 2.0648 0.0000 -10804.3168 1542.4952 0.0000 0.0000 1813.7449 -7442.6305 309.7109 -9256.3754 -7442.8523 302.3143 909.4634 923.6863 30189.5746 444.1356 513.0807
ENERGY: 600000 1.6086 4.2216 1.8432 0.0000 -10854.2652 1481.7638 0.0000 0.0000 1773.6856 -7591.1424 302.8704 -9364.8280 -7486.4161 301.3676 -238.6564 -178.1158 30256.1482 174.2284 241.3712
ENERGY: 900000 0.4229 2.5466 1.9414 0.0000 -10846.0099 1595.3685 0.0000 0.0000 1714.3869 -7531.3437 292.7447 -9245.7306 -7489.3533 300.5009 1003.6815 1121.9429 30157.8067 124.6130 200.5547
ENERGY: 1200000 0.2183 6.7792 2.5553 0.0000 -10671.7683 1403.9914 0.0000 0.0000 1733.5569 -7524.6673 296.0182 -9258.2242 -7495.5013 300.5649 -453.7432 -402.6237 30275.8488 84.9466 156.8887
ENERGY: 1500000 0.2960 4.9222 3.1943 0.0000 -10711.9285 1481.6642 0.0000 0.0000 1758.2914 -7463.5603 300.2418 -9221.8518 -7501.0379 300.2683 473.8043 556.5522 30100.2440 134.4246 202.6054
TCL: Running FEP window   7: Lambda1 0.3    Lambda2 0.35   [dLambda 0.04999999999999999]
TCL: Setting parameter firsttimestep to 0
TCL: Setting parameter alchLambda to 0.3
Info: NONBONDED TABLE R-SQUARED SPACING: 0.0625
Info: NONBONDED TABLE SIZE: 705 POINTS
TCL: Setting parameter alchLambda2 to 0.35
Info: NONBONDED TABLE R-SQUARED SPACING: 0.0625
Info: NONBONDED TABLE SIZE: 705 POINTS
TCL: Running for 1500000 steps
ETITLE: TS BOND ANGLE DIHED IMPRP ELECT VDW BOUNDARY MISC KINETIC TOTAL TEMP POTENTIAL TOTALAVG TEMPAVG PRESSURE GPRESSURE VOLUME PRESSAVG GPRESSAVG
ENERGY: 0 0.2960 4.9222 3.1943 0.0000 -10711.9278 1481.2174 0.0000 0.0000 1757.4211 -7464.8768 300.0932 -9222.2979 -7464.8768 300.0932 472.9875 556.7308 30100.2440 472.9875 556.7308
ENERGY: 300000 0.6301 2.4026 1.7359 0.0000 -10667.5177 1464.7595 0.0000 0.0000 1817.0993 -7380.8904 310.2837 -9197.9897 -7427.7483 305.8654 724.6460 867.7313 29639.9038 605.2102 689.1018
ENERGY: 600000 0.2444 3.1570 2.4238 0.0000 -10743.8946 1463.5530 0.0000 0.0000 1719.7709 -7554.7455 293.6641 -9274.5164 -7469.3312 302.0067 3.4294 104.9115 30415.6326 309.4466 388.5805
ENERGY: 900000 1.1264 3.7719 1.9479 0.0000 -10675.9616 1510.2008 0.0000 0.0000 1789.0298 -7369.8847 305.4906 -9158.9145 -7468.5080 302.2484 431.8075 540.9529 30666.0733 284.7670 361.6942
ENERGY: 1200000 1.2937 5.2241 2.1326 0.0000 -10828.4903 1465.1961 0.0000 0.0000 1762.5184 -7592.1255 300.9636 -9354.6438 -7486.6908 302.1253 -21.6693 13.2235 29856.5463 145.2710 215.1863
ENERGY: 1500000 0.4561 3.7746 1.6407 0.0000 -10574.6489 1437.0852 0.0000 0.0000 1773.1039 -7358.5883 302.7711 -9131.6923 -7478.3729 301.3647 390.9239 413.6812 30296.2083 114.1689 181.1849
TCL: Running FEP window   8: Lambda1 0.35   Lambda2 0.39999999999999997 [dLambda 0.04999999999999999]
TCL: Setting parameter firsttimestep to 0
TCL: Setting parameter alchLambda to 0.35
Info: NONBONDED TABLE R-SQUARED SPACING: 0.0625
Info: NONBONDED TABLE SIZE: 705 POINTS
TCL: Setting parameter alchLambda2 to 0.39999999999999997
Info: NONBONDED TABLE R-SQUARED SPACING: 0.0625
Info: NONBONDED TABLE SIZE: 705 POINTS
TCL: Running for 1500000 steps
ETITLE: TS BOND ANGLE DIHED IMPRP ELECT VDW BOUNDARY MISC KINETIC TOTAL TEMP POTENTIAL TOTALAVG TEMPAVG PRESSURE GPRESSURE VOLUME PRESSAVG GPRESSAVG
ENERGY: 0 0.4561 3.7746 1.6407 0.0000 -10574.6501 1437.9525 0.0000 0.0000 1772.2383 -7358.5879 302.6233 -9130.8262 -7358.5879 302.6233 346.1946 422.2061 30296.2083 346.1946 422.2061
ENERGY: 300000 1.0435 4.1356 1.5741 0.0000 -10508.0395 1316.1521 0.0000 0.0000 1787.4258 -7397.7084 305.2167 -9185.1342 -7421.3491 301.8149 -830.9959 -732.2836 30330.2576 -248.7273 -177.0304
ENERGY: 600000 1.0589 3.4585 2.0598 0.0000 -10762.0606 1474.4736 0.0000 0.0000 1718.4233 -7562.5865 293.4340 -9281.0099 -7472.2782 300.2810 132.5857 217.0369 30274.9885 -207.3389 -137.3100
ENERGY: 900000 1.5432 4.0220 1.5908 0.0000 -10631.7597 1414.0477 0.0000 0.0000 1817.2066 -7393.3493 310.3020 -9210.5560 -7464.3533 300.1355 -212.7119 -168.7498 30411.5855 -73.3194 -8.5960
ENERGY: 1200000 0.1599 2.1432 1.6203 0.0000 -10636.1882 1359.7989 0.0000 0.0000 1849.7846 -7422.6814 315.8649 -9272.4660 -7451.6286 301.9653 -665.7045 -592.1123 30232.8883 -94.7726 -24.0550
ENERGY: 1500000 0.9957 2.1325 2.5672 0.0000 -10609.7804 1397.5551 0.0000 0.0000 1716.0984 -7490.4316 293.0370 -9206.5300 -7456.7510 301.5290 -328.3513 -254.3755 30510.5203 -62.3308 7.4486
TCL: Running FEP window   9: Lambda1 0.39999999999999997 Lambda2 0.44999999999999996 [dLambda 0.04999999999999999]
TCL: Setting parameter firsttimestep to 0
TCL: Setting parameter alchLambda to 0.39999999999999997
Info: NONBONDED TABLE R-SQUARED SPACING: 0.0625
Info: NONBONDED TABLE SIZE: 705 POINTS
TCL: Setting parameter alchLambda2 to 0.44999999999999996
Info: NONBONDED TABLE R-SQUARED SPACING: 0.0625
Info: NONBONDED TABLE SIZE: 705 POINTS
TCL: Running for 1500000 steps
ETITLE: TS BOND ANGLE DIHED IMPRP ELECT VDW BOUNDARY MISC KINETIC TOTAL TEMP POTENTIAL TOTALAVG TEMPAVG PRESSURE GPRESSURE VOLUME PRESSAVG GPRESSAVG
ENERGY: 0 0.9957 2.1325 2.5672 0.0000 -10609.7804 1397.4798 0.0000 0.0000 1715.2274 -7491.3778 292.8883 -9206.6052 -7491.3778 292.8883 -312.5133 -254.6177 30510.5203 -312.5133 -254.6177
ENERGY: 300000 1.6843 2.9776 2.0220 0.0000 -10660.7020 1466.7816 0.0000 0.0000 1734.6359 -7452.6006 296.2024 -9187.2365 -7488.0189 296.0077 308.9728 420.1117 30168.6192 -44.3149 23.4857
ENERGY: 600000 1.8389 4.0020 1.6196 0.0000 -10647.8733 1394.3397 0.0000 0.0000 1742.6905 -7503.3826 297.5778 -9246.0731 -7499.5370 295.9534 -544.1751 -495.0509 30472.1746 -167.4555 -112.4223
ENERGY: 900000 0.1518 5.0393 1.6112 0.0000 -10856.9673 1531.0340 0.0000 0.0000 1704.0576 -7615.0734 290.9809 -9319.1309 -7500.3635 297.4275 211.2996 246.1247 30695.6051 -78.1091 -34.4994
ENERGY: 1200000 0.2105 3.8750 2.1467 0.0000 -10685.6723 1466.2158 0.0000 0.0000 1724.7207 -7488.5036 294.5093 -9213.2243 -7497.5241 297.9706 631.8926 645.3353 29740.5922 8.1660 51.5012
ENERGY: 1500000 0.5177 4.4299 2.1169 0.0000 -10752.5842 1490.6422 0.0000 0.0000 1760.3146 -7494.5629 300.5872 -9254.8775 -7492.6016 298.5885 394.8444 433.5743 30328.7467 69.5358 115.3617
TCL: Running FEP window  10: Lambda1 0.44999999999999996 Lambda2 0.49999999999999994 [dLambda 0.04999999999999999]
TCL: Setting parameter firsttimestep to 0
TCL: Setting parameter alchLambda to 0.44999999999999996
Info: NONBONDED TABLE R-SQUARED SPACING: 0.0625
Info: NONBONDED TABLE SIZE: 705 POINTS
TCL: Setting parameter alchLambda2 to 0.49999999999999994
Info: NONBONDED TABLE R-SQUARED SPACING: 0.0625
Info: NONBONDED TABLE SIZE: 705 POINTS
TCL: Running for 1500000 steps
ETITLE: TS BOND ANGLE DIHED IMPRP ELECT VDW BOUNDARY MISC KINETIC TOTAL TEMP POTENTIAL TOTALAVG TEMPAVG PRESSURE GPRESSURE VOLUME PRESSAVG GPRESSAVG
ENERGY: 0 0.5177 4.4299 2.1169 0.0000 -10752.5849 1490.3606 0.0000 0.0000 1759.4323 -7495.7276 300.4366 -9255.1599 -7495.7276 300.4366 344.8416 435.5882 30328.7467 344.8416 435.5882
ENERGY: 300000 0.4202 5.0924 2.3313 0.0000 -10674.4477 1423.3187 0.0000 0.0000 1762.9743 -7480.3108 301.0414 -9243.2851 -7469.2209 300.1155 -257.3447 -176.9065 30429.1807 -103.9956 -45.6991
ENERGY: 600000 0.3751 3.9538 1.6424 0.0000 -10481.2847 1322.9285 0.0000 0.0000 1804.0015 -7348.3833 308.0471 -9152.3848 -7456.2373 300.3350 -538.8273 -544.4727 30326.2296 -230.6223 -178.0278
ENERGY: 900000 0.8513 3.2730 2.0910 0.0000 -10633.8530 1400.3113 0.0000 0.0000 1781.8772 -7445.4493 304.2692 -9227.3265 -7439.7351 301.1054 -440.0183 -375.4854 30645.8237 -217.7829 -166.6342
ENERGY: 1200000 2.6374 5.2414 1.9134 0.0000 -10775.1597 1505.5604 0.0000 0.0000 1737.2564 -7522.5507 296.6499 -9259.8071 -7440.6984 301.8447 534.6219 613.1713 29955.4008 -82.6829 -23.9964
ENERGY: 1500000 0.1890 4.0247 1.6323 0.0000 -10650.1665 1399.6590 0.0000 0.0000 1736.8746 -7507.7868 296.5847 -9244.6615 -7453.4007 301.3029 -287.7107 -289.8943 30366.2724 -119.8727 -57.1531
TCL: Running FEP window  11: Lambda1 0.49999999999999994 Lambda2 0.5499999999999999 [dLambda 0.04999999999999999]
TCL: Setting parameter firsttimestep to 0
TCL: Setting parameter alchLambda to 0.49999999999999994
Info: NONBONDED TABLE R-SQUARED SPACING: 0.0625
Info: NONBONDED TABLE SIZE: 705 POINTS
TCL: Setting parameter alchLambda2 to 0.5499999999999999
Info: NONBONDED TABLE R-SQUARED SPACING: 0.0625
Info: NONBONDED TABLE SIZE: 705 POINTS
TCL: Running for 1500000 steps
ETITLE: TS BOND ANGLE DIHED IMPRP ELECT VDW BOUNDARY MISC KINETIC TOTAL TEMP POTENTIAL TOTALAVG TEMPAVG PRESSURE GPRESSURE VOLUME PRESSAVG GPRESSAVG
ENERGY: 0 0.1890 4.0247 1.6323 0.0000 -10650.1664 1400.0216 0.0000 0.0000 1735.9768 -7508.3220 296.4314 -9244.2988 -7508.3220 296.4314 -361.1203 -283.9190 30366.2724 -361.1203 -283.9190
ENERGY: 300000 1.0749 3.3988 3.0349 0.0000 -10646.5145 1460.7503 0.0000 0.0000 1721.7671 -7456.4884 294.0050 -9178.2555 -7498.3675 297.1656 503.4418 615.3722 29867.6681 -5.4305 39.6597
ENERGY: 600000 0.7733 5.0499 2.3399 0.0000 -10598.8823 1397.2715 0.0000 0.0000 1777.0245 -7416.4232 303.4406 -9193.4477 -7486.3336 299.7974 -574.9017 -534.9406 30811.9507 -117.1267 -78.6794
ENERGY: 900000 0.4625 3.3823 1.7321 0.0000 -10569.1520 1328.8303 0.0000 0.0000 1790.4907 -7444.2542 305.7400 -9234.7449 -7478.0187 301.2318 -835.7412 -825.8309 30444.2269 -130.7683 -96.1067
ENERGY: 1200000 0.3773 3.4037 2.5418 0.0000 -10547.9983 1333.4796 0.0000 0.0000 1798.9035 -7409.2924 307.1766 -9208.1959 -7474.9975 300.7471 -654.1567 -581.8056 30569.7764 -278.0551 -240.7322
ENERGY: 1500000 0.6353 2.6713 1.6460 0.0000 -10811.9544 1568.1633 0.0000 0.0000 1708.0502 -7530.7882 291.6627 -9238.8385 -7476.9269 300.9900 1086.9670 1158.2095 29794.1087 -57.2845 -14.5383
TCL: Running FEP window  12: Lambda1 0.5499999999999999 Lambda2 0.6    [dLambda 0.050000000000000044]
TCL: Setting parameter firsttimestep to 0
TCL: Setting parameter alchLambda to 0.5499999999999999
Info: NONBONDED TABLE R-SQUARED SPACING: 0.0625
Info: NONBONDED TABLE SIZE: 705 POINTS
TCL: Setting parameter alchLambda2 to 0.6
Info: NONBONDED TABLE R-SQUARED SPACING: 0.0625
Info: NONBONDED TABLE SIZE: 705 POINTS
TCL: Running for 1500000 steps
ETITLE: TS BOND ANGLE DIHED IMPRP ELECT VDW BOUNDARY MISC KINETIC TOTAL TEMP POTENTIAL TOTALAVG TEMPAVG PRESSURE GPRESSURE VOLUME PRESSAVG GPRESSAVG
ENERGY: 0 0.6353 2.6713 1.6460 0.0000 -10811.8994 1569.6698 0.0000 0.0000 1707.1697 -7530.1073 291.5123 -9237.2770 -7530.1073 291.5123 1097.4656 1181.5309 29794.1087 1097.4656 1181.5309
ENERGY: 300000 0.3605 4.7623 2.0892 0.0000 -10735.2531 1473.0429 0.0000 0.0000 1745.3183 -7509.6799 298.0265 -9254.9983 -7493.1542 294.6898 264.0298 405.3686 30118.0283 166.9675 269.5733
ENERGY: 600000 1.1197 3.1386 1.7926 0.0000 -10660.3072 1464.0116 0.0000 0.0000 1696.1095 -7494.1353 289.6237 -9190.2448 -7495.9734 294.4525 182.1174 315.2629 30326.5738 181.6008 294.3528
ENERGY: 900000 0.9062 4.1144 2.2739 0.0000 -10578.3294 1372.5289 0.0000 0.0000 1749.2254 -7449.2806 298.6937 -9198.5061 -7483.0332 296.0646 -514.2406 -523.0138 30570.5418 89.2306 179.8681
ENERGY: 1200000 0.9469 7.4871 1.6667 0.0000 -10735.5988 1465.8637 0.0000 0.0000 1751.7326 -7507.9018 299.1218 -9259.6344 -7488.7789 296.6808 206.7419 236.0046 30138.2722 85.6587 165.8344
ENERGY: 1500000 0.4195 5.4104 1.6976 0.0000 -10883.6388 1572.5756 0.0000 0.0000 1789.6678 -7513.8679 305.5995 -9303.5357 -7497.6921 297.2179 666.2338 779.2160 30441.8846 143.1581 217.2685
TCL: Running FEP window  13: Lambda1 0.6    Lambda2 0.65   [dLambda 0.050000000000000044]
TCL: Setting parameter firsttimestep to 0
TCL: Setting parameter alchLambda to 0.6
Info: NONBONDED TABLE R-SQUARED SPACING: 0.0625
Info: NONBONDED TABLE SIZE: 705 POINTS
TCL: Setting parameter alchLambda2 to 0.65
Info: NONBONDED TABLE R-SQUARED SPACING: 0.0625
Info: NONBONDED TABLE SIZE: 705 POINTS
TCL: Running for 1500000 steps
ETITLE: TS BOND ANGLE DIHED IMPRP ELECT VDW BOUNDARY MISC KINETIC TOTAL TEMP POTENTIAL TOTALAVG TEMPAVG PRESSURE GPRESSURE VOLUME PRESSAVG GPRESSAVG
ENERGY: 0 0.4195 5.4104 1.6976 0.0000 -10883.4434 1572.4188 0.0000 0.0000 1788.7939 -7514.7033 305.4503 -9303.4972 -7514.7033 305.4503 690.2686 780.5295 30441.8846 690.2686 780.5295
ENERGY: 300000 1.0934 4.7675 2.3711 0.0000 -10731.0112 1452.2340 0.0000 0.0000 1696.4967 -7574.0483 289.6898 -9270.5450 -7488.2999 300.1486 73.6888 83.4392 30143.1137 -9.6450 47.4368
ENERGY: 600000 0.9644 6.2408 1.8364 0.0000 -10733.5240 1425.5839 0.0000 0.0000 1788.4024 -7510.4962 305.3834 -9298.8986 -7475.0402 300.8298 49.9992 -0.9780 30058.8474 -27.2459 6.0574
ENERGY: 900000 0.6598 3.6283 1.6644 0.0000 -10606.0731 1350.3745 0.0000 0.0000 1759.5874 -7490.1587 300.4631 -9249.7461 -7491.8572 300.0486 -616.1578 -602.2173 30341.6788 -43.9657 -11.4436
ENERGY: 1200000 1.9698 4.9710 1.8356 0.0000 -10771.3207 1493.6371 0.0000 0.0000 1732.4714 -7536.4357 295.8328 -9268.9071 -7489.9167 299.5965 527.4993 557.5482 29838.8367 -2.9220 25.1713
ENERGY: 1500000 2.4150 4.1203 1.8115 0.0000 -10693.9514 1449.3031 0.0000 0.0000 1743.4250 -7492.8765 297.7032 -9236.3015 -7486.2749 299.5350 -211.3514 -108.2346 30396.3826 -43.0811 -7.4893
TCL: Running FEP window  14: Lambda1 0.65   Lambda2 0.7000000000000001 [dLambda 0.050000000000000044]
TCL: Setting parameter firsttimestep to 0
TCL: Setting parameter alchLambda to 0.65
Info: NONBONDED TABLE R-SQUARED SPACING: 0.0625
Info: NONBONDED TABLE SIZE: 705 POINTS
TCL: Setting parameter alchLambda2 to 0.7000000000000001
Info: NONBONDED TABLE R-SQUARED SPACING: 0.0625
Info: NONBONDED TABLE SIZE: 705 POINTS
TCL: Running for 1500000 steps
ETITLE: TS BOND ANGLE DIHED IMPRP ELECT VDW BOUNDARY MISC KINETIC TOTAL TEMP POTENTIAL TOTALAVG TEMPAVG PRESSURE GPRESSURE VOLUME PRESSAVG GPRESSAVG
ENERGY: 0 2.4150 4.1203 1.8115 0.0000 -10694.1482 1450.2538 0.0000 0.0000 1742.5554 -7492.9921 297.5547 -9235.5475 -7492.9921 297.5547 -175.7580 -88.6013 30396.3826 -175.7580 -88.6013
ENERGY: 300000 2.4972 5.5371 1.6565 0.0000 -10655.8893 1388.2575 0.0000 0.0000 1709.3879 -7548.5530 291.8911 -9257.9410 -7510.6729 299.6567 -374.1547 -337.4166 30339.5583 -76.5386 -35.6766
ENERGY: 600000 0.6431 6.1289 1.9485 0.0000 -10647.4526 1411.8132 0.0000 0.0000 1724.0200 -7502.8988 294.3897 -9226.9188 -7502.6587 299.2272 -307.4637 -168.3436 30395.7135 -152.4250 -97.9710
ENERGY: 900000 1.1687 2.0977 1.8445 0.0000 -10700.2046 1457.2557 0.0000 0.0000 1744.8714 -7492.9665 297.9502 -9237.8379 -7498.9696 298.3292 365.9414 500.6055 29863.1942 -72.0633 -19.0718
ENERGY: 1200000 1.1977 2.6655 1.6767 0.0000 -10729.4976 1453.4879 0.0000 0.0000 1733.1576 -7537.3122 295.9500 -9270.4698 -7504.0696 298.8744 18.2780 77.2579 30413.1414 -114.6223 -63.1466
ENERGY: 1500000 0.6947 2.5877 2.3100 0.0000 -10683.1469 1465.5698 0.0000 0.0000 1771.0429 -7440.9418 302.4192 -9211.9847 -7506.3836 298.0884 167.9165 258.6672 30334.5094 -66.8530 -11.6601
TCL: Running FEP window  15: Lambda1 0.7000000000000001 Lambda2 0.7500000000000001 [dLambda 0.050000000000000044]
TCL: Setting parameter firsttimestep to 0
TCL: Setting parameter alchLambda to 0.7000000000000001
Info: NONBONDED TABLE R-SQUARED SPACING: 0.0625
Info: NONBONDED TABLE SIZE: 705 POINTS
TCL: Setting parameter alchLambda2 to 0.7500000000000001
Info: NONBONDED TABLE R-SQUARED SPACING: 0.0625
Info: NONBONDED TABLE SIZE: 705 POINTS
TCL: Running for 1500000 steps
ETITLE: TS BOND ANGLE DIHED IMPRP ELECT VDW BOUNDARY MISC KINETIC TOTAL TEMP POTENTIAL TOTALAVG TEMPAVG PRESSURE GPRESSURE VOLUME PRESSAVG GPRESSAVG
ENERGY: 0 0.6947 2.5877 2.3100 0.0000 -10683.1980 1465.8022 0.0000 0.0000 1770.1818 -7441.6216 302.2721 -9211.8034 -7441.6216 302.2721 199.1251 270.1752 30334.5094 199.1251 270.1752
ENERGY: 300000 0.3398 5.3544 2.4102 0.0000 -10729.6169 1423.5703 0.0000 0.0000 1771.4769 -7526.4652 302.4933 -9297.9421 -7453.9757 301.4708 -34.1365 -3.8521 30019.9587 121.0737 157.4028
ENERGY: 600000 0.3585 2.1524 1.6802 0.0000 -10564.0045 1428.7925 0.0000 0.0000 1764.9000 -7366.1210 301.3702 -9131.0209 -7434.9974 303.1795 157.8745 249.7666 30523.6135 117.0724 162.3774
ENERGY: 900000 1.4855 4.3158 1.5975 0.0000 -10780.9917 1463.5197 0.0000 0.0000 1795.8558 -7514.2173 306.6562 -9310.0731 -7454.1454 302.8573 151.0617 140.6512 30107.7387 80.5783 120.8186
ENERGY: 1200000 1.9036 4.4543 3.6762 0.0000 -10744.6442 1474.3864 0.0000 0.0000 1745.5227 -7514.7010 298.0614 -9260.2237 -7453.8587 302.8644 -37.4113 41.1968 30768.8230 32.8744 71.6533
ENERGY: 1500000 3.0786 4.8080 2.0120 0.0000 -10556.8845 1388.6138 0.0000 0.0000 1712.3306 -7446.0414 292.3936 -9158.3721 -7462.2869 301.5997 -211.5638 -143.7829 30329.5129 14.2944 59.7827
TCL: Running FEP window  16: Lambda1 0.7500000000000001 Lambda2 0.8000000000000002 [dLambda 0.050000000000000044]
TCL: Setting parameter firsttimestep to 0
TCL: Setting parameter alchLambda to 0.7500000000000001
Info: NONBONDED TABLE R-SQUARED SPACING: 0.0625
Info: NONBONDED TABLE SIZE: 705 POINTS
TCL: Setting parameter alchLambda2 to 0.8000000000000002
Info: NONBONDED TABLE R-SQUARED SPACING: 0.0625
Info: NONBONDED TABLE SIZE: 705 POINTS
TCL: Running for 1500000 steps
ETITLE: TS BOND ANGLE DIHED IMPRP ELECT VDW BOUNDARY MISC KINETIC TOTAL TEMP POTENTIAL TOTALAVG TEMPAVG PRESSURE GPRESSURE VOLUME PRESSAVG GPRESSAVG
ENERGY: 0 3.0786 4.8080 2.0120 0.0000 -10556.8024 1388.5552 0.0000 0.0000 1711.4286 -7446.9200 292.2396 -9158.3486 -7446.9200 292.2396 -211.8745 -138.7711 30329.5129 -211.8745 -138.7711
ENERGY: 300000 1.1921 2.5154 1.8645 0.0000 -10806.3569 1511.4231 0.0000 0.0000 1773.3093 -7516.0525 302.8062 -9289.3618 -7491.4811 294.9750 430.9884 517.7332 30237.8769 118.7563 225.3090
ENERGY: 600000 0.6966 4.3818 1.9295 0.0000 -10728.0069 1446.8335 0.0000 0.0000 1781.5165 -7492.6490 304.2076 -9274.1655 -7477.7507 297.7128 0.3487 26.5174 30394.6768 -19.9389 57.6076
ENERGY: 900000 0.0551 2.7452 2.0058 0.0000 -10587.1876 1342.7788 0.0000 0.0000 1719.7185 -7519.8841 293.6551 -9239.6026 -7482.1901 297.7567 -700.8956 -559.6228 30321.8539 -178.1256 -96.0581
ENERGY: 1200000 0.6312 3.5626 2.3295 0.0000 -10507.4474 1278.9540 0.0000 0.0000 1779.9731 -7441.9971 303.9441 -9221.9701 -7477.7810 298.3434 -1285.0042 -1119.2714 30460.8548 -259.4382 -176.6828
ENERGY: 1500000 0.5872 4.1388 1.8839 0.0000 -10727.1713 1462.1675 0.0000 0.0000 1743.4034 -7514.9904 297.6995 -9258.3938 -7488.4199 297.6988 169.8589 265.8853 30128.9783 -226.7664 -151.0376
TCL: Running FEP window  17: Lambda1 0.8000000000000002 Lambda2 0.8500000000000002 [dLambda 0.050000000000000044]
TCL: Setting parameter firsttimestep to 0
TCL: Setting parameter alchLambda to 0.8000000000000002
Info: NONBONDED TABLE R-SQUARED SPACING: 0.0625
Info: NONBONDED TABLE SIZE: 705 POINTS
TCL: Setting parameter alchLambda2 to 0.8500000000000002
Info: NONBONDED TABLE R-SQUARED SPACING: 0.0625
Info: NONBONDED TABLE SIZE: 705 POINTS
TCL: Running for 1500000 steps
ETITLE: TS BOND ANGLE DIHED IMPRP ELECT VDW BOUNDARY MISC KINETIC TOTAL TEMP POTENTIAL TOTALAVG TEMPAVG PRESSURE GPRESSURE VOLUME PRESSAVG GPRESSAVG
ENERGY: 0 0.5872 4.1388 1.8839 0.0000 -10727.3917 1462.1855 0.0000 0.0000 1742.4752 -7516.1211 297.5410 -9258.5963 -7516.1211 297.5410 175.7489 270.8317 30128.9783 175.7489 270.8317
ENERGY: 300000 0.5103 6.2571 2.4883 0.0000 -10596.3060 1372.3286 0.0000 0.0000 1775.3491 -7439.3726 303.1545 -9214.7217 -7490.4579 298.5715 -438.7269 -398.2025 30398.3660 406.6466 483.8768
ENERGY: 600000 0.9535 3.2596 1.5294 0.0000 -10673.0528 1402.9189 0.0000 0.0000 1779.8513 -7484.5401 303.9233 -9264.3914 -7488.8399 299.8992 -33.3014 55.5290 29906.7498 49.1730 123.5315
ENERGY: 900000 0.1385 6.2732 1.5283 0.0000 -10669.9430 1410.1969 0.0000 0.0000 1755.2421 -7496.5642 299.7211 -9251.8062 -7481.8385 299.3673 -381.6671 -277.6315 30281.2682 -50.3456 21.9624
ENERGY: 1200000 0.7211 6.2480 1.7774 0.0000 -10758.7563 1463.7792 0.0000 0.0000 1723.9037 -7562.3268 294.3698 -9286.2305 -7491.5130 298.9257 239.0986 296.2522 29970.6961 49.9384 121.8933
ENERGY: 1500000 0.2465 4.4540 1.5501 0.0000 -10710.5517 1422.8075 0.0000 0.0000 1707.2850 -7574.2085 291.5320 -9281.4936 -7497.3368 298.6185 -211.5032 -100.2390 30010.0139 -32.5422 39.6717
TCL: Running FEP window  18: Lambda1 0.8500000000000002 Lambda2 0.9000000000000002 [dLambda 0.050000000000000044]
TCL: Setting parameter firsttimestep to 0
TCL: Setting parameter alchLambda to 0.8500000000000002
Info: NONBONDED TABLE R-SQUARED SPACING: 0.0625
Info: NONBONDED TABLE SIZE: 705 POINTS
TCL: Setting parameter alchLambda2 to 0.9000000000000002
Info: NONBONDED TABLE R-SQUARED SPACING: 0.0625
Info: NONBONDED TABLE SIZE: 705 POINTS
TCL: Running for 1500000 steps
ETITLE: TS BOND ANGLE DIHED IMPRP ELECT VDW BOUNDARY MISC KINETIC TOTAL TEMP POTENTIAL TOTALAVG TEMPAVG PRESSURE GPRESSURE VOLUME PRESSAVG GPRESSAVG
ENERGY: 0 0.2465 4.4540 1.5501 0.0000 -10710.8185 1422.5152 0.0000 0.0000 1706.3944 -7575.6583 291.3800 -9282.0527 -7575.6583 291.3800 -184.9663 -94.7269 30010.0139 -184.9663 -94.7269
ENERGY: 300000 2.1365 3.9716 2.4094 0.0000 -10678.4323 1458.5821 0.0000 0.0000 1757.2677 -7454.0650 300.0670 -9211.3327 -7490.7557 299.1423 -70.5908 -18.8548 30812.8886 -21.7687 53.6882
ENERGY: 600000 0.9543 3.8641 1.9493 0.0000 -10681.3348 1399.0624 0.0000 0.0000 1817.9582 -7457.5464 310.4303 -9275.5046 -7466.1959 300.5388 -475.1965 -395.3465 30585.4996 -91.2828 -32.9697
ENERGY: 900000 0.1967 3.9089 1.5761 0.0000 -10648.0695 1400.4563 0.0000 0.0000 1820.2351 -7421.6964 310.8191 -9241.9315 -7458.7988 301.8351 -534.9218 -489.7477 31187.2616 -210.1985 -153.2039
ENERGY: 1200000 0.4015 5.7938 2.2992 0.0000 -10614.6189 1364.5160 0.0000 0.0000 1733.8288 -7507.7796 296.0646 -9241.6085 -7471.2597 301.0476 -612.0467 -552.9245 30182.2313 -143.1137 -90.0346
ENERGY: 1500000 0.6486 2.9237 1.7688 0.0000 -10560.2553 1373.1934 0.0000 0.0000 1770.6035 -7411.1172 302.3441 -9181.7207 -7475.2484 300.2287 -341.0278 -274.2406 30468.3539 -117.6599 -64.9508
TCL: Running FEP window  19: Lambda1 0.9000000000000002 Lambda2 0.9500000000000003 [dLambda 0.050000000000000044]
TCL: Setting parameter firsttimestep to 0
TCL: Setting parameter alchLambda to 0.9000000000000002
Info: NONBONDED TABLE R-SQUARED SPACING: 0.0625
Info: NONBONDED TABLE SIZE: 705 POINTS
TCL: Setting parameter alchLambda2 to 0.9500000000000003
Info: NONBONDED TABLE R-SQUARED SPACING: 0.0625
Info: NONBONDED TABLE SIZE: 705 POINTS
TCL: Running for 1500000 steps
ETITLE: TS BOND ANGLE DIHED IMPRP ELECT VDW BOUNDARY MISC KINETIC TOTAL TEMP POTENTIAL TOTALAVG TEMPAVG PRESSURE GPRESSURE VOLUME PRESSAVG GPRESSAVG
ENERGY: 0 0.6486 2.9237 1.7688 0.0000 -10560.4937 1373.8973 0.0000 0.0000 1769.7361 -7411.5191 302.1960 -9181.2552 -7411.5191 302.1960 -337.4848 -254.0787 30468.3539 -337.4848 -254.0787
ENERGY: 300000 0.5836 3.1200 2.0297 0.0000 -10759.1681 1437.8206 0.0000 0.0000 1786.0908 -7529.5234 304.9887 -9315.6141 -7456.3417 302.0342 -22.9658 48.7895 29883.1343 -165.0829 -123.2150
ENERGY: 600000 0.4293 6.7085 2.0344 0.0000 -10825.2051 1569.6790 0.0000 0.0000 1762.8376 -7483.5163 301.0181 -9246.3539 -7462.9505 300.4897 1157.6239 1286.5433 29913.4692 85.3391 136.1625
ENERGY: 900000 2.8863 3.3927 1.6052 0.0000 -10595.5194 1338.3234 0.0000 0.0000 1792.9554 -7456.3564 306.1609 -9249.3118 -7456.3765 301.1145 -874.7617 -823.3224 30797.1850 -117.0396 -63.2172
ENERGY: 1200000 0.1914 2.6512 2.0857 0.0000 -10626.1577 1407.4726 0.0000 0.0000 1800.0249 -7413.7320 307.3681 -9213.7569 -7451.4658 301.8728 -217.6537 -165.7607 30639.7363 -125.0083 -71.8681
ENERGY: 1500000 1.1352 4.9747 2.6675 0.0000 -10693.9663 1432.6122 0.0000 0.0000 1777.4155 -7475.1612 303.5073 -9252.5767 -7453.1705 301.7985 -22.2061 67.2040 30397.5237 -153.8105 -98.3206
TCL: Running FEP window  20: Lambda1 0.9500000000000003 Lambda2 1.0    [dLambda 0.04999999999999971]
TCL: Setting parameter firsttimestep to 0
TCL: Setting parameter alchLambda to 0.9500000000000003
Info: NONBONDED TABLE R-SQUARED SPACING: 0.0625
Info: NONBONDED TABLE SIZE: 705 POINTS
TCL: Setting parameter alchLambda2 to 1.0
Info: NONBONDED TABLE R-SQUARED SPACING: 0.0625
Info: NONBONDED TABLE SIZE: 705 POINTS
TCL: Running for 1500000 steps
ETITLE: TS BOND ANGLE DIHED IMPRP ELECT VDW BOUNDARY MISC KINETIC TOTAL TEMP POTENTIAL TOTALAVG TEMPAVG PRESSURE GPRESSURE VOLUME PRESSAVG GPRESSAVG
ENERGY: 0 1.1352 4.9747 2.6675 0.0000 -10694.3794 1432.6504 0.0000 0.0000 1776.5357 -7476.4158 303.3571 -9252.9515 -7476.4158 303.3571 -3.2446 75.2107 30397.5237 -3.2446 75.2107
ENERGY: 300000 1.4851 9.2660 1.6929 0.0000 -10764.9633 1530.1704 0.0000 0.0000 1770.7031 -7451.6458 302.3612 -9222.3489 -7495.0813 300.6809 891.7880 932.8180 30085.4693 244.9633 308.2589
ENERGY: 600000 0.9492 4.5335 1.7107 0.0000 -10520.9597 1360.0699 0.0000 0.0000 1749.4617 -7404.2347 298.7340 -9153.6963 -7478.2903 299.1806 -232.1189 -288.7030 30639.5063 208.9450 260.4626
ENERGY: 900000 1.1275 10.2267 1.6846 0.0000 -10521.0361 1354.4946 0.0000 0.0000 1807.5883 -7345.9144 308.6596 -9153.5027 -7483.9513 300.1363 -581.3770 -521.9736 30782.9765 59.7288 113.0802
ENERGY: 1200000 0.4277 6.1859 1.8380 0.0000 -10626.6001 1408.6832 0.0000 0.0000 1766.4962 -7442.9691 301.6428 -9209.4653 -7475.1945 301.0606 182.8967 181.3664 29914.5866 -6.3060 39.0374
ENERGY: 1500000 0.5407 3.0532 1.5601 0.0000 -10777.9718 1530.8858 0.0000 0.0000 1780.8995 -7461.0324 304.1023 -9241.9319 -7478.4086 301.2316 760.6737 895.7999 30273.6927 72.2289 123.8878
TCL: Exiting due to exit command.
