Info: SIMULATION PARAMETERS:
Info: TIMESTEP               2
Info: NUMBER OF STEPS        0
Info: STEPS PER CYCLE        10
Info: PERIODIC CELL BASIS 1  31.5767 0 0
Info: PERIODIC CELL BASIS 2  0 30.9295 0
Info: PERIODIC CELL BASIS 3  0 0 31.2601
Info: PERIODIC CELL CENTER   0 0 0
Info: WRAPPING WATERS AROUND PERIODIC BOUNDARIES ON OUTPUT.
Info: WRAPPING ALL CLUSTERS AROUND PERIODIC BOUNDARIES ON OUTPUT.
Info: FIRST LDB TIMESTEP     50
Info: LAST LDB TIMESTEP     -1
Info: HOM BACKGROUND SCALING 1
Info: PME BACKGROUND SCALING 1
Info: MIN ATOMS PER PATCH    40
Info: EMPTY PATCH LOAD       40 ATOMS
Info: VELOCITY FILE          mobley_9979854_equil.vel
Info: CENTER OF MASS MOVING INITIALLY? NO
Info: DIELECTRIC             1
Info: EXCLUDE                SCALED ONE-FOUR
Info: 1-4 ELECTROSTATICS SCALED BY 0.833333
Info: MODIFIED 1-4 VDW PARAMETERS WILL BE USED
Info: DCD FILENAME           mobley_9979854_prod.dcd
Info: DCD FREQUENCY          100000
Info: DCD FIRST STEP         100000
Info: DCD FILE WILL CONTAIN UNIT CELL DATA
Info: XST FILENAME           mobley_9979854_prod.xst
Info: XST FREQUENCY          100000
Info: NO VELOCITY DCD OUTPUT
Info: NO FORCE DCD OUTPUT
Info: OUTPUT FILENAME        mobley_9979854_prod
Info: BINARY OUTPUT FILES WILL BE USED
Info: RESTART FILENAME       mobley_9979854_prod.restart
Info: RESTART FREQUENCY      100000
Info: BINARY RESTART FILES WILL BE USED
Info: CUTOFF                 9
Info: PAIRLIST DISTANCE      11
Info: PAIRLIST SHRINK RATE   0.01
Info: PAIRLIST GROW RATE     0.01
Info: PAIRLIST TRIGGER       0.3
Info: PAIRLISTS PER CYCLE    2
Info: PAIRLISTS ENABLED
Info: MARGIN                 2
Info: HYDROGEN GROUP CUTOFF  2.5
Info: PATCH DIMENSION        15.5
Info: ENERGY OUTPUT STEPS    100000
Info: ENERGY EVALUATION STEPS    100000
Info: OUTPUT ENERGY PRECISION 4
Info: CROSSTERM ENERGY INCLUDED IN DIHEDRAL
Info: TIMING OUTPUT STEPS    1000000
Info: PRESSURE OUTPUT STEPS  100000
Info: ALCHEMICAL FEP ON
Info: FEP CURRENT LAMBDA VALUE     0
Info: FEP COMPARISON LAMBDA VALUE  0.05
Info: FEP INTRA-ALCHEMICAL NON-BONDED INTERACTIONS WILL BE RETAINED
Info: FEP INTRA-ALCHEMICAL BONDED INTERACTIONS WILL BE RETAINED
Info: FEP VDW SHIFTING COEFFICIENT 5
Info: FEP ELEC. ACTIVE FOR ANNIHILATED PARTICLES BETWEEN LAMBDA = 0 AND LAMBDA = 0.5
Info: FEP ELEC. ACTIVE FOR EXNIHILATED PARTICLES BETWEEN LAMBDA = 0.5 AND LAMBDA = 1
Info: FEP VDW ACTIVE FOR ANNIHILATED PARTICLES BETWEEN LAMBDA = 0 AND LAMBDA = 1
Info: FEP VDW ACTIVE FOR EXNIHILATED PARTICLES BETWEEN LAMBDA = 0 AND LAMBDA = 1
Info: FEP BOND ACTIVE FOR ANNIHILATED PARTICLES BETWEEN LAMBDA = 1 AND LAMBDA = 1
Info: FEP BOND ACTIVE FOR EXNIHILATED PARTICLES BETWEEN LAMBDA = 0 AND LAMBDA = 0
Info: LANGEVIN DYNAMICS ACTIVE
Info: LANGEVIN TEMPERATURE   300
Info: LANGEVIN USING BBK INTEGRATOR
Info: LANGEVIN DAMPING COEFFICIENT IS 1 INVERSE PS
Info: LANGEVIN DYNAMICS APPLIED TO HYDROGENS
Info: LANGEVIN PISTON PRESSURE CONTROL ACTIVE
Info:        TARGET PRESSURE IS 1.01325 BAR
Info:     OSCILLATION PERIOD IS 50 FS
Info:             DECAY TIME IS 25 FS
Info:     PISTON TEMPERATURE IS 300 K
Info:       PRESSURE CONTROL IS GROUP-BASED
Info:    INITIAL STRAIN RATE IS 0.000334578 0.000334578 0.000334578
Info:       CELL FLUCTUATION IS ISOTROPIC
Info: PARTICLE MESH EWALD (PME) ACTIVE
Info: PME TOLERANCE               1e-06
Info: PME EWALD COEFFICIENT       0.348832
Info: PME INTERPOLATION ORDER     4
Info: PME GRID DIMENSIONS         32 32 32
Info: PME MAXIMUM GRID SPACING    1
Info: PME CALCULATION WILL BE PERFORMED ON GPU
Info: FULL ELECTROSTATIC EVALUATION FREQUENCY      2
Info: USING VERLET I (r-RESPA) MTS SCHEME.
Info: C1 SPLITTING OF LONG RANGE ELECTROSTATICS
Info: PLACING ATOMS IN PATCHES BY HYDROGEN GROUPS
Info: RIGID BONDS TO HYDROGEN : ALL
Info:         ERROR TOLERANCE : 1e-08
Info:          MAX ITERATIONS : 100
Info: RIGID WATER USING SETTLE ALGORITHM
Info: RANDOM NUMBER SEED     1743543106
Info: USE HYDROGEN BONDS?    NO
Info: Using AMBER format force field!
Info: AMBER PARM FILE        mobley_9979854.prmtop
Info: COORDINATE PDB         mobley_9979854.pdb
Info: Exclusions will be read from PARM file!
Info: SCNB (VDW SCALING)     2
Info: USING ARITHMETIC MEAN TO COMBINE L-J SIGMA PARAMETERS
Info: BINARY COORDINATES     mobley_9979854_equil.coor
Info: SUMMARY OF PARAMETERS:
Info: 8 BONDS
Info: 9 ANGLES
Info:   9 HARMONIC
Info:   0 COSINE-BASED
Info: 6 DIHEDRAL
Info: 0 IMPROPER
Info: 0 CROSSTERM
Info: 0 VDW
Info: 28 VDW_PAIRS
Info: 0 NBTHOLE_PAIRS
Info: To read alchdata from file: mobley_9979854.pdb
Info: To read alchflag data from column: 5
Info: STRUCTURE SUMMARY:
Info: 2985 ATOMS
Info: 2984 BONDS
Info: 19 ANGLES
Info: 29 DIHEDRALS
Info: 0 IMPROPERS
Info: 0 CROSSTERMS
Info: 3024 EXCLUSIONS
Info: 2978 RIGID BONDS
Info: ALCH: 0 ATOMS TO DISAPPEAR IN FINAL STATE
Info: ALCH: 12 ATOMS TO APPEAR IN FINAL STATE
Info: 5977 DEGREES OF FREEDOM
Info: 998 HYDROGEN GROUPS
Info: 4 ATOMS IN LARGEST HYDROGEN GROUP
Info: 998 MIGRATION GROUPS
Info: 4 ATOMS IN LARGEST MIGRATION GROUP
Info: TOTAL MASS = 17967.9 amu
Info: TOTAL CHARGE = 0.000199988 e
Info: MASS DENSITY = 0.977296 g/cm^3
Info: ATOM DENSITY = 0.0977717 atoms/A^3
Info: ADDED 0 IMPLICIT EXCLUSIONS
Info: NONBONDED TABLE R-SQUARED SPACING: 0.0625
Info: NONBONDED TABLE SIZE: 705 POINTS
Info: REMOVING COM VELOCITY -0.048125 -0.00590233 -0.0188649
Info: Use 3D box decompostion in PME FFT.
Info: Updated CUDA force table with 4096 elements.
Info: Updated CUDA LJ table with 7 x 7 elements.
Info: Found 15 unique exclusion lists needing 28 bytes
TCL: Running for 1500000 steps
ETITLE: TS BOND ANGLE DIHED IMPRP ELECT VDW BOUNDARY MISC KINETIC TOTAL TEMP POTENTIAL TOTALAVG TEMPAVG PRESSURE GPRESSURE VOLUME PRESSAVG GPRESSAVG
ENERGY: 0 1.1703 4.5846 2.4394 0.0000 -10848.8281 1509.5027 0.0000 0.0000 1762.1365 -7568.9945 296.7199 -9331.1310 -7568.9945 296.7199 531.7440 603.1942 30530.3017 531.7440 603.1942
ENERGY: 300000 2.3662 3.3915 1.8379 0.0000 -10829.1135 1512.6500 0.0000 0.0000 1833.3780 -7475.4899 308.7160 -9308.8679 -7552.9123 300.7405 426.6080 459.7507 30473.4064 485.2538 504.8586
ENERGY: 600000 1.7470 5.2400 2.9041 0.0000 -10731.9163 1472.1072 0.0000 0.0000 1864.8960 -7385.0220 314.0232 -9249.9180 -7515.5014 302.4955 388.8279 500.7747 30794.2155 333.8433 382.0061
ENERGY: 900000 2.2730 6.3338 2.5077 0.0000 -10808.2572 1459.6805 0.0000 0.0000 1809.0657 -7528.3964 304.6221 -9337.4621 -7514.2780 303.2567 -10.1648 12.1478 30545.5449 245.6243 294.0724
ENERGY: 1200000 2.4431 3.7335 1.8260 0.0000 -10612.8499 1381.8138 0.0000 0.0000 1781.0145 -7442.0190 299.8987 -9223.0335 -7509.5909 302.7180 -241.6852 -196.7729 30460.3215 192.4770 245.4863
ENERGY: 1500000 0.3154 5.5483 1.8611 0.0000 -10765.9107 1463.1071 0.0000 0.0000 1718.6096 -7576.4692 289.3906 -9295.0788 -7509.7877 301.7949 71.1537 184.7275 30532.2508 92.6540 155.4445
TCL: Running FEP window   2: Lambda1 0.05   Lambda2 0.1    [dLambda 0.05  ]
TCL: Setting parameter firsttimestep to 0
TCL: Setting parameter alchLambda to 0.05
Info: NONBONDED TABLE R-SQUARED SPACING: 0.0625
Info: NONBONDED TABLE SIZE: 705 POINTS
TCL: Setting parameter alchLambda2 to 0.1
Info: NONBONDED TABLE R-SQUARED SPACING: 0.0625
Info: NONBONDED TABLE SIZE: 705 POINTS
TCL: Running for 1500000 steps
ETITLE: TS BOND ANGLE DIHED IMPRP ELECT VDW BOUNDARY MISC KINETIC TOTAL TEMP POTENTIAL TOTALAVG TEMPAVG PRESSURE GPRESSURE VOLUME PRESSAVG GPRESSAVG
ENERGY: 0 0.3154 5.5483 1.8611 0.0000 -10765.9109 1463.8108 0.0000 0.0000 1717.6894 -7576.6859 289.2356 -9294.3753 -7576.6859 289.2356 97.6466 186.4404 30532.2508 97.6466 186.4404
ENERGY: 300000 2.5901 8.2312 1.7777 0.0000 -10794.4058 1470.5868 0.0000 0.0000 1729.0453 -7582.1749 291.1478 -9311.2202 -7561.3119 296.2142 300.0072 366.8487 29900.7096 -28.0212 38.6510
ENERGY: 600000 3.9462 5.5667 3.4147 0.0000 -10793.3266 1443.2375 0.0000 0.0000 1840.7688 -7496.3927 309.9605 -9337.1615 -7555.7037 297.7988 -127.0410 -81.8189 30588.1211 -80.0852 -16.6785
ENERGY: 900000 1.5117 6.9787 3.7950 0.0000 -10802.7532 1457.7827 0.0000 0.0000 1812.3179 -7520.3672 305.1698 -9332.6851 -7541.9289 299.6055 -135.5583 -82.9424 30924.4768 -25.3636 30.2858
ENERGY: 1200000 0.9270 6.3563 2.3527 0.0000 -10778.1008 1420.7091 0.0000 0.0000 1769.2072 -7578.5485 297.9105 -9347.7557 -7549.8603 298.3877 -207.4329 -201.8833 30472.0578 42.0156 93.3543
ENERGY: 1500000 4.1109 5.2890 2.7892 0.0000 -10927.2663 1589.3911 0.0000 0.0000 1768.7818 -7556.9043 297.8389 -9325.6861 -7547.8107 298.8620 970.4433 1000.7065 30427.9029 85.6995 143.1399
TCL: Running FEP window   3: Lambda1 0.1    Lambda2 0.15000000000000002 [dLambda 0.05000000000000002]
TCL: Setting parameter firsttimestep to 0
TCL: Setting parameter alchLambda to 0.1
Info: NONBONDED TABLE R-SQUARED SPACING: 0.0625
Info: NONBONDED TABLE SIZE: 705 POINTS
TCL: Setting parameter alchLambda2 to 0.15000000000000002
Info: NONBONDED TABLE R-SQUARED SPACING: 0.0625
Info: NONBONDED TABLE SIZE: 705 POINTS
TCL: Running for 1500000 steps
ETITLE: TS BOND ANGLE DIHED IMPRP ELECT VDW BOUNDARY MISC KINETIC TOTAL TEMP POTENTIAL TOTALAVG TEMPAVG PRESSURE GPRESSURE VOLUME PRESSAVG GPRESSAVG
ENERGY: 0 4.1109 5.2890 2.7892 0.0000 -10927.2664 1592.3629 0.0000 0.0000 1767.9078 -7554.8066 297.6917 -9322.7144 -7554.8066 297.6917 920.3716 1005.8621 30427.9029 920.3716 1005.8621
ENERGY: 300000 1.3915 4.1402 3.0000 0.0000 -10759.6359 1429.0097 0.0000 0.0000 1781.4464 -7540.6483 299.9714 -9322.0947 -7541.0014 298.1765 25.9781 49.0051 30564.9767 144.9481 211.3360
ENERGY: 600000 2.3511 5.0914 1.9814 0.0000 -10696.5178 1428.1722 0.0000 0.0000 1767.0919 -7491.8299 297.5543 -9258.9218 -7541.4415 298.2511 121.4650 175.7039 30520.3781 44.3306 108.7149
ENERGY: 900000 1.5546 4.3027 2.1975 0.0000 -10765.6523 1464.5186 0.0000 0.0000 1723.5619 -7569.5170 290.2245 -9293.0789 -7532.2947 297.4860 186.0392 238.9634 30397.1124 -72.9362 1.5963
ENERGY: 1200000 2.2995 3.3576 3.1379 0.0000 -10776.9282 1421.8265 0.0000 0.0000 1765.7464 -7580.5603 297.3278 -9346.3067 -7533.9256 298.2279 -472.5750 -355.8142 30605.6567 -155.0282 -82.5061
ENERGY: 1500000 4.4138 6.5883 2.7059 0.0000 -10731.0398 1411.4512 0.0000 0.0000 1764.9271 -7540.9535 297.1898 -9305.8807 -7537.9345 297.7400 -495.6921 -448.6662 31301.4899 -139.9973 -71.9558
TCL: Running FEP window   4: Lambda1 0.15000000000000002 Lambda2 0.2    [dLambda 0.04999999999999999]
TCL: Setting parameter firsttimestep to 0
TCL: Setting parameter alchLambda to 0.15000000000000002
Info: NONBONDED TABLE R-SQUARED SPACING: 0.0625
Info: NONBONDED TABLE SIZE: 705 POINTS
TCL: Setting parameter alchLambda2 to 0.2
Info: NONBONDED TABLE R-SQUARED SPACING: 0.0625
Info: NONBONDED TABLE SIZE: 705 POINTS
TCL: Running for 1500000 steps
ETITLE: TS BOND ANGLE DIHED IMPRP ELECT VDW BOUNDARY MISC KINETIC TOTAL TEMP POTENTIAL TOTALAVG TEMPAVG PRESSURE GPRESSURE VOLUME PRESSAVG GPRESSAVG
ENERGY: 0 4.4138 6.5883 2.7059 0.0000 -10731.0406 1412.6171 0.0000 0.0000 1764.0453 -7540.6702 297.0413 -9304.7155 -7540.6702 297.0413 -530.6702 -443.9997 31301.4899 -530.6702 -443.9997
ENERGY: 300000 1.2712 5.2850 2.3336 0.0000 -10781.7729 1443.0721 0.0000 0.0000 1804.1175 -7525.6935 303.7889 -9329.8110 -7534.1940 301.7916 34.6437 101.3114 30480.8715 -168.4762 -121.3837
ENERGY: 600000 0.7252 7.6789 2.5000 0.0000 -10799.5981 1435.3598 0.0000 0.0000 1792.4177 -7560.9166 301.8188 -9353.3343 -7560.5330 300.1016 -432.7876 -313.2368 30862.0961 -414.4507 -345.7975
ENERGY: 900000 2.5642 4.3087 2.8793 0.0000 -10660.6009 1346.5338 0.0000 0.0000 1766.8270 -7537.4879 297.5097 -9304.3149 -7568.7788 299.5118 -833.8772 -805.0668 30765.3156 -500.4079 -434.0232
ENERGY: 1200000 1.7024 3.8128 2.2139 0.0000 -10780.0365 1435.0879 0.0000 0.0000 1747.7169 -7589.5025 294.2918 -9337.2195 -7563.4666 299.1613 -52.0807 6.6746 30187.1698 -359.7456 -294.8620
ENERGY: 1500000 2.6779 4.9202 2.3834 0.0000 -10762.7193 1408.1578 0.0000 0.0000 1869.4830 -7475.0971 314.7956 -9344.5801 -7565.0390 300.1735 -503.0388 -418.3949 30648.7779 -317.9663 -258.9504
TCL: Running FEP window   5: Lambda1 0.2    Lambda2 0.25   [dLambda 0.04999999999999999]
TCL: Setting parameter firsttimestep to 0
TCL: Setting parameter alchLambda to 0.2
Info: NONBONDED TABLE R-SQUARED SPACING: 0.0625
Info: NONBONDED TABLE SIZE: 705 POINTS
TCL: Setting parameter alchLambda2 to 0.25
Info: NONBONDED TABLE R-SQUARED SPACING: 0.0625
Info: NONBONDED TABLE SIZE: 705 POINTS
TCL: Running for 1500000 steps
ETITLE: TS BOND ANGLE DIHED IMPRP ELECT VDW BOUNDARY MISC KINETIC TOTAL TEMP POTENTIAL TOTALAVG TEMPAVG PRESSURE GPRESSURE VOLUME PRESSAVG GPRESSAVG
ENERGY: 0 2.6779 4.9202 2.3834 0.0000 -10762.7179 1409.3825 0.0000 0.0000 1868.6276 -7474.7264 314.6516 -9343.3540 -7474.7264 314.6516 -497.3642 -408.3841 30648.7779 -497.3642 -408.3841
ENERGY: 300000 5.9254 4.9802 1.8892 0.0000 -10629.3808 1419.5782 0.0000 0.0000 1753.5230 -7443.4849 295.2695 -9197.0079 -7479.3120 303.5694 -261.8431 -256.7407 31227.7890 111.2660 160.4058
ENERGY: 600000 1.4111 5.4001 1.7623 0.0000 -10735.9058 1411.8685 0.0000 0.0000 1789.8410 -7525.6228 301.3850 -9315.4638 -7510.5177 301.8092 -150.5801 -145.5986 30485.9098 -17.1001 27.1251
ENERGY: 900000 1.7926 5.8938 2.1556 0.0000 -10783.8426 1427.6544 0.0000 0.0000 1755.5781 -7590.7682 295.6156 -9346.3463 -7507.5488 300.7010 -326.7599 -204.7310 30475.8659 -122.6468 -71.7748
ENERGY: 1200000 2.3015 6.5306 3.0443 0.0000 -10788.0978 1472.6116 0.0000 0.0000 1757.2031 -7546.4067 295.8892 -9303.6098 -7512.5471 300.4576 214.0729 261.6546 30439.7827 -114.5284 -62.3383
ENERGY: 1500000 4.5734 6.2390 2.3376 0.0000 -10880.5285 1525.0337 0.0000 0.0000 1784.4160 -7557.9288 300.4715 -9342.3449 -7518.1648 299.7005 352.8179 432.0749 30733.3643 -19.8051 31.5703
TCL: Running FEP window   6: Lambda1 0.25   Lambda2 0.3    [dLambda 0.04999999999999999]
TCL: Setting parameter firsttimestep to 0
TCL: Setting parameter alchLambda to 0.25
Info: NONBONDED TABLE R-SQUARED SPACING: 0.0625
Info: NONBONDED TABLE SIZE: 705 POINTS
TCL: Setting parameter alchLambda2 to 0.3
Info: NONBONDED TABLE R-SQUARED SPACING: 0.0625
Info: NONBONDED TABLE SIZE: 705 POINTS
TCL: Running for 1500000 steps
ETITLE: TS BOND ANGLE DIHED IMPRP ELECT VDW BOUNDARY MISC KINETIC TOTAL TEMP POTENTIAL TOTALAVG TEMPAVG PRESSURE GPRESSURE VOLUME PRESSAVG GPRESSAVG
ENERGY: 0 4.5734 6.2390 2.3376 0.0000 -10880.5286 1525.8263 0.0000 0.0000 1783.5475 -7558.0047 300.3252 -9341.5522 -7558.0047 300.3252 358.7252 440.5115 30733.3643 358.7252 440.5115
ENERGY: 300000 1.6533 3.3152 2.7068 0.0000 -10776.2531 1435.1266 0.0000 0.0000 1779.9356 -7553.5156 299.7170 -9333.4512 -7516.9514 299.2562 -360.3054 -281.6856 30947.3424 82.5198 144.3923
ENERGY: 600000 2.5634 3.2691 1.8362 0.0000 -10721.5382 1379.7902 0.0000 0.0000 1839.8877 -7494.1916 309.8122 -9334.0793 -7525.8640 299.8390 -734.9541 -625.3516 30871.7163 28.4987 89.1286
ENERGY: 900000 2.5181 8.0467 2.1003 0.0000 -10934.0439 1496.0792 0.0000 0.0000 1786.2797 -7639.0199 300.7853 -9425.2996 -7536.8373 300.3011 144.3016 165.3488 30259.1708 41.8398 100.0732
ENERGY: 1200000 2.1253 6.5360 2.3858 0.0000 -10892.0766 1548.6684 0.0000 0.0000 1715.6209 -7616.7401 288.8873 -9332.3610 -7548.3513 298.3743 596.6614 626.9097 30756.1000 83.3111 140.0576
ENERGY: 1500000 2.6677 5.5431 2.1431 0.0000 -10686.5588 1478.7631 0.0000 0.0000 1797.9047 -7399.5371 302.7428 -9197.4418 -7535.3830 299.4283 269.1754 299.8072 31279.6986 69.0245 126.1400
TCL: Running FEP window   7: Lambda1 0.3    Lambda2 0.35   [dLambda 0.04999999999999999]
TCL: Setting parameter firsttimestep to 0
TCL: Setting parameter alchLambda to 0.3
Info: NONBONDED TABLE R-SQUARED SPACING: 0.0625
Info: NONBONDED TABLE SIZE: 705 POINTS
TCL: Setting parameter alchLambda2 to 0.35
Info: NONBONDED TABLE R-SQUARED SPACING: 0.0625
Info: NONBONDED TABLE SIZE: 705 POINTS
TCL: Running for 1500000 steps
ETITLE: TS BOND ANGLE DIHED IMPRP ELECT VDW BOUNDARY MISC KINETIC TOTAL TEMP POTENTIAL TOTALAVG TEMPAVG PRESSURE GPRESSURE VOLUME PRESSAVG GPRESSAVG
ENERGY: 0 2.6677 5.5431 2.1431 0.0000 -10686.5590 1478.6131 0.0000 0.0000 1796.9859 -7400.6062 302.5881 -9197.5920 -7400.6062 302.5881 225.9944 299.9154 31279.6986 225.9944 299.9154
ENERGY: 300000 2.0917 8.3555 2.8589 0.0000 -10854.8841 1486.8998 0.0000 0.0000 1829.0032 -7525.6751 307.9793 -9354.6782 -7450.7085 304.4458 372.0365 452.9758 30144.2439 201.3328 246.3228
ENERGY: 600000 1.7081 9.0113 3.4509 0.0000 -10738.1148 1415.8597 0.0000 0.0000 1777.5885 -7530.4963 299.3218 -9308.0848 -7480.4368 301.4194 -485.1742 -431.1773 30856.8078 -33.7421 18.0742
ENERGY: 900000 2.1687 3.7372 2.7349 0.0000 -10845.7601 1472.5228 0.0000 0.0000 1767.4414 -7597.1551 297.6132 -9364.5965 -7500.5561 300.4443 156.7045 162.2274 30497.1739 -132.5103 -84.0396
ENERGY: 1200000 2.4987 4.6035 2.1517 0.0000 -11071.7298 1691.0000 0.0000 0.0000 1733.1518 -7638.3240 291.8393 -9371.4758 -7516.0962 300.3012 1847.1796 1929.6928 30145.1233 40.7667 94.8421
ENERGY: 1500000 3.1074 3.9641 2.5550 0.0000 -10699.1951 1386.6682 0.0000 0.0000 1780.8878 -7522.0127 299.8774 -9302.9005 -7520.5811 301.0577 -641.2662 -556.3824 30969.2835 -10.7700 48.0116
TCL: Running FEP window   8: Lambda1 0.35   Lambda2 0.39999999999999997 [dLambda 0.04999999999999999]
TCL: Setting parameter firsttimestep to 0
TCL: Setting parameter alchLambda to 0.35
Info: NONBONDED TABLE R-SQUARED SPACING: 0.0625
Info: NONBONDED TABLE SIZE: 705 POINTS
TCL: Setting parameter alchLambda2 to 0.39999999999999997
Info: NONBONDED TABLE R-SQUARED SPACING: 0.0625
Info: NONBONDED TABLE SIZE: 705 POINTS
TCL: Running for 1500000 steps
ETITLE: TS BOND ANGLE DIHED IMPRP ELECT VDW BOUNDARY MISC KINETIC TOTAL TEMP POTENTIAL TOTALAVG TEMPAVG PRESSURE GPRESSURE VOLUME PRESSAVG GPRESSAVG
ENERGY: 0 3.1074 3.9640 2.5550 0.0000 -10699.1946 1386.6580 0.0000 0.0000 1780.0339 -7522.8762 299.7336 -9302.9102 -7522.8762 299.7336 -642.8211 -554.4749 30969.2835 -642.8211 -554.4749
ENERGY: 300000 3.2142 3.4463 2.9984 0.0000 -10748.9613 1464.6168 0.0000 0.0000 1788.1708 -7486.5148 301.1037 -9274.6856 -7524.3115 299.3147 275.7845 394.2995 30475.3256 -320.7759 -260.6787
ENERGY: 600000 4.0460 2.8673 2.5564 0.0000 -10654.2073 1440.5575 0.0000 0.0000 1760.5678 -7443.6123 296.4558 -9204.1801 -7541.0521 297.0132 -116.4390 -84.9512 31202.5755 -133.9787 -80.4123
ENERGY: 900000 1.6185 7.3039 2.7507 0.0000 -10722.1486 1419.7407 0.0000 0.0000 1771.7893 -7518.9455 298.3453 -9290.7349 -7552.6560 296.8177 187.8633 288.4868 29929.1288 -94.4294 -38.8430
ENERGY: 1200000 3.1374 4.4690 2.7043 0.0000 -10666.3262 1415.4450 0.0000 0.0000 1771.4719 -7469.0986 298.2919 -9240.5705 -7545.4092 297.8223 -265.4708 -193.3660 30808.9608 6.3989 60.0356
ENERGY: 1500000 1.6073 5.1034 2.8133 0.0000 -10839.9024 1526.2389 0.0000 0.0000 1769.1118 -7535.0276 297.8944 -9304.1394 -7531.9893 298.9155 871.8702 972.5908 30133.7668 67.8254 126.7877
TCL: Running FEP window   9: Lambda1 0.39999999999999997 Lambda2 0.44999999999999996 [dLambda 0.04999999999999999]
TCL: Setting parameter firsttimestep to 0
TCL: Setting parameter alchLambda to 0.39999999999999997
Info: NONBONDED TABLE R-SQUARED SPACING: 0.0625
Info: NONBONDED TABLE SIZE: 705 POINTS
TCL: Setting parameter alchLambda2 to 0.44999999999999996
Info: NONBONDED TABLE R-SQUARED SPACING: 0.0625
Info: NONBONDED TABLE SIZE: 705 POINTS
TCL: Running for 1500000 steps
ETITLE: TS BOND ANGLE DIHED IMPRP ELECT VDW BOUNDARY MISC KINETIC TOTAL TEMP POTENTIAL TOTALAVG TEMPAVG PRESSURE GPRESSURE VOLUME PRESSAVG GPRESSAVG
ENERGY: 0 1.6073 5.1034 2.8133 0.0000 -10839.9032 1526.1450 0.0000 0.0000 1768.2085 -7536.0255 297.7423 -9304.2341 -7536.0255 297.7423 908.6460 982.3143 30133.7668 908.6460 982.3143
ENERGY: 300000 3.2414 4.4012 2.4483 0.0000 -10760.7058 1471.6294 0.0000 0.0000 1796.7925 -7482.1930 302.5555 -9278.9855 -7537.7440 298.8931 49.0690 83.4021 30822.8234 305.0428 359.8387
ENERGY: 600000 1.2897 7.2146 1.9714 0.0000 -10819.3214 1458.8102 0.0000 0.0000 1789.1072 -7560.9284 301.2614 -9350.0355 -7555.0917 300.1177 -267.8829 -202.7654 31040.8003 57.4484 119.7229
ENERGY: 900000 1.7386 4.7898 2.3865 0.0000 -10831.9271 1470.5173 0.0000 0.0000 1808.9064 -7543.5885 304.5953 -9352.4949 -7549.6344 301.4151 39.7858 64.4602 30695.0355 160.6490 213.4287
ENERGY: 1200000 1.7907 5.7475 2.2430 0.0000 -10858.7078 1506.5943 0.0000 0.0000 1789.9921 -7552.3402 301.4104 -9342.3323 -7548.0754 301.0001 431.4537 499.7131 30224.5118 231.8774 294.0962
ENERGY: 1500000 4.5438 3.7523 3.1058 0.0000 -10739.9273 1439.4767 0.0000 0.0000 1815.3003 -7473.7485 305.6720 -9289.0488 -7549.9951 300.2756 -474.9924 -358.9862 31110.3712 79.7664 146.1751
TCL: Running FEP window  10: Lambda1 0.44999999999999996 Lambda2 0.49999999999999994 [dLambda 0.04999999999999999]
TCL: Setting parameter firsttimestep to 0
TCL: Setting parameter alchLambda to 0.44999999999999996
Info: NONBONDED TABLE R-SQUARED SPACING: 0.0625
Info: NONBONDED TABLE SIZE: 705 POINTS
TCL: Setting parameter alchLambda2 to 0.49999999999999994
Info: NONBONDED TABLE R-SQUARED SPACING: 0.0625
Info: NONBONDED TABLE SIZE: 705 POINTS
TCL: Running for 1500000 steps
ETITLE: TS BOND ANGLE DIHED IMPRP ELECT VDW BOUNDARY MISC KINETIC TOTAL TEMP POTENTIAL TOTALAVG TEMPAVG PRESSURE GPRESSURE VOLUME PRESSAVG GPRESSAVG
ENERGY: 0 4.5438 3.7523 3.1058 0.0000 -10739.9276 1439.8410 0.0000 0.0000 1814.4017 -7474.2830 305.5207 -9288.6847 -7474.2830 305.5207 -437.3767 -351.7783 31110.3712 -437.3767 -351.7783
ENERGY: 300000 1.1612 3.5059 2.9259 0.0000 -10631.6380 1379.7347 0.0000 0.0000 1750.5922 -7493.7180 294.7760 -9244.3103 -7495.9083 300.0256 -230.4587 -156.3614 30475.3233 -273.0630 -204.3454
ENERGY: 600000 0.5747 6.7399 2.5804 0.0000 -10824.5644 1478.3500 0.0000 0.0000 1693.6342 -7642.6852 285.1850 -9336.3194 -7527.4979 296.6860 -126.2573 2.5283 30902.0582 -207.9545 -132.4770
ENERGY: 900000 0.9444 4.5138 2.5370 0.0000 -10835.0250 1494.7182 0.0000 0.0000 1815.1681 -7517.1435 305.6497 -9332.3117 -7513.2940 299.7328 220.9004 306.8211 30860.7479 -223.8787 -148.5552
ENERGY: 1200000 0.3791 6.2712 3.5692 0.0000 -10889.8818 1545.4873 0.0000 0.0000 1793.7683 -7540.4067 302.0463 -9334.1751 -7520.4454 299.4570 845.0347 926.8743 30509.8729 -52.9307 26.9915
ENERGY: 1500000 2.4146 8.8089 3.1050 0.0000 -10665.0173 1341.8743 0.0000 0.0000 1847.2240 -7461.5904 311.0475 -9308.8145 -7515.0267 300.7233 -918.0454 -835.2301 30917.5374 -60.6796 17.5332
TCL: Running FEP window  11: Lambda1 0.49999999999999994 Lambda2 0.5499999999999999 [dLambda 0.04999999999999999]
TCL: Setting parameter firsttimestep to 0
TCL: Setting parameter alchLambda to 0.49999999999999994
Info: NONBONDED TABLE R-SQUARED SPACING: 0.0625
Info: NONBONDED TABLE SIZE: 705 POINTS
TCL: Setting parameter alchLambda2 to 0.5499999999999999
Info: NONBONDED TABLE R-SQUARED SPACING: 0.0625
Info: NONBONDED TABLE SIZE: 705 POINTS
TCL: Running for 1500000 steps
ETITLE: TS BOND ANGLE DIHED IMPRP ELECT VDW BOUNDARY MISC KINETIC TOTAL TEMP POTENTIAL TOTALAVG TEMPAVG PRESSURE GPRESSURE VOLUME PRESSAVG GPRESSAVG
ENERGY: 0 2.4146 8.8089 3.1050 0.0000 -10665.0168 1341.8223 0.0000 0.0000 1846.3480 -7462.5179 310.9000 -9308.8659 -7462.5179 310.9000 -896.4682 -827.7372 30917.5374 -896.4682 -827.7372
ENERGY: 300000 1.2909 5.5275 3.0372 0.0000 -10773.0501 1457.3434 0.0000 0.0000 1797.0611 -7508.7900 302.6007 -9305.8511 -7515.5193 303.5954 133.3892 184.7750 30560.4406 -418.9274 -386.9706
ENERGY: 600000 4.8454 7.5910 3.2079 0.0000 -10819.9208 1480.2046 0.0000 0.0000 1782.3126 -7541.7594 300.1173 -9324.0720 -7522.5014 302.7485 239.0551 223.4966 30650.0885 -293.9848 -259.6921
ENERGY: 900000 4.8873 4.6421 2.6590 0.0000 -10872.9333 1550.6444 0.0000 0.0000 1742.5478 -7567.5527 293.4214 -9310.1005 -7526.4470 301.3527 963.1524 964.5490 30202.1512 -81.6772 -34.5758
ENERGY: 1200000 3.0522 8.1922 2.1833 0.0000 -10786.5515 1491.2286 0.0000 0.0000 1770.5532 -7511.3418 298.1372 -9281.8951 -7533.6244 301.2842 300.8689 363.8492 30682.5103 -48.5316 6.2701
ENERGY: 1500000 1.5464 4.9970 2.5321 0.0000 -10864.2712 1509.1284 0.0000 0.0000 1725.4824 -7620.5849 290.5478 -9346.0673 -7535.9435 300.1930 730.2471 710.2991 29949.8441 -18.9572 31.9405
TCL: Running FEP window  12: Lambda1 0.5499999999999999 Lambda2 0.6    [dLambda 0.050000000000000044]
TCL: Setting parameter firsttimestep to 0
TCL: Setting parameter alchLambda to 0.5499999999999999
Info: NONBONDED TABLE R-SQUARED SPACING: 0.0625
Info: NONBONDED TABLE SIZE: 705 POINTS
TCL: Setting parameter alchLambda2 to 0.6
Info: NONBONDED TABLE R-SQUARED SPACING: 0.0625
Info: NONBONDED TABLE SIZE: 705 POINTS
TCL: Running for 1500000 steps
ETITLE: TS BOND ANGLE DIHED IMPRP ELECT VDW BOUNDARY MISC KINETIC TOTAL TEMP POTENTIAL TOTALAVG TEMPAVG PRESSURE GPRESSURE VOLUME PRESSAVG GPRESSAVG
ENERGY: 0 1.5464 4.9970 2.5321 0.0000 -10864.0560 1509.9693 0.0000 0.0000 1724.6021 -7620.4091 290.3996 -9345.0112 -7620.4091 290.3996 649.0731 721.6056 29949.8441 649.0731 721.6056
ENERGY: 300000 1.4045 5.7258 1.9405 0.0000 -10819.1931 1464.1847 0.0000 0.0000 1752.2852 -7593.6524 295.0611 -9345.9376 -7598.8173 296.3775 -30.3899 65.3738 30495.9905 174.8180 269.9974
ENERGY: 600000 2.5639 4.3128 2.9836 0.0000 -10758.2288 1450.9407 0.0000 0.0000 1784.1209 -7513.3070 300.4218 -9297.4279 -7551.5028 299.3313 -0.8354 80.4674 30677.0317 77.6935 168.6897
ENERGY: 900000 1.6603 7.5450 2.7996 0.0000 -10922.5813 1529.6240 0.0000 0.0000 1761.3915 -7619.5610 296.5945 -9380.9525 -7557.3609 298.7226 438.1930 501.8770 30361.1701 65.0399 144.1622
ENERGY: 1200000 1.9757 5.5640 3.5163 0.0000 -10694.0723 1396.9171 0.0000 0.0000 1767.1958 -7518.9033 297.5718 -9286.0991 -7548.0554 298.9720 -358.0740 -310.6645 30641.3633 -1.6012 72.6332
ENERGY: 1500000 0.9188 5.6054 2.4019 0.0000 -10872.5715 1494.5356 0.0000 0.0000 1775.8262 -7593.2837 299.0251 -9369.1098 -7549.6050 299.7453 267.0094 317.3904 30506.7213 76.3346 146.1506
TCL: Running FEP window  13: Lambda1 0.6    Lambda2 0.65   [dLambda 0.050000000000000044]
TCL: Setting parameter firsttimestep to 0
TCL: Setting parameter alchLambda to 0.6
Info: NONBONDED TABLE R-SQUARED SPACING: 0.0625
Info: NONBONDED TABLE SIZE: 705 POINTS
TCL: Setting parameter alchLambda2 to 0.65
Info: NONBONDED TABLE R-SQUARED SPACING: 0.0625
Info: NONBONDED TABLE SIZE: 705 POINTS
TCL: Running for 1500000 steps
ETITLE: TS BOND ANGLE DIHED IMPRP ELECT VDW BOUNDARY MISC KINETIC TOTAL TEMP POTENTIAL TOTALAVG TEMPAVG PRESSURE GPRESSURE VOLUME PRESSAVG GPRESSAVG
ENERGY: 0 0.9188 5.6054 2.4019 0.0000 -10873.1765 1494.8648 0.0000 0.0000 1774.9464 -7594.4391 298.8769 -9369.3856 -7594.4391 298.8769 256.5375 323.8463 30506.7213 256.5375 323.8463
ENERGY: 300000 0.7222 5.6608 1.9105 0.0000 -10734.1377 1467.2699 0.0000 0.0000 1709.8916 -7548.6827 287.9226 -9258.5744 -7553.1141 297.3642 -58.0804 48.0767 31330.2036 76.5649 134.2487
ENERGY: 600000 1.0986 6.0396 2.6852 0.0000 -10914.5113 1528.5959 0.0000 0.0000 1747.9757 -7628.1164 294.3354 -9376.0920 -7563.2606 296.8416 442.4868 482.3853 30355.1606 99.7436 155.2827
ENERGY: 900000 2.4686 7.1277 2.5343 0.0000 -10695.2907 1383.3658 0.0000 0.0000 1810.6938 -7489.1004 304.8963 -9299.7941 -7559.1697 297.3842 -639.0026 -561.4271 31164.9377 -101.9006 -47.4182
ENERGY: 1200000 2.2444 4.9405 2.4783 0.0000 -10781.4223 1457.6542 0.0000 0.0000 1741.4882 -7572.6167 293.2430 -9314.1049 -7551.1204 297.6310 -84.3100 -36.6546 31063.7894 -97.2545 -37.4736
ENERGY: 1500000 4.1468 4.0410 1.9649 0.0000 -10744.6751 1444.2374 0.0000 0.0000 1749.0651 -7541.2198 294.5189 -9290.2849 -7552.8470 298.2282 -173.6500 -62.3348 30739.2808 -113.0989 -48.4741
TCL: Running FEP window  14: Lambda1 0.65   Lambda2 0.7000000000000001 [dLambda 0.050000000000000044]
TCL: Setting parameter firsttimestep to 0
TCL: Setting parameter alchLambda to 0.65
Info: NONBONDED TABLE R-SQUARED SPACING: 0.0625
Info: NONBONDED TABLE SIZE: 705 POINTS
TCL: Setting parameter alchLambda2 to 0.7000000000000001
Info: NONBONDED TABLE R-SQUARED SPACING: 0.0625
Info: NONBONDED TABLE SIZE: 705 POINTS
TCL: Running for 1500000 steps
ETITLE: TS BOND ANGLE DIHED IMPRP ELECT VDW BOUNDARY MISC KINETIC TOTAL TEMP POTENTIAL TOTALAVG TEMPAVG PRESSURE GPRESSURE VOLUME PRESSAVG GPRESSAVG
ENERGY: 0 4.1468 4.0410 1.9649 0.0000 -10744.8604 1444.0394 0.0000 0.0000 1748.2148 -7542.4535 294.3757 -9290.6682 -7542.4535 294.3757 -144.4179 -58.6783 30739.2808 -144.4179 -58.6783
ENERGY: 300000 1.3392 3.8190 2.3193 0.0000 -10718.6746 1372.1759 0.0000 0.0000 1788.1546 -7550.8666 301.1010 -9339.0212 -7547.2975 296.0110 -522.2775 -466.1084 30857.4929 130.8282 190.9640
ENERGY: 600000 1.8397 4.8832 2.8517 0.0000 -10640.1261 1370.1975 0.0000 0.0000 1776.5215 -7483.8325 299.1421 -9260.3540 -7530.3250 297.4633 -649.5602 -627.0913 31193.0792 -194.5085 -139.8047
ENERGY: 900000 3.4132 8.6065 2.1573 0.0000 -10832.4108 1480.4498 0.0000 0.0000 1777.6547 -7560.1293 299.3330 -9337.7840 -7542.3435 297.3754 -389.8176 -323.0894 31698.2578 -163.4608 -110.6685
ENERGY: 1200000 4.2559 8.3126 1.9770 0.0000 -10934.3838 1550.3890 0.0000 0.0000 1766.9093 -7602.5400 297.5236 -9369.4493 -7545.5564 298.5501 479.9765 564.3480 30764.0672 -131.6727 -76.4004
ENERGY: 1500000 0.9931 4.5005 2.1724 0.0000 -10757.6031 1440.5311 0.0000 0.0000 1786.2700 -7523.1360 300.7837 -9309.4060 -7543.6591 298.8674 -43.4658 8.1144 30735.6003 -118.2808 -60.7930
TCL: Running FEP window  15: Lambda1 0.7000000000000001 Lambda2 0.7500000000000001 [dLambda 0.050000000000000044]
TCL: Setting parameter firsttimestep to 0
TCL: Setting parameter alchLambda to 0.7000000000000001
Info: NONBONDED TABLE R-SQUARED SPACING: 0.0625
Info: NONBONDED TABLE SIZE: 705 POINTS
TCL: Setting parameter alchLambda2 to 0.7500000000000001
Info: NONBONDED TABLE R-SQUARED SPACING: 0.0625
Info: NONBONDED TABLE SIZE: 705 POINTS
TCL: Running for 1500000 steps
ETITLE: TS BOND ANGLE DIHED IMPRP ELECT VDW BOUNDARY MISC KINETIC TOTAL TEMP POTENTIAL TOTALAVG TEMPAVG PRESSURE GPRESSURE VOLUME PRESSAVG GPRESSAVG
ENERGY: 0 0.9931 4.5005 2.1724 0.0000 -10758.5448 1441.1233 0.0000 0.0000 1785.4077 -7524.3478 300.6385 -9309.7556 -7524.3478 300.6385 -60.8340 19.9123 30735.6003 -60.8340 19.9123
ENERGY: 300000 1.5096 5.1311 2.5212 0.0000 -10942.6943 1567.4381 0.0000 0.0000 1796.6394 -7569.4548 302.5297 -9366.0942 -7553.8227 302.4482 884.2419 974.6426 30589.3162 109.2604 173.1719
ENERGY: 600000 1.6048 5.1322 1.7597 0.0000 -10869.8685 1553.3016 0.0000 0.0000 1759.9838 -7548.0865 296.3574 -9308.0703 -7554.9784 301.1652 638.4340 767.7044 30806.1415 199.9063 254.5812
ENERGY: 900000 1.9449 2.1583 2.4517 0.0000 -10795.5803 1429.6092 0.0000 0.0000 1761.9847 -7597.4315 296.6943 -9359.4162 -7555.3461 300.3558 -532.3281 -392.2623 30757.8506 6.3361 65.9473
ENERGY: 1200000 5.2338 4.5310 2.1085 0.0000 -10632.5678 1335.2505 0.0000 0.0000 1829.0869 -7456.3571 307.9934 -9285.4440 -7549.9926 299.7850 -846.2286 -815.1851 31051.2912 -47.2746 10.5374
ENERGY: 1500000 3.8141 5.4653 2.6822 0.0000 -10803.6460 1498.0489 0.0000 0.0000 1742.8429 -7550.7926 293.4711 -9293.6355 -7557.4242 298.4656 614.1342 721.5003 30111.6412 38.6880 100.1126
TCL: Running FEP window  16: Lambda1 0.7500000000000001 Lambda2 0.8000000000000002 [dLambda 0.050000000000000044]
TCL: Setting parameter firsttimestep to 0
TCL: Setting parameter alchLambda to 0.7500000000000001
Info: NONBONDED TABLE R-SQUARED SPACING: 0.0625
Info: NONBONDED TABLE SIZE: 705 POINTS
TCL: Setting parameter alchLambda2 to 0.8000000000000002
Info: NONBONDED TABLE R-SQUARED SPACING: 0.0625
Info: NONBONDED TABLE SIZE: 705 POINTS
TCL: Running for 1500000 steps
ETITLE: TS BOND ANGLE DIHED IMPRP ELECT VDW BOUNDARY MISC KINETIC TOTAL TEMP POTENTIAL TOTALAVG TEMPAVG PRESSURE GPRESSURE VOLUME PRESSAVG GPRESSAVG
ENERGY: 0 3.8141 5.4653 2.6822 0.0000 -10804.2650 1497.8504 0.0000 0.0000 1741.9536 -7552.4995 293.3214 -9294.4531 -7552.4995 293.3214 634.2603 727.3086 30111.6412 634.2603 727.3086
ENERGY: 300000 2.2403 5.8738 2.7569 0.0000 -10945.4639 1561.1623 0.0000 0.0000 1768.1089 -7605.3216 297.7256 -9373.4305 -7562.5749 300.6576 477.6036 541.4644 30788.9560 324.2580 397.6878
ENERGY: 600000 3.7095 5.8129 2.5480 0.0000 -10812.6164 1523.7893 0.0000 0.0000 1748.6745 -7528.0823 294.4531 -9276.7568 -7576.1178 298.0884 419.8166 529.0707 31038.1047 165.0465 242.2286
ENERGY: 900000 1.0869 7.2963 2.4380 0.0000 -10569.0467 1294.3857 0.0000 0.0000 1799.3816 -7464.4583 302.9915 -9263.8398 -7563.7526 298.1900 -1039.6153 -965.0785 30995.3728 -119.3814 -42.8071
ENERGY: 1200000 2.6748 8.2119 2.7775 0.0000 -10774.6270 1447.1435 0.0000 0.0000 1705.1273 -7608.6920 287.1203 -9313.8192 -7558.7566 297.3952 307.9498 347.5589 30436.1339 -89.9117 -23.9656
ENERGY: 1500000 0.8597 4.5670 2.3265 0.0000 -10662.0233 1395.9479 0.0000 0.0000 1840.9271 -7417.3951 309.9872 -9258.3222 -7561.3721 296.8638 -202.6654 -91.1716 30674.2419 -85.1113 -17.4875
TCL: Running FEP window  17: Lambda1 0.8000000000000002 Lambda2 0.8500000000000002 [dLambda 0.050000000000000044]
TCL: Setting parameter firsttimestep to 0
TCL: Setting parameter alchLambda to 0.8000000000000002
Info: NONBONDED TABLE R-SQUARED SPACING: 0.0625
Info: NONBONDED TABLE SIZE: 705 POINTS
TCL: Setting parameter alchLambda2 to 0.8500000000000002
Info: NONBONDED TABLE R-SQUARED SPACING: 0.0625
Info: NONBONDED TABLE SIZE: 705 POINTS
TCL: Running for 1500000 steps
ETITLE: TS BOND ANGLE DIHED IMPRP ELECT VDW BOUNDARY MISC KINETIC TOTAL TEMP POTENTIAL TOTALAVG TEMPAVG PRESSURE GPRESSURE VOLUME PRESSAVG GPRESSAVG
ENERGY: 0 0.8597 4.5670 2.3265 0.0000 -10662.6801 1396.4811 0.0000 0.0000 1840.0681 -7418.3776 309.8425 -9258.4457 -7418.3776 309.8425 -152.5569 -79.2150 30674.2419 -152.5569 -79.2150
ENERGY: 300000 3.5467 9.1542 2.7350 0.0000 -10973.5905 1554.8089 0.0000 0.0000 1846.1652 -7557.1806 310.8692 -9403.3457 -7504.6665 307.3919 903.7182 1001.0925 29874.2471 411.1508 504.2325
ENERGY: 600000 2.1945 4.2230 2.9741 0.0000 -10841.7907 1558.1670 0.0000 0.0000 1764.8265 -7509.4056 297.1729 -9274.2321 -7547.2745 303.7196 914.9909 1007.5728 30347.6816 376.2754 452.5606
ENERGY: 900000 1.9550 5.2315 3.1062 0.0000 -10721.9337 1387.0203 0.0000 0.0000 1828.2175 -7496.4032 307.8470 -9324.6207 -7541.6641 302.6171 -485.6628 -390.8449 30774.7653 151.9057 229.9540
ENERGY: 1200000 1.6189 7.0099 2.7515 0.0000 -10772.6373 1426.9178 0.0000 0.0000 1753.5504 -7580.7887 295.2741 -9334.3391 -7549.5571 301.6422 -405.2302 -307.0208 30665.5862 -3.7606 71.3369
ENERGY: 1500000 1.5906 5.2120 2.4008 0.0000 -10752.0210 1404.2359 0.0000 0.0000 1759.2980 -7579.2838 296.2419 -9338.5818 -7552.9038 301.2134 -280.1192 -251.4636 30601.5823 -37.0093 33.1284
TCL: Running FEP window  18: Lambda1 0.8500000000000002 Lambda2 0.9000000000000002 [dLambda 0.050000000000000044]
TCL: Setting parameter firsttimestep to 0
TCL: Setting parameter alchLambda to 0.8500000000000002
Info: NONBONDED TABLE R-SQUARED SPACING: 0.0625
Info: NONBONDED TABLE SIZE: 705 POINTS
TCL: Setting parameter alchLambda2 to 0.9000000000000002
Info: NONBONDED TABLE R-SQUARED SPACING: 0.0625
Info: NONBONDED TABLE SIZE: 705 POINTS
TCL: Running for 1500000 steps
ETITLE: TS BOND ANGLE DIHED IMPRP ELECT VDW BOUNDARY MISC KINETIC TOTAL TEMP POTENTIAL TOTALAVG TEMPAVG PRESSURE GPRESSURE VOLUME PRESSAVG GPRESSAVG
ENERGY: 0 1.5906 5.2120 2.4008 0.0000 -10752.1028 1403.9316 0.0000 0.0000 1758.4181 -7580.5498 296.0938 -9338.9679 -7580.5498 296.0938 -334.9104 -248.8705 30601.5823 -334.9104 -248.8705
ENERGY: 300000 1.0836 4.7619 2.7277 0.0000 -10864.3636 1425.1682 0.0000 0.0000 1791.1921 -7639.4300 301.6125 -9430.6221 -7606.8951 296.3354 -208.9314 -214.0633 30335.3613 -423.2735 -376.4025
ENERGY: 600000 1.8573 10.6015 2.2441 0.0000 -10678.5737 1459.1543 0.0000 0.0000 1715.2881 -7489.4284 288.8313 -9204.7165 -7556.5656 295.5395 188.9962 264.2527 30824.1912 -421.8489 -364.0009
ENERGY: 900000 0.8265 5.6296 2.5352 0.0000 -10696.0137 1482.6736 0.0000 0.0000 1763.0079 -7441.3408 296.8666 -9204.3488 -7549.3343 295.6941 459.7041 551.1813 31045.6222 -284.1101 -230.5436
ENERGY: 1200000 3.2603 2.3380 2.4320 0.0000 -10831.5601 1538.7464 0.0000 0.0000 1777.4133 -7507.3701 299.2923 -9284.7834 -7549.7225 295.4286 841.4869 861.5610 30564.9310 -184.4153 -134.2702
ENERGY: 1500000 1.2243 6.8637 2.6964 0.0000 -10716.1057 1436.2019 0.0000 0.0000 1800.5293 -7468.5902 303.1847 -9269.1195 -7547.5622 295.6309 101.6664 174.7835 30816.0161 -166.6100 -117.6060
TCL: Running FEP window  19: Lambda1 0.9000000000000002 Lambda2 0.9500000000000003 [dLambda 0.050000000000000044]
TCL: Setting parameter firsttimestep to 0
TCL: Setting parameter alchLambda to 0.9000000000000002
Info: NONBONDED TABLE R-SQUARED SPACING: 0.0625
Info: NONBONDED TABLE SIZE: 705 POINTS
TCL: Setting parameter alchLambda2 to 0.9500000000000003
Info: NONBONDED TABLE R-SQUARED SPACING: 0.0625
Info: NONBONDED TABLE SIZE: 705 POINTS
TCL: Running for 1500000 steps
ETITLE: TS BOND ANGLE DIHED IMPRP ELECT VDW BOUNDARY MISC KINETIC TOTAL TEMP POTENTIAL TOTALAVG TEMPAVG PRESSURE GPRESSURE VOLUME PRESSAVG GPRESSAVG
ENERGY: 0 1.2243 6.8637 2.6964 0.0000 -10718.3949 1438.4532 0.0000 0.0000 1799.6373 -7469.5200 303.0345 -9269.1573 -7469.5200 303.0345 102.7724 199.7510 30816.0161 102.7724 199.7510
ENERGY: 300000 0.7522 4.3512 3.0070 0.0000 -10710.6072 1416.2757 0.0000 0.0000 1769.3557 -7516.8654 297.9355 -9286.2211 -7511.7284 300.1493 -127.1392 -98.1964 31004.8103 10.3028 80.0213
ENERGY: 600000 1.7358 3.7209 2.1550 0.0000 -10947.5183 1570.2131 0.0000 0.0000 1752.4876 -7617.2059 295.0952 -9369.6935 -7543.8909 300.0351 831.5756 890.7987 30728.0294 128.1778 201.3367
ENERGY: 900000 6.1331 7.9076 1.7483 0.0000 -10737.4977 1395.5911 0.0000 0.0000 1774.4219 -7551.6957 298.7886 -9326.1176 -7558.2978 300.1134 -750.0705 -691.7223 30880.8724 180.7095 242.1053
ENERGY: 1200000 2.5935 8.0540 2.6607 0.0000 -10859.0178 1471.0108 0.0000 0.0000 1713.0210 -7661.6779 288.4495 -9374.6989 -7575.0800 298.6503 172.5096 194.6364 30084.1286 115.4911 174.9794
ENERGY: 1500000 3.3753 4.2230 3.8127 0.0000 -10685.3583 1371.3773 0.0000 0.0000 1728.5474 -7574.0225 291.0640 -9302.5699 -7578.2202 297.8390 -570.0748 -525.0598 30520.4885 13.1448 72.5278
TCL: Running FEP window  20: Lambda1 0.9500000000000003 Lambda2 1.0    [dLambda 0.04999999999999971]
TCL: Setting parameter firsttimestep to 0
TCL: Setting parameter alchLambda to 0.9500000000000003
Info: NONBONDED TABLE R-SQUARED SPACING: 0.0625
Info: NONBONDED TABLE SIZE: 705 POINTS
TCL: Setting parameter alchLambda2 to 1.0
Info: NONBONDED TABLE R-SQUARED SPACING: 0.0625
Info: NONBONDED TABLE SIZE: 705 POINTS
TCL: Running for 1500000 steps
ETITLE: TS BOND ANGLE DIHED IMPRP ELECT VDW BOUNDARY MISC KINETIC TOTAL TEMP POTENTIAL TOTALAVG TEMPAVG PRESSURE GPRESSURE VOLUME PRESSAVG GPRESSAVG
ENERGY: 0 3.3753 4.2230 3.8127 0.0000 -10686.2010 1371.2324 0.0000 0.0000 1727.7192 -7575.8383 290.9245 -9303.5575 -7575.8383 290.9245 -612.4451 -520.0168 30520.4885 -612.4451 -520.0168
ENERGY: 300000 5.7716 6.3616 2.8099 0.0000 -10879.5668 1536.6080 0.0000 0.0000 1757.6972 -7570.3184 295.9724 -9328.0156 -7576.9817 295.2796 1005.3443 1045.8403 30035.2668 291.4248 344.4644
ENERGY: 600000 1.0770 3.7580 2.2490 0.0000 -10948.2643 1561.5370 0.0000 0.0000 1808.2704 -7571.3730 304.4882 -9379.6434 -7579.6010 296.9349 579.1913 625.2836 31004.4395 246.9912 292.7857
ENERGY: 900000 2.9328 8.0572 2.7715 0.0000 -10916.5032 1514.6901 0.0000 0.0000 1744.9602 -7643.0914 293.8276 -9388.0516 -7585.4206 296.5899 412.6864 517.2895 30302.9762 208.8145 261.9718
ENERGY: 1200000 3.5062 6.9207 2.0275 0.0000 -10875.5207 1458.9313 0.0000 0.0000 1846.9988 -7557.1362 311.0096 -9404.1351 -7573.7406 298.7749 -256.8802 -167.0362 30733.4593 120.9141 178.6131
ENERGY: 1500000 2.2428 4.0880 1.9111 0.0000 -10642.9651 1388.9207 0.0000 0.0000 1802.0980 -7443.7046 303.4489 -9245.8026 -7553.8558 299.9793 -369.3560 -307.4091 30895.8043 84.0900 141.2747
TCL: Exiting due to exit command.
