Info: SIMULATION PARAMETERS:
Info: TIMESTEP               2
Info: NUMBER OF STEPS        0
Info: STEPS PER CYCLE        10
Info: PERIODIC CELL BASIS 1  32.3096 0 0
Info: PERIODIC CELL BASIS 2  0 34.1965 0
Info: PERIODIC CELL BASIS 3  0 0 27.6802
Info: PERIODIC CELL CENTER   0 0 0
Info: WRAPPING WATERS AROUND PERIODIC BOUNDARIES ON OUTPUT.
Info: WRAPPING ALL CLUSTERS AROUND PERIODIC BOUNDARIES ON OUTPUT.
Info: FIRST LDB TIMESTEP     50
Info: LAST LDB TIMESTEP     -1
Info: HOM BACKGROUND SCALING 1
Info: PME BACKGROUND SCALING 1
Info: MIN ATOMS PER PATCH    40
Info: EMPTY PATCH LOAD       40 ATOMS
Info: VELOCITY FILE          mobley_637522_equil.vel
Info: CENTER OF MASS MOVING INITIALLY? NO
Info: DIELECTRIC             1
Info: EXCLUDE                SCALED ONE-FOUR
Info: 1-4 ELECTROSTATICS SCALED BY 0.833333
Info: MODIFIED 1-4 VDW PARAMETERS WILL BE USED
Info: DCD FILENAME           mobley_637522_prod.dcd
Info: DCD FREQUENCY          100000
Info: DCD FIRST STEP         100000
Info: DCD FILE WILL CONTAIN UNIT CELL DATA
Info: XST FILENAME           mobley_637522_prod.xst
Info: XST FREQUENCY          100000
Info: NO VELOCITY DCD OUTPUT
Info: NO FORCE DCD OUTPUT
Info: OUTPUT FILENAME        mobley_637522_prod
Info: BINARY OUTPUT FILES WILL BE USED
Info: RESTART FILENAME       mobley_637522_prod.restart
Info: RESTART FREQUENCY      100000
Info: BINARY RESTART FILES WILL BE USED
Info: CUTOFF                 9
Info: PAIRLIST DISTANCE      11
Info: PAIRLIST SHRINK RATE   0.01
Info: PAIRLIST GROW RATE     0.01
Info: PAIRLIST TRIGGER       0.3
Info: PAIRLISTS PER CYCLE    2
Info: PAIRLISTS ENABLED
Info: MARGIN                 2
Info: HYDROGEN GROUP CUTOFF  2.5
Info: PATCH DIMENSION        15.5
Info: ENERGY OUTPUT STEPS    100000
Info: ENERGY EVALUATION STEPS    100000
Info: OUTPUT ENERGY PRECISION 4
Info: CROSSTERM ENERGY INCLUDED IN DIHEDRAL
Info: TIMING OUTPUT STEPS    1000000
Info: PRESSURE OUTPUT STEPS  100000
Info: ALCHEMICAL FEP ON
Info: FEP CURRENT LAMBDA VALUE     1
Info: FEP COMPARISON LAMBDA VALUE  0.95
Info: FEP INTRA-ALCHEMICAL NON-BONDED INTERACTIONS WILL BE RETAINED
Info: FEP INTRA-ALCHEMICAL BONDED INTERACTIONS WILL BE RETAINED
Info: FEP VDW SHIFTING COEFFICIENT 5
Info: FEP ELEC. ACTIVE FOR ANNIHILATED PARTICLES BETWEEN LAMBDA = 0 AND LAMBDA = 0.5
Info: FEP ELEC. ACTIVE FOR EXNIHILATED PARTICLES BETWEEN LAMBDA = 0.5 AND LAMBDA = 1
Info: FEP VDW ACTIVE FOR ANNIHILATED PARTICLES BETWEEN LAMBDA = 0 AND LAMBDA = 1
Info: FEP VDW ACTIVE FOR EXNIHILATED PARTICLES BETWEEN LAMBDA = 0 AND LAMBDA = 1
Info: FEP BOND ACTIVE FOR ANNIHILATED PARTICLES BETWEEN LAMBDA = 1 AND LAMBDA = 1
Info: FEP BOND ACTIVE FOR EXNIHILATED PARTICLES BETWEEN LAMBDA = 0 AND LAMBDA = 0
Info: LANGEVIN DYNAMICS ACTIVE
Info: LANGEVIN TEMPERATURE   300
Info: LANGEVIN USING BBK INTEGRATOR
Info: LANGEVIN DAMPING COEFFICIENT IS 1 INVERSE PS
Info: LANGEVIN DYNAMICS APPLIED TO HYDROGENS
Info: LANGEVIN PISTON PRESSURE CONTROL ACTIVE
Info:        TARGET PRESSURE IS 1.01325 BAR
Info:     OSCILLATION PERIOD IS 50 FS
Info:             DECAY TIME IS 25 FS
Info:     PISTON TEMPERATURE IS 300 K
Info:       PRESSURE CONTROL IS GROUP-BASED
Info:    INITIAL STRAIN RATE IS -0.000178085 -0.000178085 -0.000178085
Info:       CELL FLUCTUATION IS ISOTROPIC
Info: PARTICLE MESH EWALD (PME) ACTIVE
Info: PME TOLERANCE               1e-06
Info: PME EWALD COEFFICIENT       0.348832
Info: PME INTERPOLATION ORDER     4
Info: PME GRID DIMENSIONS         36 36 28
Info: PME MAXIMUM GRID SPACING    1
Info: PME CALCULATION WILL BE PERFORMED ON GPU
Info: FULL ELECTROSTATIC EVALUATION FREQUENCY      2
Info: USING VERLET I (r-RESPA) MTS SCHEME.
Info: C1 SPLITTING OF LONG RANGE ELECTROSTATICS
Info: PLACING ATOMS IN PATCHES BY HYDROGEN GROUPS
Info: RIGID BONDS TO HYDROGEN : ALL
Info:         ERROR TOLERANCE : 1e-08
Info:          MAX ITERATIONS : 100
Info: RIGID WATER USING SETTLE ALGORITHM
Info: RANDOM NUMBER SEED     1743652529
Info: USE HYDROGEN BONDS?    NO
Info: Using AMBER format force field!
Info: AMBER PARM FILE        mobley_637522.prmtop
Info: COORDINATE PDB         mobley_637522.pdb
Info: Exclusions will be read from PARM file!
Info: SCNB (VDW SCALING)     2
Info: USING ARITHMETIC MEAN TO COMBINE L-J SIGMA PARAMETERS
Info: BINARY COORDINATES     mobley_637522_equil.coor
Info: SUMMARY OF PARAMETERS:
Info: 4 BONDS
Info: 2 ANGLES
Info:   2 HARMONIC
Info:   0 COSINE-BASED
Info: 2 DIHEDRAL
Info: 0 IMPROPER
Info: 0 CROSSTERM
Info: 0 VDW
Info: 10 VDW_PAIRS
Info: 0 NBTHOLE_PAIRS
Info: To read alchdata from file: mobley_637522.pdb
Info: To read alchflag data from column: 5
Info: STRUCTURE SUMMARY:
Info: 2970 ATOMS
Info: 2972 BONDS
Info: 42 ANGLES
Info: 78 DIHEDRALS
Info: 0 IMPROPERS
Info: 0 CROSSTERMS
Info: 3069 EXCLUSIONS
Info: 2956 RIGID BONDS
Info: ALCH: 0 ATOMS TO DISAPPEAR IN FINAL STATE
Info: ALCH: 24 ATOMS TO APPEAR IN FINAL STATE
Info: 5954 DEGREES OF FREEDOM
Info: 996 HYDROGEN GROUPS
Info: 3 ATOMS IN LARGEST HYDROGEN GROUP
Info: 996 MIGRATION GROUPS
Info: 3 ATOMS IN LARGEST MIGRATION GROUP
Info: TOTAL MASS = 17869.9 amu
Info: TOTAL CHARGE = -2.98023e-08 e
Info: MASS DENSITY = 0.970286 g/cm^3
Info: ATOM DENSITY = 0.0971123 atoms/A^3
Info: ADDED 0 IMPLICIT EXCLUSIONS
Info: NONBONDED TABLE R-SQUARED SPACING: 0.0625
Info: NONBONDED TABLE SIZE: 705 POINTS
Info: REDUCING NUMBER OF PATCHES TO IMPROVE LOAD BALANCE
Info: REMOVING COM VELOCITY -0.0781669 0.0859178 -0.063102
Info: Use 3D box decompostion in PME FFT.
Info: Updated CUDA force table with 4096 elements.
Info: Updated CUDA LJ table with 4 x 4 elements.
Info: Found 22 unique exclusion lists needing 72 bytes
TCL: Running for 1500000 steps
ETITLE: TS BOND ANGLE DIHED IMPRP ELECT VDW BOUNDARY MISC KINETIC TOTAL TEMP POTENTIAL TOTALAVG TEMPAVG PRESSURE GPRESSURE VOLUME PRESSAVG GPRESSAVG
ENERGY: 0 6.3582 7.8647 4.5330 0.0000 -10772.5487 1476.1076 0.0000 0.0000 1758.4053 -7519.2799 297.2354 -9277.6852 -7519.2799 297.2354 -36.1522 57.7435 30583.1637 -36.1522 57.7435
ENERGY: 300000 4.2074 7.3666 5.6169 0.0000 -10923.5445 1587.4242 0.0000 0.0000 1766.7893 -7552.1401 298.6526 -9318.9294 -7517.7268 299.0111 990.5415 1047.0707 30224.4623 101.7342 156.9857
ENERGY: 600000 5.9239 7.3780 7.4537 0.0000 -10709.2924 1444.8310 0.0000 0.0000 1812.3439 -7431.3619 306.3530 -9243.7058 -7490.6741 301.3647 44.5162 93.3342 30924.1862 18.8636 79.2776
ENERGY: 900000 7.2097 8.3716 2.3705 0.0000 -10666.3279 1417.4304 0.0000 0.0000 1680.4644 -7550.4813 284.0605 -9230.9457 -7510.2741 297.7278 -362.4226 -275.8542 30950.6252 55.1220 124.1265
ENERGY: 1200000 6.0621 5.2827 11.7584 0.0000 -10567.1890 1374.5063 0.0000 0.0000 1797.8190 -7371.7605 303.8978 -9169.5795 -7493.5205 299.0096 -477.5922 -465.8428 31092.9787 -60.1749 4.4444
ENERGY: 1500000 4.7263 3.2295 5.1134 0.0000 -10869.8950 1508.6708 0.0000 0.0000 1798.1611 -7549.9941 303.9556 -9348.1552 -7508.9116 298.9084 291.4467 300.2955 30363.8502 -15.7947 38.4404
TCL: Running FEP window   2: Lambda1 0.95   Lambda2 0.8999999999999999 [dLambda -0.050000000000000044]
TCL: Setting parameter firsttimestep to 0
TCL: Setting parameter alchLambda to 0.95
Info: NONBONDED TABLE R-SQUARED SPACING: 0.0625
Info: NONBONDED TABLE SIZE: 705 POINTS
TCL: Setting parameter alchLambda2 to 0.8999999999999999
Info: NONBONDED TABLE R-SQUARED SPACING: 0.0625
Info: NONBONDED TABLE SIZE: 705 POINTS
TCL: Running for 1500000 steps
ETITLE: TS BOND ANGLE DIHED IMPRP ELECT VDW BOUNDARY MISC KINETIC TOTAL TEMP POTENTIAL TOTALAVG TEMPAVG PRESSURE GPRESSURE VOLUME PRESSAVG GPRESSAVG
ENERGY: 0 4.7263 3.2295 5.1134 0.0000 -10868.5090 1509.2734 0.0000 0.0000 1797.3180 -7548.8485 303.8131 -9346.1665 -7548.8485 303.8131 207.6054 295.8660 30363.8502 207.6054 295.8660
ENERGY: 300000 6.1865 4.0724 5.6515 0.0000 -10751.9898 1444.6003 0.0000 0.0000 1772.5185 -7518.9605 299.6211 -9291.4790 -7484.7182 303.6550 -214.0255 -146.3305 30716.5340 183.9043 248.5174
ENERGY: 600000 4.8793 7.4905 5.2170 0.0000 -10785.2711 1483.5463 0.0000 0.0000 1777.6221 -7506.5158 300.4838 -9284.1380 -7500.3435 301.5371 371.7385 513.3064 30442.4408 -127.8546 -46.5215
ENERGY: 900000 4.8310 4.2010 4.7791 0.0000 -10776.9260 1454.3374 0.0000 0.0000 1798.2440 -7510.5335 303.9696 -9308.7775 -7500.1443 301.9495 328.4013 398.3790 30447.0541 -102.6707 -35.7738
ENERGY: 1200000 6.0834 6.5406 5.2642 0.0000 -10681.0194 1395.5423 0.0000 0.0000 1784.7376 -7482.8513 301.6865 -9267.5889 -7505.4404 300.8163 -506.6699 -485.6742 30736.6386 -38.2218 20.4326
ENERGY: 1500000 5.0773 5.0574 5.5278 0.0000 -10702.2502 1379.9875 0.0000 0.0000 1802.0807 -7504.5195 304.6182 -9306.6002 -7502.4620 301.4253 -1007.1849 -923.2469 31204.4226 -59.8253 0.9992
TCL: Running FEP window   3: Lambda1 0.8999999999999999 Lambda2 0.8499999999999999 [dLambda -0.050000000000000044]
TCL: Setting parameter firsttimestep to 0
TCL: Setting parameter alchLambda to 0.8999999999999999
Info: NONBONDED TABLE R-SQUARED SPACING: 0.0625
Info: NONBONDED TABLE SIZE: 705 POINTS
TCL: Setting parameter alchLambda2 to 0.8499999999999999
Info: NONBONDED TABLE R-SQUARED SPACING: 0.0625
Info: NONBONDED TABLE SIZE: 705 POINTS
TCL: Running for 1500000 steps
ETITLE: TS BOND ANGLE DIHED IMPRP ELECT VDW BOUNDARY MISC KINETIC TOTAL TEMP POTENTIAL TOTALAVG TEMPAVG PRESSURE GPRESSURE VOLUME PRESSAVG GPRESSAVG
ENERGY: 0 5.0774 5.0574 5.5278 0.0000 -10701.0615 1380.4012 0.0000 0.0000 1801.2090 -7503.7887 304.4708 -9304.9977 -7503.7887 304.4708 -1018.6147 -932.7194 31204.4226 -1018.6147 -932.7194
ENERGY: 300000 5.3815 4.6014 3.7215 0.0000 -10773.7929 1452.9246 0.0000 0.0000 1750.7154 -7556.4484 295.9355 -9307.1638 -7494.3914 300.0510 139.4919 112.7625 30984.5519 -24.0447 41.8467
ENERGY: 600000 5.0737 6.7640 4.0552 0.0000 -10854.0228 1456.8264 0.0000 0.0000 1774.8579 -7606.4456 300.0165 -9381.3035 -7493.6934 299.7284 13.1638 11.9753 29929.7700 6.7893 62.1603
ENERGY: 900000 4.0263 6.2777 3.4225 0.0000 -10799.3247 1472.6296 0.0000 0.0000 1785.3068 -7527.6618 301.7827 -9312.9685 -7511.9434 299.4303 -249.6556 -180.2202 31378.1224 -114.3968 -58.8026
ENERGY: 1200000 3.8238 4.7901 5.8269 0.0000 -10682.5737 1403.5269 0.0000 0.0000 1796.4460 -7468.1600 303.6657 -9264.6061 -7501.1939 299.7781 -370.5754 -350.6794 30699.0816 -79.0789 -32.7219
ENERGY: 1500000 3.2478 4.7591 8.1538 0.0000 -10791.6728 1481.5171 0.0000 0.0000 1742.8477 -7551.1473 294.6056 -9293.9950 -7506.9825 299.3103 700.8925 785.0037 29919.7270 -46.0490 1.2214
TCL: Running FEP window   4: Lambda1 0.8499999999999999 Lambda2 0.7999999999999998 [dLambda -0.050000000000000044]
TCL: Setting parameter firsttimestep to 0
TCL: Setting parameter alchLambda to 0.8499999999999999
Info: NONBONDED TABLE R-SQUARED SPACING: 0.0625
Info: NONBONDED TABLE SIZE: 705 POINTS
TCL: Setting parameter alchLambda2 to 0.7999999999999998
Info: NONBONDED TABLE R-SQUARED SPACING: 0.0625
Info: NONBONDED TABLE SIZE: 705 POINTS
TCL: Running for 1500000 steps
ETITLE: TS BOND ANGLE DIHED IMPRP ELECT VDW BOUNDARY MISC KINETIC TOTAL TEMP POTENTIAL TOTALAVG TEMPAVG PRESSURE GPRESSURE VOLUME PRESSAVG GPRESSAVG
ENERGY: 0 3.2478 4.7591 8.1538 0.0000 -10789.9928 1481.5652 0.0000 0.0000 1741.9972 -7550.2697 294.4618 -9292.2669 -7550.2697 294.4618 674.2099 770.3026 29919.7270 674.2099 770.3026
ENERGY: 300000 5.5500 4.9525 5.2104 0.0000 -10667.6990 1373.0905 0.0000 0.0000 1776.5645 -7502.3312 300.3050 -9278.8956 -7506.8247 297.7940 -778.4944 -687.1481 30728.8320 326.8047 390.1685
ENERGY: 600000 6.3702 6.1097 4.4042 0.0000 -10812.2037 1463.3763 0.0000 0.0000 1786.0205 -7545.9228 301.9034 -9331.9433 -7503.3081 298.7696 -21.1805 116.0290 30375.3174 307.5565 375.4016
ENERGY: 900000 4.7178 3.3640 6.2721 0.0000 -10661.8778 1404.8859 0.0000 0.0000 1781.2694 -7461.3686 301.1003 -9242.6380 -7519.0863 297.2856 -83.6108 21.2994 30643.3747 194.0392 260.8208
ENERGY: 1200000 7.8842 4.5239 5.4512 0.0000 -10663.0467 1384.5422 0.0000 0.0000 1802.6929 -7457.9525 304.7216 -9260.6454 -7511.0513 298.6034 -630.2765 -526.4346 30764.9154 73.6954 141.9968
ENERGY: 1500000 5.5389 9.8883 7.2147 0.0000 -10588.6016 1375.0879 0.0000 0.0000 1730.7414 -7460.1304 292.5592 -9190.8718 -7508.6571 298.8166 -414.7463 -308.6143 30431.3012 59.0817 127.2131
TCL: Running FEP window   5: Lambda1 0.7999999999999998 Lambda2 0.7499999999999998 [dLambda -0.050000000000000044]
TCL: Setting parameter firsttimestep to 0
TCL: Setting parameter alchLambda to 0.7999999999999998
Info: NONBONDED TABLE R-SQUARED SPACING: 0.0625
Info: NONBONDED TABLE SIZE: 705 POINTS
TCL: Setting parameter alchLambda2 to 0.7499999999999998
Info: NONBONDED TABLE R-SQUARED SPACING: 0.0625
Info: NONBONDED TABLE SIZE: 705 POINTS
TCL: Running for 1500000 steps
ETITLE: TS BOND ANGLE DIHED IMPRP ELECT VDW BOUNDARY MISC KINETIC TOTAL TEMP POTENTIAL TOTALAVG TEMPAVG PRESSURE GPRESSURE VOLUME PRESSAVG GPRESSAVG
ENERGY: 0 5.5389 9.8883 7.2147 0.0000 -10587.3970 1375.4361 0.0000 0.0000 1729.8490 -7459.4699 292.4083 -9189.3189 -7459.4699 292.4083 -411.0084 -315.5222 30431.3012 -411.0084 -315.5222
ENERGY: 300000 7.4167 7.2370 5.7652 0.0000 -10594.4155 1318.2220 0.0000 0.0000 1802.5430 -7453.2317 304.6963 -9255.7747 -7473.3460 298.4905 -1119.5494 -1034.7288 30697.6140 -451.3811 -365.1902
ENERGY: 600000 5.4867 4.6768 8.5677 0.0000 -10758.3271 1490.6116 0.0000 0.0000 1737.8548 -7511.1295 293.7616 -9248.9843 -7489.0071 297.8350 330.7360 346.1320 30701.2735 -264.4245 -190.2016
ENERGY: 900000 2.2914 6.8308 3.8039 0.0000 -10687.8836 1441.6710 0.0000 0.0000 1758.7333 -7474.5532 297.2908 -9233.2865 -7481.5122 297.4779 237.5026 286.0646 30718.2314 -277.6872 -220.0086
ENERGY: 1200000 4.0362 5.4879 4.0560 0.0000 -10670.4404 1434.2381 0.0000 0.0000 1770.5233 -7452.0988 299.2838 -9222.6221 -7480.6850 298.3433 8.6428 115.5491 30739.6049 -211.1960 -139.5545
ENERGY: 1500000 3.2324 3.9022 5.7356 0.0000 -10660.5666 1406.8421 0.0000 0.0000 1749.0375 -7491.8168 295.6519 -9240.8543 -7483.6163 298.5151 -402.4587 -362.7139 30912.5612 -232.9603 -167.6846
TCL: Running FEP window   6: Lambda1 0.7499999999999998 Lambda2 0.6999999999999997 [dLambda -0.050000000000000044]
TCL: Setting parameter firsttimestep to 0
TCL: Setting parameter alchLambda to 0.7499999999999998
Info: NONBONDED TABLE R-SQUARED SPACING: 0.0625
Info: NONBONDED TABLE SIZE: 705 POINTS
TCL: Setting parameter alchLambda2 to 0.6999999999999997
Info: NONBONDED TABLE R-SQUARED SPACING: 0.0625
Info: NONBONDED TABLE SIZE: 705 POINTS
TCL: Running for 1500000 steps
ETITLE: TS BOND ANGLE DIHED IMPRP ELECT VDW BOUNDARY MISC KINETIC TOTAL TEMP POTENTIAL TOTALAVG TEMPAVG PRESSURE GPRESSURE VOLUME PRESSAVG GPRESSAVG
ENERGY: 0 3.2324 3.9022 5.7356 0.0000 -10659.5243 1406.5008 0.0000 0.0000 1748.1912 -7491.9622 295.5088 -9240.1533 -7491.9622 295.5088 -459.9474 -376.2881 30912.5612 -459.9474 -376.2881
ENERGY: 300000 5.6272 2.8893 5.8260 0.0000 -10782.1905 1458.0158 0.0000 0.0000 1767.0623 -7542.7699 298.6988 -9309.8322 -7518.3226 296.6485 486.2034 578.3952 29960.0915 -278.3349 -202.7628
ENERGY: 600000 3.8436 3.2862 5.7323 0.0000 -10717.4613 1445.3348 0.0000 0.0000 1771.2428 -7488.0216 299.4054 -9259.2644 -7510.9054 297.1768 -174.7817 -74.0505 30816.0819 -89.2410 -3.2070
ENERGY: 900000 9.2624 6.1743 6.8050 0.0000 -10710.0054 1444.3073 0.0000 0.0000 1805.7822 -7437.6741 305.2439 -9243.4563 -7487.2335 298.6688 23.9906 54.6770 30277.1871 -131.3738 -59.6310
ENERGY: 1200000 6.2143 8.6187 4.6687 0.0000 -10748.4267 1457.9445 0.0000 0.0000 1792.6344 -7478.3461 303.0214 -9270.9804 -7490.2372 299.3555 -170.8104 -59.7087 30874.5103 -79.1319 -13.1542
ENERGY: 1500000 6.0237 4.8070 4.9361 0.0000 -10736.1989 1427.6408 0.0000 0.0000 1703.2126 -7589.5786 287.9058 -9292.7912 -7500.1679 299.0745 -156.3706 -104.9750 30234.4276 -137.3272 -76.3456
TCL: Running FEP window   7: Lambda1 0.6999999999999997 Lambda2 0.6499999999999997 [dLambda -0.050000000000000044]
TCL: Setting parameter firsttimestep to 0
TCL: Setting parameter alchLambda to 0.6999999999999997
Info: NONBONDED TABLE R-SQUARED SPACING: 0.0625
Info: NONBONDED TABLE SIZE: 705 POINTS
TCL: Setting parameter alchLambda2 to 0.6499999999999997
Info: NONBONDED TABLE R-SQUARED SPACING: 0.0625
Info: NONBONDED TABLE SIZE: 705 POINTS
TCL: Running for 1500000 steps
ETITLE: TS BOND ANGLE DIHED IMPRP ELECT VDW BOUNDARY MISC KINETIC TOTAL TEMP POTENTIAL TOTALAVG TEMPAVG PRESSURE GPRESSURE VOLUME PRESSAVG GPRESSAVG
ENERGY: 0 6.0237 4.8070 4.9361 0.0000 -10735.0965 1427.9651 0.0000 0.0000 1702.3082 -7589.0563 287.7529 -9291.3645 -7589.0563 287.7529 -199.5763 -110.7983 30234.4276 -199.5763 -110.7983
ENERGY: 300000 6.6159 5.6304 8.0189 0.0000 -10589.7899 1371.8593 0.0000 0.0000 1794.1354 -7403.5300 303.2751 -9197.6654 -7469.8076 297.3316 -511.8605 -445.1402 30662.5951 147.5194 204.8076
ENERGY: 600000 6.4502 7.1624 8.6218 0.0000 -10687.8112 1429.2091 0.0000 0.0000 1795.0979 -7441.2698 303.4378 -9236.3677 -7478.8308 298.3394 -223.3082 -230.3952 31013.7990 21.1610 73.1321
ENERGY: 900000 6.6601 9.5168 11.5533 0.0000 -10588.9232 1410.5624 0.0000 0.0000 1756.1195 -7394.5110 296.8490 -9150.6306 -7474.1215 298.0659 -97.2855 -41.6498 30921.2583 -129.5264 -72.7338
ENERGY: 1200000 7.3974 4.8627 4.5645 0.0000 -10619.2606 1374.6686 0.0000 0.0000 1743.9821 -7483.7854 294.7973 -9227.7675 -7475.1088 298.3294 -725.1158 -684.2109 31524.0197 -186.4110 -129.6788
ENERGY: 1500000 6.3925 8.7474 6.3554 0.0000 -10734.3470 1445.9722 0.0000 0.0000 1793.3733 -7473.5062 303.1463 -9266.8794 -7478.5347 298.7023 -330.4194 -326.7262 30979.2243 -166.0239 -104.6910
TCL: Running FEP window   8: Lambda1 0.6499999999999997 Lambda2 0.5999999999999996 [dLambda -0.050000000000000044]
TCL: Setting parameter firsttimestep to 0
TCL: Setting parameter alchLambda to 0.6499999999999997
Info: NONBONDED TABLE R-SQUARED SPACING: 0.0625
Info: NONBONDED TABLE SIZE: 705 POINTS
TCL: Setting parameter alchLambda2 to 0.5999999999999996
Info: NONBONDED TABLE R-SQUARED SPACING: 0.0625
Info: NONBONDED TABLE SIZE: 705 POINTS
TCL: Running for 1500000 steps
ETITLE: TS BOND ANGLE DIHED IMPRP ELECT VDW BOUNDARY MISC KINETIC TOTAL TEMP POTENTIAL TOTALAVG TEMPAVG PRESSURE GPRESSURE VOLUME PRESSAVG GPRESSAVG
ENERGY: 0 6.3926 8.7474 6.3554 0.0000 -10734.3474 1446.2295 0.0000 0.0000 1792.4863 -7474.1364 302.9963 -9266.6226 -7474.1364 302.9963 -427.0399 -335.7042 30979.2243 -427.0399 -335.7042
ENERGY: 300000 5.0165 4.5813 8.8538 0.0000 -10663.1332 1356.5284 0.0000 0.0000 1767.9487 -7520.2047 298.8486 -9288.1534 -7476.0904 300.9525 -717.3475 -598.2306 30558.3181 -418.6793 -346.8602
ENERGY: 600000 6.4187 3.7146 5.4486 0.0000 -10799.3307 1489.8671 0.0000 0.0000 1795.5389 -7498.3428 303.5124 -9293.8816 -7477.8589 301.0183 356.9724 425.1306 30302.5183 -227.7719 -160.4343
ENERGY: 900000 8.4267 5.0368 5.4375 0.0000 -10732.1713 1438.7941 0.0000 0.0000 1760.1332 -7514.3431 297.5275 -9274.4763 -7477.3562 301.8180 -562.3073 -479.8921 30715.5208 -110.8277 -51.9742
ENERGY: 1200000 5.8421 12.4558 5.4177 0.0000 -10795.9992 1528.6791 0.0000 0.0000 1762.5678 -7481.0366 297.9390 -9243.6044 -7469.6693 301.1925 882.8733 833.6085 30316.0546 9.5335 55.0118
ENERGY: 1500000 3.5543 7.2895 4.6335 0.0000 -10685.6088 1465.7324 0.0000 0.0000 1857.0270 -7347.3721 313.9061 -9204.3991 -7468.5861 301.6468 503.0591 610.0904 30516.4352 30.8419 77.1034
TCL: Running FEP window   9: Lambda1 0.5999999999999996 Lambda2 0.5499999999999996 [dLambda -0.050000000000000044]
TCL: Setting parameter firsttimestep to 0
TCL: Setting parameter alchLambda to 0.5999999999999996
Info: NONBONDED TABLE R-SQUARED SPACING: 0.0625
Info: NONBONDED TABLE SIZE: 705 POINTS
TCL: Setting parameter alchLambda2 to 0.5499999999999996
Info: NONBONDED TABLE R-SQUARED SPACING: 0.0625
Info: NONBONDED TABLE SIZE: 705 POINTS
TCL: Running for 1500000 steps
ETITLE: TS BOND ANGLE DIHED IMPRP ELECT VDW BOUNDARY MISC KINETIC TOTAL TEMP POTENTIAL TOTALAVG TEMPAVG PRESSURE GPRESSURE VOLUME PRESSAVG GPRESSAVG
ENERGY: 0 3.5543 7.2895 4.6335 0.0000 -10684.7398 1466.3555 0.0000 0.0000 1856.1373 -7346.7697 313.7557 -9202.9070 -7346.7697 313.7557 527.7772 608.9600 30516.4352 527.7772 608.9600
ENERGY: 300000 7.6513 4.0215 8.4588 0.0000 -10787.3880 1438.1590 0.0000 0.0000 1785.7534 -7543.3441 301.8582 -9329.0974 -7474.3013 302.4364 -530.0087 -517.4225 30726.2363 -384.2954 -326.3352
ENERGY: 600000 5.4132 4.5000 6.6256 0.0000 -10689.4084 1437.0338 0.0000 0.0000 1756.2234 -7479.6124 296.8666 -9235.8358 -7465.5082 301.8107 310.8951 323.6469 30221.0183 -173.9246 -122.0675
ENERGY: 900000 6.6840 4.5609 9.0068 0.0000 -10669.0128 1429.1673 0.0000 0.0000 1804.2835 -7415.3103 304.9905 -9219.5938 -7460.7267 300.5831 -101.4233 -37.5113 30545.1915 -276.7604 -219.8701
ENERGY: 1200000 2.5489 5.4661 5.4315 0.0000 -10759.8187 1447.2067 0.0000 0.0000 1787.5592 -7511.6063 302.1635 -9299.1655 -7466.5357 300.0495 116.5344 186.7782 30297.0424 -279.3451 -221.1135
ENERGY: 1500000 8.0494 9.0589 11.1378 0.0000 -10721.2065 1446.6529 0.0000 0.0000 1776.9564 -7469.3509 300.3712 -9246.3074 -7468.3273 300.1251 -96.9236 -39.6982 30573.7099 -269.7333 -213.9166
TCL: Running FEP window  10: Lambda1 0.5499999999999996 Lambda2 0.4999999999999996 [dLambda -0.04999999999999999]
TCL: Setting parameter firsttimestep to 0
TCL: Setting parameter alchLambda to 0.5499999999999996
Info: NONBONDED TABLE R-SQUARED SPACING: 0.0625
Info: NONBONDED TABLE SIZE: 705 POINTS
TCL: Setting parameter alchLambda2 to 0.4999999999999996
Info: NONBONDED TABLE R-SQUARED SPACING: 0.0625
Info: NONBONDED TABLE SIZE: 705 POINTS
TCL: Running for 1500000 steps
ETITLE: TS BOND ANGLE DIHED IMPRP ELECT VDW BOUNDARY MISC KINETIC TOTAL TEMP POTENTIAL TOTALAVG TEMPAVG PRESSURE GPRESSURE VOLUME PRESSAVG GPRESSAVG
ENERGY: 0 8.0494 9.0589 11.1378 0.0000 -10720.9248 1447.5033 0.0000 0.0000 1776.0990 -7469.0762 300.2263 -9245.1753 -7469.0762 300.2263 -116.9318 -44.0990 30573.7099 -116.9318 -44.0990
ENERGY: 300000 6.0443 3.0072 4.0595 0.0000 -10760.0152 1446.3786 0.0000 0.0000 1770.8242 -7529.7014 299.3347 -9300.5256 -7461.5300 303.2029 -98.4491 -40.4774 30464.8944 -266.7629 -201.2805
ENERGY: 600000 3.1084 9.2834 8.1596 0.0000 -10613.5576 1450.3440 0.0000 0.0000 1762.0120 -7380.6501 297.8451 -9142.6621 -7429.9583 302.6449 608.0793 650.5228 30650.1316 -117.3441 -49.2400
ENERGY: 900000 4.2564 3.1780 5.7301 0.0000 -10772.2581 1490.5195 0.0000 0.0000 1739.2062 -7529.3678 293.9900 -9268.5740 -7445.5037 300.1906 314.6583 392.5838 30572.0689 -47.1312 27.8220
ENERGY: 1200000 9.7727 4.8892 4.1400 0.0000 -10696.5767 1465.2306 0.0000 0.0000 1760.3590 -7452.1852 297.5657 -9212.5442 -7449.8916 300.3192 44.2466 95.6783 30835.0814 76.5355 149.4488
ENERGY: 1500000 4.3184 8.3502 6.4596 0.0000 -10898.8028 1508.9286 0.0000 0.0000 1744.5212 -7626.2248 294.8885 -9370.7460 -7466.3432 299.6072 338.3192 429.2706 30097.2185 110.7357 190.8763
TCL: Running FEP window  11: Lambda1 0.4999999999999996 Lambda2 0.4499999999999996 [dLambda -0.04999999999999999]
TCL: Setting parameter firsttimestep to 0
TCL: Setting parameter alchLambda to 0.4999999999999996
Info: NONBONDED TABLE R-SQUARED SPACING: 0.0625
Info: NONBONDED TABLE SIZE: 705 POINTS
TCL: Setting parameter alchLambda2 to 0.4499999999999996
Info: NONBONDED TABLE R-SQUARED SPACING: 0.0625
Info: NONBONDED TABLE SIZE: 705 POINTS
TCL: Running for 1500000 steps
ETITLE: TS BOND ANGLE DIHED IMPRP ELECT VDW BOUNDARY MISC KINETIC TOTAL TEMP POTENTIAL TOTALAVG TEMPAVG PRESSURE GPRESSURE VOLUME PRESSAVG GPRESSAVG
ENERGY: 0 4.3185 8.3502 6.4596 0.0000 -10898.7845 1509.0713 0.0000 0.0000 1743.6418 -7626.9431 294.7398 -9370.5849 -7626.9431 294.7398 337.4463 422.5711 30097.2185 337.4463 422.5711
ENERGY: 300000 3.9154 4.4166 6.6460 0.0000 -10685.0130 1456.5701 0.0000 0.0000 1750.4220 -7463.0429 295.8859 -9213.4649 -7466.6985 299.2513 249.6918 350.8885 30518.6443 119.4152 170.9093
ENERGY: 600000 9.0264 2.8815 8.9649 0.0000 -10785.6683 1509.2140 0.0000 0.0000 1801.2657 -7454.3158 304.4804 -9255.5815 -7450.2641 300.8225 480.5718 511.0385 30399.5137 138.2495 190.1925
ENERGY: 900000 11.5250 5.9052 5.0427 0.0000 -10715.4483 1420.1093 0.0000 0.0000 1762.2212 -7510.6449 297.8804 -9272.8661 -7461.0315 300.7686 -757.3235 -772.4535 31046.0575 -60.8275 -14.3138
ENERGY: 1200000 6.0677 7.9867 5.8942 0.0000 -10774.4611 1454.0279 0.0000 0.0000 1770.3950 -7530.0895 299.2621 -9300.4846 -7462.9574 301.9709 -230.0980 -195.7564 30460.4463 -153.7027 -104.5012
ENERGY: 1500000 5.7666 4.8608 5.6194 0.0000 -10748.0925 1431.4871 0.0000 0.0000 1735.1092 -7565.2494 293.2975 -9300.3586 -7469.4424 300.6157 -238.5342 -166.5438 30438.2122 -159.4882 -112.4829
TCL: Running FEP window  12: Lambda1 0.4499999999999996 Lambda2 0.39999999999999963 [dLambda -0.04999999999999999]
TCL: Setting parameter firsttimestep to 0
TCL: Setting parameter alchLambda to 0.4499999999999996
Info: NONBONDED TABLE R-SQUARED SPACING: 0.0625
Info: NONBONDED TABLE SIZE: 705 POINTS
TCL: Setting parameter alchLambda2 to 0.39999999999999963
Info: NONBONDED TABLE R-SQUARED SPACING: 0.0625
Info: NONBONDED TABLE SIZE: 705 POINTS
TCL: Running for 1500000 steps
ETITLE: TS BOND ANGLE DIHED IMPRP ELECT VDW BOUNDARY MISC KINETIC TOTAL TEMP POTENTIAL TOTALAVG TEMPAVG PRESSURE GPRESSURE VOLUME PRESSAVG GPRESSAVG
ENERGY: 0 5.7666 4.8608 5.6194 0.0000 -10748.0937 1431.4749 0.0000 0.0000 1734.2490 -7566.1231 293.1521 -9300.3720 -7566.1231 293.1521 -254.1463 -175.6123 30438.2122 -254.1463 -175.6123
ENERGY: 300000 4.6938 8.0251 6.3785 0.0000 -10646.0147 1389.7327 0.0000 0.0000 1808.2555 -7428.9291 305.6619 -9237.1846 -7475.5585 301.0300 -371.2464 -281.0651 30178.8039 -95.6157 -42.0337
ENERGY: 600000 6.2899 2.5748 9.1825 0.0000 -10806.3099 1567.6867 0.0000 0.0000 1776.3392 -7444.2368 300.2669 -9220.5761 -7478.8728 300.6999 1048.2277 1100.8450 30435.8922 234.7314 283.3741
ENERGY: 900000 2.2699 8.9160 4.7582 0.0000 -10740.7053 1482.3901 0.0000 0.0000 1841.1421 -7401.2289 311.2210 -9242.3710 -7466.2465 302.6963 257.0829 396.0325 30829.9873 182.8174 238.2961
ENERGY: 1200000 3.8894 6.1847 4.9253 0.0000 -10588.4006 1433.3665 0.0000 0.0000 1806.1897 -7333.8449 305.3127 -9140.0346 -7455.9911 302.2906 385.0814 440.4504 30723.2854 235.9642 288.3118
ENERGY: 1500000 6.8226 6.9895 6.3825 0.0000 -10801.2799 1521.3149 0.0000 0.0000 1719.8125 -7539.9578 290.7118 -9259.7704 -7467.5799 300.3391 249.3155 280.5742 30959.9719 307.1547 360.8853
TCL: Running FEP window  13: Lambda1 0.39999999999999963 Lambda2 0.34999999999999964 [dLambda -0.04999999999999999]
TCL: Setting parameter firsttimestep to 0
TCL: Setting parameter alchLambda to 0.39999999999999963
Info: NONBONDED TABLE R-SQUARED SPACING: 0.0625
Info: NONBONDED TABLE SIZE: 705 POINTS
TCL: Setting parameter alchLambda2 to 0.34999999999999964
Info: NONBONDED TABLE R-SQUARED SPACING: 0.0625
Info: NONBONDED TABLE SIZE: 705 POINTS
TCL: Running for 1500000 steps
ETITLE: TS BOND ANGLE DIHED IMPRP ELECT VDW BOUNDARY MISC KINETIC TOTAL TEMP POTENTIAL TOTALAVG TEMPAVG PRESSURE GPRESSURE VOLUME PRESSAVG GPRESSAVG
ENERGY: 0 6.8226 6.9895 6.3825 0.0000 -10801.2788 1521.3731 0.0000 0.0000 1718.9091 -7540.8020 290.5591 -9259.7111 -7540.8020 290.5591 188.0182 272.7977 30959.9719 188.0182 272.7977
ENERGY: 300000 7.5502 7.8691 6.7857 0.0000 -10694.3634 1461.0361 0.0000 0.0000 1779.8038 -7431.3185 300.8525 -9211.1223 -7490.4019 295.7056 68.7452 119.4870 30321.6111 197.8344 273.5843
ENERGY: 600000 9.0442 5.4564 5.4093 0.0000 -10878.4112 1529.3219 0.0000 0.0000 1718.6960 -7610.4835 290.5231 -9329.1795 -7514.5889 296.8498 92.2961 144.8390 30747.3102 74.2062 127.7720
ENERGY: 900000 3.7607 8.2529 7.1614 0.0000 -10701.7106 1491.4428 0.0000 0.0000 1720.7133 -7470.3795 290.8641 -9191.0929 -7499.4314 298.1871 261.4988 343.3221 30836.2697 154.6755 214.1181
ENERGY: 1200000 4.6161 6.5029 6.3242 0.0000 -10743.4525 1455.2163 0.0000 0.0000 1765.3575 -7505.4354 298.4106 -9270.7929 -7495.8665 299.1822 177.7104 197.2427 30191.8799 128.1503 193.1552
ENERGY: 1500000 7.5924 6.6766 8.3349 0.0000 -10831.3712 1515.5976 0.0000 0.0000 1772.1570 -7521.0128 299.5599 -9293.1697 -7496.9131 299.2987 444.7483 533.0702 30286.3925 116.7365 180.5969
TCL: Running FEP window  14: Lambda1 0.34999999999999964 Lambda2 0.29999999999999966 [dLambda -0.04999999999999999]
TCL: Setting parameter firsttimestep to 0
TCL: Setting parameter alchLambda to 0.34999999999999964
Info: NONBONDED TABLE R-SQUARED SPACING: 0.0625
Info: NONBONDED TABLE SIZE: 705 POINTS
TCL: Setting parameter alchLambda2 to 0.29999999999999966
Info: NONBONDED TABLE R-SQUARED SPACING: 0.0625
Info: NONBONDED TABLE SIZE: 705 POINTS
TCL: Running for 1500000 steps
ETITLE: TS BOND ANGLE DIHED IMPRP ELECT VDW BOUNDARY MISC KINETIC TOTAL TEMP POTENTIAL TOTALAVG TEMPAVG PRESSURE GPRESSURE VOLUME PRESSAVG GPRESSAVG
ENERGY: 0 7.5924 6.6765 8.3349 0.0000 -10831.3712 1515.9025 0.0000 0.0000 1771.2606 -7521.6042 299.4084 -9292.8648 -7521.6042 299.4084 449.8139 528.6018 30286.3925 449.8139 528.6018
ENERGY: 300000 3.8389 7.0599 6.4343 0.0000 -10716.5834 1439.2484 0.0000 0.0000 1789.3673 -7470.6347 302.4691 -9260.0020 -7501.0546 298.3149 -182.0616 -149.6545 30428.4515 -196.0716 -127.9155
ENERGY: 600000 3.5430 7.8929 9.4454 0.0000 -10678.6598 1416.7663 0.0000 0.0000 1795.8715 -7445.1407 303.5686 -9241.0122 -7490.9241 299.3328 108.7229 213.2688 30265.5284 -70.1630 -12.2991
ENERGY: 900000 3.9707 4.9081 5.9763 0.0000 -10637.1281 1402.2005 0.0000 0.0000 1780.6731 -7439.3995 300.9995 -9220.0725 -7494.1228 300.2483 -51.8369 12.8975 30139.3304 -68.7329 -12.8406
ENERGY: 1200000 5.3274 5.8400 5.8034 0.0000 -10644.9228 1402.5315 0.0000 0.0000 1824.0524 -7401.3682 308.3322 -9225.4206 -7489.3843 300.7521 -200.4166 -77.2669 30346.5590 -95.1257 -25.1812
ENERGY: 1500000 3.6500 3.2379 4.6355 0.0000 -10720.0025 1418.9992 0.0000 0.0000 1780.3766 -7509.1033 300.9494 -9289.4800 -7489.4232 301.3863 -257.4504 -239.9734 30255.4608 -73.3280 -9.3287
TCL: Running FEP window  15: Lambda1 0.29999999999999966 Lambda2 0.24999999999999967 [dLambda -0.04999999999999999]
TCL: Setting parameter firsttimestep to 0
TCL: Setting parameter alchLambda to 0.29999999999999966
Info: NONBONDED TABLE R-SQUARED SPACING: 0.0625
Info: NONBONDED TABLE SIZE: 705 POINTS
TCL: Setting parameter alchLambda2 to 0.24999999999999967
Info: NONBONDED TABLE R-SQUARED SPACING: 0.0625
Info: NONBONDED TABLE SIZE: 705 POINTS
TCL: Running for 1500000 steps
ETITLE: TS BOND ANGLE DIHED IMPRP ELECT VDW BOUNDARY MISC KINETIC TOTAL TEMP POTENTIAL TOTALAVG TEMPAVG PRESSURE GPRESSURE VOLUME PRESSAVG GPRESSAVG
ENERGY: 0 3.6500 3.2379 4.6355 0.0000 -10720.0023 1419.6177 0.0000 0.0000 1779.4910 -7509.3702 300.7997 -9288.8612 -7509.3702 300.7997 -324.6007 -241.0956 30255.4608 -324.6007 -241.0956
ENERGY: 300000 4.3786 5.0645 5.9315 0.0000 -10599.8275 1336.2178 0.0000 0.0000 1783.9956 -7464.2395 301.5611 -9248.2351 -7495.0792 299.9644 -989.7414 -858.4145 30681.3325 -429.2546 -339.9243
ENERGY: 600000 6.8687 7.8743 4.8756 0.0000 -10691.9066 1459.4433 0.0000 0.0000 1804.7716 -7408.0731 305.0730 -9212.8447 -7479.5054 301.1116 191.7630 324.5196 30158.7534 -270.1173 -185.8129
ENERGY: 900000 3.4398 6.5591 11.6792 0.0000 -10751.2873 1475.7345 0.0000 0.0000 1731.0511 -7522.8236 292.6115 -9253.8747 -7474.9418 300.3264 -46.5851 110.9939 30782.4460 -165.3933 -86.2141
ENERGY: 1200000 4.4814 4.2147 7.7010 0.0000 -10802.5797 1536.5813 0.0000 0.0000 1741.3411 -7508.2600 294.3509 -9249.6011 -7489.5080 299.4842 820.8279 896.7852 30133.6067 13.2831 88.2585
ENERGY: 1500000 5.8595 5.0901 12.7222 0.0000 -10675.7364 1450.8682 0.0000 0.0000 1754.9738 -7446.2226 296.6554 -9201.1964 -7482.9026 299.4018 189.0344 259.8760 30390.5909 83.1365 156.5256
TCL: Running FEP window  16: Lambda1 0.24999999999999967 Lambda2 0.19999999999999968 [dLambda -0.04999999999999999]
TCL: Setting parameter firsttimestep to 0
TCL: Setting parameter alchLambda to 0.24999999999999967
Info: NONBONDED TABLE R-SQUARED SPACING: 0.0625
Info: NONBONDED TABLE SIZE: 705 POINTS
TCL: Setting parameter alchLambda2 to 0.19999999999999968
Info: NONBONDED TABLE R-SQUARED SPACING: 0.0625
Info: NONBONDED TABLE SIZE: 705 POINTS
TCL: Running for 1500000 steps
ETITLE: TS BOND ANGLE DIHED IMPRP ELECT VDW BOUNDARY MISC KINETIC TOTAL TEMP POTENTIAL TOTALAVG TEMPAVG PRESSURE GPRESSURE VOLUME PRESSAVG GPRESSAVG
ENERGY: 0 5.8595 5.0901 12.7222 0.0000 -10675.7373 1450.8771 0.0000 0.0000 1754.0583 -7447.1301 296.5006 -9201.1884 -7447.1301 296.5006 172.9886 252.1366 30390.5909 172.9886 252.1366
ENERGY: 300000 3.1352 10.2752 5.2602 0.0000 -10846.9660 1569.2168 0.0000 0.0000 1838.1492 -7420.9293 310.7151 -9259.0785 -7490.9274 299.0582 962.5603 1034.5211 30655.1648 305.5862 384.2096
ENERGY: 600000 5.7430 3.9781 3.5664 0.0000 -10679.6473 1371.1628 0.0000 0.0000 1819.2966 -7475.9003 307.5283 -9295.1969 -7492.8843 301.3892 -763.6579 -723.5724 30558.5252 55.8675 135.6452
ENERGY: 900000 5.4257 4.3235 7.2518 0.0000 -10616.6681 1388.3196 0.0000 0.0000 1792.3436 -7419.0038 302.9722 -9211.3474 -7462.6966 301.6825 -578.9679 -496.0355 30847.1300 -53.8595 29.8484
ENERGY: 1200000 5.3249 11.3011 4.9161 0.0000 -10651.0335 1384.5936 0.0000 0.0000 1754.8522 -7490.0455 296.6348 -9244.8977 -7477.8282 299.2644 -685.2972 -611.8745 30793.4093 -107.3723 -29.5856
ENERGY: 1500000 4.2962 5.7010 6.7902 0.0000 -10756.8548 1507.0628 0.0000 0.0000 1701.9362 -7531.0684 287.6900 -9233.0046 -7478.7972 298.8460 635.6217 746.7705 30253.9896 -29.5374 51.2811
TCL: Running FEP window  17: Lambda1 0.19999999999999968 Lambda2 0.1499999999999997 [dLambda -0.04999999999999999]
TCL: Setting parameter firsttimestep to 0
TCL: Setting parameter alchLambda to 0.19999999999999968
Info: NONBONDED TABLE R-SQUARED SPACING: 0.0625
Info: NONBONDED TABLE SIZE: 705 POINTS
TCL: Setting parameter alchLambda2 to 0.1499999999999997
Info: NONBONDED TABLE R-SQUARED SPACING: 0.0625
Info: NONBONDED TABLE SIZE: 705 POINTS
TCL: Running for 1500000 steps
ETITLE: TS BOND ANGLE DIHED IMPRP ELECT VDW BOUNDARY MISC KINETIC TOTAL TEMP POTENTIAL TOTALAVG TEMPAVG PRESSURE GPRESSURE VOLUME PRESSAVG GPRESSAVG
ENERGY: 0 4.2962 5.7010 6.7902 0.0000 -10756.8551 1506.8886 0.0000 0.0000 1701.0876 -7532.0916 287.5466 -9233.1791 -7532.0916 287.5466 638.0226 739.5747 30253.9896 638.0226 739.5747
ENERGY: 300000 5.9622 7.8576 8.9563 0.0000 -10650.1935 1432.7485 0.0000 0.0000 1800.5649 -7394.1041 304.3619 -9194.6690 -7511.8413 296.1407 2.3774 47.8518 30528.7574 168.1988 231.3929
ENERGY: 600000 6.3757 9.3887 5.9882 0.0000 -10670.2676 1429.0923 0.0000 0.0000 1761.1611 -7458.2616 297.7012 -9219.4227 -7480.2479 299.1434 -86.2922 -22.7214 30325.4052 -235.3520 -161.5671
ENERGY: 900000 4.3470 6.3619 6.0600 0.0000 -10688.6880 1395.3250 0.0000 0.0000 1744.4226 -7532.1715 294.8718 -9276.5940 -7486.0087 300.2713 -412.6125 -340.9559 30165.6869 -216.4602 -145.5424
ENERGY: 1200000 3.1978 4.6463 7.0510 0.0000 -10628.5455 1424.5823 0.0000 0.0000 1766.1897 -7422.8783 298.5513 -9189.0680 -7483.1067 300.4093 -357.1806 -265.3161 30947.5131 -265.5111 -196.4875
ENERGY: 1500000 10.2370 10.6174 2.4186 0.0000 -10707.6995 1392.2838 0.0000 0.0000 1767.1210 -7525.0217 298.7087 -9292.1427 -7483.7245 300.0063 -742.5185 -716.4277 30450.4938 -295.9868 -234.3116
TCL: Running FEP window  18: Lambda1 0.1499999999999997 Lambda2 0.09999999999999969 [dLambda -0.05 ]
TCL: Setting parameter firsttimestep to 0
TCL: Setting parameter alchLambda to 0.1499999999999997
Info: NONBONDED TABLE R-SQUARED SPACING: 0.0625
Info: NONBONDED TABLE SIZE: 705 POINTS
TCL: Setting parameter alchLambda2 to 0.09999999999999969
Info: NONBONDED TABLE R-SQUARED SPACING: 0.0625
Info: NONBONDED TABLE SIZE: 705 POINTS
TCL: Running for 1500000 steps
ETITLE: TS BOND ANGLE DIHED IMPRP ELECT VDW BOUNDARY MISC KINETIC TOTAL TEMP POTENTIAL TOTALAVG TEMPAVG PRESSURE GPRESSURE VOLUME PRESSAVG GPRESSAVG
ENERGY: 0 10.2370 10.6174 2.4186 0.0000 -10707.6978 1392.9254 0.0000 0.0000 1766.2037 -7525.2957 298.5536 -9291.4994 -7525.2957 298.5536 -803.8764 -715.8412 30450.4938 -803.8764 -715.8412
ENERGY: 300000 5.0318 8.7416 5.3216 0.0000 -10837.6086 1607.6061 0.0000 0.0000 1782.3381 -7428.5695 301.2809 -9210.9076 -7484.6544 302.0745 1060.6775 1087.1153 30713.2954 223.2918 284.3305
ENERGY: 600000 7.2565 5.1675 5.5430 0.0000 -10751.4745 1482.5599 0.0000 0.0000 1715.9782 -7534.9694 290.0637 -9250.9477 -7464.0655 300.5892 183.8108 242.5764 30276.0052 -62.7981 -10.3946
ENERGY: 900000 7.5166 5.2787 6.0388 0.0000 -10616.8861 1422.4890 0.0000 0.0000 1747.8468 -7427.7162 295.4506 -9175.5630 -7451.8400 300.5998 -48.5568 -34.1776 30803.7459 -15.3796 34.2435
ENERGY: 1200000 3.7260 3.6275 5.2076 0.0000 -10739.5602 1481.6398 0.0000 0.0000 1762.6093 -7482.7501 297.9460 -9245.3594 -7459.9899 301.1327 402.7507 455.5271 30134.5521 43.6287 107.6511
ENERGY: 1500000 7.2493 8.2098 7.3588 0.0000 -10645.4223 1381.4457 0.0000 0.0000 1755.4462 -7485.7126 296.7352 -9241.1588 -7478.6423 299.6829 -829.1096 -755.2560 30859.5780 -7.3608 52.9935
TCL: Running FEP window  19: Lambda1 0.09999999999999969 Lambda2 0.049999999999999684 [dLambda -0.05 ]
TCL: Setting parameter firsttimestep to 0
TCL: Setting parameter alchLambda to 0.09999999999999969
Info: NONBONDED TABLE R-SQUARED SPACING: 0.0625
Info: NONBONDED TABLE SIZE: 705 POINTS
TCL: Setting parameter alchLambda2 to 0.049999999999999684
Info: NONBONDED TABLE R-SQUARED SPACING: 0.0625
Info: NONBONDED TABLE SIZE: 705 POINTS
TCL: Running for 1500000 steps
ETITLE: TS BOND ANGLE DIHED IMPRP ELECT VDW BOUNDARY MISC KINETIC TOTAL TEMP POTENTIAL TOTALAVG TEMPAVG PRESSURE GPRESSURE VOLUME PRESSAVG GPRESSAVG
ENERGY: 0 7.2493 8.2098 7.3588 0.0000 -10645.4234 1381.8567 0.0000 0.0000 1754.5863 -7486.1625 296.5899 -9240.7489 -7486.1625 296.5899 -829.4397 -758.6743 30859.5780 -829.4397 -758.6743
ENERGY: 300000 4.4283 8.0276 5.4359 0.0000 -10693.9526 1448.7493 0.0000 0.0000 1795.7437 -7431.5678 303.5470 -9227.3115 -7461.1539 299.4284 -53.7347 -11.3278 30484.4833 -411.1667 -320.2684
ENERGY: 600000 4.2554 7.3915 6.4577 0.0000 -10855.4399 1529.2781 0.0000 0.0000 1805.3084 -7502.7488 305.1638 -9308.0572 -7484.5737 299.9960 377.4394 397.8919 30541.5060 -7.4202 58.6387
ENERGY: 900000 5.1340 9.4470 3.5552 0.0000 -10767.2147 1478.5381 0.0000 0.0000 1784.5431 -7485.9973 301.6537 -9270.5404 -7477.9563 300.0625 284.9793 349.3768 30329.9306 122.9251 179.2769
ENERGY: 1200000 10.2610 5.2206 5.0832 0.0000 -10711.1754 1397.7037 0.0000 0.0000 1707.8542 -7585.0527 288.6904 -9292.9069 -7482.9818 299.7875 -629.8959 -515.5404 30011.0385 88.4554 148.7033
ENERGY: 1500000 4.7313 4.7617 12.8394 0.0000 -10749.2483 1506.6903 0.0000 0.0000 1701.5738 -7518.6517 287.6288 -9220.2256 -7485.2596 299.4353 261.2434 395.0988 30548.9241 127.9999 191.4714
TCL: Running FEP window  20: Lambda1 0.049999999999999684 Lambda2 0.0    [dLambda -0.049999999999999684]
TCL: Setting parameter firsttimestep to 0
TCL: Setting parameter alchLambda to 0.049999999999999684
Info: NONBONDED TABLE R-SQUARED SPACING: 0.0625
Info: NONBONDED TABLE SIZE: 705 POINTS
TCL: Setting parameter alchLambda2 to 0.0
Info: NONBONDED TABLE R-SQUARED SPACING: 0.0625
Info: NONBONDED TABLE SIZE: 705 POINTS
TCL: Running for 1500000 steps
ETITLE: TS BOND ANGLE DIHED IMPRP ELECT VDW BOUNDARY MISC KINETIC TOTAL TEMP POTENTIAL TOTALAVG TEMPAVG PRESSURE GPRESSURE VOLUME PRESSAVG GPRESSAVG
ENERGY: 0 4.7313 4.7617 12.8394 0.0000 -10749.2490 1506.0063 0.0000 0.0000 1700.6893 -7520.2210 287.4793 -9220.9103 -7520.2210 287.4793 304.5737 391.5859 30548.9241 304.5737 391.5859
ENERGY: 300000 3.9428 9.3457 4.1426 0.0000 -10793.4519 1444.1831 0.0000 0.0000 1761.6151 -7570.2227 297.7780 -9331.8378 -7493.5290 295.6890 -106.9873 -87.3334 30189.8606 -80.7856 -27.0243
ENERGY: 600000 5.3488 4.1511 4.0131 0.0000 -10840.6533 1485.9103 0.0000 0.0000 1788.3655 -7552.8644 302.2998 -9341.2300 -7492.9721 297.5807 478.7594 569.3892 29750.5835 -0.3919 57.7813
ENERGY: 900000 3.7198 7.8168 4.7684 0.0000 -10750.7503 1521.6570 0.0000 0.0000 1835.0995 -7377.6888 310.1996 -9212.7883 -7484.8279 298.0065 592.3273 574.8083 30721.6109 21.6993 71.9269
ENERGY: 1200000 5.4025 4.8236 9.0235 0.0000 -10743.1436 1469.0138 0.0000 0.0000 1817.0564 -7437.8237 307.1496 -9254.8802 -7480.1140 298.8981 -58.5296 -11.2535 30444.8550 -42.9673 9.1975
ENERGY: 1500000 6.4752 7.4207 5.7590 0.0000 -10611.2255 1416.3914 0.0000 0.0000 1768.2554 -7406.9238 298.9004 -9175.1792 -7475.4395 299.1589 -187.6908 -179.9166 30657.9526 -12.5395 39.7886
TCL: Exiting due to exit command.
