Info: SIMULATION PARAMETERS:
Info: TIMESTEP               2
Info: NUMBER OF STEPS        0
Info: STEPS PER CYCLE        10
Info: PERIODIC CELL BASIS 1  30.758 0 0
Info: PERIODIC CELL BASIS 2  0 30.1197 0
Info: PERIODIC CELL BASIS 3  0 0 32.7
Info: PERIODIC CELL CENTER   0 0 0
Info: WRAPPING WATERS AROUND PERIODIC BOUNDARIES ON OUTPUT.
Info: WRAPPING ALL CLUSTERS AROUND PERIODIC BOUNDARIES ON OUTPUT.
Info: FIRST LDB TIMESTEP     50
Info: LAST LDB TIMESTEP     -1
Info: HOM BACKGROUND SCALING 1
Info: PME BACKGROUND SCALING 1
Info: MIN ATOMS PER PATCH    40
Info: EMPTY PATCH LOAD       40 ATOMS
Info: VELOCITY FILE          mobley_2725802_equil.vel
Info: CENTER OF MASS MOVING INITIALLY? NO
Info: DIELECTRIC             1
Info: EXCLUDE                SCALED ONE-FOUR
Info: 1-4 ELECTROSTATICS SCALED BY 0.833333
Info: MODIFIED 1-4 VDW PARAMETERS WILL BE USED
Info: DCD FILENAME           mobley_2725802_prod.dcd
Info: DCD FREQUENCY          100000
Info: DCD FIRST STEP         100000
Info: DCD FILE WILL CONTAIN UNIT CELL DATA
Info: XST FILENAME           mobley_2725802_prod.xst
Info: XST FREQUENCY          100000
Info: NO VELOCITY DCD OUTPUT
Info: NO FORCE DCD OUTPUT
Info: OUTPUT FILENAME        mobley_2725802_prod
Info: BINARY OUTPUT FILES WILL BE USED
Info: RESTART FILENAME       mobley_2725802_prod.restart
Info: RESTART FREQUENCY      100000
Info: BINARY RESTART FILES WILL BE USED
Info: CUTOFF                 9
Info: PAIRLIST DISTANCE      11
Info: PAIRLIST SHRINK RATE   0.01
Info: PAIRLIST GROW RATE     0.01
Info: PAIRLIST TRIGGER       0.3
Info: PAIRLISTS PER CYCLE    2
Info: PAIRLISTS ENABLED
Info: MARGIN                 2
Info: HYDROGEN GROUP CUTOFF  2.5
Info: PATCH DIMENSION        15.5
Info: ENERGY OUTPUT STEPS    100000
Info: ENERGY EVALUATION STEPS    100000
Info: OUTPUT ENERGY PRECISION 4
Info: CROSSTERM ENERGY INCLUDED IN DIHEDRAL
Info: TIMING OUTPUT STEPS    1000000
Info: PRESSURE OUTPUT STEPS  100000
Info: ALCHEMICAL FEP ON
Info: FEP CURRENT LAMBDA VALUE     1
Info: FEP COMPARISON LAMBDA VALUE  0.95
Info: FEP INTRA-ALCHEMICAL NON-BONDED INTERACTIONS WILL BE RETAINED
Info: FEP INTRA-ALCHEMICAL BONDED INTERACTIONS WILL BE RETAINED
Info: FEP VDW SHIFTING COEFFICIENT 5
Info: FEP ELEC. ACTIVE FOR ANNIHILATED PARTICLES BETWEEN LAMBDA = 0 AND LAMBDA = 0.5
Info: FEP ELEC. ACTIVE FOR EXNIHILATED PARTICLES BETWEEN LAMBDA = 0.5 AND LAMBDA = 1
Info: FEP VDW ACTIVE FOR ANNIHILATED PARTICLES BETWEEN LAMBDA = 0 AND LAMBDA = 1
Info: FEP VDW ACTIVE FOR EXNIHILATED PARTICLES BETWEEN LAMBDA = 0 AND LAMBDA = 1
Info: FEP BOND ACTIVE FOR ANNIHILATED PARTICLES BETWEEN LAMBDA = 1 AND LAMBDA = 1
Info: FEP BOND ACTIVE FOR EXNIHILATED PARTICLES BETWEEN LAMBDA = 0 AND LAMBDA = 0
Info: LANGEVIN DYNAMICS ACTIVE
Info: LANGEVIN TEMPERATURE   300
Info: LANGEVIN USING BBK INTEGRATOR
Info: LANGEVIN DAMPING COEFFICIENT IS 1 INVERSE PS
Info: LANGEVIN DYNAMICS APPLIED TO HYDROGENS
Info: LANGEVIN PISTON PRESSURE CONTROL ACTIVE
Info:        TARGET PRESSURE IS 1.01325 BAR
Info:     OSCILLATION PERIOD IS 50 FS
Info:             DECAY TIME IS 25 FS
Info:     PISTON TEMPERATURE IS 300 K
Info:       PRESSURE CONTROL IS GROUP-BASED
Info:    INITIAL STRAIN RATE IS 0.000664113 0.000664113 0.000664113
Info:       CELL FLUCTUATION IS ISOTROPIC
Info: PARTICLE MESH EWALD (PME) ACTIVE
Info: PME TOLERANCE               1e-06
Info: PME EWALD COEFFICIENT       0.348832
Info: PME INTERPOLATION ORDER     4
Info: PME GRID DIMENSIONS         32 32 36
Info: PME MAXIMUM GRID SPACING    1
Info: PME CALCULATION WILL BE PERFORMED ON GPU
Info: FULL ELECTROSTATIC EVALUATION FREQUENCY      2
Info: USING VERLET I (r-RESPA) MTS SCHEME.
Info: C1 SPLITTING OF LONG RANGE ELECTROSTATICS
Info: PLACING ATOMS IN PATCHES BY HYDROGEN GROUPS
Info: RIGID BONDS TO HYDROGEN : ALL
Info:         ERROR TOLERANCE : 1e-08
Info:          MAX ITERATIONS : 100
Info: RIGID WATER USING SETTLE ALGORITHM
Info: RANDOM NUMBER SEED     1743621338
Info: USE HYDROGEN BONDS?    NO
Info: Using AMBER format force field!
Info: AMBER PARM FILE        mobley_2725802.prmtop
Info: COORDINATE PDB         mobley_2725802.pdb
Info: Exclusions will be read from PARM file!
Info: SCNB (VDW SCALING)     2
Info: USING ARITHMETIC MEAN TO COMBINE L-J SIGMA PARAMETERS
Info: BINARY COORDINATES     mobley_2725802_equil.coor
Info: SUMMARY OF PARAMETERS:
Info: 9 BONDS
Info: 13 ANGLES
Info:   13 HARMONIC
Info:   0 COSINE-BASED
Info: 17 DIHEDRAL
Info: 0 IMPROPER
Info: 0 CROSSTERM
Info: 0 VDW
Info: 36 VDW_PAIRS
Info: 0 NBTHOLE_PAIRS
Info: To read alchdata from file: mobley_2725802.pdb
Info: To read alchflag data from column: 5
Info: STRUCTURE SUMMARY:
Info: 2947 ATOMS
Info: 2947 BONDS
Info: 36 ANGLES
Info: 67 DIHEDRALS
Info: 0 IMPROPERS
Info: 0 CROSSTERMS
Info: 3027 EXCLUSIONS
Info: 2939 RIGID BONDS
Info: ALCH: 0 ATOMS TO DISAPPEAR IN FINAL STATE
Info: ALCH: 19 ATOMS TO APPEAR IN FINAL STATE
Info: 5902 DEGREES OF FREEDOM
Info: 984 HYDROGEN GROUPS
Info: 4 ATOMS IN LARGEST HYDROGEN GROUP
Info: 984 MIGRATION GROUPS
Info: 4 ATOMS IN LARGEST MIGRATION GROUP
Info: TOTAL MASS = 17696.8 amu
Info: TOTAL CHARGE = -0.000100024 e
Info: MASS DENSITY = 0.970057 g/cm^3
Info: ATOM DENSITY = 0.0972801 atoms/A^3
Info: ADDED 0 IMPLICIT EXCLUSIONS
Info: NONBONDED TABLE R-SQUARED SPACING: 0.0625
Info: NONBONDED TABLE SIZE: 705 POINTS
Info: REMOVING COM VELOCITY -0.0624692 -0.135195 -0.0968535
Info: Use 3D box decompostion in PME FFT.
Info: Updated CUDA force table with 4096 elements.
Info: Updated CUDA LJ table with 8 x 8 elements.
Info: Found 22 unique exclusion lists needing 56 bytes
TCL: Running for 1500000 steps
ETITLE: TS BOND ANGLE DIHED IMPRP ELECT VDW BOUNDARY MISC KINETIC TOTAL TEMP POTENTIAL TOTALAVG TEMPAVG PRESSURE GPRESSURE VOLUME PRESSAVG GPRESSAVG
ENERGY: 0 1.6758 13.1216 10.8817 0.0000 -10532.1871 1306.3531 0.0000 0.0000 1784.8011 -7415.3538 304.3554 -9200.1549 -7415.3538 304.3554 -760.2208 -681.3832 30293.9682 -760.2208 -681.3832
ENERGY: 300000 1.6541 19.5709 10.3880 0.0000 -10719.5207 1472.1640 0.0000 0.0000 1740.3531 -7475.3906 296.7758 -9215.7437 -7467.2129 299.6290 422.2006 448.2470 30505.7852 -383.2081 -324.9559
ENERGY: 600000 1.1928 11.6652 14.5700 0.0000 -10790.1757 1491.1827 0.0000 0.0000 1716.8333 -7554.7318 292.7651 -9271.5651 -7483.4951 298.6613 381.7833 450.8271 30410.1055 -95.1542 -36.3358
ENERGY: 900000 2.6545 14.8399 11.2290 0.0000 -10657.2706 1423.1906 0.0000 0.0000 1750.2402 -7455.1163 298.4619 -9205.3564 -7476.9824 299.8605 -82.0788 18.0794 30445.7383 116.4742 171.4788
ENERGY: 1200000 1.7110 12.3507 12.2387 0.0000 -10803.3736 1499.2976 0.0000 0.0000 1805.5391 -7472.2365 307.8918 -9277.7756 -7464.9554 301.5150 670.1260 773.8066 30147.7015 110.4296 166.1846
ENERGY: 1500000 2.4367 12.9087 11.8478 0.0000 -10575.5321 1347.7721 0.0000 0.0000 1675.5910 -7524.9757 285.7322 -9200.5668 -7466.0833 300.5676 -691.8717 -637.5244 30248.6752 89.9571 144.5153
TCL: Running FEP window   2: Lambda1 0.95   Lambda2 0.8999999999999999 [dLambda -0.050000000000000044]
TCL: Setting parameter firsttimestep to 0
TCL: Setting parameter alchLambda to 0.95
Info: NONBONDED TABLE R-SQUARED SPACING: 0.0625
Info: NONBONDED TABLE SIZE: 705 POINTS
TCL: Setting parameter alchLambda2 to 0.8999999999999999
Info: NONBONDED TABLE R-SQUARED SPACING: 0.0625
Info: NONBONDED TABLE SIZE: 705 POINTS
TCL: Running for 1500000 steps
ETITLE: TS BOND ANGLE DIHED IMPRP ELECT VDW BOUNDARY MISC KINETIC TOTAL TEMP POTENTIAL TOTALAVG TEMPAVG PRESSURE GPRESSURE VOLUME PRESSAVG GPRESSAVG
ENERGY: 0 2.4366 12.9087 11.8478 0.0000 -10573.1845 1348.0415 0.0000 0.0000 1674.7549 -7523.1949 285.5896 -9197.9498 -7523.1949 285.5896 -737.7203 -646.2658 30248.6752 -737.7203 -646.2658
ENERGY: 300000 2.4696 13.9092 14.1206 0.0000 -10600.8703 1355.0198 0.0000 0.0000 1779.6480 -7435.7031 303.4767 -9215.3511 -7469.6516 296.4788 -647.0956 -691.8955 30939.2511 -342.5992 -294.4988
ENERGY: 600000 2.5202 9.0039 12.0590 0.0000 -10554.5038 1390.4839 0.0000 0.0000 1723.0853 -7417.3515 293.8312 -9140.4368 -7452.2537 296.6184 -256.5712 -198.3324 30922.2843 -212.4305 -153.2780
ENERGY: 900000 2.3395 17.7695 12.8452 0.0000 -10851.2956 1510.6072 0.0000 0.0000 1765.2563 -7542.4780 301.0225 -9307.7343 -7460.0672 298.3815 452.3464 520.9335 30175.9813 -159.5755 -98.9731
ENERGY: 1200000 4.5284 11.9691 13.5917 0.0000 -10687.4164 1407.0075 0.0000 0.0000 1727.3595 -7522.9601 294.5601 -9250.3196 -7468.6044 298.2395 -226.9145 -164.6259 30117.1503 -198.7864 -138.0663
ENERGY: 1500000 3.0927 16.5843 13.1505 0.0000 -10457.7047 1322.8727 0.0000 0.0000 1752.0809 -7349.9236 298.7757 -9102.0045 -7468.2494 298.6172 -668.1711 -594.1746 30845.0562 -169.3793 -109.2823
TCL: Running FEP window   3: Lambda1 0.8999999999999999 Lambda2 0.8499999999999999 [dLambda -0.050000000000000044]
TCL: Setting parameter firsttimestep to 0
TCL: Setting parameter alchLambda to 0.8999999999999999
Info: NONBONDED TABLE R-SQUARED SPACING: 0.0625
Info: NONBONDED TABLE SIZE: 705 POINTS
TCL: Setting parameter alchLambda2 to 0.8499999999999999
Info: NONBONDED TABLE R-SQUARED SPACING: 0.0625
Info: NONBONDED TABLE SIZE: 705 POINTS
TCL: Running for 1500000 steps
ETITLE: TS BOND ANGLE DIHED IMPRP ELECT VDW BOUNDARY MISC KINETIC TOTAL TEMP POTENTIAL TOTALAVG TEMPAVG PRESSURE GPRESSURE VOLUME PRESSAVG GPRESSAVG
ENERGY: 0 3.0927 16.5843 13.1505 0.0000 -10455.7398 1322.6094 0.0000 0.0000 1751.1951 -7349.1078 298.6247 -9100.3029 -7349.1078 298.6247 -683.5506 -605.4615 30845.0562 -683.5506 -605.4615
ENERGY: 300000 1.2512 16.6620 14.0536 0.0000 -10678.4364 1377.0488 0.0000 0.0000 1746.3292 -7523.0917 297.7949 -9269.4209 -7477.8496 298.2165 -677.8739 -622.9505 30755.1131 -348.9375 -295.5652
ENERGY: 600000 2.1734 9.0651 14.6446 0.0000 -10676.5721 1388.5039 0.0000 0.0000 1716.0920 -7546.0931 292.6387 -9262.1851 -7476.7661 298.8239 -500.2187 -446.7253 30529.6736 -286.1303 -233.7215
ENERGY: 900000 1.4120 14.9226 17.3720 0.0000 -10753.4842 1444.9235 0.0000 0.0000 1804.3996 -7470.4544 307.6975 -9274.8540 -7473.9460 300.4037 121.3249 141.4549 30274.5206 -135.6995 -91.5102
ENERGY: 1200000 0.8193 11.3900 12.1612 0.0000 -10667.4196 1374.1816 0.0000 0.0000 1759.6666 -7509.2009 300.0693 -9268.8675 -7471.3090 301.4267 -557.4913 -474.6867 30662.7236 -236.7932 -188.4976
ENERGY: 1500000 1.4367 13.9417 16.1520 0.0000 -10893.8772 1564.5694 0.0000 0.0000 1778.6789 -7519.0985 303.3114 -9297.7773 -7480.3921 300.3609 863.9925 979.3436 30238.2195 -100.6747 -45.5555
TCL: Running FEP window   4: Lambda1 0.8499999999999999 Lambda2 0.7999999999999998 [dLambda -0.050000000000000044]
TCL: Setting parameter firsttimestep to 0
TCL: Setting parameter alchLambda to 0.8499999999999999
Info: NONBONDED TABLE R-SQUARED SPACING: 0.0625
Info: NONBONDED TABLE SIZE: 705 POINTS
TCL: Setting parameter alchLambda2 to 0.7999999999999998
Info: NONBONDED TABLE R-SQUARED SPACING: 0.0625
Info: NONBONDED TABLE SIZE: 705 POINTS
TCL: Running for 1500000 steps
ETITLE: TS BOND ANGLE DIHED IMPRP ELECT VDW BOUNDARY MISC KINETIC TOTAL TEMP POTENTIAL TOTALAVG TEMPAVG PRESSURE GPRESSURE VOLUME PRESSAVG GPRESSAVG
ENERGY: 0 1.4367 13.9417 16.1520 0.0000 -10892.7822 1564.8879 0.0000 0.0000 1777.8230 -7518.5409 303.1654 -9296.3638 -7518.5409 303.1654 891.8308 974.5984 30238.2195 891.8308 974.5984
ENERGY: 300000 2.2975 14.8797 11.2228 0.0000 -10740.0014 1498.5445 0.0000 0.0000 1785.3721 -7427.6849 304.4528 -9213.0569 -7472.1587 300.7913 587.7094 668.4083 30194.8472 152.3575 222.7151
ENERGY: 600000 2.2953 10.4108 14.1486 0.0000 -10737.7028 1492.2691 0.0000 0.0000 1759.9310 -7458.6481 300.1144 -9218.5790 -7441.8085 301.9598 633.7732 630.4399 30195.6321 237.9185 289.3843
ENERGY: 900000 2.7360 10.3873 15.8435 0.0000 -10683.1822 1421.9213 0.0000 0.0000 1764.0684 -7468.2258 300.8199 -9232.2943 -7439.4162 301.4492 88.6462 104.2404 29893.8243 162.3505 217.7593
ENERGY: 1200000 3.6684 12.3356 11.1148 0.0000 -10633.6926 1347.6314 0.0000 0.0000 1753.8177 -7505.1248 299.0719 -9258.9425 -7446.7368 301.9006 -692.4628 -640.7685 30502.2155 40.6114 92.9010
ENERGY: 1500000 5.9868 12.5795 14.5368 0.0000 -10577.5583 1381.2028 0.0000 0.0000 1732.8760 -7430.3763 295.5008 -9163.2524 -7456.5805 301.1671 -367.1848 -290.1007 30567.1159 -69.2887 -15.7356
TCL: Running FEP window   5: Lambda1 0.7999999999999998 Lambda2 0.7499999999999998 [dLambda -0.050000000000000044]
TCL: Setting parameter firsttimestep to 0
TCL: Setting parameter alchLambda to 0.7999999999999998
Info: NONBONDED TABLE R-SQUARED SPACING: 0.0625
Info: NONBONDED TABLE SIZE: 705 POINTS
TCL: Setting parameter alchLambda2 to 0.7499999999999998
Info: NONBONDED TABLE R-SQUARED SPACING: 0.0625
Info: NONBONDED TABLE SIZE: 705 POINTS
TCL: Running for 1500000 steps
ETITLE: TS BOND ANGLE DIHED IMPRP ELECT VDW BOUNDARY MISC KINETIC TOTAL TEMP POTENTIAL TOTALAVG TEMPAVG PRESSURE GPRESSURE VOLUME PRESSAVG GPRESSAVG
ENERGY: 0 5.9868 12.5795 14.5368 0.0000 -10575.7317 1381.6064 0.0000 0.0000 1732.0197 -7429.0025 295.3548 -9161.0223 -7429.0025 295.3548 -373.4833 -290.3788 30567.1159 -373.4833 -290.3788
ENERGY: 300000 3.0568 9.2313 12.7249 0.0000 -10665.8315 1388.3644 0.0000 0.0000 1799.1584 -7453.2956 306.8037 -9252.4540 -7440.4574 298.6573 -399.2612 -336.5874 30411.0615 -352.3085 -292.6594
ENERGY: 600000 1.2972 12.2176 12.3719 0.0000 -10645.4390 1385.7701 0.0000 0.0000 1768.9753 -7464.8069 301.6567 -9233.7822 -7457.4021 299.4560 -534.8662 -431.6907 30714.7393 -134.7984 -66.2041
ENERGY: 900000 3.5621 15.0519 11.9245 0.0000 -10687.8354 1412.1000 0.0000 0.0000 1754.0719 -7491.1251 299.1153 -9245.1969 -7463.9557 299.1711 -281.7220 -203.3748 30292.9127 -94.1241 -27.9144
ENERGY: 1200000 2.5570 13.0502 12.3613 0.0000 -10864.5114 1503.4090 0.0000 0.0000 1739.7972 -7593.3368 296.6810 -9333.1340 -7461.9917 300.5260 216.8927 303.5083 30134.0758 0.8181 61.6234
ENERGY: 1500000 1.7951 8.8569 14.9116 0.0000 -10731.1640 1460.2295 0.0000 0.0000 1759.4842 -7485.8868 300.0382 -9245.3711 -7465.5487 300.8965 295.4936 311.7937 30132.2002 31.9939 89.5442
TCL: Running FEP window   6: Lambda1 0.7499999999999998 Lambda2 0.6999999999999997 [dLambda -0.050000000000000044]
TCL: Setting parameter firsttimestep to 0
TCL: Setting parameter alchLambda to 0.7499999999999998
Info: NONBONDED TABLE R-SQUARED SPACING: 0.0625
Info: NONBONDED TABLE SIZE: 705 POINTS
TCL: Setting parameter alchLambda2 to 0.6999999999999997
Info: NONBONDED TABLE R-SQUARED SPACING: 0.0625
Info: NONBONDED TABLE SIZE: 705 POINTS
TCL: Running for 1500000 steps
ETITLE: TS BOND ANGLE DIHED IMPRP ELECT VDW BOUNDARY MISC KINETIC TOTAL TEMP POTENTIAL TOTALAVG TEMPAVG PRESSURE GPRESSURE VOLUME PRESSAVG GPRESSAVG
ENERGY: 0 1.7950 8.8569 14.9116 0.0000 -10728.7446 1459.2030 0.0000 0.0000 1758.6098 -7485.3683 299.8891 -9243.9781 -7485.3683 299.8891 231.3492 292.1405 30132.2002 231.3492 292.1405
ENERGY: 300000 0.7531 13.5814 13.7894 0.0000 -10745.6432 1408.1074 0.0000 0.0000 1754.7977 -7554.6142 299.2390 -9309.4119 -7492.0032 299.9318 -366.6978 -352.3875 30230.3356 416.2969 479.9866
ENERGY: 600000 2.3702 16.0847 12.8177 0.0000 -10831.7274 1530.1586 0.0000 0.0000 1748.9003 -7521.3959 298.2334 -9270.2962 -7501.4247 299.6917 684.9078 805.5626 30000.4223 313.4590 392.2960
ENERGY: 900000 1.3872 17.0695 11.8268 0.0000 -10788.9722 1450.9022 0.0000 0.0000 1811.5684 -7496.2182 308.9199 -9307.7865 -7485.1466 301.0451 -47.4476 10.1642 30212.4647 174.0713 253.6440
ENERGY: 1200000 2.4412 10.4208 10.1092 0.0000 -10826.3345 1569.8007 0.0000 0.0000 1688.7779 -7544.7846 287.9809 -9233.5626 -7499.4962 299.5960 1318.7772 1373.1298 29828.2930 223.3440 297.4782
ENERGY: 1500000 3.2085 14.2329 12.4987 0.0000 -10776.9583 1523.4503 0.0000 0.0000 1781.5545 -7442.0134 303.8018 -9223.5679 -7492.4856 299.6358 786.6775 840.5524 30353.3870 232.8688 308.0107
TCL: Running FEP window   7: Lambda1 0.6999999999999997 Lambda2 0.6499999999999997 [dLambda -0.050000000000000044]
TCL: Setting parameter firsttimestep to 0
TCL: Setting parameter alchLambda to 0.6999999999999997
Info: NONBONDED TABLE R-SQUARED SPACING: 0.0625
Info: NONBONDED TABLE SIZE: 705 POINTS
TCL: Setting parameter alchLambda2 to 0.6499999999999997
Info: NONBONDED TABLE R-SQUARED SPACING: 0.0625
Info: NONBONDED TABLE SIZE: 705 POINTS
TCL: Running for 1500000 steps
ETITLE: TS BOND ANGLE DIHED IMPRP ELECT VDW BOUNDARY MISC KINETIC TOTAL TEMP POTENTIAL TOTALAVG TEMPAVG PRESSURE GPRESSURE VOLUME PRESSAVG GPRESSAVG
ENERGY: 0 3.2084 14.2328 12.4987 0.0000 -10776.3489 1523.8527 0.0000 0.0000 1780.6666 -7441.8896 303.6504 -9222.5562 -7441.8896 303.6504 763.5206 835.2215 30353.3870 763.5206 835.2215
ENERGY: 300000 2.4458 11.5131 15.0535 0.0000 -10744.3161 1441.1552 0.0000 0.0000 1787.6459 -7486.5027 304.8405 -9274.1486 -7457.5932 302.2870 -128.6331 -14.8188 30246.7980 -74.7521 -8.2180
ENERGY: 600000 1.2862 15.5406 16.4470 0.0000 -10692.7066 1438.4404 0.0000 0.0000 1700.4037 -7520.5887 289.9634 -9220.9924 -7489.0317 297.3174 -335.3594 -239.8848 31019.8462 -362.3096 -274.9577
ENERGY: 900000 3.6403 10.6691 15.4215 0.0000 -10756.9924 1463.0357 0.0000 0.0000 1782.5852 -7481.6407 303.9775 -9264.2259 -7465.9180 299.0814 540.4515 563.8353 29641.8431 -62.5519 17.5060
ENERGY: 1200000 2.9885 13.8632 12.5462 0.0000 -10789.3673 1432.2857 0.0000 0.0000 1779.7894 -7547.8942 303.5008 -9327.6836 -7465.9193 300.1302 -33.0078 -56.5364 30165.4244 14.6285 84.3793
ENERGY: 1500000 2.2787 11.9738 12.7567 0.0000 -10634.8987 1413.9158 0.0000 0.0000 1756.3163 -7437.6573 299.4980 -9193.9736 -7460.1432 300.0441 7.1362 39.3524 30235.9864 0.8841 65.7690
TCL: Running FEP window   8: Lambda1 0.6499999999999997 Lambda2 0.5999999999999996 [dLambda -0.050000000000000044]
TCL: Setting parameter firsttimestep to 0
TCL: Setting parameter alchLambda to 0.6499999999999997
Info: NONBONDED TABLE R-SQUARED SPACING: 0.0625
Info: NONBONDED TABLE SIZE: 705 POINTS
TCL: Setting parameter alchLambda2 to 0.5999999999999996
Info: NONBONDED TABLE R-SQUARED SPACING: 0.0625
Info: NONBONDED TABLE SIZE: 705 POINTS
TCL: Running for 1500000 steps
ETITLE: TS BOND ANGLE DIHED IMPRP ELECT VDW BOUNDARY MISC KINETIC TOTAL TEMP POTENTIAL TOTALAVG TEMPAVG PRESSURE GPRESSURE VOLUME PRESSAVG GPRESSAVG
ENERGY: 0 2.2787 11.9738 12.7567 0.0000 -10633.8768 1414.5148 0.0000 0.0000 1755.4432 -7436.9096 299.3491 -9192.3528 -7436.9096 299.3491 -45.0361 33.3939 30235.9864 -45.0361 33.3939
ENERGY: 300000 0.6542 12.2481 13.4256 0.0000 -10689.6757 1483.6256 0.0000 0.0000 1762.6522 -7417.0700 300.5784 -9179.7222 -7425.7056 298.6111 446.9561 516.8830 30544.2693 235.4492 303.1162
ENERGY: 600000 2.1138 11.5678 15.4466 0.0000 -10875.1093 1578.0364 0.0000 0.0000 1684.2848 -7583.6600 287.2147 -9267.9448 -7445.3291 298.5874 1034.5740 1118.0009 29777.6834 370.7855 436.3086
ENERGY: 900000 1.5641 8.4803 14.5968 0.0000 -10704.0804 1445.7770 0.0000 0.0000 1749.7920 -7483.8702 298.3854 -9233.6622 -7450.0652 298.7348 139.3106 197.7313 30122.5296 247.6776 324.1322
ENERGY: 1200000 2.5715 14.7035 13.0424 0.0000 -10612.2361 1418.7218 0.0000 0.0000 1755.9301 -7407.2668 299.4321 -9163.1970 -7448.2910 299.2761 -113.8371 -77.7705 30793.9512 297.6287 368.7553
ENERGY: 1500000 2.2950 12.7984 11.3770 0.0000 -10585.6478 1361.6932 0.0000 0.0000 1807.6272 -7389.8570 308.2478 -9197.4842 -7446.0959 299.6413 -367.5226 -341.3282 30458.8319 206.3200 270.5052
TCL: Running FEP window   9: Lambda1 0.5999999999999996 Lambda2 0.5499999999999996 [dLambda -0.050000000000000044]
TCL: Setting parameter firsttimestep to 0
TCL: Setting parameter alchLambda to 0.5999999999999996
Info: NONBONDED TABLE R-SQUARED SPACING: 0.0625
Info: NONBONDED TABLE SIZE: 705 POINTS
TCL: Setting parameter alchLambda2 to 0.5499999999999996
Info: NONBONDED TABLE R-SQUARED SPACING: 0.0625
Info: NONBONDED TABLE SIZE: 705 POINTS
TCL: Running for 1500000 steps
ETITLE: TS BOND ANGLE DIHED IMPRP ELECT VDW BOUNDARY MISC KINETIC TOTAL TEMP POTENTIAL TOTALAVG TEMPAVG PRESSURE GPRESSURE VOLUME PRESSAVG GPRESSAVG
ENERGY: 0 2.2950 12.7984 11.3770 0.0000 -10584.7638 1362.0639 0.0000 0.0000 1806.7237 -7389.5058 308.0938 -9196.2295 -7389.5058 308.0938 -424.7407 -347.5314 30458.8319 -424.7407 -347.5314
ENERGY: 300000 1.2392 13.2338 10.2051 0.0000 -10674.5013 1408.0460 0.0000 0.0000 1777.9923 -7463.7848 303.1943 -9241.7771 -7433.9089 304.0156 -111.5016 -88.1179 30336.5701 -314.3225 -252.1806
ENERGY: 600000 1.4567 10.5391 13.4491 0.0000 -10508.1803 1296.3669 0.0000 0.0000 1728.9215 -7457.4470 294.8265 -9186.3685 -7449.0845 302.0500 -844.1185 -782.5212 30470.6895 -262.1384 -220.8803
ENERGY: 900000 2.7244 11.6763 12.3776 0.0000 -10689.7088 1367.8300 0.0000 0.0000 1757.4798 -7537.6207 299.6964 -9295.1005 -7464.4984 301.7391 -490.5575 -447.0199 29892.4908 -197.7481 -151.3295
ENERGY: 1200000 0.8996 9.0311 17.2792 0.0000 -10681.3091 1453.8182 0.0000 0.0000 1794.5815 -7405.6994 306.0232 -9200.2809 -7463.2683 301.5141 -37.5677 19.4626 30886.0356 -260.5963 -203.3004
ENERGY: 1500000 2.8401 14.3241 11.7890 0.0000 -10720.6883 1417.2222 0.0000 0.0000 1742.1334 -7532.3795 297.0794 -9274.5129 -7465.5665 301.2110 -324.9663 -217.8837 30548.3005 -232.0180 -168.2712
TCL: Running FEP window  10: Lambda1 0.5499999999999996 Lambda2 0.4999999999999996 [dLambda -0.04999999999999999]
TCL: Setting parameter firsttimestep to 0
TCL: Setting parameter alchLambda to 0.5499999999999996
Info: NONBONDED TABLE R-SQUARED SPACING: 0.0625
Info: NONBONDED TABLE SIZE: 705 POINTS
TCL: Setting parameter alchLambda2 to 0.4999999999999996
Info: NONBONDED TABLE R-SQUARED SPACING: 0.0625
Info: NONBONDED TABLE SIZE: 705 POINTS
TCL: Running for 1500000 steps
ETITLE: TS BOND ANGLE DIHED IMPRP ELECT VDW BOUNDARY MISC KINETIC TOTAL TEMP POTENTIAL TOTALAVG TEMPAVG PRESSURE GPRESSURE VOLUME PRESSAVG GPRESSAVG
ENERGY: 0 2.8401 14.3241 11.7890 0.0000 -10720.1864 1417.6210 0.0000 0.0000 1741.2735 -7532.3387 296.9328 -9273.6122 -7532.3387 296.9328 -310.0652 -221.1754 30548.3005 -310.0652 -221.1754
ENERGY: 300000 1.9582 10.9870 15.1568 0.0000 -10689.7087 1404.4105 0.0000 0.0000 1724.4307 -7532.7656 294.0607 -9257.1963 -7500.4062 298.5484 -328.1893 -255.9209 30245.3186 -220.9610 -166.9667
ENERGY: 600000 6.1681 12.2661 12.2943 0.0000 -10724.3340 1417.8749 0.0000 0.0000 1755.0651 -7520.6655 299.2846 -9275.7306 -7503.4155 298.0962 -472.0082 -446.6226 30612.8123 -275.1750 -209.2300
ENERGY: 900000 4.7601 12.9186 13.6336 0.0000 -10703.0944 1476.0672 0.0000 0.0000 1701.9159 -7493.7990 290.2213 -9195.7149 -7501.7147 298.4307 138.3007 182.1683 30602.5609 -162.7145 -106.6799
ENERGY: 1200000 2.6680 14.7311 14.7421 0.0000 -10664.5691 1397.2000 0.0000 0.0000 1724.8308 -7510.3969 294.1289 -9235.2277 -7503.8473 298.0101 -463.6183 -359.8170 30240.7697 -214.9423 -157.1700
ENERGY: 1500000 1.8970 14.2183 10.8584 0.0000 -10755.8067 1470.7583 0.0000 0.0000 1765.8654 -7492.2092 301.1264 -9258.0746 -7503.0705 298.3170 245.7473 234.5336 30147.1862 -156.4953 -103.1589
TCL: Running FEP window  11: Lambda1 0.4999999999999996 Lambda2 0.4499999999999996 [dLambda -0.04999999999999999]
TCL: Setting parameter firsttimestep to 0
TCL: Setting parameter alchLambda to 0.4999999999999996
Info: NONBONDED TABLE R-SQUARED SPACING: 0.0625
Info: NONBONDED TABLE SIZE: 705 POINTS
TCL: Setting parameter alchLambda2 to 0.4499999999999996
Info: NONBONDED TABLE R-SQUARED SPACING: 0.0625
Info: NONBONDED TABLE SIZE: 705 POINTS
TCL: Running for 1500000 steps
ETITLE: TS BOND ANGLE DIHED IMPRP ELECT VDW BOUNDARY MISC KINETIC TOTAL TEMP POTENTIAL TOTALAVG TEMPAVG PRESSURE GPRESSURE VOLUME PRESSAVG GPRESSAVG
ENERGY: 0 1.8970 14.2183 10.8584 0.0000 -10755.4962 1470.1094 0.0000 0.0000 1764.9568 -7493.4563 300.9714 -9258.4131 -7493.4563 300.9714 137.5171 220.9573 30147.1862 137.5171 220.9573
ENERGY: 300000 3.8830 8.4415 15.6487 0.0000 -10647.0406 1392.1959 0.0000 0.0000 1803.1058 -7423.7657 307.4768 -9226.8716 -7494.2751 301.8100 -669.6267 -527.4311 30501.5757 -0.2196 90.8581
ENERGY: 600000 3.6928 10.1670 14.3603 0.0000 -10694.6747 1413.6091 0.0000 0.0000 1786.5273 -7466.3182 304.6498 -9252.8455 -7484.1961 300.4370 -142.1264 -68.1815 30513.5351 136.9353 210.6878
ENERGY: 900000 2.6257 13.5957 10.9640 0.0000 -10605.1423 1407.3312 0.0000 0.0000 1745.4192 -7425.2065 297.6397 -9170.6257 -7470.0730 299.9194 51.9070 107.7983 29905.7316 -22.1859 51.7053
ENERGY: 1200000 2.1182 14.4728 12.2410 0.0000 -10487.4749 1309.9924 0.0000 0.0000 1753.7730 -7394.8776 299.0643 -9148.6506 -7457.3608 299.8895 -892.2777 -859.5750 30732.8222 -123.8283 -53.9189
ENERGY: 1500000 2.1986 15.3354 12.7237 0.0000 -10671.8480 1453.7847 0.0000 0.0000 1756.7218 -7431.0838 299.5671 -9187.8056 -7454.6451 300.5923 720.0818 695.1074 29848.2998 -35.6183 22.6363
TCL: Running FEP window  12: Lambda1 0.4499999999999996 Lambda2 0.39999999999999963 [dLambda -0.04999999999999999]
TCL: Setting parameter firsttimestep to 0
TCL: Setting parameter alchLambda to 0.4499999999999996
Info: NONBONDED TABLE R-SQUARED SPACING: 0.0625
Info: NONBONDED TABLE SIZE: 705 POINTS
TCL: Setting parameter alchLambda2 to 0.39999999999999963
Info: NONBONDED TABLE R-SQUARED SPACING: 0.0625
Info: NONBONDED TABLE SIZE: 705 POINTS
TCL: Running for 1500000 steps
ETITLE: TS BOND ANGLE DIHED IMPRP ELECT VDW BOUNDARY MISC KINETIC TOTAL TEMP POTENTIAL TOTALAVG TEMPAVG PRESSURE GPRESSURE VOLUME PRESSAVG GPRESSAVG
ENERGY: 0 2.1986 15.3354 12.7237 0.0000 -10671.8485 1453.8322 0.0000 0.0000 1755.8744 -7431.8841 299.4226 -9187.7586 -7431.8841 299.4226 620.3458 686.2420 29848.2998 620.3458 686.2420
ENERGY: 300000 1.5631 19.4245 11.9874 0.0000 -10667.0096 1485.7877 0.0000 0.0000 1717.5765 -7430.6704 292.8918 -9148.2469 -7448.3384 298.3318 447.0734 494.8038 30552.5486 143.8080 227.7734
ENERGY: 600000 1.3673 14.3503 10.0905 0.0000 -10744.0918 1459.6828 0.0000 0.0000 1786.8697 -7471.7311 304.7082 -9258.6008 -7448.9376 299.0316 163.1281 259.6036 30040.3885 4.0289 87.2489
ENERGY: 900000 1.3031 10.6187 14.6687 0.0000 -10535.4102 1361.9711 0.0000 0.0000 1755.6823 -7391.1663 299.3899 -9146.8486 -7453.3274 298.5964 -359.4281 -273.6186 30485.3041 -74.7673 0.9125
ENERGY: 1200000 1.7965 11.7461 15.0269 0.0000 -10587.3133 1372.0497 0.0000 0.0000 1714.9405 -7471.7536 292.4423 -9186.6941 -7460.0644 299.0964 -439.4445 -439.6501 30677.7221 -72.6146 -3.1938
ENERGY: 1500000 1.4006 16.8801 11.5511 0.0000 -10726.1560 1459.4468 0.0000 0.0000 1792.5156 -7444.3618 305.6709 -9236.8774 -7453.6832 299.4304 71.7066 156.0719 30299.9858 -73.1322 -7.2046
TCL: Running FEP window  13: Lambda1 0.39999999999999963 Lambda2 0.34999999999999964 [dLambda -0.04999999999999999]
TCL: Setting parameter firsttimestep to 0
TCL: Setting parameter alchLambda to 0.39999999999999963
Info: NONBONDED TABLE R-SQUARED SPACING: 0.0625
Info: NONBONDED TABLE SIZE: 705 POINTS
TCL: Setting parameter alchLambda2 to 0.34999999999999964
Info: NONBONDED TABLE R-SQUARED SPACING: 0.0625
Info: NONBONDED TABLE SIZE: 705 POINTS
TCL: Running for 1500000 steps
ETITLE: TS BOND ANGLE DIHED IMPRP ELECT VDW BOUNDARY MISC KINETIC TOTAL TEMP POTENTIAL TOTALAVG TEMPAVG PRESSURE GPRESSURE VOLUME PRESSAVG GPRESSAVG
ENERGY: 0 1.4006 16.8802 11.5511 0.0000 -10726.1559 1459.8339 0.0000 0.0000 1791.6653 -7444.8248 305.5259 -9236.4901 -7444.8248 305.5259 68.8406 150.1368 30299.9858 68.8406 150.1368
ENERGY: 300000 2.4522 17.7868 9.2707 0.0000 -10771.1731 1526.2580 0.0000 0.0000 1818.3360 -7397.0693 310.0740 -9215.4054 -7419.1410 307.3505 577.6497 607.6971 30616.0647 119.6398 164.8913
ENERGY: 600000 2.2407 8.8342 11.7928 0.0000 -10721.7398 1508.8870 0.0000 0.0000 1807.7863 -7382.1989 308.2750 -9189.9852 -7408.9406 304.1460 868.1723 857.9469 29978.2559 228.4147 285.5573
ENERGY: 900000 1.6047 19.6559 10.8863 0.0000 -10704.0181 1442.2513 0.0000 0.0000 1842.9350 -7386.6850 314.2687 -9229.6199 -7430.4375 304.7910 283.9261 313.5106 30051.1308 53.2401 110.4281
ENERGY: 1200000 0.9757 17.2798 12.7655 0.0000 -10665.9477 1427.6431 0.0000 0.0000 1713.4104 -7493.8731 292.1814 -9207.2835 -7438.5349 303.3449 -126.5128 -81.5040 30681.0222 7.7462 67.3123
ENERGY: 1500000 3.0532 11.6690 13.1994 0.0000 -10726.7448 1456.3366 0.0000 0.0000 1804.9393 -7437.5473 307.7895 -9242.4867 -7445.1151 303.1173 155.2791 239.8087 30120.3057 -49.1603 10.6465
TCL: Running FEP window  14: Lambda1 0.34999999999999964 Lambda2 0.29999999999999966 [dLambda -0.04999999999999999]
TCL: Setting parameter firsttimestep to 0
TCL: Setting parameter alchLambda to 0.34999999999999964
Info: NONBONDED TABLE R-SQUARED SPACING: 0.0625
Info: NONBONDED TABLE SIZE: 705 POINTS
TCL: Setting parameter alchLambda2 to 0.29999999999999966
Info: NONBONDED TABLE R-SQUARED SPACING: 0.0625
Info: NONBONDED TABLE SIZE: 705 POINTS
TCL: Running for 1500000 steps
ETITLE: TS BOND ANGLE DIHED IMPRP ELECT VDW BOUNDARY MISC KINETIC TOTAL TEMP POTENTIAL TOTALAVG TEMPAVG PRESSURE GPRESSURE VOLUME PRESSAVG GPRESSAVG
ENERGY: 0 3.0532 11.6690 13.1994 0.0000 -10726.7448 1456.9569 0.0000 0.0000 1804.0995 -7437.7668 307.6463 -9241.8663 -7437.7668 307.6463 162.2652 242.7454 30120.3057 162.2652 242.7454
ENERGY: 300000 2.1168 14.9088 9.0512 0.0000 -10501.6591 1341.2284 0.0000 0.0000 1812.3095 -7322.0444 309.0463 -9134.3539 -7416.2860 306.4137 -681.1412 -606.7382 30762.6644 -9.1247 40.7931
ENERGY: 600000 1.4310 16.8174 13.4697 0.0000 -10649.6788 1402.7960 0.0000 0.0000 1821.1126 -7394.0521 310.5475 -9215.1647 -7411.8100 306.6265 48.0180 43.6591 30130.2029 -8.8592 36.7430
ENERGY: 900000 1.5030 16.9873 10.7328 0.0000 -10678.0075 1436.6813 0.0000 0.0000 1774.4914 -7437.6118 302.5973 -9212.1032 -7423.1830 304.9069 278.4513 390.0818 29838.6672 90.6378 144.3572
ENERGY: 1200000 2.6184 13.5740 10.7933 0.0000 -10803.2215 1474.1255 0.0000 0.0000 1776.5203 -7525.5900 302.9433 -9302.1103 -7443.6298 303.3374 93.1297 102.5829 30247.4837 63.9954 109.2548
ENERGY: 1500000 2.4915 13.0278 13.1557 0.0000 -10769.4659 1483.5116 0.0000 0.0000 1764.8390 -7492.4402 300.9513 -9257.2792 -7450.7159 302.5788 517.3626 624.6715 30131.7996 7.4908 61.2987
TCL: Running FEP window  15: Lambda1 0.29999999999999966 Lambda2 0.24999999999999967 [dLambda -0.04999999999999999]
TCL: Setting parameter firsttimestep to 0
TCL: Setting parameter alchLambda to 0.29999999999999966
Info: NONBONDED TABLE R-SQUARED SPACING: 0.0625
Info: NONBONDED TABLE SIZE: 705 POINTS
TCL: Setting parameter alchLambda2 to 0.24999999999999967
Info: NONBONDED TABLE R-SQUARED SPACING: 0.0625
Info: NONBONDED TABLE SIZE: 705 POINTS
TCL: Running for 1500000 steps
ETITLE: TS BOND ANGLE DIHED IMPRP ELECT VDW BOUNDARY MISC KINETIC TOTAL TEMP POTENTIAL TOTALAVG TEMPAVG PRESSURE GPRESSURE VOLUME PRESSAVG GPRESSAVG
ENERGY: 0 2.4915 13.0278 13.1557 0.0000 -10769.4655 1483.5137 0.0000 0.0000 1763.9571 -7493.3197 300.8009 -9257.2767 -7493.3197 300.8009 539.2782 623.1198 30131.7996 539.2782 623.1198
ENERGY: 300000 1.6686 13.5735 11.4042 0.0000 -10646.7735 1378.6075 0.0000 0.0000 1734.1042 -7507.4155 295.7102 -9241.5197 -7471.2473 302.5733 -773.0394 -734.5563 30441.2197 -279.1656 -211.3395
ENERGY: 600000 1.7623 11.5737 13.0452 0.0000 -10686.2168 1364.6519 0.0000 0.0000 1709.5610 -7585.6228 291.5250 -9295.1837 -7492.6586 301.7881 -587.6736 -537.9881 30024.9679 -331.2448 -263.1218
ENERGY: 900000 4.4798 17.9316 10.9941 0.0000 -10741.2037 1452.7902 0.0000 0.0000 1764.1753 -7490.8328 300.8381 -9255.0080 -7481.6026 301.4432 3.9805 88.2469 29965.3815 -296.6880 -229.3906
ENERGY: 1200000 2.8749 14.7432 12.9133 0.0000 -10708.9283 1424.7102 0.0000 0.0000 1768.4004 -7485.2862 301.5587 -9253.6867 -7481.8230 301.2726 -130.0627 -91.1716 29771.2053 -227.4054 -165.6622
ENERGY: 1500000 1.3504 14.3841 12.8009 0.0000 -10535.6690 1321.0316 0.0000 0.0000 1715.8624 -7470.2397 292.5995 -9186.1021 -7475.6615 300.5660 -974.5599 -898.4095 30768.1235 -223.0285 -161.8272
TCL: Running FEP window  16: Lambda1 0.24999999999999967 Lambda2 0.19999999999999968 [dLambda -0.04999999999999999]
TCL: Setting parameter firsttimestep to 0
TCL: Setting parameter alchLambda to 0.24999999999999967
Info: NONBONDED TABLE R-SQUARED SPACING: 0.0625
Info: NONBONDED TABLE SIZE: 705 POINTS
TCL: Setting parameter alchLambda2 to 0.19999999999999968
Info: NONBONDED TABLE R-SQUARED SPACING: 0.0625
Info: NONBONDED TABLE SIZE: 705 POINTS
TCL: Running for 1500000 steps
ETITLE: TS BOND ANGLE DIHED IMPRP ELECT VDW BOUNDARY MISC KINETIC TOTAL TEMP POTENTIAL TOTALAVG TEMPAVG PRESSURE GPRESSURE VOLUME PRESSAVG GPRESSAVG
ENERGY: 0 1.3504 14.3841 12.8009 0.0000 -10535.6683 1321.7348 0.0000 0.0000 1714.9483 -7470.4499 292.4437 -9185.3982 -7470.4499 292.4437 -971.4003 -893.9803 30768.1235 -971.4003 -893.9803
ENERGY: 300000 2.4313 9.5467 16.8303 0.0000 -10807.4239 1511.6445 0.0000 0.0000 1730.3387 -7536.6324 295.0681 -9266.9711 -7416.1307 301.3726 345.5531 387.5844 30069.6313 -15.7112 55.4557
ENERGY: 600000 2.3617 13.2531 16.3698 0.0000 -10717.2298 1430.0317 0.0000 0.0000 1760.6718 -7494.5417 300.2407 -9255.2135 -7458.9059 300.4492 21.3201 120.8452 29730.0569 -35.2747 27.4907
ENERGY: 900000 0.8515 11.8807 13.6163 0.0000 -10760.0866 1431.7715 0.0000 0.0000 1773.7215 -7528.2452 302.4660 -9301.9667 -7464.7902 301.5193 -96.4224 -65.8049 30006.5197 29.9755 90.5546
ENERGY: 1200000 2.0699 13.3265 13.9095 0.0000 -10641.9478 1401.6698 0.0000 0.0000 1723.7080 -7487.2640 293.9374 -9210.9720 -7485.6497 300.0649 -294.1778 -128.6312 30195.6592 -25.2576 39.1969
ENERGY: 1500000 3.4660 13.1249 13.0142 0.0000 -10623.2416 1370.3805 0.0000 0.0000 1750.3922 -7472.8639 298.4878 -9223.2561 -7475.1796 300.9713 -811.2367 -757.6578 30391.7876 -62.0354 4.9754
TCL: Running FEP window  17: Lambda1 0.19999999999999968 Lambda2 0.1499999999999997 [dLambda -0.04999999999999999]
TCL: Setting parameter firsttimestep to 0
TCL: Setting parameter alchLambda to 0.19999999999999968
Info: NONBONDED TABLE R-SQUARED SPACING: 0.0625
Info: NONBONDED TABLE SIZE: 705 POINTS
TCL: Setting parameter alchLambda2 to 0.1499999999999997
Info: NONBONDED TABLE R-SQUARED SPACING: 0.0625
Info: NONBONDED TABLE SIZE: 705 POINTS
TCL: Running for 1500000 steps
ETITLE: TS BOND ANGLE DIHED IMPRP ELECT VDW BOUNDARY MISC KINETIC TOTAL TEMP POTENTIAL TOTALAVG TEMPAVG PRESSURE GPRESSURE VOLUME PRESSAVG GPRESSAVG
ENERGY: 0 3.4660 13.1249 13.0142 0.0000 -10623.2414 1370.3993 0.0000 0.0000 1749.4919 -7473.7452 298.3342 -9223.2371 -7473.7452 298.3342 -840.9694 -759.5736 30391.7876 -840.9694 -759.5736
ENERGY: 300000 2.0968 11.0489 12.0217 0.0000 -10455.5526 1328.0347 0.0000 0.0000 1773.0107 -7329.3397 302.3448 -9102.3505 -7464.4328 297.3555 -668.8622 -581.9141 30547.1548 -581.0189 -525.7702
ENERGY: 600000 3.1308 12.9337 14.5360 0.0000 -10468.8519 1301.8842 0.0000 0.0000 1746.7321 -7389.6352 297.8636 -9136.3673 -7448.9835 298.3878 -1171.6611 -1059.4679 30658.0236 -482.5106 -420.0573
ENERGY: 900000 1.7442 13.7485 12.5777 0.0000 -10608.0633 1405.4257 0.0000 0.0000 1752.5820 -7421.9853 298.8612 -9174.5673 -7450.3014 298.8495 -332.0407 -207.2823 30643.4141 -438.7429 -376.4840
ENERGY: 1200000 4.3804 13.4017 14.0480 0.0000 -10581.8588 1362.5729 0.0000 0.0000 1796.6838 -7390.7720 306.3817 -9187.4557 -7449.4371 298.8821 -497.3158 -412.0257 30397.2306 -405.6666 -339.5141
ENERGY: 1500000 0.9594 8.8348 14.1281 0.0000 -10666.3855 1453.3088 0.0000 0.0000 1780.3675 -7408.7868 303.5994 -9189.1543 -7446.7667 299.4321 254.5870 332.8531 29991.0568 -284.7143 -212.0687
TCL: Running FEP window  18: Lambda1 0.1499999999999997 Lambda2 0.09999999999999969 [dLambda -0.05 ]
TCL: Setting parameter firsttimestep to 0
TCL: Setting parameter alchLambda to 0.1499999999999997
Info: NONBONDED TABLE R-SQUARED SPACING: 0.0625
Info: NONBONDED TABLE SIZE: 705 POINTS
TCL: Setting parameter alchLambda2 to 0.09999999999999969
Info: NONBONDED TABLE R-SQUARED SPACING: 0.0625
Info: NONBONDED TABLE SIZE: 705 POINTS
TCL: Running for 1500000 steps
ETITLE: TS BOND ANGLE DIHED IMPRP ELECT VDW BOUNDARY MISC KINETIC TOTAL TEMP POTENTIAL TOTALAVG TEMPAVG PRESSURE GPRESSURE VOLUME PRESSAVG GPRESSAVG
ENERGY: 0 0.9594 8.8348 14.1281 0.0000 -10666.3860 1453.1858 0.0000 0.0000 1779.4920 -7409.7859 303.4501 -9189.2779 -7409.7859 303.4501 250.0714 328.8700 29991.0568 250.0714 328.8700
ENERGY: 300000 1.4603 6.9747 13.9728 0.0000 -10679.9026 1480.5288 0.0000 0.0000 1710.0271 -7466.9390 291.6045 -9176.9660 -7512.4489 297.4113 651.6127 717.6773 30186.4494 104.1106 172.2858
ENERGY: 600000 1.9367 17.8662 12.9204 0.0000 -10733.5079 1495.1890 0.0000 0.0000 1746.9361 -7458.6594 297.8984 -9205.5955 -7471.0329 301.4175 357.7283 346.5765 30439.4679 346.1983 404.9905
ENERGY: 900000 4.1967 14.5443 14.1531 0.0000 -10754.4357 1466.5087 0.0000 0.0000 1725.5758 -7529.4571 294.2559 -9255.0329 -7475.6165 300.0512 7.2145 68.0734 30089.7517 218.7700 280.5213
ENERGY: 1200000 1.8855 10.9626 14.3081 0.0000 -10680.9241 1414.2878 0.0000 0.0000 1765.6950 -7473.7851 301.0973 -9239.4801 -7473.4006 299.8348 -116.9555 -93.8839 30115.9150 182.4721 241.1810
ENERGY: 1500000 2.5792 15.9570 11.5518 0.0000 -10815.1469 1532.8532 0.0000 0.0000 1795.4875 -7456.7182 306.1777 -9252.2057 -7459.0182 301.1463 775.9848 812.9570 29752.7290 203.5465 260.1950
TCL: Running FEP window  19: Lambda1 0.09999999999999969 Lambda2 0.049999999999999684 [dLambda -0.05 ]
TCL: Setting parameter firsttimestep to 0
TCL: Setting parameter alchLambda to 0.09999999999999969
Info: NONBONDED TABLE R-SQUARED SPACING: 0.0625
Info: NONBONDED TABLE SIZE: 705 POINTS
TCL: Setting parameter alchLambda2 to 0.049999999999999684
Info: NONBONDED TABLE R-SQUARED SPACING: 0.0625
Info: NONBONDED TABLE SIZE: 705 POINTS
TCL: Running for 1500000 steps
ETITLE: TS BOND ANGLE DIHED IMPRP ELECT VDW BOUNDARY MISC KINETIC TOTAL TEMP POTENTIAL TOTALAVG TEMPAVG PRESSURE GPRESSURE VOLUME PRESSAVG GPRESSAVG
ENERGY: 0 2.5792 15.9570 11.5518 0.0000 -10815.1464 1531.8712 0.0000 0.0000 1794.6246 -7458.5626 306.0306 -9253.1873 -7458.5626 306.0306 714.9372 803.7197 29752.7290 714.9372 803.7197
ENERGY: 300000 3.2773 16.1146 11.5854 0.0000 -10547.4373 1419.2086 0.0000 0.0000 1742.2788 -7354.9727 297.1042 -9097.2515 -7412.6549 303.2392 55.2862 98.8963 30524.0728 84.4911 127.9015
ENERGY: 600000 3.4111 12.1214 15.3488 0.0000 -10754.6013 1429.0956 0.0000 0.0000 1747.0358 -7547.5887 297.9154 -9294.6245 -7471.3997 300.0944 -316.0767 -277.3767 30125.3729 -138.8827 -96.5303
ENERGY: 900000 2.4819 13.9742 13.1169 0.0000 -10628.4483 1369.8095 0.0000 0.0000 1764.3176 -7464.7482 300.8624 -9229.0658 -7461.8514 300.3831 -366.3935 -307.8614 29935.1933 -122.9175 -81.9020
ENERGY: 1200000 2.8716 18.7320 10.8232 0.0000 -10542.1009 1307.6419 0.0000 0.0000 1780.6153 -7421.4169 303.6416 -9202.0322 -7456.9921 301.4570 -802.6430 -771.5151 30255.9545 -216.8622 -179.2732
ENERGY: 1500000 1.8308 11.7159 12.7724 0.0000 -10578.6630 1256.4966 0.0000 0.0000 1814.8159 -7481.0314 309.4737 -9295.8473 -7460.7838 301.6163 -1701.0837 -1665.2554 30485.5333 -248.5138 -212.8611
TCL: Running FEP window  20: Lambda1 0.049999999999999684 Lambda2 0.0    [dLambda -0.049999999999999684]
TCL: Setting parameter firsttimestep to 0
TCL: Setting parameter alchLambda to 0.049999999999999684
Info: NONBONDED TABLE R-SQUARED SPACING: 0.0625
Info: NONBONDED TABLE SIZE: 705 POINTS
TCL: Setting parameter alchLambda2 to 0.0
Info: NONBONDED TABLE R-SQUARED SPACING: 0.0625
Info: NONBONDED TABLE SIZE: 705 POINTS
TCL: Running for 1500000 steps
ETITLE: TS BOND ANGLE DIHED IMPRP ELECT VDW BOUNDARY MISC KINETIC TOTAL TEMP POTENTIAL TOTALAVG TEMPAVG PRESSURE GPRESSURE VOLUME PRESSAVG GPRESSAVG
ENERGY: 0 1.8308 11.7159 12.7724 0.0000 -10578.6620 1256.6643 0.0000 0.0000 1813.9357 -7481.7429 309.3236 -9295.6787 -7481.7429 309.3236 -1755.1569 -1665.3526 30485.5333 -1755.1569 -1665.3526
ENERGY: 300000 4.9190 13.0960 10.9661 0.0000 -10722.7772 1462.7887 0.0000 0.0000 1741.4253 -7489.5821 296.9587 -9231.0075 -7448.9247 305.5376 149.0092 188.0787 30206.9588 -569.1259 -497.6405
ENERGY: 600000 4.4504 13.7168 13.0269 0.0000 -10770.6351 1357.0570 0.0000 0.0000 1735.4560 -7646.9280 295.9408 -9382.3840 -7475.3281 301.0318 -883.8148 -859.9108 29759.6260 -370.8211 -310.2739
ENERGY: 900000 2.5584 12.9358 13.9660 0.0000 -10680.9181 1419.4462 0.0000 0.0000 1751.5443 -7480.4673 298.6842 -9232.0117 -7476.7454 301.1579 -161.5046 -137.4905 30285.5149 -447.5147 -391.9825
ENERGY: 1200000 1.8691 15.8500 9.0076 0.0000 -10704.5237 1359.1244 0.0000 0.0000 1705.5808 -7613.0918 290.8463 -9318.6726 -7480.9335 300.8296 -643.5127 -625.6191 30044.0584 -358.2829 -305.1698
ENERGY: 1500000 1.8898 12.7723 13.6156 0.0000 -10721.1357 1435.8665 0.0000 0.0000 1729.8533 -7527.1383 294.9853 -9256.9916 -7479.3432 300.4052 -525.8168 -428.6326 30524.0961 -285.8079 -232.9445
TCL: Exiting due to exit command.
