Info: SIMULATION PARAMETERS:
Info: TIMESTEP               2
Info: NUMBER OF STEPS        0
Info: STEPS PER CYCLE        10
Info: PERIODIC CELL BASIS 1  30.6381 0 0
Info: PERIODIC CELL BASIS 2  0 31.3325 0
Info: PERIODIC CELL BASIS 3  0 0 31.2835
Info: PERIODIC CELL CENTER   0 0 0
Info: WRAPPING WATERS AROUND PERIODIC BOUNDARIES ON OUTPUT.
Info: WRAPPING ALL CLUSTERS AROUND PERIODIC BOUNDARIES ON OUTPUT.
Info: FIRST LDB TIMESTEP     50
Info: LAST LDB TIMESTEP     -1
Info: HOM BACKGROUND SCALING 1
Info: PME BACKGROUND SCALING 1
Info: MIN ATOMS PER PATCH    40
Info: EMPTY PATCH LOAD       40 ATOMS
Info: VELOCITY FILE          mobley_7010316_equil.vel
Info: CENTER OF MASS MOVING INITIALLY? NO
Info: DIELECTRIC             1
Info: EXCLUDE                SCALED ONE-FOUR
Info: 1-4 ELECTROSTATICS SCALED BY 0.833333
Info: MODIFIED 1-4 VDW PARAMETERS WILL BE USED
Info: DCD FILENAME           mobley_7010316_prod.dcd
Info: DCD FREQUENCY          100000
Info: DCD FIRST STEP         100000
Info: DCD FILE WILL CONTAIN UNIT CELL DATA
Info: XST FILENAME           mobley_7010316_prod.xst
Info: XST FREQUENCY          100000
Info: NO VELOCITY DCD OUTPUT
Info: NO FORCE DCD OUTPUT
Info: OUTPUT FILENAME        mobley_7010316_prod
Info: BINARY OUTPUT FILES WILL BE USED
Info: RESTART FILENAME       mobley_7010316_prod.restart
Info: RESTART FREQUENCY      100000
Info: BINARY RESTART FILES WILL BE USED
Info: CUTOFF                 9
Info: PAIRLIST DISTANCE      11
Info: PAIRLIST SHRINK RATE   0.01
Info: PAIRLIST GROW RATE     0.01
Info: PAIRLIST TRIGGER       0.3
Info: PAIRLISTS PER CYCLE    2
Info: PAIRLISTS ENABLED
Info: MARGIN                 2
Info: HYDROGEN GROUP CUTOFF  2.5
Info: PATCH DIMENSION        15.5
Info: ENERGY OUTPUT STEPS    100000
Info: ENERGY EVALUATION STEPS    100000
Info: OUTPUT ENERGY PRECISION 4
Info: CROSSTERM ENERGY INCLUDED IN DIHEDRAL
Info: TIMING OUTPUT STEPS    1000000
Info: PRESSURE OUTPUT STEPS  100000
Info: ALCHEMICAL FEP ON
Info: FEP CURRENT LAMBDA VALUE     0
Info: FEP COMPARISON LAMBDA VALUE  0.05
Info: FEP INTRA-ALCHEMICAL NON-BONDED INTERACTIONS WILL BE RETAINED
Info: FEP INTRA-ALCHEMICAL BONDED INTERACTIONS WILL BE RETAINED
Info: FEP VDW SHIFTING COEFFICIENT 5
Info: FEP ELEC. ACTIVE FOR ANNIHILATED PARTICLES BETWEEN LAMBDA = 0 AND LAMBDA = 0.5
Info: FEP ELEC. ACTIVE FOR EXNIHILATED PARTICLES BETWEEN LAMBDA = 0.5 AND LAMBDA = 1
Info: FEP VDW ACTIVE FOR ANNIHILATED PARTICLES BETWEEN LAMBDA = 0 AND LAMBDA = 1
Info: FEP VDW ACTIVE FOR EXNIHILATED PARTICLES BETWEEN LAMBDA = 0 AND LAMBDA = 1
Info: FEP BOND ACTIVE FOR ANNIHILATED PARTICLES BETWEEN LAMBDA = 1 AND LAMBDA = 1
Info: FEP BOND ACTIVE FOR EXNIHILATED PARTICLES BETWEEN LAMBDA = 0 AND LAMBDA = 0
Info: LANGEVIN DYNAMICS ACTIVE
Info: LANGEVIN TEMPERATURE   300
Info: LANGEVIN USING BBK INTEGRATOR
Info: LANGEVIN DAMPING COEFFICIENT IS 1 INVERSE PS
Info: LANGEVIN DYNAMICS APPLIED TO HYDROGENS
Info: LANGEVIN PISTON PRESSURE CONTROL ACTIVE
Info:        TARGET PRESSURE IS 1.01325 BAR
Info:     OSCILLATION PERIOD IS 50 FS
Info:             DECAY TIME IS 25 FS
Info:     PISTON TEMPERATURE IS 300 K
Info:       PRESSURE CONTROL IS GROUP-BASED
Info:    INITIAL STRAIN RATE IS 0.000454709 0.000454709 0.000454709
Info:       CELL FLUCTUATION IS ISOTROPIC
Info: PARTICLE MESH EWALD (PME) ACTIVE
Info: PME TOLERANCE               1e-06
Info: PME EWALD COEFFICIENT       0.348832
Info: PME INTERPOLATION ORDER     4
Info: PME GRID DIMENSIONS         32 32 32
Info: PME MAXIMUM GRID SPACING    1
Info: PME CALCULATION WILL BE PERFORMED ON GPU
Info: FULL ELECTROSTATIC EVALUATION FREQUENCY      2
Info: USING VERLET I (r-RESPA) MTS SCHEME.
Info: C1 SPLITTING OF LONG RANGE ELECTROSTATICS
Info: PLACING ATOMS IN PATCHES BY HYDROGEN GROUPS
Info: RIGID BONDS TO HYDROGEN : ALL
Info:         ERROR TOLERANCE : 1e-08
Info:          MAX ITERATIONS : 100
Info: RIGID WATER USING SETTLE ALGORITHM
Info: RANDOM NUMBER SEED     1743613777
Info: USE HYDROGEN BONDS?    NO
Info: Using AMBER format force field!
Info: AMBER PARM FILE        mobley_7010316.prmtop
Info: COORDINATE PDB         mobley_7010316.pdb
Info: Exclusions will be read from PARM file!
Info: SCNB (VDW SCALING)     2
Info: USING ARITHMETIC MEAN TO COMBINE L-J SIGMA PARAMETERS
Info: BINARY COORDINATES     mobley_7010316_equil.coor
Info: SUMMARY OF PARAMETERS:
Info: 7 BONDS
Info: 7 ANGLES
Info:   7 HARMONIC
Info:   0 COSINE-BASED
Info: 9 DIHEDRAL
Info: 0 IMPROPER
Info: 0 CROSSTERM
Info: 0 VDW
Info: 21 VDW_PAIRS
Info: 0 NBTHOLE_PAIRS
Info: To read alchdata from file: mobley_7010316.pdb
Info: To read alchflag data from column: 5
Info: STRUCTURE SUMMARY:
Info: 2950 ATOMS
Info: 2950 BONDS
Info: 37 ANGLES
Info: 75 DIHEDRALS
Info: 0 IMPROPERS
Info: 0 CROSSTERMS
Info: 3041 EXCLUSIONS
Info: 2943 RIGID BONDS
Info: ALCH: 0 ATOMS TO DISAPPEAR IN FINAL STATE
Info: ALCH: 19 ATOMS TO APPEAR IN FINAL STATE
Info: 5907 DEGREES OF FREEDOM
Info: 984 HYDROGEN GROUPS
Info: 3 ATOMS IN LARGEST HYDROGEN GROUP
Info: 984 MIGRATION GROUPS
Info: 3 ATOMS IN LARGEST MIGRATION GROUP
Info: TOTAL MASS = 17701.8 amu
Info: TOTAL CHARGE = -4.47035e-08 e
Info: MASS DENSITY = 0.978826 g/cm^3
Info: ATOM DENSITY = 0.0982315 atoms/A^3
Info: ADDED 0 IMPLICIT EXCLUSIONS
Info: NONBONDED TABLE R-SQUARED SPACING: 0.0625
Info: NONBONDED TABLE SIZE: 705 POINTS
Info: REMOVING COM VELOCITY 0.0822142 -0.0624215 0.00346087
Info: Use 3D box decompostion in PME FFT.
Info: Updated CUDA force table with 4096 elements.
Info: Updated CUDA LJ table with 6 x 6 elements.
Info: Found 22 unique exclusion lists needing 64 bytes
TCL: Running for 1500000 steps
ETITLE: TS BOND ANGLE DIHED IMPRP ELECT VDW BOUNDARY MISC KINETIC TOTAL TEMP POTENTIAL TOTALAVG TEMPAVG PRESSURE GPRESSURE VOLUME PRESSAVG GPRESSAVG
ENERGY: 0 2.1693 6.6632 4.9461 0.0000 -10709.4849 1490.5858 0.0000 0.0000 1791.6341 -7413.4863 305.2620 -9205.1205 -7413.4863 305.2620 552.2832 630.9530 30031.0890 552.2832 630.9530
ENERGY: 300000 3.8326 7.0953 5.3445 0.0000 -10637.5033 1470.8446 0.0000 0.0000 1810.3543 -7340.0321 308.4516 -9150.3863 -7417.0065 303.3394 516.9919 564.9382 30482.8269 253.0258 312.9304
ENERGY: 600000 1.2261 10.7013 5.1653 0.0000 -10616.9876 1417.4182 0.0000 0.0000 1803.4196 -7379.0571 307.2700 -9182.4767 -7407.9427 303.2200 -92.8261 -19.0278 30234.7464 161.6594 221.4809
ENERGY: 900000 2.1642 9.0600 5.1119 0.0000 -10693.4859 1428.7234 0.0000 0.0000 1729.4773 -7518.9491 294.6716 -9248.4264 -7438.8638 301.8933 22.4709 80.6972 30146.6411 104.1997 157.1224
ENERGY: 1200000 2.6458 13.1009 5.5864 0.0000 -10746.9236 1483.4843 0.0000 0.0000 1740.3128 -7501.7934 296.5178 -9242.1062 -7444.7369 301.1380 45.1915 84.7806 30531.4454 31.1989 86.6379
ENERGY: 1500000 1.4771 11.0385 5.8074 0.0000 -10542.5135 1399.3244 0.0000 0.0000 1766.0445 -7358.8216 300.9020 -9124.8662 -7441.3853 300.6125 -23.7792 8.2327 30281.1737 47.9218 102.2520
TCL: Running FEP window   2: Lambda1 0.05   Lambda2 0.1    [dLambda 0.05  ]
TCL: Setting parameter firsttimestep to 0
TCL: Setting parameter alchLambda to 0.05
Info: NONBONDED TABLE R-SQUARED SPACING: 0.0625
Info: NONBONDED TABLE SIZE: 705 POINTS
TCL: Setting parameter alchLambda2 to 0.1
Info: NONBONDED TABLE R-SQUARED SPACING: 0.0625
Info: NONBONDED TABLE SIZE: 705 POINTS
TCL: Running for 1500000 steps
ETITLE: TS BOND ANGLE DIHED IMPRP ELECT VDW BOUNDARY MISC KINETIC TOTAL TEMP POTENTIAL TOTALAVG TEMPAVG PRESSURE GPRESSURE VOLUME PRESSAVG GPRESSAVG
ENERGY: 0 1.4771 11.0385 5.8074 0.0000 -10542.5130 1402.6622 0.0000 0.0000 1765.1771 -7356.3507 300.7542 -9121.5278 -7356.3507 300.7542 -60.0417 17.5605 30281.1737 -60.0417 17.5605
ENERGY: 300000 1.6546 6.4685 5.9177 0.0000 -10667.3040 1417.8129 0.0000 0.0000 1758.2751 -7477.1753 299.5782 -9235.4504 -7452.1596 297.7246 -219.2264 -98.6354 29694.1981 44.8609 165.0952
ENERGY: 600000 3.4846 14.2912 6.0872 0.0000 -10869.6952 1484.3149 0.0000 0.0000 1760.5948 -7600.9225 299.9735 -9361.5173 -7481.9692 299.6493 -207.7916 -188.2231 30107.5324 -100.8442 -12.1005
ENERGY: 900000 2.1783 10.5998 5.9403 0.0000 -10709.2382 1486.5516 0.0000 0.0000 1767.7265 -7436.2417 301.1886 -9203.9682 -7471.7164 300.2472 533.3164 589.4328 30237.5000 -100.5089 -18.0116
ENERGY: 1200000 1.9945 6.2017 4.9024 0.0000 -10546.7063 1362.6445 0.0000 0.0000 1777.2258 -7393.7375 302.8071 -9170.9632 -7471.0152 300.1225 -477.1565 -444.5266 30422.8251 -96.7265 -23.7591
ENERGY: 1500000 1.0653 10.9894 5.4665 0.0000 -10682.1145 1463.3605 0.0000 0.0000 1789.9740 -7411.2588 304.9791 -9201.2328 -7460.1705 300.7028 71.6124 110.2602 30623.8944 -143.1049 -69.4241
TCL: Running FEP window   3: Lambda1 0.1    Lambda2 0.15000000000000002 [dLambda 0.05000000000000002]
TCL: Setting parameter firsttimestep to 0
TCL: Setting parameter alchLambda to 0.1
Info: NONBONDED TABLE R-SQUARED SPACING: 0.0625
Info: NONBONDED TABLE SIZE: 705 POINTS
TCL: Setting parameter alchLambda2 to 0.15000000000000002
Info: NONBONDED TABLE R-SQUARED SPACING: 0.0625
Info: NONBONDED TABLE SIZE: 705 POINTS
TCL: Running for 1500000 steps
ETITLE: TS BOND ANGLE DIHED IMPRP ELECT VDW BOUNDARY MISC KINETIC TOTAL TEMP POTENTIAL TOTALAVG TEMPAVG PRESSURE GPRESSURE VOLUME PRESSAVG GPRESSAVG
ENERGY: 0 1.0653 10.9894 5.4665 0.0000 -10682.1135 1465.9164 0.0000 0.0000 1789.1135 -7409.5623 304.8325 -9198.6757 -7409.5623 304.8325 43.1747 115.8508 30623.8944 43.1747 115.8508
ENERGY: 300000 1.7857 7.4573 5.8493 0.0000 -10831.2021 1540.1324 0.0000 0.0000 1764.6649 -7511.3125 300.6669 -9275.9774 -7442.9059 302.1248 911.1817 914.9127 29933.1815 75.7743 119.0508
ENERGY: 600000 1.3695 3.9637 5.6737 0.0000 -10729.8011 1462.2153 0.0000 0.0000 1788.1633 -7468.4156 304.6706 -9256.5789 -7462.7670 302.5529 194.2442 289.3850 30196.1149 -40.5879 10.6968
ENERGY: 900000 1.5890 6.8386 6.0043 0.0000 -10625.0886 1385.2094 0.0000 0.0000 1741.1332 -7484.3142 296.6576 -9225.4474 -7444.6934 301.6745 -376.8308 -317.6972 30071.0438 -196.0260 -133.5279
ENERGY: 1200000 1.8137 9.3829 5.2793 0.0000 -10574.5309 1404.3052 0.0000 0.0000 1799.2075 -7354.5423 306.5524 -9153.7498 -7432.3487 302.6783 -39.3621 -40.7915 30167.7786 -117.9776 -61.7157
ENERGY: 1500000 1.2120 5.6687 5.7791 0.0000 -10702.7388 1465.4239 0.0000 0.0000 1814.0155 -7410.6396 309.0754 -9224.6551 -7431.7162 303.1817 510.4345 572.1118 29789.9088 -57.0091 3.7709
TCL: Running FEP window   4: Lambda1 0.15000000000000002 Lambda2 0.2    [dLambda 0.04999999999999999]
TCL: Setting parameter firsttimestep to 0
TCL: Setting parameter alchLambda to 0.15000000000000002
Info: NONBONDED TABLE R-SQUARED SPACING: 0.0625
Info: NONBONDED TABLE SIZE: 705 POINTS
TCL: Setting parameter alchLambda2 to 0.2
Info: NONBONDED TABLE R-SQUARED SPACING: 0.0625
Info: NONBONDED TABLE SIZE: 705 POINTS
TCL: Running for 1500000 steps
ETITLE: TS BOND ANGLE DIHED IMPRP ELECT VDW BOUNDARY MISC KINETIC TOTAL TEMP POTENTIAL TOTALAVG TEMPAVG PRESSURE GPRESSURE VOLUME PRESSAVG GPRESSAVG
ENERGY: 0 1.2120 5.6687 5.7791 0.0000 -10702.7379 1467.5911 0.0000 0.0000 1813.1506 -7409.3364 308.9280 -9222.4870 -7409.3364 308.9280 519.1551 585.6659 29789.9088 519.1551 585.6659
ENERGY: 300000 3.1063 7.3729 5.4628 0.0000 -10652.2375 1420.5563 0.0000 0.0000 1745.5096 -7470.2296 297.4032 -9215.7392 -7447.8597 301.9916 -233.4344 -74.6150 30123.2377 99.6514 180.2948
ENERGY: 600000 0.9125 5.5492 5.6843 0.0000 -10624.7823 1435.5780 0.0000 0.0000 1714.9841 -7462.0741 292.2022 -9177.0583 -7446.3932 300.7833 -159.0396 -71.7339 30776.7104 -39.6350 49.2108
ENERGY: 900000 1.4722 3.8240 4.7674 0.0000 -10671.9084 1441.0910 0.0000 0.0000 1761.2017 -7459.5520 300.0769 -9220.7537 -7452.3606 299.7823 112.8965 192.9143 30220.2574 -57.6503 30.1524
ENERGY: 1200000 1.8485 8.8496 5.6509 0.0000 -10784.3102 1585.8610 0.0000 0.0000 1760.0402 -7422.0600 299.8790 -9182.1002 -7447.4655 300.3408 1224.2294 1271.4345 30139.0256 30.9892 122.0328
ENERGY: 1500000 2.6962 7.2052 6.1956 0.0000 -10587.7267 1383.3542 0.0000 0.0000 1699.7761 -7488.4995 289.6110 -9188.2756 -7451.4849 299.6057 -259.3379 -202.4301 30098.9247 -36.9004 54.0326
TCL: Running FEP window   5: Lambda1 0.2    Lambda2 0.25   [dLambda 0.04999999999999999]
TCL: Setting parameter firsttimestep to 0
TCL: Setting parameter alchLambda to 0.2
Info: NONBONDED TABLE R-SQUARED SPACING: 0.0625
Info: NONBONDED TABLE SIZE: 705 POINTS
TCL: Setting parameter alchLambda2 to 0.25
Info: NONBONDED TABLE R-SQUARED SPACING: 0.0625
Info: NONBONDED TABLE SIZE: 705 POINTS
TCL: Running for 1500000 steps
ETITLE: TS BOND ANGLE DIHED IMPRP ELECT VDW BOUNDARY MISC KINETIC TOTAL TEMP POTENTIAL TOTALAVG TEMPAVG PRESSURE GPRESSURE VOLUME PRESSAVG GPRESSAVG
ENERGY: 0 2.6962 7.2052 6.1956 0.0000 -10587.7274 1383.4618 0.0000 0.0000 1698.9042 -7489.2645 289.4625 -9188.1687 -7489.2645 289.4625 -272.1370 -198.2319 30098.9247 -272.1370 -198.2319
ENERGY: 300000 2.1622 9.0057 6.1358 0.0000 -10617.6551 1481.9391 0.0000 0.0000 1725.4824 -7392.9299 293.9909 -9118.4124 -7434.8815 296.4888 599.6394 596.1099 30313.5538 -4.1630 51.5921
ENERGY: 600000 3.5074 8.1289 5.6670 0.0000 -10720.6732 1449.4905 0.0000 0.0000 1766.5995 -7487.2798 300.9966 -9253.8793 -7459.4245 298.7884 -22.3833 39.0150 30292.0552 -101.7101 -39.3261
ENERGY: 900000 1.6125 9.3942 6.0950 0.0000 -10579.5104 1371.7761 0.0000 0.0000 1753.5280 -7437.1045 298.7694 -9190.6325 -7447.9779 299.9082 -341.4362 -275.8571 30423.7108 92.6976 159.8643
ENERGY: 1200000 1.1701 12.1210 5.1735 0.0000 -10544.7092 1316.1739 0.0000 0.0000 1733.5825 -7476.4883 295.3710 -9210.0707 -7452.4380 300.2196 -1270.2002 -1190.3936 31059.5360 -80.5436 -16.7920
ENERGY: 1500000 2.7381 8.1909 5.4793 0.0000 -10734.5419 1565.5725 0.0000 0.0000 1791.4431 -7361.1179 305.2295 -9152.5611 -7450.5072 300.4627 1075.0116 1203.8117 30380.0768 14.4521 88.3071
TCL: Running FEP window   6: Lambda1 0.25   Lambda2 0.3    [dLambda 0.04999999999999999]
TCL: Setting parameter firsttimestep to 0
TCL: Setting parameter alchLambda to 0.25
Info: NONBONDED TABLE R-SQUARED SPACING: 0.0625
Info: NONBONDED TABLE SIZE: 705 POINTS
TCL: Setting parameter alchLambda2 to 0.3
Info: NONBONDED TABLE R-SQUARED SPACING: 0.0625
Info: NONBONDED TABLE SIZE: 705 POINTS
TCL: Running for 1500000 steps
ETITLE: TS BOND ANGLE DIHED IMPRP ELECT VDW BOUNDARY MISC KINETIC TOTAL TEMP POTENTIAL TOTALAVG TEMPAVG PRESSURE GPRESSURE VOLUME PRESSAVG GPRESSAVG
ENERGY: 0 2.7381 8.1909 5.4793 0.0000 -10734.5415 1565.4033 0.0000 0.0000 1790.5616 -7362.1683 305.0793 -9152.7299 -7362.1683 305.0793 1116.1986 1206.5706 30380.0768 1116.1986 1206.5706
ENERGY: 300000 1.4478 10.6194 5.5921 0.0000 -10578.8717 1381.0027 0.0000 0.0000 1797.6071 -7382.6026 306.2797 -9180.2097 -7424.3713 299.5248 -455.6559 -398.9693 30396.5404 76.3886 137.5188
ENERGY: 600000 2.3688 10.4669 5.1480 0.0000 -10667.1259 1398.1126 0.0000 0.0000 1731.0219 -7520.0077 294.9348 -9251.0296 -7468.9833 297.8964 -479.5641 -417.9445 30208.3051 -139.6350 -87.6433
ENERGY: 900000 3.7803 6.2769 5.2368 0.0000 -10793.9260 1505.6250 0.0000 0.0000 1758.6093 -7514.3977 299.6352 -9273.0070 -7479.4905 298.9205 358.5349 415.0967 30252.5410 -180.2520 -129.8535
ENERGY: 1200000 1.5971 8.2681 5.3265 0.0000 -10482.9506 1296.1463 0.0000 0.0000 1737.9412 -7433.6714 296.1137 -9171.6126 -7474.2915 298.6137 -1189.4644 -1114.8848 30895.6707 -284.3246 -222.2087
ENERGY: 1500000 1.7260 5.6670 5.3859 0.0000 -10554.8805 1365.6819 0.0000 0.0000 1739.9852 -7436.4345 296.4620 -9176.4197 -7470.3780 298.7744 -549.3050 -467.6978 30177.2301 -297.3720 -234.8061
TCL: Running FEP window   7: Lambda1 0.3    Lambda2 0.35   [dLambda 0.04999999999999999]
TCL: Setting parameter firsttimestep to 0
TCL: Setting parameter alchLambda to 0.3
Info: NONBONDED TABLE R-SQUARED SPACING: 0.0625
Info: NONBONDED TABLE SIZE: 705 POINTS
TCL: Setting parameter alchLambda2 to 0.35
Info: NONBONDED TABLE R-SQUARED SPACING: 0.0625
Info: NONBONDED TABLE SIZE: 705 POINTS
TCL: Running for 1500000 steps
ETITLE: TS BOND ANGLE DIHED IMPRP ELECT VDW BOUNDARY MISC KINETIC TOTAL TEMP POTENTIAL TOTALAVG TEMPAVG PRESSURE GPRESSURE VOLUME PRESSAVG GPRESSAVG
ENERGY: 0 1.7260 5.6670 5.3859 0.0000 -10554.8799 1367.7746 0.0000 0.0000 1739.1128 -7435.2135 296.3133 -9174.3264 -7435.2135 296.3133 -528.6613 -453.2730 30177.2301 -528.6613 -453.2730
ENERGY: 300000 3.7417 9.3276 5.0758 0.0000 -10680.2142 1442.6019 0.0000 0.0000 1733.0735 -7486.3936 295.2843 -9219.4671 -7467.9692 293.9119 -12.9433 -16.7431 30593.3736 -122.8071 -81.7634
ENERGY: 600000 2.6180 5.8980 5.5787 0.0000 -10821.5671 1500.3565 0.0000 0.0000 1784.1966 -7522.9193 303.9948 -9307.1159 -7487.3335 296.6305 275.9701 340.2317 30070.8212 -50.4582 -2.6858
ENERGY: 900000 3.7589 6.8030 4.8806 0.0000 -10614.4496 1437.6427 0.0000 0.0000 1725.3880 -7435.9762 293.9749 -9161.3643 -7472.2959 297.3036 85.7973 167.4736 30273.2525 -79.7419 -25.6358
ENERGY: 1200000 1.3344 9.2383 5.4418 0.0000 -10641.1938 1483.7762 0.0000 0.0000 1744.5910 -7396.8120 297.2467 -9141.4030 -7466.2023 297.7851 759.2148 825.7546 30159.7838 -22.5114 35.6688
ENERGY: 1500000 1.4400 7.7752 5.7478 0.0000 -10646.3539 1463.0512 0.0000 0.0000 1784.2990 -7384.0407 304.0122 -9168.3397 -7455.5559 299.0232 206.4983 286.9652 30556.3239 59.6038 119.7443
TCL: Running FEP window   8: Lambda1 0.35   Lambda2 0.39999999999999997 [dLambda 0.04999999999999999]
TCL: Setting parameter firsttimestep to 0
TCL: Setting parameter alchLambda to 0.35
Info: NONBONDED TABLE R-SQUARED SPACING: 0.0625
Info: NONBONDED TABLE SIZE: 705 POINTS
TCL: Setting parameter alchLambda2 to 0.39999999999999997
Info: NONBONDED TABLE R-SQUARED SPACING: 0.0625
Info: NONBONDED TABLE SIZE: 705 POINTS
TCL: Running for 1500000 steps
ETITLE: TS BOND ANGLE DIHED IMPRP ELECT VDW BOUNDARY MISC KINETIC TOTAL TEMP POTENTIAL TOTALAVG TEMPAVG PRESSURE GPRESSURE VOLUME PRESSAVG GPRESSAVG
ENERGY: 0 1.4400 7.7752 5.7478 0.0000 -10646.3527 1462.7800 0.0000 0.0000 1783.3609 -7385.2487 303.8524 -9168.6096 -7385.2487 303.8524 214.7198 290.0399 30556.3239 214.7198 290.0399
ENERGY: 300000 1.2321 9.6099 6.2208 0.0000 -10690.6364 1422.2825 0.0000 0.0000 1814.7687 -7436.5223 309.2037 -9251.2910 -7429.2166 303.3766 -290.3891 -267.9751 30665.8834 97.4018 125.9219
ENERGY: 600000 3.4335 10.4045 4.9017 0.0000 -10708.9839 1473.1397 0.0000 0.0000 1771.1782 -7445.9265 301.7767 -9217.1046 -7450.9926 302.5678 455.0684 445.0306 30053.9934 133.1227 155.1911
ENERGY: 900000 2.1001 6.5256 6.1582 0.0000 -10789.9207 1503.6333 0.0000 0.0000 1807.8119 -7463.6916 308.0184 -9271.5035 -7467.2379 301.8438 676.5954 738.9526 29953.3118 159.5284 202.9922
ENERGY: 1200000 0.9431 9.6690 5.9940 0.0000 -10649.7143 1384.3456 0.0000 0.0000 1803.8375 -7444.9251 307.3412 -9248.7626 -7470.9706 301.4186 -544.0553 -419.5197 30245.6894 39.4583 84.1668
ENERGY: 1500000 0.7657 12.7081 6.1725 0.0000 -10625.1973 1397.1525 0.0000 0.0000 1748.2076 -7460.1909 297.8629 -9208.3985 -7472.4837 301.0028 -132.4969 -64.4338 30165.5139 -18.3818 36.0227
TCL: Running FEP window   9: Lambda1 0.39999999999999997 Lambda2 0.44999999999999996 [dLambda 0.04999999999999999]
TCL: Setting parameter firsttimestep to 0
TCL: Setting parameter alchLambda to 0.39999999999999997
Info: NONBONDED TABLE R-SQUARED SPACING: 0.0625
Info: NONBONDED TABLE SIZE: 705 POINTS
TCL: Setting parameter alchLambda2 to 0.44999999999999996
Info: NONBONDED TABLE R-SQUARED SPACING: 0.0625
Info: NONBONDED TABLE SIZE: 705 POINTS
TCL: Running for 1500000 steps
ETITLE: TS BOND ANGLE DIHED IMPRP ELECT VDW BOUNDARY MISC KINETIC TOTAL TEMP POTENTIAL TOTALAVG TEMPAVG PRESSURE GPRESSURE VOLUME PRESSAVG GPRESSAVG
ENERGY: 0 0.7657 12.7081 6.1725 0.0000 -10625.1975 1396.7887 0.0000 0.0000 1747.3465 -7461.4160 297.7162 -9208.7625 -7461.4160 297.7162 -152.3047 -65.6209 30165.5139 -152.3047 -65.6209
ENERGY: 300000 2.3219 5.7079 5.5749 0.0000 -10661.0930 1385.6160 0.0000 0.0000 1795.5894 -7466.2828 305.9359 -9261.8722 -7459.5728 302.7981 -450.2636 -379.4032 30410.1522 -354.5738 -279.1224
ENERGY: 600000 1.6925 7.2698 5.8368 0.0000 -10530.1410 1352.3129 0.0000 0.0000 1739.4348 -7423.5943 296.3682 -9163.0291 -7461.2007 300.8602 -798.0580 -719.2238 30836.0904 -287.8829 -223.4294
ENERGY: 900000 1.5080 8.7931 5.3726 0.0000 -10658.8092 1426.5877 0.0000 0.0000 1768.4601 -7448.0877 301.3136 -9216.5477 -7462.1953 301.8010 -20.0316 103.2783 29956.6261 -175.0253 -93.5045
ENERGY: 1200000 1.1268 7.5966 5.4861 0.0000 -10645.3883 1441.1377 0.0000 0.0000 1761.7562 -7428.2849 300.1713 -9190.0411 -7455.2215 302.0410 -181.6888 -99.5344 30710.9789 -157.2239 -74.8507
ENERGY: 1500000 2.6976 7.0692 6.1188 0.0000 -10647.7504 1468.3678 0.0000 0.0000 1788.6403 -7374.8568 304.7519 -9163.4970 -7444.5236 302.4781 464.2826 475.2938 30463.0479 -128.2026 -51.8937
TCL: Running FEP window  10: Lambda1 0.44999999999999996 Lambda2 0.49999999999999994 [dLambda 0.04999999999999999]
TCL: Setting parameter firsttimestep to 0
TCL: Setting parameter alchLambda to 0.44999999999999996
Info: NONBONDED TABLE R-SQUARED SPACING: 0.0625
Info: NONBONDED TABLE SIZE: 705 POINTS
TCL: Setting parameter alchLambda2 to 0.49999999999999994
Info: NONBONDED TABLE R-SQUARED SPACING: 0.0625
Info: NONBONDED TABLE SIZE: 705 POINTS
TCL: Running for 1500000 steps
ETITLE: TS BOND ANGLE DIHED IMPRP ELECT VDW BOUNDARY MISC KINETIC TOTAL TEMP POTENTIAL TOTALAVG TEMPAVG PRESSURE GPRESSURE VOLUME PRESSAVG GPRESSAVG
ENERGY: 0 2.6976 7.0692 6.1188 0.0000 -10647.7512 1468.4788 0.0000 0.0000 1787.7255 -7375.6613 304.5960 -9163.3868 -7375.6613 304.5960 398.7460 483.0102 30463.0479 398.7460 483.0102
ENERGY: 300000 2.6296 6.2213 5.7693 0.0000 -10638.3468 1441.7199 0.0000 0.0000 1778.1316 -7403.8751 302.9614 -9182.0066 -7434.4292 299.0700 -116.6165 -43.5172 30786.9294 71.3882 145.4743
ENERGY: 600000 1.4381 9.6057 5.3051 0.0000 -10556.4273 1354.3225 0.0000 0.0000 1805.1326 -7380.6234 307.5619 -9185.7560 -7428.2575 299.5705 -491.3112 -400.0893 30213.5951 -61.6863 18.4737
ENERGY: 900000 3.2852 9.5385 6.5197 0.0000 -10637.0834 1455.9634 0.0000 0.0000 1692.9721 -7468.8045 288.4518 -9161.7766 -7435.5482 298.3407 135.4164 227.3295 30400.9963 -123.6365 -46.5836
ENERGY: 1200000 1.4934 8.8630 5.3299 0.0000 -10692.5771 1455.0208 0.0000 0.0000 1757.1141 -7464.7560 299.3804 -9221.8700 -7448.3299 297.9221 110.8320 236.1456 30203.0589 -101.6645 -27.6383
ENERGY: 1500000 2.6863 12.4222 5.9699 0.0000 -10691.2805 1420.3917 0.0000 0.0000 1752.2493 -7497.5610 298.5515 -9249.8103 -7455.3743 297.6797 58.9607 82.1533 29854.7317 -110.9963 -41.0176
TCL: Running FEP window  11: Lambda1 0.49999999999999994 Lambda2 0.5499999999999999 [dLambda 0.04999999999999999]
TCL: Setting parameter firsttimestep to 0
TCL: Setting parameter alchLambda to 0.49999999999999994
Info: NONBONDED TABLE R-SQUARED SPACING: 0.0625
Info: NONBONDED TABLE SIZE: 705 POINTS
TCL: Setting parameter alchLambda2 to 0.5499999999999999
Info: NONBONDED TABLE R-SQUARED SPACING: 0.0625
Info: NONBONDED TABLE SIZE: 705 POINTS
TCL: Running for 1500000 steps
ETITLE: TS BOND ANGLE DIHED IMPRP ELECT VDW BOUNDARY MISC KINETIC TOTAL TEMP POTENTIAL TOTALAVG TEMPAVG PRESSURE GPRESSURE VOLUME PRESSAVG GPRESSAVG
ENERGY: 0 2.6863 12.4222 5.9699 0.0000 -10691.2806 1419.9193 0.0000 0.0000 1751.3667 -7498.9162 298.4012 -9250.2829 -7498.9162 298.4012 1.0194 81.8112 29854.7317 1.0194 81.8112
ENERGY: 300000 1.3187 6.2632 5.4932 0.0000 -10688.5285 1432.4903 0.0000 0.0000 1740.0241 -7502.9390 296.4686 -9242.9632 -7492.1095 301.2377 -145.3279 -110.7707 30089.1966 -356.7193 -269.9909
ENERGY: 600000 1.6345 9.7766 5.1839 0.0000 -10584.5033 1324.9833 0.0000 0.0000 1739.3165 -7503.6087 296.3480 -9242.9251 -7506.3054 300.6898 -848.2856 -855.8700 30306.2959 -275.1258 -209.2057
ENERGY: 900000 0.5539 7.6518 4.9437 0.0000 -10622.1631 1399.5182 0.0000 0.0000 1714.3079 -7495.1875 292.0870 -9209.4955 -7495.6734 299.4096 -282.6398 -224.0561 30289.9575 -187.4633 -126.1692
ENERGY: 1200000 2.3033 11.4034 4.9748 0.0000 -10672.3155 1414.9367 0.0000 0.0000 1720.9132 -7517.7841 293.2124 -9238.6973 -7489.9209 299.4960 -278.0500 -256.8618 30638.9242 -201.6826 -146.8358
ENERGY: 1500000 0.9069 7.6727 6.5477 0.0000 -10716.3008 1428.7335 0.0000 0.0000 1738.5573 -7533.8827 296.2187 -9272.4400 -7487.2820 299.3802 -299.0257 -209.6958 30312.7743 -187.3407 -127.4199
TCL: Running FEP window  12: Lambda1 0.5499999999999999 Lambda2 0.6    [dLambda 0.050000000000000044]
TCL: Setting parameter firsttimestep to 0
TCL: Setting parameter alchLambda to 0.5499999999999999
Info: NONBONDED TABLE R-SQUARED SPACING: 0.0625
Info: NONBONDED TABLE SIZE: 705 POINTS
TCL: Setting parameter alchLambda2 to 0.6
Info: NONBONDED TABLE R-SQUARED SPACING: 0.0625
Info: NONBONDED TABLE SIZE: 705 POINTS
TCL: Running for 1500000 steps
ETITLE: TS BOND ANGLE DIHED IMPRP ELECT VDW BOUNDARY MISC KINETIC TOTAL TEMP POTENTIAL TOTALAVG TEMPAVG PRESSURE GPRESSURE VOLUME PRESSAVG GPRESSAVG
ENERGY: 0 0.9068 7.6727 6.5477 0.0000 -10716.2980 1428.1584 0.0000 0.0000 1737.6995 -7535.3128 296.0725 -9273.0123 -7535.3128 296.0725 -279.0805 -210.9892 30312.7743 -279.0805 -210.9892
ENERGY: 300000 3.6324 7.5176 5.6271 0.0000 -10560.6485 1386.2789 0.0000 0.0000 1741.1318 -7416.4606 296.6573 -9157.5924 -7436.7337 298.3464 -298.0681 -271.7399 30506.2503 -203.6043 -140.2106
ENERGY: 600000 1.6621 8.1861 5.3827 0.0000 -10574.5903 1407.1264 0.0000 0.0000 1721.9944 -7430.2385 293.3967 -9152.2329 -7437.0924 298.7612 -53.8151 -28.5066 30470.7166 -120.0735 -69.0431
ENERGY: 900000 2.1493 6.3079 6.1644 0.0000 -10597.5830 1391.7522 0.0000 0.0000 1798.7893 -7392.4199 306.4811 -9191.2092 -7432.1902 300.5685 -165.7078 -83.0603 30098.6040 -54.6861 9.1895
ENERGY: 1200000 1.2958 7.6290 5.4318 0.0000 -10790.4370 1479.8454 0.0000 0.0000 1765.0152 -7531.2198 300.7266 -9296.2350 -7453.7243 299.6022 286.7413 372.9325 30119.9616 11.7737 61.5015
ENERGY: 1500000 0.8641 8.8458 7.4150 0.0000 -10687.2458 1444.5507 0.0000 0.0000 1804.1748 -7421.3954 307.3987 -9225.5702 -7445.2647 301.3082 -94.1831 -38.2869 30812.7960 11.2321 60.3455
TCL: Running FEP window  13: Lambda1 0.6    Lambda2 0.65   [dLambda 0.050000000000000044]
TCL: Setting parameter firsttimestep to 0
TCL: Setting parameter alchLambda to 0.6
Info: NONBONDED TABLE R-SQUARED SPACING: 0.0625
Info: NONBONDED TABLE SIZE: 705 POINTS
TCL: Setting parameter alchLambda2 to 0.65
Info: NONBONDED TABLE R-SQUARED SPACING: 0.0625
Info: NONBONDED TABLE SIZE: 705 POINTS
TCL: Running for 1500000 steps
ETITLE: TS BOND ANGLE DIHED IMPRP ELECT VDW BOUNDARY MISC KINETIC TOTAL TEMP POTENTIAL TOTALAVG TEMPAVG PRESSURE GPRESSURE VOLUME PRESSAVG GPRESSAVG
ENERGY: 0 0.8641 8.8458 7.4150 0.0000 -10686.6317 1445.1840 0.0000 0.0000 1803.2909 -7421.0319 307.2481 -9224.3229 -7421.0319 307.2481 -106.2521 -24.5388 30812.7960 -106.2521 -24.5388
ENERGY: 300000 2.8094 10.4600 5.6605 0.0000 -10616.1410 1405.6397 0.0000 0.0000 1755.5387 -7436.0326 299.1120 -9191.5713 -7419.3156 301.9878 -394.2254 -274.1976 30430.6380 -89.6213 -10.9682
ENERGY: 600000 3.7406 10.7178 5.8513 0.0000 -10666.6797 1411.9625 0.0000 0.0000 1721.0253 -7513.3822 293.2315 -9234.4075 -7440.4790 300.9160 -236.7824 -99.1298 29923.4267 -157.1534 -75.2210
ENERGY: 900000 1.7721 11.2500 5.6590 0.0000 -10745.0085 1485.6916 0.0000 0.0000 1738.2048 -7502.4310 296.1586 -9240.6358 -7445.9937 301.0475 540.1799 621.8985 30106.9883 -92.5347 -10.6572
ENERGY: 1200000 3.3805 8.3613 5.0977 0.0000 -10675.6242 1439.9874 0.0000 0.0000 1780.8958 -7437.9015 303.4324 -9218.7972 -7440.7011 301.8034 -109.5078 14.8720 30641.2373 -116.1430 -35.3566
ENERGY: 1500000 0.7340 11.0493 8.0216 0.0000 -10726.5387 1441.0346 0.0000 0.0000 1799.3552 -7466.3440 306.5775 -9265.6992 -7447.3558 301.6455 104.1719 158.9826 30082.3758 -112.3057 -34.9126
TCL: Running FEP window  14: Lambda1 0.65   Lambda2 0.7000000000000001 [dLambda 0.050000000000000044]
TCL: Setting parameter firsttimestep to 0
TCL: Setting parameter alchLambda to 0.65
Info: NONBONDED TABLE R-SQUARED SPACING: 0.0625
Info: NONBONDED TABLE SIZE: 705 POINTS
TCL: Setting parameter alchLambda2 to 0.7000000000000001
Info: NONBONDED TABLE R-SQUARED SPACING: 0.0625
Info: NONBONDED TABLE SIZE: 705 POINTS
TCL: Running for 1500000 steps
ETITLE: TS BOND ANGLE DIHED IMPRP ELECT VDW BOUNDARY MISC KINETIC TOTAL TEMP POTENTIAL TOTALAVG TEMPAVG PRESSURE GPRESSURE VOLUME PRESSAVG GPRESSAVG
ENERGY: 0 0.7340 11.0493 8.0216 0.0000 -10726.9141 1440.4992 0.0000 0.0000 1798.5160 -7468.0940 306.4345 -9266.6100 -7468.0940 306.4345 70.0065 162.0469 30082.3758 70.0065 162.0469
ENERGY: 300000 2.3327 7.6942 5.1162 0.0000 -10698.7909 1425.7657 0.0000 0.0000 1750.2506 -7507.6315 298.2110 -9257.8821 -7478.6350 299.5602 -264.7517 -159.0906 30309.7155 -59.5333 33.6777
ENERGY: 600000 4.0120 9.2763 6.4986 0.0000 -10648.9405 1372.6315 0.0000 0.0000 1759.5463 -7496.9758 299.7948 -9256.5222 -7479.1552 299.3228 -712.4394 -628.9208 30467.9324 -130.2370 -46.9245
ENERGY: 900000 4.1549 9.0833 5.6403 0.0000 -10658.2705 1449.7784 0.0000 0.0000 1726.0062 -7463.6074 294.0802 -9189.6136 -7478.6529 298.1407 211.5437 263.6634 30047.4431 -113.8924 -31.0497
ENERGY: 1200000 0.4636 7.4263 5.3846 0.0000 -10748.9788 1447.2681 0.0000 0.0000 1789.3133 -7499.1229 304.8666 -9288.4362 -7477.7859 300.0547 100.0513 115.1914 30202.4855 -100.3651 -37.6260
ENERGY: 1500000 2.9148 6.9903 6.7377 0.0000 -10703.3421 1487.9944 0.0000 0.0000 1804.5541 -7394.1508 307.4633 -9198.7049 -7468.3142 299.8593 610.5392 698.2685 30024.3824 -0.6070 69.5879
TCL: Running FEP window  15: Lambda1 0.7000000000000001 Lambda2 0.7500000000000001 [dLambda 0.050000000000000044]
TCL: Setting parameter firsttimestep to 0
TCL: Setting parameter alchLambda to 0.7000000000000001
Info: NONBONDED TABLE R-SQUARED SPACING: 0.0625
Info: NONBONDED TABLE SIZE: 705 POINTS
TCL: Setting parameter alchLambda2 to 0.7500000000000001
Info: NONBONDED TABLE R-SQUARED SPACING: 0.0625
Info: NONBONDED TABLE SIZE: 705 POINTS
TCL: Running for 1500000 steps
ETITLE: TS BOND ANGLE DIHED IMPRP ELECT VDW BOUNDARY MISC KINETIC TOTAL TEMP POTENTIAL TOTALAVG TEMPAVG PRESSURE GPRESSURE VOLUME PRESSAVG GPRESSAVG
ENERGY: 0 2.9147 6.9903 6.7377 0.0000 -10704.7123 1488.0187 0.0000 0.0000 1803.6453 -7396.4054 307.3085 -9200.0508 -7396.4054 307.3085 625.5601 701.0453 30024.3824 625.5601 701.0453
ENERGY: 300000 1.4118 7.5773 5.3922 0.0000 -10796.6005 1478.5925 0.0000 0.0000 1705.2603 -7598.3663 290.5455 -9303.6266 -7480.7394 297.9572 265.3713 290.3458 29930.4296 555.6352 615.6365
ENERGY: 600000 3.3460 12.8320 7.5394 0.0000 -10686.3938 1421.1409 0.0000 0.0000 1786.8962 -7454.6394 304.4547 -9241.5356 -7470.2753 299.7895 -294.3630 -219.3373 30422.3876 228.6098 279.8370
ENERGY: 900000 4.0971 9.8356 5.6945 0.0000 -10613.2469 1387.6457 0.0000 0.0000 1761.8574 -7444.1166 300.1886 -9205.9740 -7473.3028 299.7731 -475.5367 -415.0008 30416.5061 88.8217 152.6514
ENERGY: 1200000 2.9769 9.6767 5.5175 0.0000 -10873.0779 1490.0115 0.0000 0.0000 1747.5554 -7617.3399 297.7518 -9364.8953 -7474.1432 299.4842 147.6891 174.4782 29821.0539 50.4449 111.5732
ENERGY: 1500000 1.1444 9.4038 4.9144 0.0000 -10636.3338 1412.5389 0.0000 0.0000 1729.1885 -7479.1439 294.6224 -9208.3324 -7482.1431 298.7739 -281.2132 -260.8125 30857.4057 28.8527 89.7287
TCL: Running FEP window  16: Lambda1 0.7500000000000001 Lambda2 0.8000000000000002 [dLambda 0.050000000000000044]
TCL: Setting parameter firsttimestep to 0
TCL: Setting parameter alchLambda to 0.7500000000000001
Info: NONBONDED TABLE R-SQUARED SPACING: 0.0625
Info: NONBONDED TABLE SIZE: 705 POINTS
TCL: Setting parameter alchLambda2 to 0.8000000000000002
Info: NONBONDED TABLE R-SQUARED SPACING: 0.0625
Info: NONBONDED TABLE SIZE: 705 POINTS
TCL: Running for 1500000 steps
ETITLE: TS BOND ANGLE DIHED IMPRP ELECT VDW BOUNDARY MISC KINETIC TOTAL TEMP POTENTIAL TOTALAVG TEMPAVG PRESSURE GPRESSURE VOLUME PRESSAVG GPRESSAVG
ENERGY: 0 1.1444 9.4038 4.9144 0.0000 -10637.0246 1413.1655 0.0000 0.0000 1728.2917 -7480.1049 294.4696 -9208.3966 -7480.1049 294.4696 -331.6818 -245.6412 30857.4057 -331.6818 -245.6412
ENERGY: 300000 0.9804 7.2511 5.3952 0.0000 -10558.0696 1414.0885 0.0000 0.0000 1859.0043 -7271.3500 316.7407 -9130.3544 -7402.1814 304.2118 104.5567 226.6607 30588.3133 -292.5382 -213.1181
ENERGY: 600000 5.6716 11.7069 4.8810 0.0000 -10675.5605 1388.7132 0.0000 0.0000 1774.2260 -7490.3619 302.2960 -9264.5879 -7429.2430 302.6534 -607.5515 -458.6541 30329.6701 -248.3963 -172.3424
ENERGY: 900000 1.2890 8.2790 4.9635 0.0000 -10734.1163 1438.2126 0.0000 0.0000 1778.2578 -7503.1144 302.9829 -9281.3722 -7432.0936 301.8312 -44.8765 26.2357 29995.1358 -222.0870 -155.6039
ENERGY: 1200000 0.6681 8.0702 6.0040 0.0000 -10741.5766 1478.0658 0.0000 0.0000 1716.6721 -7532.0963 292.4898 -9248.7684 -7452.1436 299.9828 141.9125 170.5270 30723.3933 -73.5110 -9.2595
ENERGY: 1500000 1.5016 8.6670 5.8370 0.0000 -10746.6385 1498.9127 0.0000 0.0000 1804.1234 -7427.5967 307.3899 -9231.7202 -7445.6433 300.7798 725.1096 784.1082 30033.7549 17.2630 80.8166
TCL: Running FEP window  17: Lambda1 0.8000000000000002 Lambda2 0.8500000000000002 [dLambda 0.050000000000000044]
TCL: Setting parameter firsttimestep to 0
TCL: Setting parameter alchLambda to 0.8000000000000002
Info: NONBONDED TABLE R-SQUARED SPACING: 0.0625
Info: NONBONDED TABLE SIZE: 705 POINTS
TCL: Setting parameter alchLambda2 to 0.8500000000000002
Info: NONBONDED TABLE R-SQUARED SPACING: 0.0625
Info: NONBONDED TABLE SIZE: 705 POINTS
TCL: Running for 1500000 steps
ETITLE: TS BOND ANGLE DIHED IMPRP ELECT VDW BOUNDARY MISC KINETIC TOTAL TEMP POTENTIAL TOTALAVG TEMPAVG PRESSURE GPRESSURE VOLUME PRESSAVG GPRESSAVG
ENERGY: 0 1.5016 8.6670 5.8370 0.0000 -10747.8344 1499.8714 0.0000 0.0000 1803.2233 -7428.7340 307.2366 -9231.9573 -7428.7340 307.2366 735.8655 806.6769 30033.7549 735.8655 806.6769
ENERGY: 300000 1.6224 11.8453 5.2582 0.0000 -10796.6255 1445.1365 0.0000 0.0000 1737.6136 -7595.1494 296.0579 -9332.7631 -7468.8887 304.2714 57.4333 46.4441 29939.5291 149.2117 183.5977
ENERGY: 600000 0.5608 5.5687 5.1225 0.0000 -10645.4998 1438.8735 0.0000 0.0000 1753.9288 -7441.4454 298.8377 -9195.3742 -7471.1068 301.5668 103.1564 135.0624 30618.5426 260.2124 303.8529
ENERGY: 900000 1.9752 7.5969 5.5578 0.0000 -10578.4689 1402.9709 0.0000 0.0000 1711.0452 -7449.3229 291.5311 -9160.3681 -7463.3942 300.2028 36.0911 93.3784 30544.6227 186.9895 233.0205
ENERGY: 1200000 1.6138 9.0400 5.3210 0.0000 -10592.0832 1347.7250 0.0000 0.0000 1761.9543 -7466.4292 300.2051 -9228.3834 -7468.8748 299.7570 -417.8884 -347.9702 30045.1308 46.9167 103.6916
ENERGY: 1500000 2.6835 9.0272 5.5086 0.0000 -10633.6732 1373.8811 0.0000 0.0000 1810.6097 -7431.9631 308.4951 -9242.5728 -7461.8869 301.1730 -424.5666 -408.3249 30096.2684 8.2024 64.0555
TCL: Running FEP window  18: Lambda1 0.8500000000000002 Lambda2 0.9000000000000002 [dLambda 0.050000000000000044]
TCL: Setting parameter firsttimestep to 0
TCL: Setting parameter alchLambda to 0.8500000000000002
Info: NONBONDED TABLE R-SQUARED SPACING: 0.0625
Info: NONBONDED TABLE SIZE: 705 POINTS
TCL: Setting parameter alchLambda2 to 0.9000000000000002
Info: NONBONDED TABLE R-SQUARED SPACING: 0.0625
Info: NONBONDED TABLE SIZE: 705 POINTS
TCL: Running for 1500000 steps
ETITLE: TS BOND ANGLE DIHED IMPRP ELECT VDW BOUNDARY MISC KINETIC TOTAL TEMP POTENTIAL TOTALAVG TEMPAVG PRESSURE GPRESSURE VOLUME PRESSAVG GPRESSAVG
ENERGY: 0 2.6835 9.0272 5.5086 0.0000 -10634.3578 1374.2682 0.0000 0.0000 1809.7205 -7433.1498 308.3436 -9242.8703 -7433.1498 308.3436 -467.4304 -391.4663 30096.2684 -467.4304 -391.4663
ENERGY: 300000 2.5156 5.0140 5.2742 0.0000 -10681.6272 1411.8420 0.0000 0.0000 1732.1462 -7524.8353 295.1263 -9256.9815 -7479.1636 301.4210 -377.1162 -329.6797 30668.5104 -471.8552 -396.3004
ENERGY: 600000 2.3658 8.1360 5.3922 0.0000 -10668.0917 1393.2482 0.0000 0.0000 1755.7156 -7503.2339 299.1421 -9258.9495 -7478.7068 302.4929 -413.1775 -377.6518 30342.6919 -288.3073 -224.6090
ENERGY: 900000 2.4319 7.1840 5.2396 0.0000 -10577.2105 1391.5586 0.0000 0.0000 1784.9703 -7385.8261 304.1266 -9170.7964 -7473.5111 302.2496 -490.2338 -450.5819 31251.6415 -232.0105 -172.4885
ENERGY: 1200000 0.5576 7.4772 6.3734 0.0000 -10491.3730 1369.2430 0.0000 0.0000 1763.7635 -7343.9583 300.5133 -9107.7218 -7473.1773 301.0461 -474.3077 -452.7842 31120.2915 -197.7396 -140.1536
ENERGY: 1500000 0.9537 12.4805 6.3266 0.0000 -10685.0954 1428.5581 0.0000 0.0000 1785.6710 -7451.1054 304.2460 -9236.7765 -7476.6711 301.6626 143.7513 97.2991 30381.9666 -93.9938 -40.8838
TCL: Running FEP window  19: Lambda1 0.9000000000000002 Lambda2 0.9500000000000003 [dLambda 0.050000000000000044]
TCL: Setting parameter firsttimestep to 0
TCL: Setting parameter alchLambda to 0.9000000000000002
Info: NONBONDED TABLE R-SQUARED SPACING: 0.0625
Info: NONBONDED TABLE SIZE: 705 POINTS
TCL: Setting parameter alchLambda2 to 0.9500000000000003
Info: NONBONDED TABLE R-SQUARED SPACING: 0.0625
Info: NONBONDED TABLE SIZE: 705 POINTS
TCL: Running for 1500000 steps
ETITLE: TS BOND ANGLE DIHED IMPRP ELECT VDW BOUNDARY MISC KINETIC TOTAL TEMP POTENTIAL TOTALAVG TEMPAVG PRESSURE GPRESSURE VOLUME PRESSAVG GPRESSAVG
ENERGY: 0 0.9537 12.4805 6.3266 0.0000 -10685.2996 1428.4988 0.0000 0.0000 1784.7950 -7452.2449 304.0967 -9237.0399 -7452.2449 304.0967 34.8645 107.3949 30381.9666 34.8645 107.3949
ENERGY: 300000 2.3121 12.5197 5.1912 0.0000 -10617.5232 1364.9886 0.0000 0.0000 1728.8169 -7503.6948 294.5591 -9232.5117 -7488.5250 297.5213 -670.1251 -545.4467 30353.7727 -174.2593 -80.4281
ENERGY: 600000 5.7047 7.2036 5.4191 0.0000 -10641.3591 1355.5178 0.0000 0.0000 1765.1013 -7502.4126 300.7413 -9267.5139 -7456.4151 300.0828 -922.4200 -807.1086 30580.6636 -301.0659 -195.1142
ENERGY: 900000 0.8151 6.8526 5.8293 0.0000 -10726.9682 1442.0370 0.0000 0.0000 1775.7999 -7495.6343 302.5641 -9271.4342 -7438.9992 301.1363 -83.0905 -79.0302 30752.5221 -164.1803 -79.9571
ENERGY: 1200000 1.6953 9.9761 6.9908 0.0000 -10785.5147 1494.4539 0.0000 0.0000 1720.6657 -7551.7328 293.1703 -9272.3985 -7446.2374 301.4373 507.3668 561.2952 29870.1383 -59.6506 13.1889
ENERGY: 1500000 1.3098 4.0900 4.9291 0.0000 -10634.4255 1435.8054 0.0000 0.0000 1770.0267 -7418.2645 301.5805 -9188.2912 -7455.4145 301.6753 130.3232 161.0665 30581.5600 -126.7974 -55.6401
TCL: Running FEP window  20: Lambda1 0.9500000000000003 Lambda2 1.0    [dLambda 0.04999999999999971]
TCL: Setting parameter firsttimestep to 0
TCL: Setting parameter alchLambda to 0.9500000000000003
Info: NONBONDED TABLE R-SQUARED SPACING: 0.0625
Info: NONBONDED TABLE SIZE: 705 POINTS
TCL: Setting parameter alchLambda2 to 1.0
Info: NONBONDED TABLE R-SQUARED SPACING: 0.0625
Info: NONBONDED TABLE SIZE: 705 POINTS
TCL: Running for 1500000 steps
ETITLE: TS BOND ANGLE DIHED IMPRP ELECT VDW BOUNDARY MISC KINETIC TOTAL TEMP POTENTIAL TOTALAVG TEMPAVG PRESSURE GPRESSURE VOLUME PRESSAVG GPRESSAVG
ENERGY: 0 1.3098 4.0900 4.9291 0.0000 -10635.9784 1437.0047 0.0000 0.0000 1769.1492 -7419.4956 301.4310 -9188.6448 -7419.4956 301.4310 98.8111 177.7420 30581.5600 98.8111 177.7420
ENERGY: 300000 1.0281 15.6951 6.1890 0.0000 -10765.2813 1486.8584 0.0000 0.0000 1741.3331 -7514.1777 296.6916 -9255.5108 -7462.5002 302.1214 327.7354 439.1689 30244.3959 -73.7225 14.4667
ENERGY: 600000 2.1222 8.5438 5.4260 0.0000 -10613.1804 1436.3373 0.0000 0.0000 1748.6631 -7412.0880 297.9405 -9160.7511 -7473.9410 300.9217 -9.2281 91.7995 30701.3993 -195.0934 -116.2643
ENERGY: 900000 0.7704 6.5695 5.0310 0.0000 -10790.6678 1529.5068 0.0000 0.0000 1771.1329 -7477.6573 301.7690 -9248.7902 -7475.8637 301.3360 987.1564 1030.9765 29874.4245 54.7489 121.0767
ENERGY: 1200000 2.1586 5.7399 5.0012 0.0000 -10655.9426 1397.6575 0.0000 0.0000 1757.9062 -7487.4792 299.5154 -9245.3854 -7485.4070 299.9106 -200.0168 -182.7084 30399.7710 -44.5502 30.6705
ENERGY: 1500000 2.8370 6.3457 5.2592 0.0000 -10746.1643 1452.7627 0.0000 0.0000 1773.2513 -7505.7084 302.1299 -9278.9597 -7490.1610 299.4402 12.9469 4.7321 30181.0919 25.3432 95.4615
TCL: Exiting due to exit command.
