Info: SIMULATION PARAMETERS:
Info: TIMESTEP               2
Info: NUMBER OF STEPS        0
Info: STEPS PER CYCLE        10
Info: PERIODIC CELL BASIS 1  31.0737 0 0
Info: PERIODIC CELL BASIS 2  0 30.4081 0
Info: PERIODIC CELL BASIS 3  0 0 31.8246
Info: PERIODIC CELL CENTER   0 0 0
Info: WRAPPING WATERS AROUND PERIODIC BOUNDARIES ON OUTPUT.
Info: WRAPPING ALL CLUSTERS AROUND PERIODIC BOUNDARIES ON OUTPUT.
Info: FIRST LDB TIMESTEP     50
Info: LAST LDB TIMESTEP     -1
Info: HOM BACKGROUND SCALING 1
Info: PME BACKGROUND SCALING 1
Info: MIN ATOMS PER PATCH    40
Info: EMPTY PATCH LOAD       40 ATOMS
Info: VELOCITY FILE          mobley_5852491_equil.vel
Info: CENTER OF MASS MOVING INITIALLY? NO
Info: DIELECTRIC             1
Info: EXCLUDE                SCALED ONE-FOUR
Info: 1-4 ELECTROSTATICS SCALED BY 0.833333
Info: MODIFIED 1-4 VDW PARAMETERS WILL BE USED
Info: DCD FILENAME           mobley_5852491_prod.dcd
Info: DCD FREQUENCY          100000
Info: DCD FIRST STEP         100000
Info: DCD FILE WILL CONTAIN UNIT CELL DATA
Info: XST FILENAME           mobley_5852491_prod.xst
Info: XST FREQUENCY          100000
Info: NO VELOCITY DCD OUTPUT
Info: NO FORCE DCD OUTPUT
Info: OUTPUT FILENAME        mobley_5852491_prod
Info: BINARY OUTPUT FILES WILL BE USED
Info: RESTART FILENAME       mobley_5852491_prod.restart
Info: RESTART FREQUENCY      100000
Info: BINARY RESTART FILES WILL BE USED
Info: CUTOFF                 9
Info: PAIRLIST DISTANCE      11
Info: PAIRLIST SHRINK RATE   0.01
Info: PAIRLIST GROW RATE     0.01
Info: PAIRLIST TRIGGER       0.3
Info: PAIRLISTS PER CYCLE    2
Info: PAIRLISTS ENABLED
Info: MARGIN                 2
Info: HYDROGEN GROUP CUTOFF  2.5
Info: PATCH DIMENSION        15.5
Info: ENERGY OUTPUT STEPS    100000
Info: ENERGY EVALUATION STEPS    100000
Info: OUTPUT ENERGY PRECISION 4
Info: CROSSTERM ENERGY INCLUDED IN DIHEDRAL
Info: TIMING OUTPUT STEPS    1000000
Info: PRESSURE OUTPUT STEPS  100000
Info: ALCHEMICAL FEP ON
Info: FEP CURRENT LAMBDA VALUE     1
Info: FEP COMPARISON LAMBDA VALUE  0.95
Info: FEP INTRA-ALCHEMICAL NON-BONDED INTERACTIONS WILL BE RETAINED
Info: FEP INTRA-ALCHEMICAL BONDED INTERACTIONS WILL BE RETAINED
Info: FEP VDW SHIFTING COEFFICIENT 5
Info: FEP ELEC. ACTIVE FOR ANNIHILATED PARTICLES BETWEEN LAMBDA = 0 AND LAMBDA = 0.5
Info: FEP ELEC. ACTIVE FOR EXNIHILATED PARTICLES BETWEEN LAMBDA = 0.5 AND LAMBDA = 1
Info: FEP VDW ACTIVE FOR ANNIHILATED PARTICLES BETWEEN LAMBDA = 0 AND LAMBDA = 1
Info: FEP VDW ACTIVE FOR EXNIHILATED PARTICLES BETWEEN LAMBDA = 0 AND LAMBDA = 1
Info: FEP BOND ACTIVE FOR ANNIHILATED PARTICLES BETWEEN LAMBDA = 1 AND LAMBDA = 1
Info: FEP BOND ACTIVE FOR EXNIHILATED PARTICLES BETWEEN LAMBDA = 0 AND LAMBDA = 0
Info: LANGEVIN DYNAMICS ACTIVE
Info: LANGEVIN TEMPERATURE   300
Info: LANGEVIN USING BBK INTEGRATOR
Info: LANGEVIN DAMPING COEFFICIENT IS 1 INVERSE PS
Info: LANGEVIN DYNAMICS APPLIED TO HYDROGENS
Info: LANGEVIN PISTON PRESSURE CONTROL ACTIVE
Info:        TARGET PRESSURE IS 1.01325 BAR
Info:     OSCILLATION PERIOD IS 50 FS
Info:             DECAY TIME IS 25 FS
Info:     PISTON TEMPERATURE IS 300 K
Info:       PRESSURE CONTROL IS GROUP-BASED
Info:    INITIAL STRAIN RATE IS 0.000141193 0.000141193 0.000141193
Info:       CELL FLUCTUATION IS ISOTROPIC
Info: PARTICLE MESH EWALD (PME) ACTIVE
Info: PME TOLERANCE               1e-06
Info: PME EWALD COEFFICIENT       0.348832
Info: PME INTERPOLATION ORDER     4
Info: PME GRID DIMENSIONS         32 32 32
Info: PME MAXIMUM GRID SPACING    1
Info: PME CALCULATION WILL BE PERFORMED ON GPU
Info: FULL ELECTROSTATIC EVALUATION FREQUENCY      2
Info: USING VERLET I (r-RESPA) MTS SCHEME.
Info: C1 SPLITTING OF LONG RANGE ELECTROSTATICS
Info: PLACING ATOMS IN PATCHES BY HYDROGEN GROUPS
Info: RIGID BONDS TO HYDROGEN : ALL
Info:         ERROR TOLERANCE : 1e-08
Info:          MAX ITERATIONS : 100
Info: RIGID WATER USING SETTLE ALGORITHM
Info: RANDOM NUMBER SEED     1743614254
Info: USE HYDROGEN BONDS?    NO
Info: Using AMBER format force field!
Info: AMBER PARM FILE        mobley_5852491.prmtop
Info: COORDINATE PDB         mobley_5852491.pdb
Info: Exclusions will be read from PARM file!
Info: SCNB (VDW SCALING)     2
Info: USING ARITHMETIC MEAN TO COMBINE L-J SIGMA PARAMETERS
Info: BINARY COORDINATES     mobley_5852491_equil.coor
Info: SUMMARY OF PARAMETERS:
Info: 4 BONDS
Info: 3 ANGLES
Info:   3 HARMONIC
Info:   0 COSINE-BASED
Info: 5 DIHEDRAL
Info: 0 IMPROPER
Info: 0 CROSSTERM
Info: 0 VDW
Info: 10 VDW_PAIRS
Info: 0 NBTHOLE_PAIRS
Info: To read alchdata from file: mobley_5852491.pdb
Info: To read alchflag data from column: 5
Info: STRUCTURE SUMMARY:
Info: 2904 ATOMS
Info: 2904 BONDS
Info: 36 ANGLES
Info: 68 DIHEDRALS
Info: 0 IMPROPERS
Info: 0 CROSSTERMS
Info: 2989 EXCLUSIONS
Info: 2898 RIGID BONDS
Info: ALCH: 0 ATOMS TO DISAPPEAR IN FINAL STATE
Info: ALCH: 18 ATOMS TO APPEAR IN FINAL STATE
Info: 5814 DEGREES OF FREEDOM
Info: 968 HYDROGEN GROUPS
Info: 4 ATOMS IN LARGEST HYDROGEN GROUP
Info: 968 MIGRATION GROUPS
Info: 4 ATOMS IN LARGEST MIGRATION GROUP
Info: TOTAL MASS = 17415.5 amu
Info: TOTAL CHARGE = 0.000100002 e
Info: MASS DENSITY = 0.961724 g/cm^3
Info: ATOM DENSITY = 0.0965719 atoms/A^3
Info: ADDED 0 IMPLICIT EXCLUSIONS
Info: NONBONDED TABLE R-SQUARED SPACING: 0.0625
Info: NONBONDED TABLE SIZE: 705 POINTS
Info: REMOVING COM VELOCITY -0.147252 -0.0412755 0.107125
Info: Use 3D box decompostion in PME FFT.
Info: Updated CUDA force table with 4096 elements.
Info: Updated CUDA LJ table with 4 x 4 elements.
Info: Found 21 unique exclusion lists needing 56 bytes
TCL: Running for 1500000 steps
ETITLE: TS BOND ANGLE DIHED IMPRP ELECT VDW BOUNDARY MISC KINETIC TOTAL TEMP POTENTIAL TOTALAVG TEMPAVG PRESSURE GPRESSURE VOLUME PRESSAVG GPRESSAVG
ENERGY: 0 1.6930 10.0149 12.2215 0.0000 -10432.7450 1306.7340 0.0000 0.0000 1742.2449 -7359.8367 301.5953 -9102.0816 -7359.8367 301.5953 -807.5679 -727.9873 30070.8689 -807.5679 -727.9873
ENERGY: 300000 1.2900 8.8571 11.5193 0.0000 -10441.5591 1451.3530 0.0000 0.0000 1818.4297 -7150.1099 314.7834 -8968.5396 -7326.2744 302.8946 644.5641 667.9716 30162.6376 -129.8341 -66.9573
ENERGY: 600000 2.1797 20.1442 7.4211 0.0000 -10560.4955 1410.3441 0.0000 0.0000 1739.7747 -7380.6317 301.1677 -9120.4064 -7323.9942 301.7950 -27.2132 21.2762 29664.8667 -48.9196 10.9744
ENERGY: 900000 0.8908 15.1951 9.9421 0.0000 -10544.3976 1486.1855 0.0000 0.0000 1742.3754 -7289.8087 301.6179 -9032.1841 -7327.0771 302.2405 666.4947 776.5323 29990.1537 -116.9502 -48.6111
ENERGY: 1200000 0.8527 13.5218 10.7952 0.0000 -10498.5437 1394.8170 0.0000 0.0000 1752.8549 -7325.7019 303.4320 -9078.5569 -7329.6579 301.9563 71.4102 138.7364 29483.3232 -121.2908 -52.8798
ENERGY: 1500000 4.1021 12.3257 11.8545 0.0000 -10477.0427 1389.2432 0.0000 0.0000 1742.1012 -7317.4160 301.5704 -9059.5172 -7327.2273 301.6756 -290.6261 -167.0489 29745.5358 -159.0615 -92.1140
TCL: Running FEP window   2: Lambda1 0.95   Lambda2 0.8999999999999999 [dLambda -0.050000000000000044]
TCL: Setting parameter firsttimestep to 0
TCL: Setting parameter alchLambda to 0.95
Info: NONBONDED TABLE R-SQUARED SPACING: 0.0625
Info: NONBONDED TABLE SIZE: 705 POINTS
TCL: Setting parameter alchLambda2 to 0.8999999999999999
Info: NONBONDED TABLE R-SQUARED SPACING: 0.0625
Info: NONBONDED TABLE SIZE: 705 POINTS
TCL: Running for 1500000 steps
ETITLE: TS BOND ANGLE DIHED IMPRP ELECT VDW BOUNDARY MISC KINETIC TOTAL TEMP POTENTIAL TOTALAVG TEMPAVG PRESSURE GPRESSURE VOLUME PRESSAVG GPRESSAVG
ENERGY: 0 4.1021 12.3257 11.8545 0.0000 -10477.0326 1389.8563 0.0000 0.0000 1741.2751 -7317.6189 301.4274 -9058.8940 -7317.6189 301.4274 -268.6939 -169.7636 29745.5358 -268.6939 -169.7636
ENERGY: 300000 1.3252 10.6429 9.0116 0.0000 -10431.8507 1353.3494 0.0000 0.0000 1685.7894 -7371.7322 291.8224 -9057.5217 -7350.0354 299.0304 -374.3040 -274.2813 30021.3862 -221.9470 -127.4318
ENERGY: 600000 0.8851 11.5457 11.7457 0.0000 -10578.9932 1461.8880 0.0000 0.0000 1731.3761 -7361.5526 299.7138 -9092.9287 -7332.0920 301.0410 405.4125 537.8300 29553.9444 -113.3469 -14.7319
ENERGY: 900000 2.2916 12.4797 8.4694 0.0000 -10499.5985 1442.4337 0.0000 0.0000 1752.3095 -7281.6146 303.3376 -9033.9241 -7330.5363 301.2408 366.3647 446.9584 29732.0453 -223.5754 -140.5095
ENERGY: 1200000 1.9703 11.4515 13.4264 0.0000 -10588.6664 1475.6601 0.0000 0.0000 1765.5232 -7320.6349 305.6249 -9086.1581 -7346.9755 300.6486 811.5224 814.7063 29519.5276 -187.1881 -108.0275
ENERGY: 1500000 2.2076 13.1079 10.4893 0.0000 -10574.3184 1412.3405 0.0000 0.0000 1728.5593 -7407.6138 299.2262 -9136.1730 -7344.8397 299.9862 -320.9754 -281.7987 30249.9792 -258.2631 -181.6329
TCL: Running FEP window   3: Lambda1 0.8999999999999999 Lambda2 0.8499999999999999 [dLambda -0.050000000000000044]
TCL: Setting parameter firsttimestep to 0
TCL: Setting parameter alchLambda to 0.8999999999999999
Info: NONBONDED TABLE R-SQUARED SPACING: 0.0625
Info: NONBONDED TABLE SIZE: 705 POINTS
TCL: Setting parameter alchLambda2 to 0.8499999999999999
Info: NONBONDED TABLE R-SQUARED SPACING: 0.0625
Info: NONBONDED TABLE SIZE: 705 POINTS
TCL: Running for 1500000 steps
ETITLE: TS BOND ANGLE DIHED IMPRP ELECT VDW BOUNDARY MISC KINETIC TOTAL TEMP POTENTIAL TOTALAVG TEMPAVG PRESSURE GPRESSURE VOLUME PRESSAVG GPRESSAVG
ENERGY: 0 2.2076 13.1079 10.4893 0.0000 -10574.2804 1412.4942 0.0000 0.0000 1727.6802 -7408.3012 299.0740 -9135.9813 -7408.3012 299.0740 -386.8373 -289.1229 30249.9792 -386.8373 -289.1229
ENERGY: 300000 2.9226 8.2382 10.8383 0.0000 -10432.2227 1333.6475 0.0000 0.0000 1748.4388 -7328.1374 302.6675 -9076.5761 -7347.8985 299.3644 -668.4371 -575.0925 29934.2811 -561.2823 -474.6576
ENERGY: 600000 1.0748 14.0623 11.5399 0.0000 -10533.8706 1448.3278 0.0000 0.0000 1713.4873 -7345.3786 296.6171 -9058.8659 -7339.8268 299.9115 388.4150 474.4064 29784.7806 -354.0415 -278.9124
ENERGY: 900000 1.5828 8.4012 10.5977 0.0000 -10309.2505 1285.8031 0.0000 0.0000 1712.6467 -7290.2190 296.4716 -9002.8657 -7339.4265 298.5662 -987.9585 -882.0428 30268.3228 -255.6186 -182.6663
ENERGY: 1200000 4.6235 10.6925 11.9798 0.0000 -10294.5843 1275.9501 0.0000 0.0000 1712.0665 -7279.2719 296.3712 -8991.3384 -7336.0467 299.8386 -1178.8762 -1116.6033 30440.7637 -317.8376 -246.6437
ENERGY: 1500000 2.5593 14.1650 10.4246 0.0000 -10489.3203 1409.7125 0.0000 0.0000 1738.9748 -7313.4841 301.0292 -9052.4589 -7340.3147 300.5940 83.5289 86.0818 29683.5102 -296.2429 -235.0391
TCL: Running FEP window   4: Lambda1 0.8499999999999999 Lambda2 0.7999999999999998 [dLambda -0.050000000000000044]
TCL: Setting parameter firsttimestep to 0
TCL: Setting parameter alchLambda to 0.8499999999999999
Info: NONBONDED TABLE R-SQUARED SPACING: 0.0625
Info: NONBONDED TABLE SIZE: 705 POINTS
TCL: Setting parameter alchLambda2 to 0.7999999999999998
Info: NONBONDED TABLE R-SQUARED SPACING: 0.0625
Info: NONBONDED TABLE SIZE: 705 POINTS
TCL: Running for 1500000 steps
ETITLE: TS BOND ANGLE DIHED IMPRP ELECT VDW BOUNDARY MISC KINETIC TOTAL TEMP POTENTIAL TOTALAVG TEMPAVG PRESSURE GPRESSURE VOLUME PRESSAVG GPRESSAVG
ENERGY: 0 2.5593 14.1650 10.4246 0.0000 -10489.3403 1410.1785 0.0000 0.0000 1738.1184 -7313.8947 300.8810 -9052.0130 -7313.8947 300.8810 9.6021 81.9605 29683.5102 9.6021 81.9605
ENERGY: 300000 0.5444 12.6568 10.2275 0.0000 -10523.9731 1456.1397 0.0000 0.0000 1783.8448 -7260.5599 308.7965 -9044.4047 -7315.0551 302.7269 387.9801 473.1008 29991.9217 319.5855 370.1683
ENERGY: 600000 2.2245 11.2003 10.4295 0.0000 -10452.3914 1371.1085 0.0000 0.0000 1759.4543 -7297.9742 304.5744 -9057.4285 -7319.1305 302.4612 -355.0365 -255.9063 29896.8455 207.8419 275.0562
ENERGY: 900000 1.9518 11.1129 9.3825 0.0000 -10446.7353 1366.3862 0.0000 0.0000 1761.8726 -7296.0292 304.9930 -9057.9018 -7313.9886 303.7956 -266.8363 -234.5319 29764.1642 125.3008 193.0551
ENERGY: 1200000 1.2174 11.5109 9.9334 0.0000 -10420.1996 1312.9696 0.0000 0.0000 1691.6119 -7392.9564 292.8304 -9084.5683 -7315.7713 302.1712 -678.6789 -591.7479 29641.2022 78.8978 150.4953
ENERGY: 1500000 0.3976 10.1647 10.8045 0.0000 -10482.5474 1435.8056 0.0000 0.0000 1715.1253 -7310.2498 296.9007 -9025.3751 -7318.9513 301.4292 292.5444 323.5950 30000.6312 84.8714 150.9436
TCL: Running FEP window   5: Lambda1 0.7999999999999998 Lambda2 0.7499999999999998 [dLambda -0.050000000000000044]
TCL: Setting parameter firsttimestep to 0
TCL: Setting parameter alchLambda to 0.7999999999999998
Info: NONBONDED TABLE R-SQUARED SPACING: 0.0625
Info: NONBONDED TABLE SIZE: 705 POINTS
TCL: Setting parameter alchLambda2 to 0.7499999999999998
Info: NONBONDED TABLE R-SQUARED SPACING: 0.0625
Info: NONBONDED TABLE SIZE: 705 POINTS
TCL: Running for 1500000 steps
ETITLE: TS BOND ANGLE DIHED IMPRP ELECT VDW BOUNDARY MISC KINETIC TOTAL TEMP POTENTIAL TOTALAVG TEMPAVG PRESSURE GPRESSURE VOLUME PRESSAVG GPRESSAVG
ENERGY: 0 0.3976 10.1647 10.8045 0.0000 -10482.4735 1435.9069 0.0000 0.0000 1714.2640 -7310.9358 296.7516 -9025.1998 -7310.9358 296.7516 234.2069 316.1180 30000.6312 234.2069 316.1180
ENERGY: 300000 2.4980 13.7542 9.9779 0.0000 -10510.2513 1474.6250 0.0000 0.0000 1789.8627 -7219.5336 309.8383 -9009.3962 -7291.3500 303.0277 955.1030 1001.6471 29552.6498 298.9380 350.6462
ENERGY: 600000 0.4036 13.6811 10.2052 0.0000 -10590.4776 1457.9477 0.0000 0.0000 1762.9279 -7345.3120 305.1757 -9108.2399 -7300.7188 302.3382 87.8180 139.0168 30111.7115 102.3312 158.5461
ENERGY: 900000 2.1054 12.3718 9.4833 0.0000 -10490.4661 1440.8051 0.0000 0.0000 1737.2304 -7288.4702 300.7272 -9025.7006 -7315.5837 301.7333 326.1107 435.3057 29680.2914 166.9762 229.2307
ENERGY: 1200000 2.9469 14.6902 9.6308 0.0000 -10476.8331 1381.6592 0.0000 0.0000 1734.3221 -7333.5840 300.2238 -9067.9061 -7326.3538 300.3267 -237.0493 -186.4283 30060.9310 123.7997 179.7906
ENERGY: 1500000 2.7629 14.7189 11.4248 0.0000 -10606.8580 1495.5132 0.0000 0.0000 1745.1668 -7337.2715 302.1011 -9082.4383 -7329.3398 300.3206 850.1438 920.7220 29637.3125 153.2234 204.1668
TCL: Running FEP window   6: Lambda1 0.7499999999999998 Lambda2 0.6999999999999997 [dLambda -0.050000000000000044]
TCL: Setting parameter firsttimestep to 0
TCL: Setting parameter alchLambda to 0.7499999999999998
Info: NONBONDED TABLE R-SQUARED SPACING: 0.0625
Info: NONBONDED TABLE SIZE: 705 POINTS
TCL: Setting parameter alchLambda2 to 0.6999999999999997
Info: NONBONDED TABLE R-SQUARED SPACING: 0.0625
Info: NONBONDED TABLE SIZE: 705 POINTS
TCL: Running for 1500000 steps
ETITLE: TS BOND ANGLE DIHED IMPRP ELECT VDW BOUNDARY MISC KINETIC TOTAL TEMP POTENTIAL TOTALAVG TEMPAVG PRESSURE GPRESSURE VOLUME PRESSAVG GPRESSAVG
ENERGY: 0 2.7629 14.7189 11.4248 0.0000 -10606.8491 1495.6369 0.0000 0.0000 1744.2772 -7338.0285 301.9471 -9082.3057 -7338.0285 301.9471 819.8157 910.9965 29637.3125 819.8157 910.9965
ENERGY: 300000 0.4778 15.1865 8.4060 0.0000 -10449.5383 1415.7099 0.0000 0.0000 1763.4768 -7246.2814 305.2707 -9009.7581 -7291.3707 304.7055 416.2233 434.5136 29681.9592 -4.8554 75.8398
ENERGY: 600000 1.9584 9.5151 12.1609 0.0000 -10370.4340 1348.6112 0.0000 0.0000 1741.7144 -7256.4741 301.5035 -8998.1884 -7282.6103 302.0416 -548.6333 -508.7822 30438.2438 -128.1100 -59.8433
ENERGY: 900000 4.0913 13.6774 9.2179 0.0000 -10452.6527 1394.6669 0.0000 0.0000 1721.7812 -7309.2179 298.0529 -9030.9991 -7298.6826 301.4262 -18.0547 72.2743 29735.9185 -34.7821 26.2479
ENERGY: 1200000 1.6375 11.8652 10.1307 0.0000 -10418.6402 1370.1505 0.0000 0.0000 1716.5934 -7308.2631 297.1548 -9024.8564 -7304.7064 300.8010 -285.3832 -197.2661 30202.0646 -139.2904 -72.9741
ENERGY: 1500000 1.6800 11.5052 12.4485 0.0000 -10604.1223 1446.2482 0.0000 0.0000 1741.1167 -7391.1237 301.4000 -9132.2405 -7315.3613 300.7136 45.7262 117.1417 29729.0963 -34.5375 24.5027
TCL: Running FEP window   7: Lambda1 0.6999999999999997 Lambda2 0.6499999999999997 [dLambda -0.050000000000000044]
TCL: Setting parameter firsttimestep to 0
TCL: Setting parameter alchLambda to 0.6999999999999997
Info: NONBONDED TABLE R-SQUARED SPACING: 0.0625
Info: NONBONDED TABLE SIZE: 705 POINTS
TCL: Setting parameter alchLambda2 to 0.6499999999999997
Info: NONBONDED TABLE R-SQUARED SPACING: 0.0625
Info: NONBONDED TABLE SIZE: 705 POINTS
TCL: Running for 1500000 steps
ETITLE: TS BOND ANGLE DIHED IMPRP ELECT VDW BOUNDARY MISC KINETIC TOTAL TEMP POTENTIAL TOTALAVG TEMPAVG PRESSURE GPRESSURE VOLUME PRESSAVG GPRESSAVG
ENERGY: 0 1.6800 11.5052 12.4485 0.0000 -10603.9664 1446.5409 0.0000 0.0000 1740.2507 -7391.5412 301.2501 -9131.7918 -7391.5412 301.2501 38.1544 112.7074 29729.0963 38.1544 112.7074
ENERGY: 300000 1.6028 11.5574 10.0400 0.0000 -10463.5004 1356.3395 0.0000 0.0000 1751.8644 -7332.0962 303.2605 -9083.9606 -7338.6599 302.0551 -639.5000 -564.6053 30033.1303 -255.1873 -190.0768
ENERGY: 600000 1.5912 12.5922 10.0892 0.0000 -10406.4733 1371.6228 0.0000 0.0000 1710.2309 -7300.3470 296.0534 -9010.5779 -7318.6132 302.1665 -322.4079 -340.4465 30186.5769 -290.0216 -230.1339
ENERGY: 900000 1.4397 11.5065 10.7544 0.0000 -10634.7093 1527.6076 0.0000 0.0000 1681.0292 -7402.3719 290.9984 -9083.4010 -7339.5948 300.2393 923.7543 1003.8644 29685.0092 -178.2645 -112.0005
ENERGY: 1200000 1.0664 19.4792 7.6129 0.0000 -10471.8769 1441.2006 0.0000 0.0000 1807.3220 -7195.1958 312.8606 -9002.5177 -7329.5410 301.4839 270.9449 378.2191 30269.2455 -183.0908 -118.0202
ENERGY: 1500000 0.8739 14.0015 10.1997 0.0000 -10544.9676 1406.6564 0.0000 0.0000 1707.2347 -7406.0015 295.5348 -9113.2362 -7340.7184 300.3819 -130.3047 -107.0745 29876.6094 -177.4385 -116.7388
TCL: Running FEP window   8: Lambda1 0.6499999999999997 Lambda2 0.5999999999999996 [dLambda -0.050000000000000044]
TCL: Setting parameter firsttimestep to 0
TCL: Setting parameter alchLambda to 0.6499999999999997
Info: NONBONDED TABLE R-SQUARED SPACING: 0.0625
Info: NONBONDED TABLE SIZE: 705 POINTS
TCL: Setting parameter alchLambda2 to 0.5999999999999996
Info: NONBONDED TABLE R-SQUARED SPACING: 0.0625
Info: NONBONDED TABLE SIZE: 705 POINTS
TCL: Running for 1500000 steps
ETITLE: TS BOND ANGLE DIHED IMPRP ELECT VDW BOUNDARY MISC KINETIC TOTAL TEMP POTENTIAL TOTALAVG TEMPAVG PRESSURE GPRESSURE VOLUME PRESSAVG GPRESSAVG
ENERGY: 0 0.8739 14.0015 10.1997 0.0000 -10545.0156 1406.8758 0.0000 0.0000 1706.3977 -7406.6670 295.3899 -9113.0647 -7406.6670 295.3899 -199.4908 -113.2621 29876.6094 -199.4908 -113.2621
ENERGY: 300000 0.9157 10.8576 12.2183 0.0000 -10457.9692 1384.4140 0.0000 0.0000 1726.7715 -7322.7920 298.9167 -9049.5634 -7341.8526 300.2075 -310.8558 -176.2503 30048.0846 -189.2215 -87.6848
ENERGY: 600000 3.5222 13.2088 10.2031 0.0000 -10475.1757 1342.0347 0.0000 0.0000 1785.5462 -7320.6608 309.0911 -9106.2070 -7331.8247 303.3800 -693.4732 -649.6618 29818.6529 -52.2990 17.6450
ENERGY: 900000 1.5876 14.1540 9.9038 0.0000 -10459.0831 1417.7773 0.0000 0.0000 1719.1232 -7296.5372 297.5928 -9015.6604 -7331.9184 301.9980 84.4786 182.4254 30201.1691 -57.9683 8.3217
ENERGY: 1200000 0.7242 15.0879 8.3725 0.0000 -10339.9769 1312.1594 0.0000 0.0000 1776.1937 -7227.4392 307.4721 -9003.6329 -7309.4261 302.9588 -531.2330 -446.2293 29673.2430 -101.0477 -36.3283
ENERGY: 1500000 1.3830 10.8463 12.5098 0.0000 -10436.5111 1347.5179 0.0000 0.0000 1764.8326 -7299.4214 305.5054 -9064.2541 -7310.7049 302.7263 -452.7465 -387.7282 29940.4602 -72.7430 -12.1317
TCL: Running FEP window   9: Lambda1 0.5999999999999996 Lambda2 0.5499999999999996 [dLambda -0.050000000000000044]
TCL: Setting parameter firsttimestep to 0
TCL: Setting parameter alchLambda to 0.5999999999999996
Info: NONBONDED TABLE R-SQUARED SPACING: 0.0625
Info: NONBONDED TABLE SIZE: 705 POINTS
TCL: Setting parameter alchLambda2 to 0.5499999999999996
Info: NONBONDED TABLE R-SQUARED SPACING: 0.0625
Info: NONBONDED TABLE SIZE: 705 POINTS
TCL: Running for 1500000 steps
ETITLE: TS BOND ANGLE DIHED IMPRP ELECT VDW BOUNDARY MISC KINETIC TOTAL TEMP POTENTIAL TOTALAVG TEMPAVG PRESSURE GPRESSURE VOLUME PRESSAVG GPRESSAVG
ENERGY: 0 1.3830 10.8463 12.5098 0.0000 -10436.5355 1347.5236 0.0000 0.0000 1763.9359 -7300.3369 305.3502 -9064.2728 -7300.3369 305.3502 -479.5200 -395.2852 29940.4602 -479.5200 -395.2852
ENERGY: 300000 1.2829 8.4838 9.3847 0.0000 -10573.0161 1461.1835 0.0000 0.0000 1755.2656 -7337.4157 303.8493 -9092.6813 -7372.8437 299.3526 291.6617 319.7062 29819.5061 -62.2810 14.5662
ENERGY: 600000 2.7112 15.7530 8.2941 0.0000 -10472.0696 1382.7616 0.0000 0.0000 1747.5208 -7315.0289 302.5086 -9062.5497 -7339.3376 301.1118 -390.5602 -346.6239 30011.5942 -289.3465 -222.4514
ENERGY: 900000 3.9969 10.0544 11.5804 0.0000 -10469.9751 1420.8234 0.0000 0.0000 1792.3966 -7231.1234 310.2769 -9023.5200 -7321.4880 302.9233 331.9238 402.6812 29665.7999 -109.8333 -52.1989
ENERGY: 1200000 1.2089 13.1935 11.5759 0.0000 -10459.4863 1378.9016 0.0000 0.0000 1738.6375 -7315.9688 300.9708 -9054.6064 -7321.9711 302.1298 -292.2322 -213.6229 30038.7680 -12.5876 44.5569
ENERGY: 1500000 1.4391 7.8458 11.1855 0.0000 -10534.8015 1470.4220 0.0000 0.0000 1681.6853 -7362.2238 291.1120 -9043.9092 -7320.7730 301.6433 474.3176 553.0713 29920.5848 -24.7720 41.2347
TCL: Running FEP window  10: Lambda1 0.5499999999999996 Lambda2 0.4999999999999996 [dLambda -0.04999999999999999]
TCL: Setting parameter firsttimestep to 0
TCL: Setting parameter alchLambda to 0.5499999999999996
Info: NONBONDED TABLE R-SQUARED SPACING: 0.0625
Info: NONBONDED TABLE SIZE: 705 POINTS
TCL: Setting parameter alchLambda2 to 0.4999999999999996
Info: NONBONDED TABLE R-SQUARED SPACING: 0.0625
Info: NONBONDED TABLE SIZE: 705 POINTS
TCL: Running for 1500000 steps
ETITLE: TS BOND ANGLE DIHED IMPRP ELECT VDW BOUNDARY MISC KINETIC TOTAL TEMP POTENTIAL TOTALAVG TEMPAVG PRESSURE GPRESSURE VOLUME PRESSAVG GPRESSAVG
ENERGY: 0 1.4391 7.8458 11.1855 0.0000 -10534.8294 1470.0301 0.0000 0.0000 1680.8425 -7363.4864 290.9661 -9044.3289 -7363.4864 290.9661 441.6746 541.8461 29920.5848 441.6746 541.8461
ENERGY: 300000 2.2384 11.9853 11.2040 0.0000 -10572.0484 1466.5227 0.0000 0.0000 1781.5954 -7298.5026 308.4071 -9080.0980 -7346.9904 296.9285 650.4708 707.1284 29660.5345 -151.1450 -70.0270
ENERGY: 600000 0.6659 10.8462 9.1799 0.0000 -10435.9004 1311.5737 0.0000 0.0000 1759.7158 -7343.9188 304.6196 -9103.6347 -7317.7760 299.3102 -703.6210 -684.4737 29566.0760 -300.6104 -226.3376
ENERGY: 900000 4.4651 13.7296 9.3755 0.0000 -10496.4589 1416.5503 0.0000 0.0000 1697.8162 -7354.5222 293.9044 -9052.3384 -7322.0725 299.0516 8.2376 83.4269 30037.2596 -291.4194 -217.7302
ENERGY: 1200000 4.4929 11.9974 9.7362 0.0000 -10488.3226 1401.0128 0.0000 0.0000 1794.7223 -7266.3610 310.6795 -9061.0833 -7324.4567 298.9273 -3.6020 62.0206 29564.7269 -231.7209 -162.3827
ENERGY: 1500000 0.4440 13.3301 9.3761 0.0000 -10626.2099 1394.1980 0.0000 0.0000 1696.1460 -7512.7155 293.6152 -9208.8615 -7341.8551 298.6488 -686.0585 -557.7953 29848.5443 -248.3551 -171.2559
TCL: Running FEP window  11: Lambda1 0.4999999999999996 Lambda2 0.4499999999999996 [dLambda -0.04999999999999999]
TCL: Setting parameter firsttimestep to 0
TCL: Setting parameter alchLambda to 0.4999999999999996
Info: NONBONDED TABLE R-SQUARED SPACING: 0.0625
Info: NONBONDED TABLE SIZE: 705 POINTS
TCL: Setting parameter alchLambda2 to 0.4499999999999996
Info: NONBONDED TABLE R-SQUARED SPACING: 0.0625
Info: NONBONDED TABLE SIZE: 705 POINTS
TCL: Running for 1500000 steps
ETITLE: TS BOND ANGLE DIHED IMPRP ELECT VDW BOUNDARY MISC KINETIC TOTAL TEMP POTENTIAL TOTALAVG TEMPAVG PRESSURE GPRESSURE VOLUME PRESSAVG GPRESSAVG
ENERGY: 0 0.4440 13.3301 9.3761 0.0000 -10626.2719 1393.9155 0.0000 0.0000 1695.2991 -7513.9070 293.4686 -9209.2062 -7513.9070 293.4686 -666.5084 -566.7793 29848.5443 -666.5084 -566.7793
ENERGY: 300000 4.2644 12.0333 9.6213 0.0000 -10486.3721 1471.9352 0.0000 0.0000 1762.5969 -7225.9209 305.1184 -8988.5178 -7340.8030 300.1341 434.0730 458.8080 30061.2822 -158.8743 -76.8694
ENERGY: 600000 0.5160 14.5192 10.5206 0.0000 -10489.8018 1385.3885 0.0000 0.0000 1730.0371 -7348.8203 299.4820 -9078.8575 -7333.3206 299.5441 -177.1194 -110.0125 29738.2232 -38.4063 35.6490
ENERGY: 900000 0.8759 13.1922 9.7853 0.0000 -10584.6059 1494.3216 0.0000 0.0000 1687.0765 -7379.3544 292.0452 -9066.4308 -7334.4395 299.3408 776.9122 798.4955 29566.5977 72.9767 130.6621
ENERGY: 1200000 1.0120 14.0854 11.1465 0.0000 -10523.1273 1452.7137 0.0000 0.0000 1726.3329 -7317.8368 298.8408 -9044.1697 -7335.6158 299.5465 528.0496 601.0129 29692.2914 77.4725 142.5319
ENERGY: 1500000 1.8176 10.1950 9.8879 0.0000 -10623.2636 1516.1108 0.0000 0.0000 1788.6483 -7296.6039 309.6281 -9085.2521 -7335.8763 301.3015 522.6543 631.1228 30025.7090 92.1080 155.0778
TCL: Running FEP window  12: Lambda1 0.4499999999999996 Lambda2 0.39999999999999963 [dLambda -0.04999999999999999]
TCL: Setting parameter firsttimestep to 0
TCL: Setting parameter alchLambda to 0.4499999999999996
Info: NONBONDED TABLE R-SQUARED SPACING: 0.0625
Info: NONBONDED TABLE SIZE: 705 POINTS
TCL: Setting parameter alchLambda2 to 0.39999999999999963
Info: NONBONDED TABLE R-SQUARED SPACING: 0.0625
Info: NONBONDED TABLE SIZE: 705 POINTS
TCL: Running for 1500000 steps
ETITLE: TS BOND ANGLE DIHED IMPRP ELECT VDW BOUNDARY MISC KINETIC TOTAL TEMP POTENTIAL TOTALAVG TEMPAVG PRESSURE GPRESSURE VOLUME PRESSAVG GPRESSAVG
ENERGY: 0 1.8176 10.1950 9.8879 0.0000 -10623.2646 1516.4977 0.0000 0.0000 1787.7810 -7297.0853 309.4779 -9084.8663 -7297.0853 309.4779 560.8413 630.8949 30025.7090 560.8413 630.8949
ENERGY: 300000 3.1661 14.1805 9.9149 0.0000 -10451.0026 1447.1568 0.0000 0.0000 1758.8784 -7217.7059 304.4747 -8976.5843 -7280.9168 306.4325 640.2245 668.3101 29964.5789 467.2934 534.6049
ENERGY: 600000 2.4345 10.9586 9.7419 0.0000 -10495.3104 1437.3760 0.0000 0.0000 1755.6376 -7279.1618 303.9137 -9034.7993 -7302.6020 302.5901 223.5288 316.7382 29703.8657 210.1056 280.8440
ENERGY: 900000 1.6612 11.5707 8.3734 0.0000 -10383.0524 1355.8517 0.0000 0.0000 1775.0361 -7230.5593 307.2717 -9005.5954 -7304.7413 302.6808 -345.2162 -305.7295 30390.8736 -17.1291 49.5702
ENERGY: 1200000 1.0926 8.6243 10.8582 0.0000 -10555.3290 1467.6569 0.0000 0.0000 1714.9416 -7352.1555 296.8689 -9067.0971 -7315.1343 302.4328 681.8188 750.5956 29291.2104 45.4533 115.9936
ENERGY: 1500000 2.7663 12.6872 11.3544 0.0000 -10581.4960 1412.3244 0.0000 0.0000 1728.7664 -7413.5973 299.2621 -9142.3638 -7312.7974 302.9853 -168.9880 -122.3927 29680.3855 -56.7926 14.4409
TCL: Running FEP window  13: Lambda1 0.39999999999999963 Lambda2 0.34999999999999964 [dLambda -0.04999999999999999]
TCL: Setting parameter firsttimestep to 0
TCL: Setting parameter alchLambda to 0.39999999999999963
Info: NONBONDED TABLE R-SQUARED SPACING: 0.0625
Info: NONBONDED TABLE SIZE: 705 POINTS
TCL: Setting parameter alchLambda2 to 0.34999999999999964
Info: NONBONDED TABLE R-SQUARED SPACING: 0.0625
Info: NONBONDED TABLE SIZE: 705 POINTS
TCL: Running for 1500000 steps
ETITLE: TS BOND ANGLE DIHED IMPRP ELECT VDW BOUNDARY MISC KINETIC TOTAL TEMP POTENTIAL TOTALAVG TEMPAVG PRESSURE GPRESSURE VOLUME PRESSAVG GPRESSAVG
ENERGY: 0 2.7663 12.6872 11.3544 0.0000 -10581.4963 1412.0002 0.0000 0.0000 1727.9361 -7414.7521 299.1183 -9142.6882 -7414.7521 299.1183 -230.7545 -128.9875 29680.3855 -230.7545 -128.9875
ENERGY: 300000 0.5637 13.8201 10.2953 0.0000 -10548.5161 1413.3055 0.0000 0.0000 1736.1428 -7374.3887 300.5390 -9110.5316 -7368.1703 300.1901 42.2419 16.6066 29652.7818 -197.7809 -168.5392
ENERGY: 600000 0.6651 12.9116 9.2409 0.0000 -10546.1802 1374.2154 0.0000 0.0000 1728.5990 -7420.5482 299.2331 -9149.1472 -7365.0995 300.8502 -639.6647 -653.0612 30055.8176 -202.5918 -174.3326
ENERGY: 900000 1.0000 13.6532 10.6171 0.0000 -10449.4052 1393.5906 0.0000 0.0000 1729.0137 -7301.5305 299.3049 -9030.5443 -7355.2601 300.7830 -124.0864 -96.6756 29739.6205 -149.4676 -111.5740
ENERGY: 1200000 1.6095 12.2914 8.3409 0.0000 -10439.5346 1354.7925 0.0000 0.0000 1748.0051 -7314.4951 302.5924 -9062.5002 -7358.2766 299.6718 -247.3420 -221.4495 29548.2411 -135.9042 -97.4527
ENERGY: 1500000 1.6902 9.3414 12.9518 0.0000 -10670.0754 1576.7121 0.0000 0.0000 1714.0698 -7355.3101 296.7180 -9069.3799 -7353.0478 299.2230 1173.9573 1228.8154 29686.2874 -15.2732 21.9139
TCL: Running FEP window  14: Lambda1 0.34999999999999964 Lambda2 0.29999999999999966 [dLambda -0.04999999999999999]
TCL: Setting parameter firsttimestep to 0
TCL: Setting parameter alchLambda to 0.34999999999999964
Info: NONBONDED TABLE R-SQUARED SPACING: 0.0625
Info: NONBONDED TABLE SIZE: 705 POINTS
TCL: Setting parameter alchLambda2 to 0.29999999999999966
Info: NONBONDED TABLE R-SQUARED SPACING: 0.0625
Info: NONBONDED TABLE SIZE: 705 POINTS
TCL: Running for 1500000 steps
ETITLE: TS BOND ANGLE DIHED IMPRP ELECT VDW BOUNDARY MISC KINETIC TOTAL TEMP POTENTIAL TOTALAVG TEMPAVG PRESSURE GPRESSURE VOLUME PRESSAVG GPRESSAVG
ENERGY: 0 1.6902 9.3414 12.9518 0.0000 -10670.0753 1575.5014 0.0000 0.0000 1713.2195 -7357.3709 296.5708 -9070.5905 -7357.3709 296.5708 1123.5518 1216.6879 29686.2874 1123.5518 1216.6879
ENERGY: 300000 2.2410 12.1946 10.4264 0.0000 -10552.1814 1425.3349 0.0000 0.0000 1732.6165 -7369.3680 299.9285 -9101.9845 -7327.1447 303.9408 -149.3208 -131.1009 29791.3609 336.1152 388.0241
ENERGY: 600000 3.0438 10.9508 9.4348 0.0000 -10321.7087 1290.4641 0.0000 0.0000 1714.5782 -7293.2370 296.8060 -9007.8152 -7307.3180 302.7886 -851.3425 -784.2131 29811.5089 205.1769 266.9340
ENERGY: 900000 3.1615 10.7211 11.6144 0.0000 -10506.4123 1385.0975 0.0000 0.0000 1779.5040 -7316.3137 308.0451 -9095.8177 -7317.2138 302.5019 -192.3673 -103.2040 29402.9410 102.9421 166.9330
ENERGY: 1200000 2.2677 11.5751 9.3934 0.0000 -10362.4683 1337.3759 0.0000 0.0000 1737.9438 -7263.9124 300.8507 -9001.8562 -7323.8288 301.3766 -643.9752 -562.1022 30265.6418 29.2779 102.5181
ENERGY: 1500000 3.9442 12.4859 8.7207 0.0000 -10501.9238 1386.1266 0.0000 0.0000 1769.4230 -7321.2234 306.3000 -9090.6464 -7326.6623 301.2825 -296.4777 -201.5870 29609.3682 12.1206 82.8124
TCL: Running FEP window  15: Lambda1 0.29999999999999966 Lambda2 0.24999999999999967 [dLambda -0.04999999999999999]
TCL: Setting parameter firsttimestep to 0
TCL: Setting parameter alchLambda to 0.29999999999999966
Info: NONBONDED TABLE R-SQUARED SPACING: 0.0625
Info: NONBONDED TABLE SIZE: 705 POINTS
TCL: Setting parameter alchLambda2 to 0.24999999999999967
Info: NONBONDED TABLE R-SQUARED SPACING: 0.0625
Info: NONBONDED TABLE SIZE: 705 POINTS
TCL: Running for 1500000 steps
ETITLE: TS BOND ANGLE DIHED IMPRP ELECT VDW BOUNDARY MISC KINETIC TOTAL TEMP POTENTIAL TOTALAVG TEMPAVG PRESSURE GPRESSURE VOLUME PRESSAVG GPRESSAVG
ENERGY: 0 3.9442 12.4859 8.7207 0.0000 -10501.9250 1386.3358 0.0000 0.0000 1768.5816 -7321.8568 306.1544 -9090.4384 -7321.8568 306.1544 -272.1079 -203.9160 29609.3682 -272.1079 -203.9160
ENERGY: 300000 2.0143 6.5693 12.3895 0.0000 -10581.6896 1440.2530 0.0000 0.0000 1735.1496 -7385.3140 300.3670 -9120.4636 -7343.2057 302.1781 239.3958 222.9613 29596.7623 -39.2602 25.1116
ENERGY: 600000 3.8843 12.5993 8.9661 0.0000 -10526.3172 1361.3367 0.0000 0.0000 1767.7304 -7371.8003 306.0070 -9139.5307 -7337.3787 302.4609 -691.5098 -629.8002 29515.6753 -75.7189 -8.3888
ENERGY: 900000 2.2853 13.1003 10.0252 0.0000 -10439.1752 1324.9740 0.0000 0.0000 1738.8283 -7349.9622 301.0038 -9088.7904 -7330.1304 302.7752 -945.8710 -917.8085 30228.6671 -108.8514 -45.3483
ENERGY: 1200000 0.7758 8.0824 11.9892 0.0000 -10545.8894 1430.3720 0.0000 0.0000 1735.3563 -7359.3138 300.4028 -9094.6702 -7329.5761 301.9140 -160.1167 -59.9639 30114.2420 -79.9114 -14.2118
ENERGY: 1500000 1.2121 9.1803 11.4296 0.0000 -10547.9958 1482.4177 0.0000 0.0000 1750.0738 -7293.6824 302.9505 -9043.7562 -7325.0907 301.2488 382.0038 442.0067 29995.7746 -63.0127 -4.3418
TCL: Running FEP window  16: Lambda1 0.24999999999999967 Lambda2 0.19999999999999968 [dLambda -0.04999999999999999]
TCL: Setting parameter firsttimestep to 0
TCL: Setting parameter alchLambda to 0.24999999999999967
Info: NONBONDED TABLE R-SQUARED SPACING: 0.0625
Info: NONBONDED TABLE SIZE: 705 POINTS
TCL: Setting parameter alchLambda2 to 0.19999999999999968
Info: NONBONDED TABLE R-SQUARED SPACING: 0.0625
Info: NONBONDED TABLE SIZE: 705 POINTS
TCL: Running for 1500000 steps
ETITLE: TS BOND ANGLE DIHED IMPRP ELECT VDW BOUNDARY MISC KINETIC TOTAL TEMP POTENTIAL TOTALAVG TEMPAVG PRESSURE GPRESSURE VOLUME PRESSAVG GPRESSAVG
ENERGY: 0 1.2121 9.1802 11.4296 0.0000 -10547.9958 1482.2714 0.0000 0.0000 1749.1959 -7294.7066 302.7986 -9043.9025 -7294.7066 302.7986 353.0843 438.2384 29995.7746 353.0843 438.2384
ENERGY: 300000 1.6099 10.4807 9.4423 0.0000 -10570.8035 1498.6138 0.0000 0.0000 1736.2513 -7314.4056 300.5578 -9050.6569 -7321.2070 300.9769 406.6049 443.5824 30136.3047 515.2803 571.7233
ENERGY: 600000 2.2088 13.5685 9.8313 0.0000 -10541.4957 1434.5825 0.0000 0.0000 1677.7138 -7403.5908 290.4245 -9081.3046 -7313.1413 300.2294 265.0071 355.7690 29307.9732 221.1223 290.9882
ENERGY: 900000 0.6405 14.4438 9.3459 0.0000 -10492.3551 1401.2707 0.0000 0.0000 1707.0808 -7359.5734 295.5081 -9066.6542 -7311.7935 300.7137 -175.1167 -126.2297 29867.2653 143.7981 203.1098
ENERGY: 1200000 2.2348 10.7922 12.0354 0.0000 -10547.4387 1445.4221 0.0000 0.0000 1737.1578 -7339.7965 300.7147 -9076.9543 -7319.0160 300.5246 97.0577 232.1684 29660.0755 154.4704 220.5513
ENERGY: 1500000 1.7736 10.4310 11.2145 0.0000 -10425.6292 1323.3271 0.0000 0.0000 1737.6147 -7341.2683 300.7938 -9078.8830 -7318.2250 301.1243 -1002.6424 -925.7420 29921.2265 130.3514 191.6450
TCL: Running FEP window  17: Lambda1 0.19999999999999968 Lambda2 0.1499999999999997 [dLambda -0.04999999999999999]
TCL: Setting parameter firsttimestep to 0
TCL: Setting parameter alchLambda to 0.19999999999999968
Info: NONBONDED TABLE R-SQUARED SPACING: 0.0625
Info: NONBONDED TABLE SIZE: 705 POINTS
TCL: Setting parameter alchLambda2 to 0.1499999999999997
Info: NONBONDED TABLE R-SQUARED SPACING: 0.0625
Info: NONBONDED TABLE SIZE: 705 POINTS
TCL: Running for 1500000 steps
ETITLE: TS BOND ANGLE DIHED IMPRP ELECT VDW BOUNDARY MISC KINETIC TOTAL TEMP POTENTIAL TOTALAVG TEMPAVG PRESSURE GPRESSURE VOLUME PRESSAVG GPRESSAVG
ENERGY: 0 1.7736 10.4310 11.2145 0.0000 -10425.6287 1323.3792 0.0000 0.0000 1736.7325 -7342.0980 300.6411 -9078.8305 -7342.0980 300.6411 -1013.4778 -928.9219 29921.2265 -1013.4778 -928.9219
ENERGY: 300000 0.9447 10.2411 10.8869 0.0000 -10558.8891 1411.4056 0.0000 0.0000 1731.0240 -7394.3867 299.6529 -9125.4108 -7358.0775 298.2574 -26.0922 14.7173 29670.7069 -286.4687 -249.1309
ENERGY: 600000 3.0527 11.9416 10.4244 0.0000 -10422.3483 1409.5035 0.0000 0.0000 1773.5581 -7213.8679 307.0158 -8987.4260 -7345.8273 299.0693 97.3747 123.4100 30003.5989 -120.1963 -78.1711
ENERGY: 900000 1.9638 11.7755 10.3162 0.0000 -10504.3332 1448.1652 0.0000 0.0000 1747.8722 -7284.2402 302.5694 -9032.1124 -7332.1813 300.4061 345.1868 450.6421 29724.0320 -8.8010 39.2816
ENERGY: 1200000 2.9493 15.2237 10.8862 0.0000 -10576.9656 1422.2306 0.0000 0.0000 1740.9734 -7384.7024 301.3752 -9125.6758 -7337.6485 301.0178 -113.5658 -58.0696 29825.3609 -86.0943 -30.1242
ENERGY: 1500000 2.4185 12.7588 9.8965 0.0000 -10598.5951 1482.3557 0.0000 0.0000 1667.7780 -7423.3877 288.7045 -9091.1657 -7343.5354 300.6296 488.5827 518.3289 29530.7380 -167.1685 -112.6554
TCL: Running FEP window  18: Lambda1 0.1499999999999997 Lambda2 0.09999999999999969 [dLambda -0.05 ]
TCL: Setting parameter firsttimestep to 0
TCL: Setting parameter alchLambda to 0.1499999999999997
Info: NONBONDED TABLE R-SQUARED SPACING: 0.0625
Info: NONBONDED TABLE SIZE: 705 POINTS
TCL: Setting parameter alchLambda2 to 0.09999999999999969
Info: NONBONDED TABLE R-SQUARED SPACING: 0.0625
Info: NONBONDED TABLE SIZE: 705 POINTS
TCL: Running for 1500000 steps
ETITLE: TS BOND ANGLE DIHED IMPRP ELECT VDW BOUNDARY MISC KINETIC TOTAL TEMP POTENTIAL TOTALAVG TEMPAVG PRESSURE GPRESSURE VOLUME PRESSAVG GPRESSAVG
ENERGY: 0 2.4185 12.7588 9.8965 0.0000 -10598.5953 1482.4152 0.0000 0.0000 1666.9279 -7424.1784 288.5574 -9091.1063 -7424.1784 288.5574 427.4670 516.6148 29530.7380 427.4670 516.6148
ENERGY: 300000 1.8436 13.1520 11.1006 0.0000 -10515.8714 1453.7656 0.0000 0.0000 1745.3499 -7290.6597 302.1328 -9036.0096 -7341.4505 296.6905 345.6341 329.2689 29959.4159 164.3316 193.4851
ENERGY: 600000 1.2651 10.5982 11.9460 0.0000 -10434.7244 1356.1868 0.0000 0.0000 1729.4775 -7325.2510 299.3852 -9054.7285 -7345.0980 295.8852 -654.9640 -605.3831 30266.1806 -21.0325 15.4643
ENERGY: 900000 3.0442 9.4808 9.7379 0.0000 -10423.8710 1366.1224 0.0000 0.0000 1715.1101 -7320.3756 296.8981 -9035.4857 -7343.2418 295.9860 -663.6594 -599.9302 30387.0523 -176.4001 -120.0335
ENERGY: 1200000 2.9933 11.9336 9.9537 0.0000 -10581.0285 1451.7015 0.0000 0.0000 1712.0035 -7392.4428 296.3603 -9104.4463 -7353.7993 295.6720 154.2513 199.4122 29782.4805 -121.5510 -66.7649
ENERGY: 1500000 3.2371 13.9681 7.9862 0.0000 -10388.9719 1369.8570 0.0000 0.0000 1715.6378 -7278.2856 296.9894 -8993.9234 -7346.5025 296.3040 -160.6779 -132.0849 29819.8781 -84.6534 -28.2192
TCL: Running FEP window  19: Lambda1 0.09999999999999969 Lambda2 0.049999999999999684 [dLambda -0.05 ]
TCL: Setting parameter firsttimestep to 0
TCL: Setting parameter alchLambda to 0.09999999999999969
Info: NONBONDED TABLE R-SQUARED SPACING: 0.0625
Info: NONBONDED TABLE SIZE: 705 POINTS
TCL: Setting parameter alchLambda2 to 0.049999999999999684
Info: NONBONDED TABLE R-SQUARED SPACING: 0.0625
Info: NONBONDED TABLE SIZE: 705 POINTS
TCL: Running for 1500000 steps
ETITLE: TS BOND ANGLE DIHED IMPRP ELECT VDW BOUNDARY MISC KINETIC TOTAL TEMP POTENTIAL TOTALAVG TEMPAVG PRESSURE GPRESSURE VOLUME PRESSAVG GPRESSAVG
ENERGY: 0 3.2371 13.9681 7.9862 0.0000 -10388.9709 1369.3636 0.0000 0.0000 1714.7660 -7279.6499 296.8385 -8994.4159 -7279.6499 296.8385 -228.7187 -136.3824 29819.8781 -228.7187 -136.3824
ENERGY: 300000 0.9554 8.6211 11.1839 0.0000 -10395.2597 1332.7924 0.0000 0.0000 1742.8032 -7298.9036 301.6919 -9041.7068 -7271.8954 298.3567 -827.1720 -783.7106 29981.4616 -564.9959 -487.3460
ENERGY: 600000 3.3333 13.7568 9.6168 0.0000 -10511.9339 1380.3585 0.0000 0.0000 1764.5077 -7340.3608 305.4491 -9104.8685 -7301.6654 297.1741 -534.3535 -424.3195 29553.1078 -328.3027 -242.4250
ENERGY: 900000 1.3857 17.8272 8.8746 0.0000 -10567.4809 1464.9550 0.0000 0.0000 1671.7094 -7402.7289 289.3851 -9074.4384 -7307.6473 298.1390 308.7379 394.5041 29630.0795 -181.4757 -104.3894
ENERGY: 1200000 1.9551 10.8997 10.1380 0.0000 -10426.2501 1357.8616 0.0000 0.0000 1826.7847 -7218.6110 316.2297 -9045.3957 -7300.5197 301.1255 -366.7864 -357.8717 29730.9478 -149.3032 -77.6030
ENERGY: 1500000 1.0774 12.1589 8.9143 0.0000 -10612.2201 1498.6582 0.0000 0.0000 1654.7096 -7436.7018 286.4423 -9091.4114 -7311.0869 299.7089 586.3934 603.5038 29566.1085 -128.0283 -54.2758
TCL: Running FEP window  20: Lambda1 0.049999999999999684 Lambda2 0.0    [dLambda -0.049999999999999684]
TCL: Setting parameter firsttimestep to 0
TCL: Setting parameter alchLambda to 0.049999999999999684
Info: NONBONDED TABLE R-SQUARED SPACING: 0.0625
Info: NONBONDED TABLE SIZE: 705 POINTS
TCL: Setting parameter alchLambda2 to 0.0
Info: NONBONDED TABLE R-SQUARED SPACING: 0.0625
Info: NONBONDED TABLE SIZE: 705 POINTS
TCL: Running for 1500000 steps
ETITLE: TS BOND ANGLE DIHED IMPRP ELECT VDW BOUNDARY MISC KINETIC TOTAL TEMP POTENTIAL TOTALAVG TEMPAVG PRESSURE GPRESSURE VOLUME PRESSAVG GPRESSAVG
ENERGY: 0 1.0774 12.1589 8.9143 0.0000 -10612.2208 1497.9756 0.0000 0.0000 1653.8709 -7438.2237 286.2971 -9092.0946 -7438.2237 286.2971 519.2946 600.0362 29566.1085 519.2946 600.0362
ENERGY: 300000 2.8632 12.4332 10.0375 0.0000 -10465.0740 1400.7881 0.0000 0.0000 1679.6741 -7359.2778 290.7638 -9038.9520 -7355.0029 292.2063 222.5011 252.1183 29641.2164 67.3139 152.5521
ENERGY: 600000 5.0013 12.1474 10.9749 0.0000 -10441.5290 1390.6032 0.0000 0.0000 1703.7667 -7319.0355 294.9344 -9022.8022 -7338.3221 295.0662 -339.2248 -271.9775 29997.3474 -108.0486 -34.7645
ENERGY: 900000 1.5340 9.8887 10.8885 0.0000 -10557.7899 1462.2096 0.0000 0.0000 1743.1238 -7330.1454 301.7474 -9073.2692 -7330.0695 298.3405 665.9838 708.5233 29109.0413 -50.0907 13.8993
ENERGY: 1200000 3.9006 13.3593 9.4468 0.0000 -10502.5025 1427.3261 0.0000 0.0000 1755.9593 -7292.5104 303.9694 -9048.4697 -7335.1224 298.6272 -26.8853 62.6050 29998.9910 -96.1594 -27.9773
ENERGY: 1500000 0.8119 11.5928 9.9694 0.0000 -10406.5626 1329.5507 0.0000 0.0000 1750.2793 -7304.3584 302.9861 -9054.6377 -7333.6745 298.8440 -389.4771 -389.6705 29753.1806 -115.7169 -50.2196
TCL: Exiting due to exit command.
