Info: SIMULATION PARAMETERS:
Info: TIMESTEP               2
Info: NUMBER OF STEPS        0
Info: STEPS PER CYCLE        10
Info: PERIODIC CELL BASIS 1  32.5142 0 0
Info: PERIODIC CELL BASIS 2  0 31.3286 0
Info: PERIODIC CELL BASIS 3  0 0 29.1317
Info: PERIODIC CELL CENTER   0 0 0
Info: WRAPPING WATERS AROUND PERIODIC BOUNDARIES ON OUTPUT.
Info: WRAPPING ALL CLUSTERS AROUND PERIODIC BOUNDARIES ON OUTPUT.
Info: FIRST LDB TIMESTEP     50
Info: LAST LDB TIMESTEP     -1
Info: HOM BACKGROUND SCALING 1
Info: PME BACKGROUND SCALING 1
Info: MIN ATOMS PER PATCH    40
Info: EMPTY PATCH LOAD       40 ATOMS
Info: VELOCITY FILE          mobley_2261979_equil.vel
Info: CENTER OF MASS MOVING INITIALLY? NO
Info: DIELECTRIC             1
Info: EXCLUDE                SCALED ONE-FOUR
Info: 1-4 ELECTROSTATICS SCALED BY 0.833333
Info: MODIFIED 1-4 VDW PARAMETERS WILL BE USED
Info: DCD FILENAME           mobley_2261979_prod.dcd
Info: DCD FREQUENCY          100000
Info: DCD FIRST STEP         100000
Info: DCD FILE WILL CONTAIN UNIT CELL DATA
Info: XST FILENAME           mobley_2261979_prod.xst
Info: XST FREQUENCY          100000
Info: NO VELOCITY DCD OUTPUT
Info: NO FORCE DCD OUTPUT
Info: OUTPUT FILENAME        mobley_2261979_prod
Info: BINARY OUTPUT FILES WILL BE USED
Info: RESTART FILENAME       mobley_2261979_prod.restart
Info: RESTART FREQUENCY      100000
Info: BINARY RESTART FILES WILL BE USED
Info: CUTOFF                 9
Info: PAIRLIST DISTANCE      11
Info: PAIRLIST SHRINK RATE   0.01
Info: PAIRLIST GROW RATE     0.01
Info: PAIRLIST TRIGGER       0.3
Info: PAIRLISTS PER CYCLE    2
Info: PAIRLISTS ENABLED
Info: MARGIN                 2
Info: HYDROGEN GROUP CUTOFF  2.5
Info: PATCH DIMENSION        15.5
Info: ENERGY OUTPUT STEPS    100000
Info: ENERGY EVALUATION STEPS    100000
Info: OUTPUT ENERGY PRECISION 4
Info: CROSSTERM ENERGY INCLUDED IN DIHEDRAL
Info: TIMING OUTPUT STEPS    1000000
Info: PRESSURE OUTPUT STEPS  100000
Info: ALCHEMICAL FEP ON
Info: FEP CURRENT LAMBDA VALUE     1
Info: FEP COMPARISON LAMBDA VALUE  0.95
Info: FEP INTRA-ALCHEMICAL NON-BONDED INTERACTIONS WILL BE RETAINED
Info: FEP INTRA-ALCHEMICAL BONDED INTERACTIONS WILL BE RETAINED
Info: FEP VDW SHIFTING COEFFICIENT 5
Info: FEP ELEC. ACTIVE FOR ANNIHILATED PARTICLES BETWEEN LAMBDA = 0 AND LAMBDA = 0.5
Info: FEP ELEC. ACTIVE FOR EXNIHILATED PARTICLES BETWEEN LAMBDA = 0.5 AND LAMBDA = 1
Info: FEP VDW ACTIVE FOR ANNIHILATED PARTICLES BETWEEN LAMBDA = 0 AND LAMBDA = 1
Info: FEP VDW ACTIVE FOR EXNIHILATED PARTICLES BETWEEN LAMBDA = 0 AND LAMBDA = 1
Info: FEP BOND ACTIVE FOR ANNIHILATED PARTICLES BETWEEN LAMBDA = 1 AND LAMBDA = 1
Info: FEP BOND ACTIVE FOR EXNIHILATED PARTICLES BETWEEN LAMBDA = 0 AND LAMBDA = 0
Info: LANGEVIN DYNAMICS ACTIVE
Info: LANGEVIN TEMPERATURE   300
Info: LANGEVIN USING BBK INTEGRATOR
Info: LANGEVIN DAMPING COEFFICIENT IS 1 INVERSE PS
Info: LANGEVIN DYNAMICS APPLIED TO HYDROGENS
Info: LANGEVIN PISTON PRESSURE CONTROL ACTIVE
Info:        TARGET PRESSURE IS 1.01325 BAR
Info:     OSCILLATION PERIOD IS 50 FS
Info:             DECAY TIME IS 25 FS
Info:     PISTON TEMPERATURE IS 300 K
Info:       PRESSURE CONTROL IS GROUP-BASED
Info:    INITIAL STRAIN RATE IS 0.000146326 0.000146326 0.000146326
Info:       CELL FLUCTUATION IS ISOTROPIC
Info: PARTICLE MESH EWALD (PME) ACTIVE
Info: PME TOLERANCE               1e-06
Info: PME EWALD COEFFICIENT       0.348832
Info: PME INTERPOLATION ORDER     4
Info: PME GRID DIMENSIONS         36 32 32
Info: PME MAXIMUM GRID SPACING    1
Info: PME CALCULATION WILL BE PERFORMED ON GPU
Info: FULL ELECTROSTATIC EVALUATION FREQUENCY      2
Info: USING VERLET I (r-RESPA) MTS SCHEME.
Info: C1 SPLITTING OF LONG RANGE ELECTROSTATICS
Info: PLACING ATOMS IN PATCHES BY HYDROGEN GROUPS
Info: RIGID BONDS TO HYDROGEN : ALL
Info:         ERROR TOLERANCE : 1e-08
Info:          MAX ITERATIONS : 100
Info: RIGID WATER USING SETTLE ALGORITHM
Info: RANDOM NUMBER SEED     1744157621
Info: USE HYDROGEN BONDS?    NO
Info: Using AMBER format force field!
Info: AMBER PARM FILE        mobley_2261979.prmtop
Info: COORDINATE PDB         mobley_2261979.pdb
Info: Exclusions will be read from PARM file!
Info: SCNB (VDW SCALING)     2
Info: USING ARITHMETIC MEAN TO COMBINE L-J SIGMA PARAMETERS
Info: BINARY COORDINATES     mobley_2261979_equil.coor
Info: SUMMARY OF PARAMETERS:
Info: 7 BONDS
Info: 7 ANGLES
Info:   7 HARMONIC
Info:   0 COSINE-BASED
Info: 5 DIHEDRAL
Info: 0 IMPROPER
Info: 0 CROSSTERM
Info: 0 VDW
Info: 21 VDW_PAIRS
Info: 0 NBTHOLE_PAIRS
Info: To read alchdata from file: mobley_2261979.pdb
Info: To read alchflag data from column: 5
Info: STRUCTURE SUMMARY:
Info: 2932 ATOMS
Info: 2934 BONDS
Info: 42 ANGLES
Info: 75 DIHEDRALS
Info: 0 IMPROPERS
Info: 0 CROSSTERMS
Info: 3030 EXCLUSIONS
Info: 2920 RIGID BONDS
Info: ALCH: 0 ATOMS TO DISAPPEAR IN FINAL STATE
Info: ALCH: 22 ATOMS TO APPEAR IN FINAL STATE
Info: 5876 DEGREES OF FREEDOM
Info: 982 HYDROGEN GROUPS
Info: 3 ATOMS IN LARGEST HYDROGEN GROUP
Info: 982 MIGRATION GROUPS
Info: 3 ATOMS IN LARGEST MIGRATION GROUP
Info: TOTAL MASS = 17629.7 amu
Info: TOTAL CHARGE = 0.000399977 e
Info: MASS DENSITY = 0.986562 g/cm^3
Info: ATOM DENSITY = 0.0988061 atoms/A^3
Info: ADDED 0 IMPLICIT EXCLUSIONS
Info: NONBONDED TABLE R-SQUARED SPACING: 0.0625
Info: NONBONDED TABLE SIZE: 705 POINTS
Info: REDUCING NUMBER OF PATCHES TO IMPROVE LOAD BALANCE
Info: REMOVING COM VELOCITY 0.0044185 -0.24281 0.00129195
Info: Use 3D box decompostion in PME FFT.
Info: Updated CUDA force table with 4096 elements.
Info: Updated CUDA LJ table with 6 x 6 elements.
Info: Found 23 unique exclusion lists needing 68 bytes
TCL: Running for 1500000 steps
ETITLE: TS BOND ANGLE DIHED IMPRP ELECT VDW BOUNDARY MISC KINETIC TOTAL TEMP POTENTIAL TOTALAVG TEMPAVG PRESSURE GPRESSURE VOLUME PRESSAVG GPRESSAVG
ENERGY: 0 3.9169 23.7405 5.3470 0.0000 -10545.3200 1365.6068 0.0000 0.0000 1730.1402 -7416.5686 296.3397 -9146.7088 -7416.5686 296.3397 -179.0157 -86.8147 29674.2843 -179.0157 -86.8147
ENERGY: 300000 4.2158 23.1192 4.7994 0.0000 -10565.3669 1422.6975 0.0000 0.0000 1728.1821 -7382.3530 296.0043 -9110.5350 -7400.3182 296.9129 561.7940 616.8304 29575.4733 70.4549 151.0152
ENERGY: 600000 5.3211 20.1058 5.5412 0.0000 -10622.5065 1436.0018 0.0000 0.0000 1767.5490 -7387.9877 302.7471 -9155.5367 -7387.0732 298.9369 -164.4180 -48.6351 30553.6279 -46.7831 29.8756
ENERGY: 900000 6.1754 22.0234 4.5060 0.0000 -10534.4280 1375.9355 0.0000 0.0000 1794.9501 -7330.8376 307.4404 -9125.7877 -7381.5985 299.9205 -425.1620 -333.9726 30196.4226 -155.0696 -87.3006
ENERGY: 1200000 9.5467 19.2595 7.7783 0.0000 -10499.4327 1385.6743 0.0000 0.0000 1753.3122 -7323.8618 300.3087 -9077.1740 -7380.9313 299.5921 -202.7614 -146.8065 30785.6875 -190.1595 -121.4619
ENERGY: 1500000 10.4194 17.9917 6.8879 0.0000 -10553.9981 1363.6343 0.0000 0.0000 1763.2793 -7391.7855 302.0158 -9155.0648 -7379.7902 300.1614 -623.5936 -526.7242 30182.7959 -209.5088 -140.0064
TCL: Running FEP window   2: Lambda1 0.95   Lambda2 0.8999999999999999 [dLambda -0.050000000000000044]
TCL: Setting parameter firsttimestep to 0
TCL: Setting parameter alchLambda to 0.95
Info: NONBONDED TABLE R-SQUARED SPACING: 0.0625
Info: NONBONDED TABLE SIZE: 705 POINTS
TCL: Setting parameter alchLambda2 to 0.8999999999999999
Info: NONBONDED TABLE R-SQUARED SPACING: 0.0625
Info: NONBONDED TABLE SIZE: 705 POINTS
TCL: Running for 1500000 steps
ETITLE: TS BOND ANGLE DIHED IMPRP ELECT VDW BOUNDARY MISC KINETIC TOTAL TEMP POTENTIAL TOTALAVG TEMPAVG PRESSURE GPRESSURE VOLUME PRESSAVG GPRESSAVG
ENERGY: 0 10.4194 17.9917 6.8879 0.0000 -10552.8610 1363.3261 0.0000 0.0000 1762.4227 -7391.8132 301.8691 -9154.2359 -7391.8132 301.8691 -630.8223 -548.5486 30182.7959 -630.8223 -548.5486
ENERGY: 300000 7.0087 17.4631 6.3576 0.0000 -10534.9324 1366.8753 0.0000 0.0000 1800.2293 -7336.9985 308.3446 -9137.2277 -7400.9230 296.8487 -281.0599 -205.2457 30162.1692 -624.9574 -544.9920
ENERGY: 600000 3.1888 21.0383 6.5652 0.0000 -10625.3805 1413.3737 0.0000 0.0000 1775.8542 -7405.3603 304.1697 -9181.2146 -7405.2488 299.0255 138.2321 216.2162 29892.8362 -209.0333 -144.5074
ENERGY: 900000 7.4005 19.5343 8.4811 0.0000 -10570.4820 1402.2334 0.0000 0.0000 1757.7448 -7375.0880 301.0679 -9132.8328 -7386.0037 300.4114 -198.7981 -102.4898 30285.3911 -283.3823 -212.0194
ENERGY: 1200000 4.7318 19.7299 5.7591 0.0000 -10505.4881 1400.3157 0.0000 0.0000 1750.2103 -7324.7412 299.7774 -9074.9515 -7384.2512 299.4008 121.8414 215.1245 30140.5859 -180.6714 -103.4124
ENERGY: 1500000 5.3203 22.6817 4.8730 0.0000 -10728.5738 1490.5890 0.0000 0.0000 1809.6872 -7395.4227 309.9646 -9205.1099 -7382.6428 300.1727 698.8941 766.3493 29956.2675 -142.4930 -63.1178
TCL: Running FEP window   3: Lambda1 0.8999999999999999 Lambda2 0.8499999999999999 [dLambda -0.050000000000000044]
TCL: Setting parameter firsttimestep to 0
TCL: Setting parameter alchLambda to 0.8999999999999999
Info: NONBONDED TABLE R-SQUARED SPACING: 0.0625
Info: NONBONDED TABLE SIZE: 705 POINTS
TCL: Setting parameter alchLambda2 to 0.8499999999999999
Info: NONBONDED TABLE R-SQUARED SPACING: 0.0625
Info: NONBONDED TABLE SIZE: 705 POINTS
TCL: Running for 1500000 steps
ETITLE: TS BOND ANGLE DIHED IMPRP ELECT VDW BOUNDARY MISC KINETIC TOTAL TEMP POTENTIAL TOTALAVG TEMPAVG PRESSURE GPRESSURE VOLUME PRESSAVG GPRESSAVG
ENERGY: 0 5.3203 22.6817 4.8730 0.0000 -10727.6579 1491.1702 0.0000 0.0000 1808.8477 -7394.7651 309.8208 -9203.6128 -7394.7651 309.8208 671.0666 756.0558 29956.2675 671.0666 756.0558
ENERGY: 300000 5.9647 20.8114 4.1608 0.0000 -10494.3551 1381.7854 0.0000 0.0000 1771.9730 -7309.6598 303.5049 -9081.6328 -7322.7180 304.4703 -204.3126 -135.6841 29972.8656 27.8177 98.4141
ENERGY: 600000 4.4281 22.5810 5.1990 0.0000 -10706.6996 1477.9882 0.0000 0.0000 1731.2621 -7465.2413 296.5319 -9196.5034 -7346.4024 303.5196 444.9031 486.6321 30211.6213 217.3949 269.5825
ENERGY: 900000 3.3267 27.1314 7.6493 0.0000 -10718.1204 1529.8811 0.0000 0.0000 1749.7260 -7400.4059 299.6944 -9150.1318 -7368.0403 302.0617 673.5760 694.2509 30170.4856 269.5098 323.1474
ENERGY: 1200000 3.9070 18.0454 6.6391 0.0000 -10689.3725 1441.9787 0.0000 0.0000 1711.0104 -7507.7920 293.0632 -9218.8024 -7387.0338 300.7136 -333.5965 -258.3648 30337.6769 120.2555 171.0167
ENERGY: 1500000 3.7907 23.4792 4.0136 0.0000 -10454.8716 1372.2666 0.0000 0.0000 1761.3589 -7289.9628 301.6869 -9051.3217 -7384.6006 300.0972 -189.2734 -96.7997 30061.5300 61.8975 118.3788
TCL: Running FEP window   4: Lambda1 0.8499999999999999 Lambda2 0.7999999999999998 [dLambda -0.050000000000000044]
TCL: Setting parameter firsttimestep to 0
TCL: Setting parameter alchLambda to 0.8499999999999999
Info: NONBONDED TABLE R-SQUARED SPACING: 0.0625
Info: NONBONDED TABLE SIZE: 705 POINTS
TCL: Setting parameter alchLambda2 to 0.7999999999999998
Info: NONBONDED TABLE R-SQUARED SPACING: 0.0625
Info: NONBONDED TABLE SIZE: 705 POINTS
TCL: Running for 1500000 steps
ETITLE: TS BOND ANGLE DIHED IMPRP ELECT VDW BOUNDARY MISC KINETIC TOTAL TEMP POTENTIAL TOTALAVG TEMPAVG PRESSURE GPRESSURE VOLUME PRESSAVG GPRESSAVG
ENERGY: 0 3.7907 23.4792 4.0136 0.0000 -10453.4846 1372.8150 0.0000 0.0000 1760.5261 -7288.8601 301.5443 -9049.3862 -7288.8601 301.5443 -193.0682 -102.7644 30061.5300 -193.0682 -102.7644
ENERGY: 300000 4.6772 20.1186 8.5414 0.0000 -10661.8002 1396.7213 0.0000 0.0000 1758.3787 -7473.3630 301.1764 -9231.7417 -7397.8370 301.6214 -852.2536 -815.3714 30699.8692 -399.9610 -345.5162
ENERGY: 600000 8.2294 21.3412 7.7531 0.0000 -10719.5854 1515.9323 0.0000 0.0000 1729.0411 -7437.2884 296.1515 -9166.3295 -7394.2197 301.5124 703.0723 723.9139 30297.0377 -260.0932 -190.4176
ENERGY: 900000 3.6188 24.2695 6.2018 0.0000 -10455.5024 1336.3002 0.0000 0.0000 1767.2293 -7317.8828 302.6924 -9085.1121 -7383.8428 301.7654 -720.2007 -627.2775 30852.9229 -131.1561 -56.0194
ENERGY: 1200000 5.3608 20.0365 4.9135 0.0000 -10521.5220 1421.1244 0.0000 0.0000 1789.1726 -7280.9142 306.4508 -9070.0867 -7382.6064 302.0763 685.8993 721.6295 29751.8500 -69.0475 0.2942
ENERGY: 1500000 3.6020 17.7672 6.5145 0.0000 -10589.3592 1432.1232 0.0000 0.0000 1709.8118 -7419.5404 292.8579 -9129.3522 -7391.7618 300.2824 -238.1463 -232.4455 30740.0266 -122.2504 -59.9312
TCL: Running FEP window   5: Lambda1 0.7999999999999998 Lambda2 0.7499999999999998 [dLambda -0.050000000000000044]
TCL: Setting parameter firsttimestep to 0
TCL: Setting parameter alchLambda to 0.7999999999999998
Info: NONBONDED TABLE R-SQUARED SPACING: 0.0625
Info: NONBONDED TABLE SIZE: 705 POINTS
TCL: Setting parameter alchLambda2 to 0.7499999999999998
Info: NONBONDED TABLE R-SQUARED SPACING: 0.0625
Info: NONBONDED TABLE SIZE: 705 POINTS
TCL: Running for 1500000 steps
ETITLE: TS BOND ANGLE DIHED IMPRP ELECT VDW BOUNDARY MISC KINETIC TOTAL TEMP POTENTIAL TOTALAVG TEMPAVG PRESSURE GPRESSURE VOLUME PRESSAVG GPRESSAVG
ENERGY: 0 3.6019 17.7672 6.5145 0.0000 -10588.2665 1432.1846 0.0000 0.0000 1708.9334 -7419.2648 292.7074 -9128.1982 -7419.2648 292.7074 -317.8177 -240.9220 30740.0266 -317.8177 -240.9220
ENERGY: 300000 7.9131 17.5814 9.9555 0.0000 -10643.4231 1413.5303 0.0000 0.0000 1730.5993 -7463.8436 296.4184 -9194.4428 -7434.6692 294.4821 -559.5497 -436.4897 30268.5642 -143.3243 -52.3872
ENERGY: 600000 6.2618 19.7347 5.0543 0.0000 -10643.6027 1454.0923 0.0000 0.0000 1791.0409 -7367.4187 306.7709 -9158.4597 -7423.9390 297.3088 400.9269 492.1189 29797.6426 -272.1453 -185.4154
ENERGY: 900000 5.6842 23.1047 5.0690 0.0000 -10520.8456 1404.9338 0.0000 0.0000 1712.7149 -7369.3391 293.3551 -9082.0539 -7415.3560 297.2387 -235.2887 -163.8022 30783.4479 -201.8676 -128.2080
ENERGY: 1200000 6.3741 22.3814 5.9333 0.0000 -10727.2555 1502.8817 0.0000 0.0000 1803.9824 -7385.7025 308.9875 -9189.6849 -7395.5000 299.6235 392.0038 402.0555 30306.4878 -231.0849 -154.2667
ENERGY: 1500000 8.9512 16.0265 9.9547 0.0000 -10624.1965 1427.9478 0.0000 0.0000 1761.1513 -7400.1650 301.6513 -9161.3163 -7400.8516 299.2708 -332.3123 -177.4553 30365.5824 -177.9263 -104.4182
TCL: Running FEP window   6: Lambda1 0.7499999999999998 Lambda2 0.6999999999999997 [dLambda -0.050000000000000044]
TCL: Setting parameter firsttimestep to 0
TCL: Setting parameter alchLambda to 0.7499999999999998
Info: NONBONDED TABLE R-SQUARED SPACING: 0.0625
Info: NONBONDED TABLE SIZE: 705 POINTS
TCL: Setting parameter alchLambda2 to 0.6999999999999997
Info: NONBONDED TABLE R-SQUARED SPACING: 0.0625
Info: NONBONDED TABLE SIZE: 705 POINTS
TCL: Running for 1500000 steps
ETITLE: TS BOND ANGLE DIHED IMPRP ELECT VDW BOUNDARY MISC KINETIC TOTAL TEMP POTENTIAL TOTALAVG TEMPAVG PRESSURE GPRESSURE VOLUME PRESSAVG GPRESSAVG
ENERGY: 0 8.9512 16.0265 9.9547 0.0000 -10623.1696 1428.1957 0.0000 0.0000 1760.3094 -7399.7321 301.5071 -9160.0415 -7399.7321 301.5071 -279.2629 -185.7350 30365.5824 -279.2629 -185.7350
ENERGY: 300000 5.7752 18.5930 5.7656 0.0000 -10524.0594 1351.0722 0.0000 0.0000 1778.2312 -7364.6222 304.5768 -9142.8534 -7371.2676 300.6117 -557.8815 -508.2595 30024.6562 -81.7814 -29.6916
ENERGY: 600000 4.5133 24.6285 8.9417 0.0000 -10639.4142 1463.6691 0.0000 0.0000 1793.0438 -7344.6178 307.1139 -9137.6616 -7358.6721 302.7778 135.0018 186.6144 30319.8529 -217.4417 -166.0232
ENERGY: 900000 2.8139 22.7668 9.0832 0.0000 -10642.5954 1433.5095 0.0000 0.0000 1771.9246 -7402.4974 303.4966 -9174.4219 -7359.6402 302.1967 5.0109 84.5729 30252.5811 -406.6922 -356.9843
ENERGY: 1200000 5.4965 19.5133 12.1158 0.0000 -10654.6040 1489.8328 0.0000 0.0000 1707.3385 -7420.3071 292.4343 -9127.6456 -7375.2164 301.1054 578.6719 619.5016 29865.0621 -308.4506 -255.0161
ENERGY: 1500000 7.7371 18.9055 7.0964 0.0000 -10469.7330 1345.0404 0.0000 0.0000 1766.3303 -7324.6234 302.5384 -9090.9537 -7380.9433 300.4174 -747.0307 -687.1930 30273.0955 -309.1654 -259.8021
TCL: Running FEP window   7: Lambda1 0.6999999999999997 Lambda2 0.6499999999999997 [dLambda -0.050000000000000044]
TCL: Setting parameter firsttimestep to 0
TCL: Setting parameter alchLambda to 0.6999999999999997
Info: NONBONDED TABLE R-SQUARED SPACING: 0.0625
Info: NONBONDED TABLE SIZE: 705 POINTS
TCL: Setting parameter alchLambda2 to 0.6499999999999997
Info: NONBONDED TABLE R-SQUARED SPACING: 0.0625
Info: NONBONDED TABLE SIZE: 705 POINTS
TCL: Running for 1500000 steps
ETITLE: TS BOND ANGLE DIHED IMPRP ELECT VDW BOUNDARY MISC KINETIC TOTAL TEMP POTENTIAL TOTALAVG TEMPAVG PRESSURE GPRESSURE VOLUME PRESSAVG GPRESSAVG
ENERGY: 0 7.7371 18.9055 7.0964 0.0000 -10469.4217 1344.7318 0.0000 0.0000 1765.4682 -7325.4828 302.3907 -9090.9510 -7325.4828 302.3907 -792.4420 -707.6485 30273.0955 -792.4420 -707.6485
ENERGY: 300000 2.8447 20.4096 6.6297 0.0000 -10628.0880 1488.5456 0.0000 0.0000 1762.7009 -7346.9575 301.9168 -9109.6584 -7366.7595 301.6500 715.4688 705.7377 30253.3530 157.7243 202.2511
ENERGY: 600000 5.1162 21.7229 7.2599 0.0000 -10652.2340 1465.5526 0.0000 0.0000 1771.1822 -7381.4002 303.3694 -9152.5824 -7388.2369 301.0735 376.8975 414.1268 30342.4678 247.9739 301.9377
ENERGY: 900000 5.3458 19.1230 6.5952 0.0000 -10482.4766 1347.3617 0.0000 0.0000 1721.5650 -7382.4859 294.8710 -9104.0509 -7379.4910 300.3184 -928.9601 -856.8136 30655.1577 159.8219 219.4359
ENERGY: 1200000 4.2871 17.7851 9.9274 0.0000 -10506.2292 1339.3244 0.0000 0.0000 1740.7854 -7394.1198 298.1631 -9134.9052 -7378.6297 299.5960 -539.3632 -484.2618 29716.5035 50.1722 113.7586
ENERGY: 1500000 2.1150 19.7978 7.9143 0.0000 -10597.7806 1380.6299 0.0000 0.0000 1772.5138 -7414.8098 303.5975 -9187.3236 -7375.0040 300.1816 -654.1021 -601.3727 30624.2928 11.6151 63.8570
TCL: Running FEP window   8: Lambda1 0.6499999999999997 Lambda2 0.5999999999999996 [dLambda -0.050000000000000044]
TCL: Setting parameter firsttimestep to 0
TCL: Setting parameter alchLambda to 0.6499999999999997
Info: NONBONDED TABLE R-SQUARED SPACING: 0.0625
Info: NONBONDED TABLE SIZE: 705 POINTS
TCL: Setting parameter alchLambda2 to 0.5999999999999996
Info: NONBONDED TABLE R-SQUARED SPACING: 0.0625
Info: NONBONDED TABLE SIZE: 705 POINTS
TCL: Running for 1500000 steps
ETITLE: TS BOND ANGLE DIHED IMPRP ELECT VDW BOUNDARY MISC KINETIC TOTAL TEMP POTENTIAL TOTALAVG TEMPAVG PRESSURE GPRESSURE VOLUME PRESSAVG GPRESSAVG
ENERGY: 0 2.1150 19.7978 7.9143 0.0000 -10596.7687 1380.7560 0.0000 0.0000 1771.6813 -7414.5043 303.4549 -9186.1856 -7414.5043 303.4549 -688.0410 -605.7085 30624.2928 -688.0410 -605.7085
ENERGY: 300000 3.4655 18.6421 7.5571 0.0000 -10784.6613 1571.7729 0.0000 0.0000 1707.5055 -7475.7182 292.4629 -9183.2237 -7416.0212 295.8354 953.2373 1015.9593 30388.1303 -102.7032 -20.2764
ENERGY: 600000 5.7435 21.9740 6.3852 0.0000 -10586.0228 1407.4661 0.0000 0.0000 1795.7605 -7348.6935 307.5792 -9144.4540 -7402.9804 299.7872 -469.9085 -438.3763 30199.9110 78.9313 150.0978
ENERGY: 900000 5.4453 21.7190 5.3686 0.0000 -10401.5329 1317.8082 0.0000 0.0000 1766.1140 -7285.0778 302.5014 -9051.1917 -7382.8534 301.0372 -769.6934 -679.4033 30317.8780 56.7825 119.3218
ENERGY: 1200000 5.1660 20.0057 8.7812 0.0000 -10609.6902 1389.8609 0.0000 0.0000 1725.4035 -7460.4729 295.5284 -9185.8764 -7392.0148 300.3353 -318.0535 -306.7046 30037.7364 -24.3869 35.0638
ENERGY: 1500000 2.5319 20.8549 4.2915 0.0000 -10564.5503 1447.1717 0.0000 0.0000 1769.6144 -7320.0858 303.1009 -9089.7002 -7381.6357 301.0444 534.5082 623.5656 29936.0534 -22.2551 44.7023
TCL: Running FEP window   9: Lambda1 0.5999999999999996 Lambda2 0.5499999999999996 [dLambda -0.050000000000000044]
TCL: Setting parameter firsttimestep to 0
TCL: Setting parameter alchLambda to 0.5999999999999996
Info: NONBONDED TABLE R-SQUARED SPACING: 0.0625
Info: NONBONDED TABLE SIZE: 705 POINTS
TCL: Setting parameter alchLambda2 to 0.5499999999999996
Info: NONBONDED TABLE R-SQUARED SPACING: 0.0625
Info: NONBONDED TABLE SIZE: 705 POINTS
TCL: Running for 1500000 steps
ETITLE: TS BOND ANGLE DIHED IMPRP ELECT VDW BOUNDARY MISC KINETIC TOTAL TEMP POTENTIAL TOTALAVG TEMPAVG PRESSURE GPRESSURE VOLUME PRESSAVG GPRESSAVG
ENERGY: 0 2.5319 20.8549 4.2915 0.0000 -10564.2999 1447.6833 0.0000 0.0000 1768.7269 -7320.2113 302.9489 -9088.9382 -7320.2113 302.9489 535.5193 619.5390 29936.0534 535.5193 619.5390
ENERGY: 300000 10.0862 19.4038 5.4657 0.0000 -10541.8815 1368.3170 0.0000 0.0000 1778.3984 -7360.2104 304.6054 -9138.6088 -7383.1696 302.5717 -585.8519 -530.5514 30421.2312 6.5328 42.1079
ENERGY: 600000 5.4423 18.8032 7.3770 0.0000 -10569.5107 1440.4300 0.0000 0.0000 1754.2893 -7343.1689 300.4760 -9097.4583 -7383.2743 301.5289 146.7365 234.7794 30378.7539 130.3351 173.1788
ENERGY: 900000 4.4608 20.8994 8.9543 0.0000 -10505.6160 1388.0590 0.0000 0.0000 1794.4487 -7288.7938 307.3546 -9083.2425 -7372.9334 302.4524 -31.5160 -88.8216 30341.9913 51.4309 87.0259
ENERGY: 1200000 2.5129 22.3114 5.5436 0.0000 -10635.8589 1449.5735 0.0000 0.0000 1735.5675 -7420.3500 297.2693 -9155.9175 -7377.3280 302.1515 317.7248 381.0869 29846.9575 27.6291 66.7023
ENERGY: 1500000 4.4344 19.0426 8.6193 0.0000 -10553.9477 1422.1431 0.0000 0.0000 1734.6704 -7365.0377 297.1157 -9099.7082 -7381.6693 301.8673 -154.6819 -61.2993 30727.7154 23.9636 71.7700
TCL: Running FEP window  10: Lambda1 0.5499999999999996 Lambda2 0.4999999999999996 [dLambda -0.04999999999999999]
TCL: Setting parameter firsttimestep to 0
TCL: Setting parameter alchLambda to 0.5499999999999996
Info: NONBONDED TABLE R-SQUARED SPACING: 0.0625
Info: NONBONDED TABLE SIZE: 705 POINTS
TCL: Setting parameter alchLambda2 to 0.4999999999999996
Info: NONBONDED TABLE R-SQUARED SPACING: 0.0625
Info: NONBONDED TABLE SIZE: 705 POINTS
TCL: Running for 1500000 steps
ETITLE: TS BOND ANGLE DIHED IMPRP ELECT VDW BOUNDARY MISC KINETIC TOTAL TEMP POTENTIAL TOTALAVG TEMPAVG PRESSURE GPRESSURE VOLUME PRESSAVG GPRESSAVG
ENERGY: 0 4.4344 19.0426 8.6193 0.0000 -10553.6938 1422.7784 0.0000 0.0000 1733.7297 -7365.0892 296.9546 -9098.8190 -7365.0892 296.9546 -147.8120 -60.4612 30727.7154 -147.8120 -60.4612
ENERGY: 300000 5.1757 18.4776 9.8609 0.0000 -10645.6811 1420.5564 0.0000 0.0000 1747.3734 -7444.2371 299.2915 -9191.6105 -7416.2952 299.2245 -353.6322 -291.8137 30143.6747 81.5817 167.6225
ENERGY: 600000 7.1274 20.2149 6.2961 0.0000 -10671.1655 1472.9032 0.0000 0.0000 1756.7121 -7407.9117 300.8910 -9164.6238 -7397.8480 299.7567 366.0250 424.9416 30003.7086 -65.3228 6.2483
ENERGY: 900000 4.3289 18.0884 5.7749 0.0000 -10643.8814 1441.3870 0.0000 0.0000 1741.8862 -7432.4161 298.3516 -9174.3023 -7391.0684 300.5053 -29.8302 -9.6401 30104.4206 42.1607 99.0949
ENERGY: 1200000 4.4985 23.1903 6.5112 0.0000 -10605.4151 1513.7287 0.0000 0.0000 1784.3816 -7273.1047 305.6302 -9057.4863 -7378.7017 300.5755 964.1824 966.9875 30428.7692 74.0593 124.2980
ENERGY: 1500000 6.3765 18.9557 5.4614 0.0000 -10452.3867 1303.0656 0.0000 0.0000 1793.9715 -7324.5561 307.2728 -9118.5275 -7378.8383 300.5682 -1077.3905 -999.6637 30216.6668 -20.3026 34.1813
TCL: Running FEP window  11: Lambda1 0.4999999999999996 Lambda2 0.4499999999999996 [dLambda -0.04999999999999999]
TCL: Setting parameter firsttimestep to 0
TCL: Setting parameter alchLambda to 0.4999999999999996
Info: NONBONDED TABLE R-SQUARED SPACING: 0.0625
Info: NONBONDED TABLE SIZE: 705 POINTS
TCL: Setting parameter alchLambda2 to 0.4499999999999996
Info: NONBONDED TABLE R-SQUARED SPACING: 0.0625
Info: NONBONDED TABLE SIZE: 705 POINTS
TCL: Running for 1500000 steps
ETITLE: TS BOND ANGLE DIHED IMPRP ELECT VDW BOUNDARY MISC KINETIC TOTAL TEMP POTENTIAL TOTALAVG TEMPAVG PRESSURE GPRESSURE VOLUME PRESSAVG GPRESSAVG
ENERGY: 0 6.3765 18.9557 5.4614 0.0000 -10452.4271 1303.7720 0.0000 0.0000 1793.0812 -7324.7803 307.1203 -9117.8615 -7324.7803 307.1203 -1096.5821 -1001.7036 30216.6668 -1096.5821 -1001.7036
ENERGY: 300000 4.3508 27.6683 3.9836 0.0000 -10664.3052 1478.3874 0.0000 0.0000 1749.1917 -7400.7234 299.6029 -9149.9151 -7344.4584 304.3715 227.7401 250.1671 30245.3177 -312.6563 -268.7307
ENERGY: 600000 4.6485 18.8556 4.5011 0.0000 -10456.2631 1318.1106 0.0000 0.0000 1735.8154 -7374.3320 297.3118 -9110.1474 -7373.5413 301.5888 -766.4711 -649.2401 30330.7848 -431.6276 -375.6474
ENERGY: 900000 5.5358 17.6032 10.3041 0.0000 -10504.7778 1404.9648 0.0000 0.0000 1775.6459 -7290.7240 304.1340 -9066.3699 -7373.6506 301.7497 -83.1480 -33.8283 30237.6458 -472.6963 -410.8149
ENERGY: 1200000 4.4813 24.5514 5.5437 0.0000 -10557.6326 1380.2756 0.0000 0.0000 1747.6754 -7395.1052 299.3432 -9142.7806 -7369.2342 301.5761 -208.5476 -171.4255 30058.4675 -368.8453 -308.5842
ENERGY: 1500000 5.0373 25.6412 7.8267 0.0000 -10574.3519 1430.4370 0.0000 0.0000 1748.6229 -7356.7868 299.5055 -9105.4097 -7367.4800 301.1217 -112.5104 26.6810 30434.5472 -305.1528 -239.7176
TCL: Running FEP window  12: Lambda1 0.4499999999999996 Lambda2 0.39999999999999963 [dLambda -0.04999999999999999]
TCL: Setting parameter firsttimestep to 0
TCL: Setting parameter alchLambda to 0.4499999999999996
Info: NONBONDED TABLE R-SQUARED SPACING: 0.0625
Info: NONBONDED TABLE SIZE: 705 POINTS
TCL: Setting parameter alchLambda2 to 0.39999999999999963
Info: NONBONDED TABLE R-SQUARED SPACING: 0.0625
Info: NONBONDED TABLE SIZE: 705 POINTS
TCL: Running for 1500000 steps
ETITLE: TS BOND ANGLE DIHED IMPRP ELECT VDW BOUNDARY MISC KINETIC TOTAL TEMP POTENTIAL TOTALAVG TEMPAVG PRESSURE GPRESSURE VOLUME PRESSAVG GPRESSAVG
ENERGY: 0 5.0373 25.6412 7.8267 0.0000 -10574.3521 1430.9076 0.0000 0.0000 1747.7442 -7357.1950 299.3550 -9104.9393 -7357.1950 299.3550 -74.5829 21.3812 30434.5472 -74.5829 21.3812
ENERGY: 300000 4.2323 25.6770 5.1538 0.0000 -10487.5297 1358.1662 0.0000 0.0000 1732.3982 -7361.9022 296.7265 -9094.3004 -7368.1316 297.0218 -356.8461 -304.7456 30155.0660 -382.2495 -316.5763
ENERGY: 600000 5.3919 25.8575 4.7757 0.0000 -10642.6012 1461.8732 0.0000 0.0000 1793.7369 -7350.9661 307.2326 -9144.7031 -7378.1444 298.1878 442.8117 491.7281 29763.6443 -285.9035 -220.9961
ENERGY: 900000 5.0233 23.4590 7.9316 0.0000 -10526.9617 1375.0987 0.0000 0.0000 1791.0570 -7324.3921 306.7736 -9115.4491 -7365.5690 300.2873 -305.8065 -215.2123 29901.2465 -124.7063 -52.8189
ENERGY: 1200000 4.9852 21.9667 7.5320 0.0000 -10500.5361 1416.1480 0.0000 0.0000 1757.9087 -7291.9955 301.0960 -9049.9042 -7370.1276 299.1137 -143.5753 -70.1592 30528.6268 -152.8534 -82.5920
ENERGY: 1500000 8.8317 21.4357 8.6245 0.0000 -10685.2167 1449.1115 0.0000 0.0000 1781.0876 -7416.1257 305.0661 -9197.2133 -7368.9493 300.0529 -121.6153 24.4489 30534.0983 -50.5782 22.6672
TCL: Running FEP window  13: Lambda1 0.39999999999999963 Lambda2 0.34999999999999964 [dLambda -0.04999999999999999]
TCL: Setting parameter firsttimestep to 0
TCL: Setting parameter alchLambda to 0.39999999999999963
Info: NONBONDED TABLE R-SQUARED SPACING: 0.0625
Info: NONBONDED TABLE SIZE: 705 POINTS
TCL: Setting parameter alchLambda2 to 0.34999999999999964
Info: NONBONDED TABLE R-SQUARED SPACING: 0.0625
Info: NONBONDED TABLE SIZE: 705 POINTS
TCL: Running for 1500000 steps
ETITLE: TS BOND ANGLE DIHED IMPRP ELECT VDW BOUNDARY MISC KINETIC TOTAL TEMP POTENTIAL TOTALAVG TEMPAVG PRESSURE GPRESSURE VOLUME PRESSAVG GPRESSAVG
ENERGY: 0 8.8317 21.4357 8.6245 0.0000 -10685.2166 1449.5799 0.0000 0.0000 1780.2119 -7416.5329 304.9161 -9196.7447 -7416.5329 304.9161 -67.9971 21.5370 30534.0983 -67.9971 21.5370
ENERGY: 300000 3.1551 19.8956 7.9608 0.0000 -10704.1516 1521.5024 0.0000 0.0000 1733.5967 -7418.0409 296.9318 -9151.6376 -7428.6970 297.7284 964.2411 1037.3920 29501.5372 -134.1390 -44.9058
ENERGY: 600000 3.8202 21.9166 8.0728 0.0000 -10623.4873 1426.8199 0.0000 0.0000 1722.3131 -7440.5448 294.9991 -9162.8579 -7414.6031 298.6814 -229.7734 -177.3801 30226.7875 56.9030 134.6222
ENERGY: 900000 6.4429 18.1676 8.1661 0.0000 -10563.9537 1483.3937 0.0000 0.0000 1726.6606 -7321.1229 295.7438 -9047.7835 -7396.9351 299.9366 953.0058 998.4718 29787.5454 86.6910 152.1629
ENERGY: 1200000 3.4911 18.7705 9.9990 0.0000 -10785.6720 1582.1283 0.0000 0.0000 1780.7035 -7390.5796 305.0003 -9171.2830 -7389.7246 301.1721 996.2555 1040.6681 30003.0522 159.3181 230.3261
ENERGY: 1500000 7.8932 21.8998 5.1143 0.0000 -10656.5266 1452.9913 0.0000 0.0000 1735.8858 -7432.7420 297.3239 -9168.6279 -7389.4722 300.6561 147.9093 149.5792 30064.6392 172.6694 236.8366
TCL: Running FEP window  14: Lambda1 0.34999999999999964 Lambda2 0.29999999999999966 [dLambda -0.04999999999999999]
TCL: Setting parameter firsttimestep to 0
TCL: Setting parameter alchLambda to 0.34999999999999964
Info: NONBONDED TABLE R-SQUARED SPACING: 0.0625
Info: NONBONDED TABLE SIZE: 705 POINTS
TCL: Setting parameter alchLambda2 to 0.29999999999999966
Info: NONBONDED TABLE R-SQUARED SPACING: 0.0625
Info: NONBONDED TABLE SIZE: 705 POINTS
TCL: Running for 1500000 steps
ETITLE: TS BOND ANGLE DIHED IMPRP ELECT VDW BOUNDARY MISC KINETIC TOTAL TEMP POTENTIAL TOTALAVG TEMPAVG PRESSURE GPRESSURE VOLUME PRESSAVG GPRESSAVG
ENERGY: 0 7.8932 21.8998 5.1143 0.0000 -10656.5258 1453.0490 0.0000 0.0000 1735.0228 -7433.5466 297.1760 -9168.5694 -7433.5466 297.1760 61.5597 141.6743 30064.6392 61.5597 141.6743
ENERGY: 300000 5.0638 17.3923 4.9507 0.0000 -10661.8168 1520.8086 0.0000 0.0000 1746.3714 -7367.2301 299.1198 -9113.6015 -7375.3421 301.3061 873.3067 870.3143 29925.6534 344.0518 391.2798
ENERGY: 600000 4.6167 20.3351 6.7841 0.0000 -10541.9055 1379.4694 0.0000 0.0000 1705.0407 -7425.6595 292.0407 -9130.7002 -7373.6083 300.8044 -695.1948 -636.7872 30509.4833 68.9533 139.3228
ENERGY: 900000 9.9760 22.4299 8.7931 0.0000 -10474.3703 1325.6327 0.0000 0.0000 1753.6585 -7353.8801 300.3680 -9107.5387 -7389.6391 299.4602 -1446.3463 -1372.0123 30924.4499 0.8252 67.1958
ENERGY: 1200000 5.2066 21.9518 8.2278 0.0000 -10549.0617 1370.5824 0.0000 0.0000 1768.7059 -7374.3872 302.9453 -9143.0931 -7385.9030 299.3078 -470.7469 -407.3299 29964.4748 -75.7303 -13.6020
ENERGY: 1500000 5.6511 17.6773 5.4708 0.0000 -10622.0263 1475.1610 0.0000 0.0000 1769.4033 -7348.6628 303.0647 -9118.0661 -7393.9205 298.7424 676.2927 712.0717 29852.0782 5.1441 61.1822
TCL: Running FEP window  15: Lambda1 0.29999999999999966 Lambda2 0.24999999999999967 [dLambda -0.04999999999999999]
TCL: Setting parameter firsttimestep to 0
TCL: Setting parameter alchLambda to 0.29999999999999966
Info: NONBONDED TABLE R-SQUARED SPACING: 0.0625
Info: NONBONDED TABLE SIZE: 705 POINTS
TCL: Setting parameter alchLambda2 to 0.24999999999999967
Info: NONBONDED TABLE R-SQUARED SPACING: 0.0625
Info: NONBONDED TABLE SIZE: 705 POINTS
TCL: Running for 1500000 steps
ETITLE: TS BOND ANGLE DIHED IMPRP ELECT VDW BOUNDARY MISC KINETIC TOTAL TEMP POTENTIAL TOTALAVG TEMPAVG PRESSURE GPRESSURE VOLUME PRESSAVG GPRESSAVG
ENERGY: 0 5.6511 17.6773 5.4708 0.0000 -10622.0277 1475.6478 0.0000 0.0000 1768.5557 -7349.0250 302.9196 -9117.5807 -7349.0250 302.9196 621.7449 709.8481 29852.0782 621.7449 709.8481
ENERGY: 300000 7.6840 21.1355 4.8275 0.0000 -10381.9830 1304.7802 0.0000 0.0000 1812.8423 -7230.7135 310.5050 -9043.5558 -7335.3837 301.7244 -950.3961 -920.9429 30544.1396 -348.0335 -292.9253
ENERGY: 600000 11.6677 19.7379 6.0797 0.0000 -10607.9595 1453.0812 0.0000 0.0000 1714.1259 -7403.2672 293.5968 -9117.3931 -7382.7211 297.3471 -50.1716 -18.0128 30416.4766 -78.6052 -20.1640
ENERGY: 900000 4.0110 20.1024 6.1776 0.0000 -10561.1546 1397.8067 0.0000 0.0000 1746.7012 -7386.3557 299.1763 -9133.0569 -7369.4117 299.0928 -308.0479 -284.8256 30325.9241 -48.2193 7.9106
ENERGY: 1200000 3.6810 22.2732 7.4587 0.0000 -10563.2652 1386.5427 0.0000 0.0000 1725.9466 -7417.3629 295.6215 -9143.3095 -7375.7452 299.0640 -371.7364 -231.6045 30094.3035 -71.0277 -2.1464
ENERGY: 1500000 4.6519 20.8922 7.3012 0.0000 -10596.6186 1453.6041 0.0000 0.0000 1756.3353 -7353.8340 300.8264 -9110.1693 -7374.0459 299.6252 -113.9564 -41.8897 30378.2800 -63.5661 0.5108
TCL: Running FEP window  16: Lambda1 0.24999999999999967 Lambda2 0.19999999999999968 [dLambda -0.04999999999999999]
TCL: Setting parameter firsttimestep to 0
TCL: Setting parameter alchLambda to 0.24999999999999967
Info: NONBONDED TABLE R-SQUARED SPACING: 0.0625
Info: NONBONDED TABLE SIZE: 705 POINTS
TCL: Setting parameter alchLambda2 to 0.19999999999999968
Info: NONBONDED TABLE R-SQUARED SPACING: 0.0625
Info: NONBONDED TABLE SIZE: 705 POINTS
TCL: Running for 1500000 steps
ETITLE: TS BOND ANGLE DIHED IMPRP ELECT VDW BOUNDARY MISC KINETIC TOTAL TEMP POTENTIAL TOTALAVG TEMPAVG PRESSURE GPRESSURE VOLUME PRESSAVG GPRESSAVG
ENERGY: 0 4.6519 20.8922 7.3012 0.0000 -10596.6192 1453.6935 0.0000 0.0000 1755.4633 -7354.6172 300.6771 -9110.0804 -7354.6172 300.6771 -126.3397 -45.2848 30378.2800 -126.3397 -45.2848
ENERGY: 300000 4.7562 19.3287 6.9357 0.0000 -10538.3728 1383.6064 0.0000 0.0000 1719.4708 -7404.2749 294.5123 -9123.7458 -7366.7115 299.9312 -633.5636 -590.7144 30661.6609 -478.3768 -433.4686
ENERGY: 600000 8.2354 20.7074 4.9271 0.0000 -10431.0961 1305.2659 0.0000 0.0000 1776.0054 -7315.9548 304.1956 -9091.9602 -7358.6889 300.6638 -1183.5472 -1142.3500 30198.5229 -382.6781 -331.0125
ENERGY: 900000 5.0272 19.1192 5.7772 0.0000 -10546.6665 1416.3225 0.0000 0.0000 1793.8417 -7306.5787 307.2506 -9100.4204 -7350.9227 301.5763 234.7898 252.1168 29982.6243 -152.5053 -107.6829
ENERGY: 1200000 3.4922 20.7941 5.0888 0.0000 -10526.6597 1366.5208 0.0000 0.0000 1740.0218 -7390.7421 298.0323 -9130.7639 -7358.5023 301.5618 -480.3675 -389.1201 29944.1947 -175.4337 -124.1631
ENERGY: 1500000 8.0558 17.7147 5.1832 0.0000 -10531.3520 1413.3390 0.0000 0.0000 1774.1030 -7312.9563 303.8697 -9087.0594 -7354.3495 301.8238 246.2394 322.5307 29635.2806 -187.3012 -134.1853
TCL: Running FEP window  17: Lambda1 0.19999999999999968 Lambda2 0.1499999999999997 [dLambda -0.04999999999999999]
TCL: Setting parameter firsttimestep to 0
TCL: Setting parameter alchLambda to 0.19999999999999968
Info: NONBONDED TABLE R-SQUARED SPACING: 0.0625
Info: NONBONDED TABLE SIZE: 705 POINTS
TCL: Setting parameter alchLambda2 to 0.1499999999999997
Info: NONBONDED TABLE R-SQUARED SPACING: 0.0625
Info: NONBONDED TABLE SIZE: 705 POINTS
TCL: Running for 1500000 steps
ETITLE: TS BOND ANGLE DIHED IMPRP ELECT VDW BOUNDARY MISC KINETIC TOTAL TEMP POTENTIAL TOTALAVG TEMPAVG PRESSURE GPRESSURE VOLUME PRESSAVG GPRESSAVG
ENERGY: 0 8.0558 17.7147 5.1832 0.0000 -10531.3503 1414.0104 0.0000 0.0000 1773.2248 -7313.1614 303.7193 -9086.3862 -7313.1614 303.7193 235.3445 324.5926 29635.2806 235.3445 324.5926
ENERGY: 300000 3.3922 27.5912 5.8271 0.0000 -10687.1011 1539.5714 0.0000 0.0000 1785.9637 -7324.7555 305.9012 -9110.7192 -7337.8857 301.8018 1053.3957 1112.4155 29880.0260 770.3769 839.9661
ENERGY: 600000 3.5307 20.0724 9.5788 0.0000 -10595.7949 1493.6903 0.0000 0.0000 1804.8613 -7264.0612 309.1380 -9068.9226 -7352.4271 302.6608 686.3134 759.5775 30362.1655 485.7122 562.0150
ENERGY: 900000 5.6126 19.8613 8.5231 0.0000 -10475.6052 1358.7703 0.0000 0.0000 1764.1718 -7318.6661 302.1687 -9082.8379 -7350.9420 301.7235 -325.4167 -303.5299 30140.8066 203.7747 267.2011
ENERGY: 1200000 6.7655 18.5605 5.3771 0.0000 -10354.6308 1305.5856 0.0000 0.0000 1724.1544 -7294.1878 295.3145 -9018.3421 -7353.3562 300.2039 -591.2077 -471.0308 30244.8953 36.2318 92.2329
ENERGY: 1500000 7.6029 21.1491 6.3203 0.0000 -10625.3827 1472.6513 0.0000 0.0000 1790.6761 -7326.9831 306.7084 -9117.6592 -7356.1995 300.0484 451.5014 561.9231 29716.5684 49.4545 105.3216
TCL: Running FEP window  18: Lambda1 0.1499999999999997 Lambda2 0.09999999999999969 [dLambda -0.05 ]
TCL: Setting parameter firsttimestep to 0
TCL: Setting parameter alchLambda to 0.1499999999999997
Info: NONBONDED TABLE R-SQUARED SPACING: 0.0625
Info: NONBONDED TABLE SIZE: 705 POINTS
TCL: Setting parameter alchLambda2 to 0.09999999999999969
Info: NONBONDED TABLE R-SQUARED SPACING: 0.0625
Info: NONBONDED TABLE SIZE: 705 POINTS
TCL: Running for 1500000 steps
ETITLE: TS BOND ANGLE DIHED IMPRP ELECT VDW BOUNDARY MISC KINETIC TOTAL TEMP POTENTIAL TOTALAVG TEMPAVG PRESSURE GPRESSURE VOLUME PRESSAVG GPRESSAVG
ENERGY: 0 7.6029 21.1491 6.3203 0.0000 -10625.3827 1471.6880 0.0000 0.0000 1789.7732 -7328.8493 306.5537 -9118.6225 -7328.8493 306.5537 471.6705 553.2304 29716.5684 471.6705 553.2304
ENERGY: 300000 4.2967 18.6505 5.9403 0.0000 -10491.0040 1372.0217 0.0000 0.0000 1790.9600 -7299.1349 306.7570 -9090.0949 -7355.8009 298.9612 -564.1834 -512.0973 30544.2906 20.9162 77.8851
ENERGY: 600000 3.4818 19.6623 6.6126 0.0000 -10499.1160 1375.2459 0.0000 0.0000 1769.7593 -7324.3540 303.1257 -9094.1133 -7346.8444 301.0648 -257.9524 -187.4414 29875.7533 -6.7713 44.3279
ENERGY: 900000 6.2028 18.6191 5.5859 0.0000 -10585.2317 1399.7067 0.0000 0.0000 1774.6774 -7380.4397 303.9681 -9155.1171 -7366.6362 299.5663 -179.4118 -102.3717 30027.2149 69.5901 121.4740
ENERGY: 1200000 4.7877 19.7497 11.3404 0.0000 -10708.3966 1491.2764 0.0000 0.0000 1715.2616 -7465.9809 293.7913 -9181.2425 -7371.1828 299.5956 352.6712 389.9731 29941.6236 188.7081 236.5204
ENERGY: 1500000 3.4602 23.1514 9.2358 0.0000 -10670.3078 1519.0686 0.0000 0.0000 1777.3281 -7338.0637 304.4221 -9115.3918 -7367.6186 299.7815 988.8649 1080.6122 29843.3017 232.8592 283.6349
TCL: Running FEP window  19: Lambda1 0.09999999999999969 Lambda2 0.049999999999999684 [dLambda -0.05 ]
TCL: Setting parameter firsttimestep to 0
TCL: Setting parameter alchLambda to 0.09999999999999969
Info: NONBONDED TABLE R-SQUARED SPACING: 0.0625
Info: NONBONDED TABLE SIZE: 705 POINTS
TCL: Setting parameter alchLambda2 to 0.049999999999999684
Info: NONBONDED TABLE R-SQUARED SPACING: 0.0625
Info: NONBONDED TABLE SIZE: 705 POINTS
TCL: Running for 1500000 steps
ETITLE: TS BOND ANGLE DIHED IMPRP ELECT VDW BOUNDARY MISC KINETIC TOTAL TEMP POTENTIAL TOTALAVG TEMPAVG PRESSURE GPRESSURE VOLUME PRESSAVG GPRESSAVG
ENERGY: 0 3.4602 23.1514 9.2358 0.0000 -10670.3087 1517.7952 0.0000 0.0000 1776.4602 -7340.2059 304.2735 -9116.6661 -7340.2059 304.2735 986.4677 1072.7297 29843.3017 986.4677 1072.7297
ENERGY: 300000 5.4554 17.3449 7.3800 0.0000 -10574.3756 1436.3359 0.0000 0.0000 1758.7637 -7349.0957 301.2424 -9107.8594 -7360.9115 299.4001 131.7675 205.8413 29891.2109 110.9562 187.1086
ENERGY: 600000 8.1257 20.2427 5.6889 0.0000 -10587.5032 1384.5117 0.0000 0.0000 1772.6926 -7396.2415 303.6282 -9168.9342 -7357.1575 302.4865 -590.1297 -651.8731 30338.2637 -187.5559 -146.7429
ENERGY: 900000 7.4460 19.5480 8.6678 0.0000 -10618.5454 1422.1930 0.0000 0.0000 1725.2056 -7435.4849 295.4945 -9160.6905 -7350.0967 300.9627 -464.2307 -390.9668 30215.0293 -281.4922 -232.5620
ENERGY: 1200000 3.9464 18.5387 7.7146 0.0000 -10606.5930 1488.4581 0.0000 0.0000 1673.8623 -7414.0729 286.7004 -9087.9353 -7368.2994 299.2809 161.9369 302.3197 30322.9734 -307.4466 -249.7530
ENERGY: 1500000 3.2613 20.2409 10.6790 0.0000 -10487.7488 1364.7496 0.0000 0.0000 1736.3226 -7352.4955 297.3987 -9088.8180 -7372.9233 299.5163 -694.3555 -671.5598 30489.1446 -290.3274 -232.0361
TCL: Running FEP window  20: Lambda1 0.049999999999999684 Lambda2 0.0    [dLambda -0.049999999999999684]
TCL: Setting parameter firsttimestep to 0
TCL: Setting parameter alchLambda to 0.049999999999999684
Info: NONBONDED TABLE R-SQUARED SPACING: 0.0625
Info: NONBONDED TABLE SIZE: 705 POINTS
TCL: Setting parameter alchLambda2 to 0.0
Info: NONBONDED TABLE R-SQUARED SPACING: 0.0625
Info: NONBONDED TABLE SIZE: 705 POINTS
TCL: Running for 1500000 steps
ETITLE: TS BOND ANGLE DIHED IMPRP ELECT VDW BOUNDARY MISC KINETIC TOTAL TEMP POTENTIAL TOTALAVG TEMPAVG PRESSURE GPRESSURE VOLUME PRESSAVG GPRESSAVG
ENERGY: 0 3.2613 20.2409 10.6790 0.0000 -10487.7486 1364.3832 0.0000 0.0000 1735.4282 -7353.7561 297.2455 -9089.1843 -7353.7561 297.2455 -750.4552 -674.2245 30489.1446 -750.4552 -674.2245
ENERGY: 300000 3.1366 23.0058 7.0620 0.0000 -10687.9178 1457.4231 0.0000 0.0000 1758.7634 -7438.5268 301.2423 -9197.2902 -7370.5098 303.8471 86.2117 124.9626 29582.0837 -443.1995 -377.9119
ENERGY: 600000 7.9031 17.3910 11.3715 0.0000 -10597.0863 1413.7267 0.0000 0.0000 1743.7598 -7402.9341 298.6725 -9146.6939 -7361.6535 301.2202 -261.2388 -222.9338 29930.9613 -324.9939 -266.9435
ENERGY: 900000 6.3206 24.2065 7.6013 0.0000 -10537.6327 1397.6275 0.0000 0.0000 1713.5080 -7388.3689 293.4910 -9101.8769 -7366.9041 299.0786 -528.8740 -449.4547 30342.0480 -341.8833 -278.1912
ENERGY: 1200000 3.9179 19.3430 6.8983 0.0000 -10591.9886 1424.3489 0.0000 0.0000 1659.6839 -7477.7965 284.2719 -9137.4804 -7388.4576 298.1468 -40.3695 66.1797 29585.1127 -243.8951 -173.1260
ENERGY: 1500000 10.8789 17.3201 7.3225 0.0000 -10468.8525 1358.6136 0.0000 0.0000 1753.8170 -7320.9003 300.3951 -9074.7173 -7389.2582 298.7546 -627.1831 -589.0619 30205.2098 -270.8439 -206.6312
TCL: Exiting due to exit command.
