Info: SIMULATION PARAMETERS:
Info: TIMESTEP               2
Info: NUMBER OF STEPS        0
Info: STEPS PER CYCLE        10
Info: PERIODIC CELL BASIS 1  31.6517 0 0
Info: PERIODIC CELL BASIS 2  0 30.1177 0
Info: PERIODIC CELL BASIS 3  0 0 32.0763
Info: PERIODIC CELL CENTER   0 0 0
Info: WRAPPING WATERS AROUND PERIODIC BOUNDARIES ON OUTPUT.
Info: WRAPPING ALL CLUSTERS AROUND PERIODIC BOUNDARIES ON OUTPUT.
Info: FIRST LDB TIMESTEP     50
Info: LAST LDB TIMESTEP     -1
Info: HOM BACKGROUND SCALING 1
Info: PME BACKGROUND SCALING 1
Info: MIN ATOMS PER PATCH    40
Info: EMPTY PATCH LOAD       40 ATOMS
Info: VELOCITY FILE          mobley_1571523_equil.vel
Info: CENTER OF MASS MOVING INITIALLY? NO
Info: DIELECTRIC             1
Info: EXCLUDE                SCALED ONE-FOUR
Info: 1-4 ELECTROSTATICS SCALED BY 0.833333
Info: MODIFIED 1-4 VDW PARAMETERS WILL BE USED
Info: DCD FILENAME           mobley_1571523_prod.dcd
Info: DCD FREQUENCY          100000
Info: DCD FIRST STEP         100000
Info: DCD FILE WILL CONTAIN UNIT CELL DATA
Info: XST FILENAME           mobley_1571523_prod.xst
Info: XST FREQUENCY          100000
Info: NO VELOCITY DCD OUTPUT
Info: NO FORCE DCD OUTPUT
Info: OUTPUT FILENAME        mobley_1571523_prod
Info: BINARY OUTPUT FILES WILL BE USED
Info: RESTART FILENAME       mobley_1571523_prod.restart
Info: RESTART FREQUENCY      100000
Info: BINARY RESTART FILES WILL BE USED
Info: CUTOFF                 9
Info: PAIRLIST DISTANCE      11
Info: PAIRLIST SHRINK RATE   0.01
Info: PAIRLIST GROW RATE     0.01
Info: PAIRLIST TRIGGER       0.3
Info: PAIRLISTS PER CYCLE    2
Info: PAIRLISTS ENABLED
Info: MARGIN                 2
Info: HYDROGEN GROUP CUTOFF  2.5
Info: PATCH DIMENSION        15.5
Info: ENERGY OUTPUT STEPS    100000
Info: ENERGY EVALUATION STEPS    100000
Info: OUTPUT ENERGY PRECISION 4
Info: CROSSTERM ENERGY INCLUDED IN DIHEDRAL
Info: TIMING OUTPUT STEPS    1000000
Info: PRESSURE OUTPUT STEPS  100000
Info: ALCHEMICAL FEP ON
Info: FEP CURRENT LAMBDA VALUE     0
Info: FEP COMPARISON LAMBDA VALUE  0.05
Info: FEP INTRA-ALCHEMICAL NON-BONDED INTERACTIONS WILL BE RETAINED
Info: FEP INTRA-ALCHEMICAL BONDED INTERACTIONS WILL BE RETAINED
Info: FEP VDW SHIFTING COEFFICIENT 5
Info: FEP ELEC. ACTIVE FOR ANNIHILATED PARTICLES BETWEEN LAMBDA = 0 AND LAMBDA = 0.5
Info: FEP ELEC. ACTIVE FOR EXNIHILATED PARTICLES BETWEEN LAMBDA = 0.5 AND LAMBDA = 1
Info: FEP VDW ACTIVE FOR ANNIHILATED PARTICLES BETWEEN LAMBDA = 0 AND LAMBDA = 1
Info: FEP VDW ACTIVE FOR EXNIHILATED PARTICLES BETWEEN LAMBDA = 0 AND LAMBDA = 1
Info: FEP BOND ACTIVE FOR ANNIHILATED PARTICLES BETWEEN LAMBDA = 1 AND LAMBDA = 1
Info: FEP BOND ACTIVE FOR EXNIHILATED PARTICLES BETWEEN LAMBDA = 0 AND LAMBDA = 0
Info: LANGEVIN DYNAMICS ACTIVE
Info: LANGEVIN TEMPERATURE   300
Info: LANGEVIN USING BBK INTEGRATOR
Info: LANGEVIN DAMPING COEFFICIENT IS 1 INVERSE PS
Info: LANGEVIN DYNAMICS APPLIED TO HYDROGENS
Info: LANGEVIN PISTON PRESSURE CONTROL ACTIVE
Info:        TARGET PRESSURE IS 1.01325 BAR
Info:     OSCILLATION PERIOD IS 50 FS
Info:             DECAY TIME IS 25 FS
Info:     PISTON TEMPERATURE IS 300 K
Info:       PRESSURE CONTROL IS GROUP-BASED
Info:    INITIAL STRAIN RATE IS -9.61541e-05 -9.61541e-05 -9.61541e-05
Info:       CELL FLUCTUATION IS ISOTROPIC
Info: PARTICLE MESH EWALD (PME) ACTIVE
Info: PME TOLERANCE               1e-06
Info: PME EWALD COEFFICIENT       0.348832
Info: PME INTERPOLATION ORDER     4
Info: PME GRID DIMENSIONS         32 32 36
Info: PME MAXIMUM GRID SPACING    1
Info: PME CALCULATION WILL BE PERFORMED ON GPU
Info: FULL ELECTROSTATIC EVALUATION FREQUENCY      2
Info: USING VERLET I (r-RESPA) MTS SCHEME.
Info: C1 SPLITTING OF LONG RANGE ELECTROSTATICS
Info: PLACING ATOMS IN PATCHES BY HYDROGEN GROUPS
Info: RIGID BONDS TO HYDROGEN : ALL
Info:         ERROR TOLERANCE : 1e-08
Info:          MAX ITERATIONS : 100
Info: RIGID WATER USING SETTLE ALGORITHM
Info: RANDOM NUMBER SEED     1743604185
Info: USE HYDROGEN BONDS?    NO
Info: Using AMBER format force field!
Info: AMBER PARM FILE        mobley_1571523.prmtop
Info: COORDINATE PDB         mobley_1571523.pdb
Info: Exclusions will be read from PARM file!
Info: SCNB (VDW SCALING)     2
Info: USING ARITHMETIC MEAN TO COMBINE L-J SIGMA PARAMETERS
Info: BINARY COORDINATES     mobley_1571523_equil.coor
Info: SUMMARY OF PARAMETERS:
Info: 8 BONDS
Info: 7 ANGLES
Info:   7 HARMONIC
Info:   0 COSINE-BASED
Info: 4 DIHEDRAL
Info: 0 IMPROPER
Info: 0 CROSSTERM
Info: 0 VDW
Info: 28 VDW_PAIRS
Info: 0 NBTHOLE_PAIRS
Info: To read alchdata from file: mobley_1571523.pdb
Info: To read alchflag data from column: 5
Info: STRUCTURE SUMMARY:
Info: 2992 ATOMS
Info: 2992 BONDS
Info: 31 ANGLES
Info: 44 DIHEDRALS
Info: 0 IMPROPERS
Info: 0 CROSSTERMS
Info: 3058 EXCLUSIONS
Info: 2983 RIGID BONDS
Info: ALCH: 0 ATOMS TO DISAPPEAR IN FINAL STATE
Info: ALCH: 19 ATOMS TO APPEAR IN FINAL STATE
Info: 5993 DEGREES OF FREEDOM
Info: 1000 HYDROGEN GROUPS
Info: 4 ATOMS IN LARGEST HYDROGEN GROUP
Info: 1000 MIGRATION GROUPS
Info: 4 ATOMS IN LARGEST MIGRATION GROUP
Info: TOTAL MASS = 17976 amu
Info: TOTAL CHARGE = -0.000100031 e
Info: MASS DENSITY = 0.976227 g/cm^3
Info: ATOM DENSITY = 0.0978498 atoms/A^3
Info: ADDED 0 IMPLICIT EXCLUSIONS
Info: NONBONDED TABLE R-SQUARED SPACING: 0.0625
Info: NONBONDED TABLE SIZE: 705 POINTS
Info: REMOVING COM VELOCITY -0.156091 -0.144686 0.116544
Info: Use 3D box decompostion in PME FFT.
Info: Updated CUDA force table with 4096 elements.
Info: Updated CUDA LJ table with 7 x 7 elements.
Info: Found 17 unique exclusion lists needing 44 bytes
TCL: Running for 1500000 steps
ETITLE: TS BOND ANGLE DIHED IMPRP ELECT VDW BOUNDARY MISC KINETIC TOTAL TEMP POTENTIAL TOTALAVG TEMPAVG PRESSURE GPRESSURE VOLUME PRESSAVG GPRESSAVG
ENERGY: 0 1.8311 7.6266 3.1959 0.0000 -11083.5765 1613.5141 0.0000 0.0000 1756.6011 -7700.8077 294.9981 -9457.4088 -7700.8077 294.9981 726.8571 815.9962 30577.4852 726.8571 815.9962
ENERGY: 300000 1.5706 8.5263 3.7834 0.0000 -10587.6458 1325.4877 0.0000 0.0000 1806.9317 -7441.3462 303.4505 -9248.2779 -7564.8394 299.2862 -720.9043 -652.6497 30962.6948 -287.9633 -200.9854
ENERGY: 600000 3.6087 4.8348 2.4849 0.0000 -10643.5088 1342.8616 0.0000 0.0000 1799.3210 -7490.3978 302.1724 -9289.7188 -7556.8140 300.0505 -863.8210 -722.6655 30751.9058 -173.2497 -90.1691
ENERGY: 900000 7.6818 5.7167 1.7358 0.0000 -10742.7737 1365.6725 0.0000 0.0000 1789.6398 -7572.3272 300.5465 -9361.9670 -7561.8283 301.3104 -938.8540 -892.8075 31006.7806 -251.3529 -174.1731
ENERGY: 1200000 4.6786 7.9169 4.2223 0.0000 -10977.9239 1530.7966 0.0000 0.0000 1749.8814 -7680.4280 293.8696 -9430.3095 -7582.9316 298.8672 349.3381 416.3470 30184.3690 -196.8258 -125.1088
ENERGY: 1500000 2.1366 4.5760 1.8805 0.0000 -10702.9884 1350.2885 0.0000 0.0000 1794.7840 -7549.3228 301.4104 -9344.1068 -7578.0337 299.5467 -701.1718 -712.2631 30898.7030 -183.6077 -116.2854
TCL: Running FEP window   2: Lambda1 0.05   Lambda2 0.1    [dLambda 0.05  ]
TCL: Setting parameter firsttimestep to 0
TCL: Setting parameter alchLambda to 0.05
Info: NONBONDED TABLE R-SQUARED SPACING: 0.0625
Info: NONBONDED TABLE SIZE: 705 POINTS
TCL: Setting parameter alchLambda2 to 0.1
Info: NONBONDED TABLE R-SQUARED SPACING: 0.0625
Info: NONBONDED TABLE SIZE: 705 POINTS
TCL: Running for 1500000 steps
ETITLE: TS BOND ANGLE DIHED IMPRP ELECT VDW BOUNDARY MISC KINETIC TOTAL TEMP POTENTIAL TOTALAVG TEMPAVG PRESSURE GPRESSURE VOLUME PRESSAVG GPRESSAVG
ENERGY: 0 2.1367 4.5760 1.8805 0.0000 -10702.9899 1355.1734 0.0000 0.0000 1793.8909 -7545.3324 301.2605 -9339.2234 -7545.3324 301.2605 -788.9127 -705.6630 30898.7030 -788.9127 -705.6630
ENERGY: 300000 5.0750 6.1314 1.8420 0.0000 -10884.8376 1516.1130 0.0000 0.0000 1845.3755 -7510.3007 309.9066 -9355.6763 -7574.9153 304.8019 269.4219 336.7383 30649.2034 558.2962 641.8624
ENERGY: 600000 1.1813 8.0039 2.8236 0.0000 -10726.3107 1386.0755 0.0000 0.0000 1801.6595 -7526.5669 302.5651 -9328.2263 -7577.5165 301.8113 -491.2597 -454.1549 30641.8357 281.7074 349.6334
ENERGY: 900000 2.5355 9.3321 2.5154 0.0000 -10736.8258 1322.1697 0.0000 0.0000 1784.6278 -7615.6453 299.7048 -9400.2731 -7574.4045 302.6258 -1200.1616 -1158.5490 30529.2709 98.9450 155.8813
ENERGY: 1200000 1.4435 6.6232 3.4504 0.0000 -10699.7568 1424.0366 0.0000 0.0000 1782.6130 -7481.5901 299.3665 -9264.2031 -7571.9493 301.9997 -51.2057 16.2408 30648.5965 89.1983 145.2987
ENERGY: 1500000 3.9187 7.7959 1.7795 0.0000 -10938.2262 1533.6049 0.0000 0.0000 1743.3703 -7647.7568 292.7762 -9391.1272 -7585.6752 301.0235 648.9827 731.0325 30030.0719 91.6727 147.7005
TCL: Running FEP window   3: Lambda1 0.1    Lambda2 0.15000000000000002 [dLambda 0.05000000000000002]
TCL: Setting parameter firsttimestep to 0
TCL: Setting parameter alchLambda to 0.1
Info: NONBONDED TABLE R-SQUARED SPACING: 0.0625
Info: NONBONDED TABLE SIZE: 705 POINTS
TCL: Setting parameter alchLambda2 to 0.15000000000000002
Info: NONBONDED TABLE R-SQUARED SPACING: 0.0625
Info: NONBONDED TABLE SIZE: 705 POINTS
TCL: Running for 1500000 steps
ETITLE: TS BOND ANGLE DIHED IMPRP ELECT VDW BOUNDARY MISC KINETIC TOTAL TEMP POTENTIAL TOTALAVG TEMPAVG PRESSURE GPRESSURE VOLUME PRESSAVG GPRESSAVG
ENERGY: 0 3.9187 7.7959 1.7795 0.0000 -10938.2263 1534.7413 0.0000 0.0000 1742.4975 -7647.4935 292.6296 -9389.9910 -7647.4935 292.6296 669.5484 740.8529 30030.0719 669.5484 740.8529
ENERGY: 300000 2.2406 6.4793 1.4447 0.0000 -10819.4138 1468.6825 0.0000 0.0000 1756.9013 -7583.6655 295.0485 -9340.5667 -7618.0238 296.3037 72.4736 109.7378 30675.7493 157.7872 181.2637
ENERGY: 600000 2.3641 4.9962 2.1854 0.0000 -11044.9601 1547.0930 0.0000 0.0000 1774.9205 -7713.4008 298.0746 -9488.3213 -7603.1570 300.0811 329.0672 412.2612 30238.3359 6.1196 54.8882
ENERGY: 900000 4.3979 4.6960 2.5845 0.0000 -11031.1530 1574.0724 0.0000 0.0000 1850.4310 -7594.9712 310.7556 -9445.4022 -7600.1722 301.1217 613.4831 706.6395 30445.3927 159.9741 214.6782
ENERGY: 1200000 1.6795 7.2565 5.0891 0.0000 -11001.6119 1565.6954 0.0000 0.0000 1725.2115 -7696.6800 289.7267 -9421.8915 -7600.6078 300.2506 642.7290 747.7748 30381.2734 175.0072 226.8726
ENERGY: 1500000 1.7393 7.1406 2.4055 0.0000 -10855.0312 1478.6807 0.0000 0.0000 1781.0237 -7584.0414 299.0996 -9365.0651 -7603.2665 300.1049 -83.9022 36.9116 30584.3644 68.1939 128.9472
TCL: Running FEP window   4: Lambda1 0.15000000000000002 Lambda2 0.2    [dLambda 0.04999999999999999]
TCL: Setting parameter firsttimestep to 0
TCL: Setting parameter alchLambda to 0.15000000000000002
Info: NONBONDED TABLE R-SQUARED SPACING: 0.0625
Info: NONBONDED TABLE SIZE: 705 POINTS
TCL: Setting parameter alchLambda2 to 0.2
Info: NONBONDED TABLE R-SQUARED SPACING: 0.0625
Info: NONBONDED TABLE SIZE: 705 POINTS
TCL: Running for 1500000 steps
ETITLE: TS BOND ANGLE DIHED IMPRP ELECT VDW BOUNDARY MISC KINETIC TOTAL TEMP POTENTIAL TOTALAVG TEMPAVG PRESSURE GPRESSURE VOLUME PRESSAVG GPRESSAVG
ENERGY: 0 1.7393 7.1406 2.4055 0.0000 -10855.0312 1479.8193 0.0000 0.0000 1780.1335 -7583.7929 298.9501 -9363.9265 -7583.7929 298.9501 -40.2073 45.4385 30584.3644 -40.2073 45.4385
ENERGY: 300000 1.4105 5.3560 3.0638 0.0000 -10755.3126 1461.5204 0.0000 0.0000 1751.2854 -7532.6765 294.1054 -9283.9619 -7576.1821 299.2316 291.1319 339.3596 30565.9076 349.9137 409.4533
ENERGY: 600000 2.9101 9.7458 4.4897 0.0000 -10779.7584 1458.4542 0.0000 0.0000 1771.6621 -7532.4964 297.5274 -9304.1585 -7555.2465 300.3025 155.5705 235.5092 30233.2435 383.8266 448.3616
ENERGY: 900000 3.0330 10.6381 1.4227 0.0000 -10780.4925 1416.5717 0.0000 0.0000 1810.6268 -7538.2002 304.0710 -9348.8270 -7555.6139 301.0328 -498.6850 -423.5415 31104.9406 221.7275 292.1387
ENERGY: 1200000 3.1667 9.4778 2.4659 0.0000 -10841.3545 1479.5360 0.0000 0.0000 1796.2850 -7550.4230 301.6625 -9346.7080 -7563.0161 301.0061 80.4990 219.8357 30895.8216 181.6897 257.5476
ENERGY: 1500000 2.2340 7.0953 0.7709 0.0000 -10826.7321 1423.5010 0.0000 0.0000 1740.3623 -7652.7686 292.2710 -9393.1309 -7568.2023 300.7580 -332.2934 -341.6015 30829.7144 71.6156 141.8222
TCL: Running FEP window   5: Lambda1 0.2    Lambda2 0.25   [dLambda 0.04999999999999999]
TCL: Setting parameter firsttimestep to 0
TCL: Setting parameter alchLambda to 0.2
Info: NONBONDED TABLE R-SQUARED SPACING: 0.0625
Info: NONBONDED TABLE SIZE: 705 POINTS
TCL: Setting parameter alchLambda2 to 0.25
Info: NONBONDED TABLE R-SQUARED SPACING: 0.0625
Info: NONBONDED TABLE SIZE: 705 POINTS
TCL: Running for 1500000 steps
ETITLE: TS BOND ANGLE DIHED IMPRP ELECT VDW BOUNDARY MISC KINETIC TOTAL TEMP POTENTIAL TOTALAVG TEMPAVG PRESSURE GPRESSURE VOLUME PRESSAVG GPRESSAVG
ENERGY: 0 2.2340 7.0953 0.7709 0.0000 -10826.7315 1423.2705 0.0000 0.0000 1739.4861 -7653.8747 292.1239 -9393.3608 -7653.8747 292.1239 -425.5484 -338.5721 30829.7144 -425.5484 -338.5721
ENERGY: 300000 1.9809 6.6769 1.5965 0.0000 -10856.0670 1530.9052 0.0000 0.0000 1766.4033 -7548.5041 296.6443 -9314.9075 -7623.1618 295.1275 764.0576 801.4747 30623.7089 -46.4105 17.9327
ENERGY: 600000 1.7452 6.3767 4.9053 0.0000 -10689.6863 1367.2042 0.0000 0.0000 1760.9969 -7548.4581 295.7363 -9309.4550 -7596.5200 295.9777 -390.3399 -340.3664 30367.8148 -152.9527 -96.8422
ENERGY: 900000 5.7506 3.8484 1.1247 0.0000 -10835.6812 1464.7239 0.0000 0.0000 1758.3290 -7601.9047 295.2883 -9360.2337 -7576.6633 297.6479 36.2388 57.3070 30606.5332 23.5173 67.4586
ENERGY: 1200000 3.7172 6.1161 3.6810 0.0000 -10843.9485 1510.3816 0.0000 0.0000 1854.8880 -7465.1646 311.5041 -9320.0526 -7571.3770 298.6610 495.0583 583.9423 30429.6767 87.4100 138.3812
ENERGY: 1500000 2.1875 5.3016 2.9374 0.0000 -10758.4831 1409.5473 0.0000 0.0000 1795.9380 -7542.5713 301.6042 -9338.5094 -7569.6162 299.4399 -129.9436 -45.2515 30477.6563 59.9972 116.6711
TCL: Running FEP window   6: Lambda1 0.25   Lambda2 0.3    [dLambda 0.04999999999999999]
TCL: Setting parameter firsttimestep to 0
TCL: Setting parameter alchLambda to 0.25
Info: NONBONDED TABLE R-SQUARED SPACING: 0.0625
Info: NONBONDED TABLE SIZE: 705 POINTS
TCL: Setting parameter alchLambda2 to 0.3
Info: NONBONDED TABLE R-SQUARED SPACING: 0.0625
Info: NONBONDED TABLE SIZE: 705 POINTS
TCL: Running for 1500000 steps
ETITLE: TS BOND ANGLE DIHED IMPRP ELECT VDW BOUNDARY MISC KINETIC TOTAL TEMP POTENTIAL TOTALAVG TEMPAVG PRESSURE GPRESSURE VOLUME PRESSAVG GPRESSAVG
ENERGY: 0 2.1875 5.3016 2.9374 0.0000 -10758.4833 1409.2807 0.0000 0.0000 1795.0512 -7543.7250 301.4553 -9338.7761 -7543.7250 301.4553 -120.3655 -41.5456 30477.6563 -120.3655 -41.5456
ENERGY: 300000 3.2487 9.7078 4.9191 0.0000 -10723.7864 1394.4752 0.0000 0.0000 1815.0405 -7496.3951 304.8123 -9311.4356 -7564.5616 300.1027 -594.9820 -508.3916 31294.4798 -161.7553 -100.2288
ENERGY: 600000 6.5793 9.4975 2.6494 0.0000 -10968.8183 1528.4156 0.0000 0.0000 1763.0234 -7658.6531 296.0767 -9421.6765 -7606.1844 299.3245 540.2178 503.4914 29980.0456 107.8496 169.1614
ENERGY: 900000 1.9231 4.9113 2.4163 0.0000 -10831.4385 1442.9921 0.0000 0.0000 1811.0799 -7568.1158 304.1471 -9379.1957 -7601.4281 299.4203 -231.1343 -146.2166 31098.6910 67.6210 120.3002
ENERGY: 1200000 5.1925 7.2886 5.8048 0.0000 -10896.5468 1500.4011 0.0000 0.0000 1776.9618 -7600.8980 298.4174 -9377.8598 -7590.3348 299.9095 336.4502 317.8425 30678.8469 128.5850 182.2023
ENERGY: 1500000 1.9937 5.2062 4.3756 0.0000 -10799.5738 1448.6923 0.0000 0.0000 1800.1064 -7539.1997 302.3043 -9339.3060 -7587.1081 299.7572 333.6571 362.0183 30301.5619 69.6873 120.2614
TCL: Running FEP window   7: Lambda1 0.3    Lambda2 0.35   [dLambda 0.04999999999999999]
TCL: Setting parameter firsttimestep to 0
TCL: Setting parameter alchLambda to 0.3
Info: NONBONDED TABLE R-SQUARED SPACING: 0.0625
Info: NONBONDED TABLE SIZE: 705 POINTS
TCL: Setting parameter alchLambda2 to 0.35
Info: NONBONDED TABLE R-SQUARED SPACING: 0.0625
Info: NONBONDED TABLE SIZE: 705 POINTS
TCL: Running for 1500000 steps
ETITLE: TS BOND ANGLE DIHED IMPRP ELECT VDW BOUNDARY MISC KINETIC TOTAL TEMP POTENTIAL TOTALAVG TEMPAVG PRESSURE GPRESSURE VOLUME PRESSAVG GPRESSAVG
ENERGY: 0 1.9937 5.2062 4.3756 0.0000 -10799.5735 1449.2274 0.0000 0.0000 1799.2572 -7539.5135 302.1617 -9338.7707 -7539.5135 302.1617 288.3602 368.6480 30301.5619 288.3602 368.6480
ENERGY: 300000 2.6896 12.3422 3.3537 0.0000 -11004.1299 1504.8129 0.0000 0.0000 1817.1329 -7663.7984 305.1637 -9480.9314 -7613.0684 299.3444 308.6531 367.9852 30013.2277 -66.0927 -18.7479
ENERGY: 600000 4.2841 4.3739 2.0764 0.0000 -10850.7890 1467.3599 0.0000 0.0000 1809.5553 -7563.1394 303.8911 -9372.6947 -7597.2742 299.4109 -407.9240 -311.2520 31387.8222 -145.4518 -92.1568
ENERGY: 900000 3.0284 8.7242 3.6736 0.0000 -10719.8636 1365.0133 0.0000 0.0000 1751.1430 -7588.2811 294.0815 -9339.4240 -7606.7608 299.1067 -993.5086 -903.4191 30997.2179 -151.1322 -91.5919
ENERGY: 1200000 3.6572 5.4506 4.1601 0.0000 -10897.4628 1526.2958 0.0000 0.0000 1797.6468 -7560.2523 301.8912 -9357.8990 -7593.6983 299.3797 578.4704 655.8613 30569.6953 -38.5629 28.2328
ENERGY: 1500000 2.3628 8.1140 3.0251 0.0000 -10862.4270 1473.6570 0.0000 0.0000 1798.1535 -7577.1146 301.9763 -9375.2681 -7591.7630 300.0914 223.4929 285.9057 30490.8919 8.8116 71.1839
TCL: Running FEP window   8: Lambda1 0.35   Lambda2 0.39999999999999997 [dLambda 0.04999999999999999]
TCL: Setting parameter firsttimestep to 0
TCL: Setting parameter alchLambda to 0.35
Info: NONBONDED TABLE R-SQUARED SPACING: 0.0625
Info: NONBONDED TABLE SIZE: 705 POINTS
TCL: Setting parameter alchLambda2 to 0.39999999999999997
Info: NONBONDED TABLE R-SQUARED SPACING: 0.0625
Info: NONBONDED TABLE SIZE: 705 POINTS
TCL: Running for 1500000 steps
ETITLE: TS BOND ANGLE DIHED IMPRP ELECT VDW BOUNDARY MISC KINETIC TOTAL TEMP POTENTIAL TOTALAVG TEMPAVG PRESSURE GPRESSURE VOLUME PRESSAVG GPRESSAVG
ENERGY: 0 2.3628 8.1140 3.0251 0.0000 -10862.4266 1473.7085 0.0000 0.0000 1797.2571 -7577.9591 301.8258 -9375.2162 -7577.9591 301.8258 201.8351 289.7020 30490.8919 201.8351 289.7020
ENERGY: 300000 4.1841 5.1431 4.6078 0.0000 -10927.9551 1477.5965 0.0000 0.0000 1846.7261 -7589.6975 310.1334 -9436.4237 -7561.7967 304.9730 -168.6241 -124.8805 30824.6352 -286.0064 -221.7096
ENERGY: 600000 3.6180 6.8745 1.5396 0.0000 -10606.6367 1343.7553 0.0000 0.0000 1791.2226 -7459.6267 300.8124 -9250.8493 -7549.7781 303.1970 -885.6886 -795.6716 31625.1530 -492.7506 -416.4796
ENERGY: 900000 1.7303 5.2574 4.9378 0.0000 -10766.3279 1426.8132 0.0000 0.0000 1792.5884 -7535.0008 301.0417 -9327.5892 -7556.8223 302.7708 -105.9329 -65.0860 30688.8979 -435.0983 -367.6305
ENERGY: 1200000 4.8311 7.9408 4.7430 0.0000 -10795.0656 1380.5792 0.0000 0.0000 1805.2957 -7591.6759 303.1757 -9396.9715 -7577.3032 302.0609 -789.4946 -734.3499 30708.5478 -396.6216 -333.5474
ENERGY: 1500000 4.9790 7.5575 3.0228 0.0000 -10755.9678 1387.9220 0.0000 0.0000 1768.9697 -7583.5167 297.0753 -9352.4864 -7582.4342 301.5080 -748.3477 -656.4313 30821.8748 -425.5230 -355.4621
TCL: Running FEP window   9: Lambda1 0.39999999999999997 Lambda2 0.44999999999999996 [dLambda 0.04999999999999999]
TCL: Setting parameter firsttimestep to 0
TCL: Setting parameter alchLambda to 0.39999999999999997
Info: NONBONDED TABLE R-SQUARED SPACING: 0.0625
Info: NONBONDED TABLE SIZE: 705 POINTS
TCL: Setting parameter alchLambda2 to 0.44999999999999996
Info: NONBONDED TABLE R-SQUARED SPACING: 0.0625
Info: NONBONDED TABLE SIZE: 705 POINTS
TCL: Running for 1500000 steps
ETITLE: TS BOND ANGLE DIHED IMPRP ELECT VDW BOUNDARY MISC KINETIC TOTAL TEMP POTENTIAL TOTALAVG TEMPAVG PRESSURE GPRESSURE VOLUME PRESSAVG GPRESSAVG
ENERGY: 0 4.9790 7.5575 3.0228 0.0000 -10755.9681 1388.7233 0.0000 0.0000 1768.0720 -7583.6134 296.9245 -9351.6855 -7583.6134 296.9245 -728.0223 -645.4952 30821.8748 -728.0223 -645.4952
ENERGY: 300000 2.7478 7.7675 7.4590 0.0000 -11017.2417 1601.6137 0.0000 0.0000 1779.9501 -7617.7035 298.9193 -9397.6536 -7553.1664 300.1571 885.2536 973.9922 30674.2937 -88.3796 -18.8566
ENERGY: 600000 0.7972 7.2713 2.3456 0.0000 -10825.3011 1474.4586 0.0000 0.0000 1786.9738 -7553.4546 300.0988 -9340.4284 -7558.4789 299.6148 69.0836 89.6022 31101.1009 -32.0357 21.0360
ENERGY: 900000 2.3504 6.3185 2.8585 0.0000 -10822.6172 1477.7799 0.0000 0.0000 1785.0483 -7548.2616 299.7755 -9333.3099 -7561.4552 300.1594 353.3011 360.1439 30393.1412 -3.1969 48.4565
ENERGY: 1200000 6.1169 9.1887 1.1083 0.0000 -10786.8354 1441.8018 0.0000 0.0000 1799.2299 -7529.3898 302.1571 -9328.6196 -7554.8315 301.4641 -437.1597 -410.6368 31089.8734 -116.4888 -70.8185
ENERGY: 1500000 3.8781 5.3950 1.6429 0.0000 -10980.3856 1471.3595 0.0000 0.0000 1806.4353 -7691.6749 303.3671 -9498.1102 -7565.0937 302.5224 -282.6540 -215.4583 30851.1390 -77.1928 -31.1546
TCL: Running FEP window  10: Lambda1 0.44999999999999996 Lambda2 0.49999999999999994 [dLambda 0.04999999999999999]
TCL: Setting parameter firsttimestep to 0
TCL: Setting parameter alchLambda to 0.44999999999999996
Info: NONBONDED TABLE R-SQUARED SPACING: 0.0625
Info: NONBONDED TABLE SIZE: 705 POINTS
TCL: Setting parameter alchLambda2 to 0.49999999999999994
Info: NONBONDED TABLE R-SQUARED SPACING: 0.0625
Info: NONBONDED TABLE SIZE: 705 POINTS
TCL: Running for 1500000 steps
ETITLE: TS BOND ANGLE DIHED IMPRP ELECT VDW BOUNDARY MISC KINETIC TOTAL TEMP POTENTIAL TOTALAVG TEMPAVG PRESSURE GPRESSURE VOLUME PRESSAVG GPRESSAVG
ENERGY: 0 3.8781 5.3950 1.6429 0.0000 -10980.3874 1471.2568 0.0000 0.0000 1805.5517 -7692.6629 303.2187 -9498.2146 -7692.6629 303.2187 -297.1260 -213.5750 30851.1390 -297.1260 -213.5750
ENERGY: 300000 3.0211 11.7689 1.0994 0.0000 -10693.6457 1393.9232 0.0000 0.0000 1822.0128 -7461.8203 305.9832 -9283.8331 -7582.1506 299.8662 -473.2655 -434.0078 30995.2643 -479.9768 -449.4319
ENERGY: 600000 1.9957 13.9080 5.1522 0.0000 -10869.3387 1530.3423 0.0000 0.0000 1756.4531 -7561.4875 294.9733 -9317.9406 -7562.6278 298.9700 419.7931 531.4371 31039.7247 -298.2422 -234.2309
ENERGY: 900000 3.0879 4.8106 6.5233 0.0000 -10800.0596 1449.8776 0.0000 0.0000 1678.6228 -7657.1375 281.9027 -9335.7603 -7567.8380 298.1774 -274.2318 -189.3735 31004.1633 -286.6042 -213.5022
ENERGY: 1200000 5.2620 5.7801 2.5808 0.0000 -10854.7220 1449.5322 0.0000 0.0000 1802.6563 -7588.9106 302.7325 -9391.5669 -7575.6268 299.1588 -345.7420 -292.0807 30691.2610 -237.7018 -166.0215
ENERGY: 1500000 1.8480 10.0373 4.4989 0.0000 -10954.6648 1472.4268 0.0000 0.0000 1809.6197 -7656.2342 303.9019 -9465.8539 -7576.7213 299.9096 2.5042 23.3528 30385.1840 -150.0418 -88.3172
TCL: Running FEP window  11: Lambda1 0.49999999999999994 Lambda2 0.5499999999999999 [dLambda 0.04999999999999999]
TCL: Setting parameter firsttimestep to 0
TCL: Setting parameter alchLambda to 0.49999999999999994
Info: NONBONDED TABLE R-SQUARED SPACING: 0.0625
Info: NONBONDED TABLE SIZE: 705 POINTS
TCL: Setting parameter alchLambda2 to 0.5499999999999999
Info: NONBONDED TABLE R-SQUARED SPACING: 0.0625
Info: NONBONDED TABLE SIZE: 705 POINTS
TCL: Running for 1500000 steps
ETITLE: TS BOND ANGLE DIHED IMPRP ELECT VDW BOUNDARY MISC KINETIC TOTAL TEMP POTENTIAL TOTALAVG TEMPAVG PRESSURE GPRESSURE VOLUME PRESSAVG GPRESSAVG
ENERGY: 0 1.8480 10.0373 4.4989 0.0000 -10954.6649 1472.6850 0.0000 0.0000 1808.7310 -7656.8647 303.7527 -9465.5957 -7656.8647 303.7527 -54.8174 32.8741 30385.1840 -54.8174 32.8741
ENERGY: 300000 0.9660 10.3427 5.0855 0.0000 -10788.9979 1394.7023 0.0000 0.0000 1819.0946 -7558.8068 305.4931 -9377.9014 -7583.6921 303.5036 -334.5699 -274.7130 30832.8761 -188.9674 -132.8479
ENERGY: 600000 2.2942 4.3144 2.4418 0.0000 -10820.4360 1453.8276 0.0000 0.0000 1713.3851 -7644.1729 287.7406 -9357.5580 -7573.1235 302.1831 48.5247 31.2223 30596.5699 -82.1249 -46.8087
ENERGY: 900000 5.7489 6.0372 4.3001 0.0000 -10928.0449 1490.5527 0.0000 0.0000 1780.9025 -7640.5036 299.0792 -9421.4062 -7571.6775 301.9379 30.8875 115.9268 30567.0100 -43.6911 0.1634
ENERGY: 1200000 4.9099 3.8640 3.5736 0.0000 -10815.4064 1423.7640 0.0000 0.0000 1834.1464 -7545.1485 308.0208 -9379.2949 -7567.3439 302.3905 -498.3501 -430.6571 30972.0803 -55.0004 -7.9371
ENERGY: 1500000 5.4424 3.1261 1.4902 0.0000 -10937.4913 1536.1470 0.0000 0.0000 1784.9949 -7606.2906 299.7665 -9391.2856 -7570.5671 302.3707 397.0675 421.7108 30801.4362 21.9394 69.2906
TCL: Running FEP window  12: Lambda1 0.5499999999999999 Lambda2 0.6    [dLambda 0.050000000000000044]
TCL: Setting parameter firsttimestep to 0
TCL: Setting parameter alchLambda to 0.5499999999999999
Info: NONBONDED TABLE R-SQUARED SPACING: 0.0625
Info: NONBONDED TABLE SIZE: 705 POINTS
TCL: Setting parameter alchLambda2 to 0.6
Info: NONBONDED TABLE R-SQUARED SPACING: 0.0625
Info: NONBONDED TABLE SIZE: 705 POINTS
TCL: Running for 1500000 steps
ETITLE: TS BOND ANGLE DIHED IMPRP ELECT VDW BOUNDARY MISC KINETIC TOTAL TEMP POTENTIAL TOTALAVG TEMPAVG PRESSURE GPRESSURE VOLUME PRESSAVG GPRESSAVG
ENERGY: 0 5.4424 3.1261 1.4902 0.0000 -10937.7657 1535.9540 0.0000 0.0000 1784.0817 -7607.6714 299.6131 -9391.7530 -7607.6714 299.6131 349.5732 430.1102 30801.4362 349.5732 430.1102
ENERGY: 300000 3.6152 7.2219 2.4518 0.0000 -10851.6941 1470.6726 0.0000 0.0000 1833.2773 -7534.4553 307.8749 -9367.7325 -7579.7644 301.1922 352.9651 402.5649 30577.0311 291.7502 361.5920
ENERGY: 600000 1.7047 4.8128 4.0678 0.0000 -10722.5143 1428.2895 0.0000 0.0000 1783.4197 -7500.2199 299.5020 -9283.6396 -7570.0657 301.0179 24.2669 45.9469 30974.4063 348.6671 423.1035
ENERGY: 900000 4.3891 4.7592 1.1729 0.0000 -10848.7956 1461.1731 0.0000 0.0000 1795.0809 -7582.2205 301.4603 -9377.3014 -7559.8582 303.7232 26.0038 91.5573 30614.4165 317.4753 385.7297
ENERGY: 1200000 4.9739 8.4983 1.1176 0.0000 -10827.9527 1402.5096 0.0000 0.0000 1828.1852 -7582.6681 307.0197 -9410.8533 -7565.1042 302.4634 -615.4438 -525.0557 30819.4405 216.8896 291.6448
ENERGY: 1500000 5.3541 7.7544 6.6118 0.0000 -10962.6762 1515.9198 0.0000 0.0000 1794.1902 -7632.8458 301.3107 -9427.0361 -7568.9927 302.1149 367.8535 417.3988 30237.1207 147.5863 221.7267
TCL: Running FEP window  13: Lambda1 0.6    Lambda2 0.65   [dLambda 0.050000000000000044]
TCL: Setting parameter firsttimestep to 0
TCL: Setting parameter alchLambda to 0.6
Info: NONBONDED TABLE R-SQUARED SPACING: 0.0625
Info: NONBONDED TABLE SIZE: 705 POINTS
TCL: Setting parameter alchLambda2 to 0.65
Info: NONBONDED TABLE R-SQUARED SPACING: 0.0625
Info: NONBONDED TABLE SIZE: 705 POINTS
TCL: Running for 1500000 steps
ETITLE: TS BOND ANGLE DIHED IMPRP ELECT VDW BOUNDARY MISC KINETIC TOTAL TEMP POTENTIAL TOTALAVG TEMPAVG PRESSURE GPRESSURE VOLUME PRESSAVG GPRESSAVG
ENERGY: 0 5.3541 7.7544 6.6118 0.0000 -10962.9670 1515.3105 0.0000 0.0000 1793.3082 -7634.6281 301.1626 -9427.9363 -7634.6281 301.1626 334.2328 420.2581 30237.1207 334.2328 420.2581
ENERGY: 300000 3.5114 5.0422 2.7975 0.0000 -10720.6180 1402.3379 0.0000 0.0000 1795.1554 -7511.7736 301.4728 -9306.9289 -7543.4078 300.3555 -85.0004 -1.3016 30575.1676 84.8933 153.2269
ENERGY: 600000 1.8237 8.5819 3.5818 0.0000 -10879.1620 1462.8449 0.0000 0.0000 1797.4191 -7604.9106 301.8530 -9402.3297 -7565.8174 300.8748 242.9237 309.5942 30219.8242 -43.0204 22.8090
ENERGY: 900000 1.9375 7.7631 1.7289 0.0000 -10987.7587 1554.7325 0.0000 0.0000 1825.0649 -7596.5318 306.4957 -9421.5966 -7569.3838 301.9559 731.3664 818.8609 30541.3680 26.6440 93.4181
ENERGY: 1200000 4.4664 8.6875 3.0542 0.0000 -10788.8501 1431.3292 0.0000 0.0000 1813.5415 -7527.7713 304.5605 -9341.3128 -7570.0848 301.9716 164.6501 197.8397 30652.2941 3.4411 69.1938
ENERGY: 1500000 3.2413 5.2291 1.6661 0.0000 -10810.4756 1417.6898 0.0000 0.0000 1794.1677 -7588.4817 301.3069 -9382.6494 -7576.0648 302.4258 -460.7559 -368.7284 30917.5099 -87.6065 -17.5595
TCL: Running FEP window  14: Lambda1 0.65   Lambda2 0.7000000000000001 [dLambda 0.050000000000000044]
TCL: Setting parameter firsttimestep to 0
TCL: Setting parameter alchLambda to 0.65
Info: NONBONDED TABLE R-SQUARED SPACING: 0.0625
Info: NONBONDED TABLE SIZE: 705 POINTS
TCL: Setting parameter alchLambda2 to 0.7000000000000001
Info: NONBONDED TABLE R-SQUARED SPACING: 0.0625
Info: NONBONDED TABLE SIZE: 705 POINTS
TCL: Running for 1500000 steps
ETITLE: TS BOND ANGLE DIHED IMPRP ELECT VDW BOUNDARY MISC KINETIC TOTAL TEMP POTENTIAL TOTALAVG TEMPAVG PRESSURE GPRESSURE VOLUME PRESSAVG GPRESSAVG
ENERGY: 0 3.2413 5.2291 1.6661 0.0000 -10810.7403 1417.1084 0.0000 0.0000 1793.3270 -7590.1684 301.1658 -9383.4954 -7590.1684 301.1658 -449.0382 -365.9650 30917.5099 -449.0382 -365.9650
ENERGY: 300000 1.9795 4.6130 3.1369 0.0000 -11019.7528 1608.5454 0.0000 0.0000 1835.0543 -7566.4237 308.1733 -9401.4781 -7599.3725 302.4289 1330.6845 1337.2972 30255.0704 57.0861 94.6775
ENERGY: 600000 2.1592 11.7566 2.8038 0.0000 -10820.8688 1461.9034 0.0000 0.0000 1876.5534 -7465.6925 315.1425 -9342.2459 -7589.6190 303.7170 243.8726 304.0839 30671.2020 126.3899 185.8541
ENERGY: 900000 1.1006 4.1320 4.1020 0.0000 -10925.3905 1558.6913 0.0000 0.0000 1835.5309 -7521.8337 308.2533 -9357.3646 -7574.5529 304.9168 920.2158 954.4930 30673.4944 205.6892 272.8466
ENERGY: 1200000 3.5311 7.2053 1.9861 0.0000 -10798.6409 1382.5456 0.0000 0.0000 1761.2380 -7642.1349 295.7768 -9403.3728 -7578.0799 304.2886 -482.6509 -471.3161 30569.8460 86.7555 149.4933
ENERGY: 1500000 3.1521 9.3970 5.7614 0.0000 -10748.0295 1423.5032 0.0000 0.0000 1812.7148 -7493.5010 304.4217 -9306.2157 -7571.5214 303.3623 -30.3544 39.3096 30741.7941 50.3881 112.6520
TCL: Running FEP window  15: Lambda1 0.7000000000000001 Lambda2 0.7500000000000001 [dLambda 0.050000000000000044]
TCL: Setting parameter firsttimestep to 0
TCL: Setting parameter alchLambda to 0.7000000000000001
Info: NONBONDED TABLE R-SQUARED SPACING: 0.0625
Info: NONBONDED TABLE SIZE: 705 POINTS
TCL: Setting parameter alchLambda2 to 0.7500000000000001
Info: NONBONDED TABLE R-SQUARED SPACING: 0.0625
Info: NONBONDED TABLE SIZE: 705 POINTS
TCL: Running for 1500000 steps
ETITLE: TS BOND ANGLE DIHED IMPRP ELECT VDW BOUNDARY MISC KINETIC TOTAL TEMP POTENTIAL TOTALAVG TEMPAVG PRESSURE GPRESSURE VOLUME PRESSAVG GPRESSAVG
ENERGY: 0 3.1521 9.3970 5.7614 0.0000 -10749.2284 1423.9504 0.0000 0.0000 1811.7821 -7495.1853 304.2651 -9306.9674 -7495.1853 304.2651 -36.9897 50.3458 30741.7941 -36.9897 50.3458
ENERGY: 300000 2.5216 5.5311 5.5657 0.0000 -10812.7256 1408.4933 0.0000 0.0000 1787.0795 -7603.5344 300.1166 -9390.6139 -7554.2058 303.9762 -543.0078 -468.5968 30898.2612 -129.0339 -48.5583
ENERGY: 600000 1.0751 9.5763 2.3316 0.0000 -10671.7279 1449.1976 0.0000 0.0000 1843.6313 -7365.9159 309.6137 -9209.5472 -7515.3694 304.3218 465.7783 479.9242 30956.1226 -127.8880 -73.4868
ENERGY: 900000 4.3813 3.7593 2.3361 0.0000 -10803.9232 1394.9429 0.0000 0.0000 1763.6539 -7634.8497 296.1825 -9398.5035 -7550.2580 302.0599 -541.4683 -446.1052 30786.8977 -270.5178 -219.7581
ENERGY: 1200000 3.5112 7.2397 5.7502 0.0000 -10907.3696 1471.1480 0.0000 0.0000 1750.2140 -7669.5065 293.9255 -9419.7205 -7567.8439 300.0759 -188.9292 -164.9650 31104.6662 -211.1605 -165.0493
ENERGY: 1500000 4.3233 7.8800 5.2206 0.0000 -10837.7818 1448.6529 0.0000 0.0000 1796.2516 -7575.4534 301.6569 -9371.7051 -7570.2921 299.6413 -78.6208 -23.1771 30628.4409 -189.7829 -136.6559
TCL: Running FEP window  16: Lambda1 0.7500000000000001 Lambda2 0.8000000000000002 [dLambda 0.050000000000000044]
TCL: Setting parameter firsttimestep to 0
TCL: Setting parameter alchLambda to 0.7500000000000001
Info: NONBONDED TABLE R-SQUARED SPACING: 0.0625
Info: NONBONDED TABLE SIZE: 705 POINTS
TCL: Setting parameter alchLambda2 to 0.8000000000000002
Info: NONBONDED TABLE R-SQUARED SPACING: 0.0625
Info: NONBONDED TABLE SIZE: 705 POINTS
TCL: Running for 1500000 steps
ETITLE: TS BOND ANGLE DIHED IMPRP ELECT VDW BOUNDARY MISC KINETIC TOTAL TEMP POTENTIAL TOTALAVG TEMPAVG PRESSURE GPRESSURE VOLUME PRESSAVG GPRESSAVG
ENERGY: 0 4.3233 7.8800 5.2206 0.0000 -10839.1536 1449.3625 0.0000 0.0000 1795.3862 -7576.9810 301.5116 -9372.3673 -7576.9810 301.5116 -93.5913 -11.8504 30628.4409 -93.5913 -11.8504
ENERGY: 300000 2.6031 5.9534 3.1555 0.0000 -10824.3600 1434.7198 0.0000 0.0000 1801.3164 -7576.6118 302.5075 -9377.9282 -7570.1165 299.3424 -93.8561 -89.0133 30578.8704 -258.7825 -217.2030
ENERGY: 600000 2.3308 6.4957 2.5659 0.0000 -10805.3332 1439.5299 0.0000 0.0000 1816.1822 -7538.2287 305.0040 -9354.4109 -7596.7841 298.4943 -201.0770 -136.3645 31415.5570 -38.0329 16.3780
ENERGY: 900000 0.9507 4.6063 2.8086 0.0000 -11019.0243 1546.0704 0.0000 0.0000 1830.8515 -7633.7368 307.4675 -9464.5883 -7593.7854 299.4148 637.1008 742.0432 30284.6461 187.2032 241.0376
ENERGY: 1200000 4.6028 6.0141 3.0247 0.0000 -10927.4500 1539.6536 0.0000 0.0000 1823.2767 -7550.8782 306.1954 -9374.1549 -7596.3781 299.8380 701.8873 712.5170 30552.0187 146.1387 201.3312
ENERGY: 1500000 1.5724 6.6230 4.3800 0.0000 -10806.8550 1449.7286 0.0000 0.0000 1771.5712 -7572.9798 297.5122 -9344.5511 -7591.7224 299.9767 21.1783 82.3924 30993.2068 96.9070 151.2568
TCL: Running FEP window  17: Lambda1 0.8000000000000002 Lambda2 0.8500000000000002 [dLambda 0.050000000000000044]
TCL: Setting parameter firsttimestep to 0
TCL: Setting parameter alchLambda to 0.8000000000000002
Info: NONBONDED TABLE R-SQUARED SPACING: 0.0625
Info: NONBONDED TABLE SIZE: 705 POINTS
TCL: Setting parameter alchLambda2 to 0.8500000000000002
Info: NONBONDED TABLE R-SQUARED SPACING: 0.0625
Info: NONBONDED TABLE SIZE: 705 POINTS
TCL: Running for 1500000 steps
ETITLE: TS BOND ANGLE DIHED IMPRP ELECT VDW BOUNDARY MISC KINETIC TOTAL TEMP POTENTIAL TOTALAVG TEMPAVG PRESSURE GPRESSURE VOLUME PRESSAVG GPRESSAVG
ENERGY: 0 1.5724 6.6230 4.3800 0.0000 -10807.6440 1449.6155 0.0000 0.0000 1770.6936 -7574.7596 297.3648 -9345.4532 -7574.7596 297.3648 -3.6952 88.9617 30993.2068 -3.6952 88.9617
ENERGY: 300000 7.0509 7.6839 3.5474 0.0000 -10785.3660 1425.0874 0.0000 0.0000 1788.3814 -7553.6151 300.3352 -9341.9965 -7600.4787 299.3845 -295.9880 -300.2232 30977.9690 -15.3529 32.4609
ENERGY: 600000 3.1192 7.4523 2.1614 0.0000 -10802.6442 1410.0119 0.0000 0.0000 1772.9865 -7606.9129 297.7498 -9379.8994 -7603.0857 298.0252 -126.9834 -59.2266 30286.1161 7.6501 59.5799
ENERGY: 900000 4.6963 4.0843 3.9469 0.0000 -10811.0012 1465.8940 0.0000 0.0000 1740.0500 -7592.3298 292.2186 -9332.3798 -7594.9288 298.6174 88.8578 119.1161 30870.8560 -16.3747 37.2212
ENERGY: 1200000 0.9606 5.3805 2.6618 0.0000 -10840.2109 1472.7704 0.0000 0.0000 1803.5730 -7554.8647 302.8864 -9358.4377 -7591.9812 299.4142 137.5905 185.3353 30989.4487 -10.3502 45.1452
ENERGY: 1500000 2.9667 4.4192 7.2850 0.0000 -10857.4782 1452.2021 0.0000 0.0000 1789.1506 -7601.4546 300.4644 -9390.6052 -7595.4055 298.5279 -82.6729 -39.9376 30837.6872 -57.9008 -5.6290
TCL: Running FEP window  18: Lambda1 0.8500000000000002 Lambda2 0.9000000000000002 [dLambda 0.050000000000000044]
TCL: Setting parameter firsttimestep to 0
TCL: Setting parameter alchLambda to 0.8500000000000002
Info: NONBONDED TABLE R-SQUARED SPACING: 0.0625
Info: NONBONDED TABLE SIZE: 705 POINTS
TCL: Setting parameter alchLambda2 to 0.9000000000000002
Info: NONBONDED TABLE R-SQUARED SPACING: 0.0625
Info: NONBONDED TABLE SIZE: 705 POINTS
TCL: Running for 1500000 steps
ETITLE: TS BOND ANGLE DIHED IMPRP ELECT VDW BOUNDARY MISC KINETIC TOTAL TEMP POTENTIAL TOTALAVG TEMPAVG PRESSURE GPRESSURE VOLUME PRESSAVG GPRESSAVG
ENERGY: 0 2.9667 4.4192 7.2850 0.0000 -10859.5486 1453.9077 0.0000 0.0000 1788.2588 -7602.7111 300.3146 -9390.9700 -7602.7111 300.3146 -88.9725 -14.2761 30837.6872 -88.9725 -14.2761
ENERGY: 300000 2.5213 5.4773 1.8178 0.0000 -10857.6802 1449.4908 0.0000 0.0000 1774.7338 -7623.6392 298.0433 -9398.3730 -7575.1458 302.8127 -224.8680 -167.2656 30858.2873 -414.5727 -357.4167
ENERGY: 600000 2.6479 7.3126 1.9610 0.0000 -10817.9090 1437.9112 0.0000 0.0000 1853.0556 -7515.0207 311.1964 -9368.0763 -7576.1216 303.2013 -457.2833 -377.6729 31235.4947 -452.0345 -387.3126
ENERGY: 900000 3.1645 10.5948 2.2778 0.0000 -10882.4693 1444.5200 0.0000 0.0000 1822.6029 -7599.3092 306.0823 -9421.9121 -7590.0831 302.5263 113.2621 151.0979 30317.7930 -270.2311 -208.4191
ENERGY: 1200000 2.7790 9.2327 1.7299 0.0000 -10821.7707 1383.2277 0.0000 0.0000 1819.0888 -7605.7125 305.4921 -9424.8013 -7587.4568 302.4933 -724.3499 -664.4248 30851.3484 -196.9150 -134.5223
ENERGY: 1500000 3.0482 6.6653 5.4914 0.0000 -10849.4519 1481.8017 0.0000 0.0000 1783.6359 -7568.8093 299.5383 -9352.4453 -7581.8905 301.7426 275.9478 338.2595 30690.9218 -204.0561 -139.3024
TCL: Running FEP window  19: Lambda1 0.9000000000000002 Lambda2 0.9500000000000003 [dLambda 0.050000000000000044]
TCL: Setting parameter firsttimestep to 0
TCL: Setting parameter alchLambda to 0.9000000000000002
Info: NONBONDED TABLE R-SQUARED SPACING: 0.0625
Info: NONBONDED TABLE SIZE: 705 POINTS
TCL: Setting parameter alchLambda2 to 0.9500000000000003
Info: NONBONDED TABLE R-SQUARED SPACING: 0.0625
Info: NONBONDED TABLE SIZE: 705 POINTS
TCL: Running for 1500000 steps
ETITLE: TS BOND ANGLE DIHED IMPRP ELECT VDW BOUNDARY MISC KINETIC TOTAL TEMP POTENTIAL TOTALAVG TEMPAVG PRESSURE GPRESSURE VOLUME PRESSAVG GPRESSAVG
ENERGY: 0 3.0482 6.6653 5.4914 0.0000 -10850.6875 1481.9285 0.0000 0.0000 1782.7614 -7570.7927 299.3914 -9353.5541 -7570.7927 299.3914 257.1756 348.6593 30690.9218 257.1756 348.6593
ENERGY: 300000 1.2380 7.6169 3.5718 0.0000 -10807.7072 1459.5779 0.0000 0.0000 1741.0195 -7594.6831 292.3814 -9335.7026 -7584.5786 300.3320 144.6388 181.4637 30642.1333 -88.8614 -22.2049
ENERGY: 600000 3.2756 5.6931 3.1172 0.0000 -10821.7370 1478.3970 0.0000 0.0000 1771.9168 -7559.3373 297.5702 -9331.2541 -7592.4908 300.0451 141.7792 221.0842 30745.6207 -160.9898 -99.0653
ENERGY: 900000 2.2902 6.6038 2.8898 0.0000 -10646.5963 1317.9657 0.0000 0.0000 1767.8555 -7548.9912 296.8882 -9316.8467 -7576.3465 300.8731 -1121.7260 -1093.6492 31714.9745 -111.3985 -50.1876
ENERGY: 1200000 3.9382 5.8752 2.8992 0.0000 -10984.5351 1479.0743 0.0000 0.0000 1810.9605 -7681.7877 304.1271 -9492.7482 -7597.3786 300.1405 -238.0454 -144.1035 30684.5623 -155.4174 -91.4176
ENERGY: 1500000 2.2715 5.9680 4.1470 0.0000 -10767.4777 1433.9671 0.0000 0.0000 1812.1034 -7509.0207 304.3190 -9321.1241 -7595.7368 300.1188 -148.0002 -139.2776 31192.5956 -149.3312 -95.7666
TCL: Running FEP window  20: Lambda1 0.9500000000000003 Lambda2 1.0    [dLambda 0.04999999999999971]
TCL: Setting parameter firsttimestep to 0
TCL: Setting parameter alchLambda to 0.9500000000000003
Info: NONBONDED TABLE R-SQUARED SPACING: 0.0625
Info: NONBONDED TABLE SIZE: 705 POINTS
TCL: Setting parameter alchLambda2 to 1.0
Info: NONBONDED TABLE R-SQUARED SPACING: 0.0625
Info: NONBONDED TABLE SIZE: 705 POINTS
TCL: Running for 1500000 steps
ETITLE: TS BOND ANGLE DIHED IMPRP ELECT VDW BOUNDARY MISC KINETIC TOTAL TEMP POTENTIAL TOTALAVG TEMPAVG PRESSURE GPRESSURE VOLUME PRESSAVG GPRESSAVG
ENERGY: 0 2.2715 5.9680 4.1470 0.0000 -10769.1957 1434.1712 0.0000 0.0000 1811.2348 -7511.4032 304.1731 -9322.6380 -7511.4032 304.1731 -207.5578 -129.0041 31192.5956 -207.5578 -129.0041
ENERGY: 300000 2.8263 8.9178 1.9346 0.0000 -10866.0089 1412.7506 0.0000 0.0000 1756.5526 -7683.0270 294.9900 -9439.5796 -7586.7641 299.4831 -711.1697 -641.2839 31328.6622 -210.9155 -148.7348
ENERGY: 600000 2.4446 5.2249 2.0685 0.0000 -10737.5526 1378.0190 0.0000 0.0000 1796.9871 -7552.8085 301.7804 -9349.7956 -7582.6107 300.3183 -193.3890 -168.6260 30580.3666 -128.0778 -79.4890
ENERGY: 900000 2.0303 5.9122 1.0413 0.0000 -10879.0795 1484.6596 0.0000 0.0000 1795.1568 -7590.2794 301.4730 -9385.4361 -7587.8359 300.6656 113.1794 188.5652 30976.8325 -118.6592 -63.9354
ENERGY: 1200000 1.0791 5.1763 6.2292 0.0000 -11006.5693 1486.8271 0.0000 0.0000 1760.1158 -7747.1418 295.5884 -9507.2576 -7602.1346 299.8626 -0.2943 104.7285 30498.5014 -186.5160 -136.0657
ENERGY: 1500000 3.3233 8.0514 1.1290 0.0000 -10770.1045 1378.4045 0.0000 0.0000 1770.9221 -7608.2741 297.4032 -9379.1962 -7596.9578 299.9672 -873.6552 -832.5861 31058.6709 -153.8110 -98.4667
TCL: Exiting due to exit command.
