Info: SIMULATION PARAMETERS:
Info: TIMESTEP               2
Info: NUMBER OF STEPS        0
Info: STEPS PER CYCLE        10
Info: PERIODIC CELL BASIS 1  30.8288 0 0
Info: PERIODIC CELL BASIS 2  0 32.0978 0
Info: PERIODIC CELL BASIS 3  0 0 30.7795
Info: PERIODIC CELL CENTER   0 0 0
Info: WRAPPING WATERS AROUND PERIODIC BOUNDARIES ON OUTPUT.
Info: WRAPPING ALL CLUSTERS AROUND PERIODIC BOUNDARIES ON OUTPUT.
Info: FIRST LDB TIMESTEP     50
Info: LAST LDB TIMESTEP     -1
Info: HOM BACKGROUND SCALING 1
Info: PME BACKGROUND SCALING 1
Info: MIN ATOMS PER PATCH    40
Info: EMPTY PATCH LOAD       40 ATOMS
Info: VELOCITY FILE          mobley_9139060_equil.vel
Info: CENTER OF MASS MOVING INITIALLY? NO
Info: DIELECTRIC             1
Info: EXCLUDE                SCALED ONE-FOUR
Info: 1-4 ELECTROSTATICS SCALED BY 0.833333
Info: MODIFIED 1-4 VDW PARAMETERS WILL BE USED
Info: DCD FILENAME           mobley_9139060_prod.dcd
Info: DCD FREQUENCY          100000
Info: DCD FIRST STEP         100000
Info: DCD FILE WILL CONTAIN UNIT CELL DATA
Info: XST FILENAME           mobley_9139060_prod.xst
Info: XST FREQUENCY          100000
Info: NO VELOCITY DCD OUTPUT
Info: NO FORCE DCD OUTPUT
Info: OUTPUT FILENAME        mobley_9139060_prod
Info: BINARY OUTPUT FILES WILL BE USED
Info: RESTART FILENAME       mobley_9139060_prod.restart
Info: RESTART FREQUENCY      100000
Info: BINARY RESTART FILES WILL BE USED
Info: CUTOFF                 9
Info: PAIRLIST DISTANCE      11
Info: PAIRLIST SHRINK RATE   0.01
Info: PAIRLIST GROW RATE     0.01
Info: PAIRLIST TRIGGER       0.3
Info: PAIRLISTS PER CYCLE    2
Info: PAIRLISTS ENABLED
Info: MARGIN                 2
Info: HYDROGEN GROUP CUTOFF  2.5
Info: PATCH DIMENSION        15.5
Info: ENERGY OUTPUT STEPS    100000
Info: ENERGY EVALUATION STEPS    100000
Info: OUTPUT ENERGY PRECISION 4
Info: CROSSTERM ENERGY INCLUDED IN DIHEDRAL
Info: TIMING OUTPUT STEPS    1000000
Info: PRESSURE OUTPUT STEPS  100000
Info: ALCHEMICAL FEP ON
Info: FEP CURRENT LAMBDA VALUE     1
Info: FEP COMPARISON LAMBDA VALUE  0.95
Info: FEP INTRA-ALCHEMICAL NON-BONDED INTERACTIONS WILL BE RETAINED
Info: FEP INTRA-ALCHEMICAL BONDED INTERACTIONS WILL BE RETAINED
Info: FEP VDW SHIFTING COEFFICIENT 5
Info: FEP ELEC. ACTIVE FOR ANNIHILATED PARTICLES BETWEEN LAMBDA = 0 AND LAMBDA = 0.5
Info: FEP ELEC. ACTIVE FOR EXNIHILATED PARTICLES BETWEEN LAMBDA = 0.5 AND LAMBDA = 1
Info: FEP VDW ACTIVE FOR ANNIHILATED PARTICLES BETWEEN LAMBDA = 0 AND LAMBDA = 1
Info: FEP VDW ACTIVE FOR EXNIHILATED PARTICLES BETWEEN LAMBDA = 0 AND LAMBDA = 1
Info: FEP BOND ACTIVE FOR ANNIHILATED PARTICLES BETWEEN LAMBDA = 1 AND LAMBDA = 1
Info: FEP BOND ACTIVE FOR EXNIHILATED PARTICLES BETWEEN LAMBDA = 0 AND LAMBDA = 0
Info: LANGEVIN DYNAMICS ACTIVE
Info: LANGEVIN TEMPERATURE   300
Info: LANGEVIN USING BBK INTEGRATOR
Info: LANGEVIN DAMPING COEFFICIENT IS 1 INVERSE PS
Info: LANGEVIN DYNAMICS APPLIED TO HYDROGENS
Info: LANGEVIN PISTON PRESSURE CONTROL ACTIVE
Info:        TARGET PRESSURE IS 1.01325 BAR
Info:     OSCILLATION PERIOD IS 50 FS
Info:             DECAY TIME IS 25 FS
Info:     PISTON TEMPERATURE IS 300 K
Info:       PRESSURE CONTROL IS GROUP-BASED
Info:    INITIAL STRAIN RATE IS -0.000144828 -0.000144828 -0.000144828
Info:       CELL FLUCTUATION IS ISOTROPIC
Info: PARTICLE MESH EWALD (PME) ACTIVE
Info: PME TOLERANCE               1e-06
Info: PME EWALD COEFFICIENT       0.348832
Info: PME INTERPOLATION ORDER     4
Info: PME GRID DIMENSIONS         32 36 32
Info: PME MAXIMUM GRID SPACING    1
Info: PME CALCULATION WILL BE PERFORMED ON GPU
Info: FULL ELECTROSTATIC EVALUATION FREQUENCY      2
Info: USING VERLET I (r-RESPA) MTS SCHEME.
Info: C1 SPLITTING OF LONG RANGE ELECTROSTATICS
Info: PLACING ATOMS IN PATCHES BY HYDROGEN GROUPS
Info: RIGID BONDS TO HYDROGEN : ALL
Info:         ERROR TOLERANCE : 1e-08
Info:          MAX ITERATIONS : 100
Info: RIGID WATER USING SETTLE ALGORITHM
Info: RANDOM NUMBER SEED     1743662724
Info: USE HYDROGEN BONDS?    NO
Info: Using AMBER format force field!
Info: AMBER PARM FILE        mobley_9139060.prmtop
Info: COORDINATE PDB         mobley_9139060.pdb
Info: Exclusions will be read from PARM file!
Info: SCNB (VDW SCALING)     2
Info: USING ARITHMETIC MEAN TO COMBINE L-J SIGMA PARAMETERS
Info: BINARY COORDINATES     mobley_9139060_equil.coor
Info: SUMMARY OF PARAMETERS:
Info: 4 BONDS
Info: 3 ANGLES
Info:   3 HARMONIC
Info:   0 COSINE-BASED
Info: 5 DIHEDRAL
Info: 0 IMPROPER
Info: 0 CROSSTERM
Info: 0 VDW
Info: 10 VDW_PAIRS
Info: 0 NBTHOLE_PAIRS
Info: To read alchdata from file: mobley_9139060.pdb
Info: To read alchflag data from column: 5
Info: STRUCTURE SUMMARY:
Info: 2934 ATOMS
Info: 2934 BONDS
Info: 48 ANGLES
Info: 92 DIHEDRALS
Info: 0 IMPROPERS
Info: 0 CROSSTERMS
Info: 3051 EXCLUSIONS
Info: 2926 RIGID BONDS
Info: ALCH: 0 ATOMS TO DISAPPEAR IN FINAL STATE
Info: ALCH: 24 ATOMS TO APPEAR IN FINAL STATE
Info: 5876 DEGREES OF FREEDOM
Info: 978 HYDROGEN GROUPS
Info: 4 ATOMS IN LARGEST HYDROGEN GROUP
Info: 978 MIGRATION GROUPS
Info: 4 ATOMS IN LARGEST MIGRATION GROUP
Info: TOTAL MASS = 17587.7 amu
Info: TOTAL CHARGE = -0.000200011 e
Info: MASS DENSITY = 0.958904 g/cm^3
Info: ATOM DENSITY = 0.096331 atoms/A^3
Info: ADDED 0 IMPLICIT EXCLUSIONS
Info: NONBONDED TABLE R-SQUARED SPACING: 0.0625
Info: NONBONDED TABLE SIZE: 705 POINTS
Info: REMOVING COM VELOCITY 0.115446 -0.0490881 -0.04691
Info: Use 3D box decompostion in PME FFT.
Info: Updated CUDA force table with 4096 elements.
Info: Updated CUDA LJ table with 4 x 4 elements.
Info: Found 26 unique exclusion lists needing 88 bytes
TCL: Running for 1500000 steps
ETITLE: TS BOND ANGLE DIHED IMPRP ELECT VDW BOUNDARY MISC KINETIC TOTAL TEMP POTENTIAL TOTALAVG TEMPAVG PRESSURE GPRESSURE VOLUME PRESSAVG GPRESSAVG
ENERGY: 0 4.8018 14.9756 5.9626 0.0000 -10562.3295 1393.8329 0.0000 0.0000 1716.6761 -7426.0804 294.0336 -9142.7566 -7426.0804 294.0336 -440.1261 -358.4979 30457.4876 -440.1261 -358.4979
ENERGY: 300000 1.4053 7.0654 5.1913 0.0000 -10685.2076 1483.8607 0.0000 0.0000 1740.2517 -7447.4332 298.0717 -9187.6849 -7413.7427 298.4147 667.3770 682.7970 29571.0851 -171.0360 -97.4419
ENERGY: 600000 2.2880 13.8300 7.5517 0.0000 -10564.6148 1373.9112 0.0000 0.0000 1722.1717 -7444.8621 294.9749 -9167.0338 -7414.4741 298.7851 -418.3705 -334.2399 30314.3765 119.3593 187.8150
ENERGY: 900000 2.5623 9.2821 6.1932 0.0000 -10566.9323 1431.7357 0.0000 0.0000 1767.1130 -7350.0460 302.6725 -9117.1590 -7413.5592 300.1641 113.9101 167.0418 30425.0928 165.3110 222.0769
ENERGY: 1200000 1.3193 10.5746 5.6607 0.0000 -10611.9600 1413.1411 0.0000 0.0000 1726.5773 -7454.6870 295.7295 -9181.2643 -7416.2292 300.0750 -342.3779 -265.9830 30364.8427 133.8540 188.4326
ENERGY: 1500000 1.0459 20.2092 4.9447 0.0000 -10610.8399 1467.1100 0.0000 0.0000 1782.8483 -7334.6818 305.3676 -9117.5300 -7404.8466 301.0348 262.4045 328.1297 30514.1707 169.5351 223.0884
TCL: Running FEP window   2: Lambda1 0.95   Lambda2 0.8999999999999999 [dLambda -0.050000000000000044]
TCL: Setting parameter firsttimestep to 0
TCL: Setting parameter alchLambda to 0.95
Info: NONBONDED TABLE R-SQUARED SPACING: 0.0625
Info: NONBONDED TABLE SIZE: 705 POINTS
TCL: Setting parameter alchLambda2 to 0.8999999999999999
Info: NONBONDED TABLE R-SQUARED SPACING: 0.0625
Info: NONBONDED TABLE SIZE: 705 POINTS
TCL: Running for 1500000 steps
ETITLE: TS BOND ANGLE DIHED IMPRP ELECT VDW BOUNDARY MISC KINETIC TOTAL TEMP POTENTIAL TOTALAVG TEMPAVG PRESSURE GPRESSURE VOLUME PRESSAVG GPRESSAVG
ENERGY: 0 1.0459 20.2092 4.9447 0.0000 -10610.8251 1467.7999 0.0000 0.0000 1781.9398 -7334.8856 305.2120 -9116.8254 -7334.8856 305.2120 228.5972 321.5075 30514.1707 228.5972 321.5075
ENERGY: 300000 2.9702 12.0120 7.0676 0.0000 -10674.9443 1468.5577 0.0000 0.0000 1753.3539 -7430.9829 300.3158 -9184.3368 -7410.6248 300.3933 88.0083 205.6486 30203.6016 125.2911 198.8941
ENERGY: 600000 3.3478 13.8007 6.2438 0.0000 -10602.0173 1448.5683 0.0000 0.0000 1757.3142 -7372.7426 300.9941 -9130.0567 -7421.4347 297.6886 194.6356 270.5057 30123.5037 137.0752 209.4907
ENERGY: 900000 0.7204 15.2864 5.6807 0.0000 -10480.1337 1324.5501 0.0000 0.0000 1723.9003 -7409.9959 295.2710 -9133.8962 -7423.4715 298.2031 -756.8002 -711.9106 30318.4034 -59.2454 5.5313
ENERGY: 1200000 1.9096 12.0566 5.2514 0.0000 -10494.4316 1369.7641 0.0000 0.0000 1761.0138 -7344.4361 301.6278 -9105.4499 -7421.8591 298.8970 -373.2376 -276.9583 30358.0569 -117.9956 -47.9001
ENERGY: 1500000 2.3836 8.6851 5.1860 0.0000 -10547.6755 1383.5335 0.0000 0.0000 1788.8772 -7359.0100 306.4003 -9147.8872 -7412.9246 299.5632 -544.4180 -470.2983 30707.3244 -115.6913 -43.7654
TCL: Running FEP window   3: Lambda1 0.8999999999999999 Lambda2 0.8499999999999999 [dLambda -0.050000000000000044]
TCL: Setting parameter firsttimestep to 0
TCL: Setting parameter alchLambda to 0.8999999999999999
Info: NONBONDED TABLE R-SQUARED SPACING: 0.0625
Info: NONBONDED TABLE SIZE: 705 POINTS
TCL: Setting parameter alchLambda2 to 0.8499999999999999
Info: NONBONDED TABLE R-SQUARED SPACING: 0.0625
Info: NONBONDED TABLE SIZE: 705 POINTS
TCL: Running for 1500000 steps
ETITLE: TS BOND ANGLE DIHED IMPRP ELECT VDW BOUNDARY MISC KINETIC TOTAL TEMP POTENTIAL TOTALAVG TEMPAVG PRESSURE GPRESSURE VOLUME PRESSAVG GPRESSAVG
ENERGY: 0 2.3836 8.6851 5.1860 0.0000 -10547.6921 1383.9777 0.0000 0.0000 1788.0322 -7359.4275 306.2555 -9147.4597 -7359.4275 306.2555 -559.5021 -477.6014 30707.3244 -559.5021 -477.6014
ENERGY: 300000 0.5884 12.8371 5.0845 0.0000 -10648.5980 1495.7513 0.0000 0.0000 1769.6339 -7364.7029 303.1042 -9134.3367 -7400.3249 299.9748 366.1041 476.9381 30525.3048 49.9422 138.1626
ENERGY: 600000 0.8440 13.9819 5.3545 0.0000 -10557.9935 1393.2932 0.0000 0.0000 1725.6769 -7418.8430 295.5753 -9144.5199 -7397.6124 300.3691 -262.6224 -210.6660 30185.0534 -63.3012 19.1313
ENERGY: 900000 3.2710 6.5995 4.9675 0.0000 -10770.9743 1544.9961 0.0000 0.0000 1767.9068 -7443.2333 302.8084 -9211.1402 -7411.7679 298.5453 1034.6010 1106.9064 29788.2358 72.4028 154.1293
ENERGY: 1200000 2.2834 11.4340 5.1294 0.0000 -10556.7725 1470.2482 0.0000 0.0000 1772.1458 -7295.5316 303.5345 -9067.6775 -7409.6630 299.1896 813.1904 845.3033 29867.1606 128.9466 204.7626
ENERGY: 1500000 5.5690 12.0290 4.6187 0.0000 -10706.4993 1447.5672 0.0000 0.0000 1708.8135 -7527.9019 292.6869 -9236.7154 -7416.9331 299.4865 91.7431 115.3534 29964.2734 121.6175 194.1395
TCL: Running FEP window   4: Lambda1 0.8499999999999999 Lambda2 0.7999999999999998 [dLambda -0.050000000000000044]
TCL: Setting parameter firsttimestep to 0
TCL: Setting parameter alchLambda to 0.8499999999999999
Info: NONBONDED TABLE R-SQUARED SPACING: 0.0625
Info: NONBONDED TABLE SIZE: 705 POINTS
TCL: Setting parameter alchLambda2 to 0.7999999999999998
Info: NONBONDED TABLE R-SQUARED SPACING: 0.0625
Info: NONBONDED TABLE SIZE: 705 POINTS
TCL: Running for 1500000 steps
ETITLE: TS BOND ANGLE DIHED IMPRP ELECT VDW BOUNDARY MISC KINETIC TOTAL TEMP POTENTIAL TOTALAVG TEMPAVG PRESSURE GPRESSURE VOLUME PRESSAVG GPRESSAVG
ENERGY: 0 5.5690 12.0290 4.6187 0.0000 -10706.4723 1448.1684 0.0000 0.0000 1707.9111 -7528.1761 292.5323 -9236.0872 -7528.1761 292.5323 25.8070 107.6191 29964.2734 25.8070 107.6191
ENERGY: 300000 2.4090 14.1365 5.6429 0.0000 -10566.2539 1364.7876 0.0000 0.0000 1716.2944 -7462.9836 293.9682 -9179.2780 -7475.3134 295.0111 -453.7347 -412.4021 30093.9760 -262.0069 -211.5948
ENERGY: 600000 1.7012 13.9883 4.9057 0.0000 -10592.6862 1474.4897 0.0000 0.0000 1730.1400 -7367.4612 296.3397 -9097.6013 -7445.5318 295.8361 659.3039 760.3620 30027.4367 123.9291 166.8273
ENERGY: 900000 1.3796 8.1419 5.1574 0.0000 -10581.4292 1382.9731 0.0000 0.0000 1749.2903 -7434.4868 299.6198 -9183.7771 -7431.2446 297.3028 -609.2980 -548.0463 30549.4616 38.7111 88.6822
ENERGY: 1200000 3.6875 11.0388 6.1082 0.0000 -10622.2814 1393.2457 0.0000 0.0000 1760.4484 -7447.7528 301.5309 -9208.2012 -7418.0207 298.8403 -391.3348 -329.9776 30206.9524 -67.9281 -18.5089
ENERGY: 1500000 0.7215 11.7690 5.5775 0.0000 -10580.2979 1475.3078 0.0000 0.0000 1785.0436 -7301.8785 305.7436 -9086.9221 -7414.4644 298.6385 366.7789 420.2359 30799.9219 -54.4262 -8.4410
TCL: Running FEP window   5: Lambda1 0.7999999999999998 Lambda2 0.7499999999999998 [dLambda -0.050000000000000044]
TCL: Setting parameter firsttimestep to 0
TCL: Setting parameter alchLambda to 0.7999999999999998
Info: NONBONDED TABLE R-SQUARED SPACING: 0.0625
Info: NONBONDED TABLE SIZE: 705 POINTS
TCL: Setting parameter alchLambda2 to 0.7499999999999998
Info: NONBONDED TABLE R-SQUARED SPACING: 0.0625
Info: NONBONDED TABLE SIZE: 705 POINTS
TCL: Running for 1500000 steps
ETITLE: TS BOND ANGLE DIHED IMPRP ELECT VDW BOUNDARY MISC KINETIC TOTAL TEMP POTENTIAL TOTALAVG TEMPAVG PRESSURE GPRESSURE VOLUME PRESSAVG GPRESSAVG
ENERGY: 0 0.7215 11.7690 5.5775 0.0000 -10580.3216 1475.4237 0.0000 0.0000 1784.1464 -7302.6836 305.5900 -9086.8300 -7302.6836 305.5900 319.6863 407.7887 30799.9219 319.6863 407.7887
ENERGY: 300000 1.1057 9.6324 5.6004 0.0000 -10415.5934 1299.7282 0.0000 0.0000 1759.8851 -7339.6415 301.4345 -9099.5266 -7349.4452 303.2170 -827.8600 -865.2125 30358.9349 -187.9023 -172.7162
ENERGY: 600000 1.8887 8.5142 5.1155 0.0000 -10497.9729 1354.6618 0.0000 0.0000 1733.4862 -7394.3066 296.9128 -9127.7928 -7363.5499 301.0865 -333.6633 -298.3414 30259.1589 -278.4630 -255.0419
ENERGY: 900000 2.4776 8.4599 5.0136 0.0000 -10519.0581 1415.3356 0.0000 0.0000 1768.1865 -7319.5850 302.8563 -9087.7715 -7370.3323 301.1834 70.5967 58.6816 30418.2367 -349.0108 -324.0829
ENERGY: 1200000 2.2498 11.5270 6.1347 0.0000 -10643.9976 1412.4174 0.0000 0.0000 1757.8499 -7453.8187 301.0859 -9211.6686 -7374.9484 301.2644 -182.4199 -129.8101 29924.9361 -286.8314 -256.1362
ENERGY: 1500000 3.0503 11.1707 4.9450 0.0000 -10684.0197 1525.6869 0.0000 0.0000 1733.9899 -7405.1770 296.9991 -9139.1669 -7379.5551 301.7496 824.6696 908.1127 29875.9609 -141.7188 -111.8947
TCL: Running FEP window   6: Lambda1 0.7499999999999998 Lambda2 0.6999999999999997 [dLambda -0.050000000000000044]
TCL: Setting parameter firsttimestep to 0
TCL: Setting parameter alchLambda to 0.7499999999999998
Info: NONBONDED TABLE R-SQUARED SPACING: 0.0625
Info: NONBONDED TABLE SIZE: 705 POINTS
TCL: Setting parameter alchLambda2 to 0.6999999999999997
Info: NONBONDED TABLE R-SQUARED SPACING: 0.0625
Info: NONBONDED TABLE SIZE: 705 POINTS
TCL: Running for 1500000 steps
ETITLE: TS BOND ANGLE DIHED IMPRP ELECT VDW BOUNDARY MISC KINETIC TOTAL TEMP POTENTIAL TOTALAVG TEMPAVG PRESSURE GPRESSURE VOLUME PRESSAVG GPRESSAVG
ENERGY: 0 3.0503 11.1707 4.9450 0.0000 -10684.0303 1525.7437 0.0000 0.0000 1733.1057 -7406.0150 296.8477 -9139.1206 -7406.0150 296.8477 814.7037 900.4413 29875.9609 814.7037 900.4413
ENERGY: 300000 4.0522 13.6739 5.7998 0.0000 -10552.2819 1425.6063 0.0000 0.0000 1809.0526 -7294.0972 309.8559 -9103.1497 -7390.6110 301.5200 94.4344 90.3732 30389.6912 355.5381 399.2550
ENERGY: 600000 3.3758 14.7594 5.4154 0.0000 -10498.2563 1334.7113 0.0000 0.0000 1734.6032 -7405.3913 297.1042 -9139.9944 -7395.7180 298.7095 -774.6959 -790.5049 30114.2465 -16.6631 17.9124
ENERGY: 900000 3.4264 12.8858 6.6991 0.0000 -10599.8523 1416.5884 0.0000 0.0000 1721.0411 -7439.2115 294.7812 -9160.2525 -7401.5858 299.0828 -201.0060 -86.9931 30192.7444 -95.6076 -55.9648
ENERGY: 1200000 1.5985 7.3347 4.7241 0.0000 -10681.6124 1501.1322 0.0000 0.0000 1755.2309 -7411.5921 300.6373 -9166.8230 -7409.8489 298.7688 696.8987 726.2150 29874.4675 -75.6333 -37.0837
ENERGY: 1500000 1.6518 12.2907 5.3949 0.0000 -10601.6099 1371.7630 0.0000 0.0000 1769.7694 -7440.7401 303.1275 -9210.5095 -7407.1226 299.5974 -388.8836 -326.5687 29876.2307 -153.2283 -105.0160
TCL: Running FEP window   7: Lambda1 0.6999999999999997 Lambda2 0.6499999999999997 [dLambda -0.050000000000000044]
TCL: Setting parameter firsttimestep to 0
TCL: Setting parameter alchLambda to 0.6999999999999997
Info: NONBONDED TABLE R-SQUARED SPACING: 0.0625
Info: NONBONDED TABLE SIZE: 705 POINTS
TCL: Setting parameter alchLambda2 to 0.6499999999999997
Info: NONBONDED TABLE R-SQUARED SPACING: 0.0625
Info: NONBONDED TABLE SIZE: 705 POINTS
TCL: Running for 1500000 steps
ETITLE: TS BOND ANGLE DIHED IMPRP ELECT VDW BOUNDARY MISC KINETIC TOTAL TEMP POTENTIAL TOTALAVG TEMPAVG PRESSURE GPRESSURE VOLUME PRESSAVG GPRESSAVG
ENERGY: 0 1.6518 12.2907 5.3949 0.0000 -10601.6224 1371.7884 0.0000 0.0000 1768.9119 -7441.5846 302.9806 -9210.4965 -7441.5846 302.9806 -408.5499 -337.0572 29876.2307 -408.5499 -337.0572
ENERGY: 300000 3.1081 11.3087 5.2446 0.0000 -10420.4898 1318.8569 0.0000 0.0000 1729.6360 -7352.3355 296.2534 -9081.9715 -7377.7137 299.3966 -685.1665 -722.7868 30148.4968 -16.8996 10.5738
ENERGY: 600000 1.1770 7.9309 5.3259 0.0000 -10502.1658 1372.5452 0.0000 0.0000 1727.1689 -7388.0178 295.8308 -9115.1867 -7375.1463 299.1617 -383.3326 -372.2764 30279.2950 -99.9725 -62.9750
ENERGY: 900000 1.5251 13.5897 6.1844 0.0000 -10476.6845 1316.9741 0.0000 0.0000 1720.5858 -7417.8254 294.7033 -9138.4112 -7370.9788 298.4915 -881.3669 -784.0252 30690.3080 -7.3164 53.6313
ENERGY: 1200000 0.6310 8.4998 5.0767 0.0000 -10604.4805 1455.1292 0.0000 0.0000 1766.2063 -7368.9375 302.5172 -9135.1438 -7376.4495 299.3642 260.0643 315.8011 30164.6959 -2.5229 63.5782
ENERGY: 1500000 3.2914 10.7288 5.4008 0.0000 -10645.8231 1476.8225 0.0000 0.0000 1715.4574 -7434.1222 293.8249 -9149.5796 -7385.9569 298.4795 252.7178 358.4518 30132.3989 2.0635 68.0234
TCL: Running FEP window   8: Lambda1 0.6499999999999997 Lambda2 0.5999999999999996 [dLambda -0.050000000000000044]
TCL: Setting parameter firsttimestep to 0
TCL: Setting parameter alchLambda to 0.6499999999999997
Info: NONBONDED TABLE R-SQUARED SPACING: 0.0625
Info: NONBONDED TABLE SIZE: 705 POINTS
TCL: Setting parameter alchLambda2 to 0.5999999999999996
Info: NONBONDED TABLE R-SQUARED SPACING: 0.0625
Info: NONBONDED TABLE SIZE: 705 POINTS
TCL: Running for 1500000 steps
ETITLE: TS BOND ANGLE DIHED IMPRP ELECT VDW BOUNDARY MISC KINETIC TOTAL TEMP POTENTIAL TOTALAVG TEMPAVG PRESSURE GPRESSURE VOLUME PRESSAVG GPRESSAVG
ENERGY: 0 3.2914 10.7288 5.4008 0.0000 -10645.6858 1477.1149 0.0000 0.0000 1714.5954 -7434.5545 293.6772 -9149.1499 -7434.5545 293.6772 265.6348 349.9292 30132.3989 265.6348 349.9292
ENERGY: 300000 4.2629 17.3672 5.8992 0.0000 -10765.3165 1490.4704 0.0000 0.0000 1699.9255 -7547.3914 291.1645 -9247.3169 -7449.3158 292.8567 587.2684 635.4141 29555.8286 56.3838 117.8522
ENERGY: 600000 1.4215 13.2026 5.3119 0.0000 -10676.8051 1514.5223 0.0000 0.0000 1745.4332 -7396.9135 298.9591 -9142.3467 -7416.6662 297.7306 685.4897 762.1779 30162.7032 294.6888 373.6865
ENERGY: 900000 1.8336 9.1661 5.8264 0.0000 -10529.2480 1404.0881 0.0000 0.0000 1697.7833 -7410.5505 290.7976 -9108.3338 -7402.3981 297.5536 -371.5126 -301.8718 30693.5247 123.1994 193.8246
ENERGY: 1200000 3.0565 13.5715 5.3724 0.0000 -10548.3990 1373.7819 0.0000 0.0000 1713.3498 -7439.2670 293.4639 -9152.6167 -7406.7173 297.5179 -188.1811 -143.6149 29790.9155 99.9302 169.1378
ENERGY: 1500000 4.0369 9.7047 5.2494 0.0000 -10579.1461 1381.6940 0.0000 0.0000 1781.9681 -7396.4930 305.2169 -9178.4611 -7398.6026 298.9292 -461.3756 -403.9479 29930.1286 56.3465 127.5860
TCL: Running FEP window   9: Lambda1 0.5999999999999996 Lambda2 0.5499999999999996 [dLambda -0.050000000000000044]
TCL: Setting parameter firsttimestep to 0
TCL: Setting parameter alchLambda to 0.5999999999999996
Info: NONBONDED TABLE R-SQUARED SPACING: 0.0625
Info: NONBONDED TABLE SIZE: 705 POINTS
TCL: Setting parameter alchLambda2 to 0.5499999999999996
Info: NONBONDED TABLE R-SQUARED SPACING: 0.0625
Info: NONBONDED TABLE SIZE: 705 POINTS
TCL: Running for 1500000 steps
ETITLE: TS BOND ANGLE DIHED IMPRP ELECT VDW BOUNDARY MISC KINETIC TOTAL TEMP POTENTIAL TOTALAVG TEMPAVG PRESSURE GPRESSURE VOLUME PRESSAVG GPRESSAVG
ENERGY: 0 4.0369 9.7047 5.2494 0.0000 -10579.1398 1382.1627 0.0000 0.0000 1781.1280 -7396.8580 305.0730 -9177.9860 -7396.8580 305.0730 -494.0443 -412.5546 29930.1286 -494.0443 -412.5546
ENERGY: 300000 2.7939 18.4610 5.7123 0.0000 -10665.6100 1455.9252 0.0000 0.0000 1746.0073 -7436.7103 299.0575 -9182.7176 -7387.7741 303.4633 273.8210 355.4852 29973.4085 -333.4474 -252.0751
ENERGY: 600000 2.3412 14.0744 5.5891 0.0000 -10570.4657 1411.9356 0.0000 0.0000 1689.4840 -7447.0415 289.3761 -9136.5255 -7386.3189 300.3227 -207.1377 -181.5074 30221.9531 -149.6102 -70.2266
ENERGY: 900000 3.7812 10.4858 6.2391 0.0000 -10620.1541 1402.3364 0.0000 0.0000 1668.6457 -7528.6659 285.8069 -9197.3116 -7412.1422 298.6347 -418.3097 -386.5655 29947.9976 -94.9411 -30.3703
ENERGY: 1200000 3.3509 9.5239 5.9728 0.0000 -10655.9432 1480.3265 0.0000 0.0000 1701.1275 -7455.6418 291.3704 -9156.7693 -7411.9823 297.8810 395.9036 392.6709 29955.3248 -102.4078 -38.2692
ENERGY: 1500000 2.0773 9.6594 6.0890 0.0000 -10570.1022 1393.5124 0.0000 0.0000 1806.8823 -7351.8818 309.4842 -9158.7641 -7410.8333 298.8054 -305.6418 -225.4496 30027.3803 -55.6294 6.7208
TCL: Running FEP window  10: Lambda1 0.5499999999999996 Lambda2 0.4999999999999996 [dLambda -0.04999999999999999]
TCL: Setting parameter firsttimestep to 0
TCL: Setting parameter alchLambda to 0.5499999999999996
Info: NONBONDED TABLE R-SQUARED SPACING: 0.0625
Info: NONBONDED TABLE SIZE: 705 POINTS
TCL: Setting parameter alchLambda2 to 0.4999999999999996
Info: NONBONDED TABLE R-SQUARED SPACING: 0.0625
Info: NONBONDED TABLE SIZE: 705 POINTS
TCL: Running for 1500000 steps
ETITLE: TS BOND ANGLE DIHED IMPRP ELECT VDW BOUNDARY MISC KINETIC TOTAL TEMP POTENTIAL TOTALAVG TEMPAVG PRESSURE GPRESSURE VOLUME PRESSAVG GPRESSAVG
ENERGY: 0 2.0773 9.6594 6.0890 0.0000 -10570.1159 1393.9722 0.0000 0.0000 1805.9773 -7352.3407 309.3292 -9158.3180 -7352.3407 309.3292 -315.3508 -226.7288 30027.3803 -315.3508 -226.7288
ENERGY: 300000 2.9264 8.9501 4.5479 0.0000 -10549.6069 1501.0970 0.0000 0.0000 1782.4954 -7249.5902 305.3072 -9032.0856 -7340.7990 304.4977 762.8720 814.2613 30450.6122 153.8879 208.5410
ENERGY: 600000 3.3897 11.2326 5.7347 0.0000 -10525.3808 1348.9839 0.0000 0.0000 1740.7527 -7415.2872 298.1575 -9156.0399 -7378.6804 302.1262 -571.5991 -491.0697 29993.1552 -149.9510 -77.8132
ENERGY: 900000 1.8791 12.3737 5.0845 0.0000 -10544.1547 1328.7134 0.0000 0.0000 1803.7846 -7392.3193 308.9536 -9196.1039 -7374.0210 303.5772 -825.6193 -774.1788 30244.9464 -248.9705 -173.0162
ENERGY: 1200000 1.7588 9.4172 5.5629 0.0000 -10722.5200 1532.6259 0.0000 0.0000 1750.3583 -7422.7969 299.8027 -9173.1552 -7387.9942 303.7398 817.6240 891.3240 29970.5969 -197.0541 -119.8652
ENERGY: 1500000 0.7520 11.6812 5.1425 0.0000 -10731.4883 1495.6747 0.0000 0.0000 1752.5296 -7465.7082 300.1746 -9218.2379 -7389.4269 303.6065 287.6017 381.3506 30029.9029 -145.3889 -71.2591
TCL: Running FEP window  11: Lambda1 0.4999999999999996 Lambda2 0.4499999999999996 [dLambda -0.04999999999999999]
TCL: Setting parameter firsttimestep to 0
TCL: Setting parameter alchLambda to 0.4999999999999996
Info: NONBONDED TABLE R-SQUARED SPACING: 0.0625
Info: NONBONDED TABLE SIZE: 705 POINTS
TCL: Setting parameter alchLambda2 to 0.4499999999999996
Info: NONBONDED TABLE R-SQUARED SPACING: 0.0625
Info: NONBONDED TABLE SIZE: 705 POINTS
TCL: Running for 1500000 steps
ETITLE: TS BOND ANGLE DIHED IMPRP ELECT VDW BOUNDARY MISC KINETIC TOTAL TEMP POTENTIAL TOTALAVG TEMPAVG PRESSURE GPRESSURE VOLUME PRESSAVG GPRESSAVG
ENERGY: 0 0.7520 11.6812 5.1425 0.0000 -10731.5490 1496.1510 0.0000 0.0000 1751.6673 -7466.1550 300.0269 -9217.8223 -7466.1550 300.0269 296.7880 376.1334 30029.9029 296.7880 376.1334
ENERGY: 300000 1.5762 12.2983 5.1159 0.0000 -10655.1502 1494.4069 0.0000 0.0000 1735.8965 -7405.8564 297.3257 -9141.7529 -7423.2273 301.5778 261.0030 367.9676 30235.1295 135.0212 205.3899
ENERGY: 600000 1.1058 16.6850 5.6450 0.0000 -10523.4465 1370.7054 0.0000 0.0000 1739.4478 -7389.8575 297.9339 -9129.3053 -7405.3416 301.0740 -266.6560 -154.9310 29975.4024 -92.1060 -23.5178
ENERGY: 900000 4.1112 11.4968 6.0610 0.0000 -10546.8869 1370.2403 0.0000 0.0000 1764.4789 -7390.4988 302.2213 -9154.9777 -7413.1814 301.1180 -142.7242 -151.4488 29596.6005 42.1392 92.8423
ENERGY: 1200000 4.7251 15.6966 6.1630 0.0000 -10374.1884 1307.6348 0.0000 0.0000 1712.3157 -7327.6533 293.2867 -9039.9689 -7399.7096 299.9748 -801.1056 -810.0601 30429.9082 -126.2166 -83.3284
ENERGY: 1500000 1.4083 8.1560 5.1882 0.0000 -10514.0989 1358.6629 0.0000 0.0000 1717.4272 -7423.2563 294.1623 -9140.6836 -7403.2151 299.0131 -528.4124 -394.0559 30247.1248 -134.5555 -80.1023
TCL: Running FEP window  12: Lambda1 0.4499999999999996 Lambda2 0.39999999999999963 [dLambda -0.04999999999999999]
TCL: Setting parameter firsttimestep to 0
TCL: Setting parameter alchLambda to 0.4499999999999996
Info: NONBONDED TABLE R-SQUARED SPACING: 0.0625
Info: NONBONDED TABLE SIZE: 705 POINTS
TCL: Setting parameter alchLambda2 to 0.39999999999999963
Info: NONBONDED TABLE R-SQUARED SPACING: 0.0625
Info: NONBONDED TABLE SIZE: 705 POINTS
TCL: Running for 1500000 steps
ETITLE: TS BOND ANGLE DIHED IMPRP ELECT VDW BOUNDARY MISC KINETIC TOTAL TEMP POTENTIAL TOTALAVG TEMPAVG PRESSURE GPRESSURE VOLUME PRESSAVG GPRESSAVG
ENERGY: 0 1.4083 8.1560 5.1882 0.0000 -10514.0985 1358.4092 0.0000 0.0000 1716.5683 -7424.3685 294.0151 -9140.9368 -7424.3685 294.0151 -480.2361 -403.6844 30247.1248 -480.2361 -403.6844
ENERGY: 300000 3.4591 9.5274 4.8045 0.0000 -10779.7146 1527.7189 0.0000 0.0000 1755.2447 -7478.9600 300.6396 -9234.2046 -7415.5065 297.2984 852.2665 885.1287 29552.0717 -55.8410 19.1827
ENERGY: 600000 2.3395 17.5599 5.9750 0.0000 -10524.1263 1358.2840 0.0000 0.0000 1685.4721 -7454.4958 288.6890 -9139.9679 -7404.9434 296.1235 -576.7478 -485.4370 30192.4816 -229.3858 -164.3476
ENERGY: 900000 2.2656 14.7446 5.6898 0.0000 -10575.0366 1406.3319 0.0000 0.0000 1793.6773 -7352.3274 307.2224 -9146.0046 -7393.9168 297.4657 -194.3353 -105.3136 29947.9252 -135.1244 -62.1094
ENERGY: 1200000 2.5042 12.7127 5.8253 0.0000 -10729.1667 1433.9636 0.0000 0.0000 1791.6847 -7482.4762 306.8811 -9274.1609 -7410.4542 298.2572 -245.9187 -146.6427 29829.3324 -85.5906 -21.4595
ENERGY: 1500000 1.2585 8.1581 4.6118 0.0000 -10511.7293 1357.6368 0.0000 0.0000 1748.4091 -7391.6550 299.4688 -9140.0640 -7404.3263 298.6529 -462.0341 -350.3521 30104.7875 -129.7872 -65.3997
TCL: Running FEP window  13: Lambda1 0.39999999999999963 Lambda2 0.34999999999999964 [dLambda -0.04999999999999999]
TCL: Setting parameter firsttimestep to 0
TCL: Setting parameter alchLambda to 0.39999999999999963
Info: NONBONDED TABLE R-SQUARED SPACING: 0.0625
Info: NONBONDED TABLE SIZE: 705 POINTS
TCL: Setting parameter alchLambda2 to 0.34999999999999964
Info: NONBONDED TABLE R-SQUARED SPACING: 0.0625
Info: NONBONDED TABLE SIZE: 705 POINTS
TCL: Running for 1500000 steps
ETITLE: TS BOND ANGLE DIHED IMPRP ELECT VDW BOUNDARY MISC KINETIC TOTAL TEMP POTENTIAL TOTALAVG TEMPAVG PRESSURE GPRESSURE VOLUME PRESSAVG GPRESSAVG
ENERGY: 0 1.2585 8.1581 4.6118 0.0000 -10511.7299 1356.5317 0.0000 0.0000 1747.5215 -7393.6482 299.3168 -9141.1698 -7393.6482 299.3168 -449.0953 -367.8329 30104.7875 -449.0953 -367.8329
ENERGY: 300000 1.3864 11.8541 4.9108 0.0000 -10583.6173 1454.7210 0.0000 0.0000 1747.2853 -7363.4596 299.2764 -9110.7449 -7356.3754 301.5855 140.4208 154.2555 30154.8928 -125.2737 -76.1747
ENERGY: 600000 1.4480 12.0532 6.1329 0.0000 -10686.2377 1549.4472 0.0000 0.0000 1714.4299 -7402.7265 293.6489 -9117.1563 -7381.6939 300.9270 1009.1705 1095.8794 30207.9902 47.2759 106.5330
ENERGY: 900000 1.2680 11.3511 5.8790 0.0000 -10650.6548 1502.7504 0.0000 0.0000 1709.5684 -7419.8379 292.8162 -9129.4063 -7392.5056 299.0462 829.8123 873.3298 29695.1573 153.7916 205.1692
ENERGY: 1200000 1.8552 8.0357 4.8983 0.0000 -10549.4924 1428.1270 0.0000 0.0000 1745.3299 -7361.2464 298.9414 -9106.5763 -7386.8759 298.7837 345.9583 342.0340 29950.3363 66.8502 115.2870
ENERGY: 1500000 1.5608 9.6917 5.5672 0.0000 -10719.3183 1442.5371 0.0000 0.0000 1742.2487 -7517.7127 298.4137 -9259.9615 -7391.9781 298.9888 203.8108 317.5383 29258.9174 29.3383 79.2784
TCL: Running FEP window  14: Lambda1 0.34999999999999964 Lambda2 0.29999999999999966 [dLambda -0.04999999999999999]
TCL: Setting parameter firsttimestep to 0
TCL: Setting parameter alchLambda to 0.34999999999999964
Info: NONBONDED TABLE R-SQUARED SPACING: 0.0625
Info: NONBONDED TABLE SIZE: 705 POINTS
TCL: Setting parameter alchLambda2 to 0.29999999999999966
Info: NONBONDED TABLE R-SQUARED SPACING: 0.0625
Info: NONBONDED TABLE SIZE: 705 POINTS
TCL: Running for 1500000 steps
ETITLE: TS BOND ANGLE DIHED IMPRP ELECT VDW BOUNDARY MISC KINETIC TOTAL TEMP POTENTIAL TOTALAVG TEMPAVG PRESSURE GPRESSURE VOLUME PRESSAVG GPRESSAVG
ENERGY: 0 1.5608 9.6917 5.5672 0.0000 -10719.3196 1443.0997 0.0000 0.0000 1741.3671 -7518.0331 298.2627 -9259.4002 -7518.0331 298.2627 215.9509 316.4088 29258.9174 215.9509 316.4088
ENERGY: 300000 3.7099 10.4044 4.9278 0.0000 -10703.1483 1474.8853 0.0000 0.0000 1764.4659 -7444.7551 302.2191 -9209.2210 -7437.3511 301.3593 493.7374 506.0986 29671.8200 -250.4801 -213.6603
ENERGY: 600000 3.7460 12.7652 5.4563 0.0000 -10544.3735 1371.5986 0.0000 0.0000 1797.1299 -7353.6774 307.8138 -9150.8073 -7397.2755 301.6859 -433.5495 -302.4402 29785.2700 -274.9622 -229.5647
ENERGY: 900000 3.2611 11.1380 5.3507 0.0000 -10658.8423 1467.8329 0.0000 0.0000 1755.3368 -7415.9228 300.6554 -9171.2596 -7391.3263 302.1800 307.4892 373.4095 29799.5304 -260.5532 -216.3145
ENERGY: 1200000 2.1384 13.8397 6.3053 0.0000 -10490.9734 1362.2735 0.0000 0.0000 1716.1214 -7390.2952 293.9386 -9106.4166 -7381.4962 301.8208 -227.4472 -188.7725 29878.3817 -283.8701 -240.6277
ENERGY: 1500000 1.7010 13.2517 5.5991 0.0000 -10653.1884 1434.1779 0.0000 0.0000 1744.2608 -7454.1979 298.7583 -9198.4587 -7383.3837 301.8926 56.7274 131.4034 29875.7536 -274.4193 -230.1608
TCL: Running FEP window  15: Lambda1 0.29999999999999966 Lambda2 0.24999999999999967 [dLambda -0.04999999999999999]
TCL: Setting parameter firsttimestep to 0
TCL: Setting parameter alchLambda to 0.29999999999999966
Info: NONBONDED TABLE R-SQUARED SPACING: 0.0625
Info: NONBONDED TABLE SIZE: 705 POINTS
TCL: Setting parameter alchLambda2 to 0.24999999999999967
Info: NONBONDED TABLE R-SQUARED SPACING: 0.0625
Info: NONBONDED TABLE SIZE: 705 POINTS
TCL: Running for 1500000 steps
ETITLE: TS BOND ANGLE DIHED IMPRP ELECT VDW BOUNDARY MISC KINETIC TOTAL TEMP POTENTIAL TOTALAVG TEMPAVG PRESSURE GPRESSURE VOLUME PRESSAVG GPRESSAVG
ENERGY: 0 1.7010 13.2517 5.5991 0.0000 -10653.1895 1434.6823 0.0000 0.0000 1743.4326 -7454.5228 298.6165 -9197.9554 -7454.5228 298.6165 32.6683 128.0093 29875.7536 32.6683 128.0093
ENERGY: 300000 1.9405 11.9047 6.5379 0.0000 -10721.7363 1506.7512 0.0000 0.0000 1782.4655 -7412.1366 305.3020 -9194.6020 -7413.5275 300.3736 609.2446 629.3532 29691.8941 -107.0369 -53.6745
ENERGY: 600000 1.0377 11.7015 6.3219 0.0000 -10438.4227 1287.9939 0.0000 0.0000 1798.7159 -7332.6517 308.0854 -9131.3677 -7388.8414 301.0228 -1224.1573 -1180.6983 30583.2812 -373.4472 -325.3576
ENERGY: 900000 2.8070 11.6773 5.6079 0.0000 -10586.5992 1436.2968 0.0000 0.0000 1825.2509 -7304.9593 312.6304 -9130.2101 -7384.4700 301.3919 66.8016 157.4419 30043.9119 -344.8846 -293.6550
ENERGY: 1200000 3.6955 9.6254 5.2183 0.0000 -10632.6141 1426.1152 0.0000 0.0000 1753.1065 -7434.8533 300.2734 -9187.9598 -7388.5239 300.8562 -183.0653 -153.4024 30064.1587 -312.4711 -262.8436
ENERGY: 1500000 2.7313 16.0233 5.4118 0.0000 -10460.1982 1375.3116 0.0000 0.0000 1725.7656 -7334.9546 295.5904 -9060.7202 -7394.5717 299.9242 -27.7155 2.8130 29602.7169 -237.1519 -187.0036
TCL: Running FEP window  16: Lambda1 0.24999999999999967 Lambda2 0.19999999999999968 [dLambda -0.04999999999999999]
TCL: Setting parameter firsttimestep to 0
TCL: Setting parameter alchLambda to 0.24999999999999967
Info: NONBONDED TABLE R-SQUARED SPACING: 0.0625
Info: NONBONDED TABLE SIZE: 705 POINTS
TCL: Setting parameter alchLambda2 to 0.19999999999999968
Info: NONBONDED TABLE R-SQUARED SPACING: 0.0625
Info: NONBONDED TABLE SIZE: 705 POINTS
TCL: Running for 1500000 steps
ETITLE: TS BOND ANGLE DIHED IMPRP ELECT VDW BOUNDARY MISC KINETIC TOTAL TEMP POTENTIAL TOTALAVG TEMPAVG PRESSURE GPRESSURE VOLUME PRESSAVG GPRESSAVG
ENERGY: 0 2.7313 16.0233 5.4118 0.0000 -10460.1978 1375.5443 0.0000 0.0000 1724.8594 -7335.6278 295.4352 -9060.4871 -7335.6278 295.4352 -91.9312 -0.4788 29602.7169 -91.9312 -0.4788
ENERGY: 300000 1.8455 13.9661 6.0141 0.0000 -10588.9828 1390.5648 0.0000 0.0000 1755.1995 -7421.3928 300.6319 -9176.5923 -7388.3955 300.4790 -110.0595 -115.0714 29550.9411 77.3449 121.5021
ENERGY: 600000 1.1806 11.2881 6.6574 0.0000 -10672.1166 1448.9764 0.0000 0.0000 1756.2731 -7447.7411 300.8158 -9204.0142 -7409.8293 299.1196 194.6718 243.1005 29713.5220 -9.5929 47.9395
ENERGY: 900000 1.2696 13.9086 5.9799 0.0000 -10537.5097 1411.7470 0.0000 0.0000 1811.1673 -7293.4373 310.2181 -9104.6045 -7378.6816 300.7596 90.4133 146.4991 30061.0644 -118.2942 -49.8439
ENERGY: 1200000 2.8450 11.4757 5.4561 0.0000 -10729.2460 1495.6592 0.0000 0.0000 1732.1134 -7481.6967 296.6777 -9213.8101 -7391.7685 300.1793 470.9952 503.3775 29711.9876 -86.1107 -20.7375
ENERGY: 1500000 1.2241 14.2863 4.6913 0.0000 -10674.8251 1448.1451 0.0000 0.0000 1731.3651 -7475.1133 296.5495 -9206.4783 -7404.4746 299.3988 -126.2027 -22.9535 29919.7877 -92.9783 -22.6069
TCL: Running FEP window  17: Lambda1 0.19999999999999968 Lambda2 0.1499999999999997 [dLambda -0.04999999999999999]
TCL: Setting parameter firsttimestep to 0
TCL: Setting parameter alchLambda to 0.19999999999999968
Info: NONBONDED TABLE R-SQUARED SPACING: 0.0625
Info: NONBONDED TABLE SIZE: 705 POINTS
TCL: Setting parameter alchLambda2 to 0.1499999999999997
Info: NONBONDED TABLE R-SQUARED SPACING: 0.0625
Info: NONBONDED TABLE SIZE: 705 POINTS
TCL: Running for 1500000 steps
ETITLE: TS BOND ANGLE DIHED IMPRP ELECT VDW BOUNDARY MISC KINETIC TOTAL TEMP POTENTIAL TOTALAVG TEMPAVG PRESSURE GPRESSURE VOLUME PRESSAVG GPRESSAVG
ENERGY: 0 1.2241 14.2863 4.6913 0.0000 -10674.8253 1448.0451 0.0000 0.0000 1730.4636 -7476.1150 296.3951 -9206.5786 -7476.1150 296.3951 -125.2090 -30.7483 29919.7877 -125.2090 -30.7483
ENERGY: 300000 2.2321 12.4945 5.5632 0.0000 -10695.8056 1500.8742 0.0000 0.0000 1793.1157 -7381.5258 307.1262 -9174.6415 -7417.4295 298.2924 346.4271 469.0303 30212.8811 46.9730 153.9254
ENERGY: 600000 3.4936 11.3311 5.1101 0.0000 -10524.0452 1352.4714 0.0000 0.0000 1776.1289 -7375.5101 304.2167 -9151.6390 -7397.3210 301.0080 -685.1897 -643.8110 30088.3592 4.5121 91.8399
ENERGY: 900000 2.6116 12.5832 6.1137 0.0000 -10498.9239 1388.4106 0.0000 0.0000 1775.8861 -7313.3187 304.1751 -9089.2048 -7378.7144 302.2144 -89.2148 -13.8305 29696.5220 -88.0350 -12.0197
ENERGY: 1200000 7.6464 11.3247 5.1443 0.0000 -10548.5826 1463.0460 0.0000 0.0000 1793.9449 -7267.4762 307.2683 -9061.4211 -7368.1693 302.6372 2.6603 64.7830 30699.8556 -57.0086 19.0097
ENERGY: 1500000 3.5515 8.9989 5.3979 0.0000 -10560.0038 1397.8998 0.0000 0.0000 1784.2349 -7359.9209 305.6051 -9144.1558 -7365.3001 302.9267 -484.3718 -436.1886 30484.3826 -129.2279 -53.9581
TCL: Running FEP window  18: Lambda1 0.1499999999999997 Lambda2 0.09999999999999969 [dLambda -0.05 ]
TCL: Setting parameter firsttimestep to 0
TCL: Setting parameter alchLambda to 0.1499999999999997
Info: NONBONDED TABLE R-SQUARED SPACING: 0.0625
Info: NONBONDED TABLE SIZE: 705 POINTS
TCL: Setting parameter alchLambda2 to 0.09999999999999969
Info: NONBONDED TABLE R-SQUARED SPACING: 0.0625
Info: NONBONDED TABLE SIZE: 705 POINTS
TCL: Running for 1500000 steps
ETITLE: TS BOND ANGLE DIHED IMPRP ELECT VDW BOUNDARY MISC KINETIC TOTAL TEMP POTENTIAL TOTALAVG TEMPAVG PRESSURE GPRESSURE VOLUME PRESSAVG GPRESSAVG
ENERGY: 0 3.5515 8.9989 5.3979 0.0000 -10560.0041 1398.2272 0.0000 0.0000 1783.3484 -7360.4802 305.4533 -9143.8287 -7360.4802 305.4533 -513.3146 -439.0128 30484.3826 -513.3146 -439.0128
ENERGY: 300000 2.9510 12.7812 4.5654 0.0000 -10597.5020 1387.8570 0.0000 0.0000 1763.1488 -7426.1986 301.9935 -9189.3474 -7346.5955 303.3402 -708.9923 -637.6031 30338.6743 -611.3644 -545.5864
ENERGY: 600000 6.2045 11.4935 5.1692 0.0000 -10605.8211 1449.7076 0.0000 0.0000 1705.8283 -7427.4179 292.1756 -9133.2463 -7363.3604 303.0235 143.1902 138.8922 30210.5844 -206.9162 -148.6137
ENERGY: 900000 2.3887 14.6493 4.8972 0.0000 -10604.3472 1465.6497 0.0000 0.0000 1803.6659 -7313.0963 308.9333 -9116.7623 -7357.3151 302.2124 307.4899 276.3522 30255.2335 -220.5337 -160.3755
ENERGY: 1200000 2.7850 12.7908 5.6443 0.0000 -10435.4236 1295.2174 0.0000 0.0000 1700.2219 -7418.7642 291.2153 -9118.9860 -7364.8008 301.2795 -1171.9296 -1113.3732 30680.7188 -321.9955 -259.4437
ENERGY: 1500000 0.4776 11.9708 4.9208 0.0000 -10729.5442 1490.3663 0.0000 0.0000 1747.9770 -7473.8317 299.3948 -9221.8087 -7375.6244 300.6102 501.4692 611.3623 29689.5717 -343.2414 -277.6393
TCL: Running FEP window  19: Lambda1 0.09999999999999969 Lambda2 0.049999999999999684 [dLambda -0.05 ]
TCL: Setting parameter firsttimestep to 0
TCL: Setting parameter alchLambda to 0.09999999999999969
Info: NONBONDED TABLE R-SQUARED SPACING: 0.0625
Info: NONBONDED TABLE SIZE: 705 POINTS
TCL: Setting parameter alchLambda2 to 0.049999999999999684
Info: NONBONDED TABLE R-SQUARED SPACING: 0.0625
Info: NONBONDED TABLE SIZE: 705 POINTS
TCL: Running for 1500000 steps
ETITLE: TS BOND ANGLE DIHED IMPRP ELECT VDW BOUNDARY MISC KINETIC TOTAL TEMP POTENTIAL TOTALAVG TEMPAVG PRESSURE GPRESSURE VOLUME PRESSAVG GPRESSAVG
ENERGY: 0 0.4776 11.9708 4.9208 0.0000 -10729.5441 1490.1471 0.0000 0.0000 1747.0614 -7474.9664 299.2380 -9222.0278 -7474.9664 299.2380 513.4449 606.4264 29689.5717 513.4449 606.4264
ENERGY: 300000 2.0028 13.1088 5.1859 0.0000 -10638.4037 1474.4962 0.0000 0.0000 1773.2661 -7370.3439 303.7264 -9143.6100 -7407.7527 300.3369 274.8251 275.5119 30163.5545 141.0285 197.2003
ENERGY: 600000 2.1702 11.0053 4.7506 0.0000 -10542.9112 1428.9266 0.0000 0.0000 1762.1590 -7333.8995 301.8239 -9096.0584 -7410.7652 300.6659 0.1921 104.8365 30060.9653 159.4549 235.6246
ENERGY: 900000 0.8142 14.4676 5.2872 0.0000 -10498.8604 1432.2452 0.0000 0.0000 1771.1371 -7274.9091 303.3617 -9046.0463 -7402.0777 300.0799 96.9235 163.8694 30431.4263 79.0032 154.8394
ENERGY: 1200000 1.9544 11.2304 4.5995 0.0000 -10528.3825 1409.9354 0.0000 0.0000 1835.9396 -7264.7231 314.4611 -9100.6628 -7392.1755 301.0827 -290.9749 -249.2679 30817.1013 -23.5657 38.9948
ENERGY: 1500000 1.8681 13.0034 6.0141 0.0000 -10584.0900 1418.9030 0.0000 0.0000 1741.2956 -7403.0057 298.2504 -9144.3013 -7386.0873 300.6312 -249.2625 -252.0625 30195.3182 -36.8421 24.0676
TCL: Running FEP window  20: Lambda1 0.049999999999999684 Lambda2 0.0    [dLambda -0.049999999999999684]
TCL: Setting parameter firsttimestep to 0
TCL: Setting parameter alchLambda to 0.049999999999999684
Info: NONBONDED TABLE R-SQUARED SPACING: 0.0625
Info: NONBONDED TABLE SIZE: 705 POINTS
TCL: Setting parameter alchLambda2 to 0.0
Info: NONBONDED TABLE R-SQUARED SPACING: 0.0625
Info: NONBONDED TABLE SIZE: 705 POINTS
TCL: Running for 1500000 steps
ETITLE: TS BOND ANGLE DIHED IMPRP ELECT VDW BOUNDARY MISC KINETIC TOTAL TEMP POTENTIAL TOTALAVG TEMPAVG PRESSURE GPRESSURE VOLUME PRESSAVG GPRESSAVG
ENERGY: 0 1.8681 13.0034 6.0141 0.0000 -10584.0914 1418.4377 0.0000 0.0000 1740.4398 -7404.3282 298.1039 -9144.7680 -7404.3282 298.1039 -337.5426 -259.1568 30195.3182 -337.5426 -259.1568
ENERGY: 300000 2.4635 5.7769 4.8236 0.0000 -10651.2848 1498.9307 0.0000 0.0000 1739.9152 -7399.3751 298.0140 -9139.2903 -7393.2401 300.8067 435.0714 474.1481 30288.3242 -246.8156 -162.1634
ENERGY: 600000 1.4488 13.9398 5.3363 0.0000 -10549.5103 1410.4892 0.0000 0.0000 1750.6397 -7367.6565 299.8509 -9118.2962 -7414.6383 297.3100 -206.4743 -141.0545 30093.9746 -196.4127 -123.0998
ENERGY: 900000 3.0708 9.4001 5.9270 0.0000 -10570.0793 1417.1858 0.0000 0.0000 1751.1529 -7383.3426 299.9388 -9134.4955 -7403.8505 298.2352 -49.9096 -32.1523 29878.4053 -134.2838 -80.6564
ENERGY: 1200000 4.0807 10.9380 4.6912 0.0000 -10725.0811 1445.6307 0.0000 0.0000 1707.2711 -7552.4693 292.4227 -9259.7405 -7417.0039 297.4884 -139.2371 -34.3320 29396.7218 -115.3527 -58.8835
ENERGY: 1500000 4.9110 11.4553 6.2962 0.0000 -10644.3973 1489.9242 0.0000 0.0000 1719.2580 -7412.5526 294.4758 -9131.8106 -7409.8227 297.7406 433.5874 497.4734 29866.2921 -105.7835 -52.4261
TCL: Exiting due to exit command.
