Info: SIMULATION PARAMETERS:
Info: TIMESTEP               2
Info: NUMBER OF STEPS        0
Info: STEPS PER CYCLE        10
Info: PERIODIC CELL BASIS 1  31.7239 0 0
Info: PERIODIC CELL BASIS 2  0 31.5247 0
Info: PERIODIC CELL BASIS 3  0 0 30.7978
Info: PERIODIC CELL CENTER   0 0 0
Info: WRAPPING WATERS AROUND PERIODIC BOUNDARIES ON OUTPUT.
Info: WRAPPING ALL CLUSTERS AROUND PERIODIC BOUNDARIES ON OUTPUT.
Info: FIRST LDB TIMESTEP     50
Info: LAST LDB TIMESTEP     -1
Info: HOM BACKGROUND SCALING 1
Info: PME BACKGROUND SCALING 1
Info: MIN ATOMS PER PATCH    40
Info: EMPTY PATCH LOAD       40 ATOMS
Info: VELOCITY FILE          mobley_2492140_equil.vel
Info: CENTER OF MASS MOVING INITIALLY? NO
Info: DIELECTRIC             1
Info: EXCLUDE                SCALED ONE-FOUR
Info: 1-4 ELECTROSTATICS SCALED BY 0.833333
Info: MODIFIED 1-4 VDW PARAMETERS WILL BE USED
Info: DCD FILENAME           mobley_2492140_prod.dcd
Info: DCD FREQUENCY          100000
Info: DCD FIRST STEP         100000
Info: DCD FILE WILL CONTAIN UNIT CELL DATA
Info: XST FILENAME           mobley_2492140_prod.xst
Info: XST FREQUENCY          100000
Info: NO VELOCITY DCD OUTPUT
Info: NO FORCE DCD OUTPUT
Info: OUTPUT FILENAME        mobley_2492140_prod
Info: BINARY OUTPUT FILES WILL BE USED
Info: RESTART FILENAME       mobley_2492140_prod.restart
Info: RESTART FREQUENCY      100000
Info: BINARY RESTART FILES WILL BE USED
Info: CUTOFF                 9
Info: PAIRLIST DISTANCE      11
Info: PAIRLIST SHRINK RATE   0.01
Info: PAIRLIST GROW RATE     0.01
Info: PAIRLIST TRIGGER       0.3
Info: PAIRLISTS PER CYCLE    2
Info: PAIRLISTS ENABLED
Info: MARGIN                 2
Info: HYDROGEN GROUP CUTOFF  2.5
Info: PATCH DIMENSION        15.5
Info: ENERGY OUTPUT STEPS    100000
Info: ENERGY EVALUATION STEPS    100000
Info: OUTPUT ENERGY PRECISION 4
Info: CROSSTERM ENERGY INCLUDED IN DIHEDRAL
Info: TIMING OUTPUT STEPS    1000000
Info: PRESSURE OUTPUT STEPS  100000
Info: ALCHEMICAL FEP ON
Info: FEP CURRENT LAMBDA VALUE     1
Info: FEP COMPARISON LAMBDA VALUE  0.95
Info: FEP INTRA-ALCHEMICAL NON-BONDED INTERACTIONS WILL BE RETAINED
Info: FEP INTRA-ALCHEMICAL BONDED INTERACTIONS WILL BE RETAINED
Info: FEP VDW SHIFTING COEFFICIENT 5
Info: FEP ELEC. ACTIVE FOR ANNIHILATED PARTICLES BETWEEN LAMBDA = 0 AND LAMBDA = 0.5
Info: FEP ELEC. ACTIVE FOR EXNIHILATED PARTICLES BETWEEN LAMBDA = 0.5 AND LAMBDA = 1
Info: FEP VDW ACTIVE FOR ANNIHILATED PARTICLES BETWEEN LAMBDA = 0 AND LAMBDA = 1
Info: FEP VDW ACTIVE FOR EXNIHILATED PARTICLES BETWEEN LAMBDA = 0 AND LAMBDA = 1
Info: FEP BOND ACTIVE FOR ANNIHILATED PARTICLES BETWEEN LAMBDA = 1 AND LAMBDA = 1
Info: FEP BOND ACTIVE FOR EXNIHILATED PARTICLES BETWEEN LAMBDA = 0 AND LAMBDA = 0
Info: LANGEVIN DYNAMICS ACTIVE
Info: LANGEVIN TEMPERATURE   300
Info: LANGEVIN USING BBK INTEGRATOR
Info: LANGEVIN DAMPING COEFFICIENT IS 1 INVERSE PS
Info: LANGEVIN DYNAMICS APPLIED TO HYDROGENS
Info: LANGEVIN PISTON PRESSURE CONTROL ACTIVE
Info:        TARGET PRESSURE IS 1.01325 BAR
Info:     OSCILLATION PERIOD IS 50 FS
Info:             DECAY TIME IS 25 FS
Info:     PISTON TEMPERATURE IS 300 K
Info:       PRESSURE CONTROL IS GROUP-BASED
Info:    INITIAL STRAIN RATE IS 0.000252911 0.000252911 0.000252911
Info:       CELL FLUCTUATION IS ISOTROPIC
Info: PARTICLE MESH EWALD (PME) ACTIVE
Info: PME TOLERANCE               1e-06
Info: PME EWALD COEFFICIENT       0.348832
Info: PME INTERPOLATION ORDER     4
Info: PME GRID DIMENSIONS         32 32 32
Info: PME MAXIMUM GRID SPACING    1
Info: PME CALCULATION WILL BE PERFORMED ON GPU
Info: FULL ELECTROSTATIC EVALUATION FREQUENCY      2
Info: USING VERLET I (r-RESPA) MTS SCHEME.
Info: C1 SPLITTING OF LONG RANGE ELECTROSTATICS
Info: PLACING ATOMS IN PATCHES BY HYDROGEN GROUPS
Info: RIGID BONDS TO HYDROGEN : ALL
Info:         ERROR TOLERANCE : 1e-08
Info:          MAX ITERATIONS : 100
Info: RIGID WATER USING SETTLE ALGORITHM
Info: RANDOM NUMBER SEED     1743499813
Info: USE HYDROGEN BONDS?    NO
Info: Using AMBER format force field!
Info: AMBER PARM FILE        mobley_2492140.prmtop
Info: COORDINATE PDB         mobley_2492140.pdb
Info: Exclusions will be read from PARM file!
Info: SCNB (VDW SCALING)     2
Info: USING ARITHMETIC MEAN TO COMBINE L-J SIGMA PARAMETERS
Info: BINARY COORDINATES     mobley_2492140_equil.coor
Info: SUMMARY OF PARAMETERS:
Info: 5 BONDS
Info: 4 ANGLES
Info:   4 HARMONIC
Info:   0 COSINE-BASED
Info: 3 DIHEDRAL
Info: 0 IMPROPER
Info: 0 CROSSTERM
Info: 0 VDW
Info: 15 VDW_PAIRS
Info: 0 NBTHOLE_PAIRS
Info: To read alchdata from file: mobley_2492140.pdb
Info: To read alchflag data from column: 5
Info: STRUCTURE SUMMARY:
Info: 2960 ATOMS
Info: 2959 BONDS
Info: 12 ANGLES
Info: 15 DIHEDRALS
Info: 0 IMPROPERS
Info: 0 CROSSTERMS
Info: 2980 EXCLUSIONS
Info: 2953 RIGID BONDS
Info: ALCH: 0 ATOMS TO DISAPPEAR IN FINAL STATE
Info: ALCH: 8 ATOMS TO APPEAR IN FINAL STATE
Info: 5927 DEGREES OF FREEDOM
Info: 991 HYDROGEN GROUPS
Info: 3 ATOMS IN LARGEST HYDROGEN GROUP
Info: 991 MIGRATION GROUPS
Info: 3 ATOMS IN LARGEST MIGRATION GROUP
Info: TOTAL MASS = 17930 amu
Info: TOTAL CHARGE = 0 e
Info: MASS DENSITY = 0.96668 g/cm^3
Info: ATOM DENSITY = 0.0961025 atoms/A^3
Info: ADDED 0 IMPLICIT EXCLUSIONS
Info: NONBONDED TABLE R-SQUARED SPACING: 0.0625
Info: NONBONDED TABLE SIZE: 705 POINTS
Info: REDUCING NUMBER OF PATCHES TO IMPROVE LOAD BALANCE
Info: REMOVING COM VELOCITY -0.190236 -0.159503 0.112951
Info: Use 3D box decompostion in PME FFT.
Info: Updated CUDA force table with 4096 elements.
Info: Updated CUDA LJ table with 5 x 5 elements.
Info: Found 11 unique exclusion lists needing 16 bytes
TCL: Running for 1500000 steps
ETITLE: TS BOND ANGLE DIHED IMPRP ELECT VDW BOUNDARY MISC KINETIC TOTAL TEMP POTENTIAL TOTALAVG TEMPAVG PRESSURE GPRESSURE VOLUME PRESSAVG GPRESSAVG
ENERGY: 0 1.4678 3.4370 2.8980 0.0000 -10683.2603 1431.6725 0.0000 0.0000 1766.9116 -7476.8734 300.0339 -9243.7850 -7476.8734 300.0339 -61.5375 12.0282 30800.4614 -61.5375 12.0282
ENERGY: 300000 1.6920 5.2312 2.9023 0.0000 -10710.3662 1430.9068 0.0000 0.0000 1722.1186 -7547.5152 292.4277 -9269.6339 -7530.8443 296.9016 -23.4039 74.6347 30680.1897 -91.0276 -31.7865
ENERGY: 600000 3.3384 3.3355 2.7815 0.0000 -10827.8999 1523.8948 0.0000 0.0000 1805.7346 -7488.8151 306.6263 -9294.5497 -7532.0890 301.0194 427.1136 483.0354 30697.9255 70.2450 126.2722
ENERGY: 900000 3.5241 3.8233 2.7566 0.0000 -10597.8523 1414.4758 0.0000 0.0000 1733.9571 -7439.3153 294.4380 -9173.2724 -7538.4782 298.9609 -256.3903 -177.4157 31127.1864 5.8323 71.9024
ENERGY: 1200000 0.3622 1.8461 2.8892 0.0000 -10748.4544 1432.0080 0.0000 0.0000 1740.7101 -7570.6388 295.5847 -9311.3489 -7522.8242 300.4976 -111.3022 -150.3517 30828.0535 -45.1508 6.4088
ENERGY: 1500000 0.7101 2.7243 2.7308 0.0000 -10668.9114 1470.5282 0.0000 0.0000 1808.9305 -7383.2875 307.1690 -9192.2180 -7517.6897 301.2593 355.5786 417.6278 30743.4222 24.0139 81.4792
TCL: Running FEP window   2: Lambda1 0.95   Lambda2 0.8999999999999999 [dLambda -0.050000000000000044]
TCL: Setting parameter firsttimestep to 0
TCL: Setting parameter alchLambda to 0.95
Info: NONBONDED TABLE R-SQUARED SPACING: 0.0625
Info: NONBONDED TABLE SIZE: 705 POINTS
TCL: Setting parameter alchLambda2 to 0.8999999999999999
Info: NONBONDED TABLE R-SQUARED SPACING: 0.0625
Info: NONBONDED TABLE SIZE: 705 POINTS
TCL: Running for 1500000 steps
ETITLE: TS BOND ANGLE DIHED IMPRP ELECT VDW BOUNDARY MISC KINETIC TOTAL TEMP POTENTIAL TOTALAVG TEMPAVG PRESSURE GPRESSURE VOLUME PRESSAVG GPRESSAVG
ENERGY: 0 0.7101 2.7243 2.7308 0.0000 -10668.7841 1471.0963 0.0000 0.0000 1808.0764 -7383.4461 307.0239 -9191.5225 -7383.4461 307.0239 323.7257 412.4546 30743.4222 323.7257 412.4546
ENERGY: 300000 1.9416 2.4291 2.7230 0.0000 -10592.1689 1366.9291 0.0000 0.0000 1706.3386 -7511.8076 289.7482 -9218.1462 -7501.9662 298.4409 -666.5647 -589.6315 31126.8687 -180.6576 -128.5860
ENERGY: 600000 5.0166 6.8401 2.9017 0.0000 -10693.6485 1377.6341 0.0000 0.0000 1751.6614 -7549.5946 297.4443 -9301.2560 -7508.4124 299.9467 -721.3058 -705.4227 31049.9670 -281.2180 -225.7112
ENERGY: 900000 1.9152 2.1954 2.7238 0.0000 -10725.5489 1449.9147 0.0000 0.0000 1855.3664 -7413.4334 315.0541 -9268.7998 -7514.4016 299.9120 406.4156 511.9946 30139.1597 -121.4707 -62.2914
ENERGY: 1200000 2.2978 3.8962 2.6631 0.0000 -10738.9598 1345.9293 0.0000 0.0000 1847.7509 -7536.4226 313.7609 -9384.1734 -7521.6382 300.3613 -1045.4347 -942.0885 30655.7585 -228.4855 -169.4125
ENERGY: 1500000 0.0712 3.8853 2.7424 0.0000 -10864.8748 1528.7185 0.0000 0.0000 1759.2404 -7570.2170 298.7312 -9329.4573 -7535.3196 299.2406 807.5075 813.7556 30134.7436 -155.2310 -98.9713
TCL: Running FEP window   3: Lambda1 0.8999999999999999 Lambda2 0.8499999999999999 [dLambda -0.050000000000000044]
TCL: Setting parameter firsttimestep to 0
TCL: Setting parameter alchLambda to 0.8999999999999999
Info: NONBONDED TABLE R-SQUARED SPACING: 0.0625
Info: NONBONDED TABLE SIZE: 705 POINTS
TCL: Setting parameter alchLambda2 to 0.8499999999999999
Info: NONBONDED TABLE R-SQUARED SPACING: 0.0625
Info: NONBONDED TABLE SIZE: 705 POINTS
TCL: Running for 1500000 steps
ETITLE: TS BOND ANGLE DIHED IMPRP ELECT VDW BOUNDARY MISC KINETIC TOTAL TEMP POTENTIAL TOTALAVG TEMPAVG PRESSURE GPRESSURE VOLUME PRESSAVG GPRESSAVG
ENERGY: 0 0.0712 3.8853 2.7424 0.0000 -10864.7121 1528.1700 0.0000 0.0000 1758.3166 -7571.5266 298.5744 -9329.8432 -7571.5266 298.5744 709.0268 793.8018 30134.7436 709.0268 793.8018
ENERGY: 300000 2.0761 2.8769 2.8036 0.0000 -10825.6891 1506.8276 0.0000 0.0000 1827.2416 -7483.8634 310.2783 -9311.1049 -7548.9208 298.4340 317.5595 391.3020 30750.3320 348.9268 427.3447
ENERGY: 600000 1.0026 7.3727 2.8221 0.0000 -10747.2991 1456.4185 0.0000 0.0000 1746.6754 -7533.0079 296.5976 -9279.6832 -7557.7587 297.4847 240.4472 336.7506 30587.0258 238.6721 306.7419
ENERGY: 900000 3.0795 2.4451 2.7725 0.0000 -10840.4466 1494.3973 0.0000 0.0000 1790.1994 -7547.5528 303.9883 -9337.7521 -7548.3073 298.1969 217.5420 293.9321 30706.0758 170.3591 237.8665
ENERGY: 1200000 3.7123 1.9083 2.7208 0.0000 -10643.8200 1397.0851 0.0000 0.0000 1760.1655 -7478.2279 298.8883 -9238.3935 -7529.9987 299.0208 -399.3753 -316.3593 30774.1446 147.2740 210.0683
ENERGY: 1500000 2.4621 4.9060 2.7908 0.0000 -10632.6787 1373.5898 0.0000 0.0000 1777.4685 -7471.4615 301.8265 -9248.9300 -7530.5703 298.7830 -528.0650 -469.9150 30928.9021 53.6441 117.2647
TCL: Running FEP window   4: Lambda1 0.8499999999999999 Lambda2 0.7999999999999998 [dLambda -0.050000000000000044]
TCL: Setting parameter firsttimestep to 0
TCL: Setting parameter alchLambda to 0.8499999999999999
Info: NONBONDED TABLE R-SQUARED SPACING: 0.0625
Info: NONBONDED TABLE SIZE: 705 POINTS
TCL: Setting parameter alchLambda2 to 0.7999999999999998
Info: NONBONDED TABLE R-SQUARED SPACING: 0.0625
Info: NONBONDED TABLE SIZE: 705 POINTS
TCL: Running for 1500000 steps
ETITLE: TS BOND ANGLE DIHED IMPRP ELECT VDW BOUNDARY MISC KINETIC TOTAL TEMP POTENTIAL TOTALAVG TEMPAVG PRESSURE GPRESSURE VOLUME PRESSAVG GPRESSAVG
ENERGY: 0 2.4621 4.9060 2.7908 0.0000 -10632.5305 1374.0786 0.0000 0.0000 1776.5865 -7471.7065 301.6767 -9248.2930 -7471.7065 301.6767 -548.1404 -472.5687 30928.9021 -548.1404 -472.5687
ENERGY: 300000 3.8060 1.6824 2.6926 0.0000 -10829.3384 1472.7752 0.0000 0.0000 1784.4049 -7563.9773 303.0043 -9348.3822 -7527.2587 301.0122 231.6627 295.2245 30173.9401 307.0095 395.5288
ENERGY: 600000 1.8454 1.4765 2.8348 0.0000 -10748.9686 1468.2070 0.0000 0.0000 1782.8928 -7491.7121 302.7476 -9274.6049 -7543.2566 299.6063 290.0257 356.4043 30534.2767 245.7781 320.4462
ENERGY: 900000 2.7117 5.0705 2.9347 0.0000 -10727.6156 1456.1839 0.0000 0.0000 1825.7030 -7435.0118 310.0171 -9260.7148 -7526.7595 300.5941 497.3023 526.0243 30345.3288 203.5845 265.6193
ENERGY: 1200000 3.8024 4.2886 2.7034 0.0000 -10737.4249 1423.7061 0.0000 0.0000 1738.6257 -7564.2986 295.2307 -9302.9243 -7546.1519 299.0000 -202.3446 -195.9561 30769.8401 142.1443 203.0254
ENERGY: 1500000 0.4928 5.5678 2.6873 0.0000 -10696.1076 1422.6383 0.0000 0.0000 1754.9763 -7509.7452 298.0072 -9264.7215 -7540.0703 298.9204 -333.0597 -303.6996 31009.8568 45.1132 98.4734
TCL: Running FEP window   5: Lambda1 0.7999999999999998 Lambda2 0.7499999999999998 [dLambda -0.050000000000000044]
TCL: Setting parameter firsttimestep to 0
TCL: Setting parameter alchLambda to 0.7999999999999998
Info: NONBONDED TABLE R-SQUARED SPACING: 0.0625
Info: NONBONDED TABLE SIZE: 705 POINTS
TCL: Setting parameter alchLambda2 to 0.7499999999999998
Info: NONBONDED TABLE R-SQUARED SPACING: 0.0625
Info: NONBONDED TABLE SIZE: 705 POINTS
TCL: Running for 1500000 steps
ETITLE: TS BOND ANGLE DIHED IMPRP ELECT VDW BOUNDARY MISC KINETIC TOTAL TEMP POTENTIAL TOTALAVG TEMPAVG PRESSURE GPRESSURE VOLUME PRESSAVG GPRESSAVG
ENERGY: 0 0.4928 5.5678 2.6873 0.0000 -10695.7094 1423.1967 0.0000 0.0000 1754.1051 -7509.6598 297.8592 -9263.7649 -7509.6598 297.8592 -371.0713 -307.4879 31009.8568 -371.0713 -307.4879
ENERGY: 300000 3.2509 1.8736 2.8679 0.0000 -10771.3305 1469.8757 0.0000 0.0000 1776.1459 -7517.3165 301.6019 -9293.4624 -7492.0693 300.8086 276.0833 346.7183 30305.7346 35.4341 107.3436
ENERGY: 600000 4.0583 2.8072 2.7282 0.0000 -10732.7885 1448.5965 0.0000 0.0000 1752.5969 -7522.0013 297.6031 -9274.5983 -7511.2056 300.0850 -194.5469 -81.5482 30645.8426 67.3919 126.2259
ENERGY: 900000 1.2925 2.6081 2.6951 0.0000 -10727.0247 1425.1474 0.0000 0.0000 1829.4668 -7465.8149 310.6562 -9295.2817 -7518.7923 302.6161 4.0989 44.2139 30419.3408 -87.4128 -19.3624
ENERGY: 1200000 1.5262 2.6589 2.6886 0.0000 -10730.5657 1402.4159 0.0000 0.0000 1752.8122 -7568.4638 297.6397 -9321.2761 -7526.7284 301.9192 -441.3425 -384.4123 30354.3339 -151.1382 -95.3593
ENERGY: 1500000 2.3091 5.7108 2.9116 0.0000 -10598.8418 1348.5749 0.0000 0.0000 1787.4278 -7451.9077 303.5177 -9239.3355 -7517.0359 302.3274 -651.9243 -664.2403 30542.3668 -216.1419 -169.3647
TCL: Running FEP window   6: Lambda1 0.7499999999999998 Lambda2 0.6999999999999997 [dLambda -0.050000000000000044]
TCL: Setting parameter firsttimestep to 0
TCL: Setting parameter alchLambda to 0.7499999999999998
Info: NONBONDED TABLE R-SQUARED SPACING: 0.0625
Info: NONBONDED TABLE SIZE: 705 POINTS
TCL: Setting parameter alchLambda2 to 0.6999999999999997
Info: NONBONDED TABLE R-SQUARED SPACING: 0.0625
Info: NONBONDED TABLE SIZE: 705 POINTS
TCL: Running for 1500000 steps
ETITLE: TS BOND ANGLE DIHED IMPRP ELECT VDW BOUNDARY MISC KINETIC TOTAL TEMP POTENTIAL TOTALAVG TEMPAVG PRESSURE GPRESSURE VOLUME PRESSAVG GPRESSAVG
ENERGY: 0 2.3091 5.7108 2.9116 0.0000 -10598.8356 1349.1526 0.0000 0.0000 1786.5021 -7452.2494 303.3605 -9238.7515 -7452.2494 303.3605 -746.5028 -665.3210 30542.3668 -746.5028 -665.3210
ENERGY: 300000 1.2833 4.4441 2.7685 0.0000 -10804.5407 1402.7113 0.0000 0.0000 1768.9799 -7624.3536 300.3851 -9393.3335 -7516.8733 302.5469 -659.3492 -577.8470 30410.6050 -130.5343 -52.8562
ENERGY: 600000 1.0945 3.5710 2.6491 0.0000 -10709.2375 1454.0336 0.0000 0.0000 1773.9226 -7473.9667 301.2244 -9247.8894 -7481.2968 302.0348 190.2281 255.0431 30693.5392 57.3969 126.9587
ENERGY: 900000 2.6250 3.5523 2.8408 0.0000 -10808.3888 1453.4420 0.0000 0.0000 1766.7249 -7579.2038 300.0022 -9345.9286 -7485.8398 302.2556 71.2372 169.1278 30130.8714 68.6966 142.3552
ENERGY: 1200000 2.0317 3.2241 3.1447 0.0000 -10682.4252 1400.6314 0.0000 0.0000 1803.0187 -7470.3746 306.1651 -9273.3933 -7494.4706 301.8165 -324.9712 -313.8989 31171.3491 7.5313 70.0625
ENERGY: 1500000 1.0885 2.7020 2.7292 0.0000 -10721.3798 1410.6053 0.0000 0.0000 1772.8268 -7531.4281 301.0383 -9304.2549 -7507.8075 301.7994 -190.9691 -162.0783 30494.3020 12.7815 74.3889
TCL: Running FEP window   7: Lambda1 0.6999999999999997 Lambda2 0.6499999999999997 [dLambda -0.050000000000000044]
TCL: Setting parameter firsttimestep to 0
TCL: Setting parameter alchLambda to 0.6999999999999997
Info: NONBONDED TABLE R-SQUARED SPACING: 0.0625
Info: NONBONDED TABLE SIZE: 705 POINTS
TCL: Setting parameter alchLambda2 to 0.6499999999999997
Info: NONBONDED TABLE R-SQUARED SPACING: 0.0625
Info: NONBONDED TABLE SIZE: 705 POINTS
TCL: Running for 1500000 steps
ETITLE: TS BOND ANGLE DIHED IMPRP ELECT VDW BOUNDARY MISC KINETIC TOTAL TEMP POTENTIAL TOTALAVG TEMPAVG PRESSURE GPRESSURE VOLUME PRESSAVG GPRESSAVG
ENERGY: 0 1.0885 2.7020 2.7292 0.0000 -10721.2281 1410.8916 0.0000 0.0000 1771.9488 -7531.8680 300.8892 -9303.8168 -7531.8680 300.8892 -250.2068 -170.7133 30494.3020 -250.2068 -170.7133
ENERGY: 300000 1.4596 2.5656 2.8455 0.0000 -10858.8089 1520.8407 0.0000 0.0000 1756.2269 -7574.8705 298.2195 -9331.0974 -7512.0973 304.1311 296.7017 320.6990 30794.7257 -149.0515 -96.4240
ENERGY: 600000 2.2043 4.0500 2.8004 0.0000 -10966.9635 1577.0031 0.0000 0.0000 1798.0343 -7582.8715 305.3187 -9380.9058 -7518.0945 303.5034 966.6693 959.6030 30621.8407 41.8988 87.6749
ENERGY: 900000 3.4711 1.9837 2.7557 0.0000 -10654.1706 1417.4716 0.0000 0.0000 1782.4982 -7445.9901 302.6806 -9228.4883 -7510.0614 301.7791 35.5750 129.5248 30722.8719 -58.4121 -0.9814
ENERGY: 1200000 2.8882 3.5690 2.7744 0.0000 -10865.0893 1517.1580 0.0000 0.0000 1711.1205 -7627.5792 290.5602 -9338.6998 -7514.6546 301.4260 219.6850 337.9477 30412.3347 -53.2389 10.9118
ENERGY: 1500000 4.4910 3.1568 2.7409 0.0000 -10651.1316 1403.7886 0.0000 0.0000 1718.2028 -7518.7515 291.7628 -9236.9543 -7521.9993 300.5304 -322.5982 -261.8213 30706.1053 51.2673 112.8909
TCL: Running FEP window   8: Lambda1 0.6499999999999997 Lambda2 0.5999999999999996 [dLambda -0.050000000000000044]
TCL: Setting parameter firsttimestep to 0
TCL: Setting parameter alchLambda to 0.6499999999999997
Info: NONBONDED TABLE R-SQUARED SPACING: 0.0625
Info: NONBONDED TABLE SIZE: 705 POINTS
TCL: Setting parameter alchLambda2 to 0.5999999999999996
Info: NONBONDED TABLE R-SQUARED SPACING: 0.0625
Info: NONBONDED TABLE SIZE: 705 POINTS
TCL: Running for 1500000 steps
ETITLE: TS BOND ANGLE DIHED IMPRP ELECT VDW BOUNDARY MISC KINETIC TOTAL TEMP POTENTIAL TOTALAVG TEMPAVG PRESSURE GPRESSURE VOLUME PRESSAVG GPRESSAVG
ENERGY: 0 4.4910 3.1568 2.7409 0.0000 -10651.1141 1404.0568 0.0000 0.0000 1717.3527 -7519.3158 291.6184 -9236.6685 -7519.3158 291.6184 -354.7388 -268.4741 30706.1053 -354.7388 -268.4741
ENERGY: 300000 2.4195 3.8349 2.7546 0.0000 -10616.3956 1359.1403 0.0000 0.0000 1763.2411 -7485.0052 299.4106 -9248.2463 -7503.2752 301.0066 -789.9197 -740.0835 31127.9648 -362.7821 -299.5006
ENERGY: 600000 1.4951 2.9986 2.7594 0.0000 -10822.4296 1445.5776 0.0000 0.0000 1757.0941 -7612.5049 298.3668 -9369.5990 -7496.3247 302.5523 -82.5266 -28.1722 30166.1583 -187.2096 -118.0072
ENERGY: 900000 1.9445 5.4331 2.8348 0.0000 -10766.6669 1471.8153 0.0000 0.0000 1760.2707 -7524.3685 298.9062 -9284.6391 -7496.2935 301.0718 104.3148 142.9038 30583.7617 -136.6940 -73.6077
ENERGY: 1200000 1.0211 3.7319 2.6893 0.0000 -10816.0357 1509.7859 0.0000 0.0000 1766.5894 -7532.2182 299.9791 -9298.8076 -7504.5185 301.1019 808.2601 832.4336 30213.9365 -50.0320 7.6267
ENERGY: 1500000 1.8741 1.9193 2.7391 0.0000 -10667.8306 1405.6075 0.0000 0.0000 1798.9623 -7456.7282 305.4763 -9255.6905 -7509.8371 301.4693 -323.5730 -283.4069 30595.9327 43.2793 96.8111
TCL: Running FEP window   9: Lambda1 0.5999999999999996 Lambda2 0.5499999999999996 [dLambda -0.050000000000000044]
TCL: Setting parameter firsttimestep to 0
TCL: Setting parameter alchLambda to 0.5999999999999996
Info: NONBONDED TABLE R-SQUARED SPACING: 0.0625
Info: NONBONDED TABLE SIZE: 705 POINTS
TCL: Setting parameter alchLambda2 to 0.5499999999999996
Info: NONBONDED TABLE R-SQUARED SPACING: 0.0625
Info: NONBONDED TABLE SIZE: 705 POINTS
TCL: Running for 1500000 steps
ETITLE: TS BOND ANGLE DIHED IMPRP ELECT VDW BOUNDARY MISC KINETIC TOTAL TEMP POTENTIAL TOTALAVG TEMPAVG PRESSURE GPRESSURE VOLUME PRESSAVG GPRESSAVG
ENERGY: 0 1.8741 1.9193 2.7391 0.0000 -10667.8898 1406.1620 0.0000 0.0000 1798.0584 -7457.1368 305.3228 -9255.1952 -7457.1368 305.3228 -363.5500 -282.6574 30595.9327 -363.5500 -282.6574
ENERGY: 300000 2.4778 4.6214 2.8007 0.0000 -10750.6173 1428.1208 0.0000 0.0000 1754.0178 -7558.5789 297.8444 -9312.5967 -7505.1124 302.7441 -166.5483 -73.5264 30134.8471 -127.5093 -71.2777
ENERGY: 600000 1.4862 2.8538 2.7345 0.0000 -10645.1826 1358.9698 0.0000 0.0000 1779.9156 -7499.2227 302.2420 -9279.1384 -7495.3817 303.4912 -873.0137 -814.4454 31022.2128 -219.7297 -162.2493
ENERGY: 900000 0.5475 1.8641 2.7656 0.0000 -10572.2811 1317.7392 0.0000 0.0000 1810.2370 -7439.1277 307.3908 -9249.3647 -7485.3559 303.7502 -922.7196 -864.7740 30590.8354 -228.2524 -174.0369
ENERGY: 1200000 0.7731 3.2003 2.7341 0.0000 -10948.5122 1570.0428 0.0000 0.0000 1721.1168 -7650.6450 292.2576 -9371.7618 -7497.6103 302.8441 975.5282 988.9941 30258.1984 -144.1981 -97.4364
ENERGY: 1500000 1.2842 4.0952 2.6752 0.0000 -10645.0792 1349.1383 0.0000 0.0000 1738.5665 -7549.3199 295.2207 -9287.8863 -7499.6482 301.8013 -739.6350 -657.3923 30466.6853 -172.5911 -125.0919
TCL: Running FEP window  10: Lambda1 0.5499999999999996 Lambda2 0.4999999999999996 [dLambda -0.04999999999999999]
TCL: Setting parameter firsttimestep to 0
TCL: Setting parameter alchLambda to 0.5499999999999996
Info: NONBONDED TABLE R-SQUARED SPACING: 0.0625
Info: NONBONDED TABLE SIZE: 705 POINTS
TCL: Setting parameter alchLambda2 to 0.4999999999999996
Info: NONBONDED TABLE R-SQUARED SPACING: 0.0625
Info: NONBONDED TABLE SIZE: 705 POINTS
TCL: Running for 1500000 steps
ETITLE: TS BOND ANGLE DIHED IMPRP ELECT VDW BOUNDARY MISC KINETIC TOTAL TEMP POTENTIAL TOTALAVG TEMPAVG PRESSURE GPRESSURE VOLUME PRESSAVG GPRESSAVG
ENERGY: 0 1.2842 4.0952 2.6752 0.0000 -10645.1048 1349.5251 0.0000 0.0000 1737.6564 -7549.8686 295.0661 -9287.5251 -7549.8686 295.0661 -747.7665 -661.8368 30466.6853 -747.7665 -661.8368
ENERGY: 300000 0.8270 3.6621 2.7508 0.0000 -10865.4271 1562.0393 0.0000 0.0000 1743.0362 -7553.1117 295.9797 -9296.1479 -7501.9401 295.6092 887.9665 942.1737 30462.6116 -47.6034 11.1025
ENERGY: 600000 0.7585 2.3073 3.0456 0.0000 -10810.3487 1497.2283 0.0000 0.0000 1759.1291 -7547.8798 298.7123 -9307.0089 -7531.9063 298.1362 335.7303 388.4633 30413.4308 -185.9212 -124.0443
ENERGY: 900000 1.5827 2.3416 2.7339 0.0000 -10668.5963 1454.4907 0.0000 0.0000 1793.1686 -7414.2789 304.4925 -9207.4475 -7538.5452 298.0373 327.3284 432.6733 30687.1464 -174.6669 -92.3911
ENERGY: 1200000 2.0914 2.0903 3.1662 0.0000 -10497.8871 1253.8044 0.0000 0.0000 1773.0478 -7463.6870 301.0758 -9236.7348 -7525.3000 298.8990 -1385.4365 -1364.5247 30818.5327 -258.8446 -188.9559
ENERGY: 1500000 2.7846 3.8721 2.7612 0.0000 -10742.5730 1529.3368 0.0000 0.0000 1777.5457 -7426.2725 301.8396 -9203.8183 -7516.5128 299.3849 1519.0378 1543.8897 30023.6633 -144.7916 -77.7246
TCL: Running FEP window  11: Lambda1 0.4999999999999996 Lambda2 0.4499999999999996 [dLambda -0.04999999999999999]
TCL: Setting parameter firsttimestep to 0
TCL: Setting parameter alchLambda to 0.4999999999999996
Info: NONBONDED TABLE R-SQUARED SPACING: 0.0625
Info: NONBONDED TABLE SIZE: 705 POINTS
TCL: Setting parameter alchLambda2 to 0.4499999999999996
Info: NONBONDED TABLE R-SQUARED SPACING: 0.0625
Info: NONBONDED TABLE SIZE: 705 POINTS
TCL: Running for 1500000 steps
ETITLE: TS BOND ANGLE DIHED IMPRP ELECT VDW BOUNDARY MISC KINETIC TOTAL TEMP POTENTIAL TOTALAVG TEMPAVG PRESSURE GPRESSURE VOLUME PRESSAVG GPRESSAVG
ENERGY: 0 2.7846 3.8721 2.7612 0.0000 -10742.4307 1529.8645 0.0000 0.0000 1776.6654 -7426.4829 301.6901 -9203.1483 -7426.4829 301.6901 1459.9052 1543.7068 30023.6633 1459.9052 1543.7068
ENERGY: 300000 1.4985 4.3952 2.7930 0.0000 -10685.7819 1438.6449 0.0000 0.0000 1755.9864 -7482.4638 298.1787 -9238.4502 -7518.4480 297.8369 -153.8810 -120.5194 30987.8523 85.1385 120.8719
ENERGY: 600000 1.1402 2.7242 2.7567 0.0000 -10809.0229 1480.8274 0.0000 0.0000 1766.0927 -7555.4816 299.8948 -9321.5743 -7520.5886 298.5512 351.8082 421.1784 30186.7446 46.7257 100.3578
ENERGY: 900000 2.6323 4.2021 2.7784 0.0000 -10696.5427 1392.4127 0.0000 0.0000 1756.0013 -7538.5159 298.1812 -9294.5172 -7529.1356 298.1573 -265.5851 -213.7224 30361.1749 -49.9951 -4.9713
ENERGY: 1200000 3.5054 4.2725 2.9659 0.0000 -10827.1296 1485.3166 0.0000 0.0000 1799.3919 -7531.6772 305.5493 -9331.0691 -7529.0762 298.8219 107.7302 116.1150 30721.1535 -36.9182 5.5581
ENERGY: 1500000 1.4911 2.7105 2.6613 0.0000 -10693.6383 1419.0037 0.0000 0.0000 1755.8144 -7511.9574 298.1495 -9267.7717 -7516.6764 299.0584 -171.1515 -178.3830 30702.2018 -95.3183 -59.9208
TCL: Running FEP window  12: Lambda1 0.4499999999999996 Lambda2 0.39999999999999963 [dLambda -0.04999999999999999]
TCL: Setting parameter firsttimestep to 0
TCL: Setting parameter alchLambda to 0.4499999999999996
Info: NONBONDED TABLE R-SQUARED SPACING: 0.0625
Info: NONBONDED TABLE SIZE: 705 POINTS
TCL: Setting parameter alchLambda2 to 0.39999999999999963
Info: NONBONDED TABLE R-SQUARED SPACING: 0.0625
Info: NONBONDED TABLE SIZE: 705 POINTS
TCL: Running for 1500000 steps
ETITLE: TS BOND ANGLE DIHED IMPRP ELECT VDW BOUNDARY MISC KINETIC TOTAL TEMP POTENTIAL TOTALAVG TEMPAVG PRESSURE GPRESSURE VOLUME PRESSAVG GPRESSAVG
ENERGY: 0 1.4911 2.7105 2.6613 0.0000 -10693.6385 1419.0977 0.0000 0.0000 1754.9379 -7512.7401 298.0007 -9267.6780 -7512.7401 298.0007 -268.5121 -187.0002 30702.2018 -268.5121 -187.0002
ENERGY: 300000 1.7237 4.5923 2.7013 0.0000 -10784.4883 1429.2136 0.0000 0.0000 1732.8265 -7613.4309 294.2460 -9346.2574 -7547.7918 298.3382 -570.0761 -443.8008 30727.6052 -319.6558 -256.3927
ENERGY: 600000 0.5020 4.4723 2.8895 0.0000 -10817.1730 1552.2158 0.0000 0.0000 1772.7170 -7484.3763 301.0197 -9257.0933 -7526.7930 298.9936 1029.7400 1058.9276 30213.5773 59.7069 102.9003
ENERGY: 900000 1.1185 1.7245 2.6709 0.0000 -10721.8628 1427.5954 0.0000 0.0000 1808.8650 -7479.8886 307.1578 -9288.7535 -7522.7033 300.1217 -238.7057 -192.4080 30812.7406 54.3021 96.2315
ENERGY: 1200000 1.7140 2.0517 2.8317 0.0000 -10634.7117 1379.4678 0.0000 0.0000 1737.2567 -7511.3898 294.9983 -9248.6465 -7516.1567 300.0815 -717.9647 -623.3522 31113.2191 -15.9223 25.9537
ENERGY: 1500000 1.7223 3.1824 2.7681 0.0000 -10645.0967 1345.1399 0.0000 0.0000 1738.1352 -7554.1488 295.1474 -9292.2840 -7517.5626 300.7289 -940.7643 -837.8877 30657.2913 -39.4235 9.1802
TCL: Running FEP window  13: Lambda1 0.39999999999999963 Lambda2 0.34999999999999964 [dLambda -0.04999999999999999]
TCL: Setting parameter firsttimestep to 0
TCL: Setting parameter alchLambda to 0.39999999999999963
Info: NONBONDED TABLE R-SQUARED SPACING: 0.0625
Info: NONBONDED TABLE SIZE: 705 POINTS
TCL: Setting parameter alchLambda2 to 0.34999999999999964
Info: NONBONDED TABLE R-SQUARED SPACING: 0.0625
Info: NONBONDED TABLE SIZE: 705 POINTS
TCL: Running for 1500000 steps
ETITLE: TS BOND ANGLE DIHED IMPRP ELECT VDW BOUNDARY MISC KINETIC TOTAL TEMP POTENTIAL TOTALAVG TEMPAVG PRESSURE GPRESSURE VOLUME PRESSAVG GPRESSAVG
ENERGY: 0 1.7223 3.1824 2.7681 0.0000 -10645.0975 1345.3469 0.0000 0.0000 1737.2469 -7554.8309 294.9966 -9292.0778 -7554.8309 294.9966 -926.6302 -841.3013 30657.2913 -926.6302 -841.3013
ENERGY: 300000 3.5722 5.0835 2.6894 0.0000 -10696.2011 1357.1800 0.0000 0.0000 1773.1879 -7554.4882 301.0996 -9327.6761 -7536.0065 303.0517 -776.4925 -776.4495 30466.4816 -320.9447 -289.4420
ENERGY: 600000 0.7284 1.3889 2.8122 0.0000 -10682.9186 1452.3431 0.0000 0.0000 1783.3815 -7442.2644 302.8306 -9225.6459 -7513.0398 303.0572 178.8250 249.9547 30652.0083 -162.5331 -103.7826
ENERGY: 900000 3.4727 2.4779 2.7907 0.0000 -10632.8706 1371.6436 0.0000 0.0000 1775.3957 -7477.0901 301.4745 -9252.4858 -7500.3219 303.4023 -591.0597 -566.2998 30560.9173 -117.4852 -61.5928
ENERGY: 1200000 0.5778 1.9014 2.6958 0.0000 -10559.8190 1357.5729 0.0000 0.0000 1715.1415 -7481.9296 291.2429 -9197.0711 -7496.4380 301.7664 -724.4143 -600.1848 30929.6125 -165.1820 -112.6530
ENERGY: 1500000 2.8052 2.2009 2.6997 0.0000 -10665.1871 1423.6158 0.0000 0.0000 1754.4616 -7479.4040 297.9198 -9233.8656 -7495.2341 301.9451 -191.6491 -178.7056 31080.7459 -179.4776 -123.6456
TCL: Running FEP window  14: Lambda1 0.34999999999999964 Lambda2 0.29999999999999966 [dLambda -0.04999999999999999]
TCL: Setting parameter firsttimestep to 0
TCL: Setting parameter alchLambda to 0.34999999999999964
Info: NONBONDED TABLE R-SQUARED SPACING: 0.0625
Info: NONBONDED TABLE SIZE: 705 POINTS
TCL: Setting parameter alchLambda2 to 0.29999999999999966
Info: NONBONDED TABLE R-SQUARED SPACING: 0.0625
Info: NONBONDED TABLE SIZE: 705 POINTS
TCL: Running for 1500000 steps
ETITLE: TS BOND ANGLE DIHED IMPRP ELECT VDW BOUNDARY MISC KINETIC TOTAL TEMP POTENTIAL TOTALAVG TEMPAVG PRESSURE GPRESSURE VOLUME PRESSAVG GPRESSAVG
ENERGY: 0 2.8052 2.2009 2.6997 0.0000 -10665.1877 1424.1243 0.0000 0.0000 1753.5865 -7479.7711 297.7712 -9233.3576 -7479.7711 297.7712 -243.6535 -175.8468 31080.7459 -243.6535 -175.8468
ENERGY: 300000 1.4524 4.2251 2.9658 0.0000 -10763.3470 1417.7922 0.0000 0.0000 1686.9864 -7649.9251 286.4620 -9336.9116 -7539.3311 297.5684 -65.2697 -41.4030 29983.4545 -325.3830 -286.0145
ENERGY: 600000 2.0703 5.0052 2.8667 0.0000 -10805.8979 1398.5201 0.0000 0.0000 1752.8527 -7644.5828 297.6466 -9397.4355 -7551.6673 299.3770 -649.5128 -662.4013 30447.2943 -431.1280 -378.5417
ENERGY: 900000 1.0619 2.8656 2.7635 0.0000 -10708.5802 1355.8966 0.0000 0.0000 1792.6136 -7553.3791 304.3982 -9345.9927 -7551.3392 300.1483 -1167.1709 -1097.3285 31155.3930 -336.4685 -277.2862
ENERGY: 1200000 2.6424 5.8837 2.6843 0.0000 -10612.7607 1352.3364 0.0000 0.0000 1735.5842 -7513.6297 294.7143 -9249.2139 -7544.0026 299.7258 -731.1136 -696.1150 30749.3895 -319.9028 -255.2246
ENERGY: 1500000 1.8655 3.1700 2.6935 0.0000 -10820.9166 1533.1309 0.0000 0.0000 1770.6230 -7509.4335 300.6641 -9280.0566 -7543.7092 299.3303 686.9503 778.0035 30402.3940 -125.9108 -65.4621
TCL: Running FEP window  15: Lambda1 0.29999999999999966 Lambda2 0.24999999999999967 [dLambda -0.04999999999999999]
TCL: Setting parameter firsttimestep to 0
TCL: Setting parameter alchLambda to 0.29999999999999966
Info: NONBONDED TABLE R-SQUARED SPACING: 0.0625
Info: NONBONDED TABLE SIZE: 705 POINTS
TCL: Setting parameter alchLambda2 to 0.24999999999999967
Info: NONBONDED TABLE R-SQUARED SPACING: 0.0625
Info: NONBONDED TABLE SIZE: 705 POINTS
TCL: Running for 1500000 steps
ETITLE: TS BOND ANGLE DIHED IMPRP ELECT VDW BOUNDARY MISC KINETIC TOTAL TEMP POTENTIAL TOTALAVG TEMPAVG PRESSURE GPRESSURE VOLUME PRESSAVG GPRESSAVG
ENERGY: 0 1.8655 3.1700 2.6935 0.0000 -10820.9145 1532.9565 0.0000 0.0000 1769.8071 -7510.4218 300.5255 -9280.2289 -7510.4218 300.5255 674.2922 771.2187 30402.3940 674.2922 771.2187
ENERGY: 300000 0.7040 3.4574 2.7557 0.0000 -10634.7399 1409.7755 0.0000 0.0000 1799.4576 -7418.5897 305.5604 -9218.0473 -7471.1240 302.6916 -152.8736 -109.9539 30727.3844 14.8737 71.9120
ENERGY: 600000 1.6323 2.9905 2.7115 0.0000 -10625.4454 1386.4937 0.0000 0.0000 1787.4267 -7444.1906 303.5175 -9231.6174 -7484.6377 302.8114 -353.9460 -346.6816 30771.9776 45.0768 96.0238
ENERGY: 900000 1.7329 5.1785 2.6758 0.0000 -10672.9817 1349.2939 0.0000 0.0000 1744.9222 -7569.1785 296.2999 -9314.1007 -7498.5927 301.8170 -998.7031 -972.5789 30895.9405 24.6625 77.2396
ENERGY: 1200000 1.9657 2.0873 2.6918 0.0000 -10727.7760 1435.9097 0.0000 0.0000 1780.2356 -7504.8859 302.2964 -9285.1215 -7501.0322 301.6218 -268.2840 -206.3888 30806.8389 76.5568 127.9302
ENERGY: 1500000 1.4565 1.8551 2.7382 0.0000 -10752.0482 1485.6483 0.0000 0.0000 1783.2765 -7477.0737 302.8127 -9260.3501 -7507.8378 301.5337 271.2939 355.3341 30531.4822 -5.7610 43.2026
TCL: Running FEP window  16: Lambda1 0.24999999999999967 Lambda2 0.19999999999999968 [dLambda -0.04999999999999999]
TCL: Setting parameter firsttimestep to 0
TCL: Setting parameter alchLambda to 0.24999999999999967
Info: NONBONDED TABLE R-SQUARED SPACING: 0.0625
Info: NONBONDED TABLE SIZE: 705 POINTS
TCL: Setting parameter alchLambda2 to 0.19999999999999968
Info: NONBONDED TABLE R-SQUARED SPACING: 0.0625
Info: NONBONDED TABLE SIZE: 705 POINTS
TCL: Running for 1500000 steps
ETITLE: TS BOND ANGLE DIHED IMPRP ELECT VDW BOUNDARY MISC KINETIC TOTAL TEMP POTENTIAL TOTALAVG TEMPAVG PRESSURE GPRESSURE VOLUME PRESSAVG GPRESSAVG
ENERGY: 0 1.4565 1.8551 2.7382 0.0000 -10752.0481 1485.6245 0.0000 0.0000 1782.3778 -7477.9959 302.6601 -9260.3737 -7477.9959 302.6601 262.2515 350.2117 30531.4822 262.2515 350.2117
ENERGY: 300000 2.9150 3.9118 2.6604 0.0000 -10846.2376 1484.7204 0.0000 0.0000 1829.7137 -7522.3163 310.6981 -9352.0300 -7523.8142 301.3468 461.2685 543.8073 29880.6670 -204.4332 -116.5054
ENERGY: 600000 2.8295 3.1601 2.7759 0.0000 -10854.0794 1514.8915 0.0000 0.0000 1783.9869 -7546.4354 302.9334 -9330.4223 -7513.8645 302.3152 357.0322 417.7655 30509.9191 4.5869 85.1486
ENERGY: 900000 1.5135 1.1896 2.7568 0.0000 -10900.4199 1555.8149 0.0000 0.0000 1787.2581 -7551.8870 303.4888 -9339.1451 -7528.4598 301.1986 844.3685 891.5124 30164.2105 16.2457 96.3613
ENERGY: 1200000 2.6482 2.3743 2.7734 0.0000 -10656.4153 1399.0596 0.0000 0.0000 1774.3076 -7475.2522 301.2898 -9249.5598 -7521.1719 300.5125 -217.2377 -185.4439 30610.6449 -17.6701 58.8976
ENERGY: 1500000 1.3707 4.5511 2.9803 0.0000 -10666.8372 1365.5456 0.0000 0.0000 1756.9432 -7535.4463 298.3412 -9292.3895 -7524.6929 300.0229 -741.3939 -680.3652 30669.9281 -4.1529 69.8689
TCL: Running FEP window  17: Lambda1 0.19999999999999968 Lambda2 0.1499999999999997 [dLambda -0.04999999999999999]
TCL: Setting parameter firsttimestep to 0
TCL: Setting parameter alchLambda to 0.19999999999999968
Info: NONBONDED TABLE R-SQUARED SPACING: 0.0625
Info: NONBONDED TABLE SIZE: 705 POINTS
TCL: Setting parameter alchLambda2 to 0.1499999999999997
Info: NONBONDED TABLE R-SQUARED SPACING: 0.0625
Info: NONBONDED TABLE SIZE: 705 POINTS
TCL: Running for 1500000 steps
ETITLE: TS BOND ANGLE DIHED IMPRP ELECT VDW BOUNDARY MISC KINETIC TOTAL TEMP POTENTIAL TOTALAVG TEMPAVG PRESSURE GPRESSURE VOLUME PRESSAVG GPRESSAVG
ENERGY: 0 1.3707 4.5511 2.9803 0.0000 -10666.8367 1366.0670 0.0000 0.0000 1756.0953 -7535.7722 298.1972 -9291.8676 -7535.7722 298.1972 -766.9482 -681.3354 30669.9281 -766.9482 -681.3354
ENERGY: 300000 1.4137 1.9491 2.7634 0.0000 -10820.9604 1534.5948 0.0000 0.0000 1821.6370 -7458.6025 309.3266 -9280.2395 -7520.2623 301.2312 747.6784 803.8923 30257.4749 -361.4295 -301.2866
ENERGY: 600000 1.3219 1.3110 2.7400 0.0000 -10691.6452 1427.2345 0.0000 0.0000 1724.0214 -7535.0164 292.7508 -9259.0378 -7519.2096 300.6660 -188.8155 -165.6288 30551.9780 -353.0194 -285.1766
ENERGY: 900000 1.9539 2.6119 2.7183 0.0000 -10715.5406 1459.3791 0.0000 0.0000 1766.3297 -7482.5477 299.9350 -9248.8774 -7522.5645 299.8876 54.1234 94.9108 30980.0081 -209.1672 -144.8136
ENERGY: 1200000 1.0649 3.9624 2.7409 0.0000 -10762.3935 1437.4406 0.0000 0.0000 1763.2672 -7553.9175 299.4150 -9317.1848 -7528.8542 298.9153 -310.2220 -239.4699 30654.1056 -232.8283 -164.3669
ENERGY: 1500000 2.5767 2.1227 2.6648 0.0000 -10844.4207 1544.7431 0.0000 0.0000 1793.8670 -7498.4465 304.6111 -9292.3134 -7523.1634 299.0233 719.5654 742.0926 30609.3396 -160.6608 -96.3621
TCL: Running FEP window  18: Lambda1 0.1499999999999997 Lambda2 0.09999999999999969 [dLambda -0.05 ]
TCL: Setting parameter firsttimestep to 0
TCL: Setting parameter alchLambda to 0.1499999999999997
Info: NONBONDED TABLE R-SQUARED SPACING: 0.0625
Info: NONBONDED TABLE SIZE: 705 POINTS
TCL: Setting parameter alchLambda2 to 0.09999999999999969
Info: NONBONDED TABLE R-SQUARED SPACING: 0.0625
Info: NONBONDED TABLE SIZE: 705 POINTS
TCL: Running for 1500000 steps
ETITLE: TS BOND ANGLE DIHED IMPRP ELECT VDW BOUNDARY MISC KINETIC TOTAL TEMP POTENTIAL TOTALAVG TEMPAVG PRESSURE GPRESSURE VOLUME PRESSAVG GPRESSAVG
ENERGY: 0 2.5767 2.1227 2.6648 0.0000 -10844.4209 1544.6219 0.0000 0.0000 1792.9943 -7499.4406 304.4629 -9292.4349 -7499.4406 304.4629 644.0909 737.6467 30609.3396 644.0909 737.6467
ENERGY: 300000 1.2946 1.2877 2.7156 0.0000 -10750.3733 1488.9468 0.0000 0.0000 1776.6189 -7479.5098 301.6822 -9256.1286 -7526.1207 301.2922 738.8558 750.8295 30083.0826 211.0711 276.5531
ENERGY: 600000 2.8305 3.0330 2.7614 0.0000 -10689.8122 1420.0893 0.0000 0.0000 1819.2192 -7441.8789 308.9161 -9261.0980 -7477.4921 301.0147 -194.9375 -124.5297 30209.2613 119.0352 179.8310
ENERGY: 900000 1.3017 2.5765 2.7786 0.0000 -10610.4780 1428.1610 0.0000 0.0000 1754.9387 -7420.7215 298.0008 -9175.6602 -7469.7288 300.8832 90.2308 147.7285 30430.8369 1.6668 65.6042
ENERGY: 1200000 0.8010 1.9099 3.0573 0.0000 -10730.8528 1422.1690 0.0000 0.0000 1760.8377 -7542.0780 299.0025 -9302.9157 -7479.1737 301.5395 -256.1698 -217.4367 30313.2645 2.0476 63.3712
ENERGY: 1500000 1.3036 3.7433 2.7525 0.0000 -10832.1991 1507.6810 0.0000 0.0000 1729.8537 -7586.8651 293.7412 -9316.7188 -7489.8486 301.0180 669.2692 716.0509 29961.5414 117.7201 179.1407
TCL: Running FEP window  19: Lambda1 0.09999999999999969 Lambda2 0.049999999999999684 [dLambda -0.05 ]
TCL: Setting parameter firsttimestep to 0
TCL: Setting parameter alchLambda to 0.09999999999999969
Info: NONBONDED TABLE R-SQUARED SPACING: 0.0625
Info: NONBONDED TABLE SIZE: 705 POINTS
TCL: Setting parameter alchLambda2 to 0.049999999999999684
Info: NONBONDED TABLE R-SQUARED SPACING: 0.0625
Info: NONBONDED TABLE SIZE: 705 POINTS
TCL: Running for 1500000 steps
ETITLE: TS BOND ANGLE DIHED IMPRP ELECT VDW BOUNDARY MISC KINETIC TOTAL TEMP POTENTIAL TOTALAVG TEMPAVG PRESSURE GPRESSURE VOLUME PRESSAVG GPRESSAVG
ENERGY: 0 1.3036 3.7433 2.7525 0.0000 -10832.2009 1507.0205 0.0000 0.0000 1728.9457 -7588.4353 293.5870 -9317.3811 -7588.4353 293.5870 619.7163 707.0035 29961.5414 619.7163 707.0035
ENERGY: 300000 1.5336 1.0657 2.6929 0.0000 -10704.2898 1438.0670 0.0000 0.0000 1784.2948 -7476.6359 302.9857 -9260.9307 -7527.9211 300.6919 -35.9415 54.3293 30341.3240 -118.7638 -28.1073
ENERGY: 600000 0.3620 3.6840 2.7773 0.0000 -10645.0904 1433.3341 0.0000 0.0000 1779.7246 -7425.2083 302.2096 -9204.9330 -7522.9009 300.9517 -87.3457 2.5130 30918.3571 -106.3272 -29.0076
ENERGY: 900000 1.5605 1.3084 2.8652 0.0000 -10955.2842 1533.4364 0.0000 0.0000 1785.1570 -7630.9566 303.1321 -9416.1136 -7546.1503 300.3954 589.2666 655.5051 29806.4713 -56.3053 15.1643
ENERGY: 1200000 1.9693 3.0300 2.7138 0.0000 -10727.2052 1426.1383 0.0000 0.0000 1841.2481 -7452.1058 312.6567 -9293.3539 -7531.3350 301.7004 -162.5979 -94.5290 30273.3705 -62.0637 12.6354
ENERGY: 1500000 1.3040 2.7371 2.7239 0.0000 -10647.4593 1356.1603 0.0000 0.0000 1780.8847 -7503.6493 302.4066 -9284.5340 -7533.2177 301.8206 -984.6011 -881.0514 30728.7175 -56.2261 18.8998
TCL: Running FEP window  20: Lambda1 0.049999999999999684 Lambda2 0.0    [dLambda -0.049999999999999684]
TCL: Setting parameter firsttimestep to 0
TCL: Setting parameter alchLambda to 0.049999999999999684
Info: NONBONDED TABLE R-SQUARED SPACING: 0.0625
Info: NONBONDED TABLE SIZE: 705 POINTS
TCL: Setting parameter alchLambda2 to 0.0
Info: NONBONDED TABLE R-SQUARED SPACING: 0.0625
Info: NONBONDED TABLE SIZE: 705 POINTS
TCL: Running for 1500000 steps
ETITLE: TS BOND ANGLE DIHED IMPRP ELECT VDW BOUNDARY MISC KINETIC TOTAL TEMP POTENTIAL TOTALAVG TEMPAVG PRESSURE GPRESSURE VOLUME PRESSAVG GPRESSAVG
ENERGY: 0 1.3040 2.7371 2.7239 0.0000 -10647.4591 1355.8589 0.0000 0.0000 1780.0014 -7504.8338 302.2566 -9284.8351 -7504.8338 302.2566 -970.4082 -886.2250 30728.7175 -970.4082 -886.2250
ENERGY: 300000 0.9689 7.6341 2.7076 0.0000 -10683.0208 1419.4894 0.0000 0.0000 1746.6621 -7505.5586 296.5954 -9252.2208 -7564.3933 297.9144 -185.1239 -125.3237 30836.5354 -76.7558 -3.9719
ENERGY: 600000 3.4583 2.3955 2.8049 0.0000 -10822.2872 1501.2569 0.0000 0.0000 1782.8270 -7529.5447 302.7364 -9312.3717 -7545.9857 300.0122 397.5784 449.9985 30408.0156 -49.6770 17.5765
ENERGY: 900000 2.2022 4.0583 2.9086 0.0000 -10835.4338 1425.6229 0.0000 0.0000 1825.2005 -7575.4413 309.9317 -9400.6418 -7549.5829 300.8156 -350.0045 -260.5753 29938.3272 -185.9424 -108.6572
ENERGY: 1200000 0.6677 2.4995 2.7758 0.0000 -10886.7025 1516.0051 0.0000 0.0000 1789.1203 -7575.6340 303.8051 -9364.7543 -7545.3964 301.3755 361.9207 414.9707 30176.9977 -42.7460 27.0560
ENERGY: 1500000 1.1012 3.3120 2.7626 0.0000 -10707.2115 1417.6134 0.0000 0.0000 1754.2721 -7528.1502 297.8876 -9282.4223 -7546.4847 300.7518 -304.2065 -300.3986 30521.5617 -157.1042 -90.4800
TCL: Exiting due to exit command.
