Info: SIMULATION PARAMETERS:
Info: TIMESTEP               2
Info: NUMBER OF STEPS        0
Info: STEPS PER CYCLE        10
Info: PERIODIC CELL BASIS 1  30.8476 0 0
Info: PERIODIC CELL BASIS 2  0 29.3733 0
Info: PERIODIC CELL BASIS 3  0 0 33.1859
Info: PERIODIC CELL CENTER   0 0 0
Info: WRAPPING WATERS AROUND PERIODIC BOUNDARIES ON OUTPUT.
Info: WRAPPING ALL CLUSTERS AROUND PERIODIC BOUNDARIES ON OUTPUT.
Info: FIRST LDB TIMESTEP     50
Info: LAST LDB TIMESTEP     -1
Info: HOM BACKGROUND SCALING 1
Info: PME BACKGROUND SCALING 1
Info: MIN ATOMS PER PATCH    40
Info: EMPTY PATCH LOAD       40 ATOMS
Info: VELOCITY FILE          mobley_3398536_equil.vel
Info: CENTER OF MASS MOVING INITIALLY? NO
Info: DIELECTRIC             1
Info: EXCLUDE                SCALED ONE-FOUR
Info: 1-4 ELECTROSTATICS SCALED BY 0.833333
Info: MODIFIED 1-4 VDW PARAMETERS WILL BE USED
Info: DCD FILENAME           mobley_3398536_prod.dcd
Info: DCD FREQUENCY          100000
Info: DCD FIRST STEP         100000
Info: DCD FILE WILL CONTAIN UNIT CELL DATA
Info: XST FILENAME           mobley_3398536_prod.xst
Info: XST FREQUENCY          100000
Info: NO VELOCITY DCD OUTPUT
Info: NO FORCE DCD OUTPUT
Info: OUTPUT FILENAME        mobley_3398536_prod
Info: BINARY OUTPUT FILES WILL BE USED
Info: RESTART FILENAME       mobley_3398536_prod.restart
Info: RESTART FREQUENCY      100000
Info: BINARY RESTART FILES WILL BE USED
Info: CUTOFF                 9
Info: PAIRLIST DISTANCE      11
Info: PAIRLIST SHRINK RATE   0.01
Info: PAIRLIST GROW RATE     0.01
Info: PAIRLIST TRIGGER       0.3
Info: PAIRLISTS PER CYCLE    2
Info: PAIRLISTS ENABLED
Info: MARGIN                 2
Info: HYDROGEN GROUP CUTOFF  2.5
Info: PATCH DIMENSION        15.5
Info: ENERGY OUTPUT STEPS    100000
Info: ENERGY EVALUATION STEPS    100000
Info: OUTPUT ENERGY PRECISION 4
Info: CROSSTERM ENERGY INCLUDED IN DIHEDRAL
Info: TIMING OUTPUT STEPS    1000000
Info: PRESSURE OUTPUT STEPS  100000
Info: ALCHEMICAL FEP ON
Info: FEP CURRENT LAMBDA VALUE     0
Info: FEP COMPARISON LAMBDA VALUE  0.05
Info: FEP INTRA-ALCHEMICAL NON-BONDED INTERACTIONS WILL BE RETAINED
Info: FEP INTRA-ALCHEMICAL BONDED INTERACTIONS WILL BE RETAINED
Info: FEP VDW SHIFTING COEFFICIENT 5
Info: FEP ELEC. ACTIVE FOR ANNIHILATED PARTICLES BETWEEN LAMBDA = 0 AND LAMBDA = 0.5
Info: FEP ELEC. ACTIVE FOR EXNIHILATED PARTICLES BETWEEN LAMBDA = 0.5 AND LAMBDA = 1
Info: FEP VDW ACTIVE FOR ANNIHILATED PARTICLES BETWEEN LAMBDA = 0 AND LAMBDA = 1
Info: FEP VDW ACTIVE FOR EXNIHILATED PARTICLES BETWEEN LAMBDA = 0 AND LAMBDA = 1
Info: FEP BOND ACTIVE FOR ANNIHILATED PARTICLES BETWEEN LAMBDA = 1 AND LAMBDA = 1
Info: FEP BOND ACTIVE FOR EXNIHILATED PARTICLES BETWEEN LAMBDA = 0 AND LAMBDA = 0
Info: LANGEVIN DYNAMICS ACTIVE
Info: LANGEVIN TEMPERATURE   300
Info: LANGEVIN USING BBK INTEGRATOR
Info: LANGEVIN DAMPING COEFFICIENT IS 1 INVERSE PS
Info: LANGEVIN DYNAMICS APPLIED TO HYDROGENS
Info: LANGEVIN PISTON PRESSURE CONTROL ACTIVE
Info:        TARGET PRESSURE IS 1.01325 BAR
Info:     OSCILLATION PERIOD IS 50 FS
Info:             DECAY TIME IS 25 FS
Info:     PISTON TEMPERATURE IS 300 K
Info:       PRESSURE CONTROL IS GROUP-BASED
Info:    INITIAL STRAIN RATE IS -0.000172596 -0.000172596 -0.000172596
Info:       CELL FLUCTUATION IS ISOTROPIC
Info: PARTICLE MESH EWALD (PME) ACTIVE
Info: PME TOLERANCE               1e-06
Info: PME EWALD COEFFICIENT       0.348832
Info: PME INTERPOLATION ORDER     4
Info: PME GRID DIMENSIONS         32 32 36
Info: PME MAXIMUM GRID SPACING    1
Info: PME CALCULATION WILL BE PERFORMED ON GPU
Info: FULL ELECTROSTATIC EVALUATION FREQUENCY      2
Info: USING VERLET I (r-RESPA) MTS SCHEME.
Info: C1 SPLITTING OF LONG RANGE ELECTROSTATICS
Info: PLACING ATOMS IN PATCHES BY HYDROGEN GROUPS
Info: RIGID BONDS TO HYDROGEN : ALL
Info:         ERROR TOLERANCE : 1e-08
Info:          MAX ITERATIONS : 100
Info: RIGID WATER USING SETTLE ALGORITHM
Info: RANDOM NUMBER SEED     1743525789
Info: USE HYDROGEN BONDS?    NO
Info: Using AMBER format force field!
Info: AMBER PARM FILE        mobley_3398536.prmtop
Info: COORDINATE PDB         mobley_3398536.pdb
Info: Exclusions will be read from PARM file!
Info: SCNB (VDW SCALING)     2
Info: USING ARITHMETIC MEAN TO COMBINE L-J SIGMA PARAMETERS
Info: BINARY COORDINATES     mobley_3398536_equil.coor
Info: SUMMARY OF PARAMETERS:
Info: 5 BONDS
Info: 3 ANGLES
Info:   3 HARMONIC
Info:   0 COSINE-BASED
Info: 2 DIHEDRAL
Info: 0 IMPROPER
Info: 0 CROSSTERM
Info: 0 VDW
Info: 15 VDW_PAIRS
Info: 0 NBTHOLE_PAIRS
Info: To read alchdata from file: mobley_3398536.pdb
Info: To read alchflag data from column: 5
Info: STRUCTURE SUMMARY:
Info: 2925 ATOMS
Info: 2925 BONDS
Info: 18 ANGLES
Info: 30 DIHEDRALS
Info: 0 IMPROPERS
Info: 0 CROSSTERMS
Info: 2964 EXCLUSIONS
Info: 2918 RIGID BONDS
Info: ALCH: 0 ATOMS TO DISAPPEAR IN FINAL STATE
Info: ALCH: 12 ATOMS TO APPEAR IN FINAL STATE
Info: 5857 DEGREES OF FREEDOM
Info: 978 HYDROGEN GROUPS
Info: 3 ATOMS IN LARGEST HYDROGEN GROUP
Info: 978 MIGRATION GROUPS
Info: 3 ATOMS IN LARGEST MIGRATION GROUP
Info: TOTAL MASS = 17697.5 amu
Info: TOTAL CHARGE = 0.000100022 e
Info: MASS DENSITY = 0.977339 g/cm^3
Info: ATOM DENSITY = 0.0972745 atoms/A^3
Info: ADDED 0 IMPLICIT EXCLUSIONS
Info: NONBONDED TABLE R-SQUARED SPACING: 0.0625
Info: NONBONDED TABLE SIZE: 705 POINTS
Info: REMOVING COM VELOCITY -0.10009 -0.13332 -0.157372
Info: Use 3D box decompostion in PME FFT.
Info: Updated CUDA force table with 4096 elements.
Info: Updated CUDA LJ table with 5 x 5 elements.
Info: Found 14 unique exclusion lists needing 24 bytes
TCL: Running for 1500000 steps
ETITLE: TS BOND ANGLE DIHED IMPRP ELECT VDW BOUNDARY MISC KINETIC TOTAL TEMP POTENTIAL TOTALAVG TEMPAVG PRESSURE GPRESSURE VOLUME PRESSAVG GPRESSAVG
ENERGY: 0 1.8204 3.0428 1.6690 0.0000 -10616.1311 1458.9669 0.0000 0.0000 1739.6551 -7410.9768 298.9361 -9150.6320 -7410.9768 298.9361 330.5902 407.6800 30069.5502 330.5902 407.6800
ENERGY: 300000 1.7776 3.3728 1.0799 0.0000 -10637.1302 1467.2561 0.0000 0.0000 1756.2089 -7407.4348 301.7806 -9163.6437 -7399.8486 299.6782 356.8006 409.8422 30084.9529 -102.6400 -15.6012
ENERGY: 600000 1.2465 1.8498 1.6758 0.0000 -10530.8492 1391.8246 0.0000 0.0000 1711.1881 -7423.0645 294.0444 -9134.2526 -7408.1246 299.5762 -418.9905 -286.5250 30383.3350 -127.8791 -37.3631
ENERGY: 900000 2.0479 2.9782 1.8032 0.0000 -10485.8887 1385.6152 0.0000 0.0000 1728.4372 -7365.0069 297.0084 -9093.4441 -7406.2669 299.5911 -446.6500 -393.8536 30433.0987 -63.0413 19.5324
ENERGY: 1200000 1.1492 1.9309 1.5961 0.0000 -10679.9912 1468.5497 0.0000 0.0000 1754.1586 -7452.6067 301.4283 -9206.7653 -7422.6421 299.6258 337.5855 467.5604 29611.9207 -48.1088 31.7325
ENERGY: 1500000 2.0870 2.0940 3.8561 0.0000 -10503.8033 1327.2242 0.0000 0.0000 1743.3827 -7425.1591 299.5766 -9168.5419 -7430.1935 299.3739 -934.0845 -856.5375 30338.8182 -41.3723 36.6325
TCL: Running FEP window   2: Lambda1 0.05   Lambda2 0.1    [dLambda 0.05  ]
TCL: Setting parameter firsttimestep to 0
TCL: Setting parameter alchLambda to 0.05
Info: NONBONDED TABLE R-SQUARED SPACING: 0.0625
Info: NONBONDED TABLE SIZE: 705 POINTS
TCL: Setting parameter alchLambda2 to 0.1
Info: NONBONDED TABLE R-SQUARED SPACING: 0.0625
Info: NONBONDED TABLE SIZE: 705 POINTS
TCL: Running for 1500000 steps
ETITLE: TS BOND ANGLE DIHED IMPRP ELECT VDW BOUNDARY MISC KINETIC TOTAL TEMP POTENTIAL TOTALAVG TEMPAVG PRESSURE GPRESSURE VOLUME PRESSAVG GPRESSAVG
ENERGY: 0 2.0870 2.0940 3.8561 0.0000 -10503.8044 1329.4021 0.0000 0.0000 1742.5043 -7423.8609 299.4257 -9166.3652 -7423.8609 299.4257 -926.1345 -850.1643 30338.8182 -926.1345 -850.1643
ENERGY: 300000 2.5394 4.0306 2.1178 0.0000 -10662.4798 1484.8117 0.0000 0.0000 1695.4237 -7473.5567 291.3355 -9168.9803 -7432.7785 299.2360 280.5177 334.1000 30391.9559 -231.7080 -166.8364
ENERGY: 600000 0.4666 3.3366 3.2423 0.0000 -10524.5368 1389.5159 0.0000 0.0000 1790.7246 -7337.2509 307.7117 -9127.9754 -7417.6289 301.4578 -214.1833 -181.7966 30074.1443 -138.0004 -81.0498
ENERGY: 900000 0.9747 3.8539 6.6984 0.0000 -10471.1834 1353.6880 0.0000 0.0000 1752.6685 -7353.2998 301.1722 -9105.9683 -7417.6682 301.1435 -504.6266 -465.2467 30189.4443 -85.6049 -26.9140
ENERGY: 1200000 1.7164 1.7433 4.2220 0.0000 -10593.1883 1442.3496 0.0000 0.0000 1766.9946 -7376.1624 303.6340 -9143.1570 -7411.7946 301.2076 194.8605 216.2816 29991.0814 -49.2175 2.4814
ENERGY: 1500000 4.0877 1.0827 1.6522 0.0000 -10550.9418 1380.6318 0.0000 0.0000 1806.8270 -7356.6603 310.4787 -9163.4873 -7395.3996 302.1200 -269.5466 -242.8827 30027.6461 -100.3974 -50.3273
TCL: Running FEP window   3: Lambda1 0.1    Lambda2 0.15000000000000002 [dLambda 0.05000000000000002]
TCL: Setting parameter firsttimestep to 0
TCL: Setting parameter alchLambda to 0.1
Info: NONBONDED TABLE R-SQUARED SPACING: 0.0625
Info: NONBONDED TABLE SIZE: 705 POINTS
TCL: Setting parameter alchLambda2 to 0.15000000000000002
Info: NONBONDED TABLE R-SQUARED SPACING: 0.0625
Info: NONBONDED TABLE SIZE: 705 POINTS
TCL: Running for 1500000 steps
ETITLE: TS BOND ANGLE DIHED IMPRP ELECT VDW BOUNDARY MISC KINETIC TOTAL TEMP POTENTIAL TOTALAVG TEMPAVG PRESSURE GPRESSURE VOLUME PRESSAVG GPRESSAVG
ENERGY: 0 4.0877 1.0827 1.6522 0.0000 -10550.9419 1380.4816 0.0000 0.0000 1805.9934 -7357.6442 310.3354 -9163.6376 -7357.6442 310.3354 -317.6086 -237.0180 30027.6461 -317.6086 -237.0180
ENERGY: 300000 1.3601 1.1311 1.9320 0.0000 -10654.9952 1447.1446 0.0000 0.0000 1721.5418 -7481.8857 295.8235 -9203.4275 -7415.4357 300.5519 -210.4767 -80.0360 30113.5881 -284.4882 -180.5538
ENERGY: 600000 2.7615 2.6615 1.4217 0.0000 -10521.6313 1416.5366 0.0000 0.0000 1720.5724 -7377.6776 295.6570 -9098.2500 -7398.4731 298.9175 248.3281 306.5862 29728.7761 -153.7368 -65.5621
ENERGY: 900000 0.9776 1.1818 2.7723 0.0000 -10740.8430 1498.8447 0.0000 0.0000 1715.7612 -7521.3054 294.8302 -9237.0666 -7404.0980 298.9704 353.7165 450.8274 29844.5361 -47.0278 32.0922
ENERGY: 1200000 4.0949 1.7314 1.1114 0.0000 -10517.7534 1378.6377 0.0000 0.0000 1826.4848 -7305.6933 313.8566 -9132.1781 -7406.3979 300.1911 -47.0729 23.2198 29670.9446 -20.2733 52.6984
ENERGY: 1500000 3.9717 3.3785 1.1290 0.0000 -10662.6061 1489.0018 0.0000 0.0000 1737.2568 -7427.8682 298.5240 -9165.1251 -7408.0890 299.6073 699.6006 738.6442 29764.8379 11.6710 85.7790
TCL: Running FEP window   4: Lambda1 0.15000000000000002 Lambda2 0.2    [dLambda 0.04999999999999999]
TCL: Setting parameter firsttimestep to 0
TCL: Setting parameter alchLambda to 0.15000000000000002
Info: NONBONDED TABLE R-SQUARED SPACING: 0.0625
Info: NONBONDED TABLE SIZE: 705 POINTS
TCL: Setting parameter alchLambda2 to 0.2
Info: NONBONDED TABLE R-SQUARED SPACING: 0.0625
Info: NONBONDED TABLE SIZE: 705 POINTS
TCL: Running for 1500000 steps
ETITLE: TS BOND ANGLE DIHED IMPRP ELECT VDW BOUNDARY MISC KINETIC TOTAL TEMP POTENTIAL TOTALAVG TEMPAVG PRESSURE GPRESSURE VOLUME PRESSAVG GPRESSAVG
ENERGY: 0 3.9717 3.3785 1.1290 0.0000 -10662.6053 1489.1554 0.0000 0.0000 1736.3923 -7428.5784 298.3754 -9164.9707 -7428.5784 298.3754 657.2250 743.6410 29764.8379 657.2250 743.6410
ENERGY: 300000 0.6937 2.3268 2.7248 0.0000 -10638.3840 1421.3138 0.0000 0.0000 1705.8761 -7505.4488 293.1316 -9211.3249 -7448.2318 295.9759 90.7570 157.8344 29602.8958 15.8659 89.9123
ENERGY: 600000 1.8139 2.2297 1.9602 0.0000 -10656.3657 1513.4387 0.0000 0.0000 1766.9171 -7370.0060 303.6207 -9136.9232 -7443.8263 297.5550 621.5905 734.0261 30010.8761 57.7738 131.7062
ENERGY: 900000 2.1317 1.7692 2.0067 0.0000 -10607.8948 1439.2430 0.0000 0.0000 1763.2213 -7399.5228 302.9856 -9162.7441 -7441.0279 298.1342 179.1549 178.4575 30238.1903 -93.1373 -34.1675
ENERGY: 1200000 2.7550 1.9683 4.7601 0.0000 -10583.4029 1444.6295 0.0000 0.0000 1762.6050 -7366.6850 302.8797 -9129.2900 -7434.5179 298.6377 -15.8611 71.8945 30269.9011 -31.1368 36.6284
ENERGY: 1500000 0.9635 0.9275 2.7161 0.0000 -10642.1704 1411.0452 0.0000 0.0000 1782.0887 -7444.4293 306.2277 -9226.5180 -7441.0008 299.4355 -468.8541 -355.2518 30341.4046 -100.1339 -23.1639
TCL: Running FEP window   5: Lambda1 0.2    Lambda2 0.25   [dLambda 0.04999999999999999]
TCL: Setting parameter firsttimestep to 0
TCL: Setting parameter alchLambda to 0.2
Info: NONBONDED TABLE R-SQUARED SPACING: 0.0625
Info: NONBONDED TABLE SIZE: 705 POINTS
TCL: Setting parameter alchLambda2 to 0.25
Info: NONBONDED TABLE R-SQUARED SPACING: 0.0625
Info: NONBONDED TABLE SIZE: 705 POINTS
TCL: Running for 1500000 steps
ETITLE: TS BOND ANGLE DIHED IMPRP ELECT VDW BOUNDARY MISC KINETIC TOTAL TEMP POTENTIAL TOTALAVG TEMPAVG PRESSURE GPRESSURE VOLUME PRESSAVG GPRESSAVG
ENERGY: 0 0.9635 0.9275 2.7161 0.0000 -10642.1712 1411.0398 0.0000 0.0000 1781.2045 -7445.3198 306.0758 -9226.5243 -7445.3198 306.0758 -426.5115 -352.6227 30341.4046 -426.5115 -352.6227
ENERGY: 300000 4.1433 3.6344 2.4844 0.0000 -10696.3691 1473.8327 0.0000 0.0000 1744.7162 -7467.5582 299.8057 -9212.2744 -7423.4934 301.7810 -73.0637 31.7257 30057.7214 -239.4567 -161.6912
ENERGY: 600000 3.6124 4.0129 2.3144 0.0000 -10635.4175 1502.8268 0.0000 0.0000 1744.8398 -7377.8111 299.8270 -9122.6509 -7396.6516 302.0223 454.6905 590.6225 30247.1556 -90.4925 -8.8336
ENERGY: 900000 1.7673 2.2897 2.6922 0.0000 -10702.5993 1470.4019 0.0000 0.0000 1721.1680 -7504.2802 295.7593 -9225.4482 -7404.9982 301.5239 164.3452 229.6185 29824.8789 -95.6098 -14.6124
ENERGY: 1200000 0.7174 1.0098 2.8020 0.0000 -10627.7060 1387.1895 0.0000 0.0000 1767.4541 -7468.5331 303.7129 -9235.9872 -7397.9861 301.5158 -496.4442 -436.9295 30157.3800 -86.7952 -17.0692
ENERGY: 1500000 3.2439 1.9734 2.2736 0.0000 -10730.1153 1517.0037 0.0000 0.0000 1715.1135 -7490.5072 294.7189 -9205.6207 -7403.9395 301.0918 488.3836 628.6344 30092.6667 -100.6089 -23.5170
TCL: Running FEP window   6: Lambda1 0.25   Lambda2 0.3    [dLambda 0.04999999999999999]
TCL: Setting parameter firsttimestep to 0
TCL: Setting parameter alchLambda to 0.25
Info: NONBONDED TABLE R-SQUARED SPACING: 0.0625
Info: NONBONDED TABLE SIZE: 705 POINTS
TCL: Setting parameter alchLambda2 to 0.3
Info: NONBONDED TABLE R-SQUARED SPACING: 0.0625
Info: NONBONDED TABLE SIZE: 705 POINTS
TCL: Running for 1500000 steps
ETITLE: TS BOND ANGLE DIHED IMPRP ELECT VDW BOUNDARY MISC KINETIC TOTAL TEMP POTENTIAL TOTALAVG TEMPAVG PRESSURE GPRESSURE VOLUME PRESSAVG GPRESSAVG
ENERGY: 0 3.2439 1.9734 2.2736 0.0000 -10730.1149 1520.1738 0.0000 0.0000 1714.2659 -7488.1843 294.5733 -9202.4502 -7488.1843 294.5733 563.6943 650.8837 30092.6667 563.6943 650.8837
ENERGY: 300000 0.7404 2.2025 1.8011 0.0000 -10585.7092 1410.8629 0.0000 0.0000 1774.8127 -7395.2896 304.9774 -9170.1023 -7428.0284 298.3813 -203.2952 -227.9758 30187.1549 73.1560 116.1569
ENERGY: 600000 2.1097 5.0626 4.0406 0.0000 -10545.1864 1393.8788 0.0000 0.0000 1774.8517 -7365.2431 304.9841 -9140.0948 -7396.5680 299.1094 -137.7879 -126.2123 30123.9276 -5.4577 23.7172
ENERGY: 900000 2.0204 4.0414 1.3547 0.0000 -10451.2467 1331.2604 0.0000 0.0000 1736.6556 -7375.9142 298.4206 -9112.5698 -7408.7478 299.1553 -765.1059 -714.0028 30559.7667 -95.0807 -62.3373
ENERGY: 1200000 3.3812 2.4257 4.1373 0.0000 -10578.2008 1450.7328 0.0000 0.0000 1771.8147 -7345.7091 304.4623 -9117.5238 -7399.4542 300.0945 151.2994 255.1117 30140.0453 -124.4591 -85.3243
ENERGY: 1500000 1.3159 2.3418 2.6811 0.0000 -10620.9508 1441.9050 0.0000 0.0000 1685.5317 -7487.1754 289.6357 -9172.7070 -7417.8452 299.2337 233.5249 255.0040 29741.3863 -116.2721 -70.8434
TCL: Running FEP window   7: Lambda1 0.3    Lambda2 0.35   [dLambda 0.04999999999999999]
TCL: Setting parameter firsttimestep to 0
TCL: Setting parameter alchLambda to 0.3
Info: NONBONDED TABLE R-SQUARED SPACING: 0.0625
Info: NONBONDED TABLE SIZE: 705 POINTS
TCL: Setting parameter alchLambda2 to 0.35
Info: NONBONDED TABLE R-SQUARED SPACING: 0.0625
Info: NONBONDED TABLE SIZE: 705 POINTS
TCL: Running for 1500000 steps
ETITLE: TS BOND ANGLE DIHED IMPRP ELECT VDW BOUNDARY MISC KINETIC TOTAL TEMP POTENTIAL TOTALAVG TEMPAVG PRESSURE GPRESSURE VOLUME PRESSAVG GPRESSAVG
ENERGY: 0 1.3159 2.3418 2.6811 0.0000 -10620.9508 1442.6725 0.0000 0.0000 1684.6610 -7487.2786 289.4861 -9171.9395 -7487.2786 289.4861 189.4749 261.9520 29741.3863 189.4749 261.9520
ENERGY: 300000 1.6194 3.4314 2.4488 0.0000 -10454.8347 1349.7973 0.0000 0.0000 1705.1972 -7392.3407 293.0149 -9097.5378 -7391.8031 296.2466 -367.6799 -383.1862 29877.4386 -9.6168 35.1528
ENERGY: 600000 1.8083 2.8190 1.7863 0.0000 -10711.7395 1459.8679 0.0000 0.0000 1774.9838 -7470.4742 305.0068 -9245.4579 -7397.8362 299.5615 -96.3650 -41.5246 30376.7400 84.2391 137.3445
ENERGY: 900000 2.9912 4.3406 5.8486 0.0000 -10660.6715 1479.3573 0.0000 0.0000 1807.2116 -7360.9221 310.5447 -9168.1337 -7395.9270 301.1825 498.2384 486.0468 29697.4898 70.2505 119.9475
ENERGY: 1200000 0.3395 2.5172 3.5297 0.0000 -10632.3466 1462.0534 0.0000 0.0000 1754.1808 -7409.7260 301.4321 -9163.9068 -7405.1814 301.0172 174.4728 274.2321 30086.5616 158.8661 217.2072
ENERGY: 1500000 3.2122 3.2117 0.9971 0.0000 -10632.3517 1494.8274 0.0000 0.0000 1742.0757 -7388.0276 299.3520 -9130.1033 -7415.6946 300.3126 462.3115 569.2953 30328.1929 81.2067 144.5987
TCL: Running FEP window   8: Lambda1 0.35   Lambda2 0.39999999999999997 [dLambda 0.04999999999999999]
TCL: Setting parameter firsttimestep to 0
TCL: Setting parameter alchLambda to 0.35
Info: NONBONDED TABLE R-SQUARED SPACING: 0.0625
Info: NONBONDED TABLE SIZE: 705 POINTS
TCL: Setting parameter alchLambda2 to 0.39999999999999997
Info: NONBONDED TABLE R-SQUARED SPACING: 0.0625
Info: NONBONDED TABLE SIZE: 705 POINTS
TCL: Running for 1500000 steps
ETITLE: TS BOND ANGLE DIHED IMPRP ELECT VDW BOUNDARY MISC KINETIC TOTAL TEMP POTENTIAL TOTALAVG TEMPAVG PRESSURE GPRESSURE VOLUME PRESSAVG GPRESSAVG
ENERGY: 0 3.2122 3.2117 0.9971 0.0000 -10632.3496 1494.5521 0.0000 0.0000 1741.1967 -7389.1798 299.2010 -9130.3765 -7389.1798 299.2010 497.7278 573.9055 30328.1929 497.7278 573.9055
ENERGY: 300000 1.7248 2.3729 2.3592 0.0000 -10536.5745 1350.5935 0.0000 0.0000 1719.5994 -7459.9247 295.4898 -9179.5242 -7430.5952 296.5328 -740.6587 -677.3742 30157.3676 -88.1428 -49.9592
ENERGY: 600000 1.2977 0.9697 1.9685 0.0000 -10653.7088 1487.6037 0.0000 0.0000 1782.5099 -7379.3592 306.3001 -9161.8691 -7431.6662 298.6332 297.6507 394.7370 30533.5117 54.4156 102.6545
ENERGY: 900000 0.9433 2.4651 3.5671 0.0000 -10489.5701 1362.0569 0.0000 0.0000 1751.6795 -7368.8582 301.0023 -9120.5377 -7433.3516 298.6226 -329.0094 -308.0453 30132.9486 -9.7160 27.8513
ENERGY: 1200000 2.1523 2.8035 1.5012 0.0000 -10585.1343 1425.4532 0.0000 0.0000 1758.9446 -7394.2795 302.2507 -9153.2241 -7426.9159 299.4486 -255.9163 -175.3896 30519.3591 -19.7705 29.9408
ENERGY: 1500000 2.0674 5.5268 2.6164 0.0000 -10533.8837 1333.3254 0.0000 0.0000 1763.7208 -7426.6269 303.0714 -9190.3477 -7421.0265 299.9003 -878.3671 -811.9769 29881.4751 -30.2665 19.4079
TCL: Running FEP window   9: Lambda1 0.39999999999999997 Lambda2 0.44999999999999996 [dLambda 0.04999999999999999]
TCL: Setting parameter firsttimestep to 0
TCL: Setting parameter alchLambda to 0.39999999999999997
Info: NONBONDED TABLE R-SQUARED SPACING: 0.0625
Info: NONBONDED TABLE SIZE: 705 POINTS
TCL: Setting parameter alchLambda2 to 0.44999999999999996
Info: NONBONDED TABLE R-SQUARED SPACING: 0.0625
Info: NONBONDED TABLE SIZE: 705 POINTS
TCL: Running for 1500000 steps
ETITLE: TS BOND ANGLE DIHED IMPRP ELECT VDW BOUNDARY MISC KINETIC TOTAL TEMP POTENTIAL TOTALAVG TEMPAVG PRESSURE GPRESSURE VOLUME PRESSAVG GPRESSAVG
ENERGY: 0 2.0674 5.5268 2.6164 0.0000 -10533.8832 1333.4714 0.0000 0.0000 1762.8770 -7427.3241 302.9264 -9190.2010 -7427.3241 302.9264 -865.0584 -802.5361 29881.4751 -865.0584 -802.5361
ENERGY: 300000 1.8931 5.6565 2.2788 0.0000 -10609.9762 1474.0051 0.0000 0.0000 1723.4453 -7402.6974 296.1506 -9126.1427 -7380.0572 300.1120 220.2036 341.3729 30248.0116 -31.9596 45.0435
ENERGY: 600000 1.7128 2.4893 2.0027 0.0000 -10652.8283 1501.5448 0.0000 0.0000 1708.7995 -7436.2792 293.6340 -9145.0787 -7390.3280 301.3418 593.7860 741.0816 30025.1959 53.3283 127.9908
ENERGY: 900000 2.6030 0.9851 1.6041 0.0000 -10594.0920 1455.9629 0.0000 0.0000 1724.0401 -7408.8968 296.2528 -9132.9369 -7397.5421 299.8759 168.5380 147.4826 30181.2164 70.4025 133.9148
ENERGY: 1200000 3.0675 3.5002 3.1462 0.0000 -10604.1881 1393.1997 0.0000 0.0000 1736.4997 -7464.7748 298.3939 -9201.2745 -7407.8546 299.8531 -67.8668 -70.5584 29740.9376 16.2708 72.4931
ENERGY: 1500000 0.8989 0.8184 2.1959 0.0000 -10610.7114 1434.3184 0.0000 0.0000 1735.3120 -7437.1679 298.1898 -9172.4799 -7419.8427 299.1946 -142.1964 -56.5641 30393.4156 -67.6124 -6.6175
TCL: Running FEP window  10: Lambda1 0.44999999999999996 Lambda2 0.49999999999999994 [dLambda 0.04999999999999999]
TCL: Setting parameter firsttimestep to 0
TCL: Setting parameter alchLambda to 0.44999999999999996
Info: NONBONDED TABLE R-SQUARED SPACING: 0.0625
Info: NONBONDED TABLE SIZE: 705 POINTS
TCL: Setting parameter alchLambda2 to 0.49999999999999994
Info: NONBONDED TABLE R-SQUARED SPACING: 0.0625
Info: NONBONDED TABLE SIZE: 705 POINTS
TCL: Running for 1500000 steps
ETITLE: TS BOND ANGLE DIHED IMPRP ELECT VDW BOUNDARY MISC KINETIC TOTAL TEMP POTENTIAL TOTALAVG TEMPAVG PRESSURE GPRESSURE VOLUME PRESSAVG GPRESSAVG
ENERGY: 0 0.8989 0.8184 2.1959 0.0000 -10610.7092 1434.2630 0.0000 0.0000 1734.4890 -7438.0440 298.0483 -9172.5331 -7438.0440 298.0483 -126.5016 -51.6266 30393.4156 -126.5016 -51.6266
ENERGY: 300000 2.3203 1.2042 2.4430 0.0000 -10655.1430 1493.7956 0.0000 0.0000 1726.1052 -7429.2747 296.6077 -9155.3799 -7414.9379 294.5984 311.1770 326.2789 30418.2100 67.9944 110.1226
ENERGY: 600000 1.6674 2.6465 2.0804 0.0000 -10623.7418 1407.7570 0.0000 0.0000 1734.5256 -7475.0649 298.0546 -9209.5905 -7432.4848 296.2392 -615.8799 -594.3232 30624.4541 67.0346 112.2724
ENERGY: 900000 4.6737 1.9076 2.8171 0.0000 -10525.9900 1369.1442 0.0000 0.0000 1731.2711 -7416.1762 297.4954 -9147.4473 -7435.5314 297.3446 -471.5391 -389.1890 30475.0743 17.4479 70.4368
ENERGY: 1200000 1.0999 1.8986 5.0089 0.0000 -10676.5057 1457.0923 0.0000 0.0000 1667.4319 -7543.9741 286.5255 -9211.4060 -7434.6294 297.3781 -96.9089 -8.6969 30259.9373 -96.0476 -34.9894
ENERGY: 1500000 2.2402 3.0396 3.6233 0.0000 -10542.1233 1391.8761 0.0000 0.0000 1799.5373 -7341.8068 309.2260 -9141.3441 -7422.6629 298.4652 -309.8848 -244.0424 30152.1811 -148.9717 -86.0190
TCL: Running FEP window  11: Lambda1 0.49999999999999994 Lambda2 0.5499999999999999 [dLambda 0.04999999999999999]
TCL: Setting parameter firsttimestep to 0
TCL: Setting parameter alchLambda to 0.49999999999999994
Info: NONBONDED TABLE R-SQUARED SPACING: 0.0625
Info: NONBONDED TABLE SIZE: 705 POINTS
TCL: Setting parameter alchLambda2 to 0.5499999999999999
Info: NONBONDED TABLE R-SQUARED SPACING: 0.0625
Info: NONBONDED TABLE SIZE: 705 POINTS
TCL: Running for 1500000 steps
ETITLE: TS BOND ANGLE DIHED IMPRP ELECT VDW BOUNDARY MISC KINETIC TOTAL TEMP POTENTIAL TOTALAVG TEMPAVG PRESSURE GPRESSURE VOLUME PRESSAVG GPRESSAVG
ENERGY: 0 2.2402 3.0396 3.6233 0.0000 -10542.1245 1394.8614 0.0000 0.0000 1798.6571 -7339.7029 309.0748 -9138.3599 -7339.7029 309.0748 -298.2872 -218.0475 30152.1811 -298.2872 -218.0475
ENERGY: 300000 3.1697 1.3507 1.2774 0.0000 -10611.9026 1427.8496 0.0000 0.0000 1736.7161 -7441.5392 298.4310 -9178.2553 -7438.4473 300.6929 152.1498 174.6265 30020.6482 113.7158 178.8088
ENERGY: 600000 0.5427 2.4058 2.8090 0.0000 -10637.6528 1430.8387 0.0000 0.0000 1752.3440 -7448.7125 301.1165 -9201.0565 -7453.8284 298.0396 151.7606 284.5463 29752.2428 160.1899 233.1013
ENERGY: 900000 2.6889 2.9823 1.8185 0.0000 -10524.3965 1362.9425 0.0000 0.0000 1696.6853 -7457.2789 291.5523 -9153.9642 -7451.5337 298.2742 -757.4645 -673.1752 30557.7010 -9.5142 64.1341
ENERGY: 1200000 2.7468 1.0081 2.4711 0.0000 -10593.4021 1464.3612 0.0000 0.0000 1717.1339 -7405.6811 295.0661 -9122.8150 -7449.8549 297.8152 445.1588 478.1124 30177.2612 -52.7617 18.6930
ENERGY: 1500000 3.5245 2.5089 3.1017 0.0000 -10645.0103 1421.0475 0.0000 0.0000 1731.0570 -7483.7706 297.4586 -9214.8276 -7445.4228 298.6268 -8.6223 -17.5406 29774.0594 64.1827 124.8217
TCL: Running FEP window  12: Lambda1 0.5499999999999999 Lambda2 0.6    [dLambda 0.050000000000000044]
TCL: Setting parameter firsttimestep to 0
TCL: Setting parameter alchLambda to 0.5499999999999999
Info: NONBONDED TABLE R-SQUARED SPACING: 0.0625
Info: NONBONDED TABLE SIZE: 705 POINTS
TCL: Setting parameter alchLambda2 to 0.6
Info: NONBONDED TABLE R-SQUARED SPACING: 0.0625
Info: NONBONDED TABLE SIZE: 705 POINTS
TCL: Running for 1500000 steps
ETITLE: TS BOND ANGLE DIHED IMPRP ELECT VDW BOUNDARY MISC KINETIC TOTAL TEMP POTENTIAL TOTALAVG TEMPAVG PRESSURE GPRESSURE VOLUME PRESSAVG GPRESSAVG
ENERGY: 0 3.5245 2.5089 3.1017 0.0000 -10645.2504 1421.4252 0.0000 0.0000 1730.2150 -7484.4750 297.3139 -9214.6900 -7484.4750 297.3139 -95.9724 -9.3870 29774.0594 -95.9724 -9.3870
ENERGY: 300000 2.2669 2.3906 2.8999 0.0000 -10761.3657 1514.3107 0.0000 0.0000 1792.9421 -7446.5555 308.0927 -9239.4976 -7458.0056 298.4747 679.7478 744.7061 30088.1005 216.9929 305.1895
ENERGY: 600000 0.6614 5.8518 3.6900 0.0000 -10478.3381 1396.3232 0.0000 0.0000 1716.9936 -7354.8181 295.0420 -9071.8117 -7443.8703 297.7510 -54.1808 90.9251 30210.0629 156.1965 249.4951
ENERGY: 900000 2.4872 1.0547 3.7428 0.0000 -10556.8778 1376.7067 0.0000 0.0000 1759.7054 -7413.1809 302.3814 -9172.8863 -7438.3323 299.5175 -685.6954 -607.4693 30473.7894 -10.5666 65.2559
ENERGY: 1200000 3.5611 4.8716 1.0517 0.0000 -10615.5549 1426.6375 0.0000 0.0000 1791.8687 -7387.5644 307.9083 -9179.4331 -7426.2539 300.7533 -125.6468 -29.2143 30005.0017 60.8339 135.1550
ENERGY: 1500000 3.8708 1.0019 1.9579 0.0000 -10568.6367 1400.2592 0.0000 0.0000 1796.3736 -7365.1733 308.6824 -9161.5469 -7419.5557 301.6460 -180.7026 -141.4323 30249.7122 4.7560 70.6229
TCL: Running FEP window  13: Lambda1 0.6    Lambda2 0.65   [dLambda 0.050000000000000044]
TCL: Setting parameter firsttimestep to 0
TCL: Setting parameter alchLambda to 0.6
Info: NONBONDED TABLE R-SQUARED SPACING: 0.0625
Info: NONBONDED TABLE SIZE: 705 POINTS
TCL: Setting parameter alchLambda2 to 0.65
Info: NONBONDED TABLE R-SQUARED SPACING: 0.0625
Info: NONBONDED TABLE SIZE: 705 POINTS
TCL: Running for 1500000 steps
ETITLE: TS BOND ANGLE DIHED IMPRP ELECT VDW BOUNDARY MISC KINETIC TOTAL TEMP POTENTIAL TOTALAVG TEMPAVG PRESSURE GPRESSURE VOLUME PRESSAVG GPRESSAVG
ENERGY: 0 3.8708 1.0019 1.9579 0.0000 -10568.7169 1400.6039 0.0000 0.0000 1795.5083 -7365.7740 308.5337 -9161.2823 -7365.7740 308.5337 -208.5659 -129.8756 30249.7122 -208.5659 -129.8756
ENERGY: 300000 4.4851 4.4632 2.5671 0.0000 -10575.8198 1438.6633 0.0000 0.0000 1751.9504 -7373.6906 301.0489 -9125.6411 -7372.0087 301.9971 -49.3442 22.4559 30277.9641 -240.0497 -179.9325
ENERGY: 600000 5.9989 1.9620 2.1520 0.0000 -10677.2813 1456.7473 0.0000 0.0000 1729.4548 -7480.9663 297.1833 -9210.4211 -7385.4101 302.8240 96.6837 166.1422 29945.8942 -262.7689 -199.8739
ENERGY: 900000 2.9239 2.4080 1.4976 0.0000 -10707.8945 1428.8001 0.0000 0.0000 1739.1028 -7533.1621 298.8412 -9272.2648 -7408.8393 301.9038 -161.5541 -99.4271 29656.1987 -191.2230 -127.1407
ENERGY: 1200000 0.9796 0.6688 0.4126 0.0000 -10704.0792 1502.1496 0.0000 0.0000 1756.0097 -7443.8588 301.7464 -9199.8685 -7420.1070 300.2827 580.0287 611.2849 29918.5938 -158.9352 -93.3540
ENERGY: 1500000 1.6523 2.0763 1.8390 0.0000 -10670.8634 1392.5063 0.0000 0.0000 1722.1639 -7550.6256 295.9304 -9272.7895 -7426.6282 300.8816 -600.7689 -484.8548 29727.1224 -193.8487 -125.0939
TCL: Running FEP window  14: Lambda1 0.65   Lambda2 0.7000000000000001 [dLambda 0.050000000000000044]
TCL: Setting parameter firsttimestep to 0
TCL: Setting parameter alchLambda to 0.65
Info: NONBONDED TABLE R-SQUARED SPACING: 0.0625
Info: NONBONDED TABLE SIZE: 705 POINTS
TCL: Setting parameter alchLambda2 to 0.7000000000000001
Info: NONBONDED TABLE R-SQUARED SPACING: 0.0625
Info: NONBONDED TABLE SIZE: 705 POINTS
TCL: Running for 1500000 steps
ETITLE: TS BOND ANGLE DIHED IMPRP ELECT VDW BOUNDARY MISC KINETIC TOTAL TEMP POTENTIAL TOTALAVG TEMPAVG PRESSURE GPRESSURE VOLUME PRESSAVG GPRESSAVG
ENERGY: 0 1.6523 2.0763 1.8390 0.0000 -10670.9703 1392.0585 0.0000 0.0000 1721.3178 -7552.0263 295.7851 -9273.3441 -7552.0263 295.7851 -556.4284 -480.1622 29727.1224 -556.4284 -480.1622
ENERGY: 300000 1.6205 0.9905 2.4995 0.0000 -10361.7958 1275.2551 0.0000 0.0000 1751.5512 -7329.8790 300.9802 -9081.4302 -7419.3101 299.9523 -1172.1732 -1068.9783 30563.1164 -704.6895 -624.9589
ENERGY: 600000 2.0651 2.5158 3.8260 0.0000 -10528.7281 1394.6402 0.0000 0.0000 1738.3392 -7387.3418 298.7100 -9125.6811 -7431.7984 299.7493 -162.1811 -91.7068 30452.8733 -646.9354 -576.0727
ENERGY: 900000 3.1207 2.8265 6.8672 0.0000 -10541.8419 1404.7106 0.0000 0.0000 1749.2744 -7375.0425 300.5890 -9124.3168 -7429.0000 299.8243 -132.3944 -50.4761 30231.4117 -664.9795 -607.1720
ENERGY: 1200000 1.1332 2.5304 3.0448 0.0000 -10393.6264 1311.4895 0.0000 0.0000 1735.5129 -7339.9155 298.2243 -9075.4284 -7420.8945 300.1237 -839.6289 -770.6607 30552.0541 -569.2419 -508.0225
ENERGY: 1500000 2.7480 3.0463 5.5584 0.0000 -10537.4264 1479.8933 0.0000 0.0000 1769.7388 -7276.4416 304.1055 -9046.1804 -7411.6005 299.7378 761.6143 770.6971 30098.7572 -480.1994 -419.9766
TCL: Running FEP window  15: Lambda1 0.7000000000000001 Lambda2 0.7500000000000001 [dLambda 0.050000000000000044]
TCL: Setting parameter firsttimestep to 0
TCL: Setting parameter alchLambda to 0.7000000000000001
Info: NONBONDED TABLE R-SQUARED SPACING: 0.0625
Info: NONBONDED TABLE SIZE: 705 POINTS
TCL: Setting parameter alchLambda2 to 0.7500000000000001
Info: NONBONDED TABLE R-SQUARED SPACING: 0.0625
Info: NONBONDED TABLE SIZE: 705 POINTS
TCL: Running for 1500000 steps
ETITLE: TS BOND ANGLE DIHED IMPRP ELECT VDW BOUNDARY MISC KINETIC TOTAL TEMP POTENTIAL TOTALAVG TEMPAVG PRESSURE GPRESSURE VOLUME PRESSAVG GPRESSAVG
ENERGY: 0 2.7481 3.0463 5.5584 0.0000 -10537.5697 1479.4837 0.0000 0.0000 1768.9063 -7277.8270 303.9625 -9046.7333 -7277.8270 303.9625 702.0180 775.4034 30098.7572 702.0180 775.4034
ENERGY: 300000 0.9679 1.7355 3.1694 0.0000 -10446.8207 1325.3165 0.0000 0.0000 1760.4302 -7355.2011 302.5060 -9115.6313 -7343.9463 303.0841 -489.0537 -512.3586 30042.1675 -136.0869 -93.6919
ENERGY: 600000 0.7984 0.7780 2.8181 0.0000 -10480.5295 1364.4345 0.0000 0.0000 1779.6910 -7332.0096 305.8157 -9111.7006 -7361.4884 303.4882 -542.1642 -490.8362 30629.6871 -127.7934 -91.3157
ENERGY: 900000 1.7653 3.7587 3.8667 0.0000 -10660.0095 1478.5284 0.0000 0.0000 1742.5247 -7429.5656 299.4292 -9172.0903 -7377.5069 303.4122 619.2532 700.1903 29872.6008 -71.5589 -27.4175
ENERGY: 1200000 0.8493 2.7921 1.2351 0.0000 -10469.9086 1330.0287 0.0000 0.0000 1792.6370 -7342.3663 308.0403 -9135.0033 -7382.7360 302.8061 -685.3479 -678.1831 30375.9895 -137.0927 -95.5224
ENERGY: 1500000 1.3907 4.1094 4.5554 0.0000 -10582.0570 1452.7607 0.0000 0.0000 1762.9839 -7356.2568 302.9448 -9119.2407 -7385.9835 303.1430 407.7027 474.8946 30158.3560 -79.5021 -34.7350
TCL: Running FEP window  16: Lambda1 0.7500000000000001 Lambda2 0.8000000000000002 [dLambda 0.050000000000000044]
TCL: Setting parameter firsttimestep to 0
TCL: Setting parameter alchLambda to 0.7500000000000001
Info: NONBONDED TABLE R-SQUARED SPACING: 0.0625
Info: NONBONDED TABLE SIZE: 705 POINTS
TCL: Setting parameter alchLambda2 to 0.8000000000000002
Info: NONBONDED TABLE R-SQUARED SPACING: 0.0625
Info: NONBONDED TABLE SIZE: 705 POINTS
TCL: Running for 1500000 steps
ETITLE: TS BOND ANGLE DIHED IMPRP ELECT VDW BOUNDARY MISC KINETIC TOTAL TEMP POTENTIAL TOTALAVG TEMPAVG PRESSURE GPRESSURE VOLUME PRESSAVG GPRESSAVG
ENERGY: 0 1.3907 4.1094 4.5554 0.0000 -10582.5812 1452.8948 0.0000 0.0000 1762.0767 -7357.5541 302.7889 -9119.6308 -7357.5541 302.7889 404.6706 483.3288 30158.3560 404.6706 483.3288
ENERGY: 300000 4.5507 3.9037 3.3215 0.0000 -10599.5923 1411.1864 0.0000 0.0000 1741.5642 -7435.0659 299.2641 -9176.6301 -7396.3088 301.0943 -162.1761 -109.3994 29781.5721 -192.3289 -140.5980
ENERGY: 600000 2.9973 2.5537 3.0363 0.0000 -10551.3584 1386.3522 0.0000 0.0000 1784.6786 -7371.7403 306.6727 -9156.4189 -7388.6783 302.0744 -203.1312 -175.7849 30564.2021 -126.4681 -71.9547
ENERGY: 900000 1.0855 5.5168 1.8493 0.0000 -10553.5711 1357.8731 0.0000 0.0000 1778.1239 -7409.1225 305.5464 -9187.2464 -7401.6862 302.0686 -575.0564 -533.7510 30338.8740 -98.0665 -41.3887
ENERGY: 1200000 2.3819 4.5963 3.4696 0.0000 -10543.8022 1320.9267 0.0000 0.0000 1711.9630 -7500.4649 294.1775 -9212.4278 -7407.3733 300.9499 -1084.0095 -988.8763 30012.9180 -112.2925 -54.2901
ENERGY: 1500000 4.7707 1.5421 3.8299 0.0000 -10678.0730 1464.9969 0.0000 0.0000 1747.9427 -7454.9908 300.3602 -9202.9335 -7411.7088 300.5898 454.6240 504.3497 29943.4553 -60.7749 -1.6515
TCL: Running FEP window  17: Lambda1 0.8000000000000002 Lambda2 0.8500000000000002 [dLambda 0.050000000000000044]
TCL: Setting parameter firsttimestep to 0
TCL: Setting parameter alchLambda to 0.8000000000000002
Info: NONBONDED TABLE R-SQUARED SPACING: 0.0625
Info: NONBONDED TABLE SIZE: 705 POINTS
TCL: Setting parameter alchLambda2 to 0.8500000000000002
Info: NONBONDED TABLE R-SQUARED SPACING: 0.0625
Info: NONBONDED TABLE SIZE: 705 POINTS
TCL: Running for 1500000 steps
ETITLE: TS BOND ANGLE DIHED IMPRP ELECT VDW BOUNDARY MISC KINETIC TOTAL TEMP POTENTIAL TOTALAVG TEMPAVG PRESSURE GPRESSURE VOLUME PRESSAVG GPRESSAVG
ENERGY: 0 4.7707 1.5421 3.8299 0.0000 -10678.0413 1464.9800 0.0000 0.0000 1747.0522 -7455.8663 300.2072 -9202.9186 -7455.8663 300.2072 447.2929 515.1133 29943.4553 447.2929 515.1133
ENERGY: 300000 1.8234 0.4975 0.8199 0.0000 -10521.4329 1400.8698 0.0000 0.0000 1748.0793 -7369.3429 300.3836 -9117.4222 -7408.0604 300.9746 -189.2513 -93.8284 30310.2437 155.1036 221.2738
ENERGY: 600000 1.5421 2.1969 1.0236 0.0000 -10558.4117 1401.1152 0.0000 0.0000 1710.5518 -7441.9821 293.9351 -9152.5339 -7418.8164 299.0987 -299.2130 -196.0067 30608.7071 -114.5636 -48.9995
ENERGY: 900000 3.3483 1.4899 3.4807 0.0000 -10504.7122 1433.7636 0.0000 0.0000 1691.6520 -7370.9777 290.6874 -9062.6297 -7422.7123 298.5759 368.8472 419.1949 30096.0076 -58.3141 -6.2759
ENERGY: 1200000 3.1508 4.3258 2.7687 0.0000 -10475.5826 1342.5340 0.0000 0.0000 1712.9025 -7409.9008 294.3390 -9122.8034 -7413.8196 299.0562 -645.1375 -596.4623 30553.7081 -75.8345 -21.9273
ENERGY: 1500000 2.5670 2.0838 3.9083 0.0000 -10814.4036 1550.0937 0.0000 0.0000 1754.7679 -7500.9829 301.5330 -9255.7508 -7418.0659 299.5409 1015.1854 961.6378 29718.3538 15.7640 63.6060
TCL: Running FEP window  18: Lambda1 0.8500000000000002 Lambda2 0.9000000000000002 [dLambda 0.050000000000000044]
TCL: Setting parameter firsttimestep to 0
TCL: Setting parameter alchLambda to 0.8500000000000002
Info: NONBONDED TABLE R-SQUARED SPACING: 0.0625
Info: NONBONDED TABLE SIZE: 705 POINTS
TCL: Setting parameter alchLambda2 to 0.9000000000000002
Info: NONBONDED TABLE R-SQUARED SPACING: 0.0625
Info: NONBONDED TABLE SIZE: 705 POINTS
TCL: Running for 1500000 steps
ETITLE: TS BOND ANGLE DIHED IMPRP ELECT VDW BOUNDARY MISC KINETIC TOTAL TEMP POTENTIAL TOTALAVG TEMPAVG PRESSURE GPRESSURE VOLUME PRESSAVG GPRESSAVG
ENERGY: 0 2.5670 2.0838 3.9083 0.0000 -10815.1402 1550.0720 0.0000 0.0000 1753.8797 -7502.6293 301.3804 -9256.5090 -7502.6293 301.3804 891.6121 969.8896 29718.3538 891.6121 969.8896
ENERGY: 300000 0.4791 4.2238 4.1972 0.0000 -10434.2823 1323.4562 0.0000 0.0000 1792.2942 -7309.6318 307.9814 -9101.9260 -7432.8053 300.2767 -557.8310 -529.4366 30267.4881 -326.3288 -269.1075
ENERGY: 600000 1.0743 1.6144 1.1033 0.0000 -10540.4135 1386.0871 0.0000 0.0000 1771.4935 -7379.0409 304.4071 -9150.5344 -7428.7689 300.4180 -35.8155 -1.1294 29750.3892 -326.1699 -275.2911
ENERGY: 900000 4.5183 2.5591 1.8319 0.0000 -10651.2228 1463.0239 0.0000 0.0000 1762.1894 -7417.1003 302.8083 -9179.2897 -7421.0482 300.4072 169.5546 175.3287 30123.3558 -195.0134 -149.9649
ENERGY: 1200000 1.2295 3.4163 1.0056 0.0000 -10608.3589 1433.1932 0.0000 0.0000 1795.7134 -7373.8010 308.5689 -9169.5143 -7415.4077 301.2088 148.9266 160.4840 30164.4807 -98.7253 -52.9163
ENERGY: 1500000 1.7997 8.2811 4.5182 0.0000 -10683.9367 1505.7904 0.0000 0.0000 1714.9931 -7448.5543 294.6982 -9163.5474 -7426.1796 300.0871 783.2958 830.2991 29646.9897 -40.6954 6.6095
TCL: Running FEP window  19: Lambda1 0.9000000000000002 Lambda2 0.9500000000000003 [dLambda 0.050000000000000044]
TCL: Setting parameter firsttimestep to 0
TCL: Setting parameter alchLambda to 0.9000000000000002
Info: NONBONDED TABLE R-SQUARED SPACING: 0.0625
Info: NONBONDED TABLE SIZE: 705 POINTS
TCL: Setting parameter alchLambda2 to 0.9500000000000003
Info: NONBONDED TABLE R-SQUARED SPACING: 0.0625
Info: NONBONDED TABLE SIZE: 705 POINTS
TCL: Running for 1500000 steps
ETITLE: TS BOND ANGLE DIHED IMPRP ELECT VDW BOUNDARY MISC KINETIC TOTAL TEMP POTENTIAL TOTALAVG TEMPAVG PRESSURE GPRESSURE VOLUME PRESSAVG GPRESSAVG
ENERGY: 0 1.7997 8.2811 4.5182 0.0000 -10684.3143 1506.0501 0.0000 0.0000 1714.0881 -7449.5771 294.5427 -9163.6652 -7449.5771 294.5427 760.6089 846.1969 29646.9897 760.6089 846.1969
ENERGY: 300000 3.0100 1.4888 4.3066 0.0000 -10519.3879 1398.4557 0.0000 0.0000 1733.7156 -7378.4113 297.9154 -9112.1269 -7424.4553 298.4882 -5.7938 70.0378 30143.3551 141.2398 216.4306
ENERGY: 600000 3.9340 2.9610 2.3708 0.0000 -10839.3547 1577.4457 0.0000 0.0000 1806.6393 -7446.0039 310.4464 -9252.6432 -7433.7488 300.3874 1197.9630 1272.2719 29689.7376 86.9815 160.7402
ENERGY: 900000 3.0847 3.6527 2.6427 0.0000 -10574.1530 1428.1417 0.0000 0.0000 1801.2908 -7335.3404 309.5273 -9136.6312 -7425.3606 300.0954 -236.5978 -152.0837 31078.8863 62.7857 136.7097
ENERGY: 1200000 2.0629 5.0858 2.3889 0.0000 -10590.5016 1394.9026 0.0000 0.0000 1740.7009 -7445.3605 299.1158 -9186.0614 -7425.9413 299.9153 -54.7477 -36.4532 29830.6552 -76.2150 -12.7974
ENERGY: 1500000 3.7942 1.4315 1.2557 0.0000 -10573.7638 1388.2616 0.0000 0.0000 1717.5864 -7461.4345 295.1439 -9179.0209 -7429.1408 299.4620 -212.3938 -131.2204 29916.9211 -78.9887 -10.2331
TCL: Running FEP window  20: Lambda1 0.9500000000000003 Lambda2 1.0    [dLambda 0.04999999999999971]
TCL: Setting parameter firsttimestep to 0
TCL: Setting parameter alchLambda to 0.9500000000000003
Info: NONBONDED TABLE R-SQUARED SPACING: 0.0625
Info: NONBONDED TABLE SIZE: 705 POINTS
TCL: Setting parameter alchLambda2 to 1.0
Info: NONBONDED TABLE R-SQUARED SPACING: 0.0625
Info: NONBONDED TABLE SIZE: 705 POINTS
TCL: Running for 1500000 steps
ETITLE: TS BOND ANGLE DIHED IMPRP ELECT VDW BOUNDARY MISC KINETIC TOTAL TEMP POTENTIAL TOTALAVG TEMPAVG PRESSURE GPRESSURE VOLUME PRESSAVG GPRESSAVG
ENERGY: 0 3.7942 1.4315 1.2557 0.0000 -10574.2391 1387.9358 0.0000 0.0000 1716.7069 -7463.1150 294.9927 -9179.8219 -7463.1150 294.9927 -215.7988 -121.6385 29916.9211 -215.7988 -121.6385
ENERGY: 300000 1.7149 3.3024 4.0207 0.0000 -10326.7871 1330.5692 0.0000 0.0000 1746.4023 -7240.7777 300.0955 -8987.1800 -7361.4300 301.8628 -317.6779 -299.5339 30872.9954 -122.6607 -46.2636
ENERGY: 600000 1.3333 4.0502 3.4864 0.0000 -10642.7745 1464.8597 0.0000 0.0000 1737.0006 -7432.0443 298.4799 -9169.0449 -7385.3000 300.0568 473.2590 460.2298 29887.3138 163.3557 214.9371
ENERGY: 900000 4.6720 0.6413 1.6568 0.0000 -10571.2422 1398.2637 0.0000 0.0000 1727.8955 -7438.1128 296.9153 -9166.0083 -7388.6184 299.6027 -291.5399 -250.4005 30254.6514 9.8220 71.6072
ENERGY: 1200000 4.2422 2.7790 3.6745 0.0000 -10534.8105 1483.1795 0.0000 0.0000 1684.6727 -7356.2625 289.4881 -9040.9352 -7404.4342 298.5244 672.5806 758.4824 30329.3382 124.9026 191.3397
ENERGY: 1500000 0.6512 1.4350 3.0158 0.0000 -10405.3686 1315.6488 0.0000 0.0000 1757.3403 -7327.2775 301.9750 -9084.6178 -7399.7163 298.2299 -731.5567 -664.4247 30600.8573 39.3579 103.5813
TCL: Exiting due to exit command.
