Info: SIMULATION PARAMETERS:
Info: TIMESTEP               2
Info: NUMBER OF STEPS        0
Info: STEPS PER CYCLE        10
Info: PERIODIC CELL BASIS 1  30.3455 0 0
Info: PERIODIC CELL BASIS 2  0 31.4136 0
Info: PERIODIC CELL BASIS 3  0 0 31.6904
Info: PERIODIC CELL CENTER   0 0 0
Info: WRAPPING WATERS AROUND PERIODIC BOUNDARIES ON OUTPUT.
Info: WRAPPING ALL CLUSTERS AROUND PERIODIC BOUNDARIES ON OUTPUT.
Info: FIRST LDB TIMESTEP     50
Info: LAST LDB TIMESTEP     -1
Info: HOM BACKGROUND SCALING 1
Info: PME BACKGROUND SCALING 1
Info: MIN ATOMS PER PATCH    40
Info: EMPTY PATCH LOAD       40 ATOMS
Info: VELOCITY FILE          mobley_646007_equil.vel
Info: CENTER OF MASS MOVING INITIALLY? NO
Info: DIELECTRIC             1
Info: EXCLUDE                SCALED ONE-FOUR
Info: 1-4 ELECTROSTATICS SCALED BY 0.833333
Info: MODIFIED 1-4 VDW PARAMETERS WILL BE USED
Info: DCD FILENAME           mobley_646007_prod.dcd
Info: DCD FREQUENCY          100000
Info: DCD FIRST STEP         100000
Info: DCD FILE WILL CONTAIN UNIT CELL DATA
Info: XST FILENAME           mobley_646007_prod.xst
Info: XST FREQUENCY          100000
Info: NO VELOCITY DCD OUTPUT
Info: NO FORCE DCD OUTPUT
Info: OUTPUT FILENAME        mobley_646007_prod
Info: BINARY OUTPUT FILES WILL BE USED
Info: RESTART FILENAME       mobley_646007_prod.restart
Info: RESTART FREQUENCY      100000
Info: BINARY RESTART FILES WILL BE USED
Info: CUTOFF                 9
Info: PAIRLIST DISTANCE      11
Info: PAIRLIST SHRINK RATE   0.01
Info: PAIRLIST GROW RATE     0.01
Info: PAIRLIST TRIGGER       0.3
Info: PAIRLISTS PER CYCLE    2
Info: PAIRLISTS ENABLED
Info: MARGIN                 2
Info: HYDROGEN GROUP CUTOFF  2.5
Info: PATCH DIMENSION        15.5
Info: ENERGY OUTPUT STEPS    100000
Info: ENERGY EVALUATION STEPS    100000
Info: OUTPUT ENERGY PRECISION 4
Info: CROSSTERM ENERGY INCLUDED IN DIHEDRAL
Info: TIMING OUTPUT STEPS    1000000
Info: PRESSURE OUTPUT STEPS  100000
Info: ALCHEMICAL FEP ON
Info: FEP CURRENT LAMBDA VALUE     0
Info: FEP COMPARISON LAMBDA VALUE  0.05
Info: FEP INTRA-ALCHEMICAL NON-BONDED INTERACTIONS WILL BE RETAINED
Info: FEP INTRA-ALCHEMICAL BONDED INTERACTIONS WILL BE RETAINED
Info: FEP VDW SHIFTING COEFFICIENT 5
Info: FEP ELEC. ACTIVE FOR ANNIHILATED PARTICLES BETWEEN LAMBDA = 0 AND LAMBDA = 0.5
Info: FEP ELEC. ACTIVE FOR EXNIHILATED PARTICLES BETWEEN LAMBDA = 0.5 AND LAMBDA = 1
Info: FEP VDW ACTIVE FOR ANNIHILATED PARTICLES BETWEEN LAMBDA = 0 AND LAMBDA = 1
Info: FEP VDW ACTIVE FOR EXNIHILATED PARTICLES BETWEEN LAMBDA = 0 AND LAMBDA = 1
Info: FEP BOND ACTIVE FOR ANNIHILATED PARTICLES BETWEEN LAMBDA = 1 AND LAMBDA = 1
Info: FEP BOND ACTIVE FOR EXNIHILATED PARTICLES BETWEEN LAMBDA = 0 AND LAMBDA = 0
Info: LANGEVIN DYNAMICS ACTIVE
Info: LANGEVIN TEMPERATURE   300
Info: LANGEVIN USING BBK INTEGRATOR
Info: LANGEVIN DAMPING COEFFICIENT IS 1 INVERSE PS
Info: LANGEVIN DYNAMICS APPLIED TO HYDROGENS
Info: LANGEVIN PISTON PRESSURE CONTROL ACTIVE
Info:        TARGET PRESSURE IS 1.01325 BAR
Info:     OSCILLATION PERIOD IS 50 FS
Info:             DECAY TIME IS 25 FS
Info:     PISTON TEMPERATURE IS 300 K
Info:       PRESSURE CONTROL IS GROUP-BASED
Info:    INITIAL STRAIN RATE IS -9.7304e-05 -9.7304e-05 -9.7304e-05
Info:       CELL FLUCTUATION IS ISOTROPIC
Info: PARTICLE MESH EWALD (PME) ACTIVE
Info: PME TOLERANCE               1e-06
Info: PME EWALD COEFFICIENT       0.348832
Info: PME INTERPOLATION ORDER     4
Info: PME GRID DIMENSIONS         32 32 32
Info: PME MAXIMUM GRID SPACING    1
Info: PME CALCULATION WILL BE PERFORMED ON GPU
Info: FULL ELECTROSTATIC EVALUATION FREQUENCY      2
Info: USING VERLET I (r-RESPA) MTS SCHEME.
Info: C1 SPLITTING OF LONG RANGE ELECTROSTATICS
Info: PLACING ATOMS IN PATCHES BY HYDROGEN GROUPS
Info: RIGID BONDS TO HYDROGEN : ALL
Info:         ERROR TOLERANCE : 1e-08
Info:          MAX ITERATIONS : 100
Info: RIGID WATER USING SETTLE ALGORITHM
Info: RANDOM NUMBER SEED     1743565287
Info: USE HYDROGEN BONDS?    NO
Info: Using AMBER format force field!
Info: AMBER PARM FILE        mobley_646007.prmtop
Info: COORDINATE PDB         mobley_646007.pdb
Info: Exclusions will be read from PARM file!
Info: SCNB (VDW SCALING)     2
Info: USING ARITHMETIC MEAN TO COMBINE L-J SIGMA PARAMETERS
Info: BINARY COORDINATES     mobley_646007_equil.coor
Info: SUMMARY OF PARAMETERS:
Info: 7 BONDS
Info: 9 ANGLES
Info:   9 HARMONIC
Info:   0 COSINE-BASED
Info: 8 DIHEDRAL
Info: 0 IMPROPER
Info: 0 CROSSTERM
Info: 0 VDW
Info: 28 VDW_PAIRS
Info: 0 NBTHOLE_PAIRS
Info: To read alchdata from file: mobley_646007.pdb
Info: To read alchflag data from column: 5
Info: STRUCTURE SUMMARY:
Info: 2921 ATOMS
Info: 2921 BONDS
Info: 27 ANGLES
Info: 43 DIHEDRALS
Info: 0 IMPROPERS
Info: 0 CROSSTERMS
Info: 2982 EXCLUSIONS
Info: 2916 RIGID BONDS
Info: ALCH: 0 ATOMS TO DISAPPEAR IN FINAL STATE
Info: ALCH: 14 ATOMS TO APPEAR IN FINAL STATE
Info: 5847 DEGREES OF FREEDOM
Info: 974 HYDROGEN GROUPS
Info: 3 ATOMS IN LARGEST HYDROGEN GROUP
Info: 974 MIGRATION GROUPS
Info: 3 ATOMS IN LARGEST MIGRATION GROUP
Info: TOTAL MASS = 17528.6 amu
Info: TOTAL CHARGE = -2.98023e-08 e
Info: MASS DENSITY = 0.963535 g/cm^3
Info: ATOM DENSITY = 0.0966923 atoms/A^3
Info: ADDED 0 IMPLICIT EXCLUSIONS
Info: NONBONDED TABLE R-SQUARED SPACING: 0.0625
Info: NONBONDED TABLE SIZE: 705 POINTS
Info: REMOVING COM VELOCITY -0.106683 -0.075203 0.0390353
Info: Use 3D box decompostion in PME FFT.
Info: Updated CUDA force table with 4096 elements.
Info: Updated CUDA LJ table with 7 x 7 elements.
Info: Found 17 unique exclusion lists needing 36 bytes
TCL: Running for 1500000 steps
ETITLE: TS BOND ANGLE DIHED IMPRP ELECT VDW BOUNDARY MISC KINETIC TOTAL TEMP POTENTIAL TOTALAVG TEMPAVG PRESSURE GPRESSURE VOLUME PRESSAVG GPRESSAVG
ENERGY: 0 1.1100 10.9241 8.8616 0.0000 -10605.6494 1420.0038 0.0000 0.0000 1707.3914 -7457.3585 293.8938 -9164.7499 -7457.3585 293.8938 -377.1347 -291.9378 30209.2365 -377.1347 -291.9378
ENERGY: 300000 1.1430 7.7141 11.0112 0.0000 -10584.6366 1452.4593 0.0000 0.0000 1711.9596 -7400.3494 294.6801 -9112.3089 -7428.7306 295.4489 229.9981 325.3599 29904.9133 -27.9073 37.0326
ENERGY: 600000 1.4427 11.8358 9.1989 0.0000 -10609.0453 1428.0796 0.0000 0.0000 1816.7823 -7341.7060 312.7233 -9158.4883 -7399.0739 298.2789 -59.0977 -15.7220 30104.9277 34.9345 97.7205
ENERGY: 900000 2.5165 8.5415 10.1963 0.0000 -10546.3447 1377.5031 0.0000 0.0000 1748.1696 -7399.4176 300.9129 -9147.5873 -7400.6990 299.1135 -721.8254 -618.3820 30220.8433 -161.1058 -92.5723
ENERGY: 1200000 0.8015 13.4038 9.3114 0.0000 -10699.6229 1500.9389 0.0000 0.0000 1782.4692 -7392.6981 306.8169 -9175.1673 -7400.2519 299.6312 438.9842 535.2586 29607.5099 -119.5422 -53.9116
ENERGY: 1500000 1.3806 12.7266 7.8134 0.0000 -10614.4782 1441.4900 0.0000 0.0000 1774.6617 -7376.4059 305.4730 -9151.0677 -7397.2062 300.0262 81.0013 109.3768 30015.8005 -151.3292 -87.8576
TCL: Running FEP window   2: Lambda1 0.05   Lambda2 0.1    [dLambda 0.05  ]
TCL: Setting parameter firsttimestep to 0
TCL: Setting parameter alchLambda to 0.05
Info: NONBONDED TABLE R-SQUARED SPACING: 0.0625
Info: NONBONDED TABLE SIZE: 705 POINTS
TCL: Setting parameter alchLambda2 to 0.1
Info: NONBONDED TABLE R-SQUARED SPACING: 0.0625
Info: NONBONDED TABLE SIZE: 705 POINTS
TCL: Running for 1500000 steps
ETITLE: TS BOND ANGLE DIHED IMPRP ELECT VDW BOUNDARY MISC KINETIC TOTAL TEMP POTENTIAL TOTALAVG TEMPAVG PRESSURE GPRESSURE VOLUME PRESSAVG GPRESSAVG
ENERGY: 0 1.3806 12.7266 7.8134 0.0000 -10614.4777 1442.9480 0.0000 0.0000 1773.7562 -7375.8529 305.3172 -9149.6091 -7375.8529 305.3172 33.5263 111.4848 30015.8005 33.5263 111.4848
ENERGY: 300000 0.4954 17.2905 7.3353 0.0000 -10610.8338 1369.0936 0.0000 0.0000 1752.0400 -7464.5790 301.5791 -9216.6190 -7406.6645 301.2742 -656.4365 -623.2906 30156.2795 -321.6717 -268.7254
ENERGY: 600000 2.3461 9.8701 10.4063 0.0000 -10629.4256 1397.4049 0.0000 0.0000 1773.1250 -7436.2733 305.2085 -9209.3982 -7406.4194 302.1515 -190.0154 -145.7144 29519.5209 -275.2951 -213.4936
ENERGY: 900000 1.3743 15.2461 7.2663 0.0000 -10457.6515 1360.3116 0.0000 0.0000 1800.9195 -7272.5336 309.9928 -9073.4531 -7384.9287 302.3146 -348.3040 -343.3671 30405.8603 -209.7637 -158.7854
ENERGY: 1200000 1.1395 15.4548 7.8444 0.0000 -10703.2954 1477.4107 0.0000 0.0000 1733.8268 -7467.6192 298.4441 -9201.4460 -7400.1576 301.9491 128.0937 193.9101 30045.9837 -169.9381 -115.8658
ENERGY: 1500000 1.2235 11.2446 8.3098 0.0000 -10591.9030 1438.3449 0.0000 0.0000 1710.2442 -7422.5361 294.3848 -9132.7803 -7399.2859 301.2878 79.0796 90.9220 29598.3232 -121.9531 -69.6265
TCL: Running FEP window   3: Lambda1 0.1    Lambda2 0.15000000000000002 [dLambda 0.05000000000000002]
TCL: Setting parameter firsttimestep to 0
TCL: Setting parameter alchLambda to 0.1
Info: NONBONDED TABLE R-SQUARED SPACING: 0.0625
Info: NONBONDED TABLE SIZE: 705 POINTS
TCL: Setting parameter alchLambda2 to 0.15000000000000002
Info: NONBONDED TABLE R-SQUARED SPACING: 0.0625
Info: NONBONDED TABLE SIZE: 705 POINTS
TCL: Running for 1500000 steps
ETITLE: TS BOND ANGLE DIHED IMPRP ELECT VDW BOUNDARY MISC KINETIC TOTAL TEMP POTENTIAL TOTALAVG TEMPAVG PRESSURE GPRESSURE VOLUME PRESSAVG GPRESSAVG
ENERGY: 0 1.2235 11.2446 8.3098 0.0000 -10591.9035 1438.5089 0.0000 0.0000 1709.3953 -7423.2215 294.2387 -9132.6168 -7423.2215 294.2387 14.7261 91.8438 29598.3232 14.7261 91.8438
ENERGY: 300000 2.9557 11.9471 7.6157 0.0000 -10666.1047 1514.7617 0.0000 0.0000 1711.0623 -7417.7621 294.5256 -9128.8245 -7376.7354 298.3128 932.2835 989.8154 29468.6343 170.1853 242.1930
ENERGY: 600000 0.8212 6.3300 10.0672 0.0000 -10669.8775 1458.7832 0.0000 0.0000 1679.5132 -7514.3628 289.0951 -9193.8760 -7405.8566 296.5210 224.8421 282.8645 29751.3090 56.1166 124.9320
ENERGY: 900000 1.9601 14.8677 8.1842 0.0000 -10682.4490 1483.2484 0.0000 0.0000 1752.3971 -7421.7915 301.6406 -9174.1886 -7391.3745 298.3345 225.6158 321.1035 29809.3063 156.1418 235.7948
ENERGY: 1200000 1.6098 12.3422 10.7151 0.0000 -10360.0932 1278.5830 0.0000 0.0000 1745.4045 -7311.4386 300.4370 -9056.8431 -7384.3784 298.4758 -1287.7678 -1160.1566 30614.7009 -28.7903 48.6050
ENERGY: 1500000 0.4907 10.8622 10.3098 0.0000 -10420.3362 1346.7208 0.0000 0.0000 1775.5971 -7276.3557 305.6340 -9051.9527 -7380.8272 299.6729 -566.0171 -412.7346 30127.7010 -39.0591 36.6141
TCL: Running FEP window   4: Lambda1 0.15000000000000002 Lambda2 0.2    [dLambda 0.04999999999999999]
TCL: Setting parameter firsttimestep to 0
TCL: Setting parameter alchLambda to 0.15000000000000002
Info: NONBONDED TABLE R-SQUARED SPACING: 0.0625
Info: NONBONDED TABLE SIZE: 705 POINTS
TCL: Setting parameter alchLambda2 to 0.2
Info: NONBONDED TABLE R-SQUARED SPACING: 0.0625
Info: NONBONDED TABLE SIZE: 705 POINTS
TCL: Running for 1500000 steps
ETITLE: TS BOND ANGLE DIHED IMPRP ELECT VDW BOUNDARY MISC KINETIC TOTAL TEMP POTENTIAL TOTALAVG TEMPAVG PRESSURE GPRESSURE VOLUME PRESSAVG GPRESSAVG
ENERGY: 0 0.4907 10.8622 10.3098 0.0000 -10420.3357 1347.6024 0.0000 0.0000 1774.7109 -7276.3596 305.4815 -9051.0705 -7276.3596 305.4815 -498.9164 -406.6007 30127.7010 -498.9164 -406.6007
ENERGY: 300000 2.6320 9.4713 9.5336 0.0000 -10537.6568 1391.6070 0.0000 0.0000 1693.6375 -7430.7754 291.5263 -9124.4129 -7398.0408 299.2958 -347.6356 -273.5187 29771.2928 -243.6667 -142.9736
ENERGY: 600000 1.2884 15.7468 8.2009 0.0000 -10594.6158 1437.1073 0.0000 0.0000 1785.4682 -7346.8042 307.3332 -9132.2724 -7396.3179 301.0986 3.9330 104.8963 30064.5804 -377.0964 -279.4953
ENERGY: 900000 1.2765 9.4556 9.5354 0.0000 -10578.8572 1482.4086 0.0000 0.0000 1699.8644 -7376.3167 292.5981 -9076.1811 -7385.4458 300.1645 465.4382 554.2479 29981.1504 -200.6903 -104.9700
ENERGY: 1200000 1.8949 13.5753 8.0616 0.0000 -10439.0573 1339.1287 0.0000 0.0000 1741.1072 -7335.2895 299.6973 -9076.3968 -7397.6386 299.0220 -608.1747 -538.8391 30324.7624 -208.0018 -114.3141
ENERGY: 1500000 1.8689 11.8347 7.7635 0.0000 -10485.5806 1431.5467 0.0000 0.0000 1701.1554 -7331.4113 292.8204 -9032.5667 -7388.2932 298.0688 39.4313 82.4904 30357.3991 -188.1483 -101.8893
TCL: Running FEP window   5: Lambda1 0.2    Lambda2 0.25   [dLambda 0.04999999999999999]
TCL: Setting parameter firsttimestep to 0
TCL: Setting parameter alchLambda to 0.2
Info: NONBONDED TABLE R-SQUARED SPACING: 0.0625
Info: NONBONDED TABLE SIZE: 705 POINTS
TCL: Setting parameter alchLambda2 to 0.25
Info: NONBONDED TABLE R-SQUARED SPACING: 0.0625
Info: NONBONDED TABLE SIZE: 705 POINTS
TCL: Running for 1500000 steps
ETITLE: TS BOND ANGLE DIHED IMPRP ELECT VDW BOUNDARY MISC KINETIC TOTAL TEMP POTENTIAL TOTALAVG TEMPAVG PRESSURE GPRESSURE VOLUME PRESSAVG GPRESSAVG
ENERGY: 0 1.8689 11.8347 7.7635 0.0000 -10485.5806 1432.1190 0.0000 0.0000 1700.2612 -7331.7333 292.6664 -9031.9945 -7331.7333 292.6664 -4.0984 88.4348 30357.3991 -4.0984 88.4348
ENERGY: 300000 0.7192 11.6402 7.8648 0.0000 -10742.5623 1549.1493 0.0000 0.0000 1714.3264 -7458.8624 295.0875 -9173.1888 -7430.2627 294.9832 1047.6152 1065.0351 29579.2553 283.4202 352.4036
ENERGY: 600000 3.2263 11.1631 10.1756 0.0000 -10539.1860 1426.3159 0.0000 0.0000 1725.5120 -7362.7931 297.0129 -9088.3051 -7413.8182 295.5981 163.7873 201.8032 30169.7901 115.7713 184.7214
ENERGY: 900000 1.0757 13.6282 9.8494 0.0000 -10702.8128 1417.8606 0.0000 0.0000 1754.3386 -7506.0603 301.9748 -9260.3989 -7419.1585 296.7930 -611.0811 -519.1487 29859.9727 -28.2465 48.8665
ENERGY: 1200000 0.8068 15.4402 7.5161 0.0000 -10609.1268 1385.2899 0.0000 0.0000 1731.0767 -7468.9970 297.9707 -9200.0736 -7421.3988 297.1284 -479.5951 -386.4425 29858.3403 -89.0724 -9.1123
ENERGY: 1500000 1.0863 7.1259 8.5595 0.0000 -10634.7855 1443.1921 0.0000 0.0000 1788.8493 -7385.9723 307.9151 -9174.8217 -7416.3387 297.9765 -207.8423 -116.9389 30245.6215 -97.7331 -21.0591
TCL: Running FEP window   6: Lambda1 0.25   Lambda2 0.3    [dLambda 0.04999999999999999]
TCL: Setting parameter firsttimestep to 0
TCL: Setting parameter alchLambda to 0.25
Info: NONBONDED TABLE R-SQUARED SPACING: 0.0625
Info: NONBONDED TABLE SIZE: 705 POINTS
TCL: Setting parameter alchLambda2 to 0.3
Info: NONBONDED TABLE R-SQUARED SPACING: 0.0625
Info: NONBONDED TABLE SIZE: 705 POINTS
TCL: Running for 1500000 steps
ETITLE: TS BOND ANGLE DIHED IMPRP ELECT VDW BOUNDARY MISC KINETIC TOTAL TEMP POTENTIAL TOTALAVG TEMPAVG PRESSURE GPRESSURE VOLUME PRESSAVG GPRESSAVG
ENERGY: 0 1.0863 7.1259 8.5595 0.0000 -10634.7857 1442.9538 0.0000 0.0000 1787.9907 -7387.0695 307.7674 -9175.0602 -7387.0695 307.7674 -209.1543 -117.0653 30245.6215 -209.1543 -117.0653
ENERGY: 300000 0.7182 9.9791 10.3782 0.0000 -10485.7376 1339.9565 0.0000 0.0000 1808.4415 -7316.2642 311.2875 -9124.7057 -7412.9126 300.8269 -632.4779 -608.0263 30315.1443 -165.5146 -112.3573
ENERGY: 600000 1.6857 11.4228 9.4391 0.0000 -10662.1757 1474.4688 0.0000 0.0000 1802.4114 -7362.7478 310.2496 -9165.1592 -7401.9064 302.8011 487.8428 497.3397 29754.2702 -100.9377 -56.1533
ENERGY: 900000 3.5311 10.6678 9.0645 0.0000 -10457.4475 1338.1944 0.0000 0.0000 1761.8974 -7334.0923 303.2759 -9095.9897 -7393.2720 302.1547 -642.9897 -567.1137 30339.9619 -93.4787 -44.5743
ENERGY: 1200000 2.4922 10.2725 10.2463 0.0000 -10664.4997 1472.8496 0.0000 0.0000 1770.4761 -7398.1629 304.7526 -9168.6391 -7405.4115 300.8979 260.4792 325.2192 29877.4844 -11.1444 41.7131
ENERGY: 1500000 0.6000 9.5177 8.2179 0.0000 -10606.4417 1449.7077 0.0000 0.0000 1711.3043 -7427.0942 294.5673 -9138.3985 -7411.9274 300.5934 78.7222 217.8023 29876.1700 0.8438 63.1278
TCL: Running FEP window   7: Lambda1 0.3    Lambda2 0.35   [dLambda 0.04999999999999999]
TCL: Setting parameter firsttimestep to 0
TCL: Setting parameter alchLambda to 0.3
Info: NONBONDED TABLE R-SQUARED SPACING: 0.0625
Info: NONBONDED TABLE SIZE: 705 POINTS
TCL: Setting parameter alchLambda2 to 0.35
Info: NONBONDED TABLE R-SQUARED SPACING: 0.0625
Info: NONBONDED TABLE SIZE: 705 POINTS
TCL: Running for 1500000 steps
ETITLE: TS BOND ANGLE DIHED IMPRP ELECT VDW BOUNDARY MISC KINETIC TOTAL TEMP POTENTIAL TOTALAVG TEMPAVG PRESSURE GPRESSURE VOLUME PRESSAVG GPRESSAVG
ENERGY: 0 0.6000 9.5177 8.2179 0.0000 -10606.4430 1449.5476 0.0000 0.0000 1710.4079 -7428.1519 294.4130 -9138.5599 -7428.1519 294.4130 146.8390 218.9743 29876.1700 146.8390 218.9743
ENERGY: 300000 0.9524 10.5937 7.9442 0.0000 -10526.3055 1398.0284 0.0000 0.0000 1800.5513 -7308.2355 309.9294 -9108.7867 -7404.3972 300.0687 -267.6543 -243.4014 30410.8651 -126.6300 -55.1456
ENERGY: 600000 1.2308 12.7817 7.8240 0.0000 -10512.7551 1453.5659 0.0000 0.0000 1693.0627 -7344.2899 291.4274 -9037.3526 -7405.0047 297.1910 407.6818 454.5261 29769.6296 -82.3548 -22.9066
ENERGY: 900000 1.4528 9.0936 10.2192 0.0000 -10594.9423 1499.6274 0.0000 0.0000 1739.8754 -7334.6739 299.4852 -9074.5492 -7391.4005 299.0210 1005.6766 1056.8738 29503.0293 41.5075 104.8775
ENERGY: 1200000 1.1015 9.4072 9.2490 0.0000 -10431.3562 1323.9649 0.0000 0.0000 1753.2950 -7334.3386 301.7952 -9087.6336 -7393.2821 299.4223 -876.3096 -764.3251 30367.2351 -78.5983 -6.8900
ENERGY: 1500000 1.5582 9.8746 9.6435 0.0000 -10680.0462 1502.3367 0.0000 0.0000 1766.2029 -7390.4304 304.0170 -9156.6333 -7404.3669 299.0859 862.4966 906.1054 29772.4333 -6.0567 57.4526
TCL: Running FEP window   8: Lambda1 0.35   Lambda2 0.39999999999999997 [dLambda 0.04999999999999999]
TCL: Setting parameter firsttimestep to 0
TCL: Setting parameter alchLambda to 0.35
Info: NONBONDED TABLE R-SQUARED SPACING: 0.0625
Info: NONBONDED TABLE SIZE: 705 POINTS
TCL: Setting parameter alchLambda2 to 0.39999999999999997
Info: NONBONDED TABLE R-SQUARED SPACING: 0.0625
Info: NONBONDED TABLE SIZE: 705 POINTS
TCL: Running for 1500000 steps
ETITLE: TS BOND ANGLE DIHED IMPRP ELECT VDW BOUNDARY MISC KINETIC TOTAL TEMP POTENTIAL TOTALAVG TEMPAVG PRESSURE GPRESSURE VOLUME PRESSAVG GPRESSAVG
ENERGY: 0 1.5582 9.8746 9.6435 0.0000 -10680.0463 1502.6955 0.0000 0.0000 1765.3194 -7390.9552 303.8649 -9156.2746 -7390.9552 303.8649 822.4302 915.1344 29772.4333 822.4302 915.1344
ENERGY: 300000 0.1954 11.1840 8.0127 0.0000 -10710.8145 1477.8230 0.0000 0.0000 1731.1536 -7482.4458 297.9840 -9213.5994 -7404.0945 301.5059 117.1819 252.1968 29712.6138 83.0623 185.0019
ENERGY: 600000 1.7672 8.5198 11.0396 0.0000 -10566.0617 1341.5169 0.0000 0.0000 1785.4230 -7417.7952 307.3254 -9203.2182 -7385.2990 303.6254 -712.4952 -686.2840 29852.6747 -191.5497 -108.8273
ENERGY: 900000 0.6408 9.7399 10.2752 0.0000 -10589.6808 1392.2878 0.0000 0.0000 1709.9739 -7466.7632 294.3383 -9176.7371 -7395.1171 302.3224 -305.4631 -292.5257 29776.5642 -262.9904 -197.7342
ENERGY: 1200000 1.9687 10.7169 9.6410 0.0000 -10628.2642 1417.2260 0.0000 0.0000 1810.2322 -7378.4794 311.5958 -9188.7116 -7395.5181 303.2476 105.8219 180.6770 29319.1463 -200.4886 -126.7668
ENERGY: 1500000 1.5107 10.4800 11.1788 0.0000 -10580.1125 1440.3276 0.0000 0.0000 1765.2262 -7351.3892 303.8489 -9116.6154 -7383.1379 303.2830 83.5717 163.7535 29793.8765 -118.9300 -47.5416
TCL: Running FEP window   9: Lambda1 0.39999999999999997 Lambda2 0.44999999999999996 [dLambda 0.04999999999999999]
TCL: Setting parameter firsttimestep to 0
TCL: Setting parameter alchLambda to 0.39999999999999997
Info: NONBONDED TABLE R-SQUARED SPACING: 0.0625
Info: NONBONDED TABLE SIZE: 705 POINTS
TCL: Setting parameter alchLambda2 to 0.44999999999999996
Info: NONBONDED TABLE R-SQUARED SPACING: 0.0625
Info: NONBONDED TABLE SIZE: 705 POINTS
TCL: Running for 1500000 steps
ETITLE: TS BOND ANGLE DIHED IMPRP ELECT VDW BOUNDARY MISC KINETIC TOTAL TEMP POTENTIAL TOTALAVG TEMPAVG PRESSURE GPRESSURE VOLUME PRESSAVG GPRESSAVG
ENERGY: 0 1.5107 10.4800 11.1788 0.0000 -10580.1125 1440.8545 0.0000 0.0000 1764.3350 -7351.7535 303.6955 -9116.0885 -7351.7535 303.6955 94.2637 172.4884 29793.8765 94.2637 172.4884
ENERGY: 300000 1.4869 11.1076 6.6417 0.0000 -10729.9261 1523.2266 0.0000 0.0000 1793.3640 -7394.0993 308.6922 -9187.4633 -7397.2701 301.8205 730.1910 810.3906 29745.9313 44.5477 101.7918
ENERGY: 600000 1.0523 8.5874 8.3220 0.0000 -10614.7355 1411.4721 0.0000 0.0000 1718.6751 -7466.6266 295.8360 -9185.3017 -7413.5136 300.7398 -253.9723 -161.4994 29894.4492 -83.7847 -20.5513
ENERGY: 900000 0.5579 12.6392 9.7316 0.0000 -10429.7096 1334.6697 0.0000 0.0000 1789.7411 -7282.3701 308.0687 -9072.1112 -7399.4883 300.9637 -571.6063 -473.1633 30075.1854 -155.1484 -93.9640
ENERGY: 1200000 2.2243 12.0806 7.4954 0.0000 -10589.5082 1381.6611 0.0000 0.0000 1697.0741 -7488.9726 292.1178 -9186.0467 -7388.3580 300.6022 -588.7130 -596.2481 30111.7090 -178.0480 -125.2154
ENERGY: 1500000 2.0242 9.1280 9.4002 0.0000 -10586.1499 1458.4798 0.0000 0.0000 1818.4715 -7288.6462 313.0140 -9107.1177 -7386.8675 301.3988 693.8089 700.5486 29662.9034 -128.9440 -77.6004
TCL: Running FEP window  10: Lambda1 0.44999999999999996 Lambda2 0.49999999999999994 [dLambda 0.04999999999999999]
TCL: Setting parameter firsttimestep to 0
TCL: Setting parameter alchLambda to 0.44999999999999996
Info: NONBONDED TABLE R-SQUARED SPACING: 0.0625
Info: NONBONDED TABLE SIZE: 705 POINTS
TCL: Setting parameter alchLambda2 to 0.49999999999999994
Info: NONBONDED TABLE R-SQUARED SPACING: 0.0625
Info: NONBONDED TABLE SIZE: 705 POINTS
TCL: Running for 1500000 steps
ETITLE: TS BOND ANGLE DIHED IMPRP ELECT VDW BOUNDARY MISC KINETIC TOTAL TEMP POTENTIAL TOTALAVG TEMPAVG PRESSURE GPRESSURE VOLUME PRESSAVG GPRESSAVG
ENERGY: 0 2.0242 9.1280 9.4002 0.0000 -10586.1509 1458.3640 0.0000 0.0000 1817.6033 -7289.6312 312.8646 -9107.2345 -7289.6312 312.8646 623.5247 705.7548 29662.9034 623.5247 705.7548
ENERGY: 300000 0.6614 10.5599 10.2300 0.0000 -10566.7700 1368.4448 0.0000 0.0000 1701.0865 -7475.7874 292.8085 -9176.8739 -7378.3125 301.6030 -570.1615 -526.8742 29942.9865 149.3475 218.0543
ENERGY: 600000 0.6795 15.5628 6.8285 0.0000 -10450.3160 1330.0539 0.0000 0.0000 1743.2535 -7353.9377 300.0667 -9097.1912 -7375.1478 302.6194 -732.7887 -639.2944 30415.0953 -18.3808 62.3359
ENERGY: 900000 0.4580 5.2353 14.4352 0.0000 -10729.1633 1497.0745 0.0000 0.0000 1755.0072 -7456.9530 302.0899 -9211.9602 -7386.4442 301.8754 349.6098 499.4227 29699.6556 9.0095 98.5788
ENERGY: 1200000 1.4499 12.0753 9.1020 0.0000 -10642.2264 1494.1618 0.0000 0.0000 1695.6931 -7429.7444 291.8801 -9125.4375 -7386.7520 301.2574 420.2649 506.8313 29962.2289 9.5671 92.7633
ENERGY: 1500000 1.7024 7.9209 9.3198 0.0000 -10674.7619 1468.3135 0.0000 0.0000 1731.3278 -7456.1775 298.0140 -9187.5053 -7381.8793 301.2155 266.3011 289.9453 29821.5028 33.1652 108.3086
TCL: Running FEP window  11: Lambda1 0.49999999999999994 Lambda2 0.5499999999999999 [dLambda 0.04999999999999999]
TCL: Setting parameter firsttimestep to 0
TCL: Setting parameter alchLambda to 0.49999999999999994
Info: NONBONDED TABLE R-SQUARED SPACING: 0.0625
Info: NONBONDED TABLE SIZE: 705 POINTS
TCL: Setting parameter alchLambda2 to 0.5499999999999999
Info: NONBONDED TABLE R-SQUARED SPACING: 0.0625
Info: NONBONDED TABLE SIZE: 705 POINTS
TCL: Running for 1500000 steps
ETITLE: TS BOND ANGLE DIHED IMPRP ELECT VDW BOUNDARY MISC KINETIC TOTAL TEMP POTENTIAL TOTALAVG TEMPAVG PRESSURE GPRESSURE VOLUME PRESSAVG GPRESSAVG
ENERGY: 0 1.7024 7.9209 9.3198 0.0000 -10674.7622 1467.9182 0.0000 0.0000 1730.4151 -7457.4858 297.8568 -9187.9009 -7457.4858 297.8568 200.6194 291.6005 29821.5028 200.6194 291.6005
ENERGY: 300000 0.9026 8.3726 9.5782 0.0000 -10506.9796 1388.8666 0.0000 0.0000 1751.7344 -7347.5253 301.5265 -9099.2597 -7396.5888 299.7098 -200.8138 -166.1128 30116.5252 85.1730 151.5942
ENERGY: 600000 1.3513 12.9765 9.0741 0.0000 -10490.4733 1355.5505 0.0000 0.0000 1732.7309 -7378.7900 298.2555 -9111.5209 -7377.9719 301.6884 -519.7143 -434.5892 30184.2337 16.5797 87.9177
ENERGY: 900000 3.2726 10.1656 11.6708 0.0000 -10616.6762 1386.2603 0.0000 0.0000 1708.0949 -7497.2120 294.0149 -9205.3069 -7391.3963 299.5258 -427.5943 -416.7326 29958.4916 -83.1568 -12.0642
ENERGY: 1200000 0.5816 10.7409 10.4561 0.0000 -10592.4759 1440.4955 0.0000 0.0000 1689.6099 -7440.5919 290.8330 -9130.2018 -7398.6470 299.4904 233.8323 234.7899 29724.6754 -123.2080 -56.9063
ENERGY: 1500000 0.5618 13.1372 8.3245 0.0000 -10768.0385 1459.2284 0.0000 0.0000 1754.5838 -7532.2027 302.0170 -9286.7866 -7400.7062 299.9945 89.3170 139.4670 29526.1792 -125.2452 -62.8625
TCL: Running FEP window  12: Lambda1 0.5499999999999999 Lambda2 0.6    [dLambda 0.050000000000000044]
TCL: Setting parameter firsttimestep to 0
TCL: Setting parameter alchLambda to 0.5499999999999999
Info: NONBONDED TABLE R-SQUARED SPACING: 0.0625
Info: NONBONDED TABLE SIZE: 705 POINTS
TCL: Setting parameter alchLambda2 to 0.6
Info: NONBONDED TABLE R-SQUARED SPACING: 0.0625
Info: NONBONDED TABLE SIZE: 705 POINTS
TCL: Running for 1500000 steps
ETITLE: TS BOND ANGLE DIHED IMPRP ELECT VDW BOUNDARY MISC KINETIC TOTAL TEMP POTENTIAL TOTALAVG TEMPAVG PRESSURE GPRESSURE VOLUME PRESSAVG GPRESSAVG
ENERGY: 0 0.5618 13.1372 8.3245 0.0000 -10767.9055 1458.8535 0.0000 0.0000 1753.7146 -7533.3139 301.8674 -9287.0285 -7533.3139 301.8674 54.8780 140.3868 29526.1792 54.8780 140.3868
ENERGY: 300000 1.7576 7.9210 9.4393 0.0000 -10713.1898 1510.2978 0.0000 0.0000 1780.8002 -7402.9739 306.5296 -9183.7741 -7430.2576 301.9662 658.2234 765.1715 29878.7127 138.3459 171.3171
ENERGY: 600000 1.1630 9.1021 8.5240 0.0000 -10490.2332 1358.6309 0.0000 0.0000 1702.7840 -7410.0292 293.1007 -9112.8133 -7418.9127 299.1135 -883.6196 -809.9975 30636.7991 -130.5599 -82.9607
ENERGY: 900000 1.1269 9.4722 9.6235 0.0000 -10633.8991 1440.6671 0.0000 0.0000 1757.4045 -7415.6049 302.5025 -9173.0095 -7422.6611 298.9957 121.3680 158.1521 29875.5628 -129.4436 -76.4946
ENERGY: 1200000 0.5109 5.0643 11.2290 0.0000 -10536.3191 1372.7528 0.0000 0.0000 1741.1588 -7405.6032 299.7062 -9146.7621 -7424.7073 297.9719 -331.5851 -271.3257 30057.2555 -151.1215 -99.1694
ENERGY: 1500000 1.2440 12.1243 7.3691 0.0000 -10672.7616 1461.9487 0.0000 0.0000 1736.8385 -7453.2370 298.9625 -9190.0755 -7414.4855 298.2557 288.0260 386.7198 29509.7829 -111.3990 -51.2957
TCL: Running FEP window  13: Lambda1 0.6    Lambda2 0.65   [dLambda 0.050000000000000044]
TCL: Setting parameter firsttimestep to 0
TCL: Setting parameter alchLambda to 0.6
Info: NONBONDED TABLE R-SQUARED SPACING: 0.0625
Info: NONBONDED TABLE SIZE: 705 POINTS
TCL: Setting parameter alchLambda2 to 0.65
Info: NONBONDED TABLE R-SQUARED SPACING: 0.0625
Info: NONBONDED TABLE SIZE: 705 POINTS
TCL: Running for 1500000 steps
ETITLE: TS BOND ANGLE DIHED IMPRP ELECT VDW BOUNDARY MISC KINETIC TOTAL TEMP POTENTIAL TOTALAVG TEMPAVG PRESSURE GPRESSURE VOLUME PRESSAVG GPRESSAVG
ENERGY: 0 1.2440 12.1243 7.3691 0.0000 -10672.9933 1462.4915 0.0000 0.0000 1735.9750 -7453.7893 298.8139 -9189.7643 -7453.7893 298.8139 304.8864 397.1748 29509.7829 304.8864 397.1748
ENERGY: 300000 0.9271 11.7512 9.1911 0.0000 -10435.8632 1368.4003 0.0000 0.0000 1730.7092 -7314.8843 297.9075 -9045.5934 -7388.7788 300.8863 -365.2900 -322.8569 30546.3451 72.8374 154.1753
ENERGY: 600000 0.4093 13.0222 9.4631 0.0000 -10700.4981 1535.0066 0.0000 0.0000 1719.9846 -7422.6122 296.0614 -9142.5968 -7386.8404 298.8944 877.3697 985.0474 29836.8282 267.1414 339.4688
ENERGY: 900000 0.7473 8.5109 12.6590 0.0000 -10531.0413 1411.2457 0.0000 0.0000 1790.1436 -7307.7348 308.1379 -9097.8783 -7391.3957 298.8635 -80.6928 -9.6290 30152.9572 131.6424 195.2227
ENERGY: 1200000 2.6415 9.6012 9.1609 0.0000 -10706.4865 1506.3928 0.0000 0.0000 1779.6130 -7399.0770 306.3253 -9178.6901 -7384.7726 299.3921 889.4591 909.6021 29728.6119 204.6343 267.8249
ENERGY: 1500000 0.8741 13.8823 10.4363 0.0000 -10642.0770 1466.5291 0.0000 0.0000 1792.4897 -7357.8655 308.5418 -9150.3552 -7388.2052 300.5805 655.3854 640.4338 29552.2065 261.2532 322.6372
TCL: Running FEP window  14: Lambda1 0.65   Lambda2 0.7000000000000001 [dLambda 0.050000000000000044]
TCL: Setting parameter firsttimestep to 0
TCL: Setting parameter alchLambda to 0.65
Info: NONBONDED TABLE R-SQUARED SPACING: 0.0625
Info: NONBONDED TABLE SIZE: 705 POINTS
TCL: Setting parameter alchLambda2 to 0.7000000000000001
Info: NONBONDED TABLE R-SQUARED SPACING: 0.0625
Info: NONBONDED TABLE SIZE: 705 POINTS
TCL: Running for 1500000 steps
ETITLE: TS BOND ANGLE DIHED IMPRP ELECT VDW BOUNDARY MISC KINETIC TOTAL TEMP POTENTIAL TOTALAVG TEMPAVG PRESSURE GPRESSURE VOLUME PRESSAVG GPRESSAVG
ENERGY: 0 0.8741 13.8823 10.4363 0.0000 -10641.9050 1466.7530 0.0000 0.0000 1791.6370 -7358.3224 308.3950 -9149.9594 -7358.3224 308.3950 563.1182 649.1668 29552.2065 563.1182 649.1668
ENERGY: 300000 3.8148 10.6752 8.6901 0.0000 -10517.1351 1368.8048 0.0000 0.0000 1733.8388 -7391.3115 298.4462 -9125.1503 -7383.9685 301.0089 -578.2647 -503.9415 30601.5656 -185.4024 -120.0204
ENERGY: 600000 2.1889 15.3537 9.9156 0.0000 -10629.2543 1446.8683 0.0000 0.0000 1751.0249 -7403.9029 301.4044 -9154.9278 -7402.3323 300.3426 111.8046 170.9878 29760.9558 -210.2023 -148.7855
ENERGY: 900000 2.3147 9.7718 8.2064 0.0000 -10733.9362 1502.4215 0.0000 0.0000 1751.3473 -7459.8744 301.4599 -9211.2217 -7410.2678 299.9110 643.7182 602.6339 29802.5580 -194.2829 -140.1016
ENERGY: 1200000 1.6732 9.3143 8.2377 0.0000 -10753.6319 1479.6160 0.0000 0.0000 1778.9681 -7475.8226 306.2143 -9254.7907 -7402.6467 300.7720 223.7861 303.4068 29695.0539 -207.9530 -151.2585
ENERGY: 1500000 1.3741 13.4536 9.0278 0.0000 -10698.4259 1505.4445 0.0000 0.0000 1723.8815 -7445.2443 296.7322 -9169.1258 -7407.6474 300.2295 467.3236 622.1825 29866.4097 -152.4259 -83.8333
TCL: Running FEP window  15: Lambda1 0.7000000000000001 Lambda2 0.7500000000000001 [dLambda 0.050000000000000044]
TCL: Setting parameter firsttimestep to 0
TCL: Setting parameter alchLambda to 0.7000000000000001
Info: NONBONDED TABLE R-SQUARED SPACING: 0.0625
Info: NONBONDED TABLE SIZE: 705 POINTS
TCL: Setting parameter alchLambda2 to 0.7500000000000001
Info: NONBONDED TABLE R-SQUARED SPACING: 0.0625
Info: NONBONDED TABLE SIZE: 705 POINTS
TCL: Running for 1500000 steps
ETITLE: TS BOND ANGLE DIHED IMPRP ELECT VDW BOUNDARY MISC KINETIC TOTAL TEMP POTENTIAL TOTALAVG TEMPAVG PRESSURE GPRESSURE VOLUME PRESSAVG GPRESSAVG
ENERGY: 0 1.3741 13.4536 9.0278 0.0000 -10700.2419 1506.4062 0.0000 0.0000 1723.0043 -7446.9759 296.5812 -9169.9802 -7446.9759 296.5812 539.8550 632.0437 29866.4097 539.8550 632.0437
ENERGY: 300000 1.8752 12.5307 11.1708 0.0000 -10610.3546 1471.0515 0.0000 0.0000 1746.9660 -7366.7604 300.7058 -9113.7263 -7454.0205 294.3536 300.9038 381.1449 30100.6736 -49.3050 18.1199
ENERGY: 600000 0.7741 11.6046 8.4253 0.0000 -10548.1419 1367.7014 0.0000 0.0000 1744.2082 -7415.4283 300.2310 -9159.6365 -7458.0064 295.9978 -470.9634 -390.8422 30113.8984 -288.4956 -221.8328
ENERGY: 900000 0.1424 13.2198 8.9337 0.0000 -10599.7943 1416.3402 0.0000 0.0000 1750.9147 -7410.2435 301.3854 -9161.1582 -7446.9455 295.5335 -37.6728 5.9855 30047.0427 -374.9464 -315.5989
ENERGY: 1200000 1.7302 9.9846 9.0707 0.0000 -10696.7627 1523.3472 0.0000 0.0000 1771.0781 -7381.5519 304.8562 -9152.6300 -7434.5348 296.9888 801.4284 894.9555 29696.4200 -249.0907 -176.9778
ENERGY: 1500000 1.8008 8.6910 9.9703 0.0000 -10437.7366 1402.4913 0.0000 0.0000 1777.5576 -7237.2257 305.9715 -9014.7832 -7412.1977 298.6739 77.2610 132.4058 30386.0807 -184.8683 -116.3037
TCL: Running FEP window  16: Lambda1 0.7500000000000001 Lambda2 0.8000000000000002 [dLambda 0.050000000000000044]
TCL: Setting parameter firsttimestep to 0
TCL: Setting parameter alchLambda to 0.7500000000000001
Info: NONBONDED TABLE R-SQUARED SPACING: 0.0625
Info: NONBONDED TABLE SIZE: 705 POINTS
TCL: Setting parameter alchLambda2 to 0.8000000000000002
Info: NONBONDED TABLE R-SQUARED SPACING: 0.0625
Info: NONBONDED TABLE SIZE: 705 POINTS
TCL: Running for 1500000 steps
ETITLE: TS BOND ANGLE DIHED IMPRP ELECT VDW BOUNDARY MISC KINETIC TOTAL TEMP POTENTIAL TOTALAVG TEMPAVG PRESSURE GPRESSURE VOLUME PRESSAVG GPRESSAVG
ENERGY: 0 1.8008 8.6910 9.9703 0.0000 -10439.0100 1402.8200 0.0000 0.0000 1776.6639 -7239.0640 305.8177 -9015.7279 -7239.0640 305.8177 64.5161 140.4586 30386.0807 64.5161 140.4586
ENERGY: 300000 0.8693 12.1301 9.9047 0.0000 -10607.9522 1431.7165 0.0000 0.0000 1712.2784 -7441.0532 294.7350 -9153.3317 -7401.7670 298.3007 74.0410 179.4287 29853.6086 91.7298 164.2557
ENERGY: 600000 1.4820 8.0259 9.6936 0.0000 -10715.3271 1500.1293 0.0000 0.0000 1694.2035 -7501.7927 291.6237 -9195.9962 -7412.3827 298.3469 411.0122 430.4908 29961.6982 57.6149 109.4582
ENERGY: 900000 0.2884 15.6101 7.8347 0.0000 -10651.3460 1413.3712 0.0000 0.0000 1680.8584 -7533.3832 289.3266 -9214.2416 -7416.7209 298.7147 -298.2457 -280.8786 30150.3221 29.2428 73.1654
ENERGY: 1200000 1.2846 9.6549 9.3595 0.0000 -10467.9410 1328.5426 0.0000 0.0000 1780.0228 -7339.0766 306.3958 -9119.0994 -7399.6935 300.2051 -664.7035 -631.3685 29978.5194 63.4159 116.0407
ENERGY: 1500000 1.5098 15.2642 6.7554 0.0000 -10591.2963 1444.3288 0.0000 0.0000 1764.8095 -7358.6287 303.7772 -9123.4382 -7391.9341 301.2274 130.7614 159.9600 30298.2771 48.6508 98.8480
TCL: Running FEP window  17: Lambda1 0.8000000000000002 Lambda2 0.8500000000000002 [dLambda 0.050000000000000044]
TCL: Setting parameter firsttimestep to 0
TCL: Setting parameter alchLambda to 0.8000000000000002
Info: NONBONDED TABLE R-SQUARED SPACING: 0.0625
Info: NONBONDED TABLE SIZE: 705 POINTS
TCL: Setting parameter alchLambda2 to 0.8500000000000002
Info: NONBONDED TABLE R-SQUARED SPACING: 0.0625
Info: NONBONDED TABLE SIZE: 705 POINTS
TCL: Running for 1500000 steps
ETITLE: TS BOND ANGLE DIHED IMPRP ELECT VDW BOUNDARY MISC KINETIC TOTAL TEMP POTENTIAL TOTALAVG TEMPAVG PRESSURE GPRESSURE VOLUME PRESSAVG GPRESSAVG
ENERGY: 0 1.5098 15.2642 6.7554 0.0000 -10592.7907 1444.8295 0.0000 0.0000 1763.9002 -7360.5317 303.6206 -9124.4319 -7360.5317 303.6206 100.3208 170.5653 30298.2771 100.3208 170.5653
ENERGY: 300000 0.4411 9.1699 9.7212 0.0000 -10444.2115 1320.9125 0.0000 0.0000 1759.0321 -7344.9346 302.7827 -9103.9668 -7398.2325 299.9126 -530.3076 -496.1917 30006.0017 43.9727 75.8418
ENERGY: 600000 2.1829 13.9760 8.4206 0.0000 -10679.9205 1457.6050 0.0000 0.0000 1732.6424 -7465.0937 298.2402 -9197.7360 -7394.5288 300.8821 113.5278 168.9665 30030.0362 -103.4403 -63.1366
ENERGY: 900000 2.2720 13.8045 8.6561 0.0000 -10559.9819 1414.0777 0.0000 0.0000 1742.3489 -7378.8227 299.9110 -9121.1716 -7375.7248 300.0843 -50.1694 71.8535 29867.2221 -56.7149 -1.2628
ENERGY: 1200000 1.0834 10.7152 9.9177 0.0000 -10501.2655 1384.2646 0.0000 0.0000 1712.9765 -7382.3082 294.8551 -9095.2847 -7377.8284 300.5066 -240.2602 -210.9354 30385.0670 74.3176 131.4303
ENERGY: 1500000 0.1043 10.2414 11.7110 0.0000 -10551.3925 1340.7133 0.0000 0.0000 1749.9273 -7438.6952 301.2155 -9188.6226 -7385.1780 300.1422 -842.0172 -781.6717 30289.3424 0.1344 54.4225
TCL: Running FEP window  18: Lambda1 0.8500000000000002 Lambda2 0.9000000000000002 [dLambda 0.050000000000000044]
TCL: Setting parameter firsttimestep to 0
TCL: Setting parameter alchLambda to 0.8500000000000002
Info: NONBONDED TABLE R-SQUARED SPACING: 0.0625
Info: NONBONDED TABLE SIZE: 705 POINTS
TCL: Setting parameter alchLambda2 to 0.9000000000000002
Info: NONBONDED TABLE R-SQUARED SPACING: 0.0625
Info: NONBONDED TABLE SIZE: 705 POINTS
TCL: Running for 1500000 steps
ETITLE: TS BOND ANGLE DIHED IMPRP ELECT VDW BOUNDARY MISC KINETIC TOTAL TEMP POTENTIAL TOTALAVG TEMPAVG PRESSURE GPRESSURE VOLUME PRESSAVG GPRESSAVG
ENERGY: 0 0.1043 10.2414 11.7110 0.0000 -10552.4110 1340.5176 0.0000 0.0000 1749.0770 -7440.7598 301.0691 -9189.8369 -7440.7598 301.0691 -872.3965 -780.3566 30289.3424 -872.3965 -780.3566
ENERGY: 300000 1.8692 13.0592 9.4997 0.0000 -10536.0988 1362.7932 0.0000 0.0000 1786.3480 -7362.5294 307.4846 -9148.8775 -7377.8678 303.8872 -669.0279 -636.2817 30437.5809 -344.2295 -307.0695
ENERGY: 600000 0.9416 10.5108 11.1476 0.0000 -10531.6328 1430.4814 0.0000 0.0000 1737.4304 -7341.1211 299.0644 -9078.5515 -7377.2094 302.5233 164.0200 187.7113 30265.8895 -192.2757 -143.4681
ENERGY: 900000 0.5690 13.9817 6.5670 0.0000 -10765.4561 1514.4169 0.0000 0.0000 1733.5487 -7496.3728 298.3962 -9229.9215 -7380.1452 303.0394 496.3577 511.8525 29989.4631 -48.5882 -1.2631
ENERGY: 1200000 1.0475 9.4391 9.0976 0.0000 -10620.7936 1413.6151 0.0000 0.0000 1735.4869 -7452.1074 298.7298 -9187.5942 -7389.8631 302.0276 -182.0271 -121.3589 30367.3749 -45.1654 3.9159
ENERGY: 1500000 1.5522 12.2294 8.1655 0.0000 -10592.2721 1428.3007 0.0000 0.0000 1779.5764 -7362.4480 306.3190 -9142.0244 -7388.2646 301.4423 63.4625 99.2148 30187.3549 44.0600 90.0912
TCL: Running FEP window  19: Lambda1 0.9000000000000002 Lambda2 0.9500000000000003 [dLambda 0.050000000000000044]
TCL: Setting parameter firsttimestep to 0
TCL: Setting parameter alchLambda to 0.9000000000000002
Info: NONBONDED TABLE R-SQUARED SPACING: 0.0625
Info: NONBONDED TABLE SIZE: 705 POINTS
TCL: Setting parameter alchLambda2 to 0.9500000000000003
Info: NONBONDED TABLE R-SQUARED SPACING: 0.0625
Info: NONBONDED TABLE SIZE: 705 POINTS
TCL: Running for 1500000 steps
ETITLE: TS BOND ANGLE DIHED IMPRP ELECT VDW BOUNDARY MISC KINETIC TOTAL TEMP POTENTIAL TOTALAVG TEMPAVG PRESSURE GPRESSURE VOLUME PRESSAVG GPRESSAVG
ENERGY: 0 1.5522 12.2294 8.1655 0.0000 -10593.4995 1429.0690 0.0000 0.0000 1778.6709 -7363.8125 306.1631 -9142.4834 -7363.8125 306.1631 38.7411 114.0963 30187.3549 38.7411 114.0963
ENERGY: 300000 0.6949 8.3567 7.9393 0.0000 -10625.7526 1466.4047 0.0000 0.0000 1734.5595 -7407.7974 298.5702 -9142.3570 -7396.2879 299.6685 221.1589 266.6681 30213.5207 91.8922 150.3546
ENERGY: 600000 0.8180 11.4644 10.2109 0.0000 -10537.4918 1371.4144 0.0000 0.0000 1698.8828 -7444.7013 292.4292 -9143.5841 -7414.3301 296.9277 -573.5890 -501.1873 30432.4845 -159.4537 -102.5269
ENERGY: 900000 2.3691 11.1316 9.7399 0.0000 -10468.1337 1361.5779 0.0000 0.0000 1728.3993 -7354.9160 297.5099 -9083.3153 -7402.7739 299.0244 -392.4555 -318.4980 30025.2125 -87.1477 -28.7936
ENERGY: 1200000 0.7479 11.6332 8.2615 0.0000 -10683.8659 1488.6444 0.0000 0.0000 1768.6913 -7405.8877 304.4453 -9174.5790 -7397.0955 300.4149 381.6163 502.1597 30148.8969 -133.7333 -74.9554
ENERGY: 1500000 0.7780 14.1574 8.3496 0.0000 -10671.2973 1417.8605 0.0000 0.0000 1761.9294 -7468.2223 303.2814 -9230.1517 -7404.7886 300.7972 -178.5974 -115.8885 29838.7706 -68.7699 -12.2207
TCL: Running FEP window  20: Lambda1 0.9500000000000003 Lambda2 1.0    [dLambda 0.04999999999999971]
TCL: Setting parameter firsttimestep to 0
TCL: Setting parameter alchLambda to 0.9500000000000003
Info: NONBONDED TABLE R-SQUARED SPACING: 0.0625
Info: NONBONDED TABLE SIZE: 705 POINTS
TCL: Setting parameter alchLambda2 to 1.0
Info: NONBONDED TABLE R-SQUARED SPACING: 0.0625
Info: NONBONDED TABLE SIZE: 705 POINTS
TCL: Running for 1500000 steps
ETITLE: TS BOND ANGLE DIHED IMPRP ELECT VDW BOUNDARY MISC KINETIC TOTAL TEMP POTENTIAL TOTALAVG TEMPAVG PRESSURE GPRESSURE VOLUME PRESSAVG GPRESSAVG
ENERGY: 0 0.7780 14.1574 8.3497 0.0000 -10673.2495 1418.8415 0.0000 0.0000 1761.0926 -7470.0304 303.1374 -9231.1231 -7470.0304 303.1374 -198.8999 -102.7521 29838.7706 -198.8999 -102.7521
ENERGY: 300000 0.9426 10.1643 8.6819 0.0000 -10487.3280 1386.0060 0.0000 0.0000 1788.2267 -7293.3065 307.8080 -9081.5332 -7375.3324 304.1567 22.5549 123.1051 30137.4162 -128.0375 -26.4426
ENERGY: 600000 1.0909 10.1149 8.9820 0.0000 -10656.0946 1434.0469 0.0000 0.0000 1696.0694 -7505.7906 291.9449 -9201.8601 -7398.3271 303.4126 4.6367 24.8849 30068.2641 -236.4603 -161.3829
ENERGY: 900000 0.5229 7.6862 8.7111 0.0000 -10661.4149 1537.2760 0.0000 0.0000 1690.1593 -7417.0593 290.9276 -9107.2187 -7414.5602 301.1474 912.9997 927.5754 30227.5915 -38.6986 18.6708
ENERGY: 1200000 3.0456 13.9683 8.1683 0.0000 -10689.0502 1527.1393 0.0000 0.0000 1744.0089 -7392.7198 300.1968 -9136.7287 -7412.3666 300.8020 903.5830 931.6615 29789.4315 -43.5698 12.6265
ENERGY: 1500000 1.9591 8.6882 8.5844 0.0000 -10536.7873 1385.0722 0.0000 0.0000 1780.6311 -7351.8523 306.5005 -9132.4834 -7403.0054 301.5348 -190.3000 -110.7396 30263.8118 -45.0128 7.9472
TCL: Exiting due to exit command.
