Info: SIMULATION PARAMETERS:
Info: TIMESTEP               2
Info: NUMBER OF STEPS        0
Info: STEPS PER CYCLE        10
Info: PERIODIC CELL BASIS 1  30.8269 0 0
Info: PERIODIC CELL BASIS 2  0 29.4285 0
Info: PERIODIC CELL BASIS 3  0 0 32.7733
Info: PERIODIC CELL CENTER   0 0 0
Info: WRAPPING WATERS AROUND PERIODIC BOUNDARIES ON OUTPUT.
Info: WRAPPING ALL CLUSTERS AROUND PERIODIC BOUNDARIES ON OUTPUT.
Info: FIRST LDB TIMESTEP     50
Info: LAST LDB TIMESTEP     -1
Info: HOM BACKGROUND SCALING 1
Info: PME BACKGROUND SCALING 1
Info: MIN ATOMS PER PATCH    40
Info: EMPTY PATCH LOAD       40 ATOMS
Info: VELOCITY FILE          mobley_7608462_equil.vel
Info: CENTER OF MASS MOVING INITIALLY? NO
Info: DIELECTRIC             1
Info: EXCLUDE                SCALED ONE-FOUR
Info: 1-4 ELECTROSTATICS SCALED BY 0.833333
Info: MODIFIED 1-4 VDW PARAMETERS WILL BE USED
Info: DCD FILENAME           mobley_7608462_prod.dcd
Info: DCD FREQUENCY          100000
Info: DCD FIRST STEP         100000
Info: DCD FILE WILL CONTAIN UNIT CELL DATA
Info: XST FILENAME           mobley_7608462_prod.xst
Info: XST FREQUENCY          100000
Info: NO VELOCITY DCD OUTPUT
Info: NO FORCE DCD OUTPUT
Info: OUTPUT FILENAME        mobley_7608462_prod
Info: BINARY OUTPUT FILES WILL BE USED
Info: RESTART FILENAME       mobley_7608462_prod.restart
Info: RESTART FREQUENCY      100000
Info: BINARY RESTART FILES WILL BE USED
Info: CUTOFF                 9
Info: PAIRLIST DISTANCE      11
Info: PAIRLIST SHRINK RATE   0.01
Info: PAIRLIST GROW RATE     0.01
Info: PAIRLIST TRIGGER       0.3
Info: PAIRLISTS PER CYCLE    2
Info: PAIRLISTS ENABLED
Info: MARGIN                 2
Info: HYDROGEN GROUP CUTOFF  2.5
Info: PATCH DIMENSION        15.5
Info: ENERGY OUTPUT STEPS    100000
Info: ENERGY EVALUATION STEPS    100000
Info: OUTPUT ENERGY PRECISION 4
Info: CROSSTERM ENERGY INCLUDED IN DIHEDRAL
Info: TIMING OUTPUT STEPS    1000000
Info: PRESSURE OUTPUT STEPS  100000
Info: ALCHEMICAL FEP ON
Info: FEP CURRENT LAMBDA VALUE     1
Info: FEP COMPARISON LAMBDA VALUE  0.95
Info: FEP INTRA-ALCHEMICAL NON-BONDED INTERACTIONS WILL BE RETAINED
Info: FEP INTRA-ALCHEMICAL BONDED INTERACTIONS WILL BE RETAINED
Info: FEP VDW SHIFTING COEFFICIENT 5
Info: FEP ELEC. ACTIVE FOR ANNIHILATED PARTICLES BETWEEN LAMBDA = 0 AND LAMBDA = 0.5
Info: FEP ELEC. ACTIVE FOR EXNIHILATED PARTICLES BETWEEN LAMBDA = 0.5 AND LAMBDA = 1
Info: FEP VDW ACTIVE FOR ANNIHILATED PARTICLES BETWEEN LAMBDA = 0 AND LAMBDA = 1
Info: FEP VDW ACTIVE FOR EXNIHILATED PARTICLES BETWEEN LAMBDA = 0 AND LAMBDA = 1
Info: FEP BOND ACTIVE FOR ANNIHILATED PARTICLES BETWEEN LAMBDA = 1 AND LAMBDA = 1
Info: FEP BOND ACTIVE FOR EXNIHILATED PARTICLES BETWEEN LAMBDA = 0 AND LAMBDA = 0
Info: LANGEVIN DYNAMICS ACTIVE
Info: LANGEVIN TEMPERATURE   300
Info: LANGEVIN USING BBK INTEGRATOR
Info: LANGEVIN DAMPING COEFFICIENT IS 1 INVERSE PS
Info: LANGEVIN DYNAMICS APPLIED TO HYDROGENS
Info: LANGEVIN PISTON PRESSURE CONTROL ACTIVE
Info:        TARGET PRESSURE IS 1.01325 BAR
Info:     OSCILLATION PERIOD IS 50 FS
Info:             DECAY TIME IS 25 FS
Info:     PISTON TEMPERATURE IS 300 K
Info:       PRESSURE CONTROL IS GROUP-BASED
Info:    INITIAL STRAIN RATE IS -0.000168801 -0.000168801 -0.000168801
Info:       CELL FLUCTUATION IS ISOTROPIC
Info: PARTICLE MESH EWALD (PME) ACTIVE
Info: PME TOLERANCE               1e-06
Info: PME EWALD COEFFICIENT       0.348832
Info: PME INTERPOLATION ORDER     4
Info: PME GRID DIMENSIONS         32 32 36
Info: PME MAXIMUM GRID SPACING    1
Info: PME CALCULATION WILL BE PERFORMED ON GPU
Info: FULL ELECTROSTATIC EVALUATION FREQUENCY      2
Info: USING VERLET I (r-RESPA) MTS SCHEME.
Info: C1 SPLITTING OF LONG RANGE ELECTROSTATICS
Info: PLACING ATOMS IN PATCHES BY HYDROGEN GROUPS
Info: RIGID BONDS TO HYDROGEN : ALL
Info:         ERROR TOLERANCE : 1e-08
Info:          MAX ITERATIONS : 100
Info: RIGID WATER USING SETTLE ALGORITHM
Info: RANDOM NUMBER SEED     1743553202
Info: USE HYDROGEN BONDS?    NO
Info: Using AMBER format force field!
Info: AMBER PARM FILE        mobley_7608462.prmtop
Info: COORDINATE PDB         mobley_7608462.pdb
Info: Exclusions will be read from PARM file!
Info: SCNB (VDW SCALING)     2
Info: USING ARITHMETIC MEAN TO COMBINE L-J SIGMA PARAMETERS
Info: BINARY COORDINATES     mobley_7608462_equil.coor
Info: SUMMARY OF PARAMETERS:
Info: 5 BONDS
Info: 3 ANGLES
Info:   3 HARMONIC
Info:   0 COSINE-BASED
Info: 2 DIHEDRAL
Info: 0 IMPROPER
Info: 0 CROSSTERM
Info: 0 VDW
Info: 15 VDW_PAIRS
Info: 0 NBTHOLE_PAIRS
Info: To read alchdata from file: mobley_7608462.pdb
Info: To read alchflag data from column: 5
Info: STRUCTURE SUMMARY:
Info: 2916 ATOMS
Info: 2916 BONDS
Info: 18 ANGLES
Info: 30 DIHEDRALS
Info: 0 IMPROPERS
Info: 0 CROSSTERMS
Info: 2955 EXCLUSIONS
Info: 2909 RIGID BONDS
Info: ALCH: 0 ATOMS TO DISAPPEAR IN FINAL STATE
Info: ALCH: 12 ATOMS TO APPEAR IN FINAL STATE
Info: 5839 DEGREES OF FREEDOM
Info: 975 HYDROGEN GROUPS
Info: 3 ATOMS IN LARGEST HYDROGEN GROUP
Info: 975 MIGRATION GROUPS
Info: 3 ATOMS IN LARGEST MIGRATION GROUP
Info: TOTAL MASS = 17552 amu
Info: TOTAL CHARGE = 9.99775e-05 e
Info: MASS DENSITY = 0.980323 g/cm^3
Info: ATOM DENSITY = 0.0980777 atoms/A^3
Info: ADDED 0 IMPLICIT EXCLUSIONS
Info: NONBONDED TABLE R-SQUARED SPACING: 0.0625
Info: NONBONDED TABLE SIZE: 705 POINTS
Info: REMOVING COM VELOCITY 0.1759 0.0319602 0.0435805
Info: Use 3D box decompostion in PME FFT.
Info: Updated CUDA force table with 4096 elements.
Info: Updated CUDA LJ table with 5 x 5 elements.
Info: Found 14 unique exclusion lists needing 24 bytes
TCL: Running for 1500000 steps
ETITLE: TS BOND ANGLE DIHED IMPRP ELECT VDW BOUNDARY MISC KINETIC TOTAL TEMP POTENTIAL TOTALAVG TEMPAVG PRESSURE GPRESSURE VOLUME PRESSAVG GPRESSAVG
ENERGY: 0 0.8353 0.6446 3.6992 0.0000 -10642.7627 1442.9524 0.0000 0.0000 1779.0485 -7415.5827 306.6477 -9194.6311 -7415.5827 306.6477 274.5421 357.7704 29731.5391 274.5421 357.7704
ENERGY: 300000 1.5966 2.5256 1.1047 0.0000 -10485.9964 1393.8102 0.0000 0.0000 1738.4992 -7348.4600 299.6584 -9086.9592 -7429.5798 298.5257 -214.3340 -171.0197 30327.1187 -192.1748 -117.8032
ENERGY: 600000 3.0365 2.4544 1.3558 0.0000 -10354.4449 1263.9406 0.0000 0.0000 1758.5714 -7325.0862 303.1181 -9083.6576 -7422.8430 297.1704 -1252.5385 -1144.1669 30392.2454 -352.6033 -269.8779
ENERGY: 900000 5.8432 2.5379 1.6348 0.0000 -10611.4878 1419.0416 0.0000 0.0000 1716.0182 -7466.4121 295.7834 -9182.4302 -7408.2957 298.5254 -462.9356 -495.7350 30343.2961 -282.7450 -217.7205
ENERGY: 1200000 2.8678 2.3749 2.0678 0.0000 -10582.4411 1397.1740 0.0000 0.0000 1758.4196 -7419.5369 303.0920 -9177.9565 -7398.2033 299.9127 -300.1757 -231.4208 30434.2541 -199.6502 -127.8384
ENERGY: 1500000 4.0247 3.0644 3.0453 0.0000 -10557.3436 1385.1030 0.0000 0.0000 1753.6683 -7408.4379 302.2730 -9162.1062 -7401.9445 299.6903 -406.7101 -397.0381 30180.4487 -192.7607 -123.5471
TCL: Running FEP window   2: Lambda1 0.95   Lambda2 0.8999999999999999 [dLambda -0.050000000000000044]
TCL: Setting parameter firsttimestep to 0
TCL: Setting parameter alchLambda to 0.95
Info: NONBONDED TABLE R-SQUARED SPACING: 0.0625
Info: NONBONDED TABLE SIZE: 705 POINTS
TCL: Setting parameter alchLambda2 to 0.8999999999999999
Info: NONBONDED TABLE R-SQUARED SPACING: 0.0625
Info: NONBONDED TABLE SIZE: 705 POINTS
TCL: Running for 1500000 steps
ETITLE: TS BOND ANGLE DIHED IMPRP ELECT VDW BOUNDARY MISC KINETIC TOTAL TEMP POTENTIAL TOTALAVG TEMPAVG PRESSURE GPRESSURE VOLUME PRESSAVG GPRESSAVG
ENERGY: 0 4.0247 3.0644 3.0453 0.0000 -10556.6973 1384.7447 0.0000 0.0000 1752.7871 -7409.0311 302.1211 -9161.8182 -7409.0311 302.1211 -507.2667 -414.0940 30180.4487 -507.2667 -414.0940
ENERGY: 300000 3.2344 1.7160 1.8773 0.0000 -10547.6891 1351.2427 0.0000 0.0000 1717.9866 -7471.6320 296.1227 -9189.6186 -7433.7390 300.4972 -635.0422 -545.9688 29850.2996 25.9572 91.3411
ENERGY: 600000 1.1768 0.9613 1.9847 0.0000 -10487.1885 1328.9356 0.0000 0.0000 1723.3571 -7430.7731 297.0484 -9154.1302 -7421.3928 300.2439 -703.5378 -609.4818 30224.4691 38.6331 89.3786
ENERGY: 900000 3.3907 2.8614 4.2598 0.0000 -10535.1933 1451.4540 0.0000 0.0000 1764.8080 -7308.4194 304.1931 -9073.2274 -7402.8106 301.0968 146.6440 234.3853 30440.3670 67.8215 117.6835
ENERGY: 1200000 5.0541 3.7353 3.6010 0.0000 -10516.4921 1393.5529 0.0000 0.0000 1757.5323 -7353.0166 302.9390 -9110.5489 -7410.0918 300.6261 -22.6149 44.7674 29705.0523 104.5763 159.0315
ENERGY: 1500000 0.8801 1.6724 3.5468 0.0000 -10478.5326 1425.8255 0.0000 0.0000 1680.8597 -7365.7480 289.7233 -9046.6078 -7410.6321 299.4819 431.6148 468.4118 29734.6624 145.4380 197.5419
TCL: Running FEP window   3: Lambda1 0.8999999999999999 Lambda2 0.8499999999999999 [dLambda -0.050000000000000044]
TCL: Setting parameter firsttimestep to 0
TCL: Setting parameter alchLambda to 0.8999999999999999
Info: NONBONDED TABLE R-SQUARED SPACING: 0.0625
Info: NONBONDED TABLE SIZE: 705 POINTS
TCL: Setting parameter alchLambda2 to 0.8499999999999999
Info: NONBONDED TABLE R-SQUARED SPACING: 0.0625
Info: NONBONDED TABLE SIZE: 705 POINTS
TCL: Running for 1500000 steps
ETITLE: TS BOND ANGLE DIHED IMPRP ELECT VDW BOUNDARY MISC KINETIC TOTAL TEMP POTENTIAL TOTALAVG TEMPAVG PRESSURE GPRESSURE VOLUME PRESSAVG GPRESSAVG
ENERGY: 0 0.8801 1.6724 3.5468 0.0000 -10478.0414 1426.3708 0.0000 0.0000 1680.0120 -7365.5593 289.5771 -9045.5712 -7365.5593 289.5771 378.3455 465.7965 29734.6624 378.3455 465.7965
ENERGY: 300000 2.1653 1.4495 3.0423 0.0000 -10683.9696 1492.2450 0.0000 0.0000 1761.5071 -7423.5605 303.6241 -9185.0676 -7394.0594 299.8533 506.9517 575.2992 29960.0481 10.1110 79.5488
ENERGY: 600000 0.9096 2.3947 3.1339 0.0000 -10486.2207 1343.6350 0.0000 0.0000 1684.1637 -7451.9837 290.2928 -9136.1474 -7403.4224 298.9576 -704.0349 -609.8963 30290.1700 -167.4886 -105.0261
ENERGY: 900000 4.4591 2.0941 2.0249 0.0000 -10555.1667 1393.2518 0.0000 0.0000 1724.5757 -7428.7610 297.2584 -9153.3367 -7403.5191 299.3054 -404.6346 -367.8928 30068.8128 -201.6775 -152.4526
ENERGY: 1200000 3.6528 1.0988 2.3075 0.0000 -10629.5402 1466.7634 0.0000 0.0000 1798.2130 -7357.5047 309.9510 -9155.7177 -7396.9650 300.8984 208.0971 222.1938 30275.4910 -138.8220 -87.8636
ENERGY: 1500000 4.8087 2.0522 1.5445 0.0000 -10585.1319 1384.2325 0.0000 0.0000 1734.7806 -7457.7133 299.0174 -9192.4940 -7398.6704 300.5992 -613.2206 -516.8873 30149.6306 -129.9984 -83.3765
TCL: Running FEP window   4: Lambda1 0.8499999999999999 Lambda2 0.7999999999999998 [dLambda -0.050000000000000044]
TCL: Setting parameter firsttimestep to 0
TCL: Setting parameter alchLambda to 0.8499999999999999
Info: NONBONDED TABLE R-SQUARED SPACING: 0.0625
Info: NONBONDED TABLE SIZE: 705 POINTS
TCL: Setting parameter alchLambda2 to 0.7999999999999998
Info: NONBONDED TABLE R-SQUARED SPACING: 0.0625
Info: NONBONDED TABLE SIZE: 705 POINTS
TCL: Running for 1500000 steps
ETITLE: TS BOND ANGLE DIHED IMPRP ELECT VDW BOUNDARY MISC KINETIC TOTAL TEMP POTENTIAL TOTALAVG TEMPAVG PRESSURE GPRESSURE VOLUME PRESSAVG GPRESSAVG
ENERGY: 0 4.8087 2.0522 1.5446 0.0000 -10584.9112 1384.2543 0.0000 0.0000 1733.8939 -7458.3576 298.8646 -9192.2515 -7458.3576 298.8646 -611.8012 -524.9948 30149.6306 -611.8012 -524.9948
ENERGY: 300000 1.9137 2.8173 2.8761 0.0000 -10447.8983 1385.3398 0.0000 0.0000 1767.8483 -7287.1032 304.7172 -9054.9515 -7384.8783 300.6767 -60.5324 -38.4193 30284.8278 -174.7043 -134.0154
ENERGY: 600000 3.2067 1.0623 2.3947 0.0000 -10684.9447 1455.7162 0.0000 0.0000 1734.5565 -7488.0083 298.9788 -9222.5649 -7394.7677 299.6711 49.6739 129.7889 29792.3482 -79.7417 -19.0000
ENERGY: 900000 2.6427 3.3690 1.4233 0.0000 -10732.0417 1511.0259 0.0000 0.0000 1737.5482 -7476.0325 299.4944 -9213.5807 -7402.9898 300.1382 805.7988 838.4111 29804.2716 6.7111 66.2748
ENERGY: 1200000 1.9894 4.5991 3.6778 0.0000 -10657.1131 1502.2491 0.0000 0.0000 1808.4829 -7336.1149 311.7212 -9144.5978 -7394.4867 302.1387 575.2919 602.0868 30228.8594 101.0378 153.6456
ENERGY: 1500000 3.8017 2.5647 3.8282 0.0000 -10662.3557 1508.2785 0.0000 0.0000 1714.4137 -7429.4689 295.5068 -9143.8825 -7399.4506 300.9887 583.4621 704.5482 29881.6764 108.4402 163.7572
TCL: Running FEP window   5: Lambda1 0.7999999999999998 Lambda2 0.7499999999999998 [dLambda -0.050000000000000044]
TCL: Setting parameter firsttimestep to 0
TCL: Setting parameter alchLambda to 0.7999999999999998
Info: NONBONDED TABLE R-SQUARED SPACING: 0.0625
Info: NONBONDED TABLE SIZE: 705 POINTS
TCL: Setting parameter alchLambda2 to 0.7499999999999998
Info: NONBONDED TABLE R-SQUARED SPACING: 0.0625
Info: NONBONDED TABLE SIZE: 705 POINTS
TCL: Running for 1500000 steps
ETITLE: TS BOND ANGLE DIHED IMPRP ELECT VDW BOUNDARY MISC KINETIC TOTAL TEMP POTENTIAL TOTALAVG TEMPAVG PRESSURE GPRESSURE VOLUME PRESSAVG GPRESSAVG
ENERGY: 0 3.8017 2.5647 3.8282 0.0000 -10661.8073 1508.5913 0.0000 0.0000 1713.5366 -7429.4847 295.3557 -9143.0214 -7429.4847 295.3557 624.7730 697.3789 29881.6764 624.7730 697.3789
ENERGY: 300000 2.7315 2.0912 2.5676 0.0000 -10495.6203 1345.2545 0.0000 0.0000 1787.2344 -7355.7411 308.0587 -9142.9755 -7379.3492 301.4450 -157.1303 -117.9227 29796.9612 259.9273 318.6983
ENERGY: 600000 1.0549 2.6073 1.9983 0.0000 -10523.0003 1408.1471 0.0000 0.0000 1784.2647 -7324.9281 307.5468 -9109.1928 -7371.5466 302.7610 -18.7960 100.3695 29790.8150 99.1735 161.4932
ENERGY: 900000 1.5472 2.6089 2.2307 0.0000 -10372.1269 1286.9310 0.0000 0.0000 1823.8200 -7254.9891 314.3648 -9078.8091 -7359.9954 304.0933 -992.5881 -957.4995 30449.1185 -125.5475 -66.1145
ENERGY: 1200000 2.2031 2.0371 5.8753 0.0000 -10570.4152 1442.2200 0.0000 0.0000 1734.5254 -7383.5543 298.9734 -9118.0797 -7372.8110 303.4202 61.0294 103.9522 30112.9162 -64.4696 -8.5010
ENERGY: 1500000 1.7643 0.6973 3.7444 0.0000 -10397.7110 1268.1454 0.0000 0.0000 1769.4337 -7353.9258 304.9904 -9123.3595 -7359.8817 304.0194 -1320.2646 -1235.1559 30067.1485 -156.9057 -97.2873
TCL: Running FEP window   6: Lambda1 0.7499999999999998 Lambda2 0.6999999999999997 [dLambda -0.050000000000000044]
TCL: Setting parameter firsttimestep to 0
TCL: Setting parameter alchLambda to 0.7499999999999998
Info: NONBONDED TABLE R-SQUARED SPACING: 0.0625
Info: NONBONDED TABLE SIZE: 705 POINTS
TCL: Setting parameter alchLambda2 to 0.6999999999999997
Info: NONBONDED TABLE R-SQUARED SPACING: 0.0625
Info: NONBONDED TABLE SIZE: 705 POINTS
TCL: Running for 1500000 steps
ETITLE: TS BOND ANGLE DIHED IMPRP ELECT VDW BOUNDARY MISC KINETIC TOTAL TEMP POTENTIAL TOTALAVG TEMPAVG PRESSURE GPRESSURE VOLUME PRESSAVG GPRESSAVG
ENERGY: 0 1.7643 0.6973 3.7444 0.0000 -10397.1897 1268.1287 0.0000 0.0000 1768.5661 -7354.2889 304.8409 -9122.8549 -7354.2889 304.8409 -1321.5920 -1242.6968 30067.1485 -1321.5920 -1242.6968
ENERGY: 300000 5.2359 2.0403 1.3590 0.0000 -10580.9574 1391.8023 0.0000 0.0000 1778.6529 -7401.8671 306.5795 -9180.5200 -7417.5577 300.4268 -408.4060 -272.1454 30217.0160 -610.0165 -503.8111
ENERGY: 600000 0.8291 3.0536 2.4569 0.0000 -10505.3200 1403.9346 0.0000 0.0000 1812.3101 -7282.7357 312.3809 -9095.0458 -7393.5570 302.9755 43.2137 136.1500 29961.4803 -305.3663 -213.8879
ENERGY: 900000 2.3836 2.3248 1.3533 0.0000 -10424.7051 1318.0557 0.0000 0.0000 1742.0098 -7358.5780 300.2635 -9100.5878 -7398.8312 300.4808 -694.0531 -599.1674 30188.0868 -348.2212 -262.6399
ENERGY: 1200000 0.6454 3.4150 2.6566 0.0000 -10442.3041 1340.4856 0.0000 0.0000 1745.3461 -7349.7555 300.8385 -9095.1016 -7392.0197 301.0698 -608.1698 -523.0962 30235.6674 -410.3829 -333.3358
ENERGY: 1500000 3.2085 1.7131 3.0717 0.0000 -10498.4260 1375.8307 0.0000 0.0000 1704.5211 -7410.0809 293.8017 -9114.6020 -7385.4620 300.1775 -259.6964 -147.4736 29786.8909 -407.8269 -331.4219
TCL: Running FEP window   7: Lambda1 0.6999999999999997 Lambda2 0.6499999999999997 [dLambda -0.050000000000000044]
TCL: Setting parameter firsttimestep to 0
TCL: Setting parameter alchLambda to 0.6999999999999997
Info: NONBONDED TABLE R-SQUARED SPACING: 0.0625
Info: NONBONDED TABLE SIZE: 705 POINTS
TCL: Setting parameter alchLambda2 to 0.6499999999999997
Info: NONBONDED TABLE R-SQUARED SPACING: 0.0625
Info: NONBONDED TABLE SIZE: 705 POINTS
TCL: Running for 1500000 steps
ETITLE: TS BOND ANGLE DIHED IMPRP ELECT VDW BOUNDARY MISC KINETIC TOTAL TEMP POTENTIAL TOTALAVG TEMPAVG PRESSURE GPRESSURE VOLUME PRESSAVG GPRESSAVG
ENERGY: 0 3.2085 1.7131 3.0717 0.0000 -10497.7017 1375.9696 0.0000 0.0000 1703.6301 -7410.1087 293.6481 -9113.7388 -7410.1087 293.6481 -234.9140 -154.9968 29786.8909 -234.9140 -154.9968
ENERGY: 300000 3.4275 2.7059 2.7828 0.0000 -10474.4853 1360.9557 0.0000 0.0000 1767.9729 -7336.6405 304.7386 -9104.6133 -7387.2961 297.9051 -592.1093 -555.2319 30223.3870 -484.0999 -441.5941
ENERGY: 600000 1.4990 0.7715 4.8169 0.0000 -10447.3882 1304.0182 0.0000 0.0000 1795.3457 -7340.9370 309.4568 -9136.2827 -7392.5998 300.0957 -845.2162 -809.3652 30272.7032 -324.3415 -280.1840
ENERGY: 900000 0.9096 3.1647 2.2128 0.0000 -10418.5317 1339.0134 0.0000 0.0000 1747.8429 -7325.3883 301.2689 -9073.2312 -7381.0058 300.4732 -533.6043 -509.5663 30208.1778 -248.8413 -199.6582
ENERGY: 1200000 1.1138 2.3895 6.0137 0.0000 -10596.2148 1438.1459 0.0000 0.0000 1772.7200 -7375.8317 305.5569 -9148.5518 -7381.5699 301.6686 79.8980 198.8346 30097.5087 -167.9801 -116.9092
ENERGY: 1500000 2.7628 2.5481 1.5229 0.0000 -10666.2118 1456.9745 0.0000 0.0000 1748.6227 -7453.7807 301.4033 -9202.4035 -7392.4186 301.1390 366.6961 342.0162 29978.1638 -141.0952 -99.1615
TCL: Running FEP window   8: Lambda1 0.6499999999999997 Lambda2 0.5999999999999996 [dLambda -0.050000000000000044]
TCL: Setting parameter firsttimestep to 0
TCL: Setting parameter alchLambda to 0.6499999999999997
Info: NONBONDED TABLE R-SQUARED SPACING: 0.0625
Info: NONBONDED TABLE SIZE: 705 POINTS
TCL: Setting parameter alchLambda2 to 0.5999999999999996
Info: NONBONDED TABLE R-SQUARED SPACING: 0.0625
Info: NONBONDED TABLE SIZE: 705 POINTS
TCL: Running for 1500000 steps
ETITLE: TS BOND ANGLE DIHED IMPRP ELECT VDW BOUNDARY MISC KINETIC TOTAL TEMP POTENTIAL TOTALAVG TEMPAVG PRESSURE GPRESSURE VOLUME PRESSAVG GPRESSAVG
ENERGY: 0 2.7628 2.5481 1.5229 0.0000 -10666.1924 1456.9559 0.0000 0.0000 1747.7101 -7454.6925 301.2460 -9202.4026 -7454.6925 301.2460 264.5114 335.7640 29978.1638 264.5114 335.7640
ENERGY: 300000 2.0024 4.6520 1.3363 0.0000 -10534.2884 1414.4460 0.0000 0.0000 1732.7023 -7379.1493 298.6592 -9111.8516 -7384.4192 302.8746 -35.6600 6.0758 30066.4982 52.9359 104.1972
ENERGY: 600000 1.0800 4.4777 1.7513 0.0000 -10520.4253 1412.2040 0.0000 0.0000 1704.8201 -7396.0922 293.8532 -9100.9123 -7379.1325 301.4566 42.6143 76.2777 29894.1990 85.5785 123.0065
ENERGY: 900000 3.5710 3.3242 2.9071 0.0000 -10622.9383 1459.1461 0.0000 0.0000 1773.1113 -7380.8786 305.6243 -9153.9899 -7387.5961 301.2934 378.9540 468.6007 29853.3071 140.6319 192.8896
ENERGY: 1200000 2.0903 1.7190 1.3680 0.0000 -10643.3827 1475.3641 0.0000 0.0000 1750.3958 -7412.4455 301.7089 -9162.8412 -7383.6643 301.1999 678.3805 748.4561 29680.6793 209.8145 268.8251
ENERGY: 1500000 5.0643 5.1964 1.9475 0.0000 -10699.3558 1506.5962 0.0000 0.0000 1768.9158 -7411.6356 304.9012 -9180.5515 -7375.2437 302.6824 725.4137 756.3410 29637.2168 113.3565 172.0823
TCL: Running FEP window   9: Lambda1 0.5999999999999996 Lambda2 0.5499999999999996 [dLambda -0.050000000000000044]
TCL: Setting parameter firsttimestep to 0
TCL: Setting parameter alchLambda to 0.5999999999999996
Info: NONBONDED TABLE R-SQUARED SPACING: 0.0625
Info: NONBONDED TABLE SIZE: 705 POINTS
TCL: Setting parameter alchLambda2 to 0.5499999999999996
Info: NONBONDED TABLE R-SQUARED SPACING: 0.0625
Info: NONBONDED TABLE SIZE: 705 POINTS
TCL: Running for 1500000 steps
ETITLE: TS BOND ANGLE DIHED IMPRP ELECT VDW BOUNDARY MISC KINETIC TOTAL TEMP POTENTIAL TOTALAVG TEMPAVG PRESSURE GPRESSURE VOLUME PRESSAVG GPRESSAVG
ENERGY: 0 5.0643 5.1964 1.9475 0.0000 -10698.9477 1506.6001 0.0000 0.0000 1768.0449 -7412.0946 304.7510 -9180.1395 -7412.0946 304.7510 670.6086 750.0292 29637.2168 670.6086 750.0292
ENERGY: 300000 4.2820 2.7124 3.0437 0.0000 -10606.4742 1373.3343 0.0000 0.0000 1710.4299 -7512.6720 294.8202 -9223.1019 -7452.6325 300.1545 -847.9813 -806.0052 29870.2253 -133.7754 -86.2937
ENERGY: 600000 2.6213 1.5635 1.9918 0.0000 -10577.0942 1396.8210 0.0000 0.0000 1718.8250 -7455.2715 296.2672 -9174.0965 -7434.1211 299.9783 -464.3895 -392.5377 30083.1391 -180.4678 -124.5733
ENERGY: 900000 2.6552 2.8388 2.0260 0.0000 -10672.0880 1507.4512 0.0000 0.0000 1736.2021 -7420.9148 299.2624 -9157.1168 -7425.9832 298.4841 478.9928 524.3442 30166.3717 -160.7872 -106.3854
ENERGY: 1200000 5.2450 0.9581 3.2680 0.0000 -10652.0975 1451.8972 0.0000 0.0000 1761.7048 -7429.0245 303.6582 -9190.7293 -7415.9771 300.8041 -248.0124 -116.9049 29732.4598 -116.7923 -50.6443
ENERGY: 1500000 2.5182 2.5966 4.0247 0.0000 -10519.0508 1385.1020 0.0000 0.0000 1758.9464 -7365.8629 303.1828 -9124.8093 -7415.5765 300.5253 -267.6753 -199.3600 29844.6266 -133.4028 -60.6025
TCL: Running FEP window  10: Lambda1 0.5499999999999996 Lambda2 0.4999999999999996 [dLambda -0.04999999999999999]
TCL: Setting parameter firsttimestep to 0
TCL: Setting parameter alchLambda to 0.5499999999999996
Info: NONBONDED TABLE R-SQUARED SPACING: 0.0625
Info: NONBONDED TABLE SIZE: 705 POINTS
TCL: Setting parameter alchLambda2 to 0.4999999999999996
Info: NONBONDED TABLE R-SQUARED SPACING: 0.0625
Info: NONBONDED TABLE SIZE: 705 POINTS
TCL: Running for 1500000 steps
ETITLE: TS BOND ANGLE DIHED IMPRP ELECT VDW BOUNDARY MISC KINETIC TOTAL TEMP POTENTIAL TOTALAVG TEMPAVG PRESSURE GPRESSURE VOLUME PRESSAVG GPRESSAVG
ENERGY: 0 2.5182 2.5966 4.0247 0.0000 -10519.3577 1385.0218 0.0000 0.0000 1758.0670 -7367.1294 303.0312 -9125.1964 -7367.1294 303.0312 -293.6069 -208.7359 29844.6266 -293.6069 -208.7359
ENERGY: 300000 2.0640 3.5053 3.5629 0.0000 -10631.8346 1415.6822 0.0000 0.0000 1722.4281 -7484.5921 296.8882 -9207.0201 -7404.5295 301.3282 -410.5950 -307.0209 30019.5584 82.2079 142.1312
ENERGY: 600000 1.7867 1.4135 4.7355 0.0000 -10553.0165 1409.8561 0.0000 0.0000 1788.1733 -7347.0514 308.2205 -9135.2247 -7394.6258 302.8665 -188.7933 -138.7179 30026.9080 192.4339 274.8281
ENERGY: 900000 3.1067 1.9768 2.6050 0.0000 -10458.0357 1346.6877 0.0000 0.0000 1789.5748 -7314.0846 308.4621 -9103.6594 -7384.4348 303.1553 -238.7435 -219.8385 29919.1319 22.2489 99.2406
ENERGY: 1200000 4.6558 2.6150 4.5221 0.0000 -10642.4229 1407.6405 0.0000 0.0000 1732.4175 -7490.5721 298.6101 -9222.9896 -7381.9393 303.3131 -349.7538 -290.0284 29708.5085 0.6793 72.2368
ENERGY: 1500000 1.3241 1.7608 1.6046 0.0000 -10540.8076 1389.2180 0.0000 0.0000 1698.2879 -7448.6123 292.7273 -9146.9002 -7391.9539 301.8178 -385.6910 -432.9131 30689.0971 -46.0246 17.4475
TCL: Running FEP window  11: Lambda1 0.4999999999999996 Lambda2 0.4499999999999996 [dLambda -0.04999999999999999]
TCL: Setting parameter firsttimestep to 0
TCL: Setting parameter alchLambda to 0.4999999999999996
Info: NONBONDED TABLE R-SQUARED SPACING: 0.0625
Info: NONBONDED TABLE SIZE: 705 POINTS
TCL: Setting parameter alchLambda2 to 0.4499999999999996
Info: NONBONDED TABLE R-SQUARED SPACING: 0.0625
Info: NONBONDED TABLE SIZE: 705 POINTS
TCL: Running for 1500000 steps
ETITLE: TS BOND ANGLE DIHED IMPRP ELECT VDW BOUNDARY MISC KINETIC TOTAL TEMP POTENTIAL TOTALAVG TEMPAVG PRESSURE GPRESSURE VOLUME PRESSAVG GPRESSAVG
ENERGY: 0 1.3241 1.7608 1.6046 0.0000 -10540.5093 1389.7068 0.0000 0.0000 1697.4173 -7448.6958 292.5772 -9146.1131 -7448.6958 292.5772 -508.9850 -432.9360 30689.0971 -508.9850 -432.9360
ENERGY: 300000 1.4880 2.7714 2.6353 0.0000 -10810.1160 1534.1803 0.0000 0.0000 1753.7445 -7515.2966 302.2861 -9269.0410 -7429.5326 299.9533 691.6340 719.5130 29652.6458 -193.0326 -141.4831
ENERGY: 600000 3.0544 3.3399 1.4940 0.0000 -10561.0121 1402.6308 0.0000 0.0000 1745.5126 -7404.9804 300.8672 -9150.4930 -7405.8026 300.4267 -198.4829 -89.2146 29893.7661 -328.2927 -262.5513
ENERGY: 900000 3.4449 2.1549 2.9695 0.0000 -10558.1980 1440.2787 0.0000 0.0000 1730.2615 -7379.0885 298.2385 -9109.3500 -7398.9869 299.8255 1.9772 134.1499 30222.5085 -237.1346 -169.8921
ENERGY: 1200000 2.2791 5.0700 1.2339 0.0000 -10668.2459 1465.4196 0.0000 0.0000 1712.8557 -7481.3876 295.2383 -9194.2433 -7393.6003 299.5854 -16.3104 13.4460 30329.6546 -102.2092 -45.5614
ENERGY: 1500000 1.6395 2.2774 1.1275 0.0000 -10664.0888 1482.7591 0.0000 0.0000 1738.1700 -7438.1153 299.6016 -9176.2853 -7397.8713 299.9624 353.8038 395.9455 29713.8132 -147.7493 -89.9347
TCL: Running FEP window  12: Lambda1 0.4499999999999996 Lambda2 0.39999999999999963 [dLambda -0.04999999999999999]
TCL: Setting parameter firsttimestep to 0
TCL: Setting parameter alchLambda to 0.4499999999999996
Info: NONBONDED TABLE R-SQUARED SPACING: 0.0625
Info: NONBONDED TABLE SIZE: 705 POINTS
TCL: Setting parameter alchLambda2 to 0.39999999999999963
Info: NONBONDED TABLE R-SQUARED SPACING: 0.0625
Info: NONBONDED TABLE SIZE: 705 POINTS
TCL: Running for 1500000 steps
ETITLE: TS BOND ANGLE DIHED IMPRP ELECT VDW BOUNDARY MISC KINETIC TOTAL TEMP POTENTIAL TOTALAVG TEMPAVG PRESSURE GPRESSURE VOLUME PRESSAVG GPRESSAVG
ENERGY: 0 1.6395 2.2774 1.1275 0.0000 -10664.0876 1482.7003 0.0000 0.0000 1737.2826 -7439.0603 299.4487 -9176.3429 -7439.0603 299.4487 299.9758 386.9591 29713.8132 299.9758 386.9591
ENERGY: 300000 0.9545 2.6962 3.5769 0.0000 -10553.3764 1432.4284 0.0000 0.0000 1746.9226 -7366.7979 301.1103 -9113.7205 -7381.8301 302.8858 107.7662 164.6244 30002.4970 390.3637 438.6855
ENERGY: 600000 2.4281 2.6756 4.5425 0.0000 -10553.9059 1413.7309 0.0000 0.0000 1739.6884 -7390.8405 299.8633 -9130.5289 -7393.1952 301.7931 -497.3314 -420.3610 30485.2411 118.7077 169.9372
ENERGY: 900000 4.0089 4.8873 1.6468 0.0000 -10645.0453 1465.3299 0.0000 0.0000 1792.5686 -7376.6038 308.9781 -9169.1724 -7384.7260 302.6311 164.4884 197.9108 29956.3703 101.8322 148.4269
ENERGY: 1200000 4.5549 3.5870 2.1416 0.0000 -10732.5668 1493.9670 0.0000 0.0000 1756.8566 -7471.4597 302.8226 -9228.3163 -7385.6846 302.5349 455.9450 473.8861 29815.4662 131.3329 184.3643
ENERGY: 1500000 2.1672 1.6757 2.4615 0.0000 -10756.0977 1540.8764 0.0000 0.0000 1650.3412 -7558.5756 284.4629 -9208.9169 -7402.6826 301.7758 897.6078 916.3001 29743.7738 173.9284 222.0472
TCL: Running FEP window  13: Lambda1 0.39999999999999963 Lambda2 0.34999999999999964 [dLambda -0.04999999999999999]
TCL: Setting parameter firsttimestep to 0
TCL: Setting parameter alchLambda to 0.39999999999999963
Info: NONBONDED TABLE R-SQUARED SPACING: 0.0625
Info: NONBONDED TABLE SIZE: 705 POINTS
TCL: Setting parameter alchLambda2 to 0.34999999999999964
Info: NONBONDED TABLE R-SQUARED SPACING: 0.0625
Info: NONBONDED TABLE SIZE: 705 POINTS
TCL: Running for 1500000 steps
ETITLE: TS BOND ANGLE DIHED IMPRP ELECT VDW BOUNDARY MISC KINETIC TOTAL TEMP POTENTIAL TOTALAVG TEMPAVG PRESSURE GPRESSURE VOLUME PRESSAVG GPRESSAVG
ENERGY: 0 2.1672 1.6757 2.4615 0.0000 -10756.0964 1540.9921 0.0000 0.0000 1649.4540 -7559.3459 284.3100 -9208.7999 -7559.3459 284.3100 840.1725 908.5187 29743.7738 840.1725 908.5187
ENERGY: 300000 1.8130 2.0113 2.1637 0.0000 -10534.9640 1364.6719 0.0000 0.0000 1778.8158 -7385.4884 306.6076 -9164.3041 -7400.5110 299.0604 -547.2203 -462.2118 29930.7933 -212.7702 -145.8002
ENERGY: 600000 2.5131 1.7084 4.5485 0.0000 -10438.1718 1317.5430 0.0000 0.0000 1784.4402 -7327.4186 307.5770 -9111.8588 -7396.4118 301.5088 -696.9849 -627.8902 29634.8379 -239.3787 -170.0383
ENERGY: 900000 1.9328 4.7916 3.2435 0.0000 -10493.1307 1308.0373 0.0000 0.0000 1700.1463 -7474.9792 293.0476 -9175.1255 -7411.6409 300.0000 -1029.8589 -1034.6169 30122.9707 -219.6850 -163.1029
ENERGY: 1200000 0.9204 0.7405 2.1628 0.0000 -10644.6908 1479.3418 0.0000 0.0000 1709.6232 -7451.9021 294.6811 -9161.5254 -7410.5263 300.2646 629.8750 698.8524 29725.8180 -108.7524 -41.9705
ENERGY: 1500000 2.2263 2.0124 1.5988 0.0000 -10662.1510 1448.4777 0.0000 0.0000 1730.8243 -7477.0114 298.3355 -9207.8357 -7418.3282 299.7789 -176.5641 -106.8149 30131.9926 -34.5225 28.4317
TCL: Running FEP window  14: Lambda1 0.34999999999999964 Lambda2 0.29999999999999966 [dLambda -0.04999999999999999]
TCL: Setting parameter firsttimestep to 0
TCL: Setting parameter alchLambda to 0.34999999999999964
Info: NONBONDED TABLE R-SQUARED SPACING: 0.0625
Info: NONBONDED TABLE SIZE: 705 POINTS
TCL: Setting parameter alchLambda2 to 0.29999999999999966
Info: NONBONDED TABLE R-SQUARED SPACING: 0.0625
Info: NONBONDED TABLE SIZE: 705 POINTS
TCL: Running for 1500000 steps
ETITLE: TS BOND ANGLE DIHED IMPRP ELECT VDW BOUNDARY MISC KINETIC TOTAL TEMP POTENTIAL TOTALAVG TEMPAVG PRESSURE GPRESSURE VOLUME PRESSAVG GPRESSAVG
ENERGY: 0 2.2263 2.0124 1.5988 0.0000 -10662.1511 1448.8841 0.0000 0.0000 1729.8893 -7477.5402 298.1743 -9207.4294 -7477.5402 298.1743 -194.7319 -108.4630 30131.9926 -194.7319 -108.4630
ENERGY: 300000 5.4226 0.8696 2.6668 0.0000 -10616.0762 1444.2283 0.0000 0.0000 1746.6359 -7416.2530 301.0609 -9162.8889 -7422.9791 302.9754 -91.3392 -36.2658 29861.4549 78.2228 146.8113
ENERGY: 600000 2.0593 1.0727 3.1406 0.0000 -10506.2762 1349.4418 0.0000 0.0000 1719.1356 -7431.4263 296.3207 -9150.5618 -7409.2159 300.6357 -613.7698 -598.2215 29961.2483 24.4821 97.3468
ENERGY: 900000 1.4994 2.1246 1.8540 0.0000 -10585.7312 1425.8690 0.0000 0.0000 1779.2384 -7375.1458 306.6804 -9154.3842 -7403.5962 300.9176 -173.4589 -148.6029 30287.5703 -15.3362 49.9365
ENERGY: 1200000 0.5513 2.5914 1.9868 0.0000 -10621.4257 1500.9990 0.0000 0.0000 1808.2337 -7307.0636 311.6782 -9115.2973 -7395.6019 301.2955 659.2668 725.5287 30065.3066 -10.7816 58.0205
ENERGY: 1500000 1.7343 2.0056 2.5856 0.0000 -10530.3906 1427.4606 0.0000 0.0000 1778.4146 -7318.1899 306.5384 -9096.6044 -7390.0184 301.0965 196.4587 283.7342 29728.5863 -15.5642 57.8707
TCL: Running FEP window  15: Lambda1 0.29999999999999966 Lambda2 0.24999999999999967 [dLambda -0.04999999999999999]
TCL: Setting parameter firsttimestep to 0
TCL: Setting parameter alchLambda to 0.29999999999999966
Info: NONBONDED TABLE R-SQUARED SPACING: 0.0625
Info: NONBONDED TABLE SIZE: 705 POINTS
TCL: Setting parameter alchLambda2 to 0.24999999999999967
Info: NONBONDED TABLE R-SQUARED SPACING: 0.0625
Info: NONBONDED TABLE SIZE: 705 POINTS
TCL: Running for 1500000 steps
ETITLE: TS BOND ANGLE DIHED IMPRP ELECT VDW BOUNDARY MISC KINETIC TOTAL TEMP POTENTIAL TOTALAVG TEMPAVG PRESSURE GPRESSURE VOLUME PRESSAVG GPRESSAVG
ENERGY: 0 1.7343 2.0056 2.5856 0.0000 -10530.3888 1427.2705 0.0000 0.0000 1777.5287 -7319.2641 306.3857 -9096.7928 -7319.2641 306.3857 185.4139 278.1780 29728.5863 185.4139 278.1780
ENERGY: 300000 0.2349 1.9484 4.1185 0.0000 -10569.2298 1413.4313 0.0000 0.0000 1743.6867 -7405.8099 300.5525 -9149.4966 -7404.4264 300.0220 -37.4226 -38.8661 29978.4426 121.9673 168.1335
ENERGY: 600000 1.1830 2.1965 2.0784 0.0000 -10448.9374 1344.2100 0.0000 0.0000 1699.9121 -7399.3574 293.0073 -9099.2695 -7403.1674 297.4099 -588.8391 -538.7791 30155.3624 -106.9393 -62.7585
ENERGY: 900000 3.2946 1.9856 2.2238 0.0000 -10565.6386 1391.4135 0.0000 0.0000 1727.8270 -7438.8939 297.8188 -9166.7210 -7412.8385 298.1185 -621.4734 -562.0986 30034.5079 -28.6173 26.2029
ENERGY: 1200000 2.4970 4.7381 1.5925 0.0000 -10605.1650 1461.1874 0.0000 0.0000 1712.0607 -7423.0893 295.1013 -9135.1500 -7415.6788 298.1393 129.1289 174.4354 30093.9707 6.0258 55.3503
ENERGY: 1500000 1.2656 1.0207 3.7440 0.0000 -10507.7029 1365.0859 0.0000 0.0000 1730.7447 -7405.8421 298.3217 -9136.5868 -7421.3013 297.8326 -441.0673 -342.6932 29850.0178 -44.2829 11.1363
TCL: Running FEP window  16: Lambda1 0.24999999999999967 Lambda2 0.19999999999999968 [dLambda -0.04999999999999999]
TCL: Setting parameter firsttimestep to 0
TCL: Setting parameter alchLambda to 0.24999999999999967
Info: NONBONDED TABLE R-SQUARED SPACING: 0.0625
Info: NONBONDED TABLE SIZE: 705 POINTS
TCL: Setting parameter alchLambda2 to 0.19999999999999968
Info: NONBONDED TABLE R-SQUARED SPACING: 0.0625
Info: NONBONDED TABLE SIZE: 705 POINTS
TCL: Running for 1500000 steps
ETITLE: TS BOND ANGLE DIHED IMPRP ELECT VDW BOUNDARY MISC KINETIC TOTAL TEMP POTENTIAL TOTALAVG TEMPAVG PRESSURE GPRESSURE VOLUME PRESSAVG GPRESSAVG
ENERGY: 0 1.2656 1.0207 3.7439 0.0000 -10507.7025 1365.3350 0.0000 0.0000 1729.8748 -7406.4625 298.1718 -9136.3372 -7406.4625 298.1718 -427.8224 -347.1216 29850.0178 -427.8224 -347.1216
ENERGY: 300000 2.5410 3.2345 2.5571 0.0000 -10713.1744 1501.4118 0.0000 0.0000 1751.5396 -7451.8905 301.9061 -9203.4301 -7423.6934 300.0939 621.8968 698.6312 29581.9487 109.4209 196.1821
ENERGY: 600000 1.8020 2.4380 3.6036 0.0000 -10568.8298 1456.9605 0.0000 0.0000 1741.7457 -7362.2800 300.2180 -9104.0257 -7410.9902 300.7101 283.8899 287.0610 30141.4380 83.7847 152.5567
ENERGY: 900000 0.4929 4.3404 4.8815 0.0000 -10663.2481 1477.0050 0.0000 0.0000 1743.9386 -7432.5897 300.5959 -9176.5283 -7404.8365 301.3433 232.2287 276.3465 30076.1980 139.0843 205.2587
ENERGY: 1200000 2.1199 1.5184 3.3141 0.0000 -10610.3863 1429.1987 0.0000 0.0000 1696.2186 -7478.0166 292.3706 -9174.2353 -7404.0251 301.2858 117.7678 106.1183 29659.5979 183.8580 238.3552
ENERGY: 1500000 1.7654 2.4251 2.9944 0.0000 -10585.9263 1438.0560 0.0000 0.0000 1758.8920 -7381.7935 303.1734 -9140.6855 -7405.3415 301.0265 288.1081 382.5604 29486.6476 99.8289 152.7085
TCL: Running FEP window  17: Lambda1 0.19999999999999968 Lambda2 0.1499999999999997 [dLambda -0.04999999999999999]
TCL: Setting parameter firsttimestep to 0
TCL: Setting parameter alchLambda to 0.19999999999999968
Info: NONBONDED TABLE R-SQUARED SPACING: 0.0625
Info: NONBONDED TABLE SIZE: 705 POINTS
TCL: Setting parameter alchLambda2 to 0.1499999999999997
Info: NONBONDED TABLE R-SQUARED SPACING: 0.0625
Info: NONBONDED TABLE SIZE: 705 POINTS
TCL: Running for 1500000 steps
ETITLE: TS BOND ANGLE DIHED IMPRP ELECT VDW BOUNDARY MISC KINETIC TOTAL TEMP POTENTIAL TOTALAVG TEMPAVG PRESSURE GPRESSURE VOLUME PRESSAVG GPRESSAVG
ENERGY: 0 1.7654 2.4251 2.9944 0.0000 -10585.9267 1438.5409 0.0000 0.0000 1758.0517 -7382.1494 303.0285 -9140.2011 -7382.1494 303.0285 295.6438 381.6486 29486.6476 295.6438 381.6486
ENERGY: 300000 6.6086 1.9889 3.2957 0.0000 -10618.5223 1399.6383 0.0000 0.0000 1725.2298 -7481.7609 297.3712 -9206.9907 -7417.8916 299.0876 -521.8319 -459.5172 29909.5420 119.0608 194.1706
ENERGY: 600000 4.2562 2.5612 1.8738 0.0000 -10617.9471 1428.4411 0.0000 0.0000 1726.3667 -7454.4482 297.5671 -9180.8149 -7413.6018 298.3217 -403.1266 -293.7834 30221.1373 -34.5394 41.3242
ENERGY: 900000 0.8089 0.9219 2.6420 0.0000 -10568.7233 1392.3370 0.0000 0.0000 1683.9315 -7488.0819 290.2527 -9172.0134 -7436.5005 296.8507 -318.4162 -300.0088 29775.3045 -165.1052 -94.9165
ENERGY: 1200000 0.9778 2.5901 4.3325 0.0000 -10494.4324 1331.1612 0.0000 0.0000 1746.5459 -7408.8250 301.0453 -9155.3709 -7427.7311 297.0020 -1227.4428 -1150.9995 31011.6890 -245.6346 -177.6993
ENERGY: 1500000 4.8729 2.7560 2.6762 0.0000 -10500.4533 1379.7987 0.0000 0.0000 1774.9241 -7335.4254 305.9368 -9110.3495 -7415.9262 297.6652 -289.4745 -271.5809 30031.2016 -256.5305 -196.0192
TCL: Running FEP window  18: Lambda1 0.1499999999999997 Lambda2 0.09999999999999969 [dLambda -0.05 ]
TCL: Setting parameter firsttimestep to 0
TCL: Setting parameter alchLambda to 0.1499999999999997
Info: NONBONDED TABLE R-SQUARED SPACING: 0.0625
Info: NONBONDED TABLE SIZE: 705 POINTS
TCL: Setting parameter alchLambda2 to 0.09999999999999969
Info: NONBONDED TABLE R-SQUARED SPACING: 0.0625
Info: NONBONDED TABLE SIZE: 705 POINTS
TCL: Running for 1500000 steps
ETITLE: TS BOND ANGLE DIHED IMPRP ELECT VDW BOUNDARY MISC KINETIC TOTAL TEMP POTENTIAL TOTALAVG TEMPAVG PRESSURE GPRESSURE VOLUME PRESSAVG GPRESSAVG
ENERGY: 0 4.8729 2.7560 2.6762 0.0000 -10500.4532 1379.9378 0.0000 0.0000 1774.1087 -7336.1016 305.7962 -9110.2103 -7336.1016 305.7962 -353.2159 -273.0844 30031.2016 -353.2159 -273.0844
ENERGY: 300000 3.1251 4.0038 1.9974 0.0000 -10526.9382 1400.4753 0.0000 0.0000 1690.2132 -7427.1235 291.3355 -9117.3367 -7391.8836 298.6293 337.1752 306.6445 29600.0292 190.5470 239.9593
ENERGY: 600000 1.6279 2.4978 1.9453 0.0000 -10472.1504 1343.7791 0.0000 0.0000 1723.9928 -7398.3076 297.1580 -9122.3004 -7392.2762 298.3836 -773.4309 -732.0425 30020.7202 76.1319 129.0250
ENERGY: 900000 2.0470 3.1109 2.8032 0.0000 -10558.9924 1391.6280 0.0000 0.0000 1766.4987 -7392.9046 304.4845 -9159.4033 -7399.1172 299.6287 -184.4968 -137.0981 29765.8517 30.7254 82.3755
ENERGY: 1200000 1.3757 6.1091 2.5890 0.0000 -10448.5146 1364.9532 0.0000 0.0000 1741.9782 -7331.5093 300.2580 -9073.4876 -7394.9169 298.9665 -218.1861 -92.8498 29694.6488 21.4232 85.9880
ENERGY: 1500000 3.0382 2.4621 2.2415 0.0000 -10450.0321 1346.1218 0.0000 0.0000 1724.5970 -7371.5715 297.2621 -9096.1685 -7395.3295 298.8367 -675.7062 -514.8446 29873.6018 -33.5270 35.9566
TCL: Running FEP window  19: Lambda1 0.09999999999999969 Lambda2 0.049999999999999684 [dLambda -0.05 ]
TCL: Setting parameter firsttimestep to 0
TCL: Setting parameter alchLambda to 0.09999999999999969
Info: NONBONDED TABLE R-SQUARED SPACING: 0.0625
Info: NONBONDED TABLE SIZE: 705 POINTS
TCL: Setting parameter alchLambda2 to 0.049999999999999684
Info: NONBONDED TABLE R-SQUARED SPACING: 0.0625
Info: NONBONDED TABLE SIZE: 705 POINTS
TCL: Running for 1500000 steps
ETITLE: TS BOND ANGLE DIHED IMPRP ELECT VDW BOUNDARY MISC KINETIC TOTAL TEMP POTENTIAL TOTALAVG TEMPAVG PRESSURE GPRESSURE VOLUME PRESSAVG GPRESSAVG
ENERGY: 0 3.0382 2.4621 2.2415 0.0000 -10450.0314 1346.5591 0.0000 0.0000 1723.7247 -7372.0058 297.1117 -9095.7305 -7372.0058 297.1117 -596.1606 -515.6493 29873.6018 -596.1606 -515.6493
ENERGY: 300000 3.0534 2.7133 1.1138 0.0000 -10586.8963 1439.7122 0.0000 0.0000 1771.7300 -7368.5735 305.3862 -9140.3034 -7383.9876 301.4205 7.4086 38.5526 30059.4362 38.3702 101.9795
ENERGY: 600000 1.0916 6.6866 2.7609 0.0000 -10655.8856 1494.5585 0.0000 0.0000 1789.4055 -7361.3826 308.4329 -9150.7881 -7385.2352 301.9381 441.8311 598.0901 29931.9578 93.4029 164.5381
ENERGY: 900000 3.0788 3.5501 0.9025 0.0000 -10499.5586 1372.1130 0.0000 0.0000 1732.0042 -7387.9100 298.5388 -9119.9142 -7383.8071 301.8497 -102.7256 -78.8235 29715.8573 7.9205 76.3746
ENERGY: 1200000 1.1293 3.6583 1.6094 0.0000 -10638.0168 1412.5244 0.0000 0.0000 1707.4092 -7511.6862 294.2995 -9219.0954 -7389.0297 301.3620 -543.6804 -482.4228 30098.7577 23.5394 96.1263
ENERGY: 1500000 2.1448 1.8978 2.3467 0.0000 -10647.7911 1431.2694 0.0000 0.0000 1730.6538 -7479.4787 298.3061 -9210.1325 -7389.5687 301.6226 -215.4548 -171.1323 29905.0131 81.8898 152.2853
TCL: Running FEP window  20: Lambda1 0.049999999999999684 Lambda2 0.0    [dLambda -0.049999999999999684]
TCL: Setting parameter firsttimestep to 0
TCL: Setting parameter alchLambda to 0.049999999999999684
Info: NONBONDED TABLE R-SQUARED SPACING: 0.0625
Info: NONBONDED TABLE SIZE: 705 POINTS
TCL: Setting parameter alchLambda2 to 0.0
Info: NONBONDED TABLE R-SQUARED SPACING: 0.0625
Info: NONBONDED TABLE SIZE: 705 POINTS
TCL: Running for 1500000 steps
ETITLE: TS BOND ANGLE DIHED IMPRP ELECT VDW BOUNDARY MISC KINETIC TOTAL TEMP POTENTIAL TOTALAVG TEMPAVG PRESSURE GPRESSURE VOLUME PRESSAVG GPRESSAVG
ENERGY: 0 2.1448 1.8978 2.3467 0.0000 -10647.7933 1430.4207 0.0000 0.0000 1729.7832 -7481.2001 298.1560 -9210.9834 -7481.2001 298.1560 -250.9041 -178.1709 29905.0131 -250.9041 -178.1709
ENERGY: 300000 1.1522 2.1312 1.7984 0.0000 -10579.4292 1418.7753 0.0000 0.0000 1786.2316 -7369.3405 307.8858 -9155.5721 -7402.8247 301.5141 195.1645 264.2910 29537.7474 -10.1855 65.5500
ENERGY: 600000 2.7093 2.3571 3.6230 0.0000 -10534.6572 1423.4700 0.0000 0.0000 1774.5197 -7327.9781 305.8671 -9102.4978 -7401.0492 300.3420 -175.7670 -117.0829 30520.5762 -199.1741 -135.7880
ENERGY: 900000 6.8099 4.6050 1.8723 0.0000 -10578.3966 1448.2759 0.0000 0.0000 1753.0949 -7363.7386 302.1742 -9116.8335 -7405.8524 299.5035 222.6755 307.3175 29561.1655 -260.7767 -200.3405
ENERGY: 1200000 2.7430 1.8476 3.3342 0.0000 -10628.3389 1397.7078 0.0000 0.0000 1736.6705 -7486.0358 299.3432 -9222.7063 -7409.0901 299.4980 -438.7543 -454.4165 29824.2231 -215.0474 -152.3964
ENERGY: 1500000 0.8399 4.2185 2.0825 0.0000 -10618.9049 1447.7201 0.0000 0.0000 1769.9058 -7394.1382 305.0718 -9164.0439 -7401.3498 299.3682 -87.1549 -9.5670 30359.5673 -231.0351 -168.3646
TCL: Exiting due to exit command.
