Info: SIMULATION PARAMETERS:
Info: TIMESTEP               2
Info: NUMBER OF STEPS        0
Info: STEPS PER CYCLE        10
Info: PERIODIC CELL BASIS 1  31.0271 0 0
Info: PERIODIC CELL BASIS 2  0 30.2206 0
Info: PERIODIC CELL BASIS 3  0 0 32.0808
Info: PERIODIC CELL CENTER   0 0 0
Info: WRAPPING WATERS AROUND PERIODIC BOUNDARIES ON OUTPUT.
Info: WRAPPING ALL CLUSTERS AROUND PERIODIC BOUNDARIES ON OUTPUT.
Info: FIRST LDB TIMESTEP     50
Info: LAST LDB TIMESTEP     -1
Info: HOM BACKGROUND SCALING 1
Info: PME BACKGROUND SCALING 1
Info: MIN ATOMS PER PATCH    40
Info: EMPTY PATCH LOAD       40 ATOMS
Info: VELOCITY FILE          mobley_9913368_equil.vel
Info: CENTER OF MASS MOVING INITIALLY? NO
Info: DIELECTRIC             1
Info: EXCLUDE                SCALED ONE-FOUR
Info: 1-4 ELECTROSTATICS SCALED BY 0.833333
Info: MODIFIED 1-4 VDW PARAMETERS WILL BE USED
Info: DCD FILENAME           mobley_9913368_prod.dcd
Info: DCD FREQUENCY          100000
Info: DCD FIRST STEP         100000
Info: DCD FILE WILL CONTAIN UNIT CELL DATA
Info: XST FILENAME           mobley_9913368_prod.xst
Info: XST FREQUENCY          100000
Info: NO VELOCITY DCD OUTPUT
Info: NO FORCE DCD OUTPUT
Info: OUTPUT FILENAME        mobley_9913368_prod
Info: BINARY OUTPUT FILES WILL BE USED
Info: RESTART FILENAME       mobley_9913368_prod.restart
Info: RESTART FREQUENCY      100000
Info: BINARY RESTART FILES WILL BE USED
Info: CUTOFF                 9
Info: PAIRLIST DISTANCE      11
Info: PAIRLIST SHRINK RATE   0.01
Info: PAIRLIST GROW RATE     0.01
Info: PAIRLIST TRIGGER       0.3
Info: PAIRLISTS PER CYCLE    2
Info: PAIRLISTS ENABLED
Info: MARGIN                 2
Info: HYDROGEN GROUP CUTOFF  2.5
Info: PATCH DIMENSION        15.5
Info: ENERGY OUTPUT STEPS    100000
Info: ENERGY EVALUATION STEPS    100000
Info: OUTPUT ENERGY PRECISION 4
Info: CROSSTERM ENERGY INCLUDED IN DIHEDRAL
Info: TIMING OUTPUT STEPS    1000000
Info: PRESSURE OUTPUT STEPS  100000
Info: ALCHEMICAL FEP ON
Info: FEP CURRENT LAMBDA VALUE     1
Info: FEP COMPARISON LAMBDA VALUE  0.95
Info: FEP INTRA-ALCHEMICAL NON-BONDED INTERACTIONS WILL BE RETAINED
Info: FEP INTRA-ALCHEMICAL BONDED INTERACTIONS WILL BE RETAINED
Info: FEP VDW SHIFTING COEFFICIENT 5
Info: FEP ELEC. ACTIVE FOR ANNIHILATED PARTICLES BETWEEN LAMBDA = 0 AND LAMBDA = 0.5
Info: FEP ELEC. ACTIVE FOR EXNIHILATED PARTICLES BETWEEN LAMBDA = 0.5 AND LAMBDA = 1
Info: FEP VDW ACTIVE FOR ANNIHILATED PARTICLES BETWEEN LAMBDA = 0 AND LAMBDA = 1
Info: FEP VDW ACTIVE FOR EXNIHILATED PARTICLES BETWEEN LAMBDA = 0 AND LAMBDA = 1
Info: FEP BOND ACTIVE FOR ANNIHILATED PARTICLES BETWEEN LAMBDA = 1 AND LAMBDA = 1
Info: FEP BOND ACTIVE FOR EXNIHILATED PARTICLES BETWEEN LAMBDA = 0 AND LAMBDA = 0
Info: LANGEVIN DYNAMICS ACTIVE
Info: LANGEVIN TEMPERATURE   300
Info: LANGEVIN USING BBK INTEGRATOR
Info: LANGEVIN DAMPING COEFFICIENT IS 1 INVERSE PS
Info: LANGEVIN DYNAMICS APPLIED TO HYDROGENS
Info: LANGEVIN PISTON PRESSURE CONTROL ACTIVE
Info:        TARGET PRESSURE IS 1.01325 BAR
Info:     OSCILLATION PERIOD IS 50 FS
Info:             DECAY TIME IS 25 FS
Info:     PISTON TEMPERATURE IS 300 K
Info:       PRESSURE CONTROL IS GROUP-BASED
Info:    INITIAL STRAIN RATE IS 0.0001603 0.0001603 0.0001603
Info:       CELL FLUCTUATION IS ISOTROPIC
Info: PARTICLE MESH EWALD (PME) ACTIVE
Info: PME TOLERANCE               1e-06
Info: PME EWALD COEFFICIENT       0.348832
Info: PME INTERPOLATION ORDER     4
Info: PME GRID DIMENSIONS         32 32 36
Info: PME MAXIMUM GRID SPACING    1
Info: PME CALCULATION WILL BE PERFORMED ON GPU
Info: FULL ELECTROSTATIC EVALUATION FREQUENCY      2
Info: USING VERLET I (r-RESPA) MTS SCHEME.
Info: C1 SPLITTING OF LONG RANGE ELECTROSTATICS
Info: PLACING ATOMS IN PATCHES BY HYDROGEN GROUPS
Info: RIGID BONDS TO HYDROGEN : ALL
Info:         ERROR TOLERANCE : 1e-08
Info:          MAX ITERATIONS : 100
Info: RIGID WATER USING SETTLE ALGORITHM
Info: RANDOM NUMBER SEED     1743490038
Info: USE HYDROGEN BONDS?    NO
Info: Using AMBER format force field!
Info: AMBER PARM FILE        mobley_9913368.prmtop
Info: COORDINATE PDB         mobley_9913368.pdb
Info: Exclusions will be read from PARM file!
Info: SCNB (VDW SCALING)     2
Info: USING ARITHMETIC MEAN TO COMBINE L-J SIGMA PARAMETERS
Info: BINARY COORDINATES     mobley_9913368_equil.coor
Info: SUMMARY OF PARAMETERS:
Info: 5 BONDS
Info: 3 ANGLES
Info:   3 HARMONIC
Info:   0 COSINE-BASED
Info: 2 DIHEDRAL
Info: 0 IMPROPER
Info: 0 CROSSTERM
Info: 0 VDW
Info: 15 VDW_PAIRS
Info: 0 NBTHOLE_PAIRS
Info: To read alchdata from file: mobley_9913368.pdb
Info: To read alchflag data from column: 5
Info: STRUCTURE SUMMARY:
Info: 2907 ATOMS
Info: 2906 BONDS
Info: 6 ANGLES
Info: 6 DIHEDRALS
Info: 0 IMPROPERS
Info: 0 CROSSTERMS
Info: 2916 EXCLUSIONS
Info: 2903 RIGID BONDS
Info: ALCH: 0 ATOMS TO DISAPPEAR IN FINAL STATE
Info: ALCH: 6 ATOMS TO APPEAR IN FINAL STATE
Info: 5818 DEGREES OF FREEDOM
Info: 971 HYDROGEN GROUPS
Info: 3 ATOMS IN LARGEST HYDROGEN GROUP
Info: 971 MIGRATION GROUPS
Info: 3 ATOMS IN LARGEST MIGRATION GROUP
Info: TOTAL MASS = 17518.4 amu
Info: TOTAL CHARGE = 0.000100002 e
Info: MASS DENSITY = 0.967082 g/cm^3
Info: ATOM DENSITY = 0.0966394 atoms/A^3
Info: ADDED 0 IMPLICIT EXCLUSIONS
Info: NONBONDED TABLE R-SQUARED SPACING: 0.0625
Info: NONBONDED TABLE SIZE: 705 POINTS
Info: REMOVING COM VELOCITY -0.0172883 0.0231443 0.0333111
Info: Use 3D box decompostion in PME FFT.
Info: Updated CUDA force table with 4096 elements.
Info: Updated CUDA LJ table with 5 x 5 elements.
Info: Found 9 unique exclusion lists needing 12 bytes
TCL: Running for 1500000 steps
ETITLE: TS BOND ANGLE DIHED IMPRP ELECT VDW BOUNDARY MISC KINETIC TOTAL TEMP POTENTIAL TOTALAVG TEMPAVG PRESSURE GPRESSURE VOLUME PRESSAVG GPRESSAVG
ENERGY: 0 0.2657 0.0942 1.0053 0.0000 -10503.8542 1395.2815 0.0000 0.0000 1774.8200 -7332.3875 307.0231 -9107.2075 -7332.3875 307.0231 -72.5359 19.3023 30080.8976 -72.5359 19.3023
ENERGY: 300000 0.4679 1.3699 1.5638 0.0000 -10656.2764 1528.0937 0.0000 0.0000 1729.8053 -7394.9759 299.2360 -9124.7812 -7378.7790 302.6495 731.3134 818.2425 29983.6023 48.1744 118.7849
ENERGY: 600000 0.2425 1.0006 1.0767 0.0000 -10602.9069 1497.8515 0.0000 0.0000 1739.2722 -7363.4633 300.8737 -9102.7355 -7371.8249 301.2043 816.5951 838.3395 30040.7409 220.8778 284.5985
ENERGY: 900000 3.5948 1.1667 0.4191 0.0000 -10599.6631 1443.0874 0.0000 0.0000 1704.8913 -7446.5038 294.9262 -9151.3951 -7384.5932 300.2574 130.0134 129.4770 29714.6551 267.6740 333.2830
ENERGY: 1200000 0.4481 0.7974 0.5625 0.0000 -10561.4351 1424.5895 0.0000 0.0000 1703.1977 -7431.8399 294.6332 -9135.0376 -7395.4695 299.8259 180.9242 211.1850 29937.3909 196.7707 256.7961
ENERGY: 1500000 1.1357 1.4245 1.7922 0.0000 -10576.6265 1486.6085 0.0000 0.0000 1758.9738 -7326.6919 304.2818 -9085.6657 -7393.8163 300.3228 546.2448 562.4419 30413.7758 219.9320 272.3769
TCL: Running FEP window   2: Lambda1 0.95   Lambda2 0.8999999999999999 [dLambda -0.050000000000000044]
TCL: Setting parameter firsttimestep to 0
TCL: Setting parameter alchLambda to 0.95
Info: NONBONDED TABLE R-SQUARED SPACING: 0.0625
Info: NONBONDED TABLE SIZE: 705 POINTS
TCL: Setting parameter alchLambda2 to 0.8999999999999999
Info: NONBONDED TABLE R-SQUARED SPACING: 0.0625
Info: NONBONDED TABLE SIZE: 705 POINTS
TCL: Running for 1500000 steps
ETITLE: TS BOND ANGLE DIHED IMPRP ELECT VDW BOUNDARY MISC KINETIC TOTAL TEMP POTENTIAL TOTALAVG TEMPAVG PRESSURE GPRESSURE VOLUME PRESSAVG GPRESSAVG
ENERGY: 0 1.1357 1.4245 1.7922 0.0000 -10576.5666 1486.5592 0.0000 0.0000 1758.0827 -7327.5723 304.1277 -9085.6549 -7327.5723 304.1277 470.2610 552.5414 30413.7758 470.2610 552.5414
ENERGY: 300000 2.0717 0.5092 2.1082 0.0000 -10605.4943 1374.0675 0.0000 0.0000 1758.8848 -7467.8529 304.2665 -9226.7377 -7420.1304 301.9111 -358.5654 -294.6685 29830.5759 131.0586 229.1610
ENERGY: 600000 1.6037 2.7397 2.5964 0.0000 -10454.9438 1393.8280 0.0000 0.0000 1711.6623 -7342.5137 296.0975 -9054.1760 -7401.3998 301.8983 175.4733 231.0326 29917.4530 -3.8440 89.9047
ENERGY: 900000 0.1879 0.8936 0.8509 0.0000 -10641.7124 1441.3542 0.0000 0.0000 1694.7424 -7503.6833 293.1706 -9198.4257 -7400.5419 301.6161 71.3677 147.9152 29593.1453 27.5860 110.0912
ENERGY: 1200000 0.6350 1.5696 0.4088 0.0000 -10497.5518 1401.6528 0.0000 0.0000 1722.5082 -7370.7775 297.9737 -9093.2857 -7409.4178 300.8370 -85.2453 -41.7574 30242.2807 65.4632 140.3275
ENERGY: 1500000 1.9317 0.5647 0.6277 0.0000 -10656.2460 1426.8214 0.0000 0.0000 1741.7038 -7484.5967 301.2943 -9226.3004 -7425.0763 300.5735 -79.8954 -43.3291 30179.6126 38.1256 108.4315
TCL: Running FEP window   3: Lambda1 0.8999999999999999 Lambda2 0.8499999999999999 [dLambda -0.050000000000000044]
TCL: Setting parameter firsttimestep to 0
TCL: Setting parameter alchLambda to 0.8999999999999999
Info: NONBONDED TABLE R-SQUARED SPACING: 0.0625
Info: NONBONDED TABLE SIZE: 705 POINTS
TCL: Setting parameter alchLambda2 to 0.8499999999999999
Info: NONBONDED TABLE R-SQUARED SPACING: 0.0625
Info: NONBONDED TABLE SIZE: 705 POINTS
TCL: Running for 1500000 steps
ETITLE: TS BOND ANGLE DIHED IMPRP ELECT VDW BOUNDARY MISC KINETIC TOTAL TEMP POTENTIAL TOTALAVG TEMPAVG PRESSURE GPRESSURE VOLUME PRESSAVG GPRESSAVG
ENERGY: 0 1.9317 0.5647 0.6277 0.0000 -10656.1846 1427.0389 0.0000 0.0000 1740.8681 -7485.1535 301.1498 -9226.0216 -7485.1535 301.1498 -119.0514 -47.9527 30179.6126 -119.0514 -47.9527
ENERGY: 300000 0.6111 1.0271 0.1888 0.0000 -10424.6409 1311.5121 0.0000 0.0000 1699.4961 -7411.8058 293.9929 -9111.3020 -7407.0088 300.4334 -987.0780 -914.4210 30415.3115 -287.5236 -219.9864
ENERGY: 600000 1.8066 0.3535 0.7087 0.0000 -10523.9715 1407.3918 0.0000 0.0000 1726.0987 -7387.6121 298.5948 -9113.7109 -7368.4105 302.7130 -167.8984 -105.4295 30430.6632 -308.2744 -248.2623
ENERGY: 900000 1.1088 0.7148 0.7638 0.0000 -10523.0439 1356.7660 0.0000 0.0000 1741.4325 -7422.2580 301.2474 -9163.6905 -7397.9804 301.2013 -714.4930 -658.1366 30026.0912 -333.3596 -268.4687
ENERGY: 1200000 0.2912 1.7244 0.7759 0.0000 -10605.7912 1477.1911 0.0000 0.0000 1741.2117 -7384.5969 301.2092 -9125.8086 -7401.8001 301.3551 468.3311 539.5699 29987.3128 -243.7458 -178.5526
ENERGY: 1500000 0.4790 0.9916 1.3473 0.0000 -10648.4113 1476.4571 0.0000 0.0000 1747.6945 -7421.4417 302.3307 -9169.1363 -7399.9602 301.8558 445.6705 555.8132 29528.7754 -187.0843 -121.0579
TCL: Running FEP window   4: Lambda1 0.8499999999999999 Lambda2 0.7999999999999998 [dLambda -0.050000000000000044]
TCL: Setting parameter firsttimestep to 0
TCL: Setting parameter alchLambda to 0.8499999999999999
Info: NONBONDED TABLE R-SQUARED SPACING: 0.0625
Info: NONBONDED TABLE SIZE: 705 POINTS
TCL: Setting parameter alchLambda2 to 0.7999999999999998
Info: NONBONDED TABLE R-SQUARED SPACING: 0.0625
Info: NONBONDED TABLE SIZE: 705 POINTS
TCL: Running for 1500000 steps
ETITLE: TS BOND ANGLE DIHED IMPRP ELECT VDW BOUNDARY MISC KINETIC TOTAL TEMP POTENTIAL TOTALAVG TEMPAVG PRESSURE GPRESSURE VOLUME PRESSAVG GPRESSAVG
ENERGY: 0 0.4790 0.9916 1.3473 0.0000 -10648.3941 1476.3121 0.0000 0.0000 1746.8266 -7422.4375 302.1805 -9169.2641 -7422.4375 302.1805 465.4651 548.3156 29528.7754 465.4651 548.3156
ENERGY: 300000 2.3054 0.7626 0.7544 0.0000 -10569.0658 1404.2210 0.0000 0.0000 1713.3024 -7447.7201 296.3812 -9161.0224 -7417.1867 302.3447 -136.4275 -58.7921 29924.5159 350.8589 415.3563
ENERGY: 600000 3.3464 2.1328 0.4796 0.0000 -10717.8922 1490.5039 0.0000 0.0000 1730.2867 -7491.1427 299.3193 -9221.4294 -7439.1998 299.6340 482.0198 541.0178 29708.0909 441.4156 506.6567
ENERGY: 900000 1.3033 2.2813 1.5238 0.0000 -10699.6599 1519.0950 0.0000 0.0000 1739.0054 -7436.4511 300.8275 -9175.4565 -7444.3384 300.3717 609.6728 656.5496 29890.8315 542.7871 604.6908
ENERGY: 1200000 1.5944 1.5723 0.1689 0.0000 -10554.2186 1447.8424 0.0000 0.0000 1741.5000 -7361.5406 301.2591 -9103.0406 -7438.8491 300.2187 143.1069 283.9428 30152.9145 380.6272 441.5304
ENERGY: 1500000 0.7316 0.6204 3.9372 0.0000 -10634.6761 1459.4677 0.0000 0.0000 1718.1552 -7451.7640 297.2207 -9169.9192 -7441.3359 299.1681 406.8545 476.5004 29325.5301 359.5888 424.5465
TCL: Running FEP window   5: Lambda1 0.7999999999999998 Lambda2 0.7499999999999998 [dLambda -0.050000000000000044]
TCL: Setting parameter firsttimestep to 0
TCL: Setting parameter alchLambda to 0.7999999999999998
Info: NONBONDED TABLE R-SQUARED SPACING: 0.0625
Info: NONBONDED TABLE SIZE: 705 POINTS
TCL: Setting parameter alchLambda2 to 0.7499999999999998
Info: NONBONDED TABLE R-SQUARED SPACING: 0.0625
Info: NONBONDED TABLE SIZE: 705 POINTS
TCL: Running for 1500000 steps
ETITLE: TS BOND ANGLE DIHED IMPRP ELECT VDW BOUNDARY MISC KINETIC TOTAL TEMP POTENTIAL TOTALAVG TEMPAVG PRESSURE GPRESSURE VOLUME PRESSAVG GPRESSAVG
ENERGY: 0 0.7316 0.6204 3.9372 0.0000 -10634.3497 1459.6961 0.0000 0.0000 1717.2676 -7452.0969 297.0672 -9169.3645 -7452.0969 297.0672 400.0864 471.8002 29325.5301 400.0864 471.8002
ENERGY: 300000 0.2519 0.6255 0.8413 0.0000 -10533.3819 1441.8286 0.0000 0.0000 1679.8868 -7409.9479 290.6007 -9089.8346 -7400.7719 299.9270 80.8898 149.1010 30229.4147 -36.2055 49.9024
ENERGY: 600000 0.2992 2.5425 2.1564 0.0000 -10652.8266 1505.6418 0.0000 0.0000 1734.1484 -7408.0382 299.9873 -9142.1866 -7404.5472 300.0014 570.7075 623.4138 30229.8159 121.9501 185.2073
ENERGY: 900000 2.7402 0.4057 0.7060 0.0000 -10630.9616 1416.7640 0.0000 0.0000 1734.3134 -7476.0322 300.0159 -9210.3457 -7406.6710 300.4460 -435.0653 -326.1441 29888.0891 46.5716 117.6430
ENERGY: 1200000 0.2897 0.2687 1.3698 0.0000 -10608.7696 1429.4785 0.0000 0.0000 1754.4377 -7422.9252 303.4972 -9177.3629 -7404.6872 300.3515 -93.1146 4.0603 30066.1111 24.6341 93.2357
ENERGY: 1500000 1.9222 1.9742 0.5127 0.0000 -10558.7731 1397.7462 0.0000 0.0000 1759.1743 -7397.4434 304.3165 -9156.6178 -7399.3335 299.9716 -250.2508 -122.6974 29714.4202 5.4850 70.5151
TCL: Running FEP window   6: Lambda1 0.7499999999999998 Lambda2 0.6999999999999997 [dLambda -0.050000000000000044]
TCL: Setting parameter firsttimestep to 0
TCL: Setting parameter alchLambda to 0.7499999999999998
Info: NONBONDED TABLE R-SQUARED SPACING: 0.0625
Info: NONBONDED TABLE SIZE: 705 POINTS
TCL: Setting parameter alchLambda2 to 0.6999999999999997
Info: NONBONDED TABLE R-SQUARED SPACING: 0.0625
Info: NONBONDED TABLE SIZE: 705 POINTS
TCL: Running for 1500000 steps
ETITLE: TS BOND ANGLE DIHED IMPRP ELECT VDW BOUNDARY MISC KINETIC TOTAL TEMP POTENTIAL TOTALAVG TEMPAVG PRESSURE GPRESSURE VOLUME PRESSAVG GPRESSAVG
ENERGY: 0 1.9222 1.9742 0.5127 0.0000 -10558.7079 1397.3955 0.0000 0.0000 1758.3277 -7398.5756 304.1701 -9156.9033 -7398.5756 304.1701 -219.9474 -133.4581 29714.4202 -219.9474 -133.4581
ENERGY: 300000 0.8684 3.1650 1.1120 0.0000 -10522.3391 1354.8428 0.0000 0.0000 1721.5840 -7440.7668 297.8139 -9162.3509 -7410.5078 302.3358 -856.0633 -782.2512 30190.9866 -218.6419 -138.7030
ENERGY: 600000 0.2903 0.9493 0.3359 0.0000 -10526.7734 1413.4592 0.0000 0.0000 1726.9980 -7384.7405 298.7504 -9111.7385 -7402.8748 300.3139 242.0103 274.2117 29714.3184 -285.3634 -203.3614
ENERGY: 900000 0.2691 2.3392 4.9726 0.0000 -10522.9053 1360.5140 0.0000 0.0000 1710.4214 -7444.3890 295.8828 -9154.8104 -7410.6156 300.2944 -557.0986 -443.4056 30161.0051 -234.3292 -152.7337
ENERGY: 1200000 0.1427 2.1941 2.1943 0.0000 -10573.7568 1466.0053 0.0000 0.0000 1730.2166 -7373.0038 299.3072 -9103.2204 -7413.4107 300.0581 352.3804 416.5188 29887.2188 -181.9811 -108.7068
ENERGY: 1500000 1.3556 0.7136 1.3922 0.0000 -10488.4898 1362.4590 0.0000 0.0000 1792.8247 -7329.7447 310.1377 -9122.5695 -7406.4999 300.2939 -283.3529 -233.7845 29904.2746 -213.1883 -141.8888
TCL: Running FEP window   7: Lambda1 0.6999999999999997 Lambda2 0.6499999999999997 [dLambda -0.050000000000000044]
TCL: Setting parameter firsttimestep to 0
TCL: Setting parameter alchLambda to 0.6999999999999997
Info: NONBONDED TABLE R-SQUARED SPACING: 0.0625
Info: NONBONDED TABLE SIZE: 705 POINTS
TCL: Setting parameter alchLambda2 to 0.6499999999999997
Info: NONBONDED TABLE R-SQUARED SPACING: 0.0625
Info: NONBONDED TABLE SIZE: 705 POINTS
TCL: Running for 1500000 steps
ETITLE: TS BOND ANGLE DIHED IMPRP ELECT VDW BOUNDARY MISC KINETIC TOTAL TEMP POTENTIAL TOTALAVG TEMPAVG PRESSURE GPRESSURE VOLUME PRESSAVG GPRESSAVG
ENERGY: 0 1.3556 0.7136 1.3922 0.0000 -10488.1930 1362.8192 0.0000 0.0000 1791.9384 -7329.9741 309.9843 -9121.9126 -7329.9741 309.9843 -323.8577 -235.7382 29904.2746 -323.8577 -235.7382
ENERGY: 300000 0.3761 0.9115 0.6120 0.0000 -10506.7365 1342.9795 0.0000 0.0000 1780.0649 -7381.7925 307.9303 -9161.8574 -7386.2108 300.9078 -534.3983 -471.2867 29906.9821 -252.4282 -182.0234
ENERGY: 600000 0.1576 0.7940 0.7434 0.0000 -10481.5200 1402.8577 0.0000 0.0000 1752.1012 -7324.8660 303.0930 -9076.9673 -7381.9275 302.5158 -28.0988 -0.8010 30139.5110 16.8778 74.8036
ENERGY: 900000 0.2695 2.5915 0.8246 0.0000 -10573.2063 1428.2154 0.0000 0.0000 1777.0001 -7364.3053 307.4002 -9141.3054 -7383.2197 302.5454 378.0913 428.5821 29480.6287 -75.1770 -21.4783
ENERGY: 1200000 0.4386 1.1883 2.0233 0.0000 -10445.4989 1363.0221 0.0000 0.0000 1737.6660 -7341.1606 300.5958 -9078.8266 -7395.6207 300.8108 -453.3495 -404.8552 30225.8495 -81.7078 -35.3381
ENERGY: 1500000 0.8644 0.7401 0.9140 0.0000 -10496.0881 1380.8640 0.0000 0.0000 1713.6247 -7399.0809 296.4370 -9112.7055 -7392.9922 300.5966 -481.9216 -423.1826 30285.1588 -90.9487 -42.4736
TCL: Running FEP window   8: Lambda1 0.6499999999999997 Lambda2 0.5999999999999996 [dLambda -0.050000000000000044]
TCL: Setting parameter firsttimestep to 0
TCL: Setting parameter alchLambda to 0.6499999999999997
Info: NONBONDED TABLE R-SQUARED SPACING: 0.0625
Info: NONBONDED TABLE SIZE: 705 POINTS
TCL: Setting parameter alchLambda2 to 0.5999999999999996
Info: NONBONDED TABLE R-SQUARED SPACING: 0.0625
Info: NONBONDED TABLE SIZE: 705 POINTS
TCL: Running for 1500000 steps
ETITLE: TS BOND ANGLE DIHED IMPRP ELECT VDW BOUNDARY MISC KINETIC TOTAL TEMP POTENTIAL TOTALAVG TEMPAVG PRESSURE GPRESSURE VOLUME PRESSAVG GPRESSAVG
ENERGY: 0 0.8644 0.7401 0.9140 0.0000 -10496.0711 1380.9854 0.0000 0.0000 1712.7821 -7399.7850 296.2912 -9112.5671 -7399.7850 296.2912 -515.0816 -428.3858 30285.1588 -515.0816 -428.3858
ENERGY: 300000 1.5454 0.5703 0.7351 0.0000 -10529.8732 1397.6215 0.0000 0.0000 1754.4764 -7374.9246 303.5038 -9129.4010 -7373.4367 300.1161 140.9487 175.5014 29607.2425 26.6516 96.1314
ENERGY: 600000 0.5670 0.0409 1.8970 0.0000 -10477.3291 1380.1624 0.0000 0.0000 1688.3556 -7406.3062 292.0657 -9094.6618 -7391.0614 297.5802 -377.2078 -341.2462 30233.3769 -52.5415 17.9392
ENERGY: 900000 0.7547 2.1308 0.4094 0.0000 -10475.8911 1298.9541 0.0000 0.0000 1752.6753 -7420.9668 303.1923 -9173.6421 -7393.1321 298.2788 -1206.4766 -1121.1424 30363.6870 -158.8548 -93.6066
ENERGY: 1200000 1.8550 1.5099 1.5068 0.0000 -10459.8735 1341.9721 0.0000 0.0000 1743.5512 -7369.4786 301.6139 -9113.0297 -7391.0017 298.5693 -660.9693 -589.5480 30221.4896 -159.2980 -87.8742
ENERGY: 1500000 1.8304 1.6757 0.1809 0.0000 -10602.0145 1530.5156 0.0000 0.0000 1762.5730 -7305.2389 304.9045 -9067.8119 -7395.3678 299.0416 1219.2430 1307.3750 29797.4353 -86.4773 -17.0338
TCL: Running FEP window   9: Lambda1 0.5999999999999996 Lambda2 0.5499999999999996 [dLambda -0.050000000000000044]
TCL: Setting parameter firsttimestep to 0
TCL: Setting parameter alchLambda to 0.5999999999999996
Info: NONBONDED TABLE R-SQUARED SPACING: 0.0625
Info: NONBONDED TABLE SIZE: 705 POINTS
TCL: Setting parameter alchLambda2 to 0.5499999999999996
Info: NONBONDED TABLE R-SQUARED SPACING: 0.0625
Info: NONBONDED TABLE SIZE: 705 POINTS
TCL: Running for 1500000 steps
ETITLE: TS BOND ANGLE DIHED IMPRP ELECT VDW BOUNDARY MISC KINETIC TOTAL TEMP POTENTIAL TOTALAVG TEMPAVG PRESSURE GPRESSURE VOLUME PRESSAVG GPRESSAVG
ENERGY: 0 1.8304 1.6757 0.1809 0.0000 -10602.2538 1530.9580 0.0000 0.0000 1761.6897 -7305.9191 304.7517 -9067.6088 -7305.9191 304.7517 1224.5245 1307.3811 29797.4353 1224.5245 1307.3811
ENERGY: 300000 0.4345 0.7853 0.2519 0.0000 -10639.0178 1476.5894 0.0000 0.0000 1775.4546 -7385.5021 307.1328 -9160.9567 -7366.4578 302.9103 590.4493 648.5119 29701.4601 197.6357 245.0628
ENERGY: 600000 0.5280 0.3896 0.0628 0.0000 -10518.1622 1404.3780 0.0000 0.0000 1798.5222 -7314.2816 311.1233 -9112.8038 -7362.8888 302.5793 -314.6280 -216.9987 30319.5846 148.1707 208.5329
ENERGY: 900000 0.7187 0.4762 1.8607 0.0000 -10516.8570 1358.6747 0.0000 0.0000 1712.3240 -7442.8027 296.2120 -9155.1267 -7380.7001 302.3072 -446.8065 -513.2993 30125.0985 98.5910 146.7966
ENERGY: 1200000 0.2341 0.5721 0.9357 0.0000 -10637.0659 1434.4043 0.0000 0.0000 1698.6209 -7502.2988 293.8415 -9200.9197 -7394.4739 300.5782 60.4699 91.2208 29668.6141 156.1517 206.3725
ENERGY: 1500000 0.2357 0.3653 0.7200 0.0000 -10731.5977 1500.9325 0.0000 0.0000 1744.0129 -7485.3314 301.6938 -9229.3442 -7401.1840 301.2961 428.8629 464.0190 29630.5990 183.8402 234.4314
TCL: Running FEP window  10: Lambda1 0.5499999999999996 Lambda2 0.4999999999999996 [dLambda -0.04999999999999999]
TCL: Setting parameter firsttimestep to 0
TCL: Setting parameter alchLambda to 0.5499999999999996
Info: NONBONDED TABLE R-SQUARED SPACING: 0.0625
Info: NONBONDED TABLE SIZE: 705 POINTS
TCL: Setting parameter alchLambda2 to 0.4999999999999996
Info: NONBONDED TABLE R-SQUARED SPACING: 0.0625
Info: NONBONDED TABLE SIZE: 705 POINTS
TCL: Running for 1500000 steps
ETITLE: TS BOND ANGLE DIHED IMPRP ELECT VDW BOUNDARY MISC KINETIC TOTAL TEMP POTENTIAL TOTALAVG TEMPAVG PRESSURE GPRESSURE VOLUME PRESSAVG GPRESSAVG
ENERGY: 0 0.2357 0.3653 0.7200 0.0000 -10731.4478 1501.0418 0.0000 0.0000 1743.1267 -7485.9584 301.5405 -9229.0851 -7485.9584 301.5405 390.8094 461.2424 29630.5990 390.8094 461.2424
ENERGY: 300000 0.4425 1.2042 0.6080 0.0000 -10534.5458 1412.0269 0.0000 0.0000 1728.1064 -7392.1578 298.9422 -9120.2642 -7424.4838 301.8742 179.9012 153.4359 29858.8559 70.1292 90.6220
ENERGY: 600000 0.2311 0.2733 0.1286 0.0000 -10574.5132 1484.4622 0.0000 0.0000 1734.6875 -7354.7305 300.0806 -9089.4179 -7424.6135 302.2777 681.3277 734.0842 29656.2734 160.2046 191.1547
ENERGY: 900000 0.5564 1.3103 0.6152 0.0000 -10544.9809 1458.5192 0.0000 0.0000 1729.7515 -7354.2283 299.2267 -9083.9798 -7397.0265 302.7892 344.3934 409.1970 30116.5056 95.6015 134.7248
ENERGY: 1200000 1.6666 0.4211 1.7095 0.0000 -10532.2529 1407.2239 0.0000 0.0000 1760.9090 -7360.3227 304.6166 -9121.2316 -7405.6359 303.0314 60.6370 133.5798 29714.9454 43.2998 94.7941
ENERGY: 1500000 1.1039 1.3607 1.0733 0.0000 -10657.3749 1473.1295 0.0000 0.0000 1769.8422 -7410.8653 306.1619 -9180.7075 -7406.6674 301.8864 505.6637 535.1559 29791.0571 -32.2972 23.0785
TCL: Running FEP window  11: Lambda1 0.4999999999999996 Lambda2 0.4499999999999996 [dLambda -0.04999999999999999]
TCL: Setting parameter firsttimestep to 0
TCL: Setting parameter alchLambda to 0.4999999999999996
Info: NONBONDED TABLE R-SQUARED SPACING: 0.0625
Info: NONBONDED TABLE SIZE: 705 POINTS
TCL: Setting parameter alchLambda2 to 0.4499999999999996
Info: NONBONDED TABLE R-SQUARED SPACING: 0.0625
Info: NONBONDED TABLE SIZE: 705 POINTS
TCL: Running for 1500000 steps
ETITLE: TS BOND ANGLE DIHED IMPRP ELECT VDW BOUNDARY MISC KINETIC TOTAL TEMP POTENTIAL TOTALAVG TEMPAVG PRESSURE GPRESSURE VOLUME PRESSAVG GPRESSAVG
ENERGY: 0 1.1039 1.3607 1.0733 0.0000 -10657.1805 1473.4768 0.0000 0.0000 1769.0005 -7411.1653 306.0163 -9180.1658 -7411.1653 306.0163 448.7885 532.7001 29791.0571 448.7885 532.7001
ENERGY: 300000 0.2245 0.2796 0.3712 0.0000 -10591.7346 1458.4089 0.0000 0.0000 1761.2175 -7371.2330 304.6700 -9132.4505 -7394.2508 302.0477 169.4796 255.9701 30414.4826 88.2646 173.3423
ENERGY: 600000 1.8487 1.0601 0.5548 0.0000 -10647.5645 1516.6876 0.0000 0.0000 1733.9667 -7393.4466 299.9559 -9127.4132 -7376.0447 301.3789 604.8922 656.7809 29947.2439 180.8644 253.7936
ENERGY: 900000 0.3238 2.1237 1.7288 0.0000 -10629.5992 1512.2302 0.0000 0.0000 1715.1969 -7397.9958 296.7090 -9113.1927 -7377.0711 300.7724 673.7817 758.2909 29978.7760 402.2770 476.0203
ENERGY: 1200000 0.0684 1.6461 0.7679 0.0000 -10544.9429 1451.7235 0.0000 0.0000 1706.1658 -7384.5713 295.1467 -9090.7371 -7381.2479 299.8568 341.8638 330.7766 30151.5292 347.0798 413.7191
ENERGY: 1500000 1.2396 2.5640 0.4927 0.0000 -10477.7487 1408.3179 0.0000 0.0000 1749.5091 -7315.6254 302.6446 -9065.1345 -7376.6065 299.7464 -139.6757 -41.5302 30351.3971 242.2278 311.7891
TCL: Running FEP window  12: Lambda1 0.4499999999999996 Lambda2 0.39999999999999963 [dLambda -0.04999999999999999]
TCL: Setting parameter firsttimestep to 0
TCL: Setting parameter alchLambda to 0.4499999999999996
Info: NONBONDED TABLE R-SQUARED SPACING: 0.0625
Info: NONBONDED TABLE SIZE: 705 POINTS
TCL: Setting parameter alchLambda2 to 0.39999999999999963
Info: NONBONDED TABLE R-SQUARED SPACING: 0.0625
Info: NONBONDED TABLE SIZE: 705 POINTS
TCL: Running for 1500000 steps
ETITLE: TS BOND ANGLE DIHED IMPRP ELECT VDW BOUNDARY MISC KINETIC TOTAL TEMP POTENTIAL TOTALAVG TEMPAVG PRESSURE GPRESSURE VOLUME PRESSAVG GPRESSAVG
ENERGY: 0 1.2396 2.5640 0.4927 0.0000 -10477.7479 1408.5999 0.0000 0.0000 1748.6600 -7316.1916 302.4977 -9064.8516 -7316.1916 302.4977 -137.0878 -43.0862 30351.3971 -137.0878 -43.0862
ENERGY: 300000 0.9296 0.7146 1.2467 0.0000 -10540.8937 1407.0400 0.0000 0.0000 1765.3782 -7365.5845 305.3897 -9130.9627 -7383.1654 300.7693 -156.6586 -151.3761 30081.8816 4.5016 58.4324
ENERGY: 600000 0.2998 0.3954 0.1920 0.0000 -10547.3555 1457.8225 0.0000 0.0000 1715.1352 -7373.5106 296.6983 -9088.6459 -7381.6116 300.1055 172.3766 265.6897 30353.6685 119.7903 185.7172
ENERGY: 900000 1.1850 0.9309 0.4038 0.0000 -10561.6364 1423.5804 0.0000 0.0000 1809.1631 -7326.3732 312.9640 -9135.5364 -7377.8164 300.3957 47.5790 122.3130 30005.3827 90.0126 162.0691
ENERGY: 1200000 0.0285 3.4303 0.3724 0.0000 -10538.5530 1409.4521 0.0000 0.0000 1740.4382 -7384.8316 301.0754 -9125.2698 -7375.1649 300.7015 6.6617 30.3610 29791.9556 -39.1128 26.4481
ENERGY: 1500000 0.6363 0.7434 2.2705 0.0000 -10596.4851 1449.8765 0.0000 0.0000 1692.5192 -7450.4391 292.7860 -9142.9583 -7384.2917 300.7226 306.0510 342.8638 29726.3571 -88.6669 -23.6956
TCL: Running FEP window  13: Lambda1 0.39999999999999963 Lambda2 0.34999999999999964 [dLambda -0.04999999999999999]
TCL: Setting parameter firsttimestep to 0
TCL: Setting parameter alchLambda to 0.39999999999999963
Info: NONBONDED TABLE R-SQUARED SPACING: 0.0625
Info: NONBONDED TABLE SIZE: 705 POINTS
TCL: Setting parameter alchLambda2 to 0.34999999999999964
Info: NONBONDED TABLE R-SQUARED SPACING: 0.0625
Info: NONBONDED TABLE SIZE: 705 POINTS
TCL: Running for 1500000 steps
ETITLE: TS BOND ANGLE DIHED IMPRP ELECT VDW BOUNDARY MISC KINETIC TOTAL TEMP POTENTIAL TOTALAVG TEMPAVG PRESSURE GPRESSURE VOLUME PRESSAVG GPRESSAVG
ENERGY: 0 0.6363 0.7434 2.2705 0.0000 -10596.4851 1449.7276 0.0000 0.0000 1691.6844 -7451.4229 292.6416 -9143.1073 -7451.4229 292.6416 256.0094 335.3966 29726.3571 256.0094 335.3966
ENERGY: 300000 1.1522 0.3092 0.5021 0.0000 -10552.3413 1381.9470 0.0000 0.0000 1719.9952 -7448.4356 297.5390 -9168.4308 -7424.1837 298.0958 -170.8329 -123.8973 29667.4017 60.9098 111.6249
ENERGY: 600000 0.8486 0.6215 0.6266 0.0000 -10442.4891 1355.9096 0.0000 0.0000 1746.1935 -7338.2894 302.0710 -9084.4829 -7405.3147 299.0274 -314.0313 -257.2192 30085.7235 -98.7362 -34.9750
ENERGY: 900000 0.8763 0.4049 0.8257 0.0000 -10666.7238 1472.6208 0.0000 0.0000 1703.1404 -7488.8557 294.6233 -9191.9961 -7413.2682 298.4596 501.1716 582.1214 29546.8937 73.7557 141.8643
ENERGY: 1200000 0.6851 1.3545 0.7986 0.0000 -10516.2910 1366.1061 0.0000 0.0000 1727.8851 -7419.4616 298.9039 -9147.3467 -7413.8385 298.3738 -568.4629 -486.6482 29989.1443 -80.2371 -12.2071
ENERGY: 1500000 1.0980 1.0290 0.9465 0.0000 -10579.3134 1406.5494 0.0000 0.0000 1711.3191 -7458.3713 296.0381 -9169.6904 -7416.6677 298.4779 -357.3172 -293.6080 30035.4140 -96.2147 -27.5917
TCL: Running FEP window  14: Lambda1 0.34999999999999964 Lambda2 0.29999999999999966 [dLambda -0.04999999999999999]
TCL: Setting parameter firsttimestep to 0
TCL: Setting parameter alchLambda to 0.34999999999999964
Info: NONBONDED TABLE R-SQUARED SPACING: 0.0625
Info: NONBONDED TABLE SIZE: 705 POINTS
TCL: Setting parameter alchLambda2 to 0.29999999999999966
Info: NONBONDED TABLE R-SQUARED SPACING: 0.0625
Info: NONBONDED TABLE SIZE: 705 POINTS
TCL: Running for 1500000 steps
ETITLE: TS BOND ANGLE DIHED IMPRP ELECT VDW BOUNDARY MISC KINETIC TOTAL TEMP POTENTIAL TOTALAVG TEMPAVG PRESSURE GPRESSURE VOLUME PRESSAVG GPRESSAVG
ENERGY: 0 1.0980 1.0290 0.9465 0.0000 -10579.3118 1406.6702 0.0000 0.0000 1710.4146 -7459.1534 295.8817 -9169.5680 -7459.1534 295.8817 -382.1152 -296.7965 30035.4140 -382.1152 -296.7965
ENERGY: 300000 0.6180 1.1016 0.6191 0.0000 -10477.2851 1357.0501 0.0000 0.0000 1776.2420 -7341.6545 307.2690 -9117.8964 -7380.5713 302.2687 -457.9947 -405.2691 30071.8217 -500.0729 -425.8962
ENERGY: 600000 0.5435 0.7858 2.6259 0.0000 -10574.4429 1447.9938 0.0000 0.0000 1728.6909 -7393.8030 299.0433 -9122.4939 -7405.7700 299.1654 189.3737 276.7114 29682.6657 -133.4307 -69.1961
ENERGY: 900000 0.4265 1.2991 2.8770 0.0000 -10599.1787 1396.9026 0.0000 0.0000 1755.7713 -7441.9023 303.7278 -9197.6736 -7413.0186 298.6935 -130.0939 -57.3596 29467.3585 -79.5935 -24.8836
ENERGY: 1200000 1.4878 0.2485 0.9788 0.0000 -10534.4294 1388.2241 0.0000 0.0000 1730.4219 -7413.0683 299.3427 -9143.4902 -7409.8495 299.4118 -258.1138 -226.1822 29791.2807 -55.3067 -1.2664
ENERGY: 1500000 0.5315 3.0050 0.4144 0.0000 -10535.3496 1354.0002 0.0000 0.0000 1751.1205 -7426.2779 302.9233 -9177.3984 -7404.5822 299.8127 -800.3787 -688.0797 30207.8814 -157.9224 -97.8150
TCL: Running FEP window  15: Lambda1 0.29999999999999966 Lambda2 0.24999999999999967 [dLambda -0.04999999999999999]
TCL: Setting parameter firsttimestep to 0
TCL: Setting parameter alchLambda to 0.29999999999999966
Info: NONBONDED TABLE R-SQUARED SPACING: 0.0625
Info: NONBONDED TABLE SIZE: 705 POINTS
TCL: Setting parameter alchLambda2 to 0.24999999999999967
Info: NONBONDED TABLE R-SQUARED SPACING: 0.0625
Info: NONBONDED TABLE SIZE: 705 POINTS
TCL: Running for 1500000 steps
ETITLE: TS BOND ANGLE DIHED IMPRP ELECT VDW BOUNDARY MISC KINETIC TOTAL TEMP POTENTIAL TOTALAVG TEMPAVG PRESSURE GPRESSURE VOLUME PRESSAVG GPRESSAVG
ENERGY: 0 0.5315 3.0050 0.4144 0.0000 -10535.3500 1353.5311 0.0000 0.0000 1750.2687 -7427.5993 302.7760 -9177.8680 -7427.5993 302.7760 -780.8053 -695.5703 30207.8814 -780.8053 -695.5703
ENERGY: 300000 0.4591 0.9778 0.9740 0.0000 -10691.2858 1458.0613 0.0000 0.0000 1706.8322 -7523.9814 295.2620 -9230.8136 -7454.0165 297.6347 114.4781 161.0395 29575.0975 -329.0404 -262.4020
ENERGY: 600000 0.1826 2.2428 0.0377 0.0000 -10574.3733 1434.4388 0.0000 0.0000 1712.0216 -7425.4499 296.1597 -9137.4715 -7405.4515 299.3150 -122.7781 -39.4560 29891.0342 -47.6775 12.7648
ENERGY: 900000 2.3364 0.8143 0.5029 0.0000 -10607.9392 1503.6761 0.0000 0.0000 1674.3554 -7426.2541 289.6439 -9100.6095 -7412.6549 298.0524 671.2187 717.6509 29957.4661 79.8947 141.3451
ENERGY: 1200000 1.8306 0.9015 1.6331 0.0000 -10470.0329 1363.9904 0.0000 0.0000 1756.0685 -7345.6089 303.7793 -9101.6774 -7402.7112 298.6108 -563.0149 -472.3435 30066.0461 26.7494 87.0843
ENERGY: 1500000 1.8856 3.1104 1.3420 0.0000 -10449.5290 1382.5269 0.0000 0.0000 1751.7927 -7308.8714 303.0396 -9060.6641 -7396.4746 298.9887 -274.6052 -269.3065 30245.0994 70.8909 130.7886
TCL: Running FEP window  16: Lambda1 0.24999999999999967 Lambda2 0.19999999999999968 [dLambda -0.04999999999999999]
TCL: Setting parameter firsttimestep to 0
TCL: Setting parameter alchLambda to 0.24999999999999967
Info: NONBONDED TABLE R-SQUARED SPACING: 0.0625
Info: NONBONDED TABLE SIZE: 705 POINTS
TCL: Setting parameter alchLambda2 to 0.19999999999999968
Info: NONBONDED TABLE R-SQUARED SPACING: 0.0625
Info: NONBONDED TABLE SIZE: 705 POINTS
TCL: Running for 1500000 steps
ETITLE: TS BOND ANGLE DIHED IMPRP ELECT VDW BOUNDARY MISC KINETIC TOTAL TEMP POTENTIAL TOTALAVG TEMPAVG PRESSURE GPRESSURE VOLUME PRESSAVG GPRESSAVG
ENERGY: 0 1.8856 3.1104 1.3420 0.0000 -10449.5305 1382.4121 0.0000 0.0000 1750.8900 -7309.8905 302.8834 -9060.7805 -7309.8905 302.8834 -334.0845 -273.4657 30245.0994 -334.0845 -273.4657
ENERGY: 300000 0.7377 2.9144 0.6594 0.0000 -10738.1679 1520.3482 0.0000 0.0000 1731.0161 -7482.4920 299.4455 -9213.5081 -7415.5922 300.1697 606.1373 685.5641 29759.2891 302.6425 337.4512
ENERGY: 600000 2.3454 1.2804 0.7376 0.0000 -10610.9600 1427.0512 0.0000 0.0000 1725.7005 -7453.8448 298.5260 -9179.5454 -7417.3025 299.2138 -322.5462 -248.8665 30058.2433 91.5275 144.1552
ENERGY: 900000 0.4781 0.4993 0.4979 0.0000 -10461.7287 1355.8693 0.0000 0.0000 1712.9315 -7391.4525 296.3171 -9104.3840 -7393.0272 300.5388 -442.1478 -361.4051 30006.2663 22.3397 87.0364
ENERGY: 1200000 1.1827 3.9971 1.9808 0.0000 -10469.7058 1299.0612 0.0000 0.0000 1711.6550 -7451.8290 296.0962 -9163.4840 -7397.7304 299.9018 -966.8944 -932.9092 29720.6020 -102.2479 -42.1961
ENERGY: 1500000 1.0386 1.3456 2.0198 0.0000 -10590.4814 1434.8018 0.0000 0.0000 1757.9042 -7393.3714 304.0968 -9151.2756 -7399.3233 300.6828 337.4817 362.3251 29373.7629 -95.7751 -37.6532
TCL: Running FEP window  17: Lambda1 0.19999999999999968 Lambda2 0.1499999999999997 [dLambda -0.04999999999999999]
TCL: Setting parameter firsttimestep to 0
TCL: Setting parameter alchLambda to 0.19999999999999968
Info: NONBONDED TABLE R-SQUARED SPACING: 0.0625
Info: NONBONDED TABLE SIZE: 705 POINTS
TCL: Setting parameter alchLambda2 to 0.1499999999999997
Info: NONBONDED TABLE R-SQUARED SPACING: 0.0625
Info: NONBONDED TABLE SIZE: 705 POINTS
TCL: Running for 1500000 steps
ETITLE: TS BOND ANGLE DIHED IMPRP ELECT VDW BOUNDARY MISC KINETIC TOTAL TEMP POTENTIAL TOTALAVG TEMPAVG PRESSURE GPRESSURE VOLUME PRESSAVG GPRESSAVG
ENERGY: 0 1.0386 1.3456 2.0198 0.0000 -10590.4833 1434.8244 0.0000 0.0000 1757.0248 -7394.2301 303.9447 -9151.2549 -7394.2301 303.9447 304.5730 361.5664 29373.7629 304.5730 361.5664
ENERGY: 300000 1.2243 2.0346 1.5521 0.0000 -10488.8572 1425.6309 0.0000 0.0000 1747.0676 -7311.3477 302.2222 -9058.4153 -7340.3801 301.8903 -22.6205 30.0400 30497.2666 142.0397 218.7315
ENERGY: 600000 1.2472 1.1164 1.9518 0.0000 -10566.7520 1403.2648 0.0000 0.0000 1759.1077 -7400.0641 304.3050 -9159.1718 -7373.4648 300.8916 -175.1969 -89.8851 29817.8245 -42.6311 28.1348
ENERGY: 900000 2.4302 3.7522 1.6218 0.0000 -10297.0238 1285.7101 0.0000 0.0000 1723.2765 -7280.2329 298.1066 -9003.5094 -7384.0554 298.4848 -1042.8145 -977.8338 30901.4028 -194.0304 -129.3630
ENERGY: 1200000 0.0768 0.8624 2.6075 0.0000 -10568.9667 1421.0003 0.0000 0.0000 1745.8441 -7398.5756 302.0106 -9144.4197 -7389.3927 299.4345 -330.4491 -307.7005 30388.0224 -220.7301 -159.7685
ENERGY: 1500000 1.8211 0.5177 1.4904 0.0000 -10649.6234 1483.3993 0.0000 0.0000 1785.1271 -7377.2677 308.8061 -9162.3949 -7383.1389 300.5840 346.2155 429.0511 29979.9755 -183.5379 -122.2695
TCL: Running FEP window  18: Lambda1 0.1499999999999997 Lambda2 0.09999999999999969 [dLambda -0.05 ]
TCL: Setting parameter firsttimestep to 0
TCL: Setting parameter alchLambda to 0.1499999999999997
Info: NONBONDED TABLE R-SQUARED SPACING: 0.0625
Info: NONBONDED TABLE SIZE: 705 POINTS
TCL: Setting parameter alchLambda2 to 0.09999999999999969
Info: NONBONDED TABLE R-SQUARED SPACING: 0.0625
Info: NONBONDED TABLE SIZE: 705 POINTS
TCL: Running for 1500000 steps
ETITLE: TS BOND ANGLE DIHED IMPRP ELECT VDW BOUNDARY MISC KINETIC TOTAL TEMP POTENTIAL TOTALAVG TEMPAVG PRESSURE GPRESSURE VOLUME PRESSAVG GPRESSAVG
ENERGY: 0 1.8211 0.5177 1.4904 0.0000 -10649.6245 1483.6120 0.0000 0.0000 1784.2451 -7377.9381 308.6535 -9162.1832 -7377.9381 308.6535 334.6825 426.2757 29979.9755 334.6825 426.2757
ENERGY: 300000 2.1800 0.5455 0.6250 0.0000 -10608.9197 1478.8190 0.0000 0.0000 1703.5834 -7423.1668 294.7000 -9126.7502 -7408.7443 297.9484 104.1039 173.2075 30543.6639 196.8533 261.3529
ENERGY: 600000 1.2997 0.8911 0.5520 0.0000 -10694.4499 1510.5976 0.0000 0.0000 1731.0447 -7450.0648 299.4504 -9181.1095 -7399.9670 300.0578 623.7769 653.0774 29740.4692 245.1019 308.6919
ENERGY: 900000 0.2832 1.1075 0.7789 0.0000 -10568.0632 1438.1683 0.0000 0.0000 1698.8404 -7428.8849 293.8795 -9127.7253 -7407.1493 299.6783 264.8654 288.1478 29377.9454 206.0060 258.0099
ENERGY: 1200000 1.2363 1.8431 1.1630 0.0000 -10567.2574 1359.0061 0.0000 0.0000 1654.2578 -7549.7512 286.1672 -9204.0090 -7409.6396 297.9882 -831.7363 -771.4346 29811.4772 187.6433 239.5633
ENERGY: 1500000 3.8398 2.6988 2.5496 0.0000 -10598.3216 1416.2663 0.0000 0.0000 1722.1206 -7450.8465 297.9067 -9172.9671 -7416.3110 298.3796 -333.2428 -284.6946 29929.9364 152.4460 213.5901
TCL: Running FEP window  19: Lambda1 0.09999999999999969 Lambda2 0.049999999999999684 [dLambda -0.05 ]
TCL: Setting parameter firsttimestep to 0
TCL: Setting parameter alchLambda to 0.09999999999999969
Info: NONBONDED TABLE R-SQUARED SPACING: 0.0625
Info: NONBONDED TABLE SIZE: 705 POINTS
TCL: Setting parameter alchLambda2 to 0.049999999999999684
Info: NONBONDED TABLE R-SQUARED SPACING: 0.0625
Info: NONBONDED TABLE SIZE: 705 POINTS
TCL: Running for 1500000 steps
ETITLE: TS BOND ANGLE DIHED IMPRP ELECT VDW BOUNDARY MISC KINETIC TOTAL TEMP POTENTIAL TOTALAVG TEMPAVG PRESSURE GPRESSURE VOLUME PRESSAVG GPRESSAVG
ENERGY: 0 3.8398 2.6988 2.5496 0.0000 -10598.3215 1416.2501 0.0000 0.0000 1721.2482 -7451.7349 297.7558 -9172.9832 -7451.7349 297.7558 -374.3436 -289.7275 29929.9364 -374.3436 -289.7275
ENERGY: 300000 1.2352 0.3121 0.8899 0.0000 -10637.3349 1481.9805 0.0000 0.0000 1696.5825 -7456.3347 293.4889 -9152.9173 -7437.3329 299.9819 407.1718 410.8651 29698.8422 249.8369 285.3733
ENERGY: 600000 3.3915 1.8297 0.0376 0.0000 -10463.3343 1334.3089 0.0000 0.0000 1736.4519 -7387.3146 300.3858 -9123.7665 -7431.3778 300.0212 -603.7969 -494.0604 29888.8933 14.9271 61.1991
ENERGY: 900000 0.2337 0.8250 2.0784 0.0000 -10403.2485 1321.1749 0.0000 0.0000 1787.8022 -7291.1343 309.2688 -9078.9365 -7396.3019 301.0395 -870.1033 -864.3645 30521.6032 -18.0231 20.2878
ENERGY: 1200000 0.7323 1.6684 1.1844 0.0000 -10552.0006 1441.0449 0.0000 0.0000 1724.8871 -7382.4836 298.3852 -9107.3707 -7404.0770 300.9859 103.7773 232.3215 29937.3972 -37.4182 10.0066
ENERGY: 1500000 0.6201 0.2156 0.7246 0.0000 -10514.9626 1419.5849 0.0000 0.0000 1757.7892 -7336.0282 304.0769 -9093.8174 -7403.7256 301.5941 143.8010 233.5422 29814.7856 25.4052 78.3359
TCL: Running FEP window  20: Lambda1 0.049999999999999684 Lambda2 0.0    [dLambda -0.049999999999999684]
TCL: Setting parameter firsttimestep to 0
TCL: Setting parameter alchLambda to 0.049999999999999684
Info: NONBONDED TABLE R-SQUARED SPACING: 0.0625
Info: NONBONDED TABLE SIZE: 705 POINTS
TCL: Setting parameter alchLambda2 to 0.0
Info: NONBONDED TABLE R-SQUARED SPACING: 0.0625
Info: NONBONDED TABLE SIZE: 705 POINTS
TCL: Running for 1500000 steps
ETITLE: TS BOND ANGLE DIHED IMPRP ELECT VDW BOUNDARY MISC KINETIC TOTAL TEMP POTENTIAL TOTALAVG TEMPAVG PRESSURE GPRESSURE VOLUME PRESSAVG GPRESSAVG
ENERGY: 0 0.6201 0.2156 0.7246 0.0000 -10514.9631 1419.7259 0.0000 0.0000 1756.9461 -7336.7308 303.9311 -9093.6769 -7336.7308 303.9311 158.5931 233.0791 29814.7856 158.5931 233.0791
ENERGY: 300000 0.7596 1.6942 0.6473 0.0000 -10543.8404 1396.4455 0.0000 0.0000 1753.3748 -7390.9190 303.3133 -9144.2938 -7362.1236 302.0072 -362.9185 -334.8666 29935.0986 -19.5486 17.9326
ENERGY: 600000 0.1306 2.4944 2.1221 0.0000 -10545.2742 1391.9382 0.0000 0.0000 1753.4828 -7395.1062 303.3320 -9148.5890 -7361.0842 301.2620 -442.0627 -372.7130 30155.8517 -316.9206 -278.8422
ENERGY: 900000 2.3594 0.8463 1.4911 0.0000 -10501.2778 1356.0965 0.0000 0.0000 1761.4305 -7379.0539 304.7068 -9140.4845 -7375.9271 301.7756 -455.1421 -355.0696 29622.5636 -72.1666 -32.3983
ENERGY: 1200000 0.3143 1.3016 0.4736 0.0000 -10584.2982 1397.2277 0.0000 0.0000 1683.8826 -7501.0984 291.2919 -9184.9810 -7388.5543 300.2048 -216.7400 -164.8790 29476.7588 -37.7054 5.5336
ENERGY: 1500000 0.1790 0.1475 0.7473 0.0000 -10496.1005 1348.0280 0.0000 0.0000 1738.0940 -7408.9048 300.6699 -9146.9988 -7399.2256 300.3939 -621.5910 -563.1503 30008.7523 -113.2681 -68.1500
TCL: Exiting due to exit command.
