Info: SIMULATION PARAMETERS:
Info: TIMESTEP               2
Info: NUMBER OF STEPS        0
Info: STEPS PER CYCLE        10
Info: PERIODIC CELL BASIS 1  31.7728 0 0
Info: PERIODIC CELL BASIS 2  0 30.0917 0
Info: PERIODIC CELL BASIS 3  0 0 32.199
Info: PERIODIC CELL CENTER   0 0 0
Info: WRAPPING WATERS AROUND PERIODIC BOUNDARIES ON OUTPUT.
Info: WRAPPING ALL CLUSTERS AROUND PERIODIC BOUNDARIES ON OUTPUT.
Info: FIRST LDB TIMESTEP     50
Info: LAST LDB TIMESTEP     -1
Info: HOM BACKGROUND SCALING 1
Info: PME BACKGROUND SCALING 1
Info: MIN ATOMS PER PATCH    40
Info: EMPTY PATCH LOAD       40 ATOMS
Info: VELOCITY FILE          mobley_1755375_equil.vel
Info: CENTER OF MASS MOVING INITIALLY? NO
Info: DIELECTRIC             1
Info: EXCLUDE                SCALED ONE-FOUR
Info: 1-4 ELECTROSTATICS SCALED BY 0.833333
Info: MODIFIED 1-4 VDW PARAMETERS WILL BE USED
Info: DCD FILENAME           mobley_1755375_prod.dcd
Info: DCD FREQUENCY          100000
Info: DCD FIRST STEP         100000
Info: DCD FILE WILL CONTAIN UNIT CELL DATA
Info: XST FILENAME           mobley_1755375_prod.xst
Info: XST FREQUENCY          100000
Info: NO VELOCITY DCD OUTPUT
Info: NO FORCE DCD OUTPUT
Info: OUTPUT FILENAME        mobley_1755375_prod
Info: BINARY OUTPUT FILES WILL BE USED
Info: RESTART FILENAME       mobley_1755375_prod.restart
Info: RESTART FREQUENCY      100000
Info: BINARY RESTART FILES WILL BE USED
Info: CUTOFF                 9
Info: PAIRLIST DISTANCE      11
Info: PAIRLIST SHRINK RATE   0.01
Info: PAIRLIST GROW RATE     0.01
Info: PAIRLIST TRIGGER       0.3
Info: PAIRLISTS PER CYCLE    2
Info: PAIRLISTS ENABLED
Info: MARGIN                 2
Info: HYDROGEN GROUP CUTOFF  2.5
Info: PATCH DIMENSION        15.5
Info: ENERGY OUTPUT STEPS    100000
Info: ENERGY EVALUATION STEPS    100000
Info: OUTPUT ENERGY PRECISION 4
Info: CROSSTERM ENERGY INCLUDED IN DIHEDRAL
Info: TIMING OUTPUT STEPS    1000000
Info: PRESSURE OUTPUT STEPS  100000
Info: ALCHEMICAL FEP ON
Info: FEP CURRENT LAMBDA VALUE     0
Info: FEP COMPARISON LAMBDA VALUE  0.05
Info: FEP INTRA-ALCHEMICAL NON-BONDED INTERACTIONS WILL BE RETAINED
Info: FEP INTRA-ALCHEMICAL BONDED INTERACTIONS WILL BE RETAINED
Info: FEP VDW SHIFTING COEFFICIENT 5
Info: FEP ELEC. ACTIVE FOR ANNIHILATED PARTICLES BETWEEN LAMBDA = 0 AND LAMBDA = 0.5
Info: FEP ELEC. ACTIVE FOR EXNIHILATED PARTICLES BETWEEN LAMBDA = 0.5 AND LAMBDA = 1
Info: FEP VDW ACTIVE FOR ANNIHILATED PARTICLES BETWEEN LAMBDA = 0 AND LAMBDA = 1
Info: FEP VDW ACTIVE FOR EXNIHILATED PARTICLES BETWEEN LAMBDA = 0 AND LAMBDA = 1
Info: FEP BOND ACTIVE FOR ANNIHILATED PARTICLES BETWEEN LAMBDA = 1 AND LAMBDA = 1
Info: FEP BOND ACTIVE FOR EXNIHILATED PARTICLES BETWEEN LAMBDA = 0 AND LAMBDA = 0
Info: LANGEVIN DYNAMICS ACTIVE
Info: LANGEVIN TEMPERATURE   300
Info: LANGEVIN USING BBK INTEGRATOR
Info: LANGEVIN DAMPING COEFFICIENT IS 1 INVERSE PS
Info: LANGEVIN DYNAMICS APPLIED TO HYDROGENS
Info: LANGEVIN PISTON PRESSURE CONTROL ACTIVE
Info:        TARGET PRESSURE IS 1.01325 BAR
Info:     OSCILLATION PERIOD IS 50 FS
Info:             DECAY TIME IS 25 FS
Info:     PISTON TEMPERATURE IS 300 K
Info:       PRESSURE CONTROL IS GROUP-BASED
Info:    INITIAL STRAIN RATE IS 0.000357397 0.000357397 0.000357397
Info:       CELL FLUCTUATION IS ISOTROPIC
Info: PARTICLE MESH EWALD (PME) ACTIVE
Info: PME TOLERANCE               1e-06
Info: PME EWALD COEFFICIENT       0.348832
Info: PME INTERPOLATION ORDER     4
Info: PME GRID DIMENSIONS         32 32 36
Info: PME MAXIMUM GRID SPACING    1
Info: PME CALCULATION WILL BE PERFORMED ON GPU
Info: FULL ELECTROSTATIC EVALUATION FREQUENCY      2
Info: USING VERLET I (r-RESPA) MTS SCHEME.
Info: C1 SPLITTING OF LONG RANGE ELECTROSTATICS
Info: PLACING ATOMS IN PATCHES BY HYDROGEN GROUPS
Info: RIGID BONDS TO HYDROGEN : ALL
Info:         ERROR TOLERANCE : 1e-08
Info:          MAX ITERATIONS : 100
Info: RIGID WATER USING SETTLE ALGORITHM
Info: RANDOM NUMBER SEED     1743605533
Info: USE HYDROGEN BONDS?    NO
Info: Using AMBER format force field!
Info: AMBER PARM FILE        mobley_1755375.prmtop
Info: COORDINATE PDB         mobley_1755375.pdb
Info: Exclusions will be read from PARM file!
Info: SCNB (VDW SCALING)     2
Info: USING ARITHMETIC MEAN TO COMBINE L-J SIGMA PARAMETERS
Info: BINARY COORDINATES     mobley_1755375_equil.coor
Info: SUMMARY OF PARAMETERS:
Info: 8 BONDS
Info: 7 ANGLES
Info:   7 HARMONIC
Info:   0 COSINE-BASED
Info: 4 DIHEDRAL
Info: 0 IMPROPER
Info: 0 CROSSTERM
Info: 0 VDW
Info: 28 VDW_PAIRS
Info: 0 NBTHOLE_PAIRS
Info: To read alchdata from file: mobley_1755375.pdb
Info: To read alchflag data from column: 5
Info: STRUCTURE SUMMARY:
Info: 2986 ATOMS
Info: 2986 BONDS
Info: 31 ANGLES
Info: 44 DIHEDRALS
Info: 0 IMPROPERS
Info: 0 CROSSTERMS
Info: 3052 EXCLUSIONS
Info: 2977 RIGID BONDS
Info: ALCH: 0 ATOMS TO DISAPPEAR IN FINAL STATE
Info: ALCH: 19 ATOMS TO APPEAR IN FINAL STATE
Info: 5981 DEGREES OF FREEDOM
Info: 998 HYDROGEN GROUPS
Info: 4 ATOMS IN LARGEST HYDROGEN GROUP
Info: 998 MIGRATION GROUPS
Info: 4 ATOMS IN LARGEST MIGRATION GROUP
Info: TOTAL MASS = 17940 amu
Info: TOTAL CHARGE = -9.99272e-05 e
Info: MASS DENSITY = 0.96769 g/cm^3
Info: ATOM DENSITY = 0.096994 atoms/A^3
Info: ADDED 0 IMPLICIT EXCLUSIONS
Info: NONBONDED TABLE R-SQUARED SPACING: 0.0625
Info: NONBONDED TABLE SIZE: 705 POINTS
Info: REMOVING COM VELOCITY 0.0208287 0.0377727 0.141502
Info: Use 3D box decompostion in PME FFT.
Info: Updated CUDA force table with 4096 elements.
Info: Updated CUDA LJ table with 7 x 7 elements.
Info: Found 20 unique exclusion lists needing 52 bytes
TCL: Running for 1500000 steps
ETITLE: TS BOND ANGLE DIHED IMPRP ELECT VDW BOUNDARY MISC KINETIC TOTAL TEMP POTENTIAL TOTALAVG TEMPAVG PRESSURE GPRESSURE VOLUME PRESSAVG GPRESSAVG
ENERGY: 0 2.8203 6.3406 2.7610 0.0000 -10736.6587 1432.7860 0.0000 0.0000 1784.9992 -7506.9517 300.3686 -9291.9508 -7506.9517 300.3686 -92.8605 -16.4587 30785.4077 -92.8605 -16.4587
ENERGY: 300000 3.1349 7.2779 4.3340 0.0000 -10774.2211 1476.4487 0.0000 0.0000 1787.0682 -7495.9574 300.7168 -9283.0256 -7549.3469 299.4800 136.3443 157.6531 30770.7119 210.7486 254.5129
ENERGY: 600000 2.8923 5.4483 4.6886 0.0000 -10762.2299 1383.6022 0.0000 0.0000 1750.7603 -7614.8383 294.6071 -9365.5985 -7538.7025 302.0270 -884.1385 -809.6611 30721.7840 -11.9403 45.8502
ENERGY: 900000 6.8569 7.0210 5.0603 0.0000 -10670.5994 1361.1849 0.0000 0.0000 1826.1081 -7464.3682 307.2862 -9290.4763 -7534.6593 301.4537 -852.2253 -773.7077 30689.8121 -153.6961 -89.6988
ENERGY: 1200000 2.0344 7.6383 2.1217 0.0000 -10888.6985 1524.5731 0.0000 0.0000 1711.6610 -7640.6700 288.0277 -9352.3310 -7535.6185 301.4622 460.6227 476.9288 30727.2092 -13.4073 43.9580
ENERGY: 1500000 2.5749 4.7241 1.8098 0.0000 -10815.0812 1489.0096 0.0000 0.0000 1757.2209 -7559.7418 295.6943 -9316.9628 -7541.2329 300.5812 213.5528 214.6033 30718.6815 34.5032 86.2077
TCL: Running FEP window   2: Lambda1 0.05   Lambda2 0.1    [dLambda 0.05  ]
TCL: Setting parameter firsttimestep to 0
TCL: Setting parameter alchLambda to 0.05
Info: NONBONDED TABLE R-SQUARED SPACING: 0.0625
Info: NONBONDED TABLE SIZE: 705 POINTS
TCL: Setting parameter alchLambda2 to 0.1
Info: NONBONDED TABLE R-SQUARED SPACING: 0.0625
Info: NONBONDED TABLE SIZE: 705 POINTS
TCL: Running for 1500000 steps
ETITLE: TS BOND ANGLE DIHED IMPRP ELECT VDW BOUNDARY MISC KINETIC TOTAL TEMP POTENTIAL TOTALAVG TEMPAVG PRESSURE GPRESSURE VOLUME PRESSAVG GPRESSAVG
ENERGY: 0 2.5749 4.7241 1.8098 0.0000 -10815.0805 1492.3913 0.0000 0.0000 1756.3278 -7557.2525 295.5440 -9313.5803 -7557.2525 295.5440 149.2666 219.2794 30718.6815 149.2666 219.2794
ENERGY: 300000 3.4117 4.1828 3.1415 0.0000 -10858.4887 1444.2647 0.0000 0.0000 1759.3919 -7644.0961 296.0596 -9403.4880 -7617.9034 297.3777 -440.5544 -378.9291 30686.5894 -152.2366 -100.4597
ENERGY: 600000 5.1307 5.2730 2.5946 0.0000 -10622.0541 1404.1211 0.0000 0.0000 1751.0165 -7453.9181 294.6503 -9204.9347 -7575.5834 295.8387 -234.4361 -189.1404 30706.4354 -169.7771 -119.7463
ENERGY: 900000 1.6923 10.4489 3.9792 0.0000 -10911.7434 1541.8200 0.0000 0.0000 1805.3359 -7548.4671 303.7908 -9353.8030 -7550.3047 297.7910 649.3447 714.0153 30222.6413 -17.3122 36.1297
ENERGY: 1200000 3.4662 7.7247 3.8285 0.0000 -10804.8777 1456.2258 0.0000 0.0000 1778.1336 -7555.4988 299.2134 -9333.6324 -7550.9792 298.8931 -58.1742 63.1797 30855.4505 -19.6494 39.5395
ENERGY: 1500000 4.9740 5.0200 3.2610 0.0000 -10787.1276 1441.1908 0.0000 0.0000 1841.4429 -7491.2389 309.8667 -9332.6818 -7544.3531 299.7137 -496.4615 -423.5770 30737.5379 -89.0501 -31.8570
TCL: Running FEP window   3: Lambda1 0.1    Lambda2 0.15000000000000002 [dLambda 0.05000000000000002]
TCL: Setting parameter firsttimestep to 0
TCL: Setting parameter alchLambda to 0.1
Info: NONBONDED TABLE R-SQUARED SPACING: 0.0625
Info: NONBONDED TABLE SIZE: 705 POINTS
TCL: Setting parameter alchLambda2 to 0.15000000000000002
Info: NONBONDED TABLE R-SQUARED SPACING: 0.0625
Info: NONBONDED TABLE SIZE: 705 POINTS
TCL: Running for 1500000 steps
ETITLE: TS BOND ANGLE DIHED IMPRP ELECT VDW BOUNDARY MISC KINETIC TOTAL TEMP POTENTIAL TOTALAVG TEMPAVG PRESSURE GPRESSURE VOLUME PRESSAVG GPRESSAVG
ENERGY: 0 4.9740 5.0200 3.2610 0.0000 -10787.1263 1444.6513 0.0000 0.0000 1840.5430 -7488.6771 309.7152 -9329.2201 -7488.6771 309.7152 -487.2477 -409.0069 30737.5379 -487.2477 -409.0069
ENERGY: 300000 2.1773 4.2910 1.8425 0.0000 -10810.8850 1428.4522 0.0000 0.0000 1787.9282 -7586.1937 300.8615 -9374.1219 -7568.7449 302.5072 -572.6100 -538.0945 31013.1650 -372.1584 -321.0732
ENERGY: 600000 3.3118 8.5460 2.7986 0.0000 -10964.1905 1575.2532 0.0000 0.0000 1790.1197 -7584.1611 301.2303 -9374.2808 -7553.9856 303.4135 1027.0148 1072.7918 30378.7568 -102.9553 -44.2842
ENERGY: 900000 4.9162 5.7952 3.4358 0.0000 -10822.4599 1498.0690 0.0000 0.0000 1815.2170 -7495.0266 305.4535 -9310.2437 -7555.8476 302.7759 42.2048 159.5293 30972.9349 -151.0744 -97.0320
ENERGY: 1200000 3.7245 6.7821 1.6474 0.0000 -10793.2254 1440.9489 0.0000 0.0000 1746.2569 -7593.8657 293.8493 -9340.1226 -7548.9904 301.8350 -98.0071 -49.4021 30555.5050 -57.5175 -6.4676
ENERGY: 1500000 3.4101 6.3148 3.3405 0.0000 -10875.9076 1480.1282 0.0000 0.0000 1767.7191 -7614.9949 297.4609 -9382.7140 -7563.3160 300.8967 -244.6468 -182.9651 30906.9228 -41.5057 14.3079
TCL: Running FEP window   4: Lambda1 0.15000000000000002 Lambda2 0.2    [dLambda 0.04999999999999999]
TCL: Setting parameter firsttimestep to 0
TCL: Setting parameter alchLambda to 0.15000000000000002
Info: NONBONDED TABLE R-SQUARED SPACING: 0.0625
Info: NONBONDED TABLE SIZE: 705 POINTS
TCL: Setting parameter alchLambda2 to 0.2
Info: NONBONDED TABLE R-SQUARED SPACING: 0.0625
Info: NONBONDED TABLE SIZE: 705 POINTS
TCL: Running for 1500000 steps
ETITLE: TS BOND ANGLE DIHED IMPRP ELECT VDW BOUNDARY MISC KINETIC TOTAL TEMP POTENTIAL TOTALAVG TEMPAVG PRESSURE GPRESSURE VOLUME PRESSAVG GPRESSAVG
ENERGY: 0 3.4101 6.3148 3.3405 0.0000 -10875.9083 1480.5893 0.0000 0.0000 1766.8480 -7615.4056 297.3143 -9382.2536 -7615.4056 297.3143 -271.0696 -180.0285 30906.9228 -271.0696 -180.0285
ENERGY: 300000 2.2827 9.1345 2.9887 0.0000 -10785.8390 1416.7689 0.0000 0.0000 1805.2068 -7549.4575 303.7691 -9354.6643 -7545.6991 301.3312 -556.2331 -537.4988 31001.5741 -527.3893 -458.3926
ENERGY: 600000 5.8390 3.3307 3.8220 0.0000 -10826.7064 1469.4473 0.0000 0.0000 1779.4136 -7564.8537 299.4287 -9344.2673 -7541.2202 301.7983 -199.0167 -77.9884 30566.7662 -256.9274 -185.2024
ENERGY: 900000 4.1957 3.4960 2.1636 0.0000 -10750.1464 1392.6930 0.0000 0.0000 1733.0833 -7614.5148 291.6326 -9347.5981 -7545.3874 300.6811 -638.1603 -493.3047 30493.9379 -298.1945 -224.1110
ENERGY: 1200000 2.5682 9.9109 2.8191 0.0000 -10917.0234 1509.4896 0.0000 0.0000 1811.5570 -7580.6786 304.8376 -9392.2356 -7546.0204 301.3834 412.3143 453.6391 30174.2603 -208.4934 -138.7722
ENERGY: 1500000 2.4443 6.0357 3.2081 0.0000 -10750.6062 1387.3609 0.0000 0.0000 1819.7354 -7531.8218 306.2139 -9351.5572 -7536.0165 301.9707 -532.7264 -536.9594 30577.2446 -123.9868 -62.8834
TCL: Running FEP window   5: Lambda1 0.2    Lambda2 0.25   [dLambda 0.04999999999999999]
TCL: Setting parameter firsttimestep to 0
TCL: Setting parameter alchLambda to 0.2
Info: NONBONDED TABLE R-SQUARED SPACING: 0.0625
Info: NONBONDED TABLE SIZE: 705 POINTS
TCL: Setting parameter alchLambda2 to 0.25
Info: NONBONDED TABLE R-SQUARED SPACING: 0.0625
Info: NONBONDED TABLE SIZE: 705 POINTS
TCL: Running for 1500000 steps
ETITLE: TS BOND ANGLE DIHED IMPRP ELECT VDW BOUNDARY MISC KINETIC TOTAL TEMP POTENTIAL TOTALAVG TEMPAVG PRESSURE GPRESSURE VOLUME PRESSAVG GPRESSAVG
ENERGY: 0 2.4443 6.0357 3.2081 0.0000 -10750.6039 1388.8495 0.0000 0.0000 1818.8497 -7531.2166 306.0648 -9350.0663 -7531.2166 306.0648 -592.7380 -525.9218 30577.2446 -592.7380 -525.9218
ENERGY: 300000 3.5978 7.2837 5.8058 0.0000 -10894.7455 1500.0469 0.0000 0.0000 1746.8345 -7631.1767 293.9465 -9378.0112 -7597.0594 297.8839 142.7182 181.4676 30565.9736 -342.5781 -285.4962
ENERGY: 600000 1.7680 7.4485 3.8772 0.0000 -10781.1927 1457.3089 0.0000 0.0000 1838.3914 -7472.3986 309.3532 -9310.7900 -7568.9296 300.2620 -52.1581 53.3076 30852.8497 -67.2138 -6.0646
ENERGY: 900000 2.4882 9.0803 1.4428 0.0000 -10884.0013 1464.0655 0.0000 0.0000 1829.4419 -7577.4827 307.8472 -9406.9246 -7561.1026 301.1593 -22.0475 42.9603 30347.2526 -96.0754 -39.4348
ENERGY: 1200000 3.0155 7.0780 3.4200 0.0000 -10835.8902 1532.0039 0.0000 0.0000 1729.0436 -7561.3292 290.9528 -9290.3728 -7550.6813 300.2134 943.5958 1025.9788 30193.7229 -15.1710 43.6630
ENERGY: 1500000 2.3441 4.3865 1.4147 0.0000 -10963.4199 1578.3947 0.0000 0.0000 1744.5165 -7632.3633 293.5565 -9376.8798 -7564.6897 299.4532 695.7286 776.8168 30848.7880 -5.0146 52.9220
TCL: Running FEP window   6: Lambda1 0.25   Lambda2 0.3    [dLambda 0.04999999999999999]
TCL: Setting parameter firsttimestep to 0
TCL: Setting parameter alchLambda to 0.25
Info: NONBONDED TABLE R-SQUARED SPACING: 0.0625
Info: NONBONDED TABLE SIZE: 705 POINTS
TCL: Setting parameter alchLambda2 to 0.3
Info: NONBONDED TABLE R-SQUARED SPACING: 0.0625
Info: NONBONDED TABLE SIZE: 705 POINTS
TCL: Running for 1500000 steps
ETITLE: TS BOND ANGLE DIHED IMPRP ELECT VDW BOUNDARY MISC KINETIC TOTAL TEMP POTENTIAL TOTALAVG TEMPAVG PRESSURE GPRESSURE VOLUME PRESSAVG GPRESSAVG
ENERGY: 0 2.3441 4.3865 1.4147 0.0000 -10963.4212 1578.3177 0.0000 0.0000 1743.6335 -7633.3246 293.4079 -9376.9581 -7633.3246 293.4079 687.4580 778.2044 30848.7880 687.4580 778.2044
ENERGY: 300000 2.8557 8.6141 3.9803 0.0000 -10805.9303 1402.9870 0.0000 0.0000 1758.3142 -7629.1789 295.8783 -9387.4932 -7562.2423 299.4524 -170.1883 -166.8080 30414.4621 -192.2546 -135.6870
ENERGY: 600000 3.1952 7.3763 3.6713 0.0000 -10996.0150 1540.6521 0.0000 0.0000 1775.0082 -7666.1119 298.6874 -9441.1201 -7564.2277 302.0204 491.2253 520.1595 30233.1362 108.5941 150.8005
ENERGY: 900000 3.0345 7.2748 1.3808 0.0000 -10810.8548 1473.1198 0.0000 0.0000 1782.5114 -7543.5334 299.9500 -9326.0448 -7563.4097 300.2236 182.8994 201.7925 30689.1373 71.5951 121.2712
ENERGY: 1200000 1.4338 6.7202 1.7377 0.0000 -10723.1214 1459.0477 0.0000 0.0000 1806.8049 -7447.3769 304.0380 -9254.1819 -7559.2094 299.8918 -188.9875 -156.1655 31680.2790 42.8464 90.2270
ENERGY: 1500000 4.2926 4.5677 3.1680 0.0000 -10645.3319 1362.1168 0.0000 0.0000 1832.2124 -7438.9745 308.3134 -9271.1869 -7548.9735 299.8852 -682.4335 -696.8690 31189.2319 -5.5344 39.7606
TCL: Running FEP window   7: Lambda1 0.3    Lambda2 0.35   [dLambda 0.04999999999999999]
TCL: Setting parameter firsttimestep to 0
TCL: Setting parameter alchLambda to 0.3
Info: NONBONDED TABLE R-SQUARED SPACING: 0.0625
Info: NONBONDED TABLE SIZE: 705 POINTS
TCL: Setting parameter alchLambda2 to 0.35
Info: NONBONDED TABLE R-SQUARED SPACING: 0.0625
Info: NONBONDED TABLE SIZE: 705 POINTS
TCL: Running for 1500000 steps
ETITLE: TS BOND ANGLE DIHED IMPRP ELECT VDW BOUNDARY MISC KINETIC TOTAL TEMP POTENTIAL TOTALAVG TEMPAVG PRESSURE GPRESSURE VOLUME PRESSAVG GPRESSAVG
ENERGY: 0 4.2926 4.5677 3.1680 0.0000 -10645.3318 1361.6220 0.0000 0.0000 1831.3240 -7440.3576 308.1639 -9271.6816 -7440.3576 308.1639 -747.0867 -693.6378 31189.2319 -747.0867 -693.6378
ENERGY: 300000 1.8791 6.1900 2.7562 0.0000 -10884.1277 1551.8690 0.0000 0.0000 1785.8768 -7535.5564 300.5163 -9321.4333 -7514.7642 303.7406 832.2315 812.2627 30843.3628 -6.5438 26.4130
ENERGY: 600000 2.4369 9.1401 3.4649 0.0000 -10681.6005 1380.1661 0.0000 0.0000 1742.3032 -7544.0893 293.1840 -9286.3925 -7539.1885 300.5387 -612.0959 -580.1313 30861.1831 -114.8596 -69.2171
ENERGY: 900000 1.8090 11.0410 3.5395 0.0000 -10904.4231 1509.6256 0.0000 0.0000 1785.2880 -7593.1202 300.4172 -9378.4081 -7547.2323 301.0489 501.8965 534.9589 30264.1677 35.7942 84.3958
ENERGY: 1200000 5.1292 2.3820 2.6227 0.0000 -10671.2526 1398.4315 0.0000 0.0000 1800.7336 -7461.9537 303.0163 -9262.6873 -7550.1907 300.7473 -235.6179 -144.6995 30665.3601 -0.8903 49.6007
ENERGY: 1500000 2.4440 6.0339 7.2983 0.0000 -10730.5113 1387.3957 0.0000 0.0000 1778.1943 -7549.1451 299.2236 -9327.3394 -7539.4374 300.7068 -447.4392 -375.6885 30767.4142 -10.2390 44.0578
TCL: Running FEP window   8: Lambda1 0.35   Lambda2 0.39999999999999997 [dLambda 0.04999999999999999]
TCL: Setting parameter firsttimestep to 0
TCL: Setting parameter alchLambda to 0.35
Info: NONBONDED TABLE R-SQUARED SPACING: 0.0625
Info: NONBONDED TABLE SIZE: 705 POINTS
TCL: Setting parameter alchLambda2 to 0.39999999999999997
Info: NONBONDED TABLE R-SQUARED SPACING: 0.0625
Info: NONBONDED TABLE SIZE: 705 POINTS
TCL: Running for 1500000 steps
ETITLE: TS BOND ANGLE DIHED IMPRP ELECT VDW BOUNDARY MISC KINETIC TOTAL TEMP POTENTIAL TOTALAVG TEMPAVG PRESSURE GPRESSURE VOLUME PRESSAVG GPRESSAVG
ENERGY: 0 2.4440 6.0339 7.2983 0.0000 -10730.5126 1388.0459 0.0000 0.0000 1777.3187 -7549.3717 299.0762 -9326.6905 -7549.3717 299.0762 -451.4934 -369.5580 30767.4142 -451.4934 -369.5580
ENERGY: 300000 3.4906 5.0972 3.2951 0.0000 -10688.5822 1453.2198 0.0000 0.0000 1774.0614 -7449.4182 298.5281 -9223.4796 -7523.7492 301.2542 204.7191 247.8870 30890.7800 -148.8897 -101.7621
ENERGY: 600000 3.9708 6.0780 2.7068 0.0000 -10803.4209 1447.7965 0.0000 0.0000 1741.6359 -7601.2329 293.0717 -9342.8688 -7528.5418 299.6582 -33.8535 38.6524 30369.2092 -228.1353 -181.0326
ENERGY: 900000 4.9585 4.0251 2.1791 0.0000 -10735.2251 1421.4456 0.0000 0.0000 1851.8450 -7450.7718 311.6170 -9302.6168 -7534.9954 300.5437 -486.5069 -462.4390 31149.8873 -156.7139 -115.7196
ENERGY: 1200000 6.3492 7.4454 5.7597 0.0000 -10811.1546 1409.4011 0.0000 0.0000 1767.4787 -7614.7206 297.4204 -9382.1993 -7551.0490 300.1027 -430.1209 -286.2465 30276.0185 -149.4727 -94.1876
ENERGY: 1500000 1.4226 4.6013 2.7422 0.0000 -10643.4601 1400.1997 0.0000 0.0000 1744.3723 -7490.1220 293.5322 -9234.4943 -7546.0027 299.7113 -20.6862 6.0254 30759.2916 -174.1278 -120.2632
TCL: Running FEP window   9: Lambda1 0.39999999999999997 Lambda2 0.44999999999999996 [dLambda 0.04999999999999999]
TCL: Setting parameter firsttimestep to 0
TCL: Setting parameter alchLambda to 0.39999999999999997
Info: NONBONDED TABLE R-SQUARED SPACING: 0.0625
Info: NONBONDED TABLE SIZE: 705 POINTS
TCL: Setting parameter alchLambda2 to 0.44999999999999996
Info: NONBONDED TABLE R-SQUARED SPACING: 0.0625
Info: NONBONDED TABLE SIZE: 705 POINTS
TCL: Running for 1500000 steps
ETITLE: TS BOND ANGLE DIHED IMPRP ELECT VDW BOUNDARY MISC KINETIC TOTAL TEMP POTENTIAL TOTALAVG TEMPAVG PRESSURE GPRESSURE VOLUME PRESSAVG GPRESSAVG
ENERGY: 0 1.4226 4.6013 2.7422 0.0000 -10643.4637 1399.6764 0.0000 0.0000 1743.4755 -7491.5456 293.3813 -9235.0211 -7491.5456 293.3813 -65.4303 2.8073 30759.2916 -65.4303 2.8073
ENERGY: 300000 4.3452 10.3991 4.3222 0.0000 -10932.7199 1542.2597 0.0000 0.0000 1781.0030 -7590.3907 299.6962 -9371.3937 -7525.7348 299.8416 804.4573 893.4530 30130.0191 -162.4116 -84.5451
ENERGY: 600000 3.7890 6.2119 3.5081 0.0000 -10939.4070 1542.3807 0.0000 0.0000 1788.4708 -7595.0465 300.9528 -9383.5173 -7507.2640 302.5179 738.6476 802.6970 30106.6579 63.4278 123.9395
ENERGY: 900000 2.3167 8.1630 1.6217 0.0000 -10787.2013 1450.2256 0.0000 0.0000 1839.7205 -7485.1538 309.5768 -9324.8743 -7507.5111 303.1108 63.0524 170.4708 30498.9991 -22.1086 48.4048
ENERGY: 1200000 3.5848 9.2469 4.3319 0.0000 -10710.2116 1375.8021 0.0000 0.0000 1856.0998 -7461.1460 312.3330 -9317.2458 -7520.1271 302.9277 -653.0683 -577.9614 31108.6874 0.2490 69.8158
ENERGY: 1500000 2.1126 7.9766 2.7626 0.0000 -10855.2378 1455.1713 0.0000 0.0000 1817.4459 -7569.7688 305.8286 -9387.2147 -7519.5543 303.6469 -140.9561 -94.5791 30674.6393 20.2104 85.4897
TCL: Running FEP window  10: Lambda1 0.44999999999999996 Lambda2 0.49999999999999994 [dLambda 0.04999999999999999]
TCL: Setting parameter firsttimestep to 0
TCL: Setting parameter alchLambda to 0.44999999999999996
Info: NONBONDED TABLE R-SQUARED SPACING: 0.0625
Info: NONBONDED TABLE SIZE: 705 POINTS
TCL: Setting parameter alchLambda2 to 0.49999999999999994
Info: NONBONDED TABLE R-SQUARED SPACING: 0.0625
Info: NONBONDED TABLE SIZE: 705 POINTS
TCL: Running for 1500000 steps
ETITLE: TS BOND ANGLE DIHED IMPRP ELECT VDW BOUNDARY MISC KINETIC TOTAL TEMP POTENTIAL TOTALAVG TEMPAVG PRESSURE GPRESSURE VOLUME PRESSAVG GPRESSAVG
ENERGY: 0 2.1126 7.9766 2.7626 0.0000 -10855.2363 1454.8269 0.0000 0.0000 1816.5488 -7571.0089 305.6776 -9387.5577 -7571.0089 305.6776 -162.7562 -89.6347 30674.6393 -162.7562 -89.6347
ENERGY: 300000 2.2716 4.1538 3.2777 0.0000 -10894.8757 1552.3268 0.0000 0.0000 1750.6505 -7582.1953 294.5887 -9332.8458 -7552.7601 302.2023 603.8442 678.9696 30805.6493 -28.2679 29.0242
ENERGY: 600000 4.8703 5.7858 1.8586 0.0000 -10846.3851 1461.0344 0.0000 0.0000 1790.4424 -7582.3935 301.2846 -9372.8359 -7551.9701 302.6120 -143.6278 -86.7032 30581.7033 -43.2461 16.7894
ENERGY: 900000 5.0185 8.8437 4.4604 0.0000 -10868.3086 1458.5789 0.0000 0.0000 1803.0240 -7588.3831 303.4018 -9391.4071 -7550.2363 302.2734 -27.8879 -3.9488 30507.6785 50.5550 102.8106
ENERGY: 1200000 2.3866 6.7476 5.1558 0.0000 -10879.1032 1535.4231 0.0000 0.0000 1822.3626 -7507.0275 306.6559 -9329.3901 -7542.2197 302.9041 655.7682 693.9924 30632.1062 32.8674 84.7271
ENERGY: 1500000 3.1596 7.2089 0.9029 0.0000 -10849.2214 1486.1461 0.0000 0.0000 1768.0658 -7583.7382 297.5192 -9351.8040 -7541.1354 302.3197 167.6449 225.4218 30783.2365 39.5138 92.1860
TCL: Running FEP window  11: Lambda1 0.49999999999999994 Lambda2 0.5499999999999999 [dLambda 0.04999999999999999]
TCL: Setting parameter firsttimestep to 0
TCL: Setting parameter alchLambda to 0.49999999999999994
Info: NONBONDED TABLE R-SQUARED SPACING: 0.0625
Info: NONBONDED TABLE SIZE: 705 POINTS
TCL: Setting parameter alchLambda2 to 0.5499999999999999
Info: NONBONDED TABLE R-SQUARED SPACING: 0.0625
Info: NONBONDED TABLE SIZE: 705 POINTS
TCL: Running for 1500000 steps
ETITLE: TS BOND ANGLE DIHED IMPRP ELECT VDW BOUNDARY MISC KINETIC TOTAL TEMP POTENTIAL TOTALAVG TEMPAVG PRESSURE GPRESSURE VOLUME PRESSAVG GPRESSAVG
ENERGY: 0 3.1596 7.2089 0.9029 0.0000 -10849.2211 1486.8359 0.0000 0.0000 1767.1849 -7583.9290 297.3710 -9351.1139 -7583.9290 297.3710 156.5121 236.9475 30783.2365 156.5121 236.9475
ENERGY: 300000 1.9976 6.5960 4.0215 0.0000 -10769.5742 1431.3818 0.0000 0.0000 1812.3686 -7513.2086 304.9742 -9325.5773 -7531.8697 304.8836 -462.1229 -348.6411 31015.8641 -86.7257 -29.8231
ENERGY: 600000 3.3842 11.8865 1.3550 0.0000 -10897.8076 1455.3198 0.0000 0.0000 1760.6722 -7665.1898 296.2751 -9425.8621 -7560.6177 302.0094 -45.8678 9.4486 30494.0672 -42.6590 20.4991
ENERGY: 900000 1.7254 4.6470 2.0120 0.0000 -10704.2934 1383.1240 0.0000 0.0000 1729.4140 -7583.3710 291.0151 -9312.7850 -7562.7138 299.6181 -558.4688 -441.0881 30949.6395 -99.1126 -26.2057
ENERGY: 1200000 2.3726 4.5429 1.9661 0.0000 -10904.0573 1491.8015 0.0000 0.0000 1772.5800 -7630.7943 298.2788 -9403.3742 -7557.4108 300.5518 -115.9348 -39.3560 30833.2916 -151.9034 -78.9526
ENERGY: 1500000 2.6944 5.8816 1.5194 0.0000 -10874.8201 1450.7877 0.0000 0.0000 1798.1051 -7615.8318 302.5740 -9413.9369 -7572.1641 299.4184 -242.9064 -169.4632 30545.0732 -84.3058 -8.4489
TCL: Running FEP window  12: Lambda1 0.5499999999999999 Lambda2 0.6    [dLambda 0.050000000000000044]
TCL: Setting parameter firsttimestep to 0
TCL: Setting parameter alchLambda to 0.5499999999999999
Info: NONBONDED TABLE R-SQUARED SPACING: 0.0625
Info: NONBONDED TABLE SIZE: 705 POINTS
TCL: Setting parameter alchLambda2 to 0.6
Info: NONBONDED TABLE R-SQUARED SPACING: 0.0625
Info: NONBONDED TABLE SIZE: 705 POINTS
TCL: Running for 1500000 steps
ETITLE: TS BOND ANGLE DIHED IMPRP ELECT VDW BOUNDARY MISC KINETIC TOTAL TEMP POTENTIAL TOTALAVG TEMPAVG PRESSURE GPRESSURE VOLUME PRESSAVG GPRESSAVG
ENERGY: 0 2.6944 5.8816 1.5194 0.0000 -10875.1303 1451.3885 0.0000 0.0000 1797.2085 -7616.4378 302.4232 -9413.6463 -7616.4378 302.4232 -245.7387 -158.1167 30545.0732 -245.7387 -158.1167
ENERGY: 300000 1.8094 6.9523 4.6530 0.0000 -10910.1578 1495.1355 0.0000 0.0000 1783.5149 -7618.0926 300.1189 -9401.6076 -7624.4801 295.5282 365.1499 435.9821 30411.9991 -218.9966 -154.0945
ENERGY: 600000 1.7893 4.0310 4.8466 0.0000 -11030.7187 1661.4923 0.0000 0.0000 1775.4008 -7583.1586 298.7535 -9358.5594 -7603.7771 296.3279 1771.0889 1876.1587 30360.7734 -84.2044 -22.7140
ENERGY: 900000 3.0501 5.9468 3.9324 0.0000 -10859.4541 1448.3063 0.0000 0.0000 1760.8883 -7637.3303 296.3114 -9398.2186 -7590.2544 297.3834 -106.3552 -73.0052 30322.1149 87.5637 142.7347
ENERGY: 1200000 2.8230 4.8107 2.3936 0.0000 -10802.6432 1521.5409 0.0000 0.0000 1740.0518 -7531.0231 292.8052 -9271.0749 -7580.7882 297.5741 709.9954 777.0378 30746.6253 180.6929 240.7827
ENERGY: 1500000 0.6144 6.2845 3.5084 0.0000 -10684.7006 1396.0464 0.0000 0.0000 1785.7635 -7492.4833 300.4973 -9278.2469 -7580.2873 297.5015 -379.1971 -323.7454 31110.3347 99.1034 167.3434
TCL: Running FEP window  13: Lambda1 0.6    Lambda2 0.65   [dLambda 0.050000000000000044]
TCL: Setting parameter firsttimestep to 0
TCL: Setting parameter alchLambda to 0.6
Info: NONBONDED TABLE R-SQUARED SPACING: 0.0625
Info: NONBONDED TABLE SIZE: 705 POINTS
TCL: Setting parameter alchLambda2 to 0.65
Info: NONBONDED TABLE R-SQUARED SPACING: 0.0625
Info: NONBONDED TABLE SIZE: 705 POINTS
TCL: Running for 1500000 steps
ETITLE: TS BOND ANGLE DIHED IMPRP ELECT VDW BOUNDARY MISC KINETIC TOTAL TEMP POTENTIAL TOTALAVG TEMPAVG PRESSURE GPRESSURE VOLUME PRESSAVG GPRESSAVG
ENERGY: 0 0.6144 6.2845 3.5084 0.0000 -10684.6305 1396.1116 0.0000 0.0000 1784.8538 -7493.2578 300.3442 -9278.1116 -7493.2578 300.3442 -395.3348 -312.0601 31110.3347 -395.3348 -312.0601
ENERGY: 300000 2.9091 9.3909 1.0226 0.0000 -10847.1720 1440.8591 0.0000 0.0000 1774.4628 -7618.5275 298.5957 -9392.9903 -7574.3405 299.1630 -376.9662 -351.5981 30872.1471 -150.0282 -101.4921
ENERGY: 600000 1.0586 6.8077 5.1391 0.0000 -10585.5960 1341.8269 0.0000 0.0000 1811.1803 -7419.5834 304.7742 -9230.7637 -7555.6545 299.4945 -546.0007 -549.5044 30914.1963 -233.1789 -185.0257
ENERGY: 900000 5.6739 5.6924 0.9911 0.0000 -10851.9281 1480.3658 0.0000 0.0000 1725.0468 -7634.1582 290.2802 -9359.2050 -7554.2931 298.6437 301.6462 355.0947 30337.7258 -14.5595 40.4737
ENERGY: 1200000 3.9818 3.7709 2.4603 0.0000 -10816.7512 1463.8785 0.0000 0.0000 1764.5484 -7578.1114 296.9273 -9342.6598 -7550.1863 298.4488 -113.6593 -44.5485 31087.6794 -44.7631 14.5865
ENERGY: 1500000 1.4225 6.7602 3.5700 0.0000 -10817.4396 1444.4949 0.0000 0.0000 1739.6940 -7621.4980 292.7450 -9361.1920 -7554.9751 297.7281 -51.3354 -32.9846 30664.0058 -45.8823 13.0832
TCL: Running FEP window  14: Lambda1 0.65   Lambda2 0.7000000000000001 [dLambda 0.050000000000000044]
TCL: Setting parameter firsttimestep to 0
TCL: Setting parameter alchLambda to 0.65
Info: NONBONDED TABLE R-SQUARED SPACING: 0.0625
Info: NONBONDED TABLE SIZE: 705 POINTS
TCL: Setting parameter alchLambda2 to 0.7000000000000001
Info: NONBONDED TABLE R-SQUARED SPACING: 0.0625
Info: NONBONDED TABLE SIZE: 705 POINTS
TCL: Running for 1500000 steps
ETITLE: TS BOND ANGLE DIHED IMPRP ELECT VDW BOUNDARY MISC KINETIC TOTAL TEMP POTENTIAL TOTALAVG TEMPAVG PRESSURE GPRESSURE VOLUME PRESSAVG GPRESSAVG
ENERGY: 0 1.4225 6.7602 3.5700 0.0000 -10817.6626 1444.3843 0.0000 0.0000 1738.8521 -7622.6735 292.6033 -9361.5256 -7622.6735 292.6033 -95.4966 -24.3162 30664.0058 -95.4966 -24.3162
ENERGY: 300000 4.5165 3.4683 1.3556 0.0000 -10785.9550 1422.4783 0.0000 0.0000 1779.7801 -7574.3561 299.4904 -9354.1363 -7579.4772 295.1887 -434.6327 -412.8978 30835.0094 -101.3451 -29.8850
ENERGY: 600000 0.5753 7.5425 3.5541 0.0000 -10988.8728 1527.4598 0.0000 0.0000 1766.9644 -7682.7767 297.3339 -9449.7411 -7583.5009 298.1560 197.4343 326.0269 30834.9250 -227.9648 -155.2039
ENERGY: 900000 2.6956 6.0022 1.6868 0.0000 -10597.2596 1385.0909 0.0000 0.0000 1744.1134 -7457.6707 293.4886 -9201.7841 -7563.1992 298.4617 -59.6536 -62.9026 30847.4105 -199.7988 -144.2375
ENERGY: 1200000 1.5111 4.6277 4.2781 0.0000 -10828.8211 1478.3961 0.0000 0.0000 1728.9440 -7611.0641 290.9360 -9340.0081 -7564.5456 297.7630 464.2296 562.5207 30483.4598 -117.2469 -60.8851
ENERGY: 1500000 2.7865 8.0985 2.2247 0.0000 -10851.2351 1508.1715 0.0000 0.0000 1758.4873 -7571.4666 295.9074 -9329.9539 -7570.4670 298.1632 186.4912 253.6417 30957.4392 -114.1686 -57.0218
TCL: Running FEP window  15: Lambda1 0.7000000000000001 Lambda2 0.7500000000000001 [dLambda 0.050000000000000044]
TCL: Setting parameter firsttimestep to 0
TCL: Setting parameter alchLambda to 0.7000000000000001
Info: NONBONDED TABLE R-SQUARED SPACING: 0.0625
Info: NONBONDED TABLE SIZE: 705 POINTS
TCL: Setting parameter alchLambda2 to 0.7500000000000001
Info: NONBONDED TABLE R-SQUARED SPACING: 0.0625
Info: NONBONDED TABLE SIZE: 705 POINTS
TCL: Running for 1500000 steps
ETITLE: TS BOND ANGLE DIHED IMPRP ELECT VDW BOUNDARY MISC KINETIC TOTAL TEMP POTENTIAL TOTALAVG TEMPAVG PRESSURE GPRESSURE VOLUME PRESSAVG GPRESSAVG
ENERGY: 0 2.7865 8.0985 2.2247 0.0000 -10851.5921 1508.8220 0.0000 0.0000 1757.5664 -7572.0941 295.7524 -9329.6605 -7572.0941 295.7524 194.4799 267.5704 30957.4392 194.4799 267.5704
ENERGY: 300000 5.1579 4.3463 3.7756 0.0000 -10809.9423 1447.1967 0.0000 0.0000 1753.6397 -7595.8261 295.0917 -9349.4658 -7567.3958 299.1455 127.9536 126.9583 30486.6573 157.1774 225.2130
ENERGY: 600000 2.5212 7.3778 2.6979 0.0000 -10809.8301 1444.1575 0.0000 0.0000 1794.0632 -7559.0126 301.8939 -9353.0758 -7569.9313 298.9323 -194.7194 -131.4102 30703.9492 93.3229 143.5468
ENERGY: 900000 2.1500 6.0565 3.6831 0.0000 -10772.0697 1474.9794 0.0000 0.0000 1822.0986 -7463.1021 306.6115 -9285.2007 -7556.3495 301.0308 353.1125 413.0013 30765.3618 116.5238 169.9238
ENERGY: 1200000 2.6029 9.3398 1.3361 0.0000 -11003.5423 1575.7351 0.0000 0.0000 1791.5259 -7623.0025 301.4669 -9414.5284 -7559.7717 301.0307 895.2174 915.5936 30478.0019 122.6705 179.6429
ENERGY: 1500000 3.7334 5.7332 3.3065 0.0000 -10708.2549 1380.1531 0.0000 0.0000 1781.0665 -7534.2621 299.7069 -9315.3286 -7556.8979 301.2669 -916.6205 -875.6515 31358.0502 1.2437 53.8789
TCL: Running FEP window  16: Lambda1 0.7500000000000001 Lambda2 0.8000000000000002 [dLambda 0.050000000000000044]
TCL: Setting parameter firsttimestep to 0
TCL: Setting parameter alchLambda to 0.7500000000000001
Info: NONBONDED TABLE R-SQUARED SPACING: 0.0625
Info: NONBONDED TABLE SIZE: 705 POINTS
TCL: Setting parameter alchLambda2 to 0.8000000000000002
Info: NONBONDED TABLE R-SQUARED SPACING: 0.0625
Info: NONBONDED TABLE SIZE: 705 POINTS
TCL: Running for 1500000 steps
ETITLE: TS BOND ANGLE DIHED IMPRP ELECT VDW BOUNDARY MISC KINETIC TOTAL TEMP POTENTIAL TOTALAVG TEMPAVG PRESSURE GPRESSURE VOLUME PRESSAVG GPRESSAVG
ENERGY: 0 3.7334 5.7332 3.3066 0.0000 -10709.4385 1379.9582 0.0000 0.0000 1780.1990 -7536.5081 299.5609 -9316.7071 -7536.5081 299.5609 -956.7932 -871.1377 31358.0502 -956.7932 -871.1377
ENERGY: 300000 2.7199 5.5591 2.5238 0.0000 -10723.9089 1376.1928 0.0000 0.0000 1807.6803 -7529.2331 304.1853 -9336.9134 -7573.5697 300.7067 -601.7804 -531.0081 30985.6471 -405.6349 -358.7625
ENERGY: 600000 3.3153 4.4856 2.1371 0.0000 -10822.5743 1402.7070 0.0000 0.0000 1787.4568 -7622.4725 300.7822 -9409.9293 -7580.8405 298.9831 -685.8268 -590.3253 30720.3554 -426.3209 -358.4337
ENERGY: 900000 1.3058 6.0272 5.8625 0.0000 -10790.6083 1441.4204 0.0000 0.0000 1791.2178 -7544.7747 301.4151 -9335.9925 -7576.8424 299.6652 -169.7310 -94.7374 31132.5495 -305.7799 -239.7065
ENERGY: 1200000 2.8327 5.7415 4.0143 0.0000 -10890.5184 1482.4669 0.0000 0.0000 1819.9862 -7575.4767 306.2560 -9395.4628 -7570.3503 299.9956 97.7742 160.8396 30861.2683 -176.7202 -118.9633
ENERGY: 1500000 2.3499 9.1159 2.0824 0.0000 -10864.0038 1510.0001 0.0000 0.0000 1785.0261 -7555.4293 300.3732 -9340.4554 -7569.3518 300.0073 706.7887 750.4665 30459.3980 -44.7479 12.3394
TCL: Running FEP window  17: Lambda1 0.8000000000000002 Lambda2 0.8500000000000002 [dLambda 0.050000000000000044]
TCL: Setting parameter firsttimestep to 0
TCL: Setting parameter alchLambda to 0.8000000000000002
Info: NONBONDED TABLE R-SQUARED SPACING: 0.0625
Info: NONBONDED TABLE SIZE: 705 POINTS
TCL: Setting parameter alchLambda2 to 0.8500000000000002
Info: NONBONDED TABLE R-SQUARED SPACING: 0.0625
Info: NONBONDED TABLE SIZE: 705 POINTS
TCL: Running for 1500000 steps
ETITLE: TS BOND ANGLE DIHED IMPRP ELECT VDW BOUNDARY MISC KINETIC TOTAL TEMP POTENTIAL TOTALAVG TEMPAVG PRESSURE GPRESSURE VOLUME PRESSAVG GPRESSAVG
ENERGY: 0 2.3499 9.1159 2.0824 0.0000 -10864.8191 1510.7880 0.0000 0.0000 1784.1497 -7556.3333 300.2257 -9340.4829 -7556.3333 300.2257 696.4201 769.1658 30459.3980 696.4201 769.1658
ENERGY: 300000 3.3822 4.6563 2.4870 0.0000 -10732.6425 1366.0287 0.0000 0.0000 1778.5348 -7577.5534 299.2809 -9356.0882 -7557.3964 300.7450 -876.9113 -785.7572 30898.7761 -155.7235 -72.5030
ENERGY: 600000 1.2363 11.1869 2.2728 0.0000 -10931.1645 1516.5635 0.0000 0.0000 1744.4973 -7655.4078 293.5532 -9399.9050 -7583.4220 300.8816 571.2029 660.8984 30160.8424 75.4605 142.1949
ENERGY: 900000 1.0443 5.7724 2.5801 0.0000 -10899.3276 1538.4438 0.0000 0.0000 1775.8813 -7575.6058 298.8343 -9351.4871 -7577.2714 301.0220 621.0108 741.8395 30560.6968 96.1722 168.2006
ENERGY: 1200000 1.4855 6.1406 2.4181 0.0000 -10753.0264 1384.7325 0.0000 0.0000 1862.6815 -7495.5682 313.4406 -9358.2498 -7579.1667 301.7396 -686.8571 -684.8997 31237.4494 -2.9253 64.9083
ENERGY: 1500000 3.2033 6.7046 3.6433 0.0000 -10844.8486 1462.5577 0.0000 0.0000 1826.0672 -7542.6726 307.2793 -9368.7398 -7576.4128 301.6558 -123.3019 -56.7691 30912.4132 -20.0321 48.0674
TCL: Running FEP window  18: Lambda1 0.8500000000000002 Lambda2 0.9000000000000002 [dLambda 0.050000000000000044]
TCL: Setting parameter firsttimestep to 0
TCL: Setting parameter alchLambda to 0.8500000000000002
Info: NONBONDED TABLE R-SQUARED SPACING: 0.0625
Info: NONBONDED TABLE SIZE: 705 POINTS
TCL: Setting parameter alchLambda2 to 0.9000000000000002
Info: NONBONDED TABLE R-SQUARED SPACING: 0.0625
Info: NONBONDED TABLE SIZE: 705 POINTS
TCL: Running for 1500000 steps
ETITLE: TS BOND ANGLE DIHED IMPRP ELECT VDW BOUNDARY MISC KINETIC TOTAL TEMP POTENTIAL TOTALAVG TEMPAVG PRESSURE GPRESSURE VOLUME PRESSAVG GPRESSAVG
ENERGY: 0 3.2034 6.7046 3.6433 0.0000 -10846.5919 1463.4787 0.0000 0.0000 1825.1990 -7544.3630 307.1332 -9369.5620 -7544.3630 307.1332 -123.3814 -42.7861 30912.4132 -123.3814 -42.7861
ENERGY: 300000 1.8970 3.0147 2.9396 0.0000 -10748.9875 1425.2059 0.0000 0.0000 1833.6919 -7482.2384 308.5624 -9315.9303 -7527.2876 303.7724 -183.9292 -134.9945 31128.1709 -112.1290 -32.2190
ENERGY: 600000 1.3260 6.8202 1.2860 0.0000 -10869.9366 1565.4507 0.0000 0.0000 1771.6747 -7523.3790 298.1265 -9295.0537 -7543.2571 302.5899 771.7253 918.0912 31106.4141 114.1814 196.7146
ENERGY: 900000 1.4752 6.4770 4.3642 0.0000 -10897.8863 1479.9467 0.0000 0.0000 1821.4866 -7584.1366 306.5085 -9405.6232 -7548.9047 302.5656 155.8963 198.6020 30659.1046 90.7470 162.5210
ENERGY: 1200000 4.9213 4.5476 1.1931 0.0000 -10681.4801 1394.1086 0.0000 0.0000 1732.6379 -7544.0716 291.5576 -9276.7095 -7556.2455 301.0424 -510.9634 -426.4274 30953.3558 113.4846 182.3836
ENERGY: 1500000 1.7356 10.4762 1.7526 0.0000 -10731.3962 1356.1848 0.0000 0.0000 1737.6757 -7623.5713 292.4054 -9361.2470 -7567.3880 300.8467 -898.4868 -787.0572 30823.6058 112.9401 175.8814
TCL: Running FEP window  19: Lambda1 0.9000000000000002 Lambda2 0.9500000000000003 [dLambda 0.050000000000000044]
TCL: Setting parameter firsttimestep to 0
TCL: Setting parameter alchLambda to 0.9000000000000002
Info: NONBONDED TABLE R-SQUARED SPACING: 0.0625
Info: NONBONDED TABLE SIZE: 705 POINTS
TCL: Setting parameter alchLambda2 to 0.9500000000000003
Info: NONBONDED TABLE R-SQUARED SPACING: 0.0625
Info: NONBONDED TABLE SIZE: 705 POINTS
TCL: Running for 1500000 steps
ETITLE: TS BOND ANGLE DIHED IMPRP ELECT VDW BOUNDARY MISC KINETIC TOTAL TEMP POTENTIAL TOTALAVG TEMPAVG PRESSURE GPRESSURE VOLUME PRESSAVG GPRESSAVG
ENERGY: 0 1.7356 10.4762 1.7526 0.0000 -10732.6686 1356.3165 0.0000 0.0000 1736.7728 -7625.6149 292.2534 -9362.3877 -7625.6149 292.2534 -856.3753 -776.7366 30823.6058 -856.3753 -776.7366
ENERGY: 300000 3.2789 3.3195 6.2537 0.0000 -10724.4855 1360.6590 0.0000 0.0000 1811.0973 -7539.8771 304.7603 -9350.9744 -7568.1129 299.8751 -972.8479 -938.4517 31451.8215 -590.4170 -533.5104
ENERGY: 600000 3.2766 5.7057 1.9395 0.0000 -10858.1008 1488.6487 0.0000 0.0000 1756.9543 -7601.5760 295.6494 -9358.5303 -7562.1699 299.1132 241.0219 281.9939 30826.7829 -221.9435 -169.9347
ENERGY: 900000 2.5731 5.3898 1.7807 0.0000 -10782.6865 1458.1736 0.0000 0.0000 1764.9683 -7549.8010 296.9980 -9314.7693 -7573.0255 298.5823 303.2174 364.1513 30688.6847 -159.6017 -103.5674
ENERGY: 1200000 4.0271 6.6225 3.2669 0.0000 -10810.7433 1482.6256 0.0000 0.0000 1831.6935 -7482.5078 308.2261 -9314.2013 -7569.9993 299.1400 311.9764 364.8938 30850.8316 -123.2520 -69.5481
ENERGY: 1500000 2.1176 5.7286 4.3006 0.0000 -10850.8653 1456.0878 0.0000 0.0000 1791.9372 -7590.6935 301.5361 -9382.6307 -7562.7610 298.9897 250.2022 302.1167 30376.2467 -76.9090 -12.7525
TCL: Running FEP window  20: Lambda1 0.9500000000000003 Lambda2 1.0    [dLambda 0.04999999999999971]
TCL: Setting parameter firsttimestep to 0
TCL: Setting parameter alchLambda to 0.9500000000000003
Info: NONBONDED TABLE R-SQUARED SPACING: 0.0625
Info: NONBONDED TABLE SIZE: 705 POINTS
TCL: Setting parameter alchLambda2 to 1.0
Info: NONBONDED TABLE R-SQUARED SPACING: 0.0625
Info: NONBONDED TABLE SIZE: 705 POINTS
TCL: Running for 1500000 steps
ETITLE: TS BOND ANGLE DIHED IMPRP ELECT VDW BOUNDARY MISC KINETIC TOTAL TEMP POTENTIAL TOTALAVG TEMPAVG PRESSURE GPRESSURE VOLUME PRESSAVG GPRESSAVG
ENERGY: 0 2.1176 5.7286 4.3006 0.0000 -10852.5720 1455.4947 0.0000 0.0000 1791.0357 -7593.8948 301.3844 -9384.9304 -7593.8948 301.3844 221.5832 305.1626 30376.2467 221.5832 305.1626
ENERGY: 300000 3.1563 8.6555 3.7498 0.0000 -10869.2416 1524.5955 0.0000 0.0000 1811.6060 -7517.4786 304.8459 -9329.0846 -7557.5444 301.6047 461.3375 532.6872 30987.0031 291.5374 348.5084
ENERGY: 600000 3.9397 8.4820 2.8267 0.0000 -10752.6861 1486.2581 0.0000 0.0000 1763.1368 -7488.0428 296.6898 -9251.1796 -7531.1703 302.0330 305.1144 354.5727 31109.0005 118.1654 174.2233
ENERGY: 900000 6.0346 9.0526 2.0099 0.0000 -10840.5094 1501.1134 0.0000 0.0000 1820.3641 -7501.9347 306.3196 -9322.2988 -7534.5081 302.1264 287.8733 324.5687 31054.8144 115.7201 170.4798
ENERGY: 1200000 4.1409 6.4635 3.3120 0.0000 -10743.8640 1352.9078 0.0000 0.0000 1774.8158 -7602.2240 298.6550 -9377.0398 -7535.5865 301.1133 -1025.8323 -980.8187 30915.7345 78.9256 129.7299
ENERGY: 1500000 2.4634 6.1073 2.1842 0.0000 -10825.0300 1474.7750 0.0000 0.0000 1821.3825 -7518.1177 306.4910 -9339.5001 -7537.9779 301.0414 554.9343 563.7900 30690.1024 92.9977 140.9738
TCL: Exiting due to exit command.
