Info: SIMULATION PARAMETERS:
Info: TIMESTEP               2
Info: NUMBER OF STEPS        0
Info: STEPS PER CYCLE        10
Info: PERIODIC CELL BASIS 1  30.925 0 0
Info: PERIODIC CELL BASIS 2  0 31.3007 0
Info: PERIODIC CELL BASIS 3  0 0 31.7303
Info: PERIODIC CELL CENTER   0 0 0
Info: WRAPPING WATERS AROUND PERIODIC BOUNDARIES ON OUTPUT.
Info: WRAPPING ALL CLUSTERS AROUND PERIODIC BOUNDARIES ON OUTPUT.
Info: FIRST LDB TIMESTEP     50
Info: LAST LDB TIMESTEP     -1
Info: HOM BACKGROUND SCALING 1
Info: PME BACKGROUND SCALING 1
Info: MIN ATOMS PER PATCH    40
Info: EMPTY PATCH LOAD       40 ATOMS
Info: VELOCITY FILE          mobley_299266_equil.vel
Info: CENTER OF MASS MOVING INITIALLY? NO
Info: DIELECTRIC             1
Info: EXCLUDE                SCALED ONE-FOUR
Info: 1-4 ELECTROSTATICS SCALED BY 0.833333
Info: MODIFIED 1-4 VDW PARAMETERS WILL BE USED
Info: DCD FILENAME           mobley_299266_prod.dcd
Info: DCD FREQUENCY          100000
Info: DCD FIRST STEP         100000
Info: DCD FILE WILL CONTAIN UNIT CELL DATA
Info: XST FILENAME           mobley_299266_prod.xst
Info: XST FREQUENCY          100000
Info: NO VELOCITY DCD OUTPUT
Info: NO FORCE DCD OUTPUT
Info: OUTPUT FILENAME        mobley_299266_prod
Info: BINARY OUTPUT FILES WILL BE USED
Info: RESTART FILENAME       mobley_299266_prod.restart
Info: RESTART FREQUENCY      100000
Info: BINARY RESTART FILES WILL BE USED
Info: CUTOFF                 9
Info: PAIRLIST DISTANCE      11
Info: PAIRLIST SHRINK RATE   0.01
Info: PAIRLIST GROW RATE     0.01
Info: PAIRLIST TRIGGER       0.3
Info: PAIRLISTS PER CYCLE    2
Info: PAIRLISTS ENABLED
Info: MARGIN                 2
Info: HYDROGEN GROUP CUTOFF  2.5
Info: PATCH DIMENSION        15.5
Info: ENERGY OUTPUT STEPS    100000
Info: ENERGY EVALUATION STEPS    100000
Info: OUTPUT ENERGY PRECISION 4
Info: CROSSTERM ENERGY INCLUDED IN DIHEDRAL
Info: TIMING OUTPUT STEPS    1000000
Info: PRESSURE OUTPUT STEPS  100000
Info: ALCHEMICAL FEP ON
Info: FEP CURRENT LAMBDA VALUE     0
Info: FEP COMPARISON LAMBDA VALUE  0.05
Info: FEP INTRA-ALCHEMICAL NON-BONDED INTERACTIONS WILL BE RETAINED
Info: FEP INTRA-ALCHEMICAL BONDED INTERACTIONS WILL BE RETAINED
Info: FEP VDW SHIFTING COEFFICIENT 5
Info: FEP ELEC. ACTIVE FOR ANNIHILATED PARTICLES BETWEEN LAMBDA = 0 AND LAMBDA = 0.5
Info: FEP ELEC. ACTIVE FOR EXNIHILATED PARTICLES BETWEEN LAMBDA = 0.5 AND LAMBDA = 1
Info: FEP VDW ACTIVE FOR ANNIHILATED PARTICLES BETWEEN LAMBDA = 0 AND LAMBDA = 1
Info: FEP VDW ACTIVE FOR EXNIHILATED PARTICLES BETWEEN LAMBDA = 0 AND LAMBDA = 1
Info: FEP BOND ACTIVE FOR ANNIHILATED PARTICLES BETWEEN LAMBDA = 1 AND LAMBDA = 1
Info: FEP BOND ACTIVE FOR EXNIHILATED PARTICLES BETWEEN LAMBDA = 0 AND LAMBDA = 0
Info: LANGEVIN DYNAMICS ACTIVE
Info: LANGEVIN TEMPERATURE   300
Info: LANGEVIN USING BBK INTEGRATOR
Info: LANGEVIN DAMPING COEFFICIENT IS 1 INVERSE PS
Info: LANGEVIN DYNAMICS APPLIED TO HYDROGENS
Info: LANGEVIN PISTON PRESSURE CONTROL ACTIVE
Info:        TARGET PRESSURE IS 1.01325 BAR
Info:     OSCILLATION PERIOD IS 50 FS
Info:             DECAY TIME IS 25 FS
Info:     PISTON TEMPERATURE IS 300 K
Info:       PRESSURE CONTROL IS GROUP-BASED
Info:    INITIAL STRAIN RATE IS -1.68919e-05 -1.68919e-05 -1.68919e-05
Info:       CELL FLUCTUATION IS ISOTROPIC
Info: PARTICLE MESH EWALD (PME) ACTIVE
Info: PME TOLERANCE               1e-06
Info: PME EWALD COEFFICIENT       0.348832
Info: PME INTERPOLATION ORDER     4
Info: PME GRID DIMENSIONS         32 32 32
Info: PME MAXIMUM GRID SPACING    1
Info: PME CALCULATION WILL BE PERFORMED ON GPU
Info: FULL ELECTROSTATIC EVALUATION FREQUENCY      2
Info: USING VERLET I (r-RESPA) MTS SCHEME.
Info: C1 SPLITTING OF LONG RANGE ELECTROSTATICS
Info: PLACING ATOMS IN PATCHES BY HYDROGEN GROUPS
Info: RIGID BONDS TO HYDROGEN : ALL
Info:         ERROR TOLERANCE : 1e-08
Info:          MAX ITERATIONS : 100
Info: RIGID WATER USING SETTLE ALGORITHM
Info: RANDOM NUMBER SEED     1743523701
Info: USE HYDROGEN BONDS?    NO
Info: Using AMBER format force field!
Info: AMBER PARM FILE        mobley_299266.prmtop
Info: COORDINATE PDB         mobley_299266.pdb
Info: Exclusions will be read from PARM file!
Info: SCNB (VDW SCALING)     2
Info: USING ARITHMETIC MEAN TO COMBINE L-J SIGMA PARAMETERS
Info: BINARY COORDINATES     mobley_299266_equil.coor
Info: SUMMARY OF PARAMETERS:
Info: 6 BONDS
Info: 6 ANGLES
Info:   6 HARMONIC
Info:   0 COSINE-BASED
Info: 5 DIHEDRAL
Info: 0 IMPROPER
Info: 0 CROSSTERM
Info: 0 VDW
Info: 21 VDW_PAIRS
Info: 0 NBTHOLE_PAIRS
Info: To read alchdata from file: mobley_299266.pdb
Info: To read alchflag data from column: 5
Info: STRUCTURE SUMMARY:
Info: 2988 ATOMS
Info: 2987 BONDS
Info: 18 ANGLES
Info: 30 DIHEDRALS
Info: 0 IMPROPERS
Info: 0 CROSSTERMS
Info: 3021 EXCLUSIONS
Info: 2984 RIGID BONDS
Info: ALCH: 0 ATOMS TO DISAPPEAR IN FINAL STATE
Info: ALCH: 12 ATOMS TO APPEAR IN FINAL STATE
Info: 5980 DEGREES OF FREEDOM
Info: 996 HYDROGEN GROUPS
Info: 4 ATOMS IN LARGEST HYDROGEN GROUP
Info: 996 MIGRATION GROUPS
Info: 4 ATOMS IN LARGEST MIGRATION GROUP
Info: TOTAL MASS = 17928 amu
Info: TOTAL CHARGE = -0.000199981 e
Info: MASS DENSITY = 0.969288 g/cm^3
Info: ATOM DENSITY = 0.0972843 atoms/A^3
Info: ADDED 0 IMPLICIT EXCLUSIONS
Info: NONBONDED TABLE R-SQUARED SPACING: 0.0625
Info: NONBONDED TABLE SIZE: 705 POINTS
Info: REMOVING COM VELOCITY 0.121522 -0.12018 -0.0511676
Info: Use 3D box decompostion in PME FFT.
Info: Updated CUDA force table with 4096 elements.
Info: Updated CUDA LJ table with 6 x 6 elements.
Info: Found 15 unique exclusion lists needing 28 bytes
TCL: Running for 1500000 steps
ETITLE: TS BOND ANGLE DIHED IMPRP ELECT VDW BOUNDARY MISC KINETIC TOTAL TEMP POTENTIAL TOTALAVG TEMPAVG PRESSURE GPRESSURE VOLUME PRESSAVG GPRESSAVG
ENERGY: 0 0.4979 2.9948 8.0681 0.0000 -10870.1614 1513.1354 0.0000 0.0000 1789.1216 -7556.3436 301.1127 -9345.4653 -7556.3436 301.1127 373.4100 466.5118 30714.0875 373.4100 466.5118
ENERGY: 300000 0.3584 7.7218 9.7638 0.0000 -10976.1634 1493.3966 0.0000 0.0000 1799.8836 -7665.0393 302.9240 -9464.9229 -7596.8896 299.6614 129.1215 170.7897 30322.5509 255.6890 315.0189
ENERGY: 600000 0.7243 5.2530 9.5362 0.0000 -10777.3725 1399.8317 0.0000 0.0000 1780.7956 -7581.2317 299.7114 -9362.0273 -7583.5623 300.2032 -667.0939 -621.3454 31167.1853 71.3701 129.8754
ENERGY: 900000 0.0713 7.0965 8.1917 0.0000 -10662.3547 1309.5320 0.0000 0.0000 1743.0873 -7594.3759 293.3650 -9337.4632 -7581.5409 300.1617 -1239.0827 -1155.2863 30918.2371 -135.3807 -72.2952
ENERGY: 1200000 0.6926 6.0331 7.9746 0.0000 -10734.6380 1417.3323 0.0000 0.0000 1775.6053 -7527.0001 298.8379 -9302.6054 -7578.3808 299.9085 -358.9571 -304.6897 31088.2583 -96.1998 -28.5738
ENERGY: 1500000 1.4066 6.6136 9.5853 0.0000 -10853.5767 1474.3515 0.0000 0.0000 1791.8360 -7569.7836 301.5695 -9361.6196 -7574.6291 300.2306 202.1478 258.5540 30509.3770 -153.4320 -90.3365
TCL: Running FEP window   2: Lambda1 0.05   Lambda2 0.1    [dLambda 0.05  ]
TCL: Setting parameter firsttimestep to 0
TCL: Setting parameter alchLambda to 0.05
Info: NONBONDED TABLE R-SQUARED SPACING: 0.0625
Info: NONBONDED TABLE SIZE: 705 POINTS
TCL: Setting parameter alchLambda2 to 0.1
Info: NONBONDED TABLE R-SQUARED SPACING: 0.0625
Info: NONBONDED TABLE SIZE: 705 POINTS
TCL: Running for 1500000 steps
ETITLE: TS BOND ANGLE DIHED IMPRP ELECT VDW BOUNDARY MISC KINETIC TOTAL TEMP POTENTIAL TOTALAVG TEMPAVG PRESSURE GPRESSURE VOLUME PRESSAVG GPRESSAVG
ENERGY: 0 1.4066 6.6136 9.5853 0.0000 -10853.5749 1474.4437 0.0000 0.0000 1790.9732 -7570.5525 301.4243 -9361.5257 -7570.5525 301.4243 185.4480 263.1969 30509.3770 185.4480 263.1969
ENERGY: 300000 0.5863 3.4464 9.1740 0.0000 -10801.5064 1461.2700 0.0000 0.0000 1791.2912 -7535.7384 301.4778 -9327.0296 -7581.6416 299.2011 148.9340 173.5188 30521.5420 258.3300 295.5054
ENERGY: 600000 0.2360 3.4973 9.3578 0.0000 -10771.7978 1434.7747 0.0000 0.0000 1746.8431 -7577.0890 293.9971 -9323.9321 -7568.1570 299.0986 -411.4294 -365.7633 30978.3328 117.5131 159.6334
ENERGY: 900000 1.0246 6.7723 9.2938 0.0000 -10875.2260 1471.2346 0.0000 0.0000 1761.5500 -7625.3507 296.4723 -9386.9007 -7566.6865 298.4538 -19.0798 34.4872 30551.6143 119.7378 163.6372
ENERGY: 1200000 2.1118 3.5016 7.6050 0.0000 -10793.7313 1461.2094 0.0000 0.0000 1810.9354 -7508.3681 304.7840 -9319.3035 -7564.3728 299.8009 317.6585 370.8404 30390.3112 44.2425 87.3222
ENERGY: 1500000 0.4395 5.1525 11.1019 0.0000 -10752.8155 1412.6892 0.0000 0.0000 1772.9141 -7550.5182 298.3849 -9323.4323 -7562.9487 299.7977 -219.0117 -259.0978 30704.2931 43.7351 87.8339
TCL: Running FEP window   3: Lambda1 0.1    Lambda2 0.15000000000000002 [dLambda 0.05000000000000002]
TCL: Setting parameter firsttimestep to 0
TCL: Setting parameter alchLambda to 0.1
Info: NONBONDED TABLE R-SQUARED SPACING: 0.0625
Info: NONBONDED TABLE SIZE: 705 POINTS
TCL: Setting parameter alchLambda2 to 0.15000000000000002
Info: NONBONDED TABLE R-SQUARED SPACING: 0.0625
Info: NONBONDED TABLE SIZE: 705 POINTS
TCL: Running for 1500000 steps
ETITLE: TS BOND ANGLE DIHED IMPRP ELECT VDW BOUNDARY MISC KINETIC TOTAL TEMP POTENTIAL TOTALAVG TEMPAVG PRESSURE GPRESSURE VOLUME PRESSAVG GPRESSAVG
ENERGY: 0 0.4395 5.1525 11.1019 0.0000 -10752.8156 1414.6535 0.0000 0.0000 1771.9984 -7549.4697 298.2308 -9321.4681 -7549.4697 298.2308 -326.6846 -252.6633 30704.2931 -326.6846 -252.6633
ENERGY: 300000 0.4901 2.5392 7.9383 0.0000 -10770.9973 1467.2058 0.0000 0.0000 1814.2986 -7478.5253 305.3500 -9292.8239 -7562.6897 300.5729 14.5745 162.6370 30927.1692 159.2685 230.9032
ENERGY: 600000 1.2535 4.5459 8.8532 0.0000 -10700.8912 1426.9556 0.0000 0.0000 1892.2479 -7367.0350 318.4691 -9259.2829 -7534.0013 303.4947 180.9246 167.3756 30519.4959 149.1692 205.4633
ENERGY: 900000 1.6535 3.0235 7.4882 0.0000 -10818.1568 1398.4931 0.0000 0.0000 1760.9746 -7646.5240 296.3755 -9407.4986 -7552.7762 302.3365 -586.0948 -490.6565 30382.8614 105.5281 167.1498
ENERGY: 1200000 0.5145 5.5637 8.3165 0.0000 -10799.4604 1428.8935 0.0000 0.0000 1766.5433 -7589.6289 297.3127 -9356.1722 -7551.4002 302.0211 -360.9422 -314.1932 31012.3443 30.3153 83.9981
ENERGY: 1500000 1.0080 7.3743 7.7822 0.0000 -10820.9470 1467.3038 0.0000 0.0000 1740.6428 -7596.8358 292.9536 -9337.4786 -7561.5805 301.3021 349.5110 399.3570 30056.9149 47.2545 104.4902
TCL: Running FEP window   4: Lambda1 0.15000000000000002 Lambda2 0.2    [dLambda 0.04999999999999999]
TCL: Setting parameter firsttimestep to 0
TCL: Setting parameter alchLambda to 0.15000000000000002
Info: NONBONDED TABLE R-SQUARED SPACING: 0.0625
Info: NONBONDED TABLE SIZE: 705 POINTS
TCL: Setting parameter alchLambda2 to 0.2
Info: NONBONDED TABLE R-SQUARED SPACING: 0.0625
Info: NONBONDED TABLE SIZE: 705 POINTS
TCL: Running for 1500000 steps
ETITLE: TS BOND ANGLE DIHED IMPRP ELECT VDW BOUNDARY MISC KINETIC TOTAL TEMP POTENTIAL TOTALAVG TEMPAVG PRESSURE GPRESSURE VOLUME PRESSAVG GPRESSAVG
ENERGY: 0 1.0080 7.3743 7.7822 0.0000 -10820.9459 1467.7324 0.0000 0.0000 1739.7705 -7597.2785 292.8068 -9337.0490 -7597.2785 292.8068 330.5673 402.0069 30056.9149 330.5673 402.0069
ENERGY: 300000 0.7989 8.4176 7.5278 0.0000 -10739.9874 1398.3592 0.0000 0.0000 1738.8544 -7586.0296 292.6526 -9324.8839 -7590.6660 295.5445 -483.4611 -418.8223 30916.4965 199.7062 269.6876
ENERGY: 600000 1.6236 3.5591 8.2255 0.0000 -10859.0119 1493.8234 0.0000 0.0000 1745.3215 -7606.4588 293.7411 -9351.7803 -7569.6185 298.7372 278.8148 360.2161 30719.0620 325.7362 379.9790
ENERGY: 900000 2.3689 4.0191 7.4294 0.0000 -10999.2285 1602.2426 0.0000 0.0000 1739.3114 -7643.8571 292.7295 -9383.1685 -7576.4253 299.1380 1097.1995 1121.3972 30319.8326 297.0262 352.3291
ENERGY: 1200000 1.1626 2.3233 9.3690 0.0000 -10763.0651 1416.5927 0.0000 0.0000 1742.0806 -7591.5368 293.1956 -9333.6175 -7580.5912 298.5192 -345.0218 -263.0652 30809.8742 153.3951 211.8637
ENERGY: 1500000 0.2548 3.1387 9.8394 0.0000 -10960.6814 1510.6976 0.0000 0.0000 1794.2422 -7642.5086 301.9745 -9436.7508 -7580.7101 299.2280 -120.3001 -45.4825 31049.6460 89.6513 151.6126
TCL: Running FEP window   5: Lambda1 0.2    Lambda2 0.25   [dLambda 0.04999999999999999]
TCL: Setting parameter firsttimestep to 0
TCL: Setting parameter alchLambda to 0.2
Info: NONBONDED TABLE R-SQUARED SPACING: 0.0625
Info: NONBONDED TABLE SIZE: 705 POINTS
TCL: Setting parameter alchLambda2 to 0.25
Info: NONBONDED TABLE R-SQUARED SPACING: 0.0625
Info: NONBONDED TABLE SIZE: 705 POINTS
TCL: Running for 1500000 steps
ETITLE: TS BOND ANGLE DIHED IMPRP ELECT VDW BOUNDARY MISC KINETIC TOTAL TEMP POTENTIAL TOTALAVG TEMPAVG PRESSURE GPRESSURE VOLUME PRESSAVG GPRESSAVG
ENERGY: 0 0.2548 3.1387 9.8394 0.0000 -10960.6821 1511.7521 0.0000 0.0000 1793.3542 -7642.3428 301.8251 -9435.6971 -7642.3428 301.8251 -109.3354 -36.6644 31049.6460 -109.3354 -36.6644
ENERGY: 300000 0.4000 2.7482 8.3355 0.0000 -10796.4601 1437.4227 0.0000 0.0000 1760.5970 -7586.9567 296.3119 -9347.5537 -7567.8163 301.3271 -162.9521 -122.4875 30852.4193 -22.1664 30.5653
ENERGY: 600000 0.0903 3.2888 10.0937 0.0000 -10831.2213 1464.8997 0.0000 0.0000 1803.7516 -7549.0973 303.5749 -9352.8489 -7562.2488 301.8879 152.4425 175.2620 30566.4560 -53.1258 -3.9257
ENERGY: 900000 0.3485 3.7152 7.7091 0.0000 -10797.4276 1453.1867 0.0000 0.0000 1820.6235 -7511.8446 306.4145 -9332.4681 -7564.3843 302.8300 228.6433 276.5160 30449.3820 -80.1266 -24.0615
ENERGY: 1200000 0.4097 4.9304 7.6775 0.0000 -10717.5506 1370.9771 0.0000 0.0000 1734.6370 -7598.9190 291.9428 -9333.5560 -7562.5748 301.9744 -806.2325 -779.6277 31025.3808 -126.9781 -73.7950
ENERGY: 1500000 0.9527 7.4048 7.5031 0.0000 -10774.9054 1411.4694 0.0000 0.0000 1809.6246 -7537.9508 304.5634 -9347.5754 -7554.5027 302.8150 -344.1264 -247.1005 30704.8335 -59.0533 2.9489
TCL: Running FEP window   6: Lambda1 0.25   Lambda2 0.3    [dLambda 0.04999999999999999]
TCL: Setting parameter firsttimestep to 0
TCL: Setting parameter alchLambda to 0.25
Info: NONBONDED TABLE R-SQUARED SPACING: 0.0625
Info: NONBONDED TABLE SIZE: 705 POINTS
TCL: Setting parameter alchLambda2 to 0.3
Info: NONBONDED TABLE R-SQUARED SPACING: 0.0625
Info: NONBONDED TABLE SIZE: 705 POINTS
TCL: Running for 1500000 steps
ETITLE: TS BOND ANGLE DIHED IMPRP ELECT VDW BOUNDARY MISC KINETIC TOTAL TEMP POTENTIAL TOTALAVG TEMPAVG PRESSURE GPRESSURE VOLUME PRESSAVG GPRESSAVG
ENERGY: 0 0.9528 7.4048 7.5031 0.0000 -10774.9050 1411.6173 0.0000 0.0000 1808.7112 -7538.7158 304.4097 -9347.4271 -7538.7158 304.4097 -329.8886 -245.1238 30704.8335 -329.8886 -245.1238
ENERGY: 300000 1.2316 1.8805 8.4038 0.0000 -10904.1549 1453.8461 0.0000 0.0000 1750.6444 -7688.1485 294.6369 -9438.7928 -7604.9044 298.1421 -362.9916 -318.9834 30640.4588 -313.5511 -244.7459
ENERGY: 600000 1.3326 6.4572 10.4023 0.0000 -10804.3847 1389.4901 0.0000 0.0000 1809.9295 -7586.7729 304.6147 -9396.7024 -7583.4821 300.7445 -796.5213 -684.8113 30562.0685 -268.2232 -196.0689
ENERGY: 900000 0.5703 3.1799 10.5758 0.0000 -10780.5539 1421.2013 0.0000 0.0000 1822.0556 -7522.9710 306.6555 -9345.0266 -7569.2721 301.7099 -295.1506 -277.7998 30634.3312 -195.4328 -130.3441
ENERGY: 1200000 0.4206 2.5672 8.3389 0.0000 -10916.1857 1534.3610 0.0000 0.0000 1805.2930 -7565.2052 303.8344 -9370.4982 -7569.1762 301.9093 684.3974 746.6386 30373.4144 -57.6736 6.5085
ENERGY: 1500000 2.5250 6.2429 9.0327 0.0000 -10828.9815 1455.0585 0.0000 0.0000 1709.9726 -7646.1497 287.7918 -9356.1224 -7577.3540 301.3696 -51.9827 -33.5416 30436.0802 -12.8304 46.4058
TCL: Running FEP window   7: Lambda1 0.3    Lambda2 0.35   [dLambda 0.04999999999999999]
TCL: Setting parameter firsttimestep to 0
TCL: Setting parameter alchLambda to 0.3
Info: NONBONDED TABLE R-SQUARED SPACING: 0.0625
Info: NONBONDED TABLE SIZE: 705 POINTS
TCL: Setting parameter alchLambda2 to 0.35
Info: NONBONDED TABLE R-SQUARED SPACING: 0.0625
Info: NONBONDED TABLE SIZE: 705 POINTS
TCL: Running for 1500000 steps
ETITLE: TS BOND ANGLE DIHED IMPRP ELECT VDW BOUNDARY MISC KINETIC TOTAL TEMP POTENTIAL TOTALAVG TEMPAVG PRESSURE GPRESSURE VOLUME PRESSAVG GPRESSAVG
ENERGY: 0 2.5250 6.2429 9.0327 0.0000 -10828.9816 1455.5807 0.0000 0.0000 1709.0686 -7646.5317 287.6396 -9355.6003 -7646.5317 287.6396 -94.9284 -27.3253 30436.0802 -94.9284 -27.3253
ENERGY: 300000 0.5112 3.1180 7.9523 0.0000 -10764.7830 1482.0517 0.0000 0.0000 1767.4838 -7503.6661 297.4710 -9271.1498 -7609.2312 293.4394 289.2446 359.9535 30986.8860 176.8291 242.7003
ENERGY: 600000 2.2046 3.5461 10.3136 0.0000 -10801.6097 1436.2885 0.0000 0.0000 1839.4625 -7509.7943 309.5852 -9349.2568 -7591.8549 297.4112 -315.7262 -288.1566 31182.2890 131.5249 187.5314
ENERGY: 900000 0.4536 5.3015 8.6536 0.0000 -10858.2844 1455.9333 0.0000 0.0000 1784.3260 -7603.6164 300.3056 -9387.9424 -7606.2293 297.3802 -347.6756 -220.4309 31086.6219 -99.0337 -33.4377
ENERGY: 1200000 1.9714 2.9088 8.4126 0.0000 -10745.7648 1445.1575 0.0000 0.0000 1790.3605 -7496.9539 301.3212 -9287.3144 -7589.6178 298.1085 -20.9132 40.2220 31053.3574 -136.1281 -72.1154
ENERGY: 1500000 1.0299 3.5817 9.2186 0.0000 -10982.6700 1551.6109 0.0000 0.0000 1853.2874 -7563.9416 311.9119 -9417.2290 -7586.5152 299.0097 664.0032 704.1993 30474.0737 -82.6139 -16.7876
TCL: Running FEP window   8: Lambda1 0.35   Lambda2 0.39999999999999997 [dLambda 0.04999999999999999]
TCL: Setting parameter firsttimestep to 0
TCL: Setting parameter alchLambda to 0.35
Info: NONBONDED TABLE R-SQUARED SPACING: 0.0625
Info: NONBONDED TABLE SIZE: 705 POINTS
TCL: Setting parameter alchLambda2 to 0.39999999999999997
Info: NONBONDED TABLE R-SQUARED SPACING: 0.0625
Info: NONBONDED TABLE SIZE: 705 POINTS
TCL: Running for 1500000 steps
ETITLE: TS BOND ANGLE DIHED IMPRP ELECT VDW BOUNDARY MISC KINETIC TOTAL TEMP POTENTIAL TOTALAVG TEMPAVG PRESSURE GPRESSURE VOLUME PRESSAVG GPRESSAVG
ENERGY: 0 1.0299 3.5817 9.2186 0.0000 -10982.6690 1551.4886 0.0000 0.0000 1852.3980 -7564.9522 311.7622 -9417.3502 -7564.9522 311.7622 616.3333 708.2905 30474.0737 616.3333 708.2905
ENERGY: 300000 0.8098 5.1650 8.4943 0.0000 -10771.5663 1421.7449 0.0000 0.0000 1802.6904 -7532.6619 303.3963 -9335.3523 -7573.8074 304.3500 -241.4055 -210.4336 30564.1694 105.7551 174.5733
ENERGY: 600000 1.8730 5.0191 7.7225 0.0000 -10989.3886 1550.2206 0.0000 0.0000 1721.6631 -7702.8904 289.7593 -9424.5535 -7590.4514 301.2204 567.4937 617.2716 30465.4597 111.2216 175.9509
ENERGY: 900000 2.1360 3.4855 8.3536 0.0000 -10822.0184 1439.5968 0.0000 0.0000 1785.3670 -7583.0795 300.4808 -9368.4465 -7591.7600 301.8316 -217.6031 -175.0771 30757.8559 110.2405 170.5715
ENERGY: 1200000 0.0842 2.5499 9.7508 0.0000 -10760.9775 1426.0488 0.0000 0.0000 1786.0837 -7536.4600 300.6014 -9322.5437 -7586.7363 301.0963 -397.8044 -339.2204 31222.3525 98.0365 154.0766
ENERGY: 1500000 0.6814 4.7455 9.2430 0.0000 -10917.0697 1550.6993 0.0000 0.0000 1830.2285 -7521.4719 308.0311 -9351.7004 -7588.4967 301.4805 700.6597 741.8956 30628.5301 168.4598 226.2414
TCL: Running FEP window   9: Lambda1 0.39999999999999997 Lambda2 0.44999999999999996 [dLambda 0.04999999999999999]
TCL: Setting parameter firsttimestep to 0
TCL: Setting parameter alchLambda to 0.39999999999999997
Info: NONBONDED TABLE R-SQUARED SPACING: 0.0625
Info: NONBONDED TABLE SIZE: 705 POINTS
TCL: Setting parameter alchLambda2 to 0.44999999999999996
Info: NONBONDED TABLE R-SQUARED SPACING: 0.0625
Info: NONBONDED TABLE SIZE: 705 POINTS
TCL: Running for 1500000 steps
ETITLE: TS BOND ANGLE DIHED IMPRP ELECT VDW BOUNDARY MISC KINETIC TOTAL TEMP POTENTIAL TOTALAVG TEMPAVG PRESSURE GPRESSURE VOLUME PRESSAVG GPRESSAVG
ENERGY: 0 0.6814 4.7455 9.2430 0.0000 -10917.0712 1550.7674 0.0000 0.0000 1829.3570 -7522.2768 307.8844 -9351.6338 -7522.2768 307.8844 657.1666 744.0505 30628.5301 657.1666 744.0505
ENERGY: 300000 2.0765 3.7599 8.6546 0.0000 -10744.0173 1371.3194 0.0000 0.0000 1840.0081 -7518.1988 309.6770 -9358.2069 -7566.9811 303.4125 -438.2475 -405.2174 30432.8824 220.3123 305.4735
ENERGY: 600000 2.5165 2.6773 7.9695 0.0000 -10873.2073 1456.5836 0.0000 0.0000 1796.1597 -7607.3007 302.2972 -9403.4604 -7562.9602 303.0779 84.7929 129.1667 30430.3052 265.7098 330.9920
ENERGY: 900000 0.8164 3.4197 9.8551 0.0000 -10883.3833 1527.5572 0.0000 0.0000 1831.5176 -7510.2173 308.2480 -9341.7350 -7554.8502 303.0537 810.1759 899.4711 30414.1668 258.2453 310.5669
ENERGY: 1200000 0.7587 4.2789 9.0844 0.0000 -10824.6095 1433.2013 0.0000 0.0000 1800.6658 -7576.6205 303.0556 -9377.2862 -7562.0519 302.7259 -206.0827 -66.7429 30758.5181 168.8703 225.7954
ENERGY: 1500000 0.7599 6.6404 7.7057 0.0000 -10717.8461 1447.9923 0.0000 0.0000 1792.2069 -7462.5410 301.6319 -9254.7479 -7559.6184 302.6354 -87.6420 -23.2515 31325.2953 242.7949 298.6083
TCL: Running FEP window  10: Lambda1 0.44999999999999996 Lambda2 0.49999999999999994 [dLambda 0.04999999999999999]
TCL: Setting parameter firsttimestep to 0
TCL: Setting parameter alchLambda to 0.44999999999999996
Info: NONBONDED TABLE R-SQUARED SPACING: 0.0625
Info: NONBONDED TABLE SIZE: 705 POINTS
TCL: Setting parameter alchLambda2 to 0.49999999999999994
Info: NONBONDED TABLE R-SQUARED SPACING: 0.0625
Info: NONBONDED TABLE SIZE: 705 POINTS
TCL: Running for 1500000 steps
ETITLE: TS BOND ANGLE DIHED IMPRP ELECT VDW BOUNDARY MISC KINETIC TOTAL TEMP POTENTIAL TOTALAVG TEMPAVG PRESSURE GPRESSURE VOLUME PRESSAVG GPRESSAVG
ENERGY: 0 0.7599 6.6404 7.7057 0.0000 -10717.8469 1447.8298 0.0000 0.0000 1791.3078 -7463.6034 301.4806 -9254.9112 -7463.6034 301.4806 -97.8795 -20.4763 31325.2953 -97.8795 -20.4763
ENERGY: 300000 1.6407 5.1790 7.1348 0.0000 -10893.4599 1497.3403 0.0000 0.0000 1763.5073 -7618.6578 296.8018 -9382.1651 -7547.1683 301.2604 362.8837 411.2905 30429.0969 385.6863 430.2062
ENERGY: 600000 0.6700 3.6862 9.8434 0.0000 -10934.1104 1474.1723 0.0000 0.0000 1780.3370 -7665.4015 299.6342 -9445.7384 -7591.0342 298.2373 -128.8480 -100.0601 30702.7046 176.6068 212.5109
ENERGY: 900000 0.0418 2.4659 9.4584 0.0000 -10698.6462 1349.1337 0.0000 0.0000 1795.9900 -7541.5564 302.2686 -9337.5464 -7584.0086 299.3736 -677.9588 -661.3163 30725.6917 -9.4032 17.2669
ENERGY: 1200000 0.1936 6.1104 8.0035 0.0000 -10913.0307 1542.8030 0.0000 0.0000 1819.0058 -7536.9145 306.1423 -9355.9202 -7586.7080 299.8455 696.6791 797.9131 30696.9821 7.9153 45.2675
ENERGY: 1500000 1.2841 4.1165 9.3722 0.0000 -10824.6139 1479.1825 0.0000 0.0000 1779.9105 -7550.7481 299.5625 -9330.6587 -7579.4172 300.0554 98.0401 133.9054 31164.1520 25.9073 66.4159
TCL: Running FEP window  11: Lambda1 0.49999999999999994 Lambda2 0.5499999999999999 [dLambda 0.04999999999999999]
TCL: Setting parameter firsttimestep to 0
TCL: Setting parameter alchLambda to 0.49999999999999994
Info: NONBONDED TABLE R-SQUARED SPACING: 0.0625
Info: NONBONDED TABLE SIZE: 705 POINTS
TCL: Setting parameter alchLambda2 to 0.5499999999999999
Info: NONBONDED TABLE R-SQUARED SPACING: 0.0625
Info: NONBONDED TABLE SIZE: 705 POINTS
TCL: Running for 1500000 steps
ETITLE: TS BOND ANGLE DIHED IMPRP ELECT VDW BOUNDARY MISC KINETIC TOTAL TEMP POTENTIAL TOTALAVG TEMPAVG PRESSURE GPRESSURE VOLUME PRESSAVG GPRESSAVG
ENERGY: 0 1.2841 4.1165 9.3722 0.0000 -10824.6145 1480.2832 0.0000 0.0000 1779.0060 -7550.5526 299.4102 -9329.5586 -7550.5526 299.4102 80.9818 147.6936 31164.1520 80.9818 147.6936
ENERGY: 300000 2.9647 4.0887 7.0823 0.0000 -10790.2489 1436.0481 0.0000 0.0000 1806.6078 -7533.4572 304.0557 -9340.0650 -7567.1643 304.5753 8.3490 116.5710 30669.8050 -101.6541 -29.2883
ENERGY: 600000 0.6427 4.1295 8.1254 0.0000 -10767.0774 1424.3626 0.0000 0.0000 1812.4915 -7517.3256 305.0459 -9329.8171 -7554.9972 303.1912 -394.9511 -277.7442 31096.8295 -96.0258 -34.0670
ENERGY: 900000 1.8959 4.6276 7.2813 0.0000 -10844.1329 1487.6693 0.0000 0.0000 1734.2723 -7608.3865 291.8814 -9342.6587 -7575.5180 301.5575 623.6883 653.4313 30387.6665 -98.2947 -35.9324
ENERGY: 1200000 0.0598 5.0769 10.0616 0.0000 -10773.5323 1438.2894 0.0000 0.0000 1792.1540 -7527.8907 301.6230 -9320.0446 -7577.4960 300.4193 163.3853 179.4718 30266.1474 -61.4235 0.0215
ENERGY: 1500000 1.4921 2.9701 7.6472 0.0000 -10843.2035 1514.0042 0.0000 0.0000 1805.1847 -7511.9051 303.8161 -9317.0898 -7566.6990 301.5730 371.3088 439.8747 31263.3854 -87.2402 -24.5748
TCL: Running FEP window  12: Lambda1 0.5499999999999999 Lambda2 0.6    [dLambda 0.050000000000000044]
TCL: Setting parameter firsttimestep to 0
TCL: Setting parameter alchLambda to 0.5499999999999999
Info: NONBONDED TABLE R-SQUARED SPACING: 0.0625
Info: NONBONDED TABLE SIZE: 705 POINTS
TCL: Setting parameter alchLambda2 to 0.6
Info: NONBONDED TABLE R-SQUARED SPACING: 0.0625
Info: NONBONDED TABLE SIZE: 705 POINTS
TCL: Running for 1500000 steps
ETITLE: TS BOND ANGLE DIHED IMPRP ELECT VDW BOUNDARY MISC KINETIC TOTAL TEMP POTENTIAL TOTALAVG TEMPAVG PRESSURE GPRESSURE VOLUME PRESSAVG GPRESSAVG
ENERGY: 0 1.4921 2.9701 7.6472 0.0000 -10843.3763 1513.9470 0.0000 0.0000 1804.3035 -7513.0164 303.6678 -9317.3198 -7513.0164 303.6678 365.2462 444.1096 31263.3854 365.2462 444.1096
ENERGY: 300000 1.0206 2.2732 8.0893 0.0000 -10680.4869 1310.3193 0.0000 0.0000 1772.1206 -7586.6639 298.2514 -9358.7845 -7546.9852 297.7273 -1276.6528 -1176.7430 31058.8989 -516.0831 -459.6883
ENERGY: 600000 0.5141 5.1880 7.6868 0.0000 -10846.4596 1405.5427 0.0000 0.0000 1792.0414 -7635.4867 301.6041 -9427.5280 -7582.1769 299.1514 -534.5281 -456.8249 30799.2693 -203.2774 -137.0471
ENERGY: 900000 0.0997 4.1369 7.1480 0.0000 -10692.2951 1357.7460 0.0000 0.0000 1776.2673 -7546.8972 298.9493 -9323.1645 -7573.0421 299.7212 -518.1213 -507.8730 30879.7060 -210.6979 -146.4444
ENERGY: 1200000 0.3769 5.2005 8.7153 0.0000 -10927.7924 1518.8400 0.0000 0.0000 1833.4080 -7561.2518 308.5662 -9394.6597 -7566.7624 300.6580 442.2985 508.2016 30504.7274 -43.6224 24.2985
ENERGY: 1500000 0.9698 4.0710 8.4310 0.0000 -10785.4513 1472.5348 0.0000 0.0000 1687.1891 -7612.2556 283.9573 -9299.4447 -7569.2344 299.9609 375.8423 360.4475 30706.5068 -56.8124 6.6823
TCL: Running FEP window  13: Lambda1 0.6    Lambda2 0.65   [dLambda 0.050000000000000044]
TCL: Setting parameter firsttimestep to 0
TCL: Setting parameter alchLambda to 0.6
Info: NONBONDED TABLE R-SQUARED SPACING: 0.0625
Info: NONBONDED TABLE SIZE: 705 POINTS
TCL: Setting parameter alchLambda2 to 0.65
Info: NONBONDED TABLE R-SQUARED SPACING: 0.0625
Info: NONBONDED TABLE SIZE: 705 POINTS
TCL: Running for 1500000 steps
ETITLE: TS BOND ANGLE DIHED IMPRP ELECT VDW BOUNDARY MISC KINETIC TOTAL TEMP POTENTIAL TOTALAVG TEMPAVG PRESSURE GPRESSURE VOLUME PRESSAVG GPRESSAVG
ENERGY: 0 0.9698 4.0710 8.4310 0.0000 -10785.4421 1472.6363 0.0000 0.0000 1686.3248 -7613.0092 283.8118 -9299.3340 -7613.0092 283.8118 287.0829 362.1048 30706.5068 287.0829 362.1048
ENERGY: 300000 0.6990 3.1050 8.5112 0.0000 -10919.5164 1457.7474 0.0000 0.0000 1817.2210 -7632.2329 305.8419 -9449.4539 -7597.8065 298.1150 -283.2860 -200.8925 30453.4437 -13.0578 33.0148
ENERGY: 600000 0.4566 2.5481 8.3023 0.0000 -10893.0444 1497.5211 0.0000 0.0000 1803.4911 -7580.7252 303.5311 -9384.2163 -7572.2884 300.9360 292.1446 389.2279 30564.0748 42.8177 100.5326
ENERGY: 900000 0.6280 5.7887 7.1744 0.0000 -10757.9354 1386.6795 0.0000 0.0000 1778.5603 -7579.1045 299.3352 -9357.6648 -7576.1361 300.7828 -663.0106 -560.3939 31008.9158 25.4552 88.2879
ENERGY: 1200000 3.0560 3.5635 7.5647 0.0000 -10670.6134 1303.6781 0.0000 0.0000 1739.6311 -7613.1201 292.7833 -9352.7512 -7580.6330 299.7284 -1195.0524 -1146.1890 30522.1530 -78.7167 -26.0592
ENERGY: 1500000 1.0125 3.1042 10.1447 0.0000 -10903.2426 1505.1463 0.0000 0.0000 1743.7958 -7640.0391 293.4843 -9383.8349 -7591.6111 299.0843 284.9022 312.1327 30539.3499 -73.4295 -17.0288
TCL: Running FEP window  14: Lambda1 0.65   Lambda2 0.7000000000000001 [dLambda 0.050000000000000044]
TCL: Setting parameter firsttimestep to 0
TCL: Setting parameter alchLambda to 0.65
Info: NONBONDED TABLE R-SQUARED SPACING: 0.0625
Info: NONBONDED TABLE SIZE: 705 POINTS
TCL: Setting parameter alchLambda2 to 0.7000000000000001
Info: NONBONDED TABLE R-SQUARED SPACING: 0.0625
Info: NONBONDED TABLE SIZE: 705 POINTS
TCL: Running for 1500000 steps
ETITLE: TS BOND ANGLE DIHED IMPRP ELECT VDW BOUNDARY MISC KINETIC TOTAL TEMP POTENTIAL TOTALAVG TEMPAVG PRESSURE GPRESSURE VOLUME PRESSAVG GPRESSAVG
ENERGY: 0 1.0125 3.1042 10.1447 0.0000 -10903.3693 1504.7719 0.0000 0.0000 1742.8917 -7641.4442 293.3321 -9384.3359 -7641.4442 293.3321 230.2976 312.7282 30539.3499 230.2976 312.7282
ENERGY: 300000 0.9876 4.7991 7.6590 0.0000 -10849.5126 1492.3166 0.0000 0.0000 1775.2924 -7568.4579 298.7852 -9343.7503 -7596.5456 297.4522 327.0113 342.0464 30823.3703 63.0244 126.7751
ENERGY: 600000 1.4101 3.8205 8.1516 0.0000 -11042.7795 1565.6585 0.0000 0.0000 1820.0517 -7643.6870 306.3183 -9463.7388 -7610.3222 299.9461 664.7213 681.4641 30280.3225 233.2747 277.2844
ENERGY: 900000 0.0615 2.4634 8.2556 0.0000 -10747.2215 1406.6409 0.0000 0.0000 1842.2445 -7487.5557 310.0534 -9329.8001 -7592.9100 300.2928 -177.1111 -83.6746 30602.1406 119.8283 182.0871
ENERGY: 1200000 0.2515 4.2271 8.7508 0.0000 -10927.6558 1475.8324 0.0000 0.0000 1798.8402 -7639.7537 302.7484 -9438.5939 -7603.3100 300.3635 196.2849 230.5384 30506.4709 86.0254 150.8198
ENERGY: 1500000 0.3438 3.3787 8.2450 0.0000 -10841.7948 1457.6894 0.0000 0.0000 1770.9617 -7601.1763 298.0563 -9372.1380 -7604.1429 299.9068 -120.1017 -9.6090 30758.9349 89.8441 158.0988
TCL: Running FEP window  15: Lambda1 0.7000000000000001 Lambda2 0.7500000000000001 [dLambda 0.050000000000000044]
TCL: Setting parameter firsttimestep to 0
TCL: Setting parameter alchLambda to 0.7000000000000001
Info: NONBONDED TABLE R-SQUARED SPACING: 0.0625
Info: NONBONDED TABLE SIZE: 705 POINTS
TCL: Setting parameter alchLambda2 to 0.7500000000000001
Info: NONBONDED TABLE R-SQUARED SPACING: 0.0625
Info: NONBONDED TABLE SIZE: 705 POINTS
TCL: Running for 1500000 steps
ETITLE: TS BOND ANGLE DIHED IMPRP ELECT VDW BOUNDARY MISC KINETIC TOTAL TEMP POTENTIAL TOTALAVG TEMPAVG PRESSURE GPRESSURE VOLUME PRESSAVG GPRESSAVG
ENERGY: 0 0.3438 3.3787 8.2450 0.0000 -10842.1008 1457.5443 0.0000 0.0000 1770.0526 -7602.5364 297.9033 -9372.5890 -7602.5364 297.9033 -79.2846 -5.5128 30758.9349 -79.2846 -5.5128
ENERGY: 300000 0.5755 2.4867 9.4162 0.0000 -10654.0535 1353.8537 0.0000 0.0000 1778.4285 -7509.2928 299.3130 -9287.7214 -7594.0507 299.3049 -794.0426 -738.9216 31439.6171 -420.4578 -357.8877
ENERGY: 600000 1.7540 3.5867 8.4119 0.0000 -10840.8143 1449.9052 0.0000 0.0000 1740.8138 -7636.3427 292.9824 -9377.1566 -7595.9849 297.8958 203.2830 217.7974 30583.5765 -401.3281 -346.2294
ENERGY: 900000 1.4163 3.3634 11.0527 0.0000 -10813.2010 1423.9303 0.0000 0.0000 1820.3937 -7553.0446 306.3759 -9373.4383 -7592.8405 298.3149 -267.5267 -247.2478 30637.8746 -347.2114 -304.1571
ENERGY: 1200000 1.4985 3.8307 7.5492 0.0000 -10822.4960 1452.2927 0.0000 0.0000 1750.8282 -7606.4966 294.6678 -9357.3249 -7579.4868 298.8316 14.7151 88.6098 30631.1701 -227.9127 -175.7940
ENERGY: 1500000 0.2550 5.8032 7.5728 0.0000 -10890.7023 1446.4939 0.0000 0.0000 1762.4581 -7668.1193 296.6252 -9430.5774 -7590.0671 298.3822 -321.0881 -233.9350 30806.2553 -179.0666 -124.4385
TCL: Running FEP window  16: Lambda1 0.7500000000000001 Lambda2 0.8000000000000002 [dLambda 0.050000000000000044]
TCL: Setting parameter firsttimestep to 0
TCL: Setting parameter alchLambda to 0.7500000000000001
Info: NONBONDED TABLE R-SQUARED SPACING: 0.0625
Info: NONBONDED TABLE SIZE: 705 POINTS
TCL: Setting parameter alchLambda2 to 0.8000000000000002
Info: NONBONDED TABLE R-SQUARED SPACING: 0.0625
Info: NONBONDED TABLE SIZE: 705 POINTS
TCL: Running for 1500000 steps
ETITLE: TS BOND ANGLE DIHED IMPRP ELECT VDW BOUNDARY MISC KINETIC TOTAL TEMP POTENTIAL TOTALAVG TEMPAVG PRESSURE GPRESSURE VOLUME PRESSAVG GPRESSAVG
ENERGY: 0 0.2550 5.8032 7.5728 0.0000 -10890.8137 1446.4356 0.0000 0.0000 1761.5917 -7669.1554 296.4793 -9430.7471 -7669.1554 296.4793 -316.2342 -227.2344 30806.2553 -316.2342 -227.2344
ENERGY: 300000 0.2328 3.3856 7.4730 0.0000 -10652.0079 1386.6648 0.0000 0.0000 1753.6327 -7500.6190 295.1398 -9254.2517 -7576.1272 299.1805 -250.8502 -243.6964 31066.3807 -65.0622 -12.2964
ENERGY: 600000 0.3184 3.8595 7.6635 0.0000 -10888.9088 1419.1620 0.0000 0.0000 1774.4089 -7683.4965 298.6365 -9457.9054 -7617.1777 298.4782 -520.3524 -425.6686 30751.7689 -178.1124 -115.5399
ENERGY: 900000 0.7233 4.5441 10.6859 0.0000 -10736.3549 1395.2222 0.0000 0.0000 1789.5857 -7535.5936 301.1908 -9325.1793 -7598.7723 298.7845 -181.2780 -142.4157 30445.5023 -202.0120 -148.4740
ENERGY: 1200000 1.4450 6.6274 8.1938 0.0000 -10935.9791 1560.9565 0.0000 0.0000 1766.0284 -7592.7282 297.2261 -9358.7565 -7603.3283 299.5146 425.3982 497.4737 31382.0997 -71.2815 -16.1314
ENERGY: 1500000 1.1732 6.0829 7.9237 0.0000 -10810.6556 1523.4128 0.0000 0.0000 1766.9414 -7505.1215 297.3797 -9272.0630 -7589.8969 299.5856 613.9175 686.6722 30989.8689 3.0640 60.4842
TCL: Running FEP window  17: Lambda1 0.8000000000000002 Lambda2 0.8500000000000002 [dLambda 0.050000000000000044]
TCL: Setting parameter firsttimestep to 0
TCL: Setting parameter alchLambda to 0.8000000000000002
Info: NONBONDED TABLE R-SQUARED SPACING: 0.0625
Info: NONBONDED TABLE SIZE: 705 POINTS
TCL: Setting parameter alchLambda2 to 0.8500000000000002
Info: NONBONDED TABLE R-SQUARED SPACING: 0.0625
Info: NONBONDED TABLE SIZE: 705 POINTS
TCL: Running for 1500000 steps
ETITLE: TS BOND ANGLE DIHED IMPRP ELECT VDW BOUNDARY MISC KINETIC TOTAL TEMP POTENTIAL TOTALAVG TEMPAVG PRESSURE GPRESSURE VOLUME PRESSAVG GPRESSAVG
ENERGY: 0 1.1732 6.0829 7.9237 0.0000 -10810.6395 1523.1032 0.0000 0.0000 1766.0634 -7506.2930 297.2320 -9272.3564 -7506.2930 297.2320 616.1297 692.0261 30989.8689 616.1297 692.0261
ENERGY: 300000 1.4425 4.3421 8.7217 0.0000 -10825.7407 1417.2189 0.0000 0.0000 1729.7900 -7664.2255 291.1271 -9394.0154 -7559.6660 300.3911 -634.2537 -483.0901 30959.5138 -18.4801 54.7942
ENERGY: 600000 0.9677 2.6479 7.3726 0.0000 -10702.6650 1371.6964 0.0000 0.0000 1785.1731 -7534.8073 300.4482 -9319.9804 -7587.6762 298.0451 -663.1428 -613.6832 31368.4457 -133.8954 -78.0296
ENERGY: 900000 0.6969 5.3300 7.4243 0.0000 -10720.6311 1365.3357 0.0000 0.0000 1711.2656 -7630.5786 288.0094 -9341.8442 -7596.5102 296.6845 -656.7342 -592.3076 30848.6531 -299.5393 -238.3071
ENERGY: 1200000 1.6304 3.1849 8.1130 0.0000 -10849.4888 1431.1500 0.0000 0.0000 1736.5230 -7668.8873 292.2602 -9405.4104 -7597.3452 296.9194 -210.6366 -160.0012 30494.1067 -304.3544 -239.7981
ENERGY: 1500000 0.1538 2.5918 7.8070 0.0000 -10895.5506 1534.5009 0.0000 0.0000 1761.1459 -7589.3511 296.4043 -9350.4971 -7585.1486 297.4502 471.8336 584.3829 30944.2215 -202.7726 -137.3096
TCL: Running FEP window  18: Lambda1 0.8500000000000002 Lambda2 0.9000000000000002 [dLambda 0.050000000000000044]
TCL: Setting parameter firsttimestep to 0
TCL: Setting parameter alchLambda to 0.8500000000000002
Info: NONBONDED TABLE R-SQUARED SPACING: 0.0625
Info: NONBONDED TABLE SIZE: 705 POINTS
TCL: Setting parameter alchLambda2 to 0.9000000000000002
Info: NONBONDED TABLE R-SQUARED SPACING: 0.0625
Info: NONBONDED TABLE SIZE: 705 POINTS
TCL: Running for 1500000 steps
ETITLE: TS BOND ANGLE DIHED IMPRP ELECT VDW BOUNDARY MISC KINETIC TOTAL TEMP POTENTIAL TOTALAVG TEMPAVG PRESSURE GPRESSURE VOLUME PRESSAVG GPRESSAVG
ENERGY: 0 0.1538 2.5918 7.8070 0.0000 -10895.5824 1534.9891 0.0000 0.0000 1760.2672 -7589.7735 296.2564 -9350.0407 -7589.7735 296.2564 519.6738 597.5592 30944.2215 519.6738 597.5592
ENERGY: 300000 0.6654 4.5318 12.3090 0.0000 -10818.0867 1456.0110 0.0000 0.0000 1784.4709 -7560.0986 300.3300 -9344.5695 -7579.3629 300.5900 134.1483 197.5148 30412.0689 100.8082 157.1010
ENERGY: 600000 0.5904 6.5996 7.0279 0.0000 -10736.7067 1350.9443 0.0000 0.0000 1760.7465 -7610.7980 296.3371 -9371.5445 -7589.8847 299.6745 -746.9303 -680.5079 30545.5481 33.5270 83.6852
ENERGY: 900000 1.1909 4.4928 8.3253 0.0000 -10767.1748 1412.0748 0.0000 0.0000 1814.4126 -7526.6784 305.3692 -9341.0909 -7579.2827 300.4191 -293.2769 -172.5677 30742.7676 8.0060 68.9558
ENERGY: 1200000 1.0690 2.7876 8.8373 0.0000 -10863.4164 1538.6228 0.0000 0.0000 1790.3407 -7521.7590 301.3179 -9312.0997 -7573.7012 299.6040 881.9231 958.2958 30474.4528 48.0516 110.3726
ENERGY: 1500000 0.8502 3.1995 8.9646 0.0000 -10682.8444 1345.1085 0.0000 0.0000 1804.4642 -7520.2574 303.6949 -9324.7216 -7580.4632 299.4880 -1030.7988 -1028.6189 31404.3971 2.8617 64.0184
TCL: Running FEP window  19: Lambda1 0.9000000000000002 Lambda2 0.9500000000000003 [dLambda 0.050000000000000044]
TCL: Setting parameter firsttimestep to 0
TCL: Setting parameter alchLambda to 0.9000000000000002
Info: NONBONDED TABLE R-SQUARED SPACING: 0.0625
Info: NONBONDED TABLE SIZE: 705 POINTS
TCL: Setting parameter alchLambda2 to 0.9500000000000003
Info: NONBONDED TABLE R-SQUARED SPACING: 0.0625
Info: NONBONDED TABLE SIZE: 705 POINTS
TCL: Running for 1500000 steps
ETITLE: TS BOND ANGLE DIHED IMPRP ELECT VDW BOUNDARY MISC KINETIC TOTAL TEMP POTENTIAL TOTALAVG TEMPAVG PRESSURE GPRESSURE VOLUME PRESSAVG GPRESSAVG
ENERGY: 0 0.8502 3.1995 8.9646 0.0000 -10682.9142 1345.0756 0.0000 0.0000 1803.5900 -7521.2344 303.5477 -9324.8243 -7521.2344 303.5477 -1098.4398 -1024.2089 31404.3971 -1098.4398 -1024.2089
ENERGY: 300000 1.2577 3.3012 10.5568 0.0000 -10968.9576 1545.6778 0.0000 0.0000 1781.9000 -7626.2642 299.8973 -9408.1642 -7605.8665 298.1393 844.8874 916.9372 30292.1120 63.6156 120.4691
ENERGY: 600000 0.7269 3.9381 10.3478 0.0000 -10909.9748 1506.9613 0.0000 0.0000 1768.9692 -7619.0315 297.7210 -9388.0007 -7601.4193 299.4324 483.2742 555.8372 30629.9085 20.1578 84.0021
ENERGY: 900000 0.4167 3.2887 8.4541 0.0000 -10871.8442 1429.0328 0.0000 0.0000 1784.3984 -7646.2535 300.3178 -9430.6519 -7597.6811 299.8434 -593.5451 -506.0423 30981.9090 4.5803 73.0554
ENERGY: 1200000 0.5359 2.0215 9.7230 0.0000 -10873.9151 1511.1627 0.0000 0.0000 1797.0064 -7553.4655 302.4397 -9350.4719 -7596.3299 300.1177 598.1040 656.2201 30541.7578 1.8306 70.5166
ENERGY: 1500000 0.0272 4.2280 7.4240 0.0000 -10877.3930 1519.0520 0.0000 0.0000 1785.3372 -7561.3245 300.4758 -9346.6617 -7596.3722 299.8658 284.3092 374.1309 31225.7058 27.6460 94.5576
TCL: Running FEP window  20: Lambda1 0.9500000000000003 Lambda2 1.0    [dLambda 0.04999999999999971]
TCL: Setting parameter firsttimestep to 0
TCL: Setting parameter alchLambda to 0.9500000000000003
Info: NONBONDED TABLE R-SQUARED SPACING: 0.0625
Info: NONBONDED TABLE SIZE: 705 POINTS
TCL: Setting parameter alchLambda2 to 1.0
Info: NONBONDED TABLE R-SQUARED SPACING: 0.0625
Info: NONBONDED TABLE SIZE: 705 POINTS
TCL: Running for 1500000 steps
ETITLE: TS BOND ANGLE DIHED IMPRP ELECT VDW BOUNDARY MISC KINETIC TOTAL TEMP POTENTIAL TOTALAVG TEMPAVG PRESSURE GPRESSURE VOLUME PRESSAVG GPRESSAVG
ENERGY: 0 0.0272 4.2280 7.4240 0.0000 -10877.5710 1519.0192 0.0000 0.0000 1784.4582 -7562.4143 300.3278 -9346.8726 -7562.4143 300.3278 305.0004 382.2255 31225.7058 305.0004 382.2255
ENERGY: 300000 0.7811 4.1171 8.3447 0.0000 -10804.8826 1446.8716 0.0000 0.0000 1796.6246 -7548.1435 302.3755 -9344.7682 -7573.7216 300.0982 -223.0993 -99.0891 31285.9153 245.1181 311.6409
ENERGY: 600000 0.9290 5.1756 10.9334 0.0000 -10908.0307 1468.8765 0.0000 0.0000 1749.8124 -7672.3038 294.4969 -9422.1162 -7599.8542 297.3002 -43.1662 23.6665 30567.5029 49.8865 101.6600
ENERGY: 900000 0.4373 3.1405 10.1644 0.0000 -10848.1825 1492.4494 0.0000 0.0000 1795.2571 -7546.7337 302.1453 -9341.9908 -7564.5942 301.0133 264.9267 344.7140 30732.5570 136.5795 196.3952
ENERGY: 1200000 0.3648 1.3557 8.8800 0.0000 -10680.5001 1377.6096 0.0000 0.0000 1789.8721 -7502.4179 301.2390 -9292.2900 -7559.9817 300.2249 -416.5599 -349.0411 30723.0471 84.7414 142.5279
ENERGY: 1500000 2.2870 3.1956 10.4601 0.0000 -10789.7753 1428.0767 0.0000 0.0000 1725.3083 -7620.4477 290.3728 -9345.7560 -7563.2663 299.9587 -450.3574 -452.9021 31380.8949 38.6544 91.2436
TCL: Exiting due to exit command.
