Info: SIMULATION PARAMETERS:
Info: TIMESTEP               2
Info: NUMBER OF STEPS        0
Info: STEPS PER CYCLE        10
Info: PERIODIC CELL BASIS 1  31.3778 0 0
Info: PERIODIC CELL BASIS 2  0 30.1948 0
Info: PERIODIC CELL BASIS 3  0 0 32.9353
Info: PERIODIC CELL CENTER   0 0 0
Info: WRAPPING WATERS AROUND PERIODIC BOUNDARIES ON OUTPUT.
Info: WRAPPING ALL CLUSTERS AROUND PERIODIC BOUNDARIES ON OUTPUT.
Info: FIRST LDB TIMESTEP     50
Info: LAST LDB TIMESTEP     -1
Info: HOM BACKGROUND SCALING 1
Info: PME BACKGROUND SCALING 1
Info: MIN ATOMS PER PATCH    40
Info: EMPTY PATCH LOAD       40 ATOMS
Info: VELOCITY FILE          mobley_3775790_equil.vel
Info: CENTER OF MASS MOVING INITIALLY? NO
Info: DIELECTRIC             1
Info: EXCLUDE                SCALED ONE-FOUR
Info: 1-4 ELECTROSTATICS SCALED BY 0.833333
Info: MODIFIED 1-4 VDW PARAMETERS WILL BE USED
Info: DCD FILENAME           mobley_3775790_prod.dcd
Info: DCD FREQUENCY          100000
Info: DCD FIRST STEP         100000
Info: DCD FILE WILL CONTAIN UNIT CELL DATA
Info: XST FILENAME           mobley_3775790_prod.xst
Info: XST FREQUENCY          100000
Info: NO VELOCITY DCD OUTPUT
Info: NO FORCE DCD OUTPUT
Info: OUTPUT FILENAME        mobley_3775790_prod
Info: BINARY OUTPUT FILES WILL BE USED
Info: RESTART FILENAME       mobley_3775790_prod.restart
Info: RESTART FREQUENCY      100000
Info: BINARY RESTART FILES WILL BE USED
Info: CUTOFF                 9
Info: PAIRLIST DISTANCE      11
Info: PAIRLIST SHRINK RATE   0.01
Info: PAIRLIST GROW RATE     0.01
Info: PAIRLIST TRIGGER       0.3
Info: PAIRLISTS PER CYCLE    2
Info: PAIRLISTS ENABLED
Info: MARGIN                 2
Info: HYDROGEN GROUP CUTOFF  2.5
Info: PATCH DIMENSION        15.5
Info: ENERGY OUTPUT STEPS    100000
Info: ENERGY EVALUATION STEPS    100000
Info: OUTPUT ENERGY PRECISION 4
Info: CROSSTERM ENERGY INCLUDED IN DIHEDRAL
Info: TIMING OUTPUT STEPS    1000000
Info: PRESSURE OUTPUT STEPS  100000
Info: ALCHEMICAL FEP ON
Info: FEP CURRENT LAMBDA VALUE     1
Info: FEP COMPARISON LAMBDA VALUE  0.95
Info: FEP INTRA-ALCHEMICAL NON-BONDED INTERACTIONS WILL BE RETAINED
Info: FEP INTRA-ALCHEMICAL BONDED INTERACTIONS WILL BE RETAINED
Info: FEP VDW SHIFTING COEFFICIENT 5
Info: FEP ELEC. ACTIVE FOR ANNIHILATED PARTICLES BETWEEN LAMBDA = 0 AND LAMBDA = 0.5
Info: FEP ELEC. ACTIVE FOR EXNIHILATED PARTICLES BETWEEN LAMBDA = 0.5 AND LAMBDA = 1
Info: FEP VDW ACTIVE FOR ANNIHILATED PARTICLES BETWEEN LAMBDA = 0 AND LAMBDA = 1
Info: FEP VDW ACTIVE FOR EXNIHILATED PARTICLES BETWEEN LAMBDA = 0 AND LAMBDA = 1
Info: FEP BOND ACTIVE FOR ANNIHILATED PARTICLES BETWEEN LAMBDA = 1 AND LAMBDA = 1
Info: FEP BOND ACTIVE FOR EXNIHILATED PARTICLES BETWEEN LAMBDA = 0 AND LAMBDA = 0
Info: LANGEVIN DYNAMICS ACTIVE
Info: LANGEVIN TEMPERATURE   300
Info: LANGEVIN USING BBK INTEGRATOR
Info: LANGEVIN DAMPING COEFFICIENT IS 1 INVERSE PS
Info: LANGEVIN DYNAMICS APPLIED TO HYDROGENS
Info: LANGEVIN PISTON PRESSURE CONTROL ACTIVE
Info:        TARGET PRESSURE IS 1.01325 BAR
Info:     OSCILLATION PERIOD IS 50 FS
Info:             DECAY TIME IS 25 FS
Info:     PISTON TEMPERATURE IS 300 K
Info:       PRESSURE CONTROL IS GROUP-BASED
Info:    INITIAL STRAIN RATE IS -0.000865819 -0.000865819 -0.000865819
Info:       CELL FLUCTUATION IS ISOTROPIC
Info: PARTICLE MESH EWALD (PME) ACTIVE
Info: PME TOLERANCE               1e-06
Info: PME EWALD COEFFICIENT       0.348832
Info: PME INTERPOLATION ORDER     4
Info: PME GRID DIMENSIONS         32 32 36
Info: PME MAXIMUM GRID SPACING    1
Info: PME CALCULATION WILL BE PERFORMED ON GPU
Info: FULL ELECTROSTATIC EVALUATION FREQUENCY      2
Info: USING VERLET I (r-RESPA) MTS SCHEME.
Info: C1 SPLITTING OF LONG RANGE ELECTROSTATICS
Info: PLACING ATOMS IN PATCHES BY HYDROGEN GROUPS
Info: RIGID BONDS TO HYDROGEN : ALL
Info:         ERROR TOLERANCE : 1e-08
Info:          MAX ITERATIONS : 100
Info: RIGID WATER USING SETTLE ALGORITHM
Info: RANDOM NUMBER SEED     1743562245
Info: USE HYDROGEN BONDS?    NO
Info: Using AMBER format force field!
Info: AMBER PARM FILE        mobley_3775790.prmtop
Info: COORDINATE PDB         mobley_3775790.pdb
Info: Exclusions will be read from PARM file!
Info: SCNB (VDW SCALING)     2
Info: USING ARITHMETIC MEAN TO COMBINE L-J SIGMA PARAMETERS
Info: BINARY COORDINATES     mobley_3775790_equil.coor
Info: SUMMARY OF PARAMETERS:
Info: 9 BONDS
Info: 10 ANGLES
Info:   10 HARMONIC
Info:   0 COSINE-BASED
Info: 4 DIHEDRAL
Info: 0 IMPROPER
Info: 0 CROSSTERM
Info: 0 VDW
Info: 36 VDW_PAIRS
Info: 0 NBTHOLE_PAIRS
Info: To read alchdata from file: mobley_3775790.pdb
Info: To read alchflag data from column: 5
Info: STRUCTURE SUMMARY:
Info: 2998 ATOMS
Info: 2998 BONDS
Info: 21 ANGLES
Info: 31 DIHEDRALS
Info: 0 IMPROPERS
Info: 0 CROSSTERMS
Info: 3040 EXCLUSIONS
Info: 2992 RIGID BONDS
Info: ALCH: 0 ATOMS TO DISAPPEAR IN FINAL STATE
Info: ALCH: 13 ATOMS TO APPEAR IN FINAL STATE
Info: 6002 DEGREES OF FREEDOM
Info: 1001 HYDROGEN GROUPS
Info: 4 ATOMS IN LARGEST HYDROGEN GROUP
Info: 1001 MIGRATION GROUPS
Info: 4 ATOMS IN LARGEST MIGRATION GROUP
Info: TOTAL MASS = 18007 amu
Info: TOTAL CHARGE = -1.49012e-08 e
Info: MASS DENSITY = 0.958264 g/cm^3
Info: ATOM DENSITY = 0.0960761 atoms/A^3
Info: ADDED 0 IMPLICIT EXCLUSIONS
Info: NONBONDED TABLE R-SQUARED SPACING: 0.0625
Info: NONBONDED TABLE SIZE: 705 POINTS
Info: REMOVING COM VELOCITY -0.0746651 -0.0840198 0.202353
Info: Use 3D box decompostion in PME FFT.
Info: Updated CUDA force table with 4096 elements.
Info: Updated CUDA LJ table with 8 x 8 elements.
Info: Found 14 unique exclusion lists needing 28 bytes
TCL: Running for 1500000 steps
ETITLE: TS BOND ANGLE DIHED IMPRP ELECT VDW BOUNDARY MISC KINETIC TOTAL TEMP POTENTIAL TOTALAVG TEMPAVG PRESSURE GPRESSURE VOLUME PRESSAVG GPRESSAVG
ENERGY: 0 3.9105 6.4012 3.1686 0.0000 -10917.2633 1443.1766 0.0000 0.0000 1770.7037 -7689.9027 296.9206 -9460.6064 -7689.9027 296.9206 -363.2524 -264.6445 31204.4190 -363.2524 -264.6445
ENERGY: 300000 2.8747 7.9838 1.4221 0.0000 -10892.9206 1421.4295 0.0000 0.0000 1837.5228 -7621.6878 308.1251 -9459.2106 -7660.8373 298.7371 -575.9424 -526.0984 31043.3424 -385.6032 -316.9856
ENERGY: 600000 3.2495 7.7300 2.7805 0.0000 -10849.6669 1458.9510 0.0000 0.0000 1785.9483 -7591.0076 299.4769 -9376.9560 -7670.1772 297.7255 -589.1761 -483.2536 31702.2832 -373.3281 -307.7696
ENERGY: 900000 0.8991 3.7450 3.7743 0.0000 -10880.6333 1427.4839 0.0000 0.0000 1785.9644 -7658.7667 299.4796 -9444.7310 -7667.7414 296.5383 -444.6077 -307.4007 30865.7107 -232.6065 -151.5551
ENERGY: 1200000 2.6798 5.9156 2.2796 0.0000 -10948.0749 1542.2940 0.0000 0.0000 1762.2435 -7632.6623 295.5019 -9394.9058 -7657.3488 296.1557 755.9886 763.6915 30745.4132 -272.3752 -199.0382
ENERGY: 1500000 2.2064 8.7578 0.8384 0.0000 -10705.7235 1358.7030 0.0000 0.0000 1791.7974 -7543.4204 300.4577 -9335.2178 -7644.4106 297.2620 -518.7516 -458.5661 30912.2074 -282.1038 -212.8349
TCL: Running FEP window   2: Lambda1 0.95   Lambda2 0.8999999999999999 [dLambda -0.050000000000000044]
TCL: Setting parameter firsttimestep to 0
TCL: Setting parameter alchLambda to 0.95
Info: NONBONDED TABLE R-SQUARED SPACING: 0.0625
Info: NONBONDED TABLE SIZE: 705 POINTS
TCL: Setting parameter alchLambda2 to 0.8999999999999999
Info: NONBONDED TABLE R-SQUARED SPACING: 0.0625
Info: NONBONDED TABLE SIZE: 705 POINTS
TCL: Running for 1500000 steps
ETITLE: TS BOND ANGLE DIHED IMPRP ELECT VDW BOUNDARY MISC KINETIC TOTAL TEMP POTENTIAL TOTALAVG TEMPAVG PRESSURE GPRESSURE VOLUME PRESSAVG GPRESSAVG
ENERGY: 0 2.2064 8.7578 0.8384 0.0000 -10704.7459 1358.9214 0.0000 0.0000 1790.9331 -7543.0887 300.3127 -9334.0218 -7543.0887 300.3127 -556.7408 -463.3230 30912.2074 -556.7408 -463.3230
ENERGY: 300000 1.2600 8.3717 3.3635 0.0000 -10941.6973 1463.4826 0.0000 0.0000 1776.2407 -7688.9789 297.8490 -9465.2196 -7638.7408 297.5534 173.0043 200.2323 30262.5385 -119.2079 -64.9734
ENERGY: 600000 2.6673 4.6245 2.8942 0.0000 -10800.2838 1370.1736 0.0000 0.0000 1855.5803 -7564.3439 311.1531 -9419.9242 -7608.3240 300.6007 -588.3368 -496.5442 30773.7246 -226.5015 -170.7677
ENERGY: 900000 0.7580 8.0121 1.4258 0.0000 -10865.4976 1464.8832 0.0000 0.0000 1734.5418 -7655.8768 290.8568 -9390.4186 -7627.3901 299.3402 -73.1677 -1.3121 31069.6646 -283.8235 -225.2883
ENERGY: 1200000 3.1425 7.8451 1.0497 0.0000 -10865.1391 1429.8766 0.0000 0.0000 1765.1929 -7658.0323 295.9965 -9423.2251 -7636.4341 299.0086 -144.1313 -67.1679 30689.4030 -241.9338 -182.0953
ENERGY: 1500000 3.0734 4.7491 4.0677 0.0000 -11038.2151 1500.4233 0.0000 0.0000 1718.9760 -7806.9256 288.2466 -9525.9015 -7646.5252 298.4290 -165.2803 -93.0275 30889.6786 -242.6553 -171.9234
TCL: Running FEP window   3: Lambda1 0.8999999999999999 Lambda2 0.8499999999999999 [dLambda -0.050000000000000044]
TCL: Setting parameter firsttimestep to 0
TCL: Setting parameter alchLambda to 0.8999999999999999
Info: NONBONDED TABLE R-SQUARED SPACING: 0.0625
Info: NONBONDED TABLE SIZE: 705 POINTS
TCL: Setting parameter alchLambda2 to 0.8499999999999999
Info: NONBONDED TABLE R-SQUARED SPACING: 0.0625
Info: NONBONDED TABLE SIZE: 705 POINTS
TCL: Running for 1500000 steps
ETITLE: TS BOND ANGLE DIHED IMPRP ELECT VDW BOUNDARY MISC KINETIC TOTAL TEMP POTENTIAL TOTALAVG TEMPAVG PRESSURE GPRESSURE VOLUME PRESSAVG GPRESSAVG
ENERGY: 0 3.0734 4.7491 4.0677 0.0000 -11037.1299 1499.1922 0.0000 0.0000 1718.0913 -7807.9562 288.0983 -9526.0475 -7807.9562 288.0983 -211.5769 -117.9096 30889.6786 -211.5769 -117.9096
ENERGY: 300000 1.7701 8.8449 0.9432 0.0000 -10841.3161 1507.3984 0.0000 0.0000 1782.9753 -7539.3842 298.9783 -9322.3595 -7643.0072 295.0048 621.5625 683.9298 30721.5647 50.6215 116.9578
ENERGY: 600000 1.3778 7.8501 1.3055 0.0000 -10853.8052 1485.1800 0.0000 0.0000 1822.6815 -7535.4103 305.6365 -9358.0918 -7625.6019 296.1821 402.8513 489.1047 30704.4144 34.6439 92.8259
ENERGY: 900000 4.4989 7.9602 4.6870 0.0000 -11049.4201 1604.7945 0.0000 0.0000 1728.6660 -7698.8134 289.8715 -9427.4794 -7632.2093 296.0438 974.9560 991.3105 30925.6565 111.8434 163.2573
ENERGY: 1200000 2.6953 4.3006 2.8355 0.0000 -10843.3373 1369.5339 0.0000 0.0000 1795.0526 -7668.9193 301.0035 -9463.9719 -7648.9785 296.4375 -638.5486 -580.4050 30662.1709 34.5304 85.4616
ENERGY: 1500000 1.6761 6.9740 1.0509 0.0000 -10810.9206 1456.3946 0.0000 0.0000 1797.1541 -7547.6709 301.3559 -9344.8250 -7635.4673 297.1678 211.7426 291.6159 30603.4097 56.6951 109.6550
TCL: Running FEP window   4: Lambda1 0.8499999999999999 Lambda2 0.7999999999999998 [dLambda -0.050000000000000044]
TCL: Setting parameter firsttimestep to 0
TCL: Setting parameter alchLambda to 0.8499999999999999
Info: NONBONDED TABLE R-SQUARED SPACING: 0.0625
Info: NONBONDED TABLE SIZE: 705 POINTS
TCL: Setting parameter alchLambda2 to 0.7999999999999998
Info: NONBONDED TABLE R-SQUARED SPACING: 0.0625
Info: NONBONDED TABLE SIZE: 705 POINTS
TCL: Running for 1500000 steps
ETITLE: TS BOND ANGLE DIHED IMPRP ELECT VDW BOUNDARY MISC KINETIC TOTAL TEMP POTENTIAL TOTALAVG TEMPAVG PRESSURE GPRESSURE VOLUME PRESSAVG GPRESSAVG
ENERGY: 0 1.6761 6.9740 1.0509 0.0000 -10810.2294 1456.2917 0.0000 0.0000 1796.2391 -7547.9975 301.2025 -9344.2366 -7547.9975 301.2025 205.4944 281.9649 30603.4097 205.4944 281.9649
ENERGY: 300000 0.8922 8.6676 1.5237 0.0000 -11070.7427 1612.2592 0.0000 0.0000 1806.7782 -7640.6217 302.9697 -9447.3999 -7617.7078 299.0261 1273.5103 1278.6129 30619.8146 345.2238 407.0046
ENERGY: 600000 2.3595 7.2966 2.2967 0.0000 -10837.2234 1474.0030 0.0000 0.0000 1780.1471 -7571.1206 298.5041 -9351.2676 -7617.8204 298.6246 12.1049 81.4188 31349.2140 43.0077 94.7306
ENERGY: 900000 0.7481 6.1142 1.3675 0.0000 -10678.7323 1402.3278 0.0000 0.0000 1827.5366 -7440.6381 306.4506 -9268.1747 -7596.1005 299.2121 -159.6049 -172.5022 31275.8404 -144.4225 -98.2129
ENERGY: 1200000 2.5447 9.4525 2.7322 0.0000 -10843.6523 1486.2997 0.0000 0.0000 1807.6660 -7534.9571 303.1186 -9342.6232 -7596.4085 300.1768 386.0905 477.7846 31027.7344 -107.9989 -50.6349
ENERGY: 1500000 0.7144 6.2482 3.6253 0.0000 -10801.6503 1445.7839 0.0000 0.0000 1722.7861 -7622.4924 288.8855 -9345.2785 -7595.4517 299.1395 5.8050 70.3659 30829.4782 -119.3831 -59.7800
TCL: Running FEP window   5: Lambda1 0.7999999999999998 Lambda2 0.7499999999999998 [dLambda -0.050000000000000044]
TCL: Setting parameter firsttimestep to 0
TCL: Setting parameter alchLambda to 0.7999999999999998
Info: NONBONDED TABLE R-SQUARED SPACING: 0.0625
Info: NONBONDED TABLE SIZE: 705 POINTS
TCL: Setting parameter alchLambda2 to 0.7499999999999998
Info: NONBONDED TABLE R-SQUARED SPACING: 0.0625
Info: NONBONDED TABLE SIZE: 705 POINTS
TCL: Running for 1500000 steps
ETITLE: TS BOND ANGLE DIHED IMPRP ELECT VDW BOUNDARY MISC KINETIC TOTAL TEMP POTENTIAL TOTALAVG TEMPAVG PRESSURE GPRESSURE VOLUME PRESSAVG GPRESSAVG
ENERGY: 0 0.7144 6.2482 3.6253 0.0000 -10801.0420 1446.0837 0.0000 0.0000 1721.9135 -7622.4568 288.7392 -9344.3703 -7622.4568 288.7392 -25.2393 65.9688 30829.4782 -25.2393 65.9688
ENERGY: 300000 0.8552 6.0792 0.3335 0.0000 -10834.3006 1450.8428 0.0000 0.0000 1782.3266 -7593.8632 298.8696 -9376.1898 -7596.1933 299.5008 119.7353 183.9571 30674.7168 244.4595 320.3824
ENERGY: 600000 3.7246 5.2882 0.8975 0.0000 -10800.2071 1441.5068 0.0000 0.0000 1859.0597 -7489.7302 311.7366 -9348.7899 -7573.7384 302.6566 -3.8871 95.7938 30971.9236 95.0293 158.9585
ENERGY: 900000 1.4412 7.5522 2.9964 0.0000 -10967.1644 1496.0364 0.0000 0.0000 1808.3795 -7650.7586 303.2382 -9459.1382 -7595.6523 302.1127 307.6994 353.2496 30486.3461 40.4377 104.4215
ENERGY: 1200000 3.3728 7.5274 1.3318 0.0000 -10712.6750 1362.3960 0.0000 0.0000 1817.3575 -7520.6895 304.7437 -9338.0470 -7594.9984 302.5041 -464.3776 -356.8069 30500.1742 -66.1721 1.4280
ENERGY: 1500000 1.1263 6.9241 2.9456 0.0000 -10841.9573 1430.9695 0.0000 0.0000 1836.1836 -7563.8082 307.9006 -9399.9919 -7585.9868 303.2319 -257.6918 -172.7003 30901.8276 -97.2079 -29.6214
TCL: Running FEP window   6: Lambda1 0.7499999999999998 Lambda2 0.6999999999999997 [dLambda -0.050000000000000044]
TCL: Setting parameter firsttimestep to 0
TCL: Setting parameter alchLambda to 0.7499999999999998
Info: NONBONDED TABLE R-SQUARED SPACING: 0.0625
Info: NONBONDED TABLE SIZE: 705 POINTS
TCL: Setting parameter alchLambda2 to 0.6999999999999997
Info: NONBONDED TABLE R-SQUARED SPACING: 0.0625
Info: NONBONDED TABLE SIZE: 705 POINTS
TCL: Running for 1500000 steps
ETITLE: TS BOND ANGLE DIHED IMPRP ELECT VDW BOUNDARY MISC KINETIC TOTAL TEMP POTENTIAL TOTALAVG TEMPAVG PRESSURE GPRESSURE VOLUME PRESSAVG GPRESSAVG
ENERGY: 0 1.1263 6.9241 2.9456 0.0000 -10841.1744 1430.3018 0.0000 0.0000 1835.3009 -7564.5757 307.7526 -9399.8766 -7564.5757 307.7526 -273.7416 -188.8901 30901.8276 -273.7416 -188.8901
ENERGY: 300000 1.8756 4.1582 2.4272 0.0000 -10873.0806 1460.7498 0.0000 0.0000 1839.2741 -7564.5957 308.4188 -9403.8698 -7554.2862 305.1380 101.5963 222.6625 30525.5945 -76.0373 -1.4659
ENERGY: 600000 1.0498 5.0222 3.0412 0.0000 -10868.4279 1404.9086 0.0000 0.0000 1771.3763 -7683.0298 297.0334 -9454.4060 -7574.0863 304.3698 -432.5035 -326.0754 30436.9538 -245.0149 -163.7537
ENERGY: 900000 1.8525 5.8495 6.3166 0.0000 -10936.7304 1524.4057 0.0000 0.0000 1744.7802 -7653.5259 292.5736 -9398.3061 -7596.0903 300.7952 537.5466 583.3247 30799.4084 -172.0220 -95.7003
ENERGY: 1200000 1.2512 5.3259 4.5099 0.0000 -10813.9255 1385.9903 0.0000 0.0000 1824.9817 -7591.8666 306.0222 -9416.8482 -7590.9292 302.0271 -863.5207 -864.6129 31449.2909 -173.4581 -111.6855
ENERGY: 1500000 0.2116 5.9418 1.2560 0.0000 -10797.9555 1416.1318 0.0000 0.0000 1750.7918 -7623.6224 293.5816 -9374.4142 -7588.9106 301.3437 -266.6977 -248.7470 31100.0376 -219.6355 -163.2751
TCL: Running FEP window   7: Lambda1 0.6999999999999997 Lambda2 0.6499999999999997 [dLambda -0.050000000000000044]
TCL: Setting parameter firsttimestep to 0
TCL: Setting parameter alchLambda to 0.6999999999999997
Info: NONBONDED TABLE R-SQUARED SPACING: 0.0625
Info: NONBONDED TABLE SIZE: 705 POINTS
TCL: Setting parameter alchLambda2 to 0.6499999999999997
Info: NONBONDED TABLE R-SQUARED SPACING: 0.0625
Info: NONBONDED TABLE SIZE: 705 POINTS
TCL: Running for 1500000 steps
ETITLE: TS BOND ANGLE DIHED IMPRP ELECT VDW BOUNDARY MISC KINETIC TOTAL TEMP POTENTIAL TOTALAVG TEMPAVG PRESSURE GPRESSURE VOLUME PRESSAVG GPRESSAVG
ENERGY: 0 0.2116 5.9418 1.2560 0.0000 -10797.6055 1416.3505 0.0000 0.0000 1749.8676 -7623.9780 293.4267 -9373.8456 -7623.9780 293.4267 -341.2787 -254.3646 31100.0376 -341.2787 -254.3646
ENERGY: 300000 6.6949 5.6154 1.1379 0.0000 -10857.1455 1424.0207 0.0000 0.0000 1763.6811 -7655.9955 295.7430 -9419.6766 -7611.5854 297.5042 -523.2499 -483.2183 31049.4866 -116.0703 -80.6166
ENERGY: 600000 1.6285 5.2797 8.6056 0.0000 -10948.2021 1510.1129 0.0000 0.0000 1733.6946 -7688.8809 290.7147 -9422.5755 -7615.5245 298.9410 51.2504 132.4020 30914.5596 -59.5266 -8.8520
ENERGY: 900000 2.6220 8.5441 3.0958 0.0000 -10914.1871 1515.4175 0.0000 0.0000 1739.9624 -7644.5454 291.7657 -9384.5078 -7618.1889 298.4948 402.8445 457.6859 30880.1931 6.0143 65.3331
ENERGY: 1200000 1.7481 7.3838 1.7244 0.0000 -10906.7934 1445.3754 0.0000 0.0000 1748.1443 -7702.4174 293.1377 -9450.5617 -7622.9219 298.3069 -93.2119 42.0889 30630.3680 -43.6244 28.8810
ENERGY: 1500000 3.8358 6.2453 2.0333 0.0000 -10828.5444 1435.6367 0.0000 0.0000 1789.0242 -7591.7691 299.9926 -9380.7933 -7626.2978 298.0095 -166.3541 -19.5825 30742.7424 -127.9462 -53.7836
TCL: Running FEP window   8: Lambda1 0.6499999999999997 Lambda2 0.5999999999999996 [dLambda -0.050000000000000044]
TCL: Setting parameter firsttimestep to 0
TCL: Setting parameter alchLambda to 0.6499999999999997
Info: NONBONDED TABLE R-SQUARED SPACING: 0.0625
Info: NONBONDED TABLE SIZE: 705 POINTS
TCL: Setting parameter alchLambda2 to 0.5999999999999996
Info: NONBONDED TABLE R-SQUARED SPACING: 0.0625
Info: NONBONDED TABLE SIZE: 705 POINTS
TCL: Running for 1500000 steps
ETITLE: TS BOND ANGLE DIHED IMPRP ELECT VDW BOUNDARY MISC KINETIC TOTAL TEMP POTENTIAL TOTALAVG TEMPAVG PRESSURE GPRESSURE VOLUME PRESSAVG GPRESSAVG
ENERGY: 0 3.8357 6.2453 2.0333 0.0000 -10828.3437 1435.3844 0.0000 0.0000 1788.0992 -7592.7457 299.8375 -9380.8449 -7592.7457 299.8375 -118.5322 -28.3252 30742.7424 -118.5322 -28.3252
ENERGY: 300000 2.2150 5.7805 2.8351 0.0000 -10942.9859 1526.9037 0.0000 0.0000 1861.2637 -7543.9878 312.1061 -9405.2515 -7561.4688 302.7798 799.1178 842.2353 30342.0873 104.7596 178.6480
ENERGY: 600000 1.1557 4.8826 1.6241 0.0000 -10856.3067 1438.2650 0.0000 0.0000 1806.7212 -7603.6581 302.9602 -9410.3793 -7592.6819 301.4543 -310.8332 -291.9575 31013.1516 127.7397 185.6449
ENERGY: 900000 1.0867 6.0402 3.2720 0.0000 -10871.6964 1469.9316 0.0000 0.0000 1761.6535 -7629.7124 295.4030 -9391.3659 -7592.4107 301.2601 374.2568 450.3514 30357.4915 92.9147 149.0113
ENERGY: 1200000 1.2797 6.0309 6.1166 0.0000 -10923.7231 1455.9583 0.0000 0.0000 1823.6072 -7630.7304 305.7917 -9454.3376 -7604.7491 301.6661 -436.5204 -383.5686 31120.5842 101.2368 158.4177
ENERGY: 1500000 1.3283 7.5592 1.4436 0.0000 -10892.1537 1475.1671 0.0000 0.0000 1793.9654 -7612.6901 300.8212 -9406.6555 -7603.0893 301.4469 24.2967 151.0379 30917.6038 80.2758 151.4163
TCL: Running FEP window   9: Lambda1 0.5999999999999996 Lambda2 0.5499999999999996 [dLambda -0.050000000000000044]
TCL: Setting parameter firsttimestep to 0
TCL: Setting parameter alchLambda to 0.5999999999999996
Info: NONBONDED TABLE R-SQUARED SPACING: 0.0625
Info: NONBONDED TABLE SIZE: 705 POINTS
TCL: Setting parameter alchLambda2 to 0.5499999999999996
Info: NONBONDED TABLE R-SQUARED SPACING: 0.0625
Info: NONBONDED TABLE SIZE: 705 POINTS
TCL: Running for 1500000 steps
ETITLE: TS BOND ANGLE DIHED IMPRP ELECT VDW BOUNDARY MISC KINETIC TOTAL TEMP POTENTIAL TOTALAVG TEMPAVG PRESSURE GPRESSURE VOLUME PRESSAVG GPRESSAVG
ENERGY: 0 1.3283 7.5592 1.4436 0.0000 -10892.1738 1475.2020 0.0000 0.0000 1793.0420 -7613.5987 300.6664 -9406.6407 -7613.5987 300.6664 64.8577 145.3936 30917.6038 64.8577 145.3936
ENERGY: 300000 0.9064 5.2089 2.6743 0.0000 -10873.9597 1530.3004 0.0000 0.0000 1763.0056 -7571.8642 295.6297 -9334.8698 -7586.2122 300.6887 670.7314 670.6833 30951.2045 75.4292 105.6333
ENERGY: 600000 4.1302 7.8762 3.3393 0.0000 -10878.7882 1480.6195 0.0000 0.0000 1766.4367 -7616.3863 296.2051 -9382.8230 -7588.7428 300.6188 281.1440 315.2674 30458.1267 10.9854 48.6628
ENERGY: 900000 1.6945 7.4491 1.3189 0.0000 -10825.0999 1483.1485 0.0000 0.0000 1784.9841 -7546.5049 299.3152 -9331.4889 -7564.4177 302.9660 221.8099 321.1342 30946.8452 50.8472 98.1956
ENERGY: 1200000 1.4583 6.8572 9.4214 0.0000 -10900.2799 1516.1028 0.0000 0.0000 1752.2095 -7614.2307 293.8194 -9366.4402 -7557.7033 302.8822 645.9328 692.4352 30477.3783 58.5025 110.2917
ENERGY: 1500000 0.8939 4.6136 2.0495 0.0000 -10785.5096 1460.7639 0.0000 0.0000 1809.4256 -7507.7631 303.4137 -9317.1887 -7567.4815 302.1372 106.9916 189.6306 30934.8482 53.2549 106.1400
TCL: Running FEP window  10: Lambda1 0.5499999999999996 Lambda2 0.4999999999999996 [dLambda -0.04999999999999999]
TCL: Setting parameter firsttimestep to 0
TCL: Setting parameter alchLambda to 0.5499999999999996
Info: NONBONDED TABLE R-SQUARED SPACING: 0.0625
Info: NONBONDED TABLE SIZE: 705 POINTS
TCL: Setting parameter alchLambda2 to 0.4999999999999996
Info: NONBONDED TABLE R-SQUARED SPACING: 0.0625
Info: NONBONDED TABLE SIZE: 705 POINTS
TCL: Running for 1500000 steps
ETITLE: TS BOND ANGLE DIHED IMPRP ELECT VDW BOUNDARY MISC KINETIC TOTAL TEMP POTENTIAL TOTALAVG TEMPAVG PRESSURE GPRESSURE VOLUME PRESSAVG GPRESSAVG
ENERGY: 0 0.8939 4.6136 2.0495 0.0000 -10785.2718 1460.4650 0.0000 0.0000 1808.5201 -7508.7298 303.2618 -9317.2499 -7508.7298 303.2618 101.4354 180.7878 30934.8482 101.4354 180.7878
ENERGY: 300000 0.6130 9.2995 5.5807 0.0000 -10639.4003 1325.8452 0.0000 0.0000 1815.0938 -7482.9680 304.3641 -9298.0618 -7552.9554 303.6319 -1002.1623 -1019.4336 31632.6143 -7.1969 18.2184
ENERGY: 600000 1.4095 5.3862 3.4903 0.0000 -10965.0047 1546.6119 0.0000 0.0000 1772.1685 -7635.9382 297.1662 -9408.1067 -7585.4360 301.8610 518.0689 576.0423 31079.6026 9.1707 41.1941
ENERGY: 900000 3.8069 5.5348 0.8956 0.0000 -10815.8785 1435.4837 0.0000 0.0000 1788.1112 -7582.0463 299.8395 -9370.1575 -7589.8250 301.8959 -164.7011 -35.9183 30776.2508 92.6366 148.2430
ENERGY: 1200000 1.0744 7.9622 2.2951 0.0000 -10856.1340 1464.1595 0.0000 0.0000 1742.4986 -7638.1440 292.1910 -9380.6426 -7610.0610 299.8370 239.6434 331.6647 30341.1479 -15.6287 41.4402
ENERGY: 1500000 1.7118 5.8658 2.5689 0.0000 -10931.8612 1508.1445 0.0000 0.0000 1721.5969 -7691.9733 288.6861 -9413.5702 -7613.4273 299.5394 420.8775 414.4328 30979.5356 -5.0419 44.6847
TCL: Running FEP window  11: Lambda1 0.4999999999999996 Lambda2 0.4499999999999996 [dLambda -0.04999999999999999]
TCL: Setting parameter firsttimestep to 0
TCL: Setting parameter alchLambda to 0.4999999999999996
Info: NONBONDED TABLE R-SQUARED SPACING: 0.0625
Info: NONBONDED TABLE SIZE: 705 POINTS
TCL: Setting parameter alchLambda2 to 0.4499999999999996
Info: NONBONDED TABLE R-SQUARED SPACING: 0.0625
Info: NONBONDED TABLE SIZE: 705 POINTS
TCL: Running for 1500000 steps
ETITLE: TS BOND ANGLE DIHED IMPRP ELECT VDW BOUNDARY MISC KINETIC TOTAL TEMP POTENTIAL TOTALAVG TEMPAVG PRESSURE GPRESSURE VOLUME PRESSAVG GPRESSAVG
ENERGY: 0 1.7118 5.8658 2.5689 0.0000 -10932.0531 1507.9870 0.0000 0.0000 1720.7112 -7693.2084 288.5376 -9413.9196 -7693.2084 288.5376 330.6021 404.6272 30979.5356 330.6021 404.6272
ENERGY: 300000 1.4912 6.2789 2.3527 0.0000 -10863.7177 1483.6889 0.0000 0.0000 1765.8404 -7604.0657 296.1051 -9369.9061 -7631.6805 293.5600 270.0722 339.5545 30471.8936 398.1405 487.0569
ENERGY: 600000 1.3722 6.8712 1.0769 0.0000 -10694.9991 1373.3383 0.0000 0.0000 1734.0706 -7578.2699 290.7778 -9312.3405 -7636.7627 295.1084 -542.5269 -464.0042 30916.7107 113.9665 187.9221
ENERGY: 900000 0.5276 5.6700 1.9220 0.0000 -10972.2932 1483.9388 0.0000 0.0000 1740.2862 -7739.9486 291.8200 -9480.2348 -7632.1572 296.9684 58.5379 56.8807 30701.3063 41.5288 103.8017
ENERGY: 1200000 2.0922 5.4603 1.8419 0.0000 -10885.2249 1460.7012 0.0000 0.0000 1834.9361 -7580.1932 307.6914 -9415.1293 -7614.5800 297.9061 -228.6323 -152.2365 30783.5972 117.3749 175.4337
ENERGY: 1500000 2.7599 7.8588 1.3009 0.0000 -10855.7039 1474.1373 0.0000 0.0000 1784.3412 -7585.3058 299.2074 -9369.6470 -7612.0558 297.7812 369.3173 502.0384 30478.6679 76.7724 139.4505
TCL: Running FEP window  12: Lambda1 0.4499999999999996 Lambda2 0.39999999999999963 [dLambda -0.04999999999999999]
TCL: Setting parameter firsttimestep to 0
TCL: Setting parameter alchLambda to 0.4499999999999996
Info: NONBONDED TABLE R-SQUARED SPACING: 0.0625
Info: NONBONDED TABLE SIZE: 705 POINTS
TCL: Setting parameter alchLambda2 to 0.39999999999999963
Info: NONBONDED TABLE R-SQUARED SPACING: 0.0625
Info: NONBONDED TABLE SIZE: 705 POINTS
TCL: Running for 1500000 steps
ETITLE: TS BOND ANGLE DIHED IMPRP ELECT VDW BOUNDARY MISC KINETIC TOTAL TEMP POTENTIAL TOTALAVG TEMPAVG PRESSURE GPRESSURE VOLUME PRESSAVG GPRESSAVG
ENERGY: 0 2.7599 7.8588 1.3009 0.0000 -10855.7030 1474.5925 0.0000 0.0000 1783.4656 -7585.7253 299.0606 -9369.1909 -7585.7253 299.0606 410.9132 504.1761 30478.6679 410.9132 504.1761
ENERGY: 300000 1.1027 5.5178 0.6664 0.0000 -10836.2342 1405.2080 0.0000 0.0000 1724.3844 -7699.3550 289.1535 -9423.7394 -7615.3554 299.1518 -745.5563 -713.6728 31057.4049 -135.0088 -78.7459
ENERGY: 600000 2.3321 6.8687 0.9971 0.0000 -10969.5030 1491.5864 0.0000 0.0000 1819.5236 -7648.1951 305.1069 -9467.7186 -7629.1309 300.0049 -37.1998 58.1049 30742.8753 -88.7469 -34.2969
ENERGY: 900000 1.3219 4.7934 0.7427 0.0000 -10973.4940 1510.6324 0.0000 0.0000 1815.8623 -7640.1413 304.4930 -9456.0036 -7630.9126 300.3520 162.6392 239.4755 30914.1751 -9.1421 49.9716
ENERGY: 1200000 1.2482 7.0309 2.4082 0.0000 -10971.9869 1498.2810 0.0000 0.0000 1726.3950 -7736.6237 289.4907 -9463.0187 -7637.9914 299.3580 70.9392 142.8148 30974.5890 33.5665 94.6121
ENERGY: 1500000 1.1931 7.9903 0.7376 0.0000 -10993.1968 1542.8506 0.0000 0.0000 1769.7744 -7670.6507 296.7647 -9440.4251 -7632.0256 299.6426 502.0781 601.8801 30514.5977 24.3029 85.2825
TCL: Running FEP window  13: Lambda1 0.39999999999999963 Lambda2 0.34999999999999964 [dLambda -0.04999999999999999]
TCL: Setting parameter firsttimestep to 0
TCL: Setting parameter alchLambda to 0.39999999999999963
Info: NONBONDED TABLE R-SQUARED SPACING: 0.0625
Info: NONBONDED TABLE SIZE: 705 POINTS
TCL: Setting parameter alchLambda2 to 0.34999999999999964
Info: NONBONDED TABLE R-SQUARED SPACING: 0.0625
Info: NONBONDED TABLE SIZE: 705 POINTS
TCL: Running for 1500000 steps
ETITLE: TS BOND ANGLE DIHED IMPRP ELECT VDW BOUNDARY MISC KINETIC TOTAL TEMP POTENTIAL TOTALAVG TEMPAVG PRESSURE GPRESSURE VOLUME PRESSAVG GPRESSAVG
ENERGY: 0 1.1931 7.9903 0.7376 0.0000 -10993.1965 1542.8145 0.0000 0.0000 1768.8912 -7671.5698 296.6166 -9440.4610 -7671.5698 296.6166 507.3628 597.8671 30514.5977 507.3628 597.8671
ENERGY: 300000 1.7235 8.2683 1.8331 0.0000 -11016.0688 1520.1040 0.0000 0.0000 1768.1651 -7715.9748 296.4949 -9484.1399 -7668.9606 296.9831 54.1918 156.3335 30752.0100 519.3137 586.7701
ENERGY: 600000 0.6655 5.4596 0.9044 0.0000 -10990.4612 1503.0970 0.0000 0.0000 1838.8509 -7641.4837 308.3478 -9480.3346 -7648.8189 300.1437 233.2964 309.1577 30549.4858 246.1052 312.2675
ENERGY: 900000 2.2374 4.5259 2.1780 0.0000 -10891.7438 1439.6301 0.0000 0.0000 1800.3305 -7642.8418 301.8885 -9443.1723 -7640.3467 301.2460 -445.8784 -343.1657 30813.1547 89.9428 154.4141
ENERGY: 1200000 0.9005 5.9150 3.0436 0.0000 -10850.3510 1494.8360 0.0000 0.0000 1780.6733 -7564.9826 298.5923 -9345.6560 -7618.6967 301.1087 335.1856 428.7945 30856.8057 148.1765 211.4533
ENERGY: 1500000 3.1298 5.8403 4.0359 0.0000 -10983.8776 1530.8780 0.0000 0.0000 1789.0627 -7650.9309 299.9991 -9439.9935 -7617.6700 300.8221 622.2732 650.0376 30431.4221 169.5586 230.3383
TCL: Running FEP window  14: Lambda1 0.34999999999999964 Lambda2 0.29999999999999966 [dLambda -0.04999999999999999]
TCL: Setting parameter firsttimestep to 0
TCL: Setting parameter alchLambda to 0.34999999999999964
Info: NONBONDED TABLE R-SQUARED SPACING: 0.0625
Info: NONBONDED TABLE SIZE: 705 POINTS
TCL: Setting parameter alchLambda2 to 0.29999999999999966
Info: NONBONDED TABLE R-SQUARED SPACING: 0.0625
Info: NONBONDED TABLE SIZE: 705 POINTS
TCL: Running for 1500000 steps
ETITLE: TS BOND ANGLE DIHED IMPRP ELECT VDW BOUNDARY MISC KINETIC TOTAL TEMP POTENTIAL TOTALAVG TEMPAVG PRESSURE GPRESSURE VOLUME PRESSAVG GPRESSAVG
ENERGY: 0 3.1298 5.8403 4.0359 0.0000 -10983.8763 1531.0552 0.0000 0.0000 1788.1759 -7651.6391 299.8504 -9439.8150 -7651.6391 299.8504 574.9691 646.7116 30431.4221 574.9691 646.7116
ENERGY: 300000 2.5527 6.1267 1.0655 0.0000 -10860.8768 1376.8702 0.0000 0.0000 1845.1468 -7629.1149 309.4036 -9474.2617 -7625.2609 303.2627 -528.5463 -502.1225 30546.2703 169.7292 201.1351
ENERGY: 600000 1.6928 4.9123 3.9026 0.0000 -10811.5667 1405.3442 0.0000 0.0000 1759.3733 -7636.3415 295.0206 -9395.7148 -7608.6205 302.7978 -750.0239 -654.5609 31085.0667 1.3965 58.5377
ENERGY: 900000 2.1381 7.8750 2.8712 0.0000 -10959.9516 1533.4619 0.0000 0.0000 1788.2672 -7625.3383 299.8657 -9413.6054 -7606.8145 302.2471 395.3252 490.6597 30875.3083 145.7351 210.2467
ENERGY: 1200000 2.0118 5.5710 1.9353 0.0000 -10802.1413 1490.5938 0.0000 0.0000 1824.9036 -7477.1257 306.0091 -9302.0293 -7592.8634 302.7165 263.4880 328.3691 31283.2949 122.0905 182.6844
ENERGY: 1500000 3.6579 5.8643 5.0917 0.0000 -10949.7847 1588.0164 0.0000 0.0000 1778.4951 -7568.6594 298.2271 -9347.1544 -7587.5059 302.1284 1074.5027 1134.9781 30947.8432 161.9078 225.6919
TCL: Running FEP window  15: Lambda1 0.29999999999999966 Lambda2 0.24999999999999967 [dLambda -0.04999999999999999]
TCL: Setting parameter firsttimestep to 0
TCL: Setting parameter alchLambda to 0.29999999999999966
Info: NONBONDED TABLE R-SQUARED SPACING: 0.0625
Info: NONBONDED TABLE SIZE: 705 POINTS
TCL: Setting parameter alchLambda2 to 0.24999999999999967
Info: NONBONDED TABLE R-SQUARED SPACING: 0.0625
Info: NONBONDED TABLE SIZE: 705 POINTS
TCL: Running for 1500000 steps
ETITLE: TS BOND ANGLE DIHED IMPRP ELECT VDW BOUNDARY MISC KINETIC TOTAL TEMP POTENTIAL TOTALAVG TEMPAVG PRESSURE GPRESSURE VOLUME PRESSAVG GPRESSAVG
ENERGY: 0 3.6579 5.8643 5.0917 0.0000 -10949.7857 1588.2077 0.0000 0.0000 1777.6159 -7569.3482 298.0796 -9346.9641 -7569.3482 298.0796 1056.9247 1131.4221 30947.8432 1056.9247 1131.4221
ENERGY: 300000 1.2115 9.7697 2.4212 0.0000 -10827.6641 1456.5163 0.0000 0.0000 1738.9673 -7618.7780 291.5989 -9357.7453 -7616.4037 298.4205 171.0655 264.1236 30208.0635 170.8613 220.8666
ENERGY: 600000 5.4556 6.5791 2.6329 0.0000 -10933.9367 1459.5948 0.0000 0.0000 1840.1395 -7619.5348 308.5639 -9459.6743 -7614.7198 298.6353 -189.0426 -202.1523 30583.4133 116.7419 152.5516
ENERGY: 900000 1.1466 8.3640 1.2789 0.0000 -10902.6892 1451.0252 0.0000 0.0000 1763.1576 -7677.7169 295.6552 -9440.8745 -7621.4892 297.9314 -490.1572 -456.3433 31338.2666 -36.2259 2.2239
ENERGY: 1200000 1.2784 7.7259 2.1667 0.0000 -10809.8005 1382.0971 0.0000 0.0000 1729.3860 -7687.1463 289.9922 -9416.5324 -7624.3330 297.4527 -863.7802 -779.2112 31046.8141 -91.9670 -46.6785
ENERGY: 1500000 0.5912 6.6551 2.1270 0.0000 -10897.3836 1460.8092 0.0000 0.0000 1792.0429 -7635.1582 300.4988 -9427.2011 -7615.3168 298.1685 -9.1566 65.8125 30614.4593 -117.2710 -72.9052
TCL: Running FEP window  16: Lambda1 0.24999999999999967 Lambda2 0.19999999999999968 [dLambda -0.04999999999999999]
TCL: Setting parameter firsttimestep to 0
TCL: Setting parameter alchLambda to 0.24999999999999967
Info: NONBONDED TABLE R-SQUARED SPACING: 0.0625
Info: NONBONDED TABLE SIZE: 705 POINTS
TCL: Setting parameter alchLambda2 to 0.19999999999999968
Info: NONBONDED TABLE R-SQUARED SPACING: 0.0625
Info: NONBONDED TABLE SIZE: 705 POINTS
TCL: Running for 1500000 steps
ETITLE: TS BOND ANGLE DIHED IMPRP ELECT VDW BOUNDARY MISC KINETIC TOTAL TEMP POTENTIAL TOTALAVG TEMPAVG PRESSURE GPRESSURE VOLUME PRESSAVG GPRESSAVG
ENERGY: 0 0.5912 6.6552 2.1270 0.0000 -10897.3839 1461.1032 0.0000 0.0000 1791.1261 -7635.7813 300.3451 -9426.9074 -7635.7813 300.3451 -39.5683 65.0465 30614.4593 -39.5683 65.0465
ENERGY: 300000 3.3956 4.3756 2.6869 0.0000 -10839.8375 1455.2279 0.0000 0.0000 1785.2817 -7588.8697 299.3651 -9374.1514 -7588.5637 300.5691 -214.2363 -183.8786 31243.1640 9.2272 61.2280
ENERGY: 600000 1.4988 4.8620 2.2966 0.0000 -10886.7655 1474.8637 0.0000 0.0000 1761.1263 -7642.1179 295.3146 -9403.2442 -7598.9808 300.7877 105.4269 232.5379 30654.0774 41.0150 109.9332
ENERGY: 900000 5.0411 4.4668 0.6286 0.0000 -10792.8425 1424.0709 0.0000 0.0000 1806.4536 -7552.1815 302.9153 -9358.6352 -7598.8306 300.9510 -246.4635 -124.2941 30819.0890 62.4539 139.6812
ENERGY: 1200000 2.2720 7.4186 0.6623 0.0000 -10926.1058 1523.9092 0.0000 0.0000 1778.8368 -7613.0068 298.2844 -9391.8436 -7592.2395 301.0621 362.0724 425.1793 30884.2808 118.1031 192.6517
ENERGY: 1500000 1.6309 7.0172 1.4052 0.0000 -10927.2970 1445.0938 0.0000 0.0000 1788.6502 -7683.4998 299.9299 -9472.1499 -7586.9099 300.5172 -615.7580 -524.3066 31199.5012 15.2986 89.4024
TCL: Running FEP window  17: Lambda1 0.19999999999999968 Lambda2 0.1499999999999997 [dLambda -0.04999999999999999]
TCL: Setting parameter firsttimestep to 0
TCL: Setting parameter alchLambda to 0.19999999999999968
Info: NONBONDED TABLE R-SQUARED SPACING: 0.0625
Info: NONBONDED TABLE SIZE: 705 POINTS
TCL: Setting parameter alchLambda2 to 0.1499999999999997
Info: NONBONDED TABLE R-SQUARED SPACING: 0.0625
Info: NONBONDED TABLE SIZE: 705 POINTS
TCL: Running for 1500000 steps
ETITLE: TS BOND ANGLE DIHED IMPRP ELECT VDW BOUNDARY MISC KINETIC TOTAL TEMP POTENTIAL TOTALAVG TEMPAVG PRESSURE GPRESSURE VOLUME PRESSAVG GPRESSAVG
ENERGY: 0 1.6309 7.0172 1.4052 0.0000 -10927.2960 1445.4477 0.0000 0.0000 1787.7562 -7684.0389 299.7800 -9471.7951 -7684.0389 299.7800 -607.4778 -524.8104 31199.5012 -607.4778 -524.8104
ENERGY: 300000 2.6773 6.9915 2.1459 0.0000 -10812.0362 1438.5133 0.0000 0.0000 1792.0034 -7569.7048 300.4922 -9361.7082 -7648.3249 298.0067 -159.7811 -91.8289 30818.6513 -411.6558 -338.8991
ENERGY: 600000 3.1237 6.9020 1.0709 0.0000 -10922.0425 1543.2500 0.0000 0.0000 1773.4359 -7594.2599 297.3787 -9367.6958 -7636.9851 299.8959 676.8829 764.0726 30481.4563 -151.2700 -80.1346
ENERGY: 900000 1.6413 6.3445 4.7133 0.0000 -10777.9565 1449.9343 0.0000 0.0000 1758.6237 -7556.6995 294.8949 -9315.3231 -7623.4596 300.0727 394.3903 417.9773 30414.7900 -182.9796 -125.2620
ENERGY: 1200000 2.7549 6.8946 1.7126 0.0000 -10787.5072 1344.8490 0.0000 0.0000 1795.2698 -7636.0262 301.0399 -9431.2960 -7624.5721 300.6476 -1094.0833 -1014.4644 30922.0008 -184.9909 -128.1214
ENERGY: 1500000 1.5762 9.0520 0.8347 0.0000 -10853.5229 1454.4672 0.0000 0.0000 1759.3543 -7628.2385 295.0174 -9387.5928 -7619.2157 300.3224 83.6505 47.0160 30554.5608 -202.9311 -148.8848
TCL: Running FEP window  18: Lambda1 0.1499999999999997 Lambda2 0.09999999999999969 [dLambda -0.05 ]
TCL: Setting parameter firsttimestep to 0
TCL: Setting parameter alchLambda to 0.1499999999999997
Info: NONBONDED TABLE R-SQUARED SPACING: 0.0625
Info: NONBONDED TABLE SIZE: 705 POINTS
TCL: Setting parameter alchLambda2 to 0.09999999999999969
Info: NONBONDED TABLE R-SQUARED SPACING: 0.0625
Info: NONBONDED TABLE SIZE: 705 POINTS
TCL: Running for 1500000 steps
ETITLE: TS BOND ANGLE DIHED IMPRP ELECT VDW BOUNDARY MISC KINETIC TOTAL TEMP POTENTIAL TOTALAVG TEMPAVG PRESSURE GPRESSURE VOLUME PRESSAVG GPRESSAVG
ENERGY: 0 1.5762 9.0520 0.8347 0.0000 -10853.5224 1454.7296 0.0000 0.0000 1758.4286 -7628.9013 294.8622 -9387.3299 -7628.9013 294.8622 -30.2927 45.8282 30554.5608 -30.2927 45.8282
ENERGY: 300000 2.1639 6.2911 1.5805 0.0000 -10749.4096 1435.3511 0.0000 0.0000 1799.3690 -7504.6540 301.7273 -9304.0230 -7564.8462 301.8263 59.4284 112.4406 30862.7801 -240.0300 -176.0806
ENERGY: 600000 3.1432 5.7317 2.7904 0.0000 -10820.7510 1410.2110 0.0000 0.0000 1804.9275 -7593.9473 302.6594 -9398.8748 -7588.9819 301.1984 -433.9918 -426.6547 31034.5730 -63.0164 -5.4538
ENERGY: 900000 0.8096 5.3831 1.8563 0.0000 -10897.1616 1514.6757 0.0000 0.0000 1769.4978 -7604.9391 296.7184 -9374.4369 -7596.0119 299.5727 453.0285 554.9159 30803.1184 -42.4456 12.4209
ENERGY: 1200000 2.5999 6.1622 1.7185 0.0000 -10739.2664 1390.4860 0.0000 0.0000 1832.6045 -7505.6952 307.3004 -9338.2997 -7590.1764 299.7415 -418.7187 -377.4551 30970.3243 -99.8650 -45.2302
ENERGY: 1500000 0.7820 9.3134 4.1836 0.0000 -10932.2419 1533.5644 0.0000 0.0000 1817.3748 -7567.0237 304.7466 -9384.3985 -7589.4062 300.4381 608.5128 666.9229 30754.0876 -54.7853 -4.0438
TCL: Running FEP window  19: Lambda1 0.09999999999999969 Lambda2 0.049999999999999684 [dLambda -0.05 ]
TCL: Setting parameter firsttimestep to 0
TCL: Setting parameter alchLambda to 0.09999999999999969
Info: NONBONDED TABLE R-SQUARED SPACING: 0.0625
Info: NONBONDED TABLE SIZE: 705 POINTS
TCL: Setting parameter alchLambda2 to 0.049999999999999684
Info: NONBONDED TABLE R-SQUARED SPACING: 0.0625
Info: NONBONDED TABLE SIZE: 705 POINTS
TCL: Running for 1500000 steps
ETITLE: TS BOND ANGLE DIHED IMPRP ELECT VDW BOUNDARY MISC KINETIC TOTAL TEMP POTENTIAL TOTALAVG TEMPAVG PRESSURE GPRESSURE VOLUME PRESSAVG GPRESSAVG
ENERGY: 0 0.7820 9.3134 4.1836 0.0000 -10932.2418 1533.8773 0.0000 0.0000 1816.4804 -7567.6051 304.5966 -9384.0855 -7567.6051 304.5966 592.3491 666.9025 30754.0876 592.3491 666.9025
ENERGY: 300000 0.6682 7.7356 1.4822 0.0000 -10769.2859 1406.6014 0.0000 0.0000 1802.3652 -7550.4333 302.2297 -9352.7986 -7568.6383 302.0740 -291.4146 -273.5659 30783.1892 153.3413 193.2607
ENERGY: 600000 1.8533 6.3801 0.8096 0.0000 -10815.0437 1395.6782 0.0000 0.0000 1772.7820 -7637.5404 297.2691 -9410.3225 -7592.3462 301.5958 -482.1151 -468.3662 30532.1574 -89.2114 -37.1473
ENERGY: 900000 1.4593 8.7601 2.1291 0.0000 -10839.0374 1442.2232 0.0000 0.0000 1813.7878 -7570.6779 304.1451 -9384.4657 -7593.0187 301.4950 -440.4508 -352.3209 30966.7599 -3.7359 50.6172
ENERGY: 1200000 2.4388 7.1178 1.7112 0.0000 -10706.4550 1369.4849 0.0000 0.0000 1756.7796 -7568.9227 294.5857 -9325.7023 -7592.2612 301.0771 -633.3033 -593.7777 31142.5568 -42.0135 8.2870
ENERGY: 1500000 3.0850 8.1954 0.3268 0.0000 -10830.6660 1452.0702 0.0000 0.0000 1802.7041 -7564.2846 302.2866 -9366.9887 -7589.1486 301.4759 19.3230 114.9016 30709.5943 -42.9074 12.1950
TCL: Running FEP window  20: Lambda1 0.049999999999999684 Lambda2 0.0    [dLambda -0.049999999999999684]
TCL: Setting parameter firsttimestep to 0
TCL: Setting parameter alchLambda to 0.049999999999999684
Info: NONBONDED TABLE R-SQUARED SPACING: 0.0625
Info: NONBONDED TABLE SIZE: 705 POINTS
TCL: Setting parameter alchLambda2 to 0.0
Info: NONBONDED TABLE R-SQUARED SPACING: 0.0625
Info: NONBONDED TABLE SIZE: 705 POINTS
TCL: Running for 1500000 steps
ETITLE: TS BOND ANGLE DIHED IMPRP ELECT VDW BOUNDARY MISC KINETIC TOTAL TEMP POTENTIAL TOTALAVG TEMPAVG PRESSURE GPRESSURE VOLUME PRESSAVG GPRESSAVG
ENERGY: 0 3.0850 8.1954 0.3268 0.0000 -10830.6655 1452.4166 0.0000 0.0000 1801.8084 -7564.8333 302.1364 -9366.6417 -7564.8333 302.1364 30.7479 115.7091 30709.5943 30.7479 115.7091
ENERGY: 300000 1.3972 5.4684 3.2586 0.0000 -10838.1659 1415.5570 0.0000 0.0000 1744.3259 -7668.1588 292.4974 -9412.4847 -7628.7003 299.2899 -575.6851 -513.9861 30797.9731 -131.4428 -38.8141
ENERGY: 600000 2.8075 5.2950 3.3661 0.0000 -10836.2926 1494.5797 0.0000 0.0000 1804.7798 -7525.4643 302.6346 -9330.2441 -7607.6674 300.4186 598.1184 625.4326 30603.8303 -22.0636 44.1798
ENERGY: 900000 1.5728 5.7925 2.7947 0.0000 -10929.7037 1513.7038 0.0000 0.0000 1848.6494 -7557.1905 309.9909 -9405.8399 -7596.5164 300.9507 445.4989 520.2269 30919.6661 29.0971 92.7751
ENERGY: 1200000 2.2957 6.2384 1.6618 0.0000 -10909.0888 1483.0603 0.0000 0.0000 1818.9464 -7596.8861 305.0101 -9415.8325 -7595.6900 301.7899 78.5375 116.5883 30890.7624 -52.2121 9.7875
ENERGY: 1500000 2.7126 7.0619 3.3969 0.0000 -11003.5757 1529.1501 0.0000 0.0000 1805.3601 -7655.8941 302.7319 -9461.2542 -7597.6861 301.5866 461.7998 562.2548 30425.3036 -70.2489 -3.3669
TCL: Exiting due to exit command.
