Info: SIMULATION PARAMETERS:
Info: TIMESTEP               2
Info: NUMBER OF STEPS        0
Info: STEPS PER CYCLE        10
Info: PERIODIC CELL BASIS 1  32.0956 0 0
Info: PERIODIC CELL BASIS 2  0 30.0501 0
Info: PERIODIC CELL BASIS 3  0 0 31.3333
Info: PERIODIC CELL CENTER   0 0 0
Info: WRAPPING WATERS AROUND PERIODIC BOUNDARIES ON OUTPUT.
Info: WRAPPING ALL CLUSTERS AROUND PERIODIC BOUNDARIES ON OUTPUT.
Info: FIRST LDB TIMESTEP     50
Info: LAST LDB TIMESTEP     -1
Info: HOM BACKGROUND SCALING 1
Info: PME BACKGROUND SCALING 1
Info: MIN ATOMS PER PATCH    40
Info: EMPTY PATCH LOAD       40 ATOMS
Info: VELOCITY FILE          mobley_7150646_equil.vel
Info: CENTER OF MASS MOVING INITIALLY? NO
Info: DIELECTRIC             1
Info: EXCLUDE                SCALED ONE-FOUR
Info: 1-4 ELECTROSTATICS SCALED BY 0.833333
Info: MODIFIED 1-4 VDW PARAMETERS WILL BE USED
Info: DCD FILENAME           mobley_7150646_prod.dcd
Info: DCD FREQUENCY          100000
Info: DCD FIRST STEP         100000
Info: DCD FILE WILL CONTAIN UNIT CELL DATA
Info: XST FILENAME           mobley_7150646_prod.xst
Info: XST FREQUENCY          100000
Info: NO VELOCITY DCD OUTPUT
Info: NO FORCE DCD OUTPUT
Info: OUTPUT FILENAME        mobley_7150646_prod
Info: BINARY OUTPUT FILES WILL BE USED
Info: RESTART FILENAME       mobley_7150646_prod.restart
Info: RESTART FREQUENCY      100000
Info: BINARY RESTART FILES WILL BE USED
Info: CUTOFF                 9
Info: PAIRLIST DISTANCE      11
Info: PAIRLIST SHRINK RATE   0.01
Info: PAIRLIST GROW RATE     0.01
Info: PAIRLIST TRIGGER       0.3
Info: PAIRLISTS PER CYCLE    2
Info: PAIRLISTS ENABLED
Info: MARGIN                 2
Info: HYDROGEN GROUP CUTOFF  2.5
Info: PATCH DIMENSION        15.5
Info: ENERGY OUTPUT STEPS    100000
Info: ENERGY EVALUATION STEPS    100000
Info: OUTPUT ENERGY PRECISION 4
Info: CROSSTERM ENERGY INCLUDED IN DIHEDRAL
Info: TIMING OUTPUT STEPS    1000000
Info: PRESSURE OUTPUT STEPS  100000
Info: ALCHEMICAL FEP ON
Info: FEP CURRENT LAMBDA VALUE     0
Info: FEP COMPARISON LAMBDA VALUE  0.05
Info: FEP INTRA-ALCHEMICAL NON-BONDED INTERACTIONS WILL BE RETAINED
Info: FEP INTRA-ALCHEMICAL BONDED INTERACTIONS WILL BE RETAINED
Info: FEP VDW SHIFTING COEFFICIENT 5
Info: FEP ELEC. ACTIVE FOR ANNIHILATED PARTICLES BETWEEN LAMBDA = 0 AND LAMBDA = 0.5
Info: FEP ELEC. ACTIVE FOR EXNIHILATED PARTICLES BETWEEN LAMBDA = 0.5 AND LAMBDA = 1
Info: FEP VDW ACTIVE FOR ANNIHILATED PARTICLES BETWEEN LAMBDA = 0 AND LAMBDA = 1
Info: FEP VDW ACTIVE FOR EXNIHILATED PARTICLES BETWEEN LAMBDA = 0 AND LAMBDA = 1
Info: FEP BOND ACTIVE FOR ANNIHILATED PARTICLES BETWEEN LAMBDA = 1 AND LAMBDA = 1
Info: FEP BOND ACTIVE FOR EXNIHILATED PARTICLES BETWEEN LAMBDA = 0 AND LAMBDA = 0
Info: LANGEVIN DYNAMICS ACTIVE
Info: LANGEVIN TEMPERATURE   300
Info: LANGEVIN USING BBK INTEGRATOR
Info: LANGEVIN DAMPING COEFFICIENT IS 1 INVERSE PS
Info: LANGEVIN DYNAMICS APPLIED TO HYDROGENS
Info: LANGEVIN PISTON PRESSURE CONTROL ACTIVE
Info:        TARGET PRESSURE IS 1.01325 BAR
Info:     OSCILLATION PERIOD IS 50 FS
Info:             DECAY TIME IS 25 FS
Info:     PISTON TEMPERATURE IS 300 K
Info:       PRESSURE CONTROL IS GROUP-BASED
Info:    INITIAL STRAIN RATE IS 0.000115395 0.000115395 0.000115395
Info:       CELL FLUCTUATION IS ISOTROPIC
Info: PARTICLE MESH EWALD (PME) ACTIVE
Info: PME TOLERANCE               1e-06
Info: PME EWALD COEFFICIENT       0.348832
Info: PME INTERPOLATION ORDER     4
Info: PME GRID DIMENSIONS         36 32 32
Info: PME MAXIMUM GRID SPACING    1
Info: PME CALCULATION WILL BE PERFORMED ON GPU
Info: FULL ELECTROSTATIC EVALUATION FREQUENCY      2
Info: USING VERLET I (r-RESPA) MTS SCHEME.
Info: C1 SPLITTING OF LONG RANGE ELECTROSTATICS
Info: PLACING ATOMS IN PATCHES BY HYDROGEN GROUPS
Info: RIGID BONDS TO HYDROGEN : ALL
Info:         ERROR TOLERANCE : 1e-08
Info:          MAX ITERATIONS : 100
Info: RIGID WATER USING SETTLE ALGORITHM
Info: RANDOM NUMBER SEED     1743535763
Info: USE HYDROGEN BONDS?    NO
Info: Using AMBER format force field!
Info: AMBER PARM FILE        mobley_7150646.prmtop
Info: COORDINATE PDB         mobley_7150646.pdb
Info: Exclusions will be read from PARM file!
Info: SCNB (VDW SCALING)     2
Info: USING ARITHMETIC MEAN TO COMBINE L-J SIGMA PARAMETERS
Info: BINARY COORDINATES     mobley_7150646_equil.coor
Info: SUMMARY OF PARAMETERS:
Info: 5 BONDS
Info: 3 ANGLES
Info:   3 HARMONIC
Info:   0 COSINE-BASED
Info: 2 DIHEDRAL
Info: 0 IMPROPER
Info: 0 CROSSTERM
Info: 0 VDW
Info: 15 VDW_PAIRS
Info: 0 NBTHOLE_PAIRS
Info: To read alchdata from file: mobley_7150646.pdb
Info: To read alchflag data from column: 5
Info: STRUCTURE SUMMARY:
Info: 2955 ATOMS
Info: 2955 BONDS
Info: 18 ANGLES
Info: 30 DIHEDRALS
Info: 0 IMPROPERS
Info: 0 CROSSTERMS
Info: 2994 EXCLUSIONS
Info: 2947 RIGID BONDS
Info: ALCH: 0 ATOMS TO DISAPPEAR IN FINAL STATE
Info: ALCH: 12 ATOMS TO APPEAR IN FINAL STATE
Info: 5918 DEGREES OF FREEDOM
Info: 989 HYDROGEN GROUPS
Info: 3 ATOMS IN LARGEST HYDROGEN GROUP
Info: 989 MIGRATION GROUPS
Info: 3 ATOMS IN LARGEST MIGRATION GROUP
Info: TOTAL MASS = 17909.6 amu
Info: TOTAL CHARGE = -0.000399988 e
Info: MASS DENSITY = 0.984117 g/cm^3
Info: ATOM DENSITY = 0.0977821 atoms/A^3
Info: ADDED 0 IMPLICIT EXCLUSIONS
Info: NONBONDED TABLE R-SQUARED SPACING: 0.0625
Info: NONBONDED TABLE SIZE: 705 POINTS
Info: REMOVING COM VELOCITY -0.189602 -0.0302226 -0.0240524
Info: Use 3D box decompostion in PME FFT.
Info: Updated CUDA force table with 4096 elements.
Info: Updated CUDA LJ table with 5 x 5 elements.
Info: Found 14 unique exclusion lists needing 24 bytes
TCL: Running for 1500000 steps
ETITLE: TS BOND ANGLE DIHED IMPRP ELECT VDW BOUNDARY MISC KINETIC TOTAL TEMP POTENTIAL TOTALAVG TEMPAVG PRESSURE GPRESSURE VOLUME PRESSAVG GPRESSAVG
ENERGY: 0 4.3590 2.9167 2.0459 0.0000 -10663.3647 1394.7783 0.0000 0.0000 1743.9689 -7515.2960 296.5884 -9259.2649 -7515.2960 296.5884 -149.8615 -58.0821 30220.2472 -149.8615 -58.0821
ENERGY: 300000 2.3183 4.6806 3.7361 0.0000 -10619.7189 1357.5686 0.0000 0.0000 1707.6669 -7543.7484 290.4147 -9251.4153 -7514.6617 294.0819 -838.6274 -792.4557 30561.7854 -300.0655 -228.9986
ENERGY: 600000 1.4459 4.5286 3.4398 0.0000 -10562.4894 1337.2246 0.0000 0.0000 1720.3637 -7495.4868 292.5740 -9215.8505 -7524.6034 295.8488 -897.4107 -837.2537 30413.7134 -294.5963 -228.5766
ENERGY: 900000 5.2868 3.6665 0.9664 0.0000 -10695.9855 1324.4649 0.0000 0.0000 1762.7154 -7598.8855 299.7765 -9361.6009 -7518.0623 297.5821 -1436.7923 -1361.8312 30637.1934 -442.7022 -374.3188
ENERGY: 1200000 2.4741 2.7276 4.1937 0.0000 -10867.8450 1513.2628 0.0000 0.0000 1781.6338 -7563.5530 302.9939 -9345.1868 -7513.2215 298.6143 -45.4865 72.7809 30724.8111 -433.5617 -363.1971
ENERGY: 1500000 4.1585 2.4698 2.3600 0.0000 -10613.0885 1358.6958 0.0000 0.0000 1750.0072 -7495.3972 297.6153 -9245.4044 -7514.1858 298.3404 -616.2672 -594.5455 30200.8024 -357.2078 -283.3182
TCL: Running FEP window   2: Lambda1 0.05   Lambda2 0.1    [dLambda 0.05  ]
TCL: Setting parameter firsttimestep to 0
TCL: Setting parameter alchLambda to 0.05
Info: NONBONDED TABLE R-SQUARED SPACING: 0.0625
Info: NONBONDED TABLE SIZE: 705 POINTS
TCL: Setting parameter alchLambda2 to 0.1
Info: NONBONDED TABLE R-SQUARED SPACING: 0.0625
Info: NONBONDED TABLE SIZE: 705 POINTS
TCL: Running for 1500000 steps
ETITLE: TS BOND ANGLE DIHED IMPRP ELECT VDW BOUNDARY MISC KINETIC TOTAL TEMP POTENTIAL TOTALAVG TEMPAVG PRESSURE GPRESSURE VOLUME PRESSAVG GPRESSAVG
ENERGY: 0 4.1585 2.4698 2.3600 0.0000 -10613.0871 1361.7975 0.0000 0.0000 1749.1385 -7493.1628 297.4676 -9242.3013 -7493.1628 297.4676 -657.6872 -585.8418 30200.8024 -657.6872 -585.8418
ENERGY: 300000 0.8911 3.5891 2.4659 0.0000 -10663.3262 1410.0771 0.0000 0.0000 1770.0916 -7476.2115 301.0310 -9246.3031 -7481.7036 300.8492 -65.7170 -2.9320 29994.5014 -230.2801 -173.8851
ENERGY: 600000 1.5742 3.5644 4.4577 0.0000 -10669.5937 1395.6075 0.0000 0.0000 1741.5516 -7522.8384 296.1773 -9264.3900 -7492.4980 300.2029 -454.8703 -378.6284 30411.9050 -268.4955 -218.5848
ENERGY: 900000 5.4021 3.6074 2.7666 0.0000 -10628.2542 1390.0113 0.0000 0.0000 1768.2404 -7458.2264 300.7161 -9226.4668 -7500.8559 300.2360 -233.4479 -241.2768 30320.5838 -264.3479 -215.3013
ENERGY: 1200000 3.7482 2.5587 4.5593 0.0000 -10710.4898 1448.1110 0.0000 0.0000 1710.2661 -7541.2466 290.8567 -9251.5126 -7499.4907 300.0674 121.1218 134.6827 29819.5466 -242.7696 -197.5227
ENERGY: 1500000 1.1297 1.9166 2.6958 0.0000 -10712.8668 1468.6759 0.0000 0.0000 1758.1589 -7480.2898 299.0016 -9238.4487 -7496.0666 300.2827 264.8526 323.7036 30534.8435 -186.2295 -136.7659
TCL: Running FEP window   3: Lambda1 0.1    Lambda2 0.15000000000000002 [dLambda 0.05000000000000002]
TCL: Setting parameter firsttimestep to 0
TCL: Setting parameter alchLambda to 0.1
Info: NONBONDED TABLE R-SQUARED SPACING: 0.0625
Info: NONBONDED TABLE SIZE: 705 POINTS
TCL: Setting parameter alchLambda2 to 0.15000000000000002
Info: NONBONDED TABLE R-SQUARED SPACING: 0.0625
Info: NONBONDED TABLE SIZE: 705 POINTS
TCL: Running for 1500000 steps
ETITLE: TS BOND ANGLE DIHED IMPRP ELECT VDW BOUNDARY MISC KINETIC TOTAL TEMP POTENTIAL TOTALAVG TEMPAVG PRESSURE GPRESSURE VOLUME PRESSAVG GPRESSAVG
ENERGY: 0 1.1297 1.9166 2.6958 0.0000 -10712.8654 1470.9314 0.0000 0.0000 1757.2763 -7478.9156 298.8515 -9236.1919 -7478.9156 298.8515 246.4682 335.7357 30534.8435 246.4682 335.7357
ENERGY: 300000 2.9964 5.5206 2.0616 0.0000 -10631.4611 1433.9003 0.0000 0.0000 1700.6995 -7486.2827 289.2298 -9186.9822 -7517.1793 295.7334 -154.6544 -133.0894 30595.0736 137.3956 173.6211
ENERGY: 600000 2.7324 3.5405 1.4446 0.0000 -10677.1142 1388.8747 0.0000 0.0000 1782.6732 -7497.8488 303.1707 -9280.5220 -7522.0434 296.2806 -595.4180 -501.3871 30981.2311 -65.9372 -5.2232
ENERGY: 900000 3.5517 4.4989 2.6896 0.0000 -10584.8169 1355.8694 0.0000 0.0000 1813.7447 -7404.4626 308.4548 -9218.2073 -7500.3770 298.0667 -575.8087 -473.3295 30226.5887 -112.6993 -40.1655
ENERGY: 1200000 4.7472 1.7288 3.1719 0.0000 -10826.5131 1484.9719 0.0000 0.0000 1713.4222 -7618.4711 291.3935 -9331.8933 -7506.2236 298.7967 315.6864 341.6914 29904.5738 -65.9620 -1.4347
ENERGY: 1500000 2.2185 4.4643 1.6011 0.0000 -10683.3868 1402.9480 0.0000 0.0000 1712.5179 -7559.6370 291.2397 -9272.1549 -7509.1437 297.8342 -297.7742 -242.1072 30006.2691 -81.8333 -17.8549
TCL: Running FEP window   4: Lambda1 0.15000000000000002 Lambda2 0.2    [dLambda 0.04999999999999999]
TCL: Setting parameter firsttimestep to 0
TCL: Setting parameter alchLambda to 0.15000000000000002
Info: NONBONDED TABLE R-SQUARED SPACING: 0.0625
Info: NONBONDED TABLE SIZE: 705 POINTS
TCL: Setting parameter alchLambda2 to 0.2
Info: NONBONDED TABLE R-SQUARED SPACING: 0.0625
Info: NONBONDED TABLE SIZE: 705 POINTS
TCL: Running for 1500000 steps
ETITLE: TS BOND ANGLE DIHED IMPRP ELECT VDW BOUNDARY MISC KINETIC TOTAL TEMP POTENTIAL TOTALAVG TEMPAVG PRESSURE GPRESSURE VOLUME PRESSAVG GPRESSAVG
ENERGY: 0 2.2185 4.4643 1.6011 0.0000 -10683.3875 1403.8381 0.0000 0.0000 1711.6294 -7559.6362 291.0886 -9271.2655 -7559.6362 291.0886 -320.1520 -235.8168 30006.2691 -320.1520 -235.8168
ENERGY: 300000 2.3848 1.6355 2.1864 0.0000 -10602.0740 1304.8517 0.0000 0.0000 1788.5859 -7502.4297 304.1762 -9291.0156 -7561.7735 297.7712 -1302.2692 -1196.1294 30505.9707 -596.9243 -522.0727
ENERGY: 600000 2.7522 3.3182 2.6464 0.0000 -10796.9280 1528.4437 0.0000 0.0000 1807.7335 -7452.0340 307.4325 -9259.7675 -7523.0754 302.1038 621.2703 723.1612 30138.6246 -197.9145 -133.4148
ENERGY: 900000 2.3865 1.0053 3.0522 0.0000 -10631.2724 1424.7212 0.0000 0.0000 1749.1206 -7450.9866 297.4645 -9200.1071 -7513.2842 300.2996 -101.6323 -100.0606 30571.5708 -168.1205 -126.9470
ENERGY: 1200000 2.7123 2.3993 3.6299 0.0000 -10929.0745 1608.1837 0.0000 0.0000 1768.2273 -7543.9221 300.7139 -9312.1494 -7509.2724 300.1623 1106.5174 1185.6102 30629.0321 -21.6774 27.4961
ENERGY: 1500000 1.2424 1.8821 1.4691 0.0000 -10876.5819 1538.2601 0.0000 0.0000 1742.5889 -7591.1393 296.3537 -9333.7282 -7520.1369 299.1363 685.7595 788.3178 30202.0062 70.3603 120.9363
TCL: Running FEP window   5: Lambda1 0.2    Lambda2 0.25   [dLambda 0.04999999999999999]
TCL: Setting parameter firsttimestep to 0
TCL: Setting parameter alchLambda to 0.2
Info: NONBONDED TABLE R-SQUARED SPACING: 0.0625
Info: NONBONDED TABLE SIZE: 705 POINTS
TCL: Setting parameter alchLambda2 to 0.25
Info: NONBONDED TABLE R-SQUARED SPACING: 0.0625
Info: NONBONDED TABLE SIZE: 705 POINTS
TCL: Running for 1500000 steps
ETITLE: TS BOND ANGLE DIHED IMPRP ELECT VDW BOUNDARY MISC KINETIC TOTAL TEMP POTENTIAL TOTALAVG TEMPAVG PRESSURE GPRESSURE VOLUME PRESSAVG GPRESSAVG
ENERGY: 0 1.2424 1.8821 1.4691 0.0000 -10876.5821 1539.3003 0.0000 0.0000 1741.7152 -7590.9730 296.2051 -9332.6882 -7590.9730 296.2051 715.7361 796.0307 30202.0062 715.7361 796.0307
ENERGY: 300000 2.5520 5.7560 4.2451 0.0000 -10646.9356 1404.2533 0.0000 0.0000 1786.6343 -7443.4949 303.8443 -9230.1292 -7483.3714 302.2749 -512.1522 -441.2751 30731.0891 -179.9197 -128.4843
ENERGY: 600000 4.9341 2.5571 2.5031 0.0000 -10612.9234 1389.7436 0.0000 0.0000 1803.2639 -7409.9215 306.6724 -9213.1854 -7495.4444 302.2709 -271.2233 -263.3018 30411.4017 -14.4687 35.8950
ENERGY: 900000 2.4046 2.4574 1.4241 0.0000 -10641.4244 1428.1517 0.0000 0.0000 1742.9299 -7464.0566 296.4117 -9206.9865 -7492.0380 300.6615 79.9308 114.5065 30372.0219 -103.0043 -54.5732
ENERGY: 1200000 1.7208 2.7476 6.6207 0.0000 -10726.6254 1440.5782 0.0000 0.0000 1823.6207 -7451.3375 310.1344 -9274.9581 -7491.7480 300.9410 -24.1784 26.7133 30415.6650 -42.5282 5.5396
ENERGY: 1500000 2.9298 3.5102 3.5001 0.0000 -10736.7859 1442.2783 0.0000 0.0000 1710.6988 -7573.8687 290.9303 -9284.5675 -7491.3375 300.7799 -167.1773 -73.0342 30150.2399 -45.7680 6.8117
TCL: Running FEP window   6: Lambda1 0.25   Lambda2 0.3    [dLambda 0.04999999999999999]
TCL: Setting parameter firsttimestep to 0
TCL: Setting parameter alchLambda to 0.25
Info: NONBONDED TABLE R-SQUARED SPACING: 0.0625
Info: NONBONDED TABLE SIZE: 705 POINTS
TCL: Setting parameter alchLambda2 to 0.3
Info: NONBONDED TABLE R-SQUARED SPACING: 0.0625
Info: NONBONDED TABLE SIZE: 705 POINTS
TCL: Running for 1500000 steps
ETITLE: TS BOND ANGLE DIHED IMPRP ELECT VDW BOUNDARY MISC KINETIC TOTAL TEMP POTENTIAL TOTALAVG TEMPAVG PRESSURE GPRESSURE VOLUME PRESSAVG GPRESSAVG
ENERGY: 0 2.9298 3.5102 3.5001 0.0000 -10736.7875 1441.9477 0.0000 0.0000 1709.8713 -7575.0283 290.7896 -9284.8997 -7575.0283 290.7896 -148.0253 -72.5087 30150.2399 -148.0253 -72.5087
ENERGY: 300000 1.7134 4.1902 2.8883 0.0000 -10815.2473 1482.4335 0.0000 0.0000 1748.8598 -7575.1621 297.4202 -9324.0219 -7534.6025 297.1193 297.5669 369.8620 29997.0811 -215.6940 -115.4091
ENERGY: 600000 0.9243 0.7392 3.7304 0.0000 -10650.1462 1358.1540 0.0000 0.0000 1718.5654 -7568.0329 292.2681 -9286.5983 -7511.5253 299.5077 -645.1709 -580.8003 30222.8255 -304.1737 -226.6353
ENERGY: 900000 1.6241 1.4129 2.7583 0.0000 -10641.0013 1344.8470 0.0000 0.0000 1679.3577 -7611.0013 285.6003 -9290.3590 -7511.8535 298.3644 -1010.9208 -1012.8212 30775.9430 -398.1929 -332.1857
ENERGY: 1200000 2.3522 3.2037 0.3306 0.0000 -10742.4453 1517.6412 0.0000 0.0000 1832.3455 -7386.5721 311.6182 -9218.9176 -7510.0787 298.9991 632.8061 703.7373 30565.2595 -272.1020 -202.0006
ENERGY: 1500000 2.0275 1.4326 2.4333 0.0000 -10684.1410 1423.5380 0.0000 0.0000 1727.6314 -7527.0782 293.8100 -9254.7096 -7517.0021 298.9977 -364.9613 -293.4757 30508.7123 -249.1141 -181.3919
TCL: Running FEP window   7: Lambda1 0.3    Lambda2 0.35   [dLambda 0.04999999999999999]
TCL: Setting parameter firsttimestep to 0
TCL: Setting parameter alchLambda to 0.3
Info: NONBONDED TABLE R-SQUARED SPACING: 0.0625
Info: NONBONDED TABLE SIZE: 705 POINTS
TCL: Setting parameter alchLambda2 to 0.35
Info: NONBONDED TABLE R-SQUARED SPACING: 0.0625
Info: NONBONDED TABLE SIZE: 705 POINTS
TCL: Running for 1500000 steps
ETITLE: TS BOND ANGLE DIHED IMPRP ELECT VDW BOUNDARY MISC KINETIC TOTAL TEMP POTENTIAL TOTALAVG TEMPAVG PRESSURE GPRESSURE VOLUME PRESSAVG GPRESSAVG
ENERGY: 0 2.0275 1.4326 2.4333 0.0000 -10684.1405 1423.9517 0.0000 0.0000 1726.7457 -7527.5497 293.6593 -9254.2953 -7527.5497 293.6593 -379.3182 -286.6504 30508.7123 -379.3182 -286.6504
ENERGY: 300000 2.7318 1.8680 3.4635 0.0000 -10666.5530 1421.8818 0.0000 0.0000 1790.6519 -7445.9559 304.5276 -9236.6078 -7465.9463 302.3681 -127.3438 -70.9864 30584.7588 231.5773 287.8629
ENERGY: 600000 1.1306 2.4143 4.9234 0.0000 -10812.5014 1464.1673 0.0000 0.0000 1731.6923 -7608.1734 294.5006 -9339.8657 -7472.1387 302.6318 -50.3086 -15.7324 30114.2781 -25.7941 20.3176
ENERGY: 900000 3.1645 1.1188 3.6363 0.0000 -10629.4078 1386.0265 0.0000 0.0000 1770.7786 -7464.6832 301.1478 -9235.4618 -7479.7273 301.9136 -639.0100 -484.7444 30845.4006 -168.6698 -109.4243
ENERGY: 1200000 1.9038 2.9291 3.6368 0.0000 -10605.5202 1374.1858 0.0000 0.0000 1744.0111 -7478.8534 296.5956 -9222.8646 -7482.5900 301.2476 -648.1397 -522.9917 30602.8749 -230.3910 -162.0289
ENERGY: 1500000 1.6583 6.5462 1.5050 0.0000 -10626.5972 1373.4424 0.0000 0.0000 1762.1694 -7481.2759 299.6837 -9243.4453 -7482.6752 301.1258 -609.0655 -507.2151 30525.6194 -212.2517 -142.8309
TCL: Running FEP window   8: Lambda1 0.35   Lambda2 0.39999999999999997 [dLambda 0.04999999999999999]
TCL: Setting parameter firsttimestep to 0
TCL: Setting parameter alchLambda to 0.35
Info: NONBONDED TABLE R-SQUARED SPACING: 0.0625
Info: NONBONDED TABLE SIZE: 705 POINTS
TCL: Setting parameter alchLambda2 to 0.39999999999999997
Info: NONBONDED TABLE R-SQUARED SPACING: 0.0625
Info: NONBONDED TABLE SIZE: 705 POINTS
TCL: Running for 1500000 steps
ETITLE: TS BOND ANGLE DIHED IMPRP ELECT VDW BOUNDARY MISC KINETIC TOTAL TEMP POTENTIAL TOTALAVG TEMPAVG PRESSURE GPRESSURE VOLUME PRESSAVG GPRESSAVG
ENERGY: 0 1.6583 6.5462 1.5050 0.0000 -10626.5978 1373.1801 0.0000 0.0000 1761.2527 -7482.4556 299.5278 -9243.7082 -7482.4556 299.5278 -597.3321 -504.7104 30525.6194 -597.3321 -504.7104
ENERGY: 300000 3.4920 2.8526 3.2042 0.0000 -10750.4866 1440.2067 0.0000 0.0000 1772.2972 -7528.4339 301.4060 -9300.7311 -7494.0357 301.2251 2.4113 79.7480 30059.3864 -94.7856 -42.5407
ENERGY: 600000 2.0610 4.4502 3.9872 0.0000 -10707.7730 1482.5192 0.0000 0.0000 1768.1320 -7446.6233 300.6977 -9214.7553 -7494.3328 300.3790 423.8932 435.9925 30617.6680 32.8768 76.3850
ENERGY: 900000 2.0532 1.9653 4.3174 0.0000 -10794.2777 1481.1939 0.0000 0.0000 1810.0603 -7494.6875 307.8282 -9304.7478 -7499.5771 301.0709 96.0523 218.8673 30451.3868 -31.4706 22.7462
ENERGY: 1200000 4.1717 3.2570 4.9489 0.0000 -10678.7517 1417.5942 0.0000 0.0000 1815.0468 -7433.7333 308.6763 -9248.7801 -7507.3773 301.1020 -220.4863 -200.3595 30527.6570 -58.1703 -10.1241
ENERGY: 1500000 3.0400 3.7463 2.6248 0.0000 -10585.0303 1369.9519 0.0000 0.0000 1793.7818 -7411.8854 305.0598 -9205.6672 -7500.5553 301.3751 -551.3773 -518.7561 30798.4144 -51.0319 -0.6011
TCL: Running FEP window   9: Lambda1 0.39999999999999997 Lambda2 0.44999999999999996 [dLambda 0.04999999999999999]
TCL: Setting parameter firsttimestep to 0
TCL: Setting parameter alchLambda to 0.39999999999999997
Info: NONBONDED TABLE R-SQUARED SPACING: 0.0625
Info: NONBONDED TABLE SIZE: 705 POINTS
TCL: Setting parameter alchLambda2 to 0.44999999999999996
Info: NONBONDED TABLE R-SQUARED SPACING: 0.0625
Info: NONBONDED TABLE SIZE: 705 POINTS
TCL: Running for 1500000 steps
ETITLE: TS BOND ANGLE DIHED IMPRP ELECT VDW BOUNDARY MISC KINETIC TOTAL TEMP POTENTIAL TOTALAVG TEMPAVG PRESSURE GPRESSURE VOLUME PRESSAVG GPRESSAVG
ENERGY: 0 3.0400 3.7463 2.6248 0.0000 -10585.0309 1370.1894 0.0000 0.0000 1792.8689 -7412.5615 304.9046 -9205.4304 -7412.5615 304.9046 -597.9951 -508.8648 30798.4144 -597.9951 -508.8648
ENERGY: 300000 1.4608 1.1744 4.6508 0.0000 -10767.8738 1379.8251 0.0000 0.0000 1770.1055 -7610.6572 301.0333 -9380.7627 -7524.9476 299.9009 -632.7766 -586.9810 30172.6754 -166.1095 -83.7578
ENERGY: 600000 1.3508 1.9172 1.1587 0.0000 -10585.7906 1372.5837 0.0000 0.0000 1791.9726 -7416.8075 304.7522 -9208.7802 -7497.3692 301.1808 -102.2737 -108.4742 30313.6853 -141.9604 -80.7462
ENERGY: 900000 1.8530 2.2730 2.1681 0.0000 -10710.8709 1487.1662 0.0000 0.0000 1827.1220 -7390.2886 310.7299 -9217.4106 -7483.2959 301.1171 438.5615 517.2667 30656.2763 -132.6152 -67.1946
ENERGY: 1200000 3.3517 1.6775 2.5926 0.0000 -10692.8044 1445.9030 0.0000 0.0000 1799.7948 -7439.4849 306.0824 -9239.2796 -7485.9519 300.9367 364.1857 313.1770 30218.5965 -29.1964 28.3061
ENERGY: 1500000 3.0919 1.4322 3.5605 0.0000 -10800.5772 1501.4110 0.0000 0.0000 1749.1370 -7541.9446 297.4673 -9291.0816 -7498.5530 300.2546 349.4996 381.1815 30381.6570 40.8107 90.8961
TCL: Running FEP window  10: Lambda1 0.44999999999999996 Lambda2 0.49999999999999994 [dLambda 0.04999999999999999]
TCL: Setting parameter firsttimestep to 0
TCL: Setting parameter alchLambda to 0.44999999999999996
Info: NONBONDED TABLE R-SQUARED SPACING: 0.0625
Info: NONBONDED TABLE SIZE: 705 POINTS
TCL: Setting parameter alchLambda2 to 0.49999999999999994
Info: NONBONDED TABLE R-SQUARED SPACING: 0.0625
Info: NONBONDED TABLE SIZE: 705 POINTS
TCL: Running for 1500000 steps
ETITLE: TS BOND ANGLE DIHED IMPRP ELECT VDW BOUNDARY MISC KINETIC TOTAL TEMP POTENTIAL TOTALAVG TEMPAVG PRESSURE GPRESSURE VOLUME PRESSAVG GPRESSAVG
ENERGY: 0 3.0919 1.4322 3.5605 0.0000 -10800.5778 1500.9922 0.0000 0.0000 1748.2580 -7543.2431 297.3178 -9291.5010 -7543.2431 297.3178 299.1826 383.7774 30381.6570 299.1826 383.7774
ENERGY: 300000 2.6336 3.1446 2.4154 0.0000 -10564.1345 1381.5090 0.0000 0.0000 1752.7088 -7421.7232 298.0747 -9174.4320 -7497.6188 295.8349 -445.9645 -379.1898 30681.1950 3.1516 62.5231
ENERGY: 600000 2.2032 3.0888 2.9510 0.0000 -10791.6826 1486.8949 0.0000 0.0000 1799.5646 -7496.9802 306.0433 -9296.5447 -7513.6217 297.6935 113.4495 146.6363 30699.2052 -60.1391 -13.6601
ENERGY: 900000 2.9332 1.3023 1.7865 0.0000 -10490.9861 1339.6589 0.0000 0.0000 1747.5751 -7397.7301 297.2017 -9145.3052 -7494.7613 299.0762 -848.4151 -760.1728 30866.6206 -129.5782 -75.6055
ENERGY: 1200000 2.8291 2.1906 4.4261 0.0000 -10708.2525 1439.0499 0.0000 0.0000 1792.0932 -7467.6636 304.7727 -9259.7568 -7499.6938 299.4688 180.3835 215.2623 30012.9200 -71.8195 -12.9965
ENERGY: 1500000 1.7951 2.7056 2.8951 0.0000 -10650.4820 1392.0472 0.0000 0.0000 1766.2959 -7484.7432 300.3854 -9251.0391 -7488.5295 300.6166 -173.5388 -143.8260 30382.8299 -90.1677 -33.5593
TCL: Running FEP window  11: Lambda1 0.49999999999999994 Lambda2 0.5499999999999999 [dLambda 0.04999999999999999]
TCL: Setting parameter firsttimestep to 0
TCL: Setting parameter alchLambda to 0.49999999999999994
Info: NONBONDED TABLE R-SQUARED SPACING: 0.0625
Info: NONBONDED TABLE SIZE: 705 POINTS
TCL: Setting parameter alchLambda2 to 0.5499999999999999
Info: NONBONDED TABLE R-SQUARED SPACING: 0.0625
Info: NONBONDED TABLE SIZE: 705 POINTS
TCL: Running for 1500000 steps
ETITLE: TS BOND ANGLE DIHED IMPRP ELECT VDW BOUNDARY MISC KINETIC TOTAL TEMP POTENTIAL TOTALAVG TEMPAVG PRESSURE GPRESSURE VOLUME PRESSAVG GPRESSAVG
ENERGY: 0 1.7951 2.7056 2.8951 0.0000 -10650.4815 1391.6302 0.0000 0.0000 1765.4236 -7486.0319 300.2371 -9251.4555 -7486.0319 300.2371 -214.5342 -139.8929 30382.8299 -214.5342 -139.8929
ENERGY: 300000 2.3746 3.1517 4.9507 0.0000 -10754.5754 1499.6035 0.0000 0.0000 1775.0110 -7469.4839 301.8676 -9244.4949 -7470.3781 302.4244 238.4003 308.1556 30528.8186 -201.7929 -136.1994
ENERGY: 600000 4.3312 3.3773 1.2639 0.0000 -10663.3039 1455.4660 0.0000 0.0000 1742.1221 -7456.7435 296.2743 -9198.8656 -7487.1448 300.1935 123.8052 240.1497 30733.8653 -30.9425 49.8310
ENERGY: 900000 1.0006 3.3861 3.9817 0.0000 -10636.4721 1387.0762 0.0000 0.0000 1773.2195 -7467.8080 301.5629 -9241.0275 -7499.3458 299.8483 -171.5344 -171.7940 30192.3214 -121.2768 -63.4381
ENERGY: 1200000 1.5468 4.1130 1.1397 0.0000 -10695.5006 1425.4946 0.0000 0.0000 1793.7862 -7469.4202 305.0606 -9263.2064 -7489.7895 300.3202 67.0049 91.0083 30237.5535 -171.4989 -123.1930
ENERGY: 1500000 3.1418 3.6400 2.4336 0.0000 -10816.6577 1540.2119 0.0000 0.0000 1810.1092 -7457.1212 307.8366 -9267.2305 -7487.7126 300.8278 884.3671 900.4027 30242.8284 -88.0760 -40.6014
TCL: Running FEP window  12: Lambda1 0.5499999999999999 Lambda2 0.6    [dLambda 0.050000000000000044]
TCL: Setting parameter firsttimestep to 0
TCL: Setting parameter alchLambda to 0.5499999999999999
Info: NONBONDED TABLE R-SQUARED SPACING: 0.0625
Info: NONBONDED TABLE SIZE: 705 POINTS
TCL: Setting parameter alchLambda2 to 0.6
Info: NONBONDED TABLE R-SQUARED SPACING: 0.0625
Info: NONBONDED TABLE SIZE: 705 POINTS
TCL: Running for 1500000 steps
ETITLE: TS BOND ANGLE DIHED IMPRP ELECT VDW BOUNDARY MISC KINETIC TOTAL TEMP POTENTIAL TOTALAVG TEMPAVG PRESSURE GPRESSURE VOLUME PRESSAVG GPRESSAVG
ENERGY: 0 3.1418 3.6400 2.4336 0.0000 -10816.7190 1540.3455 0.0000 0.0000 1809.2522 -7457.9060 307.6908 -9267.1582 -7457.9060 307.6908 824.2746 909.4928 30242.8284 824.2746 909.4928
ENERGY: 300000 1.4198 2.4786 1.7762 0.0000 -10676.5453 1394.1949 0.0000 0.0000 1763.7306 -7512.9451 299.9492 -9276.6757 -7452.6926 302.8098 -479.7398 -377.4774 30377.6374 -302.8897 -220.1194
ENERGY: 600000 2.3298 1.8556 4.1210 0.0000 -10824.4014 1515.8363 0.0000 0.0000 1851.2497 -7449.0090 314.8331 -9300.2587 -7442.3749 304.1503 514.7041 572.0963 30414.4673 -46.4896 23.4088
ENERGY: 900000 3.3913 5.8081 2.3444 0.0000 -10632.7065 1390.1138 0.0000 0.0000 1754.3854 -7476.6635 298.3599 -9231.0489 -7465.7416 303.2377 -524.0103 -358.7986 30633.7279 -72.1602 9.6854
ENERGY: 1200000 3.3915 3.9711 1.3738 0.0000 -10716.2201 1476.8916 0.0000 0.0000 1776.3199 -7454.2721 302.0902 -9230.5921 -7475.3465 303.1395 460.5336 547.3063 30406.8515 -9.6044 69.0745
ENERGY: 1500000 3.0470 4.2773 2.1172 0.0000 -10803.2100 1494.6083 0.0000 0.0000 1767.4571 -7531.7030 300.5829 -9299.1601 -7481.8007 302.5015 476.2704 519.3654 30088.4601 49.7339 123.2875
TCL: Running FEP window  13: Lambda1 0.6    Lambda2 0.65   [dLambda 0.050000000000000044]
TCL: Setting parameter firsttimestep to 0
TCL: Setting parameter alchLambda to 0.6
Info: NONBONDED TABLE R-SQUARED SPACING: 0.0625
Info: NONBONDED TABLE SIZE: 705 POINTS
TCL: Setting parameter alchLambda2 to 0.65
Info: NONBONDED TABLE R-SQUARED SPACING: 0.0625
Info: NONBONDED TABLE SIZE: 705 POINTS
TCL: Running for 1500000 steps
ETITLE: TS BOND ANGLE DIHED IMPRP ELECT VDW BOUNDARY MISC KINETIC TOTAL TEMP POTENTIAL TOTALAVG TEMPAVG PRESSURE GPRESSURE VOLUME PRESSAVG GPRESSAVG
ENERGY: 0 3.0470 4.2773 2.1172 0.0000 -10803.2606 1494.0576 0.0000 0.0000 1766.5721 -7533.1894 300.4324 -9299.7615 -7533.1894 300.4324 438.1283 522.5227 30088.4601 438.1283 522.5227
ENERGY: 300000 2.3466 2.2427 2.0536 0.0000 -10582.1216 1410.7467 0.0000 0.0000 1767.8314 -7396.9006 300.6466 -9164.7320 -7509.1649 296.9161 127.5808 174.3878 30546.9736 -23.2599 40.3351
ENERGY: 600000 6.7002 2.2083 1.0411 0.0000 -10829.7569 1449.1391 0.0000 0.0000 1775.1263 -7595.5420 301.8872 -9370.6682 -7530.6163 299.4185 -344.7970 -311.9730 30261.3405 -129.1270 -76.9980
ENERGY: 900000 2.0866 0.7341 2.5445 0.0000 -10879.6096 1583.8140 0.0000 0.0000 1751.7526 -7538.6777 297.9121 -9290.4303 -7522.9635 298.7926 949.3435 1010.8907 30500.0592 -55.5171 2.1760
ENERGY: 1200000 1.8825 5.3677 5.9664 0.0000 -10772.7869 1445.6251 0.0000 0.0000 1739.2219 -7574.7233 295.7811 -9313.9452 -7529.1678 299.2557 75.4909 172.7814 29919.4805 -88.6544 -25.9204
ENERGY: 1500000 0.3546 2.2399 1.2384 0.0000 -10678.0465 1416.4767 0.0000 0.0000 1732.2409 -7525.4959 294.5939 -9257.7368 -7519.9910 299.0773 -6.0149 52.9831 30236.5904 -107.7516 -45.2349
TCL: Running FEP window  14: Lambda1 0.65   Lambda2 0.7000000000000001 [dLambda 0.050000000000000044]
TCL: Setting parameter firsttimestep to 0
TCL: Setting parameter alchLambda to 0.65
Info: NONBONDED TABLE R-SQUARED SPACING: 0.0625
Info: NONBONDED TABLE SIZE: 705 POINTS
TCL: Setting parameter alchLambda2 to 0.7000000000000001
Info: NONBONDED TABLE R-SQUARED SPACING: 0.0625
Info: NONBONDED TABLE SIZE: 705 POINTS
TCL: Running for 1500000 steps
ETITLE: TS BOND ANGLE DIHED IMPRP ELECT VDW BOUNDARY MISC KINETIC TOTAL TEMP POTENTIAL TOTALAVG TEMPAVG PRESSURE GPRESSURE VOLUME PRESSAVG GPRESSAVG
ENERGY: 0 0.3546 2.2399 1.2384 0.0000 -10678.1465 1416.0419 0.0000 0.0000 1731.3558 -7526.9158 294.4433 -9258.2716 -7526.9158 294.4433 -41.1586 55.9335 30236.5904 -41.1586 55.9335
ENERGY: 300000 1.8733 1.2948 4.0098 0.0000 -10684.9648 1409.5300 0.0000 0.0000 1768.0796 -7500.1772 300.6888 -9268.2569 -7477.5705 303.1144 -404.0677 -375.5781 30630.4534 -315.3875 -242.5566
ENERGY: 600000 2.8314 1.9039 1.7098 0.0000 -10674.3799 1401.5993 0.0000 0.0000 1796.0851 -7470.2504 305.4516 -9266.3355 -7495.6217 302.8774 -234.1308 -209.2536 30501.2796 -401.3496 -317.4911
ENERGY: 900000 1.9006 2.5234 1.8718 0.0000 -10734.2499 1429.0071 0.0000 0.0000 1732.7713 -7566.1756 294.6841 -9298.9470 -7499.0941 302.0501 -262.3707 -214.1428 30524.1149 -214.0608 -145.9504
ENERGY: 1200000 1.9560 1.4477 4.5697 0.0000 -10742.5826 1430.9627 0.0000 0.0000 1753.9190 -7549.7275 298.2806 -9303.6465 -7509.8760 300.3916 -271.4857 -212.9761 30630.8446 -316.0343 -250.4708
ENERGY: 1500000 4.4708 1.2807 1.6432 0.0000 -10721.7479 1457.5206 0.0000 0.0000 1757.3149 -7499.5178 298.8581 -9256.8327 -7505.6351 300.1240 -98.8412 -44.7134 30800.4830 -263.0369 -204.1171
TCL: Running FEP window  15: Lambda1 0.7000000000000001 Lambda2 0.7500000000000001 [dLambda 0.050000000000000044]
TCL: Setting parameter firsttimestep to 0
TCL: Setting parameter alchLambda to 0.7000000000000001
Info: NONBONDED TABLE R-SQUARED SPACING: 0.0625
Info: NONBONDED TABLE SIZE: 705 POINTS
TCL: Setting parameter alchLambda2 to 0.7500000000000001
Info: NONBONDED TABLE R-SQUARED SPACING: 0.0625
Info: NONBONDED TABLE SIZE: 705 POINTS
TCL: Running for 1500000 steps
ETITLE: TS BOND ANGLE DIHED IMPRP ELECT VDW BOUNDARY MISC KINETIC TOTAL TEMP POTENTIAL TOTALAVG TEMPAVG PRESSURE GPRESSURE VOLUME PRESSAVG GPRESSAVG
ENERGY: 0 4.4708 1.2807 1.6432 0.0000 -10721.7946 1457.3478 0.0000 0.0000 1756.4379 -7500.6142 298.7089 -9257.0521 -7500.6142 298.7089 -121.3336 -38.5197 30800.4830 -121.3336 -38.5197
ENERGY: 300000 3.2571 2.2053 1.1658 0.0000 -10740.5643 1492.3681 0.0000 0.0000 1823.0512 -7418.5167 310.0375 -9241.5679 -7494.3482 305.3867 106.9221 124.7397 31049.4732 -101.8603 -61.2822
ENERGY: 600000 4.1570 1.7046 2.7959 0.0000 -10597.6536 1391.2506 0.0000 0.0000 1716.0513 -7481.6943 291.8406 -9197.7456 -7472.6592 301.5576 -298.1548 -191.8654 30512.1120 -140.3903 -82.8398
ENERGY: 900000 3.8847 3.9069 5.0187 0.0000 -10724.3042 1439.3304 0.0000 0.0000 1704.4994 -7567.6641 289.8760 -9272.1635 -7489.8340 298.6816 14.8313 118.2779 30285.0503 -296.2192 -230.7969
ENERGY: 1200000 3.9639 4.5118 3.3590 0.0000 -10786.4935 1475.1732 0.0000 0.0000 1803.1684 -7496.3171 306.6562 -9299.4855 -7493.1069 298.9511 372.5869 451.0258 30016.6997 -257.5959 -191.6684
ENERGY: 1500000 2.1899 3.2385 1.7447 0.0000 -10724.3016 1460.3756 0.0000 0.0000 1770.0448 -7486.7081 301.0230 -9256.7529 -7494.1600 299.0388 88.6612 196.0608 30591.9289 -257.1288 -192.3592
TCL: Running FEP window  16: Lambda1 0.7500000000000001 Lambda2 0.8000000000000002 [dLambda 0.050000000000000044]
TCL: Setting parameter firsttimestep to 0
TCL: Setting parameter alchLambda to 0.7500000000000001
Info: NONBONDED TABLE R-SQUARED SPACING: 0.0625
Info: NONBONDED TABLE SIZE: 705 POINTS
TCL: Setting parameter alchLambda2 to 0.8000000000000002
Info: NONBONDED TABLE R-SQUARED SPACING: 0.0625
Info: NONBONDED TABLE SIZE: 705 POINTS
TCL: Running for 1500000 steps
ETITLE: TS BOND ANGLE DIHED IMPRP ELECT VDW BOUNDARY MISC KINETIC TOTAL TEMP POTENTIAL TOTALAVG TEMPAVG PRESSURE GPRESSURE VOLUME PRESSAVG GPRESSAVG
ENERGY: 0 2.1899 3.2385 1.7447 0.0000 -10724.7697 1459.8299 0.0000 0.0000 1769.1611 -7488.6056 300.8727 -9257.7667 -7488.6056 300.8727 100.4287 194.6143 30591.9289 100.4287 194.6143
ENERGY: 300000 1.5135 0.9909 2.6520 0.0000 -10683.8241 1420.4129 0.0000 0.0000 1799.8772 -7458.3776 306.0964 -9258.2548 -7517.5148 297.9647 46.9202 158.1659 30421.3283 111.6013 201.8727
ENERGY: 600000 3.6919 4.4950 3.5374 0.0000 -10957.8825 1546.7527 0.0000 0.0000 1775.9862 -7623.4193 302.0334 -9399.4055 -7510.2511 299.3072 332.2449 422.6498 30272.0793 12.7651 80.2450
ENERGY: 900000 2.1758 5.3362 1.9221 0.0000 -10817.0820 1481.4395 0.0000 0.0000 1725.4572 -7600.7513 293.4402 -9326.2085 -7528.4141 298.3442 466.0960 526.3276 29953.3753 96.8255 164.6030
ENERGY: 1200000 2.2695 3.1460 1.7513 0.0000 -10642.6717 1391.2032 0.0000 0.0000 1789.0135 -7455.2882 304.2489 -9244.3017 -7519.8176 299.4617 -427.1647 -365.8918 30712.8953 2.0451 70.7679
ENERGY: 1500000 0.4369 3.0655 0.9570 0.0000 -10696.8245 1415.2188 0.0000 0.0000 1758.5526 -7518.5937 299.0686 -9277.1463 -7510.4484 300.0359 -418.9394 -313.5851 30810.6887 -59.7672 8.8647
TCL: Running FEP window  17: Lambda1 0.8000000000000002 Lambda2 0.8500000000000002 [dLambda 0.050000000000000044]
TCL: Setting parameter firsttimestep to 0
TCL: Setting parameter alchLambda to 0.8000000000000002
Info: NONBONDED TABLE R-SQUARED SPACING: 0.0625
Info: NONBONDED TABLE SIZE: 705 POINTS
TCL: Setting parameter alchLambda2 to 0.8500000000000002
Info: NONBONDED TABLE R-SQUARED SPACING: 0.0625
Info: NONBONDED TABLE SIZE: 705 POINTS
TCL: Running for 1500000 steps
ETITLE: TS BOND ANGLE DIHED IMPRP ELECT VDW BOUNDARY MISC KINETIC TOTAL TEMP POTENTIAL TOTALAVG TEMPAVG PRESSURE GPRESSURE VOLUME PRESSAVG GPRESSAVG
ENERGY: 0 0.4369 3.0655 0.9570 0.0000 -10696.8144 1415.0756 0.0000 0.0000 1757.6532 -7519.6263 298.9156 -9277.2795 -7519.6263 298.9156 -387.6101 -303.1624 30810.6887 -387.6101 -303.1624
ENERGY: 300000 2.3127 2.2428 1.6951 0.0000 -10751.6295 1462.0587 0.0000 0.0000 1737.9205 -7545.3998 295.5598 -9283.3203 -7542.7223 295.3766 285.3650 304.8115 30301.0965 -168.5214 -130.6737
ENERGY: 600000 0.6423 2.7067 2.0943 0.0000 -10703.2674 1449.3317 0.0000 0.0000 1783.6192 -7464.8732 303.3315 -9248.4924 -7529.2448 295.7724 217.9169 261.0417 30293.9324 -165.2028 -119.7954
ENERGY: 900000 2.5252 2.1073 4.0157 0.0000 -10660.1239 1401.1454 0.0000 0.0000 1791.3201 -7459.0103 304.6412 -9250.3304 -7515.0033 298.9848 -417.4046 -321.1630 30545.7495 -141.9190 -98.2402
ENERGY: 1200000 2.5119 3.0301 2.4766 0.0000 -10633.8491 1393.1205 0.0000 0.0000 1787.7167 -7444.9934 304.0284 -9232.7101 -7501.8011 300.4236 -62.8035 -8.0935 30218.6769 -104.1529 -60.1132
ENERGY: 1500000 0.7655 1.2573 1.2660 0.0000 -10735.7875 1419.7261 0.0000 0.0000 1718.2410 -7594.5316 292.2130 -9312.7726 -7503.4322 300.8571 -203.0532 -181.6935 30347.0837 -75.9684 -32.1591
TCL: Running FEP window  18: Lambda1 0.8500000000000002 Lambda2 0.9000000000000002 [dLambda 0.050000000000000044]
TCL: Setting parameter firsttimestep to 0
TCL: Setting parameter alchLambda to 0.8500000000000002
Info: NONBONDED TABLE R-SQUARED SPACING: 0.0625
Info: NONBONDED TABLE SIZE: 705 POINTS
TCL: Setting parameter alchLambda2 to 0.9000000000000002
Info: NONBONDED TABLE R-SQUARED SPACING: 0.0625
Info: NONBONDED TABLE SIZE: 705 POINTS
TCL: Running for 1500000 steps
ETITLE: TS BOND ANGLE DIHED IMPRP ELECT VDW BOUNDARY MISC KINETIC TOTAL TEMP POTENTIAL TOTALAVG TEMPAVG PRESSURE GPRESSURE VOLUME PRESSAVG GPRESSAVG
ENERGY: 0 0.7655 1.2573 1.2660 0.0000 -10736.1250 1419.9231 0.0000 0.0000 1717.3666 -7595.5466 292.0643 -9312.9132 -7595.5466 292.0643 -250.7104 -169.0449 30347.0837 -250.7104 -169.0449
ENERGY: 300000 2.9625 1.3671 1.7922 0.0000 -10527.3901 1380.8599 0.0000 0.0000 1774.7437 -7365.6646 301.8221 -9140.4083 -7476.6430 297.6108 -184.4991 -161.8846 30635.3548 -241.4783 -181.7797
ENERGY: 600000 3.5302 2.2109 1.4379 0.0000 -10670.8021 1458.0625 0.0000 0.0000 1784.1520 -7421.4086 303.4221 -9205.5605 -7471.3644 300.5028 62.5229 88.4376 30933.9545 -119.3558 -58.8897
ENERGY: 900000 1.5515 0.5051 1.0310 0.0000 -10697.4091 1442.7447 0.0000 0.0000 1778.1016 -7473.4750 302.3932 -9251.5767 -7466.6335 301.0772 364.7861 412.5224 29966.4039 -118.1955 -61.7913
ENERGY: 1200000 2.0226 2.8299 1.7049 0.0000 -10711.2074 1469.0346 0.0000 0.0000 1688.5249 -7547.0905 287.1593 -9235.6155 -7473.1206 299.8707 287.8375 411.8415 30392.9458 -103.4271 -42.5701
ENERGY: 1500000 1.6497 1.4476 3.9157 0.0000 -10683.9843 1409.4873 0.0000 0.0000 1743.6115 -7523.8725 296.5276 -9267.4840 -7482.5894 299.1652 59.8989 72.0706 30511.4488 -164.2729 -109.1980
TCL: Running FEP window  19: Lambda1 0.9000000000000002 Lambda2 0.9500000000000003 [dLambda 0.050000000000000044]
TCL: Setting parameter firsttimestep to 0
TCL: Setting parameter alchLambda to 0.9000000000000002
Info: NONBONDED TABLE R-SQUARED SPACING: 0.0625
Info: NONBONDED TABLE SIZE: 705 POINTS
TCL: Setting parameter alchLambda2 to 0.9500000000000003
Info: NONBONDED TABLE R-SQUARED SPACING: 0.0625
Info: NONBONDED TABLE SIZE: 705 POINTS
TCL: Running for 1500000 steps
ETITLE: TS BOND ANGLE DIHED IMPRP ELECT VDW BOUNDARY MISC KINETIC TOTAL TEMP POTENTIAL TOTALAVG TEMPAVG PRESSURE GPRESSURE VOLUME PRESSAVG GPRESSAVG
ENERGY: 0 1.6497 1.4476 3.9157 0.0000 -10684.1719 1409.6115 0.0000 0.0000 1742.7179 -7524.8295 296.3757 -9267.5475 -7524.8295 296.3757 0.8439 85.3742 30511.4488 0.8439 85.3742
ENERGY: 300000 1.6506 6.1115 3.9229 0.0000 -10821.0017 1528.0127 0.0000 0.0000 1768.1513 -7513.1527 300.7010 -9281.3040 -7504.2989 299.1572 649.0660 644.7773 30586.0628 159.9377 207.9423
ENERGY: 600000 2.0844 4.5091 4.5502 0.0000 -10647.5620 1351.0033 0.0000 0.0000 1762.6643 -7522.7507 299.7678 -9285.4149 -7510.2770 299.6485 -777.9646 -730.8607 30682.0625 52.5248 110.9661
ENERGY: 900000 0.8652 2.6749 3.6897 0.0000 -10665.5016 1420.3969 0.0000 0.0000 1775.8701 -7462.0047 302.0137 -9237.8748 -7508.2002 299.4133 -64.6635 -7.4085 30682.0823 61.8328 112.8543
ENERGY: 1200000 1.7162 1.8027 4.7763 0.0000 -10773.0937 1479.2278 0.0000 0.0000 1732.0297 -7553.5410 294.5580 -9285.5707 -7517.4896 298.9625 202.3586 271.2861 30561.1080 -4.5216 54.7968
ENERGY: 1500000 5.4924 3.2486 3.9861 0.0000 -10701.9710 1364.2184 0.0000 0.0000 1740.3801 -7584.6453 295.9781 -9325.0254 -7522.0310 298.7337 -719.0113 -648.1996 30257.5640 -80.1206 -23.5216
TCL: Running FEP window  20: Lambda1 0.9500000000000003 Lambda2 1.0    [dLambda 0.04999999999999971]
TCL: Setting parameter firsttimestep to 0
TCL: Setting parameter alchLambda to 0.9500000000000003
Info: NONBONDED TABLE R-SQUARED SPACING: 0.0625
Info: NONBONDED TABLE SIZE: 705 POINTS
TCL: Setting parameter alchLambda2 to 1.0
Info: NONBONDED TABLE R-SQUARED SPACING: 0.0625
Info: NONBONDED TABLE SIZE: 705 POINTS
TCL: Running for 1500000 steps
ETITLE: TS BOND ANGLE DIHED IMPRP ELECT VDW BOUNDARY MISC KINETIC TOTAL TEMP POTENTIAL TOTALAVG TEMPAVG PRESSURE GPRESSURE VOLUME PRESSAVG GPRESSAVG
ENERGY: 0 5.4924 3.2486 3.9861 0.0000 -10702.3823 1363.6201 0.0000 0.0000 1739.4625 -7586.5726 295.8220 -9326.0351 -7586.5726 295.8220 -719.9008 -639.3124 30257.5640 -719.9008 -639.3124
ENERGY: 300000 1.0932 3.0222 5.2764 0.0000 -10720.5048 1431.3253 0.0000 0.0000 1799.1175 -7480.6701 305.9673 -9279.7876 -7555.7723 297.3358 -174.4545 -154.7729 30861.3266 -10.4977 54.7328
ENERGY: 600000 5.2759 3.4816 2.2770 0.0000 -10666.2592 1418.7477 0.0000 0.0000 1759.3446 -7477.1324 299.2033 -9236.4770 -7525.2948 297.4502 -220.5766 -209.9269 30598.7468 -64.3444 -14.6356
ENERGY: 900000 2.2628 2.4414 0.7272 0.0000 -10775.7463 1496.1128 0.0000 0.0000 1774.6015 -7499.6006 301.7979 -9274.2021 -7519.7137 298.7782 439.8309 511.4126 30368.9032 -40.9558 15.3349
ENERGY: 1200000 4.7526 3.6836 5.2771 0.0000 -10759.4552 1466.2970 0.0000 0.0000 1787.1186 -7492.3264 303.9267 -9279.4450 -7517.6715 299.5084 187.4309 263.9333 30394.6883 -32.5268 29.3150
ENERGY: 1500000 3.2791 2.8401 1.8672 0.0000 -10693.0882 1407.5926 0.0000 0.0000 1756.1855 -7521.3238 298.6660 -9277.5092 -7512.7852 300.1557 -173.0662 -107.9444 30375.6519 -14.9218 46.1432
TCL: Exiting due to exit command.
