Info: SIMULATION PARAMETERS:
Info: TIMESTEP               2
Info: NUMBER OF STEPS        0
Info: STEPS PER CYCLE        10
Info: PERIODIC CELL BASIS 1  30.0498 0 0
Info: PERIODIC CELL BASIS 2  0 30.3304 0
Info: PERIODIC CELL BASIS 3  0 0 32.9288
Info: PERIODIC CELL CENTER   0 0 0
Info: WRAPPING WATERS AROUND PERIODIC BOUNDARIES ON OUTPUT.
Info: WRAPPING ALL CLUSTERS AROUND PERIODIC BOUNDARIES ON OUTPUT.
Info: FIRST LDB TIMESTEP     50
Info: LAST LDB TIMESTEP     -1
Info: HOM BACKGROUND SCALING 1
Info: PME BACKGROUND SCALING 1
Info: MIN ATOMS PER PATCH    40
Info: EMPTY PATCH LOAD       40 ATOMS
Info: VELOCITY FILE          mobley_1963873_equil.vel
Info: CENTER OF MASS MOVING INITIALLY? NO
Info: DIELECTRIC             1
Info: EXCLUDE                SCALED ONE-FOUR
Info: 1-4 ELECTROSTATICS SCALED BY 0.833333
Info: MODIFIED 1-4 VDW PARAMETERS WILL BE USED
Info: DCD FILENAME           mobley_1963873_prod.dcd
Info: DCD FREQUENCY          100000
Info: DCD FIRST STEP         100000
Info: DCD FILE WILL CONTAIN UNIT CELL DATA
Info: XST FILENAME           mobley_1963873_prod.xst
Info: XST FREQUENCY          100000
Info: NO VELOCITY DCD OUTPUT
Info: NO FORCE DCD OUTPUT
Info: OUTPUT FILENAME        mobley_1963873_prod
Info: BINARY OUTPUT FILES WILL BE USED
Info: RESTART FILENAME       mobley_1963873_prod.restart
Info: RESTART FREQUENCY      100000
Info: BINARY RESTART FILES WILL BE USED
Info: CUTOFF                 9
Info: PAIRLIST DISTANCE      11
Info: PAIRLIST SHRINK RATE   0.01
Info: PAIRLIST GROW RATE     0.01
Info: PAIRLIST TRIGGER       0.3
Info: PAIRLISTS PER CYCLE    2
Info: PAIRLISTS ENABLED
Info: MARGIN                 2
Info: HYDROGEN GROUP CUTOFF  2.5
Info: PATCH DIMENSION        15.5
Info: ENERGY OUTPUT STEPS    100000
Info: ENERGY EVALUATION STEPS    100000
Info: OUTPUT ENERGY PRECISION 4
Info: CROSSTERM ENERGY INCLUDED IN DIHEDRAL
Info: TIMING OUTPUT STEPS    1000000
Info: PRESSURE OUTPUT STEPS  100000
Info: ALCHEMICAL FEP ON
Info: FEP CURRENT LAMBDA VALUE     0
Info: FEP COMPARISON LAMBDA VALUE  0.05
Info: FEP INTRA-ALCHEMICAL NON-BONDED INTERACTIONS WILL BE RETAINED
Info: FEP INTRA-ALCHEMICAL BONDED INTERACTIONS WILL BE RETAINED
Info: FEP VDW SHIFTING COEFFICIENT 5
Info: FEP ELEC. ACTIVE FOR ANNIHILATED PARTICLES BETWEEN LAMBDA = 0 AND LAMBDA = 0.5
Info: FEP ELEC. ACTIVE FOR EXNIHILATED PARTICLES BETWEEN LAMBDA = 0.5 AND LAMBDA = 1
Info: FEP VDW ACTIVE FOR ANNIHILATED PARTICLES BETWEEN LAMBDA = 0 AND LAMBDA = 1
Info: FEP VDW ACTIVE FOR EXNIHILATED PARTICLES BETWEEN LAMBDA = 0 AND LAMBDA = 1
Info: FEP BOND ACTIVE FOR ANNIHILATED PARTICLES BETWEEN LAMBDA = 1 AND LAMBDA = 1
Info: FEP BOND ACTIVE FOR EXNIHILATED PARTICLES BETWEEN LAMBDA = 0 AND LAMBDA = 0
Info: LANGEVIN DYNAMICS ACTIVE
Info: LANGEVIN TEMPERATURE   300
Info: LANGEVIN USING BBK INTEGRATOR
Info: LANGEVIN DAMPING COEFFICIENT IS 1 INVERSE PS
Info: LANGEVIN DYNAMICS APPLIED TO HYDROGENS
Info: LANGEVIN PISTON PRESSURE CONTROL ACTIVE
Info:        TARGET PRESSURE IS 1.01325 BAR
Info:     OSCILLATION PERIOD IS 50 FS
Info:             DECAY TIME IS 25 FS
Info:     PISTON TEMPERATURE IS 300 K
Info:       PRESSURE CONTROL IS GROUP-BASED
Info:    INITIAL STRAIN RATE IS -0.000189435 -0.000189435 -0.000189435
Info:       CELL FLUCTUATION IS ISOTROPIC
Info: PARTICLE MESH EWALD (PME) ACTIVE
Info: PME TOLERANCE               1e-06
Info: PME EWALD COEFFICIENT       0.348832
Info: PME INTERPOLATION ORDER     4
Info: PME GRID DIMENSIONS         32 32 36
Info: PME MAXIMUM GRID SPACING    1
Info: PME CALCULATION WILL BE PERFORMED ON GPU
Info: FULL ELECTROSTATIC EVALUATION FREQUENCY      2
Info: USING VERLET I (r-RESPA) MTS SCHEME.
Info: C1 SPLITTING OF LONG RANGE ELECTROSTATICS
Info: PLACING ATOMS IN PATCHES BY HYDROGEN GROUPS
Info: RIGID BONDS TO HYDROGEN : ALL
Info:         ERROR TOLERANCE : 1e-08
Info:          MAX ITERATIONS : 100
Info: RIGID WATER USING SETTLE ALGORITHM
Info: RANDOM NUMBER SEED     1743520098
Info: USE HYDROGEN BONDS?    NO
Info: Using AMBER format force field!
Info: AMBER PARM FILE        mobley_1963873.prmtop
Info: COORDINATE PDB         mobley_1963873.pdb
Info: Exclusions will be read from PARM file!
Info: SCNB (VDW SCALING)     2
Info: USING ARITHMETIC MEAN TO COMBINE L-J SIGMA PARAMETERS
Info: BINARY COORDINATES     mobley_1963873_equil.coor
Info: SUMMARY OF PARAMETERS:
Info: 9 BONDS
Info: 10 ANGLES
Info:   10 HARMONIC
Info:   0 COSINE-BASED
Info: 9 DIHEDRAL
Info: 0 IMPROPER
Info: 0 CROSSTERM
Info: 0 VDW
Info: 45 VDW_PAIRS
Info: 0 NBTHOLE_PAIRS
Info: To read alchdata from file: mobley_1963873.pdb
Info: To read alchflag data from column: 5
Info: STRUCTURE SUMMARY:
Info: 2910 ATOMS
Info: 2909 BONDS
Info: 18 ANGLES
Info: 26 DIHEDRALS
Info: 0 IMPROPERS
Info: 0 CROSSTERMS
Info: 2943 EXCLUSIONS
Info: 2905 RIGID BONDS
Info: ALCH: 0 ATOMS TO DISAPPEAR IN FINAL STATE
Info: ALCH: 12 ATOMS TO APPEAR IN FINAL STATE
Info: 5825 DEGREES OF FREEDOM
Info: 971 HYDROGEN GROUPS
Info: 4 ATOMS IN LARGEST HYDROGEN GROUP
Info: 971 MIGRATION GROUPS
Info: 4 ATOMS IN LARGEST MIGRATION GROUP
Info: TOTAL MASS = 17476.6 amu
Info: TOTAL CHARGE = -0.000199951 e
Info: MASS DENSITY = 0.966985 g/cm^3
Info: ATOM DENSITY = 0.0969612 atoms/A^3
Info: ADDED 0 IMPLICIT EXCLUSIONS
Info: NONBONDED TABLE R-SQUARED SPACING: 0.0625
Info: NONBONDED TABLE SIZE: 705 POINTS
Info: REMOVING COM VELOCITY 0.0265631 0.0845863 0.0569791
Info: Use 3D box decompostion in PME FFT.
Info: Updated CUDA force table with 4096 elements.
Info: Updated CUDA LJ table with 9 x 9 elements.
Info: Found 15 unique exclusion lists needing 24 bytes
TCL: Running for 1500000 steps
ETITLE: TS BOND ANGLE DIHED IMPRP ELECT VDW BOUNDARY MISC KINETIC TOTAL TEMP POTENTIAL TOTALAVG TEMPAVG PRESSURE GPRESSURE VOLUME PRESSAVG GPRESSAVG
ENERGY: 0 3.3410 3.3494 5.3737 0.0000 -10654.3325 1469.1251 0.0000 0.0000 1731.1544 -7441.9890 299.1095 -9173.1434 -7441.9890 299.1095 85.9559 172.4718 30012.0136 85.9559 172.4718
ENERGY: 300000 0.1778 2.5718 6.7253 0.0000 -10639.6687 1416.9669 0.0000 0.0000 1740.0396 -7473.1873 300.6447 -9213.2269 -7467.4411 299.5912 -252.7243 -209.4833 29788.2383 146.2873 205.8765
ENERGY: 600000 0.2300 7.2637 6.8015 0.0000 -10557.1014 1370.4519 0.0000 0.0000 1757.9505 -7414.4037 303.7394 -9172.3542 -7461.9294 299.8382 -392.8127 -273.0922 29673.2151 -166.5702 -79.3128
ENERGY: 900000 1.4587 2.5537 6.6497 0.0000 -10583.5909 1420.9084 0.0000 0.0000 1709.8938 -7442.1266 295.4361 -9152.0205 -7450.8982 299.3640 121.4707 190.3503 29528.4170 -33.4248 54.4158
ENERGY: 1200000 2.6953 3.7397 5.9701 0.0000 -10431.7322 1368.2042 0.0000 0.0000 1718.4828 -7332.6400 296.9201 -9051.1228 -7426.9704 299.3775 -237.6636 -155.5668 29765.3056 -62.5441 18.0004
ENERGY: 1500000 2.4644 7.1929 5.8438 0.0000 -10435.3136 1318.2623 0.0000 0.0000 1696.8228 -7404.7274 293.1777 -9101.5501 -7426.2658 298.7988 -969.3233 -882.0518 30236.2692 -124.1637 -48.4518
TCL: Running FEP window   2: Lambda1 0.05   Lambda2 0.1    [dLambda 0.05  ]
TCL: Setting parameter firsttimestep to 0
TCL: Setting parameter alchLambda to 0.05
Info: NONBONDED TABLE R-SQUARED SPACING: 0.0625
Info: NONBONDED TABLE SIZE: 705 POINTS
TCL: Setting parameter alchLambda2 to 0.1
Info: NONBONDED TABLE R-SQUARED SPACING: 0.0625
Info: NONBONDED TABLE SIZE: 705 POINTS
TCL: Running for 1500000 steps
ETITLE: TS BOND ANGLE DIHED IMPRP ELECT VDW BOUNDARY MISC KINETIC TOTAL TEMP POTENTIAL TOTALAVG TEMPAVG PRESSURE GPRESSURE VOLUME PRESSAVG GPRESSAVG
ENERGY: 0 2.4644 7.1929 5.8438 0.0000 -10435.3154 1319.5318 0.0000 0.0000 1695.9453 -7404.3373 293.0261 -9100.2825 -7404.3373 293.0261 -978.6672 -877.9973 30236.2692 -978.6672 -877.9973
ENERGY: 300000 0.4894 6.0664 6.2439 0.0000 -10521.4762 1363.3230 0.0000 0.0000 1721.6177 -7423.7359 297.4618 -9145.3535 -7403.1523 298.2999 -304.4191 -275.7274 29713.4598 -374.4960 -321.1019
ENERGY: 600000 0.3216 10.5130 6.1132 0.0000 -10640.6665 1442.0641 0.0000 0.0000 1753.4160 -7428.2386 302.9559 -9181.6546 -7413.8531 299.3959 -36.4725 43.1122 29987.8849 -165.9006 -112.0071
ENERGY: 900000 2.1119 4.3115 8.2910 0.0000 -10546.1893 1407.5565 0.0000 0.0000 1749.7779 -7374.1406 302.3273 -9123.9185 -7410.5603 300.5900 -124.4394 -65.7150 30003.9681 -145.2535 -93.2285
ENERGY: 1200000 0.9921 6.0743 6.5930 0.0000 -10559.2148 1389.6347 0.0000 0.0000 1652.3199 -7503.6007 285.4885 -9155.9206 -7415.8790 300.0804 113.4557 106.4980 29331.5978 -223.2045 -177.9402
ENERGY: 1500000 3.1882 3.2575 6.5658 0.0000 -10711.8028 1468.0130 0.0000 0.0000 1705.9841 -7524.7944 294.7606 -9230.7784 -7420.7722 299.9631 385.6007 431.4180 29330.4919 -154.3984 -112.1751
TCL: Running FEP window   3: Lambda1 0.1    Lambda2 0.15000000000000002 [dLambda 0.05000000000000002]
TCL: Setting parameter firsttimestep to 0
TCL: Setting parameter alchLambda to 0.1
Info: NONBONDED TABLE R-SQUARED SPACING: 0.0625
Info: NONBONDED TABLE SIZE: 705 POINTS
TCL: Setting parameter alchLambda2 to 0.15000000000000002
Info: NONBONDED TABLE R-SQUARED SPACING: 0.0625
Info: NONBONDED TABLE SIZE: 705 POINTS
TCL: Running for 1500000 steps
ETITLE: TS BOND ANGLE DIHED IMPRP ELECT VDW BOUNDARY MISC KINETIC TOTAL TEMP POTENTIAL TOTALAVG TEMPAVG PRESSURE GPRESSURE VOLUME PRESSAVG GPRESSAVG
ENERGY: 0 3.1882 3.2575 6.5658 0.0000 -10711.8010 1468.1742 0.0000 0.0000 1705.1170 -7525.4984 294.6108 -9230.6154 -7525.4984 294.6108 355.0845 436.9351 29330.4919 355.0845 436.9351
ENERGY: 300000 0.6595 7.1649 6.9089 0.0000 -10512.5336 1399.4668 0.0000 0.0000 1707.8990 -7390.4345 295.0915 -9098.3334 -7418.1385 298.9352 -66.5130 4.9952 30114.8893 -12.8661 85.4310
ENERGY: 600000 0.3623 7.6680 7.0307 0.0000 -10676.9612 1445.6139 0.0000 0.0000 1760.4702 -7455.8161 304.1747 -9216.2862 -7404.6213 300.5715 16.7805 84.6641 29685.4170 39.5469 124.7277
ENERGY: 900000 1.8979 2.7440 5.5927 0.0000 -10558.5242 1369.3750 0.0000 0.0000 1798.9197 -7379.9949 310.8181 -9178.9146 -7399.0294 302.1708 -552.3796 -494.0005 29774.4989 -22.3957 53.8952
ENERGY: 1200000 0.6471 3.7206 6.4627 0.0000 -10622.0248 1414.4664 0.0000 0.0000 1760.3282 -7436.3997 304.1502 -9196.7280 -7398.4610 302.0909 -37.5170 2.4001 29476.7924 -35.5254 28.6601
ENERGY: 1500000 1.2311 5.8649 7.8505 0.0000 -10617.3709 1440.4411 0.0000 0.0000 1759.7031 -7402.2802 304.0422 -9161.9833 -7400.1843 301.6687 -38.7428 71.8520 30023.0630 -87.5210 -23.6194
TCL: Running FEP window   4: Lambda1 0.15000000000000002 Lambda2 0.2    [dLambda 0.04999999999999999]
TCL: Setting parameter firsttimestep to 0
TCL: Setting parameter alchLambda to 0.15000000000000002
Info: NONBONDED TABLE R-SQUARED SPACING: 0.0625
Info: NONBONDED TABLE SIZE: 705 POINTS
TCL: Setting parameter alchLambda2 to 0.2
Info: NONBONDED TABLE R-SQUARED SPACING: 0.0625
Info: NONBONDED TABLE SIZE: 705 POINTS
TCL: Running for 1500000 steps
ETITLE: TS BOND ANGLE DIHED IMPRP ELECT VDW BOUNDARY MISC KINETIC TOTAL TEMP POTENTIAL TOTALAVG TEMPAVG PRESSURE GPRESSURE VOLUME PRESSAVG GPRESSAVG
ENERGY: 0 1.2311 5.8649 7.8505 0.0000 -10617.3709 1440.0460 0.0000 0.0000 1758.8070 -7403.5713 303.8874 -9162.3784 -7403.5713 303.8874 -24.9495 70.8453 30023.0630 -24.9495 70.8453
ENERGY: 300000 0.3879 3.1724 7.9993 0.0000 -10702.7234 1511.9005 0.0000 0.0000 1692.6514 -7486.6119 292.4570 -9179.2632 -7441.2699 296.8584 589.3074 613.2485 29846.1977 -108.9384 -40.3351
ENERGY: 600000 1.0151 5.2063 8.1817 0.0000 -10666.9246 1458.3372 0.0000 0.0000 1753.6185 -7440.5657 302.9909 -9194.1842 -7415.8671 297.9553 -1.0214 97.8174 30109.6502 -81.2109 -15.8519
ENERGY: 900000 0.2629 2.8198 6.8892 0.0000 -10606.6324 1382.1062 0.0000 0.0000 1680.9145 -7533.6398 290.4291 -9214.5542 -7427.1474 297.4141 -689.4986 -609.4370 30114.0426 -166.5472 -96.3863
ENERGY: 1200000 1.6510 4.7057 6.1836 0.0000 -10549.2417 1343.3215 0.0000 0.0000 1698.4241 -7494.9558 293.4544 -9193.3799 -7430.0216 297.7168 -824.0039 -721.5973 29968.9211 -94.7273 -27.8794
ENERGY: 1500000 1.9331 4.6026 6.1204 0.0000 -10715.5898 1527.5379 0.0000 0.0000 1799.9990 -7375.3968 311.0045 -9175.3958 -7426.6767 299.3517 799.5474 832.3192 29981.4828 2.0261 66.7196
TCL: Running FEP window   5: Lambda1 0.2    Lambda2 0.25   [dLambda 0.04999999999999999]
TCL: Setting parameter firsttimestep to 0
TCL: Setting parameter alchLambda to 0.2
Info: NONBONDED TABLE R-SQUARED SPACING: 0.0625
Info: NONBONDED TABLE SIZE: 705 POINTS
TCL: Setting parameter alchLambda2 to 0.25
Info: NONBONDED TABLE R-SQUARED SPACING: 0.0625
Info: NONBONDED TABLE SIZE: 705 POINTS
TCL: Running for 1500000 steps
ETITLE: TS BOND ANGLE DIHED IMPRP ELECT VDW BOUNDARY MISC KINETIC TOTAL TEMP POTENTIAL TOTALAVG TEMPAVG PRESSURE GPRESSURE VOLUME PRESSAVG GPRESSAVG
ENERGY: 0 1.9331 4.6026 6.1204 0.0000 -10715.5889 1528.2885 0.0000 0.0000 1799.1103 -7375.5340 310.8510 -9174.6443 -7375.5340 310.8510 762.2844 840.3767 29981.4828 762.2844 840.3767
ENERGY: 300000 0.5767 4.3155 6.6449 0.0000 -10525.8136 1382.3240 0.0000 0.0000 1697.2329 -7434.7196 293.2486 -9131.9525 -7400.9584 302.7776 -359.5671 -215.9466 29840.2694 191.4259 275.0711
ENERGY: 600000 1.1301 4.2259 6.2016 0.0000 -10719.8958 1518.3396 0.0000 0.0000 1778.0634 -7411.9352 307.2145 -9189.9986 -7411.3855 302.7461 687.6119 785.6325 29683.0388 159.4041 234.0856
ENERGY: 900000 1.1123 4.4157 6.6231 0.0000 -10525.7432 1360.2884 0.0000 0.0000 1735.1976 -7418.1061 299.8081 -9153.3036 -7419.1278 302.3012 -483.9810 -464.1184 29760.9847 -62.8356 4.9987
ENERGY: 1200000 0.3142 8.1239 6.0418 0.0000 -10495.0460 1381.4850 0.0000 0.0000 1744.3516 -7354.7295 301.3898 -9099.0811 -7414.7055 301.5301 -320.0759 -292.2354 30402.1021 -100.7644 -38.4598
ENERGY: 1500000 0.3848 3.0974 7.3737 0.0000 -10637.2441 1474.1475 0.0000 0.0000 1682.2578 -7469.9830 290.6612 -9152.2408 -7416.7949 300.8557 289.3970 302.6635 29884.9171 -104.6279 -46.7098
TCL: Running FEP window   6: Lambda1 0.25   Lambda2 0.3    [dLambda 0.04999999999999999]
TCL: Setting parameter firsttimestep to 0
TCL: Setting parameter alchLambda to 0.25
Info: NONBONDED TABLE R-SQUARED SPACING: 0.0625
Info: NONBONDED TABLE SIZE: 705 POINTS
TCL: Setting parameter alchLambda2 to 0.3
Info: NONBONDED TABLE R-SQUARED SPACING: 0.0625
Info: NONBONDED TABLE SIZE: 705 POINTS
TCL: Running for 1500000 steps
ETITLE: TS BOND ANGLE DIHED IMPRP ELECT VDW BOUNDARY MISC KINETIC TOTAL TEMP POTENTIAL TOTALAVG TEMPAVG PRESSURE GPRESSURE VOLUME PRESSAVG GPRESSAVG
ENERGY: 0 0.3848 3.0974 7.3737 0.0000 -10637.2428 1473.9291 0.0000 0.0000 1681.3752 -7471.0827 290.5087 -9152.4579 -7471.0827 290.5087 216.8071 304.7382 29884.9171 216.8071 304.7382
ENERGY: 300000 3.8654 5.1593 5.8646 0.0000 -10479.4290 1354.6498 0.0000 0.0000 1750.3012 -7359.5887 302.4177 -9109.8899 -7403.6467 299.5001 -419.2870 -422.0700 30014.8768 47.7636 102.6576
ENERGY: 600000 2.4259 2.7372 7.2187 0.0000 -10564.8447 1411.9704 0.0000 0.0000 1771.5062 -7368.9863 306.0815 -9140.4925 -7376.3155 302.5995 -48.4371 41.7063 29927.3202 -24.9057 42.2900
ENERGY: 900000 0.1008 5.0126 7.9525 0.0000 -10646.4129 1454.6249 0.0000 0.0000 1749.1704 -7429.5516 302.2224 -9178.7220 -7386.8552 302.9432 339.3139 368.7105 29751.0434 -77.9237 -20.5234
ENERGY: 1200000 1.9827 5.4600 6.8564 0.0000 -10558.5417 1389.6057 0.0000 0.0000 1744.0836 -7410.5534 301.3434 -9154.6369 -7395.5582 302.0912 -358.5761 -229.8266 29617.8367 -56.3708 16.7333
ENERGY: 1500000 0.4455 6.5160 6.3085 0.0000 -10646.0501 1456.3002 0.0000 0.0000 1751.6518 -7424.8280 302.6511 -9176.4798 -7389.4175 303.1603 26.8039 80.5100 29817.0937 -53.6962 13.0929
TCL: Running FEP window   7: Lambda1 0.3    Lambda2 0.35   [dLambda 0.04999999999999999]
TCL: Setting parameter firsttimestep to 0
TCL: Setting parameter alchLambda to 0.3
Info: NONBONDED TABLE R-SQUARED SPACING: 0.0625
Info: NONBONDED TABLE SIZE: 705 POINTS
TCL: Setting parameter alchLambda2 to 0.35
Info: NONBONDED TABLE R-SQUARED SPACING: 0.0625
Info: NONBONDED TABLE SIZE: 705 POINTS
TCL: Running for 1500000 steps
ETITLE: TS BOND ANGLE DIHED IMPRP ELECT VDW BOUNDARY MISC KINETIC TOTAL TEMP POTENTIAL TOTALAVG TEMPAVG PRESSURE GPRESSURE VOLUME PRESSAVG GPRESSAVG
ENERGY: 0 0.4455 6.5160 6.3085 0.0000 -10646.0512 1457.2386 0.0000 0.0000 1750.7710 -7424.7716 302.4989 -9175.5425 -7424.7716 302.4989 23.7774 90.5337 29817.0937 23.7774 90.5337
ENERGY: 300000 1.0935 4.2477 5.7427 0.0000 -10473.0264 1405.3011 0.0000 0.0000 1752.1218 -7304.5194 302.7323 -9056.6412 -7387.7074 300.7482 148.9201 253.0725 29739.5225 -54.3679 -9.6116
ENERGY: 600000 2.7142 2.6926 6.9952 0.0000 -10651.0954 1403.3339 0.0000 0.0000 1749.2671 -7486.0925 302.2390 -9235.3595 -7387.0018 302.0096 -314.0634 -311.8125 29558.6144 65.1992 113.7892
ENERGY: 900000 1.6562 5.4775 6.7675 0.0000 -10533.4952 1392.8372 0.0000 0.0000 1778.9512 -7347.8056 307.3679 -9126.7567 -7392.8693 302.6014 114.3543 134.4176 29519.8944 -44.6579 3.5000
ENERGY: 1200000 1.3531 4.9340 5.5277 0.0000 -10451.2775 1350.1517 0.0000 0.0000 1739.0702 -7350.2407 300.4772 -9089.3110 -7387.3011 302.3138 -357.7624 -346.3030 29930.4515 -49.2112 2.0480
ENERGY: 1500000 1.4801 2.8085 5.7882 0.0000 -10509.7628 1400.5974 0.0000 0.0000 1744.6014 -7354.4873 301.4329 -9099.0887 -7394.4994 302.1911 3.9414 46.0714 30137.2979 -19.3554 24.4535
TCL: Running FEP window   8: Lambda1 0.35   Lambda2 0.39999999999999997 [dLambda 0.04999999999999999]
TCL: Setting parameter firsttimestep to 0
TCL: Setting parameter alchLambda to 0.35
Info: NONBONDED TABLE R-SQUARED SPACING: 0.0625
Info: NONBONDED TABLE SIZE: 705 POINTS
TCL: Setting parameter alchLambda2 to 0.39999999999999997
Info: NONBONDED TABLE R-SQUARED SPACING: 0.0625
Info: NONBONDED TABLE SIZE: 705 POINTS
TCL: Running for 1500000 steps
ETITLE: TS BOND ANGLE DIHED IMPRP ELECT VDW BOUNDARY MISC KINETIC TOTAL TEMP POTENTIAL TOTALAVG TEMPAVG PRESSURE GPRESSURE VOLUME PRESSAVG GPRESSAVG
ENERGY: 0 1.4801 2.8085 5.7882 0.0000 -10509.7646 1400.3777 0.0000 0.0000 1743.7256 -7355.5845 301.2816 -9099.3101 -7355.5845 301.2816 -48.4297 47.4518 30137.2979 -48.4297 47.4518
ENERGY: 300000 0.7596 5.9230 6.4085 0.0000 -10607.7362 1460.2717 0.0000 0.0000 1704.3780 -7429.9952 294.4831 -9134.3732 -7423.3819 298.1513 67.9051 161.5787 30478.8766 329.0712 429.6966
ENERGY: 600000 2.6431 5.1196 5.6218 0.0000 -10477.4811 1379.2499 0.0000 0.0000 1724.0144 -7360.8323 297.8759 -9084.8467 -7445.3076 298.1793 -334.1134 -312.9307 30073.7696 -29.2840 46.7444
ENERGY: 900000 0.7654 4.5555 6.3828 0.0000 -10470.8754 1321.7281 0.0000 0.0000 1652.9995 -7484.4442 285.6059 -9137.4437 -7436.5763 299.0215 -724.0574 -650.1535 30082.9397 -51.4199 16.5455
ENERGY: 1200000 1.2080 3.5635 6.5497 0.0000 -10604.3822 1458.6425 0.0000 0.0000 1692.6651 -7441.7535 292.4593 -9134.4186 -7441.4372 297.8444 299.6553 386.8284 29993.0351 -20.6975 48.8341
ENERGY: 1500000 1.2371 7.3060 6.3016 0.0000 -10376.5954 1321.3964 0.0000 0.0000 1735.6566 -7304.6977 299.8874 -9040.3543 -7423.5946 298.2852 -615.4082 -619.7465 30328.9014 -44.5458 11.8247
TCL: Running FEP window   9: Lambda1 0.39999999999999997 Lambda2 0.44999999999999996 [dLambda 0.04999999999999999]
TCL: Setting parameter firsttimestep to 0
TCL: Setting parameter alchLambda to 0.39999999999999997
Info: NONBONDED TABLE R-SQUARED SPACING: 0.0625
Info: NONBONDED TABLE SIZE: 705 POINTS
TCL: Setting parameter alchLambda2 to 0.44999999999999996
Info: NONBONDED TABLE R-SQUARED SPACING: 0.0625
Info: NONBONDED TABLE SIZE: 705 POINTS
TCL: Running for 1500000 steps
ETITLE: TS BOND ANGLE DIHED IMPRP ELECT VDW BOUNDARY MISC KINETIC TOTAL TEMP POTENTIAL TOTALAVG TEMPAVG PRESSURE GPRESSURE VOLUME PRESSAVG GPRESSAVG
ENERGY: 0 1.2371 7.3060 6.3016 0.0000 -10376.5970 1321.1634 0.0000 0.0000 1734.7468 -7305.8422 299.7302 -9040.5889 -7305.8422 299.7302 -700.6889 -617.4538 30328.9014 -700.6889 -617.4538
ENERGY: 300000 1.2692 3.4607 6.4586 0.0000 -10651.3081 1440.8062 0.0000 0.0000 1733.6058 -7465.7077 299.5331 -9199.3135 -7427.6331 298.2912 48.3306 88.5411 29896.7977 -211.6913 -153.3666
ENERGY: 600000 0.1750 5.1753 6.2350 0.0000 -10510.5482 1373.5491 0.0000 0.0000 1743.4850 -7381.9289 301.2400 -9125.4139 -7413.5475 298.6898 -460.3546 -421.7790 30349.0565 -245.0251 -190.7273
ENERGY: 900000 2.1423 2.4262 6.9097 0.0000 -10512.1744 1360.2536 0.0000 0.0000 1740.5748 -7399.8677 300.7372 -9140.4425 -7412.6471 298.9773 -298.5759 -214.3376 29655.9182 -304.0840 -245.6293
ENERGY: 1200000 1.1343 5.0626 5.9048 0.0000 -10619.9553 1458.7990 0.0000 0.0000 1748.8779 -7400.1767 302.1718 -9149.0546 -7412.8613 298.7700 365.4778 380.6217 29844.8942 -263.9140 -205.7446
ENERGY: 1500000 0.7522 2.5960 6.0938 0.0000 -10473.9786 1374.7191 0.0000 0.0000 1691.3931 -7398.4243 292.2396 -9089.8174 -7418.7684 298.9974 -555.1860 -497.7016 30482.7041 -261.7988 -199.2757
TCL: Running FEP window  10: Lambda1 0.44999999999999996 Lambda2 0.49999999999999994 [dLambda 0.04999999999999999]
TCL: Setting parameter firsttimestep to 0
TCL: Setting parameter alchLambda to 0.44999999999999996
Info: NONBONDED TABLE R-SQUARED SPACING: 0.0625
Info: NONBONDED TABLE SIZE: 705 POINTS
TCL: Setting parameter alchLambda2 to 0.49999999999999994
Info: NONBONDED TABLE R-SQUARED SPACING: 0.0625
Info: NONBONDED TABLE SIZE: 705 POINTS
TCL: Running for 1500000 steps
ETITLE: TS BOND ANGLE DIHED IMPRP ELECT VDW BOUNDARY MISC KINETIC TOTAL TEMP POTENTIAL TOTALAVG TEMPAVG PRESSURE GPRESSURE VOLUME PRESSAVG GPRESSAVG
ENERGY: 0 0.7522 2.5960 6.0938 0.0000 -10473.9801 1374.4205 0.0000 0.0000 1690.5582 -7399.5595 292.0953 -9090.1177 -7399.5595 292.0953 -570.5799 -496.7068 30482.7041 -570.5799 -496.7068
ENERGY: 300000 1.5150 4.3816 6.3728 0.0000 -10627.1755 1486.3106 0.0000 0.0000 1772.3901 -7356.2055 306.2343 -9128.5955 -7377.3724 301.6653 538.2330 606.0896 30107.0805 -146.3765 -97.3577
ENERGY: 600000 0.8066 5.6119 5.6371 0.0000 -10453.3023 1342.4121 0.0000 0.0000 1743.3142 -7355.5204 301.2105 -9098.8346 -7394.2181 301.7069 -502.3203 -487.9446 30224.0845 -16.8009 26.7445
ENERGY: 900000 0.3157 8.5961 7.7642 0.0000 -10551.1043 1367.8322 0.0000 0.0000 1705.4454 -7461.1506 294.6675 -9166.5960 -7395.0552 300.6281 -598.0279 -491.9821 30079.1344 -92.8018 -29.6894
ENERGY: 1200000 4.5044 4.1584 7.6659 0.0000 -10524.8541 1352.9163 0.0000 0.0000 1748.5299 -7407.0792 302.1117 -9155.6091 -7394.2812 300.8949 -619.6122 -589.1567 30031.1530 -129.5778 -69.8589
ENERGY: 1500000 2.7791 3.4047 7.6249 0.0000 -10617.5148 1473.1188 0.0000 0.0000 1727.3210 -7403.2662 298.4472 -9130.5872 -7400.4075 300.0119 531.0595 584.6032 29717.4882 -54.0831 5.0398
TCL: Running FEP window  11: Lambda1 0.49999999999999994 Lambda2 0.5499999999999999 [dLambda 0.04999999999999999]
TCL: Setting parameter firsttimestep to 0
TCL: Setting parameter alchLambda to 0.49999999999999994
Info: NONBONDED TABLE R-SQUARED SPACING: 0.0625
Info: NONBONDED TABLE SIZE: 705 POINTS
TCL: Setting parameter alchLambda2 to 0.5499999999999999
Info: NONBONDED TABLE R-SQUARED SPACING: 0.0625
Info: NONBONDED TABLE SIZE: 705 POINTS
TCL: Running for 1500000 steps
ETITLE: TS BOND ANGLE DIHED IMPRP ELECT VDW BOUNDARY MISC KINETIC TOTAL TEMP POTENTIAL TOTALAVG TEMPAVG PRESSURE GPRESSURE VOLUME PRESSAVG GPRESSAVG
ENERGY: 0 2.7791 3.4047 7.6249 0.0000 -10617.5160 1473.3067 0.0000 0.0000 1726.3953 -7404.0052 298.2872 -9130.4005 -7404.0052 298.2872 517.4204 587.8645 29717.4882 517.4204 587.8645
ENERGY: 300000 1.0039 7.0497 6.3905 0.0000 -10590.5954 1388.2262 0.0000 0.0000 1714.5966 -7473.3285 296.2487 -9187.9251 -7392.2639 298.1291 -508.9557 -439.0398 30224.2971 -64.0689 -23.2756
ENERGY: 600000 2.0744 4.9026 6.8244 0.0000 -10629.3091 1403.3336 0.0000 0.0000 1691.4881 -7520.6860 292.2560 -9212.1741 -7429.1462 298.6554 -61.4465 -83.7958 29519.4131 -48.4179 -14.7078
ENERGY: 900000 3.2534 3.1095 8.4040 0.0000 -10501.6010 1372.9373 0.0000 0.0000 1708.1813 -7405.7156 295.1402 -9113.8969 -7421.8558 298.1014 -129.6971 -102.0532 30014.3714 105.5271 138.8365
ENERGY: 1200000 1.5770 4.5247 6.0651 0.0000 -10496.4776 1367.8395 0.0000 0.0000 1696.7957 -7419.6756 293.1730 -9116.4713 -7418.4304 299.1284 -397.0445 -362.5881 29846.6343 3.3814 39.1707
ENERGY: 1500000 0.2404 3.3216 6.0981 0.0000 -10463.6266 1363.3769 0.0000 0.0000 1751.1068 -7339.4827 302.5569 -9090.5896 -7417.3626 299.4982 -606.1517 -544.3135 30767.0930 -17.5218 22.3349
TCL: Running FEP window  12: Lambda1 0.5499999999999999 Lambda2 0.6    [dLambda 0.050000000000000044]
TCL: Setting parameter firsttimestep to 0
TCL: Setting parameter alchLambda to 0.5499999999999999
Info: NONBONDED TABLE R-SQUARED SPACING: 0.0625
Info: NONBONDED TABLE SIZE: 705 POINTS
TCL: Setting parameter alchLambda2 to 0.6
Info: NONBONDED TABLE R-SQUARED SPACING: 0.0625
Info: NONBONDED TABLE SIZE: 705 POINTS
TCL: Running for 1500000 steps
ETITLE: TS BOND ANGLE DIHED IMPRP ELECT VDW BOUNDARY MISC KINETIC TOTAL TEMP POTENTIAL TOTALAVG TEMPAVG PRESSURE GPRESSURE VOLUME PRESSAVG GPRESSAVG
ENERGY: 0 0.2404 3.3216 6.0981 0.0000 -10464.2344 1363.4050 0.0000 0.0000 1750.2416 -7340.9278 302.4074 -9091.1693 -7340.9278 302.4074 -631.3963 -543.7124 30767.0930 -631.3963 -543.7124
ENERGY: 300000 0.2365 4.4940 6.7097 0.0000 -10619.4685 1458.8907 0.0000 0.0000 1741.0348 -7408.1028 300.8167 -9149.1376 -7421.3849 299.0757 -44.0093 79.0055 30287.3484 -188.7569 -92.3051
ENERGY: 600000 0.1271 5.1482 7.8224 0.0000 -10530.6017 1469.7695 0.0000 0.0000 1768.0450 -7279.6894 305.4835 -9047.7345 -7402.8767 300.3440 616.2594 752.0360 29999.7736 67.9746 146.0801
ENERGY: 900000 0.8613 4.2967 6.2112 0.0000 -10619.8710 1436.7475 0.0000 0.0000 1753.4281 -7418.3263 302.9580 -9171.7543 -7401.6309 300.2876 182.4227 248.5391 29640.2109 76.1456 140.3384
ENERGY: 1200000 4.9495 3.9334 6.8654 0.0000 -10537.3804 1304.9927 0.0000 0.0000 1731.5388 -7485.1006 299.1759 -9216.6394 -7415.7489 299.8686 -817.5147 -720.9061 29498.3038 -50.4780 18.4902
ENERGY: 1500000 1.3043 2.5379 7.3566 0.0000 -10566.9639 1436.4946 0.0000 0.0000 1761.6945 -7357.5760 304.3863 -9119.2705 -7403.0691 300.1900 578.4155 605.8596 29434.3093 -50.8194 7.3998
TCL: Running FEP window  13: Lambda1 0.6    Lambda2 0.65   [dLambda 0.050000000000000044]
TCL: Setting parameter firsttimestep to 0
TCL: Setting parameter alchLambda to 0.6
Info: NONBONDED TABLE R-SQUARED SPACING: 0.0625
Info: NONBONDED TABLE SIZE: 705 POINTS
TCL: Setting parameter alchLambda2 to 0.65
Info: NONBONDED TABLE R-SQUARED SPACING: 0.0625
Info: NONBONDED TABLE SIZE: 705 POINTS
TCL: Running for 1500000 steps
ETITLE: TS BOND ANGLE DIHED IMPRP ELECT VDW BOUNDARY MISC KINETIC TOTAL TEMP POTENTIAL TOTALAVG TEMPAVG PRESSURE GPRESSURE VOLUME PRESSAVG GPRESSAVG
ENERGY: 0 1.3043 2.5379 7.3566 0.0000 -10566.8811 1436.3611 0.0000 0.0000 1760.8128 -7358.5083 304.2339 -9119.3212 -7358.5083 304.2339 530.2155 610.4049 29434.3093 530.2155 610.4049
ENERGY: 300000 1.8221 3.7827 7.4300 0.0000 -10477.4754 1359.2372 0.0000 0.0000 1741.4773 -7363.7260 300.8931 -9105.2033 -7353.3422 301.7782 -384.4968 -336.8950 29934.1898 60.1890 107.8188
ENERGY: 600000 0.7761 5.7664 6.4865 0.0000 -10600.0524 1389.6748 0.0000 0.0000 1708.2077 -7489.1408 295.1448 -9197.3486 -7372.8581 302.0939 -438.0304 -363.6007 29993.1672 -191.6831 -143.8542
ENERGY: 900000 0.9373 6.3470 6.5242 0.0000 -10574.4889 1466.1723 0.0000 0.0000 1757.8252 -7336.6829 303.7177 -9094.5081 -7384.5981 301.2049 477.8924 520.1601 30104.6067 -26.6658 23.3521
ENERGY: 1200000 0.7044 7.9487 6.1625 0.0000 -10523.8122 1389.0814 0.0000 0.0000 1754.3312 -7365.5840 303.1140 -9119.9152 -7382.1030 301.2772 -285.2330 -201.6991 30091.1409 -82.1525 -32.0526
ENERGY: 1500000 0.3415 5.1072 6.3869 0.0000 -10537.1295 1332.6460 0.0000 0.0000 1728.4939 -7464.1540 298.6499 -9192.6479 -7395.1154 300.6563 -579.6703 -518.1580 29708.1109 -165.7052 -111.9003
TCL: Running FEP window  14: Lambda1 0.65   Lambda2 0.7000000000000001 [dLambda 0.050000000000000044]
TCL: Setting parameter firsttimestep to 0
TCL: Setting parameter alchLambda to 0.65
Info: NONBONDED TABLE R-SQUARED SPACING: 0.0625
Info: NONBONDED TABLE SIZE: 705 POINTS
TCL: Setting parameter alchLambda2 to 0.7000000000000001
Info: NONBONDED TABLE R-SQUARED SPACING: 0.0625
Info: NONBONDED TABLE SIZE: 705 POINTS
TCL: Running for 1500000 steps
ETITLE: TS BOND ANGLE DIHED IMPRP ELECT VDW BOUNDARY MISC KINETIC TOTAL TEMP POTENTIAL TOTALAVG TEMPAVG PRESSURE GPRESSURE VOLUME PRESSAVG GPRESSAVG
ENERGY: 0 0.3415 5.1072 6.3869 0.0000 -10537.7576 1332.4962 0.0000 0.0000 1727.6329 -7465.7929 298.5011 -9193.4258 -7465.7929 298.5011 -611.8497 -515.4955 29708.1109 -611.8497 -515.4955
ENERGY: 300000 1.8420 6.5000 8.0628 0.0000 -10600.5230 1398.9030 0.0000 0.0000 1779.3471 -7405.8681 307.4363 -9185.2152 -7416.5846 301.6623 -175.9191 -103.1217 29714.5384 77.0864 154.4853
ENERGY: 600000 0.9864 3.3604 6.6820 0.0000 -10506.4918 1347.6735 0.0000 0.0000 1643.9735 -7503.8160 284.0464 -9147.7895 -7423.5099 299.2553 -607.7181 -618.3592 29896.7738 -45.1646 19.4810
ENERGY: 900000 1.9696 4.7999 6.0415 0.0000 -10468.1626 1370.4662 0.0000 0.0000 1683.1846 -7401.7008 290.8213 -9084.8855 -7412.9280 300.1926 -227.3336 -113.2189 29949.5645 -56.0722 9.2703
ENERGY: 1200000 2.1656 2.9926 5.7159 0.0000 -10657.7114 1405.5824 0.0000 0.0000 1741.0452 -7500.2097 300.8185 -9241.2549 -7418.4197 300.2744 -543.8394 -465.6771 30351.3902 -91.6051 -26.8675
ENERGY: 1500000 3.5523 5.0978 8.7584 0.0000 -10470.4681 1303.5955 0.0000 0.0000 1732.1226 -7417.3414 299.2768 -9149.4640 -7432.1942 299.1258 -719.9066 -677.3044 29363.3622 -128.1049 -59.7505
TCL: Running FEP window  15: Lambda1 0.7000000000000001 Lambda2 0.7500000000000001 [dLambda 0.050000000000000044]
TCL: Setting parameter firsttimestep to 0
TCL: Setting parameter alchLambda to 0.7000000000000001
Info: NONBONDED TABLE R-SQUARED SPACING: 0.0625
Info: NONBONDED TABLE SIZE: 705 POINTS
TCL: Setting parameter alchLambda2 to 0.7500000000000001
Info: NONBONDED TABLE R-SQUARED SPACING: 0.0625
Info: NONBONDED TABLE SIZE: 705 POINTS
TCL: Running for 1500000 steps
ETITLE: TS BOND ANGLE DIHED IMPRP ELECT VDW BOUNDARY MISC KINETIC TOTAL TEMP POTENTIAL TOTALAVG TEMPAVG PRESSURE GPRESSURE VOLUME PRESSAVG GPRESSAVG
ENERGY: 0 3.5523 5.0978 8.7584 0.0000 -10471.1418 1304.5296 0.0000 0.0000 1731.2602 -7417.9434 299.1278 -9149.2036 -7417.9434 299.1278 -759.3348 -661.2566 29363.3622 -759.3348 -661.2566
ENERGY: 300000 2.8368 6.2689 5.9253 0.0000 -10705.8635 1444.3799 0.0000 0.0000 1704.2489 -7542.2037 294.4608 -9246.4525 -7444.7127 295.8855 -310.8874 -240.4986 30484.9117 66.6460 154.1342
ENERGY: 600000 1.0637 5.3689 6.6453 0.0000 -10659.7695 1458.0691 0.0000 0.0000 1708.6803 -7479.9421 295.2264 -9188.6224 -7454.0982 296.0150 259.9505 283.5354 29751.1943 -15.2658 50.8198
ENERGY: 900000 2.0557 4.7343 5.8611 0.0000 -10519.4957 1389.3607 0.0000 0.0000 1722.3748 -7395.1092 297.5926 -9117.4839 -7457.2959 296.6010 -110.0224 -88.5716 30134.9789 46.6077 108.4365
ENERGY: 1200000 0.7275 4.4162 6.1705 0.0000 -10786.2005 1531.4394 0.0000 0.0000 1733.3811 -7510.0659 299.4943 -9243.4470 -7444.3826 298.0414 495.7084 590.7979 29983.4555 75.2848 137.1293
ENERGY: 1500000 1.7838 3.8812 9.7402 0.0000 -10709.6336 1472.1215 0.0000 0.0000 1733.6918 -7488.4152 299.5479 -9222.1070 -7443.2350 299.2603 592.6769 614.9519 29252.3652 74.4924 129.5216
TCL: Running FEP window  16: Lambda1 0.7500000000000001 Lambda2 0.8000000000000002 [dLambda 0.050000000000000044]
TCL: Setting parameter firsttimestep to 0
TCL: Setting parameter alchLambda to 0.7500000000000001
Info: NONBONDED TABLE R-SQUARED SPACING: 0.0625
Info: NONBONDED TABLE SIZE: 705 POINTS
TCL: Setting parameter alchLambda2 to 0.8000000000000002
Info: NONBONDED TABLE R-SQUARED SPACING: 0.0625
Info: NONBONDED TABLE SIZE: 705 POINTS
TCL: Running for 1500000 steps
ETITLE: TS BOND ANGLE DIHED IMPRP ELECT VDW BOUNDARY MISC KINETIC TOTAL TEMP POTENTIAL TOTALAVG TEMPAVG PRESSURE GPRESSURE VOLUME PRESSAVG GPRESSAVG
ENERGY: 0 1.7838 3.8812 9.7402 0.0000 -10711.3777 1473.1495 0.0000 0.0000 1732.8420 -7489.9810 299.4011 -9222.8230 -7489.9810 299.4011 554.6454 628.7748 29252.3652 554.6454 628.7748
ENERGY: 300000 0.5114 4.3343 5.8247 0.0000 -10702.6719 1499.3911 0.0000 0.0000 1720.3038 -7472.3066 297.2348 -9192.6103 -7423.1704 301.2253 548.1424 619.0821 29955.0666 207.2463 272.2990
ENERGY: 600000 1.1995 4.4561 6.7962 0.0000 -10423.6545 1319.7140 0.0000 0.0000 1743.7453 -7347.7433 301.2850 -9091.4886 -7412.9020 301.3129 -685.8605 -587.2011 29932.9766 84.5258 165.6154
ENERGY: 900000 0.2459 4.8617 6.1586 0.0000 -10503.2878 1390.1211 0.0000 0.0000 1718.3467 -7383.5537 296.8966 -9101.9005 -7426.2738 299.5665 -75.3936 -22.4224 30101.1001 27.8884 90.7785
ENERGY: 1200000 0.5013 7.2590 7.9298 0.0000 -10536.6949 1431.7847 0.0000 0.0000 1709.5506 -7379.6694 295.3768 -9089.2201 -7422.3091 299.0685 137.1418 287.7668 30050.4605 -8.2022 65.1949
ENERGY: 1500000 2.1665 5.8856 7.0974 0.0000 -10679.2597 1455.3964 0.0000 0.0000 1704.2983 -7504.4154 294.4693 -9208.7137 -7428.7400 298.9132 160.3980 152.5394 30136.0101 -111.2953 -45.8440
TCL: Running FEP window  17: Lambda1 0.8000000000000002 Lambda2 0.8500000000000002 [dLambda 0.050000000000000044]
TCL: Setting parameter firsttimestep to 0
TCL: Setting parameter alchLambda to 0.8000000000000002
Info: NONBONDED TABLE R-SQUARED SPACING: 0.0625
Info: NONBONDED TABLE SIZE: 705 POINTS
TCL: Setting parameter alchLambda2 to 0.8500000000000002
Info: NONBONDED TABLE R-SQUARED SPACING: 0.0625
Info: NONBONDED TABLE SIZE: 705 POINTS
TCL: Running for 1500000 steps
ETITLE: TS BOND ANGLE DIHED IMPRP ELECT VDW BOUNDARY MISC KINETIC TOTAL TEMP POTENTIAL TOTALAVG TEMPAVG PRESSURE GPRESSURE VOLUME PRESSAVG GPRESSAVG
ENERGY: 0 2.1665 5.8856 7.0974 0.0000 -10680.5391 1455.1279 0.0000 0.0000 1703.4343 -7506.8274 294.3200 -9210.2617 -7506.8274 294.3200 67.7219 153.4503 30136.0101 67.7219 153.4503
ENERGY: 300000 2.3621 3.6317 5.9335 0.0000 -10587.4112 1414.2025 0.0000 0.0000 1759.3408 -7401.9406 303.9796 -9161.2815 -7450.6939 300.7245 28.3031 157.8997 29691.2711 27.5439 114.2172
ENERGY: 600000 0.8057 5.5475 6.4241 0.0000 -10624.3906 1384.4514 0.0000 0.0000 1768.7704 -7458.3915 305.6088 -9227.1619 -7444.6689 300.2402 -235.3148 -132.8282 29715.2429 -14.5188 70.3196
ENERGY: 900000 2.7305 2.5652 6.8996 0.0000 -10469.6898 1324.5619 0.0000 0.0000 1738.9809 -7393.9516 300.4618 -9132.9325 -7440.0104 300.3774 -715.4083 -670.1670 30093.7519 -93.3105 -17.4237
ENERGY: 1200000 0.6939 4.6869 6.5769 0.0000 -10598.6340 1402.9236 0.0000 0.0000 1734.6510 -7449.1017 299.7137 -9183.7527 -7438.9598 299.6873 -55.4013 10.4583 29923.8891 -205.1607 -137.5318
ENERGY: 1500000 1.3214 5.3430 7.1474 0.0000 -10534.6136 1414.1556 0.0000 0.0000 1717.8342 -7388.8120 296.8081 -9106.6462 -7429.1151 299.8314 -26.4362 -1.5472 30039.3198 -106.5985 -39.3708
TCL: Running FEP window  18: Lambda1 0.8500000000000002 Lambda2 0.9000000000000002 [dLambda 0.050000000000000044]
TCL: Setting parameter firsttimestep to 0
TCL: Setting parameter alchLambda to 0.8500000000000002
Info: NONBONDED TABLE R-SQUARED SPACING: 0.0625
Info: NONBONDED TABLE SIZE: 705 POINTS
TCL: Setting parameter alchLambda2 to 0.9000000000000002
Info: NONBONDED TABLE R-SQUARED SPACING: 0.0625
Info: NONBONDED TABLE SIZE: 705 POINTS
TCL: Running for 1500000 steps
ETITLE: TS BOND ANGLE DIHED IMPRP ELECT VDW BOUNDARY MISC KINETIC TOTAL TEMP POTENTIAL TOTALAVG TEMPAVG PRESSURE GPRESSURE VOLUME PRESSAVG GPRESSAVG
ENERGY: 0 1.3214 5.3430 7.1474 0.0000 -10536.0303 1414.2771 0.0000 0.0000 1716.9811 -7390.9602 296.6607 -9107.9414 -7390.9602 296.6607 -75.0643 7.7527 30039.3198 -75.0643 7.7527
ENERGY: 300000 0.9283 3.5996 5.6892 0.0000 -10665.3206 1413.5292 0.0000 0.0000 1795.1437 -7446.4306 310.1656 -9241.5743 -7423.7141 302.5664 2.6326 7.9073 29672.3838 121.4486 178.3484
ENERGY: 600000 2.3407 2.6186 7.1597 0.0000 -10475.9764 1330.7650 0.0000 0.0000 1783.2085 -7349.8840 308.1035 -9133.0924 -7429.6223 302.8012 -905.1232 -820.1172 30531.1639 -130.0321 -82.2912
ENERGY: 900000 1.6897 3.3309 5.7459 0.0000 -10671.4302 1396.8056 0.0000 0.0000 1723.1964 -7540.6617 297.7345 -9263.8581 -7447.7074 300.4968 -299.2548 -182.8179 29498.4454 -138.6940 -91.9586
ENERGY: 1200000 1.7552 3.2559 6.7370 0.0000 -10421.8394 1352.5084 0.0000 0.0000 1779.7996 -7277.7834 307.5145 -9057.5830 -7428.5979 301.0043 -362.8192 -313.5690 30508.7794 -118.6855 -69.6185
ENERGY: 1500000 0.8909 1.4714 7.1177 0.0000 -10711.1291 1519.4926 0.0000 0.0000 1762.5389 -7419.6176 304.5322 -9182.1566 -7426.8044 300.8384 792.8672 813.5926 29742.6924 -81.8475 -35.2804
TCL: Running FEP window  19: Lambda1 0.9000000000000002 Lambda2 0.9500000000000003 [dLambda 0.050000000000000044]
TCL: Setting parameter firsttimestep to 0
TCL: Setting parameter alchLambda to 0.9000000000000002
Info: NONBONDED TABLE R-SQUARED SPACING: 0.0625
Info: NONBONDED TABLE SIZE: 705 POINTS
TCL: Setting parameter alchLambda2 to 0.9500000000000003
Info: NONBONDED TABLE R-SQUARED SPACING: 0.0625
Info: NONBONDED TABLE SIZE: 705 POINTS
TCL: Running for 1500000 steps
ETITLE: TS BOND ANGLE DIHED IMPRP ELECT VDW BOUNDARY MISC KINETIC TOTAL TEMP POTENTIAL TOTALAVG TEMPAVG PRESSURE GPRESSURE VOLUME PRESSAVG GPRESSAVG
ENERGY: 0 0.8909 1.4714 7.1177 0.0000 -10712.8153 1520.9917 0.0000 0.0000 1761.6499 -7420.6937 304.3786 -9182.3436 -7420.6937 304.3786 768.9155 835.8937 29742.6924 768.9155 835.8937
ENERGY: 300000 2.2720 3.6822 6.0823 0.0000 -10473.4904 1349.4970 0.0000 0.0000 1821.4244 -7290.5325 314.7064 -9111.9569 -7416.2145 303.6868 -636.9279 -602.9459 30659.7684 63.3895 133.6812
ENERGY: 600000 0.4841 3.6000 6.1242 0.0000 -10540.7478 1372.3930 0.0000 0.0000 1755.4829 -7402.6634 303.3130 -9158.1464 -7410.6602 303.1984 -576.2671 -443.7787 30246.7051 34.3060 109.3568
ENERGY: 900000 1.2915 4.7864 5.8660 0.0000 -10725.8888 1504.6209 0.0000 0.0000 1756.2657 -7453.0585 303.4483 -9209.3242 -7420.6150 302.9152 617.1732 711.4607 29713.3789 64.7634 135.6671
ENERGY: 1200000 0.2229 3.9832 6.1226 0.0000 -10684.2707 1500.5920 0.0000 0.0000 1765.2878 -7408.0623 305.0071 -9173.3501 -7414.0656 303.2745 837.1263 862.3627 29791.0175 103.5905 168.3230
ENERGY: 1500000 0.9194 4.0994 6.5215 0.0000 -10483.8084 1328.7719 0.0000 0.0000 1751.3267 -7392.1695 302.5949 -9143.4961 -7417.1927 302.5886 -757.6740 -665.3973 29839.3899 -19.2897 47.0573
TCL: Running FEP window  20: Lambda1 0.9500000000000003 Lambda2 1.0    [dLambda 0.04999999999999971]
TCL: Setting parameter firsttimestep to 0
TCL: Setting parameter alchLambda to 0.9500000000000003
Info: NONBONDED TABLE R-SQUARED SPACING: 0.0625
Info: NONBONDED TABLE SIZE: 705 POINTS
TCL: Setting parameter alchLambda2 to 1.0
Info: NONBONDED TABLE R-SQUARED SPACING: 0.0625
Info: NONBONDED TABLE SIZE: 705 POINTS
TCL: Running for 1500000 steps
ETITLE: TS BOND ANGLE DIHED IMPRP ELECT VDW BOUNDARY MISC KINETIC TOTAL TEMP POTENTIAL TOTALAVG TEMPAVG PRESSURE GPRESSURE VOLUME PRESSAVG GPRESSAVG
ENERGY: 0 0.9194 4.0994 6.5215 0.0000 -10487.1931 1332.9561 0.0000 0.0000 1750.4492 -7392.2475 302.4433 -9142.6967 -7392.2475 302.4433 -701.8155 -611.8733 29839.3899 -701.8155 -611.8733
ENERGY: 300000 1.9834 7.1367 8.6079 0.0000 -10662.9529 1428.6381 0.0000 0.0000 1776.9830 -7439.6037 307.0278 -9216.5868 -7451.6598 301.1053 -101.3641 -38.6130 29638.4509 -260.8742 -201.1197
ENERGY: 600000 0.4333 5.7741 7.1301 0.0000 -10578.1912 1381.9729 0.0000 0.0000 1774.4422 -7408.4387 306.5888 -9182.8809 -7427.4691 302.7416 -335.5478 -245.0093 30057.0683 -37.2494 38.2254
ENERGY: 900000 1.4015 3.3327 6.1631 0.0000 -10491.5179 1368.9979 0.0000 0.0000 1769.9813 -7341.6415 305.8181 -9111.6228 -7425.5574 301.6923 -309.4703 -290.9168 30335.1832 -69.2851 0.4313
ENERGY: 1200000 1.3182 3.0708 5.9817 0.0000 -10526.5269 1354.7641 0.0000 0.0000 1732.7819 -7428.6102 299.3907 -9161.3921 -7432.0275 300.8659 -575.1918 -526.9032 30044.8638 -160.4028 -93.9213
ENERGY: 1500000 0.9765 3.9719 5.4863 0.0000 -10763.6073 1530.6925 0.0000 0.0000 1685.5590 -7536.9211 291.2315 -9222.4800 -7433.7040 300.7050 572.5066 668.4148 30044.5796 -76.3334 -7.5098
TCL: Exiting due to exit command.
