Info: SIMULATION PARAMETERS:
Info: TIMESTEP               2
Info: NUMBER OF STEPS        0
Info: STEPS PER CYCLE        10
Info: PERIODIC CELL BASIS 1  31.8225 0 0
Info: PERIODIC CELL BASIS 2  0 30.2802 0
Info: PERIODIC CELL BASIS 3  0 0 31.6908
Info: PERIODIC CELL CENTER   0 0 0
Info: WRAPPING WATERS AROUND PERIODIC BOUNDARIES ON OUTPUT.
Info: WRAPPING ALL CLUSTERS AROUND PERIODIC BOUNDARIES ON OUTPUT.
Info: FIRST LDB TIMESTEP     50
Info: LAST LDB TIMESTEP     -1
Info: HOM BACKGROUND SCALING 1
Info: PME BACKGROUND SCALING 1
Info: MIN ATOMS PER PATCH    40
Info: EMPTY PATCH LOAD       40 ATOMS
Info: VELOCITY FILE          mobley_3370989_equil.vel
Info: CENTER OF MASS MOVING INITIALLY? NO
Info: DIELECTRIC             1
Info: EXCLUDE                SCALED ONE-FOUR
Info: 1-4 ELECTROSTATICS SCALED BY 0.833333
Info: MODIFIED 1-4 VDW PARAMETERS WILL BE USED
Info: DCD FILENAME           mobley_3370989_prod.dcd
Info: DCD FREQUENCY          100000
Info: DCD FIRST STEP         100000
Info: DCD FILE WILL CONTAIN UNIT CELL DATA
Info: XST FILENAME           mobley_3370989_prod.xst
Info: XST FREQUENCY          100000
Info: NO VELOCITY DCD OUTPUT
Info: NO FORCE DCD OUTPUT
Info: OUTPUT FILENAME        mobley_3370989_prod
Info: BINARY OUTPUT FILES WILL BE USED
Info: RESTART FILENAME       mobley_3370989_prod.restart
Info: RESTART FREQUENCY      100000
Info: BINARY RESTART FILES WILL BE USED
Info: CUTOFF                 9
Info: PAIRLIST DISTANCE      11
Info: PAIRLIST SHRINK RATE   0.01
Info: PAIRLIST GROW RATE     0.01
Info: PAIRLIST TRIGGER       0.3
Info: PAIRLISTS PER CYCLE    2
Info: PAIRLISTS ENABLED
Info: MARGIN                 2
Info: HYDROGEN GROUP CUTOFF  2.5
Info: PATCH DIMENSION        15.5
Info: ENERGY OUTPUT STEPS    100000
Info: ENERGY EVALUATION STEPS    100000
Info: OUTPUT ENERGY PRECISION 4
Info: CROSSTERM ENERGY INCLUDED IN DIHEDRAL
Info: TIMING OUTPUT STEPS    1000000
Info: PRESSURE OUTPUT STEPS  100000
Info: ALCHEMICAL FEP ON
Info: FEP CURRENT LAMBDA VALUE     0
Info: FEP COMPARISON LAMBDA VALUE  0.05
Info: FEP INTRA-ALCHEMICAL NON-BONDED INTERACTIONS WILL BE RETAINED
Info: FEP INTRA-ALCHEMICAL BONDED INTERACTIONS WILL BE RETAINED
Info: FEP VDW SHIFTING COEFFICIENT 5
Info: FEP ELEC. ACTIVE FOR ANNIHILATED PARTICLES BETWEEN LAMBDA = 0 AND LAMBDA = 0.5
Info: FEP ELEC. ACTIVE FOR EXNIHILATED PARTICLES BETWEEN LAMBDA = 0.5 AND LAMBDA = 1
Info: FEP VDW ACTIVE FOR ANNIHILATED PARTICLES BETWEEN LAMBDA = 0 AND LAMBDA = 1
Info: FEP VDW ACTIVE FOR EXNIHILATED PARTICLES BETWEEN LAMBDA = 0 AND LAMBDA = 1
Info: FEP BOND ACTIVE FOR ANNIHILATED PARTICLES BETWEEN LAMBDA = 1 AND LAMBDA = 1
Info: FEP BOND ACTIVE FOR EXNIHILATED PARTICLES BETWEEN LAMBDA = 0 AND LAMBDA = 0
Info: LANGEVIN DYNAMICS ACTIVE
Info: LANGEVIN TEMPERATURE   300
Info: LANGEVIN USING BBK INTEGRATOR
Info: LANGEVIN DAMPING COEFFICIENT IS 1 INVERSE PS
Info: LANGEVIN DYNAMICS APPLIED TO HYDROGENS
Info: LANGEVIN PISTON PRESSURE CONTROL ACTIVE
Info:        TARGET PRESSURE IS 1.01325 BAR
Info:     OSCILLATION PERIOD IS 50 FS
Info:             DECAY TIME IS 25 FS
Info:     PISTON TEMPERATURE IS 300 K
Info:       PRESSURE CONTROL IS GROUP-BASED
Info:    INITIAL STRAIN RATE IS -0.000518512 -0.000518512 -0.000518512
Info:       CELL FLUCTUATION IS ISOTROPIC
Info: PARTICLE MESH EWALD (PME) ACTIVE
Info: PME TOLERANCE               1e-06
Info: PME EWALD COEFFICIENT       0.348832
Info: PME INTERPOLATION ORDER     4
Info: PME GRID DIMENSIONS         32 32 32
Info: PME MAXIMUM GRID SPACING    1
Info: PME CALCULATION WILL BE PERFORMED ON GPU
Info: FULL ELECTROSTATIC EVALUATION FREQUENCY      2
Info: USING VERLET I (r-RESPA) MTS SCHEME.
Info: C1 SPLITTING OF LONG RANGE ELECTROSTATICS
Info: PLACING ATOMS IN PATCHES BY HYDROGEN GROUPS
Info: RIGID BONDS TO HYDROGEN : ALL
Info:         ERROR TOLERANCE : 1e-08
Info:          MAX ITERATIONS : 100
Info: RIGID WATER USING SETTLE ALGORITHM
Info: RANDOM NUMBER SEED     1743488183
Info: USE HYDROGEN BONDS?    NO
Info: Using AMBER format force field!
Info: AMBER PARM FILE        mobley_3370989.prmtop
Info: COORDINATE PDB         mobley_3370989.pdb
Info: Exclusions will be read from PARM file!
Info: SCNB (VDW SCALING)     2
Info: USING ARITHMETIC MEAN TO COMBINE L-J SIGMA PARAMETERS
Info: BINARY COORDINATES     mobley_3370989_equil.coor
Info: SUMMARY OF PARAMETERS:
Info: 6 BONDS
Info: 6 ANGLES
Info:   6 HARMONIC
Info:   0 COSINE-BASED
Info: 3 DIHEDRAL
Info: 0 IMPROPER
Info: 0 CROSSTERM
Info: 0 VDW
Info: 21 VDW_PAIRS
Info: 0 NBTHOLE_PAIRS
Info: To read alchdata from file: mobley_3370989.pdb
Info: To read alchflag data from column: 5
Info: STRUCTURE SUMMARY:
Info: 2969 ATOMS
Info: 2968 BONDS
Info: 12 ANGLES
Info: 15 DIHEDRALS
Info: 0 IMPROPERS
Info: 0 CROSSTERMS
Info: 2989 EXCLUSIONS
Info: 2965 RIGID BONDS
Info: ALCH: 0 ATOMS TO DISAPPEAR IN FINAL STATE
Info: ALCH: 8 ATOMS TO APPEAR IN FINAL STATE
Info: 5942 DEGREES OF FREEDOM
Info: 991 HYDROGEN GROUPS
Info: 4 ATOMS IN LARGEST HYDROGEN GROUP
Info: 991 MIGRATION GROUPS
Info: 4 ATOMS IN LARGEST MIGRATION GROUP
Info: TOTAL MASS = 17847.8 amu
Info: TOTAL CHARGE = -0.000200003 e
Info: MASS DENSITY = 0.970553 g/cm^3
Info: ATOM DENSITY = 0.0972265 atoms/A^3
Info: ADDED 0 IMPLICIT EXCLUSIONS
Info: NONBONDED TABLE R-SQUARED SPACING: 0.0625
Info: NONBONDED TABLE SIZE: 705 POINTS
Info: REMOVING COM VELOCITY -0.0556422 -0.0753209 0.0965891
Info: Use 3D box decompostion in PME FFT.
Info: Updated CUDA force table with 4096 elements.
Info: Updated CUDA LJ table with 6 x 6 elements.
Info: Found 11 unique exclusion lists needing 16 bytes
TCL: Running for 1500000 steps
ETITLE: TS BOND ANGLE DIHED IMPRP ELECT VDW BOUNDARY MISC KINETIC TOTAL TEMP POTENTIAL TOTALAVG TEMPAVG PRESSURE GPRESSURE VOLUME PRESSAVG GPRESSAVG
ENERGY: 0 1.2669 2.2352 1.9957 0.0000 -10901.6330 1581.3153 0.0000 0.0000 1772.2229 -7542.5970 300.1761 -9314.8199 -7542.5970 300.1761 992.1557 1074.1572 30536.9504 992.1557 1074.1572
ENERGY: 300000 0.3326 2.0537 1.2296 0.0000 -10753.4724 1483.7172 0.0000 0.0000 1829.1346 -7437.0047 309.8157 -9266.1393 -7550.0660 298.6754 421.9059 510.9574 30596.7919 366.7884 444.5804
ENERGY: 600000 0.5628 3.1201 1.1555 0.0000 -10793.6971 1450.4255 0.0000 0.0000 1729.4193 -7609.0140 292.9261 -9338.4333 -7561.4662 298.0722 -107.4112 -48.2962 30665.8292 63.9200 138.1495
ENERGY: 900000 1.0739 2.6703 1.3535 0.0000 -10791.3652 1467.8281 0.0000 0.0000 1768.7890 -7549.6505 299.5945 -9318.4395 -7579.6609 297.2170 22.9102 94.0894 30666.6586 90.4629 169.5643
ENERGY: 1200000 1.8700 5.1062 1.1858 0.0000 -10733.8047 1422.2933 0.0000 0.0000 1844.6893 -7458.6602 312.4503 -9303.3494 -7566.2560 298.5983 -1.6488 61.1715 30083.9912 23.2977 104.2394
ENERGY: 1500000 1.1096 3.9804 1.5338 0.0000 -10893.5261 1508.7257 0.0000 0.0000 1771.2537 -7606.9228 300.0119 -9378.1765 -7569.8709 298.5909 298.8093 421.7987 30105.3427 -19.7257 59.1202
TCL: Running FEP window   2: Lambda1 0.05   Lambda2 0.1    [dLambda 0.05  ]
TCL: Setting parameter firsttimestep to 0
TCL: Setting parameter alchLambda to 0.05
Info: NONBONDED TABLE R-SQUARED SPACING: 0.0625
Info: NONBONDED TABLE SIZE: 705 POINTS
TCL: Setting parameter alchLambda2 to 0.1
Info: NONBONDED TABLE R-SQUARED SPACING: 0.0625
Info: NONBONDED TABLE SIZE: 705 POINTS
TCL: Running for 1500000 steps
ETITLE: TS BOND ANGLE DIHED IMPRP ELECT VDW BOUNDARY MISC KINETIC TOTAL TEMP POTENTIAL TOTALAVG TEMPAVG PRESSURE GPRESSURE VOLUME PRESSAVG GPRESSAVG
ENERGY: 0 1.1096 3.9804 1.5338 0.0000 -10893.5254 1509.2217 0.0000 0.0000 1770.3459 -7607.3340 299.8582 -9377.6798 -7607.3340 299.8582 343.6591 423.1536 30105.3427 343.6591 423.1536
ENERGY: 300000 0.1203 2.5264 1.1559 0.0000 -10863.1889 1476.1261 0.0000 0.0000 1793.6256 -7589.6346 303.8012 -9383.2602 -7589.5846 302.7043 134.4966 211.9570 30219.3466 165.4439 225.4074
ENERGY: 600000 0.3934 2.7344 1.2024 0.0000 -10833.7004 1460.5987 0.0000 0.0000 1758.7326 -7610.0390 297.8911 -9368.7716 -7571.1572 301.4811 -268.0691 -210.8309 30754.0295 20.3003 71.0315
ENERGY: 900000 3.8226 6.8495 1.1390 0.0000 -10845.2340 1450.5024 0.0000 0.0000 1805.6562 -7577.2643 305.8390 -9382.9205 -7572.8514 301.1444 -157.4545 -48.2076 30173.5419 -1.7506 47.4101
ENERGY: 1200000 0.4965 2.7210 1.2200 0.0000 -10911.5114 1555.0173 0.0000 0.0000 1798.1674 -7553.8892 304.5705 -9352.0566 -7579.9321 300.9685 600.9334 672.4144 30645.5910 -94.7514 -36.2834
ENERGY: 1500000 0.8322 2.7698 1.2539 0.0000 -10654.0143 1345.1189 0.0000 0.0000 1787.3313 -7516.7082 302.7351 -9304.0395 -7568.7793 301.4055 -601.3982 -531.4168 30511.8589 -100.6714 -43.5193
TCL: Running FEP window   3: Lambda1 0.1    Lambda2 0.15000000000000002 [dLambda 0.05000000000000002]
TCL: Setting parameter firsttimestep to 0
TCL: Setting parameter alchLambda to 0.1
Info: NONBONDED TABLE R-SQUARED SPACING: 0.0625
Info: NONBONDED TABLE SIZE: 705 POINTS
TCL: Setting parameter alchLambda2 to 0.15000000000000002
Info: NONBONDED TABLE R-SQUARED SPACING: 0.0625
Info: NONBONDED TABLE SIZE: 705 POINTS
TCL: Running for 1500000 steps
ETITLE: TS BOND ANGLE DIHED IMPRP ELECT VDW BOUNDARY MISC KINETIC TOTAL TEMP POTENTIAL TOTALAVG TEMPAVG PRESSURE GPRESSURE VOLUME PRESSAVG GPRESSAVG
ENERGY: 0 0.8322 2.7698 1.2539 0.0000 -10654.0163 1346.1784 0.0000 0.0000 1786.4427 -7516.5393 302.5846 -9302.9820 -7516.5393 302.5846 -625.2460 -526.5074 30511.8589 -625.2460 -526.5074
ENERGY: 300000 0.1758 2.6784 1.4543 0.0000 -10834.5380 1494.3716 0.0000 0.0000 1743.9505 -7591.9073 295.3874 -9335.8579 -7562.9885 298.9230 233.0249 294.6002 30494.2005 -261.6938 -196.2221
ENERGY: 600000 0.4396 2.8663 1.2993 0.0000 -10797.6835 1470.4482 0.0000 0.0000 1793.7810 -7528.8491 303.8276 -9322.6301 -7564.5662 298.2125 149.7387 278.8744 30385.0369 -131.0151 -57.4927
ENERGY: 900000 1.3627 2.1628 1.1698 0.0000 -10887.8166 1510.6366 0.0000 0.0000 1785.2547 -7587.2299 302.3834 -9372.4847 -7571.8365 298.1361 439.9674 515.8545 30258.5289 -1.1908 75.0031
ENERGY: 1200000 0.2898 3.3652 1.1945 0.0000 -10857.7456 1507.9994 0.0000 0.0000 1761.4456 -7583.4512 298.3506 -9344.8968 -7582.5618 298.9551 427.8903 478.2229 30432.2909 -39.6415 40.6737
ENERGY: 1500000 0.8443 4.8278 1.3851 0.0000 -10814.7531 1440.8911 0.0000 0.0000 1768.0159 -7598.7890 299.4635 -9366.8048 -7593.9058 298.4789 -273.8408 -202.0188 30518.7740 -75.6624 -0.8557
TCL: Running FEP window   4: Lambda1 0.15000000000000002 Lambda2 0.2    [dLambda 0.04999999999999999]
TCL: Setting parameter firsttimestep to 0
TCL: Setting parameter alchLambda to 0.15000000000000002
Info: NONBONDED TABLE R-SQUARED SPACING: 0.0625
Info: NONBONDED TABLE SIZE: 705 POINTS
TCL: Setting parameter alchLambda2 to 0.2
Info: NONBONDED TABLE R-SQUARED SPACING: 0.0625
Info: NONBONDED TABLE SIZE: 705 POINTS
TCL: Running for 1500000 steps
ETITLE: TS BOND ANGLE DIHED IMPRP ELECT VDW BOUNDARY MISC KINETIC TOTAL TEMP POTENTIAL TOTALAVG TEMPAVG PRESSURE GPRESSURE VOLUME PRESSAVG GPRESSAVG
ENERGY: 0 0.8443 4.8278 1.3851 0.0000 -10814.7519 1441.4104 0.0000 0.0000 1767.1661 -7599.1181 299.3196 -9366.2842 -7599.1181 299.3196 -283.4201 -200.6993 30518.7740 -283.4201 -200.6993
ENERGY: 300000 0.5407 4.1832 1.2942 0.0000 -10799.7850 1444.2322 0.0000 0.0000 1749.3110 -7600.2237 296.2953 -9349.5347 -7592.3992 297.6156 19.1714 88.3987 30091.2596 -4.9505 41.1175
ENERGY: 600000 1.2019 2.4484 1.2512 0.0000 -10760.1362 1390.5451 0.0000 0.0000 1757.8225 -7606.8672 297.7370 -9364.6896 -7576.9058 297.7506 -595.7121 -494.5397 30283.0738 -164.0818 -104.9621
ENERGY: 900000 0.2987 3.6533 1.1296 0.0000 -10715.6946 1388.2529 0.0000 0.0000 1778.9258 -7543.4344 301.3114 -9322.3602 -7563.0354 299.5267 -458.7125 -367.9458 30525.3464 -166.6773 -104.9323
ENERGY: 1200000 0.0144 3.9206 1.4549 0.0000 -10818.0516 1447.9891 0.0000 0.0000 1769.2151 -7595.4577 299.6666 -9364.6727 -7559.3792 300.7312 -24.7230 -47.9082 30243.3629 -92.5608 -38.8007
ENERGY: 1500000 1.5507 3.6638 1.1566 0.0000 -10773.4819 1493.1749 0.0000 0.0000 1707.1018 -7566.8340 289.1460 -9273.9359 -7556.9598 300.3754 367.6036 460.7276 30304.0720 -42.6426 12.4537
TCL: Running FEP window   5: Lambda1 0.2    Lambda2 0.25   [dLambda 0.04999999999999999]
TCL: Setting parameter firsttimestep to 0
TCL: Setting parameter alchLambda to 0.2
Info: NONBONDED TABLE R-SQUARED SPACING: 0.0625
Info: NONBONDED TABLE SIZE: 705 POINTS
TCL: Setting parameter alchLambda2 to 0.25
Info: NONBONDED TABLE R-SQUARED SPACING: 0.0625
Info: NONBONDED TABLE SIZE: 705 POINTS
TCL: Running for 1500000 steps
ETITLE: TS BOND ANGLE DIHED IMPRP ELECT VDW BOUNDARY MISC KINETIC TOTAL TEMP POTENTIAL TOTALAVG TEMPAVG PRESSURE GPRESSURE VOLUME PRESSAVG GPRESSAVG
ENERGY: 0 1.5507 3.6638 1.1566 0.0000 -10773.4823 1493.7431 0.0000 0.0000 1706.2062 -7567.1619 288.9943 -9273.3680 -7567.1619 288.9943 381.1834 463.1898 30304.0720 381.1834 463.1898
ENERGY: 300000 0.4324 4.6648 1.5041 0.0000 -10679.4368 1405.7007 0.0000 0.0000 1760.3109 -7506.8239 298.1584 -9267.1348 -7539.0382 299.2880 -352.2628 -263.5957 30883.5007 89.1358 153.8635
ENERGY: 600000 0.6809 3.3148 1.1514 0.0000 -10870.5016 1508.1857 0.0000 0.0000 1790.2632 -7566.9056 303.2317 -9357.1688 -7572.9367 298.7135 485.6396 520.3001 30267.8748 215.0794 286.8505
ENERGY: 900000 1.3015 2.0893 1.1475 0.0000 -10782.2480 1512.6282 0.0000 0.0000 1792.1419 -7472.9396 303.5499 -9265.0815 -7556.9199 299.5945 721.0715 786.0995 30449.7044 300.1425 365.0990
ENERGY: 1200000 0.6732 2.4977 1.1291 0.0000 -10918.7830 1547.7960 0.0000 0.0000 1819.6175 -7547.0694 308.2037 -9366.6869 -7559.8350 301.4748 784.8748 835.5783 30281.3010 323.7648 393.5680
ENERGY: 1500000 0.0523 6.0547 1.7684 0.0000 -10888.1117 1515.7521 0.0000 0.0000 1755.7605 -7608.7237 297.3877 -9364.4842 -7564.4664 301.0820 351.9661 432.7067 30302.3258 374.6788 440.2294
TCL: Running FEP window   6: Lambda1 0.25   Lambda2 0.3    [dLambda 0.04999999999999999]
TCL: Setting parameter firsttimestep to 0
TCL: Setting parameter alchLambda to 0.25
Info: NONBONDED TABLE R-SQUARED SPACING: 0.0625
Info: NONBONDED TABLE SIZE: 705 POINTS
TCL: Setting parameter alchLambda2 to 0.3
Info: NONBONDED TABLE R-SQUARED SPACING: 0.0625
Info: NONBONDED TABLE SIZE: 705 POINTS
TCL: Running for 1500000 steps
ETITLE: TS BOND ANGLE DIHED IMPRP ELECT VDW BOUNDARY MISC KINETIC TOTAL TEMP POTENTIAL TOTALAVG TEMPAVG PRESSURE GPRESSURE VOLUME PRESSAVG GPRESSAVG
ENERGY: 0 0.0523 6.0547 1.7684 0.0000 -10888.1117 1518.6699 0.0000 0.0000 1754.8667 -7606.6996 297.2363 -9361.5662 -7606.6996 297.2363 351.8092 445.8594 30302.3258 351.8092 445.8594
ENERGY: 300000 0.0448 3.0533 1.2233 0.0000 -10855.6722 1488.0339 0.0000 0.0000 1781.6285 -7581.6884 301.7692 -9363.3169 -7585.0945 300.6287 350.6092 283.6399 30308.7648 331.7102 358.1874
ENERGY: 600000 0.9785 3.6228 1.1500 0.0000 -10767.3292 1397.3737 0.0000 0.0000 1724.9679 -7639.2364 292.1721 -9364.2043 -7576.4176 298.8052 -697.1337 -587.7784 30795.6472 98.8624 137.6672
ENERGY: 900000 0.4519 3.4546 1.2821 0.0000 -10815.7949 1476.2623 0.0000 0.0000 1790.2799 -7544.0641 303.2345 -9334.3440 -7573.2519 300.0164 217.0471 292.6178 30627.3588 19.5199 63.9764
ENERGY: 1200000 0.3582 3.8746 1.4574 0.0000 -10755.0075 1437.6612 0.0000 0.0000 1773.3575 -7538.2985 300.3683 -9311.6560 -7567.6982 300.3817 8.4746 1.1128 30664.8272 53.4129 95.7331
ENERGY: 1500000 0.9864 3.1877 1.1584 0.0000 -10821.6814 1559.5803 0.0000 0.0000 1802.2722 -7454.4963 305.2658 -9256.7686 -7558.6723 300.4109 1105.3551 1155.0169 30515.6048 81.3560 119.4773
TCL: Running FEP window   7: Lambda1 0.3    Lambda2 0.35   [dLambda 0.04999999999999999]
TCL: Setting parameter firsttimestep to 0
TCL: Setting parameter alchLambda to 0.3
Info: NONBONDED TABLE R-SQUARED SPACING: 0.0625
Info: NONBONDED TABLE SIZE: 705 POINTS
TCL: Setting parameter alchLambda2 to 0.35
Info: NONBONDED TABLE R-SQUARED SPACING: 0.0625
Info: NONBONDED TABLE SIZE: 705 POINTS
TCL: Running for 1500000 steps
ETITLE: TS BOND ANGLE DIHED IMPRP ELECT VDW BOUNDARY MISC KINETIC TOTAL TEMP POTENTIAL TOTALAVG TEMPAVG PRESSURE GPRESSURE VOLUME PRESSAVG GPRESSAVG
ENERGY: 0 0.9864 3.1877 1.1584 0.0000 -10821.6822 1559.3299 0.0000 0.0000 1801.4078 -7455.6120 305.1194 -9257.0198 -7455.6120 305.1194 1052.0678 1157.3752 30515.6048 1052.0678 1157.3752
ENERGY: 300000 0.8934 7.6169 1.9510 0.0000 -10747.2268 1428.3691 0.0000 0.0000 1780.4851 -7527.9113 301.5755 -9308.3965 -7559.0075 302.1102 -282.2868 -262.4090 30768.7731 125.1158 174.3163
ENERGY: 600000 2.4465 4.3014 1.1435 0.0000 -10826.7505 1470.2396 0.0000 0.0000 1773.8398 -7574.7797 300.4499 -9348.6195 -7576.2174 301.4032 122.3950 138.7586 30782.3739 213.4935 241.2961
ENERGY: 900000 1.3132 1.2999 1.3371 0.0000 -10753.0073 1457.6123 0.0000 0.0000 1764.7924 -7526.6525 298.9175 -9291.4449 -7578.7526 300.4307 227.9705 321.5370 30409.3869 113.5502 163.1088
ENERGY: 1200000 0.5220 1.9893 2.0385 0.0000 -10741.5502 1402.7661 0.0000 0.0000 1737.7744 -7596.4600 294.3412 -9334.2343 -7585.0973 299.2307 -589.3995 -574.0812 30867.7519 57.4951 105.6302
ENERGY: 1500000 2.7291 1.9584 1.2023 0.0000 -10702.8220 1383.7599 0.0000 0.0000 1766.9181 -7546.2542 299.2776 -9313.1722 -7582.6852 300.1995 -531.4470 -456.0336 30815.9019 -56.4583 -0.8173
TCL: Running FEP window   8: Lambda1 0.35   Lambda2 0.39999999999999997 [dLambda 0.04999999999999999]
TCL: Setting parameter firsttimestep to 0
TCL: Setting parameter alchLambda to 0.35
Info: NONBONDED TABLE R-SQUARED SPACING: 0.0625
Info: NONBONDED TABLE SIZE: 705 POINTS
TCL: Setting parameter alchLambda2 to 0.39999999999999997
Info: NONBONDED TABLE R-SQUARED SPACING: 0.0625
Info: NONBONDED TABLE SIZE: 705 POINTS
TCL: Running for 1500000 steps
ETITLE: TS BOND ANGLE DIHED IMPRP ELECT VDW BOUNDARY MISC KINETIC TOTAL TEMP POTENTIAL TOTALAVG TEMPAVG PRESSURE GPRESSURE VOLUME PRESSAVG GPRESSAVG
ENERGY: 0 2.7291 1.9584 1.2023 0.0000 -10702.8209 1383.8607 0.0000 0.0000 1766.0585 -7547.0119 299.1320 -9313.0704 -7547.0119 299.1320 -550.4253 -452.0373 30815.9019 -550.4253 -452.0373
ENERGY: 300000 1.9737 0.5659 1.8087 0.0000 -10766.1880 1403.0202 0.0000 0.0000 1718.8993 -7639.9203 291.1442 -9358.8195 -7562.9011 297.8112 -705.6250 -689.6645 30860.8197 -241.6961 -192.3587
ENERGY: 600000 1.4476 3.3358 1.2130 0.0000 -10739.6415 1410.4260 0.0000 0.0000 1805.8915 -7517.3275 305.8788 -9323.2191 -7530.1919 300.3605 -516.3862 -386.7682 30838.9334 -122.6603 -50.0151
ENERGY: 900000 2.1330 3.9397 1.1977 0.0000 -11034.6607 1590.0771 0.0000 0.0000 1749.4511 -7687.8622 296.3190 -9437.3133 -7533.0989 301.0074 1032.6854 1100.5922 29949.2878 -16.0551 52.2091
ENERGY: 1200000 1.0649 2.4721 1.1609 0.0000 -10845.7818 1466.8278 0.0000 0.0000 1744.4172 -7629.8388 295.4664 -9374.2560 -7551.0443 300.6821 -270.2758 -174.5043 30982.0085 -87.2653 -13.8740
ENERGY: 1500000 0.0713 1.6233 1.3943 0.0000 -10726.4729 1465.7087 0.0000 0.0000 1740.4692 -7517.2060 294.7977 -9257.6752 -7550.3429 300.3500 70.1235 147.1582 30959.0992 -113.7205 -39.8381
TCL: Running FEP window   9: Lambda1 0.39999999999999997 Lambda2 0.44999999999999996 [dLambda 0.04999999999999999]
TCL: Setting parameter firsttimestep to 0
TCL: Setting parameter alchLambda to 0.39999999999999997
Info: NONBONDED TABLE R-SQUARED SPACING: 0.0625
Info: NONBONDED TABLE SIZE: 705 POINTS
TCL: Setting parameter alchLambda2 to 0.44999999999999996
Info: NONBONDED TABLE R-SQUARED SPACING: 0.0625
Info: NONBONDED TABLE SIZE: 705 POINTS
TCL: Running for 1500000 steps
ETITLE: TS BOND ANGLE DIHED IMPRP ELECT VDW BOUNDARY MISC KINETIC TOTAL TEMP POTENTIAL TOTALAVG TEMPAVG PRESSURE GPRESSURE VOLUME PRESSAVG GPRESSAVG
ENERGY: 0 0.0713 1.6233 1.3943 0.0000 -10726.4751 1466.4971 0.0000 0.0000 1739.5331 -7517.3560 294.6391 -9256.8891 -7517.3560 294.6391 71.9727 156.7971 30959.0992 71.9727 156.7971
ENERGY: 300000 0.9401 3.5909 1.1244 0.0000 -10707.4991 1446.1717 0.0000 0.0000 1757.1910 -7498.4811 297.6300 -9255.6721 -7558.6421 298.8077 103.4774 122.2760 30678.2464 214.6290 282.1363
ENERGY: 600000 0.3856 5.4412 1.2827 0.0000 -10634.2045 1367.7270 0.0000 0.0000 1768.0448 -7491.3232 299.4684 -9259.3680 -7543.1603 299.6347 -579.2063 -552.3586 30699.0340 -79.0701 -10.3339
ENERGY: 900000 0.7198 1.5750 1.2512 0.0000 -10918.4568 1515.9741 0.0000 0.0000 1782.2601 -7616.6765 301.8762 -9398.9366 -7535.6084 300.5185 182.3125 317.6860 30632.8168 -82.8659 0.8524
ENERGY: 1200000 1.7317 1.7499 1.2154 0.0000 -10799.9072 1501.8605 0.0000 0.0000 1721.1282 -7572.2216 291.5217 -9293.3497 -7531.9213 299.4943 603.0305 673.0182 30207.9888 -73.5175 -6.8288
ENERGY: 1500000 0.3736 2.1358 1.4994 0.0000 -10827.9408 1522.8477 0.0000 0.0000 1739.2528 -7561.8316 294.5917 -9301.0844 -7536.9159 299.9991 684.5830 730.9405 30349.6295 40.8946 108.1671
TCL: Running FEP window  10: Lambda1 0.44999999999999996 Lambda2 0.49999999999999994 [dLambda 0.04999999999999999]
TCL: Setting parameter firsttimestep to 0
TCL: Setting parameter alchLambda to 0.44999999999999996
Info: NONBONDED TABLE R-SQUARED SPACING: 0.0625
Info: NONBONDED TABLE SIZE: 705 POINTS
TCL: Setting parameter alchLambda2 to 0.49999999999999994
Info: NONBONDED TABLE R-SQUARED SPACING: 0.0625
Info: NONBONDED TABLE SIZE: 705 POINTS
TCL: Running for 1500000 steps
ETITLE: TS BOND ANGLE DIHED IMPRP ELECT VDW BOUNDARY MISC KINETIC TOTAL TEMP POTENTIAL TOTALAVG TEMPAVG PRESSURE GPRESSURE VOLUME PRESSAVG GPRESSAVG
ENERGY: 0 0.3736 2.1358 1.4994 0.0000 -10827.9415 1522.9444 0.0000 0.0000 1738.3598 -7562.6285 294.4404 -9300.9883 -7562.6285 294.4404 658.1242 733.6737 30349.6295 658.1242 733.6737
ENERGY: 300000 0.5507 1.9326 1.5399 0.0000 -10829.6875 1487.7069 0.0000 0.0000 1759.1958 -7578.7615 297.9696 -9337.9574 -7612.8475 295.9346 500.3801 508.6657 30013.7325 444.9628 534.8326
ENERGY: 600000 0.1192 1.6926 1.3063 0.0000 -10835.4091 1493.6773 0.0000 0.0000 1823.5826 -7515.0311 308.8753 -9338.6137 -7593.1288 297.8267 401.1769 431.0336 30460.6251 462.2404 528.8018
ENERGY: 900000 0.8229 3.9506 1.2043 0.0000 -10790.9587 1397.3090 0.0000 0.0000 1783.9990 -7603.6730 302.1707 -9387.6719 -7592.1583 298.2204 -688.6084 -578.4331 30471.5411 235.7567 304.1839
ENERGY: 1200000 0.4689 1.0241 1.1446 0.0000 -10975.0374 1485.4785 0.0000 0.0000 1702.3389 -7784.5824 288.3392 -9486.9213 -7603.8415 297.1231 -295.8769 -288.4393 30658.9982 136.1681 193.7499
ENERGY: 1500000 0.2330 2.1214 1.2074 0.0000 -10800.9853 1466.7167 0.0000 0.0000 1759.5533 -7571.1535 298.0301 -9330.7068 -7599.3273 296.7487 -3.1921 94.5437 30730.5375 122.8692 185.8999
TCL: Running FEP window  11: Lambda1 0.49999999999999994 Lambda2 0.5499999999999999 [dLambda 0.04999999999999999]
TCL: Setting parameter firsttimestep to 0
TCL: Setting parameter alchLambda to 0.49999999999999994
Info: NONBONDED TABLE R-SQUARED SPACING: 0.0625
Info: NONBONDED TABLE SIZE: 705 POINTS
TCL: Setting parameter alchLambda2 to 0.5499999999999999
Info: NONBONDED TABLE R-SQUARED SPACING: 0.0625
Info: NONBONDED TABLE SIZE: 705 POINTS
TCL: Running for 1500000 steps
ETITLE: TS BOND ANGLE DIHED IMPRP ELECT VDW BOUNDARY MISC KINETIC TOTAL TEMP POTENTIAL TOTALAVG TEMPAVG PRESSURE GPRESSURE VOLUME PRESSAVG GPRESSAVG
ENERGY: 0 0.2330 2.1214 1.2074 0.0000 -10800.9853 1466.7113 0.0000 0.0000 1758.6826 -7572.0296 297.8826 -9330.7121 -7572.0296 297.8826 16.3149 96.4856 30730.5375 16.3149 96.4856
ENERGY: 300000 0.2756 3.2237 1.1424 0.0000 -10812.5138 1405.0414 0.0000 0.0000 1736.2234 -7666.6073 294.0785 -9402.8307 -7589.1168 298.0728 -630.0323 -616.6651 30701.2195 24.7427 76.4978
ENERGY: 600000 1.1590 3.3155 1.1924 0.0000 -10811.0946 1445.7556 0.0000 0.0000 1790.6580 -7569.0141 303.2986 -9359.6721 -7564.1825 299.9911 -104.2792 -81.8193 30511.1924 84.8555 124.7248
ENERGY: 900000 1.5202 4.2793 1.1483 0.0000 -10752.4575 1462.8779 0.0000 0.0000 1816.3987 -7466.2330 307.6585 -9282.6317 -7545.0148 300.6801 119.4044 187.2086 30882.7019 -21.9486 17.2459
ENERGY: 1200000 1.9542 2.2304 1.2044 0.0000 -10735.5533 1440.2973 0.0000 0.0000 1747.6760 -7542.1911 296.0184 -9289.8671 -7540.8433 300.9075 -268.1840 -144.6552 30871.2759 -100.5656 -57.8559
ENERGY: 1500000 0.6718 2.2672 1.1494 0.0000 -10718.5094 1416.6193 0.0000 0.0000 1768.1620 -7529.6397 299.4882 -9297.8016 -7536.1099 301.4049 -289.1334 -191.4635 30649.5515 -105.8718 -60.8299
TCL: Running FEP window  12: Lambda1 0.5499999999999999 Lambda2 0.6    [dLambda 0.050000000000000044]
TCL: Setting parameter firsttimestep to 0
TCL: Setting parameter alchLambda to 0.5499999999999999
Info: NONBONDED TABLE R-SQUARED SPACING: 0.0625
Info: NONBONDED TABLE SIZE: 705 POINTS
TCL: Setting parameter alchLambda2 to 0.6
Info: NONBONDED TABLE R-SQUARED SPACING: 0.0625
Info: NONBONDED TABLE SIZE: 705 POINTS
TCL: Running for 1500000 steps
ETITLE: TS BOND ANGLE DIHED IMPRP ELECT VDW BOUNDARY MISC KINETIC TOTAL TEMP POTENTIAL TOTALAVG TEMPAVG PRESSURE GPRESSURE VOLUME PRESSAVG GPRESSAVG
ENERGY: 0 0.6718 2.2673 1.1494 0.0000 -10718.9570 1416.9665 0.0000 0.0000 1767.2609 -7530.6411 299.3356 -9297.9021 -7530.6411 299.3356 -264.4669 -184.4669 30649.5515 -264.4669 -184.4669
ENERGY: 300000 0.9223 3.5016 1.1539 0.0000 -10792.0619 1461.7437 0.0000 0.0000 1759.4255 -7565.3149 298.0085 -9324.7404 -7574.5814 295.5690 -0.4219 33.4795 30688.3348 -102.5478 -53.1574
ENERGY: 600000 0.2997 1.4057 1.1400 0.0000 -10749.8737 1461.8401 0.0000 0.0000 1773.0032 -7512.1850 300.3082 -9285.1882 -7563.3958 295.2546 290.5938 342.2005 30432.3760 -122.2317 -66.6759
ENERGY: 900000 1.1113 1.4084 1.4062 0.0000 -10817.0676 1457.0021 0.0000 0.0000 1735.1123 -7621.0274 293.8903 -9356.1397 -7571.5832 295.8218 -131.6163 -47.4147 30996.0063 -175.8668 -118.3371
ENERGY: 1200000 3.3164 0.8804 1.5341 0.0000 -10786.8366 1467.8208 0.0000 0.0000 1757.1522 -7556.1326 297.6234 -9313.2849 -7572.1753 296.9708 -147.7154 -35.3413 30867.9407 -242.3546 -181.0703
ENERGY: 1500000 1.7872 1.2077 1.2258 0.0000 -10642.9680 1376.9912 0.0000 0.0000 1794.9747 -7466.7814 304.0297 -9261.7561 -7568.4727 298.6400 -440.2184 -450.5271 30770.8145 -229.2114 -177.3331
TCL: Running FEP window  13: Lambda1 0.6    Lambda2 0.65   [dLambda 0.050000000000000044]
TCL: Setting parameter firsttimestep to 0
TCL: Setting parameter alchLambda to 0.6
Info: NONBONDED TABLE R-SQUARED SPACING: 0.0625
Info: NONBONDED TABLE SIZE: 705 POINTS
TCL: Setting parameter alchLambda2 to 0.65
Info: NONBONDED TABLE R-SQUARED SPACING: 0.0625
Info: NONBONDED TABLE SIZE: 705 POINTS
TCL: Running for 1500000 steps
ETITLE: TS BOND ANGLE DIHED IMPRP ELECT VDW BOUNDARY MISC KINETIC TOTAL TEMP POTENTIAL TOTALAVG TEMPAVG PRESSURE GPRESSURE VOLUME PRESSAVG GPRESSAVG
ENERGY: 0 1.7872 1.2077 1.2258 0.0000 -10643.0255 1376.7364 0.0000 0.0000 1794.0683 -7468.0001 303.8762 -9262.0684 -7468.0001 303.8762 -538.0822 -451.9085 30770.8145 -538.0822 -451.9085
ENERGY: 300000 2.4416 3.2590 1.4284 0.0000 -10746.9228 1441.4750 0.0000 0.0000 1759.4870 -7538.8319 298.0189 -9298.3189 -7529.9696 300.7710 -103.7902 -37.4326 30707.2995 -426.9643 -389.7253
ENERGY: 600000 0.0198 1.4466 1.3863 0.0000 -10726.1769 1417.1487 0.0000 0.0000 1730.5333 -7575.6422 293.1148 -9306.1755 -7534.8739 300.1486 -384.5092 -239.6431 30791.2979 -314.3198 -248.3669
ENERGY: 900000 1.8018 4.0065 1.6311 0.0000 -10703.3297 1483.3089 0.0000 0.0000 1769.5681 -7443.0133 299.7264 -9212.5814 -7529.9861 299.1748 454.5862 497.9819 30786.2777 -78.5876 -13.2553
ENERGY: 1200000 1.1678 1.3579 1.6415 0.0000 -10972.7601 1580.3230 0.0000 0.0000 1829.8832 -7558.3867 309.9425 -9388.2699 -7530.1610 299.5605 1032.1307 1108.7999 30518.8224 130.4828 202.7563
ENERGY: 1500000 0.3351 3.4394 1.2049 0.0000 -10941.6561 1510.2274 0.0000 0.0000 1786.8157 -7639.6337 302.6478 -9426.4494 -7545.1351 299.6736 300.5231 349.6472 30260.7822 124.7583 187.2009
TCL: Running FEP window  14: Lambda1 0.65   Lambda2 0.7000000000000001 [dLambda 0.050000000000000044]
TCL: Setting parameter firsttimestep to 0
TCL: Setting parameter alchLambda to 0.65
Info: NONBONDED TABLE R-SQUARED SPACING: 0.0625
Info: NONBONDED TABLE SIZE: 705 POINTS
TCL: Setting parameter alchLambda2 to 0.7000000000000001
Info: NONBONDED TABLE R-SQUARED SPACING: 0.0625
Info: NONBONDED TABLE SIZE: 705 POINTS
TCL: Running for 1500000 steps
ETITLE: TS BOND ANGLE DIHED IMPRP ELECT VDW BOUNDARY MISC KINETIC TOTAL TEMP POTENTIAL TOTALAVG TEMPAVG PRESSURE GPRESSURE VOLUME PRESSAVG GPRESSAVG
ENERGY: 0 0.3351 3.4394 1.2049 0.0000 -10941.9894 1510.1788 0.0000 0.0000 1785.9108 -7640.9204 302.4945 -9426.8312 -7640.9204 302.4945 252.9487 351.6770 30260.7822 252.9487 351.6770
ENERGY: 300000 0.4325 5.6246 1.1768 0.0000 -10803.2521 1491.1948 0.0000 0.0000 1801.4558 -7503.3677 305.1275 -9304.8235 -7572.9455 301.2594 99.0098 201.1936 30693.8317 524.2778 623.9287
ENERGY: 600000 0.1235 4.1248 1.2493 0.0000 -10745.7003 1391.5939 0.0000 0.0000 1824.2089 -7524.3999 308.9814 -9348.6088 -7538.6239 304.4915 -706.3800 -686.7114 31050.5846 499.8478 587.9273
ENERGY: 900000 0.3649 5.3024 1.1665 0.0000 -10704.8591 1399.1737 0.0000 0.0000 1796.1638 -7502.6877 304.2311 -9298.8515 -7542.1474 304.1092 -389.3663 -300.7966 30719.5792 337.7051 421.1555
ENERGY: 1200000 0.9080 4.8996 1.3768 0.0000 -10775.2627 1436.5461 0.0000 0.0000 1807.8186 -7523.7136 306.2052 -9331.5322 -7545.5634 303.6627 -256.9378 -228.3679 30772.7427 256.8433 335.9531
ENERGY: 1500000 0.1459 4.2073 1.7994 0.0000 -10858.6608 1509.5706 0.0000 0.0000 1808.7535 -7534.1840 306.3636 -9342.9376 -7546.8561 303.3030 425.1880 457.5110 30647.6552 207.3660 282.6491
TCL: Running FEP window  15: Lambda1 0.7000000000000001 Lambda2 0.7500000000000001 [dLambda 0.050000000000000044]
TCL: Setting parameter firsttimestep to 0
TCL: Setting parameter alchLambda to 0.7000000000000001
Info: NONBONDED TABLE R-SQUARED SPACING: 0.0625
Info: NONBONDED TABLE SIZE: 705 POINTS
TCL: Setting parameter alchLambda2 to 0.7500000000000001
Info: NONBONDED TABLE R-SQUARED SPACING: 0.0625
Info: NONBONDED TABLE SIZE: 705 POINTS
TCL: Running for 1500000 steps
ETITLE: TS BOND ANGLE DIHED IMPRP ELECT VDW BOUNDARY MISC KINETIC TOTAL TEMP POTENTIAL TOTALAVG TEMPAVG PRESSURE GPRESSURE VOLUME PRESSAVG GPRESSAVG
ENERGY: 0 0.1459 4.2073 1.7994 0.0000 -10858.9959 1509.8056 0.0000 0.0000 1807.8820 -7535.1556 306.2160 -9343.0376 -7535.1556 306.2160 382.8900 463.3225 30647.6552 382.8900 463.3225
ENERGY: 300000 1.7470 2.2763 1.4358 0.0000 -10750.1252 1436.8922 0.0000 0.0000 1789.3046 -7518.4694 303.0693 -9307.7740 -7558.3984 298.9130 -324.1264 -220.0193 30755.0734 -126.8340 -64.0777
ENERGY: 600000 0.9393 2.0778 1.1458 0.0000 -10704.3814 1379.5246 0.0000 0.0000 1752.6104 -7568.0835 296.8542 -9320.6939 -7526.0349 299.5510 -834.0310 -767.9034 31192.7092 -117.0079 -57.9852
ENERGY: 900000 0.1033 2.8636 1.2352 0.0000 -10701.4031 1387.1970 0.0000 0.0000 1756.0420 -7553.9621 297.4354 -9310.0041 -7543.5248 299.4333 -576.1147 -519.9056 30887.4245 -118.2702 -60.6310
ENERGY: 1200000 0.4391 3.7911 1.6510 0.0000 -10759.4463 1423.0446 0.0000 0.0000 1797.3565 -7533.1641 304.4332 -9330.5206 -7563.8854 299.2332 -112.5343 -29.3110 30401.4053 -86.6470 -28.3897
ENERGY: 1500000 0.0157 1.6232 1.8253 0.0000 -10861.5447 1453.6993 0.0000 0.0000 1785.7476 -7618.6336 302.4669 -9404.3812 -7565.0350 298.8418 -102.5215 -36.2263 30159.8696 -79.8841 -25.9742
TCL: Running FEP window  16: Lambda1 0.7500000000000001 Lambda2 0.8000000000000002 [dLambda 0.050000000000000044]
TCL: Setting parameter firsttimestep to 0
TCL: Setting parameter alchLambda to 0.7500000000000001
Info: NONBONDED TABLE R-SQUARED SPACING: 0.0625
Info: NONBONDED TABLE SIZE: 705 POINTS
TCL: Setting parameter alchLambda2 to 0.8000000000000002
Info: NONBONDED TABLE R-SQUARED SPACING: 0.0625
Info: NONBONDED TABLE SIZE: 705 POINTS
TCL: Running for 1500000 steps
ETITLE: TS BOND ANGLE DIHED IMPRP ELECT VDW BOUNDARY MISC KINETIC TOTAL TEMP POTENTIAL TOTALAVG TEMPAVG PRESSURE GPRESSURE VOLUME PRESSAVG GPRESSAVG
ENERGY: 0 0.0157 1.6232 1.8253 0.0000 -10861.8151 1453.9239 0.0000 0.0000 1784.8725 -7619.5544 302.3187 -9404.4269 -7619.5544 302.3187 -112.2586 -29.2056 30159.8696 -112.2586 -29.2056
ENERGY: 300000 0.7525 1.9824 1.1411 0.0000 -10704.5211 1425.8551 0.0000 0.0000 1805.8333 -7468.9566 305.8690 -9274.7900 -7569.0899 301.3098 85.2929 153.4390 30618.4690 -32.2800 34.6528
ENERGY: 600000 1.4388 2.6076 1.2018 0.0000 -10802.1742 1523.9465 0.0000 0.0000 1735.1853 -7537.7943 293.9027 -9272.9796 -7568.8967 299.6402 825.0501 944.6265 30176.8973 178.2386 268.4951
ENERGY: 900000 0.7737 2.6574 2.0741 0.0000 -10686.7287 1376.1181 0.0000 0.0000 1780.6704 -7524.4350 301.6069 -9305.1054 -7548.1825 299.7951 -557.1097 -514.9587 30721.1224 138.9580 226.4346
ENERGY: 1200000 0.5605 1.1354 1.3305 0.0000 -10891.5173 1488.7885 0.0000 0.0000 1766.1204 -7633.5820 299.1424 -9399.7024 -7552.4998 300.4513 131.5027 158.8441 30394.7089 90.0622 159.3261
ENERGY: 1500000 1.7223 3.2227 1.4352 0.0000 -10749.6283 1436.4218 0.0000 0.0000 1767.3917 -7539.4345 299.3578 -9306.8262 -7556.6030 300.2098 -93.8361 -57.9582 30656.3324 45.2781 119.5301
TCL: Running FEP window  17: Lambda1 0.8000000000000002 Lambda2 0.8500000000000002 [dLambda 0.050000000000000044]
TCL: Setting parameter firsttimestep to 0
TCL: Setting parameter alchLambda to 0.8000000000000002
Info: NONBONDED TABLE R-SQUARED SPACING: 0.0625
Info: NONBONDED TABLE SIZE: 705 POINTS
TCL: Setting parameter alchLambda2 to 0.8500000000000002
Info: NONBONDED TABLE R-SQUARED SPACING: 0.0625
Info: NONBONDED TABLE SIZE: 705 POINTS
TCL: Running for 1500000 steps
ETITLE: TS BOND ANGLE DIHED IMPRP ELECT VDW BOUNDARY MISC KINETIC TOTAL TEMP POTENTIAL TOTALAVG TEMPAVG PRESSURE GPRESSURE VOLUME PRESSAVG GPRESSAVG
ENERGY: 0 1.7223 3.2227 1.4352 0.0000 -10750.0490 1436.7885 0.0000 0.0000 1766.5536 -7540.3267 299.2158 -9306.8803 -7540.3267 299.2158 -135.9834 -52.8233 30656.3324 -135.9834 -52.8233
ENERGY: 300000 1.4762 3.4793 1.4563 0.0000 -10847.6952 1530.9452 0.0000 0.0000 1747.6215 -7562.7166 296.0091 -9310.3382 -7546.4685 299.6554 1082.7879 1087.5673 29933.4210 -75.6620 -9.9391
ENERGY: 600000 1.1708 2.5915 1.2654 0.0000 -10757.1865 1459.2344 0.0000 0.0000 1755.9843 -7536.9400 297.4256 -9292.9243 -7528.7502 301.2786 -177.5873 -98.9892 31187.2949 -116.6946 -58.2128
ENERGY: 900000 1.3108 1.9033 1.1776 0.0000 -10846.7174 1513.5338 0.0000 0.0000 1737.5678 -7591.2240 294.3063 -9328.7918 -7550.4498 299.5854 34.4072 136.1234 31027.5468 -63.5088 -1.9257
ENERGY: 1200000 0.0116 5.3660 1.2515 0.0000 -10814.6259 1420.8336 0.0000 0.0000 1782.6649 -7604.4983 301.9447 -9387.1632 -7556.5490 299.1279 -568.5080 -530.3094 30973.7449 -139.4845 -79.6480
ENERGY: 1500000 0.8462 2.8091 1.2600 0.0000 -10898.4575 1495.8479 0.0000 0.0000 1784.7259 -7612.9684 302.2938 -9397.6943 -7562.2361 299.9606 198.6537 285.6187 30595.2165 -79.0588 -17.8515
TCL: Running FEP window  18: Lambda1 0.8500000000000002 Lambda2 0.9000000000000002 [dLambda 0.050000000000000044]
TCL: Setting parameter firsttimestep to 0
TCL: Setting parameter alchLambda to 0.8500000000000002
Info: NONBONDED TABLE R-SQUARED SPACING: 0.0625
Info: NONBONDED TABLE SIZE: 705 POINTS
TCL: Setting parameter alchLambda2 to 0.9000000000000002
Info: NONBONDED TABLE R-SQUARED SPACING: 0.0625
Info: NONBONDED TABLE SIZE: 705 POINTS
TCL: Running for 1500000 steps
ETITLE: TS BOND ANGLE DIHED IMPRP ELECT VDW BOUNDARY MISC KINETIC TOTAL TEMP POTENTIAL TOTALAVG TEMPAVG PRESSURE GPRESSURE VOLUME PRESSAVG GPRESSAVG
ENERGY: 0 0.8462 2.8091 1.2600 0.0000 -10899.0230 1495.6765 0.0000 0.0000 1783.8589 -7614.5722 302.1470 -9398.4312 -7614.5722 302.1470 206.0549 286.1929 30595.2165 206.0549 286.1929
ENERGY: 300000 0.6578 2.5512 1.3194 0.0000 -10842.0722 1501.9336 0.0000 0.0000 1763.7698 -7571.8404 298.7443 -9335.6103 -7568.6445 302.1409 569.3791 643.9227 30229.4809 -165.4007 -96.6965
ENERGY: 600000 0.4150 2.5336 1.3961 0.0000 -10797.8984 1451.2928 0.0000 0.0000 1777.3132 -7564.9476 301.0383 -9342.2608 -7576.2767 299.4650 95.4426 126.8494 30364.6368 -50.1313 25.9242
ENERGY: 900000 0.0877 4.8318 1.4596 0.0000 -10782.5577 1441.0225 0.0000 0.0000 1800.4701 -7534.6860 304.9605 -9335.1561 -7565.3897 299.9592 -187.2501 -149.2584 30667.3056 -27.1275 41.9562
ENERGY: 1200000 1.4775 2.5430 1.8862 0.0000 -10639.3516 1365.3501 0.0000 0.0000 1760.6847 -7507.4100 298.2218 -9268.0947 -7572.6626 298.6361 -492.5771 -383.8788 30937.0754 -33.3951 32.4749
ENERGY: 1500000 0.2956 4.9388 1.5152 0.0000 -10830.6576 1454.1493 0.0000 0.0000 1754.4664 -7615.2922 297.1685 -9369.7586 -7570.4450 298.9456 -45.8848 -59.8993 30566.5960 -38.5246 21.1537
TCL: Running FEP window  19: Lambda1 0.9000000000000002 Lambda2 0.9500000000000003 [dLambda 0.050000000000000044]
TCL: Setting parameter firsttimestep to 0
TCL: Setting parameter alchLambda to 0.9000000000000002
Info: NONBONDED TABLE R-SQUARED SPACING: 0.0625
Info: NONBONDED TABLE SIZE: 705 POINTS
TCL: Setting parameter alchLambda2 to 0.9500000000000003
Info: NONBONDED TABLE R-SQUARED SPACING: 0.0625
Info: NONBONDED TABLE SIZE: 705 POINTS
TCL: Running for 1500000 steps
ETITLE: TS BOND ANGLE DIHED IMPRP ELECT VDW BOUNDARY MISC KINETIC TOTAL TEMP POTENTIAL TOTALAVG TEMPAVG PRESSURE GPRESSURE VOLUME PRESSAVG GPRESSAVG
ENERGY: 0 0.2956 4.9388 1.5152 0.0000 -10831.2278 1454.4759 0.0000 0.0000 1753.5975 -7616.4048 297.0213 -9370.0023 -7616.4048 297.0213 -126.3186 -48.9239 30566.5960 -126.3186 -48.9239
ENERGY: 300000 1.0796 1.2695 1.5809 0.0000 -10851.6481 1399.7814 0.0000 0.0000 1782.8762 -7665.0605 301.9805 -9447.9367 -7613.5396 299.9290 -767.4933 -698.6142 30504.7852 -257.3619 -185.0698
ENERGY: 600000 0.5297 3.1135 1.2385 0.0000 -10856.9630 1451.9919 0.0000 0.0000 1775.2990 -7624.7906 300.6971 -9400.0895 -7620.8371 298.9093 178.4691 253.4957 29825.9669 -120.3273 -64.4764
ENERGY: 900000 0.2142 4.2621 1.3265 0.0000 -10935.1377 1575.8532 0.0000 0.0000 1741.5792 -7611.9024 294.9857 -9353.4817 -7589.8907 300.2762 820.0995 840.7105 30622.2557 -12.7455 38.5732
ENERGY: 1200000 3.0165 3.1020 1.4222 0.0000 -10621.5939 1379.5294 0.0000 0.0000 1737.0313 -7497.4925 294.2154 -9234.5238 -7576.9113 299.7398 -489.2954 -395.9908 30923.8807 -72.5696 -11.2793
ENERGY: 1500000 0.0887 3.6212 1.1801 0.0000 -10823.2649 1488.7772 0.0000 0.0000 1814.9987 -7514.5989 307.4214 -9329.5976 -7572.9375 300.4923 83.6569 173.3222 30982.1195 -110.9994 -46.0319
TCL: Running FEP window  20: Lambda1 0.9500000000000003 Lambda2 1.0    [dLambda 0.04999999999999971]
TCL: Setting parameter firsttimestep to 0
TCL: Setting parameter alchLambda to 0.9500000000000003
Info: NONBONDED TABLE R-SQUARED SPACING: 0.0625
Info: NONBONDED TABLE SIZE: 705 POINTS
TCL: Setting parameter alchLambda2 to 1.0
Info: NONBONDED TABLE R-SQUARED SPACING: 0.0625
Info: NONBONDED TABLE SIZE: 705 POINTS
TCL: Running for 1500000 steps
ETITLE: TS BOND ANGLE DIHED IMPRP ELECT VDW BOUNDARY MISC KINETIC TOTAL TEMP POTENTIAL TOTALAVG TEMPAVG PRESSURE GPRESSURE VOLUME PRESSAVG GPRESSAVG
ENERGY: 0 0.0887 3.6212 1.1801 0.0000 -10824.0829 1489.4139 0.0000 0.0000 1814.0945 -7515.6845 307.2682 -9329.7790 -7515.6845 307.2682 106.9078 184.8504 30982.1195 106.9078 184.8504
ENERGY: 300000 0.3334 2.0163 1.1287 0.0000 -10679.1738 1423.8350 0.0000 0.0000 1736.0545 -7515.8059 294.0499 -9251.8604 -7563.9627 300.8255 -94.5299 -53.7639 30692.7830 64.8146 131.1396
ENERGY: 600000 1.2249 3.1483 1.4929 0.0000 -10689.4095 1411.1779 0.0000 0.0000 1743.9545 -7528.4111 295.3880 -9272.3656 -7562.5624 300.0336 -132.7311 -97.5833 30543.9971 -50.1463 -7.1410
ENERGY: 900000 0.6720 2.0119 1.7915 0.0000 -10776.0233 1430.9392 0.0000 0.0000 1791.4800 -7549.1286 303.4378 -9340.6086 -7559.3349 300.5875 -244.6101 -193.2390 31009.8366 -132.5539 -89.3409
ENERGY: 1200000 0.6091 3.3157 1.2285 0.0000 -10703.7886 1393.0915 0.0000 0.0000 1735.1004 -7570.4434 293.8883 -9305.5439 -7569.1619 299.0770 -489.2732 -431.0038 30764.0649 -221.8321 -174.3043
ENERGY: 1500000 1.5178 1.2235 1.1298 0.0000 -10756.3146 1448.2177 0.0000 0.0000 1750.0669 -7554.1588 296.4233 -9304.2257 -7567.0996 299.2880 17.8580 60.0025 30573.9542 -75.7792 -22.9981
TCL: Exiting due to exit command.
