Info: SIMULATION PARAMETERS:
Info: TIMESTEP               2
Info: NUMBER OF STEPS        0
Info: STEPS PER CYCLE        10
Info: PERIODIC CELL BASIS 1  32.2461 0 0
Info: PERIODIC CELL BASIS 2  0 30.1911 0
Info: PERIODIC CELL BASIS 3  0 0 30.8026
Info: PERIODIC CELL CENTER   0 0 0
Info: WRAPPING WATERS AROUND PERIODIC BOUNDARIES ON OUTPUT.
Info: WRAPPING ALL CLUSTERS AROUND PERIODIC BOUNDARIES ON OUTPUT.
Info: FIRST LDB TIMESTEP     50
Info: LAST LDB TIMESTEP     -1
Info: HOM BACKGROUND SCALING 1
Info: PME BACKGROUND SCALING 1
Info: MIN ATOMS PER PATCH    40
Info: EMPTY PATCH LOAD       40 ATOMS
Info: VELOCITY FILE          mobley_5935995_equil.vel
Info: CENTER OF MASS MOVING INITIALLY? NO
Info: DIELECTRIC             1
Info: EXCLUDE                SCALED ONE-FOUR
Info: 1-4 ELECTROSTATICS SCALED BY 0.833333
Info: MODIFIED 1-4 VDW PARAMETERS WILL BE USED
Info: DCD FILENAME           mobley_5935995_prod.dcd
Info: DCD FREQUENCY          100000
Info: DCD FIRST STEP         100000
Info: DCD FILE WILL CONTAIN UNIT CELL DATA
Info: XST FILENAME           mobley_5935995_prod.xst
Info: XST FREQUENCY          100000
Info: NO VELOCITY DCD OUTPUT
Info: NO FORCE DCD OUTPUT
Info: OUTPUT FILENAME        mobley_5935995_prod
Info: BINARY OUTPUT FILES WILL BE USED
Info: RESTART FILENAME       mobley_5935995_prod.restart
Info: RESTART FREQUENCY      100000
Info: BINARY RESTART FILES WILL BE USED
Info: CUTOFF                 9
Info: PAIRLIST DISTANCE      11
Info: PAIRLIST SHRINK RATE   0.01
Info: PAIRLIST GROW RATE     0.01
Info: PAIRLIST TRIGGER       0.3
Info: PAIRLISTS PER CYCLE    2
Info: PAIRLISTS ENABLED
Info: MARGIN                 2
Info: HYDROGEN GROUP CUTOFF  2.5
Info: PATCH DIMENSION        15.5
Info: ENERGY OUTPUT STEPS    100000
Info: ENERGY EVALUATION STEPS    100000
Info: OUTPUT ENERGY PRECISION 4
Info: CROSSTERM ENERGY INCLUDED IN DIHEDRAL
Info: TIMING OUTPUT STEPS    1000000
Info: PRESSURE OUTPUT STEPS  100000
Info: ALCHEMICAL FEP ON
Info: FEP CURRENT LAMBDA VALUE     0
Info: FEP COMPARISON LAMBDA VALUE  0.05
Info: FEP INTRA-ALCHEMICAL NON-BONDED INTERACTIONS WILL BE RETAINED
Info: FEP INTRA-ALCHEMICAL BONDED INTERACTIONS WILL BE RETAINED
Info: FEP VDW SHIFTING COEFFICIENT 5
Info: FEP ELEC. ACTIVE FOR ANNIHILATED PARTICLES BETWEEN LAMBDA = 0 AND LAMBDA = 0.5
Info: FEP ELEC. ACTIVE FOR EXNIHILATED PARTICLES BETWEEN LAMBDA = 0.5 AND LAMBDA = 1
Info: FEP VDW ACTIVE FOR ANNIHILATED PARTICLES BETWEEN LAMBDA = 0 AND LAMBDA = 1
Info: FEP VDW ACTIVE FOR EXNIHILATED PARTICLES BETWEEN LAMBDA = 0 AND LAMBDA = 1
Info: FEP BOND ACTIVE FOR ANNIHILATED PARTICLES BETWEEN LAMBDA = 1 AND LAMBDA = 1
Info: FEP BOND ACTIVE FOR EXNIHILATED PARTICLES BETWEEN LAMBDA = 0 AND LAMBDA = 0
Info: LANGEVIN DYNAMICS ACTIVE
Info: LANGEVIN TEMPERATURE   300
Info: LANGEVIN USING BBK INTEGRATOR
Info: LANGEVIN DAMPING COEFFICIENT IS 1 INVERSE PS
Info: LANGEVIN DYNAMICS APPLIED TO HYDROGENS
Info: LANGEVIN PISTON PRESSURE CONTROL ACTIVE
Info:        TARGET PRESSURE IS 1.01325 BAR
Info:     OSCILLATION PERIOD IS 50 FS
Info:             DECAY TIME IS 25 FS
Info:     PISTON TEMPERATURE IS 300 K
Info:       PRESSURE CONTROL IS GROUP-BASED
Info:    INITIAL STRAIN RATE IS -0.000110276 -0.000110276 -0.000110276
Info:       CELL FLUCTUATION IS ISOTROPIC
Info: PARTICLE MESH EWALD (PME) ACTIVE
Info: PME TOLERANCE               1e-06
Info: PME EWALD COEFFICIENT       0.348832
Info: PME INTERPOLATION ORDER     4
Info: PME GRID DIMENSIONS         36 32 32
Info: PME MAXIMUM GRID SPACING    1
Info: PME CALCULATION WILL BE PERFORMED ON GPU
Info: FULL ELECTROSTATIC EVALUATION FREQUENCY      2
Info: USING VERLET I (r-RESPA) MTS SCHEME.
Info: C1 SPLITTING OF LONG RANGE ELECTROSTATICS
Info: PLACING ATOMS IN PATCHES BY HYDROGEN GROUPS
Info: RIGID BONDS TO HYDROGEN : ALL
Info:         ERROR TOLERANCE : 1e-08
Info:          MAX ITERATIONS : 100
Info: RIGID WATER USING SETTLE ALGORITHM
Info: RANDOM NUMBER SEED     1743621396
Info: USE HYDROGEN BONDS?    NO
Info: Using AMBER format force field!
Info: AMBER PARM FILE        mobley_5935995.prmtop
Info: COORDINATE PDB         mobley_5935995.pdb
Info: Exclusions will be read from PARM file!
Info: SCNB (VDW SCALING)     2
Info: USING ARITHMETIC MEAN TO COMBINE L-J SIGMA PARAMETERS
Info: BINARY COORDINATES     mobley_5935995_equil.coor
Info: SUMMARY OF PARAMETERS:
Info: 4 BONDS
Info: 3 ANGLES
Info:   3 HARMONIC
Info:   0 COSINE-BASED
Info: 5 DIHEDRAL
Info: 0 IMPROPER
Info: 0 CROSSTERM
Info: 0 VDW
Info: 10 VDW_PAIRS
Info: 0 NBTHOLE_PAIRS
Info: To read alchdata from file: mobley_5935995.pdb
Info: To read alchflag data from column: 5
Info: STRUCTURE SUMMARY:
Info: 2930 ATOMS
Info: 2929 BONDS
Info: 36 ANGLES
Info: 51 DIHEDRALS
Info: 0 IMPROPERS
Info: 0 CROSSTERMS
Info: 3010 EXCLUSIONS
Info: 2924 RIGID BONDS
Info: ALCH: 0 ATOMS TO DISAPPEAR IN FINAL STATE
Info: ALCH: 20 ATOMS TO APPEAR IN FINAL STATE
Info: 5866 DEGREES OF FREEDOM
Info: 976 HYDROGEN GROUPS
Info: 4 ATOMS IN LARGEST HYDROGEN GROUP
Info: 976 MIGRATION GROUPS
Info: 4 ATOMS IN LARGEST MIGRATION GROUP
Info: TOTAL MASS = 17561.7 amu
Info: TOTAL CHARGE = 0.000200015 e
Info: MASS DENSITY = 0.972484 g/cm^3
Info: ATOM DENSITY = 0.0977067 atoms/A^3
Info: ADDED 0 IMPLICIT EXCLUSIONS
Info: NONBONDED TABLE R-SQUARED SPACING: 0.0625
Info: NONBONDED TABLE SIZE: 705 POINTS
Info: REMOVING COM VELOCITY 0.152346 -0.135807 0.0634033
Info: Use 3D box decompostion in PME FFT.
Info: Updated CUDA force table with 4096 elements.
Info: Updated CUDA LJ table with 4 x 4 elements.
Info: Found 23 unique exclusion lists needing 64 bytes
TCL: Running for 1500000 steps
ETITLE: TS BOND ANGLE DIHED IMPRP ELECT VDW BOUNDARY MISC KINETIC TOTAL TEMP POTENTIAL TOTALAVG TEMPAVG PRESSURE GPRESSURE VOLUME PRESSAVG GPRESSAVG
ENERGY: 0 2.6475 12.9258 3.0427 0.0000 -10489.2577 1390.6635 0.0000 0.0000 1784.5191 -7295.4591 306.1749 -9079.9782 -7295.4591 306.1749 -83.9923 5.8589 29987.7023 -83.9923 5.8589
ENERGY: 300000 4.6103 7.9825 2.1544 0.0000 -10461.5767 1340.9655 0.0000 0.0000 1737.7727 -7368.0914 298.1544 -9105.8641 -7356.6812 302.3115 -679.7723 -563.9553 30047.8878 -247.4471 -168.9702
ENERGY: 600000 1.7387 11.8365 4.4613 0.0000 -10788.0062 1539.6288 0.0000 0.0000 1797.6988 -7432.6420 308.4361 -9230.3407 -7388.1953 302.4669 462.0848 525.2237 30281.3569 -138.3423 -76.2771
ENERGY: 900000 1.6417 16.5710 3.5926 0.0000 -10657.7363 1449.4847 0.0000 0.0000 1776.5216 -7409.9247 304.8027 -9186.4463 -7396.1088 302.5802 -54.9991 -67.1937 30036.8988 -81.9698 -30.6750
ENERGY: 1200000 0.5490 14.4441 4.0970 0.0000 -10666.9991 1463.5327 0.0000 0.0000 1715.3078 -7469.0686 294.3001 -9184.3763 -7397.6004 301.5995 157.0750 258.4968 29859.7670 13.7323 75.4142
ENERGY: 1500000 2.3171 9.1115 3.4523 0.0000 -10626.7074 1489.6020 0.0000 0.0000 1755.7487 -7366.4758 301.2386 -9122.2244 -7397.1027 301.2442 212.1334 336.7339 30528.9236 24.6244 90.7293
TCL: Running FEP window   2: Lambda1 0.05   Lambda2 0.1    [dLambda 0.05  ]
TCL: Setting parameter firsttimestep to 0
TCL: Setting parameter alchLambda to 0.05
Info: NONBONDED TABLE R-SQUARED SPACING: 0.0625
Info: NONBONDED TABLE SIZE: 705 POINTS
TCL: Setting parameter alchLambda2 to 0.1
Info: NONBONDED TABLE R-SQUARED SPACING: 0.0625
Info: NONBONDED TABLE SIZE: 705 POINTS
TCL: Running for 1500000 steps
ETITLE: TS BOND ANGLE DIHED IMPRP ELECT VDW BOUNDARY MISC KINETIC TOTAL TEMP POTENTIAL TOTALAVG TEMPAVG PRESSURE GPRESSURE VOLUME PRESSAVG GPRESSAVG
ENERGY: 0 2.3171 9.1115 3.4523 0.0000 -10626.7067 1493.5861 0.0000 0.0000 1754.8699 -7363.3699 301.0879 -9118.2397 -7363.3699 301.0879 259.1222 344.1722 30528.9236 259.1222 344.1722
ENERGY: 300000 0.9249 9.1140 2.5950 0.0000 -10677.6875 1473.8061 0.0000 0.0000 1765.5791 -7425.6683 302.9253 -9191.2475 -7371.1924 301.4421 415.1287 452.3482 29693.4563 28.4170 119.0405
ENERGY: 600000 1.3920 8.9374 2.7817 0.0000 -10719.1939 1540.7410 0.0000 0.0000 1728.1323 -7437.2095 296.5004 -9165.3418 -7368.0908 301.3548 602.2110 660.1419 30325.4784 216.2163 299.5254
ENERGY: 900000 2.0441 10.5031 3.0149 0.0000 -10551.0505 1296.9721 0.0000 0.0000 1733.7652 -7504.7511 297.4669 -9238.5163 -7396.1490 299.6252 -1129.9915 -1137.3243 29704.5770 49.1970 115.5285
ENERGY: 1200000 4.5113 7.3903 2.6712 0.0000 -10686.5019 1501.4857 0.0000 0.0000 1726.2455 -7444.1978 296.1767 -9170.4433 -7410.3106 298.5589 221.1876 367.7381 30228.6939 55.3115 122.9282
ENERGY: 1500000 0.8117 5.8679 2.0917 0.0000 -10477.1709 1336.4837 0.0000 0.0000 1723.4359 -7408.4801 295.6946 -9131.9160 -7399.3850 299.6035 -689.1734 -613.9769 30008.1877 30.0850 97.8547
TCL: Running FEP window   3: Lambda1 0.1    Lambda2 0.15000000000000002 [dLambda 0.05000000000000002]
TCL: Setting parameter firsttimestep to 0
TCL: Setting parameter alchLambda to 0.1
Info: NONBONDED TABLE R-SQUARED SPACING: 0.0625
Info: NONBONDED TABLE SIZE: 705 POINTS
TCL: Setting parameter alchLambda2 to 0.15000000000000002
Info: NONBONDED TABLE R-SQUARED SPACING: 0.0625
Info: NONBONDED TABLE SIZE: 705 POINTS
TCL: Running for 1500000 steps
ETITLE: TS BOND ANGLE DIHED IMPRP ELECT VDW BOUNDARY MISC KINETIC TOTAL TEMP POTENTIAL TOTALAVG TEMPAVG PRESSURE GPRESSURE VOLUME PRESSAVG GPRESSAVG
ENERGY: 0 0.8117 5.8679 2.0917 0.0000 -10477.1727 1337.6397 0.0000 0.0000 1722.5763 -7408.1855 295.5472 -9130.7618 -7408.1855 295.5472 -672.7326 -605.0412 30008.1877 -672.7326 -605.0412
ENERGY: 300000 2.2131 13.2571 2.5248 0.0000 -10545.2472 1434.2622 0.0000 0.0000 1695.2414 -7397.7485 290.8572 -9092.9899 -7396.5533 297.2777 191.1009 199.6728 29867.9623 -23.4696 25.5474
ENERGY: 600000 0.8186 11.5817 2.9053 0.0000 -10393.7988 1300.4821 0.0000 0.0000 1678.5740 -7399.4371 287.9976 -9078.0111 -7399.1674 297.0126 -834.9253 -779.8002 30235.2625 -106.3214 -48.7575
ENERGY: 900000 3.1985 9.9350 2.2042 0.0000 -10650.6870 1430.4855 0.0000 0.0000 1774.4109 -7430.4530 304.4406 -9204.8638 -7409.4730 298.2934 -319.9828 -243.0625 30016.8076 -65.7049 -5.8723
ENERGY: 1200000 1.5846 9.5615 4.9019 0.0000 -10703.7946 1526.4517 0.0000 0.0000 1741.0479 -7420.2470 298.7164 -9161.2949 -7412.9521 298.3941 879.8844 917.5168 29764.3745 -4.3031 59.8506
ENERGY: 1500000 1.3865 10.8855 2.6758 0.0000 -10564.5417 1424.8172 0.0000 0.0000 1769.4504 -7355.3262 303.5895 -9124.7766 -7414.8676 298.1128 -79.3246 -92.5206 30169.5601 -68.0958 -2.6668
TCL: Running FEP window   4: Lambda1 0.15000000000000002 Lambda2 0.2    [dLambda 0.04999999999999999]
TCL: Setting parameter firsttimestep to 0
TCL: Setting parameter alchLambda to 0.15000000000000002
Info: NONBONDED TABLE R-SQUARED SPACING: 0.0625
Info: NONBONDED TABLE SIZE: 705 POINTS
TCL: Setting parameter alchLambda2 to 0.2
Info: NONBONDED TABLE R-SQUARED SPACING: 0.0625
Info: NONBONDED TABLE SIZE: 705 POINTS
TCL: Running for 1500000 steps
ETITLE: TS BOND ANGLE DIHED IMPRP ELECT VDW BOUNDARY MISC KINETIC TOTAL TEMP POTENTIAL TOTALAVG TEMPAVG PRESSURE GPRESSURE VOLUME PRESSAVG GPRESSAVG
ENERGY: 0 1.3865 10.8855 2.6758 0.0000 -10564.5409 1425.2462 0.0000 0.0000 1768.5489 -7355.7979 303.4348 -9124.3468 -7355.7979 303.4348 -165.2763 -87.0934 30169.5601 -165.2763 -87.0934
ENERGY: 300000 1.7211 12.7998 2.0020 0.0000 -10594.2284 1440.6501 0.0000 0.0000 1709.7495 -7427.3060 293.3464 -9137.0554 -7395.3763 299.0289 -28.2393 -1.7161 30356.7732 -12.0877 43.6770
ENERGY: 600000 1.9718 7.6219 1.9186 0.0000 -10439.2950 1363.2545 0.0000 0.0000 1767.3725 -7297.1557 303.2330 -9064.5282 -7395.0612 299.5491 -526.0481 -434.7080 30308.9620 -171.9503 -122.3218
ENERGY: 900000 0.9531 9.1715 2.2625 0.0000 -10446.3151 1347.7924 0.0000 0.0000 1768.7927 -7317.3429 303.4766 -9086.1357 -7386.5447 300.0999 -346.7472 -315.7257 30057.4082 0.6278 58.8325
ENERGY: 1200000 0.8352 11.5242 2.0391 0.0000 -10638.9553 1470.1698 0.0000 0.0000 1736.9594 -7417.4276 298.0149 -9154.3871 -7401.6271 299.2686 248.6808 361.2041 30046.7343 34.6939 94.5253
ENERGY: 1500000 3.7488 10.2046 2.8475 0.0000 -10579.2690 1372.2700 0.0000 0.0000 1741.0371 -7449.1609 298.7145 -9190.1980 -7406.0039 299.4656 -998.4936 -876.9068 30364.8619 -123.3908 -57.6882
TCL: Running FEP window   5: Lambda1 0.2    Lambda2 0.25   [dLambda 0.04999999999999999]
TCL: Setting parameter firsttimestep to 0
TCL: Setting parameter alchLambda to 0.2
Info: NONBONDED TABLE R-SQUARED SPACING: 0.0625
Info: NONBONDED TABLE SIZE: 705 POINTS
TCL: Setting parameter alchLambda2 to 0.25
Info: NONBONDED TABLE R-SQUARED SPACING: 0.0625
Info: NONBONDED TABLE SIZE: 705 POINTS
TCL: Running for 1500000 steps
ETITLE: TS BOND ANGLE DIHED IMPRP ELECT VDW BOUNDARY MISC KINETIC TOTAL TEMP POTENTIAL TOTALAVG TEMPAVG PRESSURE GPRESSURE VOLUME PRESSAVG GPRESSAVG
ENERGY: 0 3.7488 10.2046 2.8475 0.0000 -10579.2691 1372.6995 0.0000 0.0000 1740.1439 -7449.6248 298.5613 -9189.7687 -7449.6248 298.5613 -964.8776 -874.9254 30364.8619 -964.8776 -874.9254
ENERGY: 300000 1.7484 13.9600 2.1936 0.0000 -10770.2497 1562.9258 0.0000 0.0000 1707.8309 -7481.5910 293.0173 -9189.4219 -7410.3279 300.1825 825.1689 898.7624 29854.1521 -155.6663 -71.8616
ENERGY: 600000 2.9479 6.2175 3.5886 0.0000 -10756.8085 1531.6189 0.0000 0.0000 1736.6084 -7475.8272 297.9547 -9212.4356 -7422.4707 300.3500 764.2746 824.9645 29544.3934 32.2343 103.6467
ENERGY: 900000 3.2621 9.9435 1.9809 0.0000 -10538.5553 1334.9902 0.0000 0.0000 1747.7720 -7440.6067 299.8700 -9188.3786 -7411.8016 300.5254 -945.9501 -869.3568 30076.9526 -202.5756 -136.2664
ENERGY: 1200000 1.2478 11.6257 3.3916 0.0000 -10567.1981 1403.1116 0.0000 0.0000 1749.4077 -7398.4136 300.1507 -9147.8213 -7407.9469 300.4504 -106.5985 -72.7241 29824.8765 -263.2460 -205.1309
ENERGY: 1500000 1.8784 10.5468 2.9054 0.0000 -10645.0279 1507.3541 0.0000 0.0000 1766.5214 -7355.8218 303.0869 -9122.3432 -7399.6947 300.6305 852.0161 927.4229 29694.4428 -162.1320 -108.7346
TCL: Running FEP window   6: Lambda1 0.25   Lambda2 0.3    [dLambda 0.04999999999999999]
TCL: Setting parameter firsttimestep to 0
TCL: Setting parameter alchLambda to 0.25
Info: NONBONDED TABLE R-SQUARED SPACING: 0.0625
Info: NONBONDED TABLE SIZE: 705 POINTS
TCL: Setting parameter alchLambda2 to 0.3
Info: NONBONDED TABLE R-SQUARED SPACING: 0.0625
Info: NONBONDED TABLE SIZE: 705 POINTS
TCL: Running for 1500000 steps
ETITLE: TS BOND ANGLE DIHED IMPRP ELECT VDW BOUNDARY MISC KINETIC TOTAL TEMP POTENTIAL TOTALAVG TEMPAVG PRESSURE GPRESSURE VOLUME PRESSAVG GPRESSAVG
ENERGY: 0 1.8784 10.5468 2.9054 0.0000 -10645.0284 1508.0092 0.0000 0.0000 1765.6657 -7356.0228 302.9401 -9121.6886 -7356.0228 302.9401 847.6784 934.3598 29694.4428 847.6784 934.3598
ENERGY: 300000 0.4926 12.0753 2.4274 0.0000 -10524.1616 1461.3994 0.0000 0.0000 1784.7013 -7263.0656 306.2061 -9047.7669 -7368.9768 302.6064 510.9010 541.7709 30415.1960 218.0570 307.3093
ENERGY: 600000 1.1191 9.3373 2.6404 0.0000 -10692.5293 1498.3145 0.0000 0.0000 1779.1537 -7401.9644 305.2543 -9181.1181 -7387.5041 303.3329 497.3722 583.5924 29745.9465 271.9489 356.6194
ENERGY: 900000 1.7097 10.8976 2.2977 0.0000 -10646.5662 1517.5676 0.0000 0.0000 1730.5040 -7383.5895 296.9073 -9114.0935 -7387.2423 301.2233 939.3273 985.1831 29602.1932 180.4428 260.0935
ENERGY: 1200000 1.4573 11.2381 2.8072 0.0000 -10536.5267 1402.5620 0.0000 0.0000 1859.4233 -7259.0389 319.0264 -9118.4622 -7377.3357 302.2010 -227.9382 -129.6379 30471.8773 181.9824 266.7961
ENERGY: 1500000 2.3334 10.2605 3.5587 0.0000 -10450.1127 1324.6439 0.0000 0.0000 1690.1028 -7419.2134 289.9756 -9109.3161 -7377.5533 301.7533 -1057.6224 -998.2898 30558.4055 90.6960 164.2514
TCL: Running FEP window   7: Lambda1 0.3    Lambda2 0.35   [dLambda 0.04999999999999999]
TCL: Setting parameter firsttimestep to 0
TCL: Setting parameter alchLambda to 0.3
Info: NONBONDED TABLE R-SQUARED SPACING: 0.0625
Info: NONBONDED TABLE SIZE: 705 POINTS
TCL: Setting parameter alchLambda2 to 0.35
Info: NONBONDED TABLE R-SQUARED SPACING: 0.0625
Info: NONBONDED TABLE SIZE: 705 POINTS
TCL: Running for 1500000 steps
ETITLE: TS BOND ANGLE DIHED IMPRP ELECT VDW BOUNDARY MISC KINETIC TOTAL TEMP POTENTIAL TOTALAVG TEMPAVG PRESSURE GPRESSURE VOLUME PRESSAVG GPRESSAVG
ENERGY: 0 2.3335 10.2605 3.5587 0.0000 -10450.1114 1324.9322 0.0000 0.0000 1689.2358 -7419.7907 289.8268 -9109.0265 -7419.7907 289.8268 -1077.4597 -993.6727 30558.4055 -1077.4597 -993.6727
ENERGY: 300000 1.4322 6.8870 4.3518 0.0000 -10452.1054 1348.0492 0.0000 0.0000 1704.0050 -7387.3803 292.3608 -9091.3853 -7397.5739 296.4354 -665.5843 -599.1591 30499.9335 -639.4534 -548.8410
ENERGY: 600000 2.6688 10.0277 5.0358 0.0000 -10591.2987 1475.9933 0.0000 0.0000 1751.9684 -7345.6048 300.5900 -9097.5732 -7395.1400 299.3214 477.4271 564.5228 30044.8693 -112.1821 -29.6474
ENERGY: 900000 0.5705 15.2704 2.8675 0.0000 -10705.8961 1469.7892 0.0000 0.0000 1762.1473 -7455.2512 302.3365 -9217.3986 -7402.7351 300.6776 230.1624 240.2617 30084.9106 -7.5170 68.9669
ENERGY: 1200000 1.7364 8.8441 3.3604 0.0000 -10534.5217 1449.4921 0.0000 0.0000 1759.6061 -7311.4826 301.9005 -9071.0887 -7395.0911 300.5194 410.8274 427.6313 30215.8714 -24.0474 45.9756
ENERGY: 1500000 2.2759 9.2180 3.1278 0.0000 -10584.9096 1396.2964 0.0000 0.0000 1707.4946 -7466.4968 292.9596 -9173.9914 -7392.9386 300.4393 -214.9715 -173.8158 29625.9117 -67.8998 -2.9512
TCL: Running FEP window   8: Lambda1 0.35   Lambda2 0.39999999999999997 [dLambda 0.04999999999999999]
TCL: Setting parameter firsttimestep to 0
TCL: Setting parameter alchLambda to 0.35
Info: NONBONDED TABLE R-SQUARED SPACING: 0.0625
Info: NONBONDED TABLE SIZE: 705 POINTS
TCL: Setting parameter alchLambda2 to 0.39999999999999997
Info: NONBONDED TABLE R-SQUARED SPACING: 0.0625
Info: NONBONDED TABLE SIZE: 705 POINTS
TCL: Running for 1500000 steps
ETITLE: TS BOND ANGLE DIHED IMPRP ELECT VDW BOUNDARY MISC KINETIC TOTAL TEMP POTENTIAL TOTALAVG TEMPAVG PRESSURE GPRESSURE VOLUME PRESSAVG GPRESSAVG
ENERGY: 0 2.2759 9.2180 3.1278 0.0000 -10584.9099 1395.7952 0.0000 0.0000 1706.6396 -7467.8534 292.8129 -9174.4930 -7467.8534 292.8129 -263.3129 -175.0824 29625.9117 -263.3129 -175.0824
ENERGY: 300000 0.3833 10.6600 2.2342 0.0000 -10515.1120 1353.3609 0.0000 0.0000 1746.8970 -7401.5766 299.7199 -9148.4736 -7423.6282 298.0205 -442.0494 -374.0399 30058.8317 -160.0468 -95.7764
ENERGY: 600000 0.9983 7.2243 1.7705 0.0000 -10545.4990 1397.2725 0.0000 0.0000 1738.1355 -7400.0980 298.2167 -9138.2334 -7411.7061 300.5109 199.7110 262.6115 29531.8692 -142.8090 -95.8145
ENERGY: 900000 0.9337 8.0612 2.4472 0.0000 -10505.6032 1376.8210 0.0000 0.0000 1764.4965 -7352.8436 302.7395 -9117.3400 -7407.2934 300.2795 -291.0627 -222.7399 29988.5955 -220.5314 -178.1355
ENERGY: 1200000 1.6643 11.1943 2.5527 0.0000 -10655.0570 1408.5678 0.0000 0.0000 1767.1994 -7463.8786 303.2033 -9231.0780 -7408.2802 300.4237 -476.2129 -361.1570 30228.2437 -258.7109 -211.9117
ENERGY: 1500000 0.5999 5.3847 1.5334 0.0000 -10545.0644 1417.7457 0.0000 0.0000 1754.8881 -7364.9126 301.0910 -9119.8007 -7401.4490 301.7471 19.3316 94.3707 29973.3107 -147.5646 -105.5508
TCL: Running FEP window   9: Lambda1 0.39999999999999997 Lambda2 0.44999999999999996 [dLambda 0.04999999999999999]
TCL: Setting parameter firsttimestep to 0
TCL: Setting parameter alchLambda to 0.39999999999999997
Info: NONBONDED TABLE R-SQUARED SPACING: 0.0625
Info: NONBONDED TABLE SIZE: 705 POINTS
TCL: Setting parameter alchLambda2 to 0.44999999999999996
Info: NONBONDED TABLE R-SQUARED SPACING: 0.0625
Info: NONBONDED TABLE SIZE: 705 POINTS
TCL: Running for 1500000 steps
ETITLE: TS BOND ANGLE DIHED IMPRP ELECT VDW BOUNDARY MISC KINETIC TOTAL TEMP POTENTIAL TOTALAVG TEMPAVG PRESSURE GPRESSURE VOLUME PRESSAVG GPRESSAVG
ENERGY: 0 0.5999 5.3847 1.5334 0.0000 -10545.0650 1417.4012 0.0000 0.0000 1753.9982 -7366.1476 300.9383 -9120.1458 -7366.1476 300.9383 24.8984 95.4745 29973.3107 24.8984 95.4745
ENERGY: 300000 1.4800 7.7707 2.7713 0.0000 -10680.8946 1486.3127 0.0000 0.0000 1754.5901 -7427.9698 301.0399 -9182.5599 -7419.2080 303.5496 595.8429 600.9688 29763.1175 26.5501 80.0669
ENERGY: 600000 0.6354 6.4598 1.9221 0.0000 -10630.9198 1450.3403 0.0000 0.0000 1714.6233 -7456.9391 294.1826 -9171.5623 -7416.3710 300.0952 229.5533 309.1946 29610.9158 30.0624 72.3661
ENERGY: 900000 1.1218 14.0204 3.2897 0.0000 -10580.6155 1412.5152 0.0000 0.0000 1745.9447 -7403.7237 299.5565 -9149.6683 -7411.6279 300.0741 -242.7120 -158.9593 30006.0559 -78.3154 -25.3100
ENERGY: 1200000 3.0108 9.8137 2.9080 0.0000 -10536.3373 1441.5775 0.0000 0.0000 1714.5944 -7364.4329 294.1777 -9079.0273 -7405.0543 299.4514 147.2527 233.1591 30122.1739 -128.6100 -68.0968
ENERGY: 1500000 2.2846 8.0909 3.0967 0.0000 -10517.1222 1392.2977 0.0000 0.0000 1695.2425 -7416.1099 290.8574 -9111.3523 -7403.9897 299.5277 -232.2725 -134.1703 29885.9354 -122.1915 -61.6298
TCL: Running FEP window  10: Lambda1 0.44999999999999996 Lambda2 0.49999999999999994 [dLambda 0.04999999999999999]
TCL: Setting parameter firsttimestep to 0
TCL: Setting parameter alchLambda to 0.44999999999999996
Info: NONBONDED TABLE R-SQUARED SPACING: 0.0625
Info: NONBONDED TABLE SIZE: 705 POINTS
TCL: Setting parameter alchLambda2 to 0.49999999999999994
Info: NONBONDED TABLE R-SQUARED SPACING: 0.0625
Info: NONBONDED TABLE SIZE: 705 POINTS
TCL: Running for 1500000 steps
ETITLE: TS BOND ANGLE DIHED IMPRP ELECT VDW BOUNDARY MISC KINETIC TOTAL TEMP POTENTIAL TOTALAVG TEMPAVG PRESSURE GPRESSURE VOLUME PRESSAVG GPRESSAVG
ENERGY: 0 2.2846 8.0909 3.0967 0.0000 -10517.1217 1392.9405 0.0000 0.0000 1694.3847 -7416.3243 290.7103 -9110.7090 -7416.3243 290.7103 -220.5795 -124.4816 29885.9354 -220.5795 -124.4816
ENERGY: 300000 2.1042 11.2370 2.7072 0.0000 -10437.6399 1391.8546 0.0000 0.0000 1728.0202 -7301.7166 296.4812 -9029.7368 -7384.6379 295.1341 -183.4619 -118.3827 30473.9305 -42.2054 41.5819
ENERGY: 600000 1.7743 10.7177 2.9993 0.0000 -10425.9873 1342.0402 0.0000 0.0000 1799.3545 -7269.1014 308.7202 -9068.4558 -7386.7908 298.4460 -558.3323 -506.0465 30407.7185 35.9373 109.6182
ENERGY: 900000 0.8957 7.7978 2.0897 0.0000 -10634.4333 1451.1557 0.0000 0.0000 1757.5062 -7414.9882 301.5402 -9172.4944 -7401.4330 298.4612 104.9145 152.6980 30235.4808 165.3334 231.8751
ENERGY: 1200000 2.9225 10.1071 2.2549 0.0000 -10529.2573 1358.9517 0.0000 0.0000 1730.9994 -7424.0216 296.9923 -9155.0210 -7400.2996 299.1218 -483.6333 -481.9042 30038.0041 59.0488 117.7408
ENERGY: 1500000 0.9190 14.8390 2.5825 0.0000 -10634.0724 1482.4239 0.0000 0.0000 1802.3023 -7331.0057 309.2260 -9133.3080 -7401.5233 299.5024 672.7937 766.1175 30023.1936 74.8520 135.4203
TCL: Running FEP window  11: Lambda1 0.49999999999999994 Lambda2 0.5499999999999999 [dLambda 0.04999999999999999]
TCL: Setting parameter firsttimestep to 0
TCL: Setting parameter alchLambda to 0.49999999999999994
Info: NONBONDED TABLE R-SQUARED SPACING: 0.0625
Info: NONBONDED TABLE SIZE: 705 POINTS
TCL: Setting parameter alchLambda2 to 0.5499999999999999
Info: NONBONDED TABLE R-SQUARED SPACING: 0.0625
Info: NONBONDED TABLE SIZE: 705 POINTS
TCL: Running for 1500000 steps
ETITLE: TS BOND ANGLE DIHED IMPRP ELECT VDW BOUNDARY MISC KINETIC TOTAL TEMP POTENTIAL TOTALAVG TEMPAVG PRESSURE GPRESSURE VOLUME PRESSAVG GPRESSAVG
ENERGY: 0 0.9190 14.8390 2.5825 0.0000 -10634.0719 1483.2634 0.0000 0.0000 1801.3902 -7331.0777 309.0695 -9132.4679 -7331.0777 309.0695 697.5085 780.4888 30023.1936 697.5085 780.4888
ENERGY: 300000 1.9612 8.2678 2.4194 0.0000 -10591.1234 1415.3674 0.0000 0.0000 1791.7579 -7371.3497 307.4168 -9163.1076 -7398.0071 302.4841 -93.6552 -32.2955 30058.6644 -146.7718 -99.2620
ENERGY: 600000 2.1036 10.3419 2.6991 0.0000 -10591.3032 1461.9726 0.0000 0.0000 1776.4562 -7337.7298 304.7915 -9114.1860 -7392.8169 302.6040 440.7898 443.4844 29903.6314 -50.7768 -7.0280
ENERGY: 900000 2.3114 11.6744 2.8586 0.0000 -10525.6709 1414.1931 0.0000 0.0000 1777.7625 -7316.8709 305.0156 -9094.6334 -7395.5429 301.5410 128.4072 131.4538 30091.5489 12.9059 45.8855
ENERGY: 1200000 3.9339 12.8667 2.0694 0.0000 -10583.5095 1394.0191 0.0000 0.0000 1727.4478 -7443.1726 296.3830 -9170.6204 -7398.8283 300.4273 -411.0592 -347.3525 30102.1404 1.9860 46.5737
ENERGY: 1500000 0.5592 10.8836 3.5858 0.0000 -10523.1865 1429.3007 0.0000 0.0000 1772.9483 -7305.9090 304.1896 -9078.8573 -7397.6108 300.5210 286.2332 416.4236 29902.4390 -38.7505 18.4981
TCL: Running FEP window  12: Lambda1 0.5499999999999999 Lambda2 0.6    [dLambda 0.050000000000000044]
TCL: Setting parameter firsttimestep to 0
TCL: Setting parameter alchLambda to 0.5499999999999999
Info: NONBONDED TABLE R-SQUARED SPACING: 0.0625
Info: NONBONDED TABLE SIZE: 705 POINTS
TCL: Setting parameter alchLambda2 to 0.6
Info: NONBONDED TABLE R-SQUARED SPACING: 0.0625
Info: NONBONDED TABLE SIZE: 705 POINTS
TCL: Running for 1500000 steps
ETITLE: TS BOND ANGLE DIHED IMPRP ELECT VDW BOUNDARY MISC KINETIC TOTAL TEMP POTENTIAL TOTALAVG TEMPAVG PRESSURE GPRESSURE VOLUME PRESSAVG GPRESSAVG
ENERGY: 0 0.5592 10.8836 3.5858 0.0000 -10523.1874 1428.9712 0.0000 0.0000 1772.0861 -7307.1015 304.0417 -9079.1876 -7307.1015 304.0417 325.2308 419.6749 29902.4390 325.2308 419.6749
ENERGY: 300000 3.1168 11.8767 2.8109 0.0000 -10593.1061 1415.4934 0.0000 0.0000 1732.6067 -7427.2015 297.2681 -9159.8083 -7368.6221 301.0145 -231.6221 -221.9369 30361.4303 140.8284 214.5317
ENERGY: 600000 5.9018 10.3821 3.4346 0.0000 -10466.1621 1328.5706 0.0000 0.0000 1765.4295 -7352.4435 302.8996 -9117.8730 -7383.2813 301.4297 -829.1691 -739.0724 30212.9623 -42.5022 20.0059
ENERGY: 900000 2.8030 15.4418 2.2279 0.0000 -10603.1412 1420.3832 0.0000 0.0000 1799.3903 -7362.8950 308.7264 -9162.2853 -7386.1190 301.7721 -290.9804 -144.3209 30208.2892 6.8727 77.1054
ENERGY: 1200000 1.0830 8.5532 2.5954 0.0000 -10567.8620 1432.5849 0.0000 0.0000 1759.9326 -7363.1130 301.9565 -9123.0456 -7381.9909 302.0270 -35.3983 -24.1047 30601.8738 -25.3928 37.9100
ENERGY: 1500000 1.5654 7.1364 2.8477 0.0000 -10696.0452 1487.1458 0.0000 0.0000 1775.2171 -7422.1328 304.5789 -9197.3499 -7381.7715 301.9791 365.1970 405.5491 29982.1058 -1.5503 66.3042
TCL: Running FEP window  13: Lambda1 0.6    Lambda2 0.65   [dLambda 0.050000000000000044]
TCL: Setting parameter firsttimestep to 0
TCL: Setting parameter alchLambda to 0.6
Info: NONBONDED TABLE R-SQUARED SPACING: 0.0625
Info: NONBONDED TABLE SIZE: 705 POINTS
TCL: Setting parameter alchLambda2 to 0.65
Info: NONBONDED TABLE R-SQUARED SPACING: 0.0625
Info: NONBONDED TABLE SIZE: 705 POINTS
TCL: Running for 1500000 steps
ETITLE: TS BOND ANGLE DIHED IMPRP ELECT VDW BOUNDARY MISC KINETIC TOTAL TEMP POTENTIAL TOTALAVG TEMPAVG PRESSURE GPRESSURE VOLUME PRESSAVG GPRESSAVG
ENERGY: 0 1.5655 7.1364 2.8477 0.0000 -10696.0428 1487.2621 0.0000 0.0000 1774.3557 -7422.8754 304.4311 -9197.2311 -7422.8754 304.4311 312.7470 414.6949 29982.1058 312.7470 414.6949
ENERGY: 300000 1.5473 6.8407 2.3397 0.0000 -10646.5985 1423.3463 0.0000 0.0000 1736.8718 -7475.6527 297.9999 -9212.5245 -7412.9364 300.6157 -71.6027 40.7608 29748.1876 202.1860 283.6585
ENERGY: 600000 1.7588 5.7406 2.1917 0.0000 -10622.3964 1420.0846 0.0000 0.0000 1742.6331 -7449.9875 298.9884 -9192.6206 -7415.9552 299.4870 -145.1338 -20.1879 29954.2107 204.5944 281.9708
ENERGY: 900000 1.1355 12.7899 3.3165 0.0000 -10315.4805 1266.7046 0.0000 0.0000 1731.3736 -7300.1604 297.0565 -9031.5341 -7405.7744 298.1267 -1116.1808 -1070.6677 30343.6986 81.3151 150.6788
ENERGY: 1200000 1.7660 11.0663 2.5142 0.0000 -10646.0457 1422.8719 0.0000 0.0000 1726.1818 -7481.6455 296.1658 -9207.8273 -7415.6171 298.4039 -294.6019 -216.7132 30002.5567 2.1586 66.8759
ENERGY: 1500000 2.4332 12.3081 2.7140 0.0000 -10506.2948 1435.3934 0.0000 0.0000 1759.4771 -7293.9691 301.8783 -9053.4462 -7404.0924 300.0085 74.5605 148.0706 30637.3521 54.4552 124.2021
TCL: Running FEP window  14: Lambda1 0.65   Lambda2 0.7000000000000001 [dLambda 0.050000000000000044]
TCL: Setting parameter firsttimestep to 0
TCL: Setting parameter alchLambda to 0.65
Info: NONBONDED TABLE R-SQUARED SPACING: 0.0625
Info: NONBONDED TABLE SIZE: 705 POINTS
TCL: Setting parameter alchLambda2 to 0.7000000000000001
Info: NONBONDED TABLE R-SQUARED SPACING: 0.0625
Info: NONBONDED TABLE SIZE: 705 POINTS
TCL: Running for 1500000 steps
ETITLE: TS BOND ANGLE DIHED IMPRP ELECT VDW BOUNDARY MISC KINETIC TOTAL TEMP POTENTIAL TOTALAVG TEMPAVG PRESSURE GPRESSURE VOLUME PRESSAVG GPRESSAVG
ENERGY: 0 2.4332 12.3081 2.7140 0.0000 -10506.2950 1435.0942 0.0000 0.0000 1758.6192 -7295.1263 301.7311 -9053.7455 -7295.1263 301.7311 76.2127 151.2527 30637.3521 76.2127 151.2527
ENERGY: 300000 1.2984 9.4505 2.2746 0.0000 -10659.6866 1458.6752 0.0000 0.0000 1766.9062 -7421.0818 303.1530 -9187.9880 -7399.2125 300.5263 84.2912 119.0309 30290.2152 -93.9096 -25.8859
ENERGY: 600000 1.0865 11.1339 2.3229 0.0000 -10552.8838 1390.7808 0.0000 0.0000 1775.5990 -7371.9607 304.6444 -9147.5597 -7395.0093 299.7783 -253.5669 -153.5641 30122.7480 -129.6526 -62.2489
ENERGY: 900000 1.1460 10.3357 3.5055 0.0000 -10543.4263 1419.6451 0.0000 0.0000 1789.2157 -7319.5783 306.9807 -9108.7940 -7394.5421 299.0793 175.5465 172.3704 30152.4584 -64.8967 -5.4461
ENERGY: 1200000 0.6381 6.9498 2.9374 0.0000 -10664.5147 1424.8299 0.0000 0.0000 1763.3310 -7465.8285 302.5396 -9229.1595 -7414.3037 299.7002 -121.5787 -57.0826 29947.9757 -177.4301 -120.3251
ENERGY: 1500000 2.7214 10.7871 2.4686 0.0000 -10634.5877 1491.8892 0.0000 0.0000 1700.9984 -7425.7229 291.8450 -9126.7214 -7418.5543 298.7270 716.4102 765.5042 29736.7641 -51.4547 3.8463
TCL: Running FEP window  15: Lambda1 0.7000000000000001 Lambda2 0.7500000000000001 [dLambda 0.050000000000000044]
TCL: Setting parameter firsttimestep to 0
TCL: Setting parameter alchLambda to 0.7000000000000001
Info: NONBONDED TABLE R-SQUARED SPACING: 0.0625
Info: NONBONDED TABLE SIZE: 705 POINTS
TCL: Setting parameter alchLambda2 to 0.7500000000000001
Info: NONBONDED TABLE R-SQUARED SPACING: 0.0625
Info: NONBONDED TABLE SIZE: 705 POINTS
TCL: Running for 1500000 steps
ETITLE: TS BOND ANGLE DIHED IMPRP ELECT VDW BOUNDARY MISC KINETIC TOTAL TEMP POTENTIAL TOTALAVG TEMPAVG PRESSURE GPRESSURE VOLUME PRESSAVG GPRESSAVG
ENERGY: 0 2.7214 10.7871 2.4686 0.0000 -10634.6043 1491.7110 0.0000 0.0000 1700.1433 -7426.7729 291.6983 -9126.9162 -7426.7729 291.6983 677.0820 771.0307 29736.7641 677.0820 771.0307
ENERGY: 300000 0.4487 9.9555 2.9203 0.0000 -10521.7903 1410.0809 0.0000 0.0000 1770.2082 -7328.1766 303.7195 -9098.3848 -7367.5884 300.1271 -182.9002 -121.8250 30668.9175 -71.9409 9.1424
ENERGY: 600000 1.1825 11.4666 3.5578 0.0000 -10590.9530 1423.5856 0.0000 0.0000 1735.1793 -7415.9813 297.7095 -9151.1606 -7376.2303 299.5502 -36.9060 -17.8204 30356.7462 62.7055 110.5877
ENERGY: 900000 2.3723 11.8613 1.7177 0.0000 -10526.0423 1431.8755 0.0000 0.0000 1737.9511 -7340.2643 298.1851 -9078.2154 -7375.8176 298.0673 205.4088 253.4872 30197.0373 90.0407 134.8579
ENERGY: 1200000 3.1363 9.6999 2.4535 0.0000 -10663.3256 1518.6288 0.0000 0.0000 1712.6513 -7416.7557 293.8443 -9129.4070 -7387.8528 297.8233 640.0345 767.2529 30046.7539 109.3762 162.3880
ENERGY: 1500000 2.8192 12.4091 3.7193 0.0000 -10622.8026 1400.2242 0.0000 0.0000 1782.7221 -7420.9087 305.8665 -9203.6308 -7396.3556 299.1245 -445.3997 -416.4603 30577.9899 -18.8290 30.6192
TCL: Running FEP window  16: Lambda1 0.7500000000000001 Lambda2 0.8000000000000002 [dLambda 0.050000000000000044]
TCL: Setting parameter firsttimestep to 0
TCL: Setting parameter alchLambda to 0.7500000000000001
Info: NONBONDED TABLE R-SQUARED SPACING: 0.0625
Info: NONBONDED TABLE SIZE: 705 POINTS
TCL: Setting parameter alchLambda2 to 0.8000000000000002
Info: NONBONDED TABLE R-SQUARED SPACING: 0.0625
Info: NONBONDED TABLE SIZE: 705 POINTS
TCL: Running for 1500000 steps
ETITLE: TS BOND ANGLE DIHED IMPRP ELECT VDW BOUNDARY MISC KINETIC TOTAL TEMP POTENTIAL TOTALAVG TEMPAVG PRESSURE GPRESSURE VOLUME PRESSAVG GPRESSAVG
ENERGY: 0 2.8192 12.4091 3.7193 0.0000 -10622.7977 1399.9965 0.0000 0.0000 1781.8626 -7421.9911 305.7191 -9203.8537 -7421.9911 305.7191 -507.8222 -410.3052 30577.9899 -507.8222 -410.3052
ENERGY: 300000 2.5359 6.8108 2.5257 0.0000 -10577.0708 1383.8381 0.0000 0.0000 1726.2709 -7455.0894 296.1811 -9181.3603 -7460.8352 298.4849 -401.4981 -333.4003 30052.3274 -314.1744 -240.1861
ENERGY: 600000 0.8273 10.1502 3.3439 0.0000 -10522.0928 1371.5581 0.0000 0.0000 1754.3856 -7381.8277 301.0048 -9136.2133 -7435.7410 298.7604 -323.2748 -220.0009 30196.5608 -319.2528 -248.2809
ENERGY: 900000 2.6991 7.5492 1.9818 0.0000 -10578.5315 1395.6346 0.0000 0.0000 1739.7698 -7430.8971 298.4971 -9170.6668 -7437.6306 298.0496 -445.2104 -433.4800 30452.4865 -393.4706 -327.6137
ENERGY: 1200000 2.4191 6.7213 3.8069 0.0000 -10717.9818 1521.4060 0.0000 0.0000 1761.2592 -7422.3694 302.1841 -9183.6286 -7439.3091 298.0665 622.1511 616.5852 30002.3937 -200.8896 -134.0706
ENERGY: 1500000 2.9892 9.8836 2.4965 0.0000 -10532.0054 1353.0963 0.0000 0.0000 1763.1480 -7400.3918 302.5082 -9163.5398 -7425.3199 299.0554 -502.2674 -447.1371 29927.6635 -220.1779 -152.9720
TCL: Running FEP window  17: Lambda1 0.8000000000000002 Lambda2 0.8500000000000002 [dLambda 0.050000000000000044]
TCL: Setting parameter firsttimestep to 0
TCL: Setting parameter alchLambda to 0.8000000000000002
Info: NONBONDED TABLE R-SQUARED SPACING: 0.0625
Info: NONBONDED TABLE SIZE: 705 POINTS
TCL: Setting parameter alchLambda2 to 0.8500000000000002
Info: NONBONDED TABLE R-SQUARED SPACING: 0.0625
Info: NONBONDED TABLE SIZE: 705 POINTS
TCL: Running for 1500000 steps
ETITLE: TS BOND ANGLE DIHED IMPRP ELECT VDW BOUNDARY MISC KINETIC TOTAL TEMP POTENTIAL TOTALAVG TEMPAVG PRESSURE GPRESSURE VOLUME PRESSAVG GPRESSAVG
ENERGY: 0 2.9892 9.8836 2.4965 0.0000 -10531.9838 1353.0296 0.0000 0.0000 1762.2932 -7401.2917 302.3615 -9163.5849 -7401.2917 302.3615 -521.3123 -437.8567 29927.6635 -521.3123 -437.8567
ENERGY: 300000 1.9001 10.7640 2.6085 0.0000 -10608.0036 1455.6269 0.0000 0.0000 1771.5495 -7365.5547 303.9496 -9137.1041 -7412.8031 300.2077 -73.1858 34.5348 30612.8066 -332.7782 -263.9257
ENERGY: 600000 1.0957 9.4780 2.1723 0.0000 -10696.6188 1460.2906 0.0000 0.0000 1751.3207 -7472.2616 300.4789 -9223.5823 -7423.9246 299.3490 72.4836 136.4781 30076.2003 -308.9519 -244.7893
ENERGY: 900000 4.3258 7.0220 2.3148 0.0000 -10536.0262 1342.3805 0.0000 0.0000 1765.6965 -7414.2867 302.9454 -9179.9832 -7419.3578 299.6700 -791.5333 -729.7865 30387.4270 -222.6764 -160.0485
ENERGY: 1200000 0.2373 11.2290 2.3855 0.0000 -10587.9468 1439.8801 0.0000 0.0000 1759.7394 -7374.4756 301.9233 -9134.2150 -7416.1184 299.9938 129.4120 281.9485 30238.8831 -140.9940 -76.8813
ENERGY: 1500000 3.3035 8.6829 3.1520 0.0000 -10558.6493 1395.9771 0.0000 0.0000 1753.8076 -7393.7263 300.9056 -9147.5338 -7417.8250 299.9978 -506.8256 -478.3891 30560.4406 -166.0455 -102.3051
TCL: Running FEP window  18: Lambda1 0.8500000000000002 Lambda2 0.9000000000000002 [dLambda 0.050000000000000044]
TCL: Setting parameter firsttimestep to 0
TCL: Setting parameter alchLambda to 0.8500000000000002
Info: NONBONDED TABLE R-SQUARED SPACING: 0.0625
Info: NONBONDED TABLE SIZE: 705 POINTS
TCL: Setting parameter alchLambda2 to 0.9000000000000002
Info: NONBONDED TABLE R-SQUARED SPACING: 0.0625
Info: NONBONDED TABLE SIZE: 705 POINTS
TCL: Running for 1500000 steps
ETITLE: TS BOND ANGLE DIHED IMPRP ELECT VDW BOUNDARY MISC KINETIC TOTAL TEMP POTENTIAL TOTALAVG TEMPAVG PRESSURE GPRESSURE VOLUME PRESSAVG GPRESSAVG
ENERGY: 0 3.3035 8.6829 3.1520 0.0000 -10558.6414 1395.7808 0.0000 0.0000 1752.9355 -7394.7866 300.7560 -9147.7222 -7394.7866 300.7560 -549.6910 -467.8692 30560.4406 -549.6910 -467.8692
ENERGY: 300000 6.0714 12.2688 1.7629 0.0000 -10621.8469 1442.0240 0.0000 0.0000 1805.7650 -7353.9548 309.8201 -9159.7198 -7392.7530 304.4163 183.6081 220.3125 30000.5430 19.8777 90.5816
ENERGY: 600000 4.7558 9.1200 2.9833 0.0000 -10662.5257 1476.9682 0.0000 0.0000 1781.5854 -7387.1131 305.6715 -9168.6984 -7407.6313 303.3160 357.4254 515.2297 29834.6890 110.7545 182.8754
ENERGY: 900000 0.8657 8.0522 1.9265 0.0000 -10555.7850 1342.9131 0.0000 0.0000 1778.9057 -7423.1218 305.2118 -9202.0275 -7409.7194 303.0162 -783.8029 -720.3707 30400.3892 -4.5519 55.8910
ENERGY: 1200000 1.5186 11.5703 2.4380 0.0000 -10632.2917 1396.6759 0.0000 0.0000 1823.2909 -7396.7980 312.8271 -9220.0889 -7419.6552 302.7932 -204.9014 -138.0315 29911.4463 -85.7713 -16.6615
ENERGY: 1500000 1.9514 15.1540 2.3391 0.0000 -10577.1757 1390.6414 0.0000 0.0000 1831.2292 -7335.8605 314.1890 -9167.0897 -7419.4611 302.1870 -73.3635 6.6818 29856.6582 -74.8394 -11.2686
TCL: Running FEP window  19: Lambda1 0.9000000000000002 Lambda2 0.9500000000000003 [dLambda 0.050000000000000044]
TCL: Setting parameter firsttimestep to 0
TCL: Setting parameter alchLambda to 0.9000000000000002
Info: NONBONDED TABLE R-SQUARED SPACING: 0.0625
Info: NONBONDED TABLE SIZE: 705 POINTS
TCL: Setting parameter alchLambda2 to 0.9500000000000003
Info: NONBONDED TABLE R-SQUARED SPACING: 0.0625
Info: NONBONDED TABLE SIZE: 705 POINTS
TCL: Running for 1500000 steps
ETITLE: TS BOND ANGLE DIHED IMPRP ELECT VDW BOUNDARY MISC KINETIC TOTAL TEMP POTENTIAL TOTALAVG TEMPAVG PRESSURE GPRESSURE VOLUME PRESSAVG GPRESSAVG
ENERGY: 0 1.9514 15.1540 2.3391 0.0000 -10577.1976 1391.6489 0.0000 0.0000 1830.3706 -7335.7336 314.0417 -9166.1042 -7335.7336 314.0417 -54.3493 34.4581 29856.6582 -54.3493 34.4581
ENERGY: 300000 2.6954 8.7716 2.4162 0.0000 -10545.1636 1389.6065 0.0000 0.0000 1771.0425 -7370.6314 303.8626 -9141.6739 -7395.1221 301.8751 -83.8419 -40.8497 30227.9125 -41.1485 12.0357
ENERGY: 600000 3.5852 9.2444 2.3995 0.0000 -10623.8432 1423.1584 0.0000 0.0000 1741.1806 -7444.2751 298.7392 -9185.4558 -7387.3966 302.1305 -176.5582 -136.7362 30072.6729 70.4296 116.8533
ENERGY: 900000 0.8021 7.0762 2.5723 0.0000 -10448.0424 1406.8997 0.0000 0.0000 1735.7819 -7294.9102 297.8129 -9030.6921 -7375.8559 300.8395 168.3075 243.2536 30420.1192 -14.1483 39.7139
ENERGY: 1200000 1.5009 9.8890 3.1786 0.0000 -10695.1636 1472.5777 0.0000 0.0000 1732.6873 -7475.3302 297.2819 -9208.0175 -7395.6556 299.8917 257.4034 321.5950 29941.2243 -88.2726 -24.3373
ENERGY: 1500000 1.3040 9.1880 4.5601 0.0000 -10587.5450 1381.8477 0.0000 0.0000 1751.7458 -7438.8993 300.5519 -9190.6451 -7398.5472 299.3960 -362.0478 -365.1569 30333.5041 -74.8117 -15.9945
TCL: Running FEP window  20: Lambda1 0.9500000000000003 Lambda2 1.0    [dLambda 0.04999999999999971]
TCL: Setting parameter firsttimestep to 0
TCL: Setting parameter alchLambda to 0.9500000000000003
Info: NONBONDED TABLE R-SQUARED SPACING: 0.0625
Info: NONBONDED TABLE SIZE: 705 POINTS
TCL: Setting parameter alchLambda2 to 1.0
Info: NONBONDED TABLE R-SQUARED SPACING: 0.0625
Info: NONBONDED TABLE SIZE: 705 POINTS
TCL: Running for 1500000 steps
ETITLE: TS BOND ANGLE DIHED IMPRP ELECT VDW BOUNDARY MISC KINETIC TOTAL TEMP POTENTIAL TOTALAVG TEMPAVG PRESSURE GPRESSURE VOLUME PRESSAVG GPRESSAVG
ENERGY: 0 1.3040 9.1880 4.5601 0.0000 -10587.5375 1382.1444 0.0000 0.0000 1750.9043 -7439.4366 300.4075 -9190.3409 -7439.4366 300.4075 -424.6331 -343.6908 30333.5041 -424.6331 -343.6908
ENERGY: 300000 1.0787 11.9119 1.9782 0.0000 -10535.3044 1364.2618 0.0000 0.0000 1772.2986 -7383.7752 304.0782 -9156.0738 -7409.0649 300.5775 -587.9148 -525.9863 30245.6648 -337.5135 -268.4984
ENERGY: 600000 1.4625 9.8636 1.8904 0.0000 -10507.4898 1452.5180 0.0000 0.0000 1720.9987 -7320.7566 295.2765 -9041.7553 -7393.2716 299.4735 621.5750 606.3133 30232.0119 -169.2132 -112.8449
ENERGY: 900000 2.4024 11.3379 2.1176 0.0000 -10619.6398 1488.3710 0.0000 0.0000 1718.5910 -7396.8198 294.8634 -9115.4108 -7392.3821 299.8608 695.0587 687.3893 30477.8717 17.3740 73.5074
ENERGY: 1200000 1.5732 10.1364 2.1627 0.0000 -10540.5064 1395.6420 0.0000 0.0000 1765.3375 -7365.6547 302.8838 -9130.9921 -7376.6216 301.6003 -166.3713 -127.0238 30322.3583 -5.1028 61.2334
ENERGY: 1500000 1.3830 12.1074 2.7884 0.0000 -10660.9067 1459.0379 0.0000 0.0000 1736.9815 -7448.6085 298.0187 -9185.5900 -7391.9808 300.6411 155.7949 255.9325 30026.7572 -57.4173 12.9424
TCL: Exiting due to exit command.
