Info: SIMULATION PARAMETERS:
Info: TIMESTEP               2
Info: NUMBER OF STEPS        0
Info: STEPS PER CYCLE        10
Info: PERIODIC CELL BASIS 1  31.1071 0 0
Info: PERIODIC CELL BASIS 2  0 31.4634 0
Info: PERIODIC CELL BASIS 3  0 0 31.7406
Info: PERIODIC CELL CENTER   0 0 0
Info: WRAPPING WATERS AROUND PERIODIC BOUNDARIES ON OUTPUT.
Info: WRAPPING ALL CLUSTERS AROUND PERIODIC BOUNDARIES ON OUTPUT.
Info: FIRST LDB TIMESTEP     50
Info: LAST LDB TIMESTEP     -1
Info: HOM BACKGROUND SCALING 1
Info: PME BACKGROUND SCALING 1
Info: MIN ATOMS PER PATCH    40
Info: EMPTY PATCH LOAD       40 ATOMS
Info: VELOCITY FILE          mobley_8685905_equil.vel
Info: CENTER OF MASS MOVING INITIALLY? NO
Info: DIELECTRIC             1
Info: EXCLUDE                SCALED ONE-FOUR
Info: 1-4 ELECTROSTATICS SCALED BY 0.833333
Info: MODIFIED 1-4 VDW PARAMETERS WILL BE USED
Info: DCD FILENAME           mobley_8685905_prod.dcd
Info: DCD FREQUENCY          100000
Info: DCD FIRST STEP         100000
Info: DCD FILE WILL CONTAIN UNIT CELL DATA
Info: XST FILENAME           mobley_8685905_prod.xst
Info: XST FREQUENCY          100000
Info: NO VELOCITY DCD OUTPUT
Info: NO FORCE DCD OUTPUT
Info: OUTPUT FILENAME        mobley_8685905_prod
Info: BINARY OUTPUT FILES WILL BE USED
Info: RESTART FILENAME       mobley_8685905_prod.restart
Info: RESTART FREQUENCY      100000
Info: BINARY RESTART FILES WILL BE USED
Info: CUTOFF                 9
Info: PAIRLIST DISTANCE      11
Info: PAIRLIST SHRINK RATE   0.01
Info: PAIRLIST GROW RATE     0.01
Info: PAIRLIST TRIGGER       0.3
Info: PAIRLISTS PER CYCLE    2
Info: PAIRLISTS ENABLED
Info: MARGIN                 2
Info: HYDROGEN GROUP CUTOFF  2.5
Info: PATCH DIMENSION        15.5
Info: ENERGY OUTPUT STEPS    100000
Info: ENERGY EVALUATION STEPS    100000
Info: OUTPUT ENERGY PRECISION 4
Info: CROSSTERM ENERGY INCLUDED IN DIHEDRAL
Info: TIMING OUTPUT STEPS    1000000
Info: PRESSURE OUTPUT STEPS  100000
Info: ALCHEMICAL FEP ON
Info: FEP CURRENT LAMBDA VALUE     0
Info: FEP COMPARISON LAMBDA VALUE  0.05
Info: FEP INTRA-ALCHEMICAL NON-BONDED INTERACTIONS WILL BE RETAINED
Info: FEP INTRA-ALCHEMICAL BONDED INTERACTIONS WILL BE RETAINED
Info: FEP VDW SHIFTING COEFFICIENT 5
Info: FEP ELEC. ACTIVE FOR ANNIHILATED PARTICLES BETWEEN LAMBDA = 0 AND LAMBDA = 0.5
Info: FEP ELEC. ACTIVE FOR EXNIHILATED PARTICLES BETWEEN LAMBDA = 0.5 AND LAMBDA = 1
Info: FEP VDW ACTIVE FOR ANNIHILATED PARTICLES BETWEEN LAMBDA = 0 AND LAMBDA = 1
Info: FEP VDW ACTIVE FOR EXNIHILATED PARTICLES BETWEEN LAMBDA = 0 AND LAMBDA = 1
Info: FEP BOND ACTIVE FOR ANNIHILATED PARTICLES BETWEEN LAMBDA = 1 AND LAMBDA = 1
Info: FEP BOND ACTIVE FOR EXNIHILATED PARTICLES BETWEEN LAMBDA = 0 AND LAMBDA = 0
Info: LANGEVIN DYNAMICS ACTIVE
Info: LANGEVIN TEMPERATURE   300
Info: LANGEVIN USING BBK INTEGRATOR
Info: LANGEVIN DAMPING COEFFICIENT IS 1 INVERSE PS
Info: LANGEVIN DYNAMICS APPLIED TO HYDROGENS
Info: LANGEVIN PISTON PRESSURE CONTROL ACTIVE
Info:        TARGET PRESSURE IS 1.01325 BAR
Info:     OSCILLATION PERIOD IS 50 FS
Info:             DECAY TIME IS 25 FS
Info:     PISTON TEMPERATURE IS 300 K
Info:       PRESSURE CONTROL IS GROUP-BASED
Info:    INITIAL STRAIN RATE IS 0.000406221 0.000406221 0.000406221
Info:       CELL FLUCTUATION IS ISOTROPIC
Info: PARTICLE MESH EWALD (PME) ACTIVE
Info: PME TOLERANCE               1e-06
Info: PME EWALD COEFFICIENT       0.348832
Info: PME INTERPOLATION ORDER     4
Info: PME GRID DIMENSIONS         32 32 32
Info: PME MAXIMUM GRID SPACING    1
Info: PME CALCULATION WILL BE PERFORMED ON GPU
Info: FULL ELECTROSTATIC EVALUATION FREQUENCY      2
Info: USING VERLET I (r-RESPA) MTS SCHEME.
Info: C1 SPLITTING OF LONG RANGE ELECTROSTATICS
Info: PLACING ATOMS IN PATCHES BY HYDROGEN GROUPS
Info: RIGID BONDS TO HYDROGEN : ALL
Info:         ERROR TOLERANCE : 1e-08
Info:          MAX ITERATIONS : 100
Info: RIGID WATER USING SETTLE ALGORITHM
Info: RANDOM NUMBER SEED     1743490517
Info: USE HYDROGEN BONDS?    NO
Info: Using AMBER format force field!
Info: AMBER PARM FILE        mobley_8685905.prmtop
Info: COORDINATE PDB         mobley_8685905.pdb
Info: Exclusions will be read from PARM file!
Info: SCNB (VDW SCALING)     2
Info: USING ARITHMETIC MEAN TO COMBINE L-J SIGMA PARAMETERS
Info: BINARY COORDINATES     mobley_8685905_equil.coor
Info: SUMMARY OF PARAMETERS:
Info: 6 BONDS
Info: 7 ANGLES
Info:   7 HARMONIC
Info:   0 COSINE-BASED
Info: 3 DIHEDRAL
Info: 0 IMPROPER
Info: 0 CROSSTERM
Info: 0 VDW
Info: 21 VDW_PAIRS
Info: 0 NBTHOLE_PAIRS
Info: To read alchdata from file: mobley_8685905.pdb
Info: To read alchflag data from column: 5
Info: STRUCTURE SUMMARY:
Info: 2996 ATOMS
Info: 2995 BONDS
Info: 12 ANGLES
Info: 12 DIHEDRALS
Info: 0 IMPROPERS
Info: 0 CROSSTERMS
Info: 3016 EXCLUSIONS
Info: 2989 RIGID BONDS
Info: ALCH: 0 ATOMS TO DISAPPEAR IN FINAL STATE
Info: ALCH: 8 ATOMS TO APPEAR IN FINAL STATE
Info: 5999 DEGREES OF FREEDOM
Info: 1003 HYDROGEN GROUPS
Info: 3 ATOMS IN LARGEST HYDROGEN GROUP
Info: 1003 MIGRATION GROUPS
Info: 3 ATOMS IN LARGEST MIGRATION GROUP
Info: TOTAL MASS = 18124.9 amu
Info: TOTAL CHARGE = -4.47035e-08 e
Info: MASS DENSITY = 0.968843 g/cm^3
Info: ATOM DENSITY = 0.0964409 atoms/A^3
Info: ADDED 0 IMPLICIT EXCLUSIONS
Info: NONBONDED TABLE R-SQUARED SPACING: 0.0625
Info: NONBONDED TABLE SIZE: 705 POINTS
Info: REDUCING NUMBER OF PATCHES TO IMPROVE LOAD BALANCE
Info: REMOVING COM VELOCITY -0.11675 -0.0253357 0.0288261
Info: Use 3D box decompostion in PME FFT.
Info: Updated CUDA force table with 4096 elements.
Info: Updated CUDA LJ table with 6 x 6 elements.
Info: Found 11 unique exclusion lists needing 16 bytes
TCL: Running for 1500000 steps
ETITLE: TS BOND ANGLE DIHED IMPRP ELECT VDW BOUNDARY MISC KINETIC TOTAL TEMP POTENTIAL TOTALAVG TEMPAVG PRESSURE GPRESSURE VOLUME PRESSAVG GPRESSAVG
ENERGY: 0 0.4572 1.6739 4.3280 0.0000 -10822.4067 1438.4020 0.0000 0.0000 1783.5725 -7593.9731 299.2280 -9377.5456 -7593.9731 299.2280 -299.3828 -212.1116 31065.6686 -299.3828 -212.1116
ENERGY: 300000 3.3873 2.7011 3.7704 0.0000 -10857.7204 1447.9383 0.0000 0.0000 1841.3945 -7558.5288 308.9288 -9399.9233 -7624.7855 298.1492 -144.9905 -44.3524 30635.3682 -48.9627 59.2615
ENERGY: 600000 1.2677 3.4775 3.7095 0.0000 -10997.2522 1530.9636 0.0000 0.0000 1839.5887 -7618.2452 308.6258 -9457.8338 -7616.8322 300.7977 394.6196 480.9541 30547.5500 184.0577 280.2244
ENERGY: 900000 1.9849 2.4018 3.7080 0.0000 -10932.1955 1511.8869 0.0000 0.0000 1823.1507 -7589.0631 305.8680 -9412.2138 -7606.9675 301.5326 241.6754 295.8610 30706.4677 250.2714 330.6951
ENERGY: 1200000 1.3874 2.7819 3.7011 0.0000 -10899.2881 1487.7656 0.0000 0.0000 1790.5478 -7613.1042 300.3983 -9403.6520 -7599.4834 301.5259 288.9729 294.2852 30400.6883 278.6982 350.3110
ENERGY: 1500000 2.3839 3.4330 3.7799 0.0000 -10983.5352 1531.6926 0.0000 0.0000 1766.1527 -7676.0931 296.3055 -9442.2458 -7600.3605 302.0883 396.6262 441.4899 30763.0645 226.6040 302.0977
TCL: Running FEP window   2: Lambda1 0.05   Lambda2 0.1    [dLambda 0.05  ]
TCL: Setting parameter firsttimestep to 0
TCL: Setting parameter alchLambda to 0.05
Info: NONBONDED TABLE R-SQUARED SPACING: 0.0625
Info: NONBONDED TABLE SIZE: 705 POINTS
TCL: Setting parameter alchLambda2 to 0.1
Info: NONBONDED TABLE R-SQUARED SPACING: 0.0625
Info: NONBONDED TABLE SIZE: 705 POINTS
TCL: Running for 1500000 steps
ETITLE: TS BOND ANGLE DIHED IMPRP ELECT VDW BOUNDARY MISC KINETIC TOTAL TEMP POTENTIAL TOTALAVG TEMPAVG PRESSURE GPRESSURE VOLUME PRESSAVG GPRESSAVG
ENERGY: 0 2.3839 3.4330 3.7799 0.0000 -10983.5322 1533.6253 0.0000 0.0000 1765.2742 -7675.0358 296.1582 -9440.3101 -7675.0358 296.1582 367.1504 448.4428 30763.0645 367.1504 448.4428
ENERGY: 300000 1.6302 3.8673 3.7441 0.0000 -10794.0945 1417.7383 0.0000 0.0000 1827.2409 -7539.8737 306.5542 -9367.1146 -7622.3729 300.7856 -420.1899 -370.2311 30998.9345 47.1959 122.6871
ENERGY: 600000 2.2774 2.2046 3.9647 0.0000 -10833.5478 1382.1889 0.0000 0.0000 1779.2172 -7663.6950 298.4974 -9442.9121 -7616.5258 299.8120 -872.9824 -818.9796 31015.6569 40.5376 111.2804
ENERGY: 900000 2.0931 6.5033 3.6859 0.0000 -10869.1361 1461.5763 0.0000 0.0000 1797.0979 -7598.1797 301.4972 -9395.2776 -7603.9506 301.3536 2.5150 81.7487 30536.8087 37.4944 104.8088
ENERGY: 1200000 2.3336 2.8428 3.6428 0.0000 -10956.8195 1487.1771 0.0000 0.0000 1765.3828 -7695.4404 296.1764 -9460.8232 -7607.6984 301.2667 -14.8740 10.5798 30710.8756 34.2719 94.2781
ENERGY: 1500000 2.4684 4.9298 3.6742 0.0000 -10834.2708 1394.8046 0.0000 0.0000 1780.5210 -7647.8728 298.7161 -9428.3938 -7608.4979 300.3970 -881.9320 -796.3038 30961.7478 -38.3650 19.8727
TCL: Running FEP window   3: Lambda1 0.1    Lambda2 0.15000000000000002 [dLambda 0.05000000000000002]
TCL: Setting parameter firsttimestep to 0
TCL: Setting parameter alchLambda to 0.1
Info: NONBONDED TABLE R-SQUARED SPACING: 0.0625
Info: NONBONDED TABLE SIZE: 705 POINTS
TCL: Setting parameter alchLambda2 to 0.15000000000000002
Info: NONBONDED TABLE R-SQUARED SPACING: 0.0625
Info: NONBONDED TABLE SIZE: 705 POINTS
TCL: Running for 1500000 steps
ETITLE: TS BOND ANGLE DIHED IMPRP ELECT VDW BOUNDARY MISC KINETIC TOTAL TEMP POTENTIAL TOTALAVG TEMPAVG PRESSURE GPRESSURE VOLUME PRESSAVG GPRESSAVG
ENERGY: 0 2.4684 4.9298 3.6742 0.0000 -10834.2706 1395.9799 0.0000 0.0000 1779.6282 -7647.5900 298.5663 -9427.2182 -7647.5900 298.5663 -871.2580 -792.2014 30961.7478 -871.2580 -792.2014
ENERGY: 300000 2.3933 1.8549 3.5459 0.0000 -10790.0788 1422.8297 0.0000 0.0000 1797.7485 -7561.7065 301.6063 -9359.4550 -7538.6187 303.9364 -492.5346 -400.6038 31064.5750 -652.5297 -577.6811
ENERGY: 600000 4.3430 2.8354 3.5424 0.0000 -10853.6826 1455.3604 0.0000 0.0000 1837.0849 -7550.5164 308.2058 -9387.6013 -7552.5584 305.2507 -181.5494 -104.3316 30873.4071 -351.5385 -279.3593
ENERGY: 900000 2.0762 3.1118 3.6419 0.0000 -10934.3799 1489.7616 0.0000 0.0000 1754.8844 -7680.9040 294.4151 -9435.7884 -7589.2725 303.1357 125.2113 160.9483 30481.9499 -209.6103 -149.1255
ENERGY: 1200000 1.4781 2.4075 3.5114 0.0000 -10728.2418 1345.8205 0.0000 0.0000 1827.1780 -7547.8463 306.5437 -9375.0243 -7581.6584 304.4264 -884.0321 -842.8325 30918.7813 -159.8952 -103.2306
ENERGY: 1500000 0.9169 2.8719 3.8983 0.0000 -10888.4403 1519.6377 0.0000 0.0000 1806.1723 -7554.9432 303.0196 -9361.1156 -7578.6599 304.1301 773.6237 818.1723 30388.5928 -118.5477 -60.6395
TCL: Running FEP window   4: Lambda1 0.15000000000000002 Lambda2 0.2    [dLambda 0.04999999999999999]
TCL: Setting parameter firsttimestep to 0
TCL: Setting parameter alchLambda to 0.15000000000000002
Info: NONBONDED TABLE R-SQUARED SPACING: 0.0625
Info: NONBONDED TABLE SIZE: 705 POINTS
TCL: Setting parameter alchLambda2 to 0.2
Info: NONBONDED TABLE R-SQUARED SPACING: 0.0625
Info: NONBONDED TABLE SIZE: 705 POINTS
TCL: Running for 1500000 steps
ETITLE: TS BOND ANGLE DIHED IMPRP ELECT VDW BOUNDARY MISC KINETIC TOTAL TEMP POTENTIAL TOTALAVG TEMPAVG PRESSURE GPRESSURE VOLUME PRESSAVG GPRESSAVG
ENERGY: 0 0.9169 2.8719 3.8983 0.0000 -10888.4400 1520.2065 0.0000 0.0000 1805.3097 -7555.2368 302.8749 -9360.5465 -7555.2368 302.8749 738.9203 823.2604 30388.5928 738.9203 823.2604
ENERGY: 300000 1.5362 4.3148 3.5824 0.0000 -10851.5084 1411.8035 0.0000 0.0000 1719.9638 -7710.3077 288.5565 -9430.2715 -7649.4346 297.0439 -580.0424 -509.6344 31003.4547 -143.6053 -80.7307
ENERGY: 600000 0.3676 2.3643 3.7576 0.0000 -10889.6089 1479.5505 0.0000 0.0000 1811.7493 -7591.8196 303.9552 -9403.5689 -7617.4209 298.6272 234.7639 288.2543 30648.9627 -45.7260 14.9926
ENERGY: 900000 1.6939 3.1100 3.5731 0.0000 -10848.6705 1430.8747 0.0000 0.0000 1758.0341 -7651.3847 294.9435 -9409.4188 -7620.1228 298.9852 -382.0894 -329.9278 30726.5731 -80.8472 -20.1958
ENERGY: 1200000 0.5660 3.3258 4.5219 0.0000 -10769.8984 1407.1756 0.0000 0.0000 1755.5669 -7598.7422 294.5296 -9354.3091 -7607.3246 299.4018 -510.0567 -411.1394 30926.2713 -186.0966 -125.9833
ENERGY: 1500000 2.5926 4.6894 3.6984 0.0000 -10975.0516 1548.9527 0.0000 0.0000 1766.2253 -7648.8933 296.3177 -9415.1186 -7607.6351 299.3853 501.6640 619.2030 30806.9094 -116.6197 -53.4700
TCL: Running FEP window   5: Lambda1 0.2    Lambda2 0.25   [dLambda 0.04999999999999999]
TCL: Setting parameter firsttimestep to 0
TCL: Setting parameter alchLambda to 0.2
Info: NONBONDED TABLE R-SQUARED SPACING: 0.0625
Info: NONBONDED TABLE SIZE: 705 POINTS
TCL: Setting parameter alchLambda2 to 0.25
Info: NONBONDED TABLE R-SQUARED SPACING: 0.0625
Info: NONBONDED TABLE SIZE: 705 POINTS
TCL: Running for 1500000 steps
ETITLE: TS BOND ANGLE DIHED IMPRP ELECT VDW BOUNDARY MISC KINETIC TOTAL TEMP POTENTIAL TOTALAVG TEMPAVG PRESSURE GPRESSURE VOLUME PRESSAVG GPRESSAVG
ENERGY: 0 2.5926 4.6894 3.6984 0.0000 -10975.0517 1548.8564 0.0000 0.0000 1765.3439 -7649.8710 296.1698 -9415.2149 -7649.8710 296.1698 542.1503 621.1690 30806.9094 542.1503 621.1690
ENERGY: 300000 2.4676 2.3655 3.7115 0.0000 -11009.5406 1567.2317 0.0000 0.0000 1822.7489 -7611.0154 305.8006 -9433.7643 -7632.1067 300.5582 748.5516 774.0188 30878.4611 240.2067 293.1944
ENERGY: 600000 2.0796 2.0424 4.0501 0.0000 -10818.6769 1444.0673 0.0000 0.0000 1842.1939 -7524.2436 309.0629 -9366.4375 -7607.9014 302.0403 -223.8103 -119.2681 30772.3508 42.2168 91.6301
ENERGY: 900000 1.5196 5.1253 3.4586 0.0000 -10940.8926 1423.5340 0.0000 0.0000 1826.1734 -7681.0818 306.3752 -9507.2552 -7625.3147 302.2251 -562.0943 -497.4015 30506.1818 -11.8540 47.0773
ENERGY: 1200000 1.9999 3.2899 4.2249 0.0000 -10732.8063 1452.7699 0.0000 0.0000 1780.9171 -7489.6047 298.7825 -9270.5218 -7610.4039 301.6693 90.2945 119.2524 31403.9130 86.5982 146.9162
ENERGY: 1500000 1.2057 3.5158 4.3725 0.0000 -11073.2098 1578.4642 0.0000 0.0000 1824.9342 -7660.7175 306.1672 -9485.6516 -7608.3708 302.5079 937.0825 1028.1058 29988.5474 123.9348 186.4363
TCL: Running FEP window   6: Lambda1 0.25   Lambda2 0.3    [dLambda 0.04999999999999999]
TCL: Setting parameter firsttimestep to 0
TCL: Setting parameter alchLambda to 0.25
Info: NONBONDED TABLE R-SQUARED SPACING: 0.0625
Info: NONBONDED TABLE SIZE: 705 POINTS
TCL: Setting parameter alchLambda2 to 0.3
Info: NONBONDED TABLE R-SQUARED SPACING: 0.0625
Info: NONBONDED TABLE SIZE: 705 POINTS
TCL: Running for 1500000 steps
ETITLE: TS BOND ANGLE DIHED IMPRP ELECT VDW BOUNDARY MISC KINETIC TOTAL TEMP POTENTIAL TOTALAVG TEMPAVG PRESSURE GPRESSURE VOLUME PRESSAVG GPRESSAVG
ENERGY: 0 1.2057 3.5158 4.3725 0.0000 -11073.2097 1578.6039 0.0000 0.0000 1824.0432 -7661.4687 306.0178 -9485.5118 -7661.4687 306.0178 929.8217 1031.6119 29988.5474 929.8217 1031.6119
ENERGY: 300000 1.5072 2.8465 4.0806 0.0000 -10815.4147 1440.5917 0.0000 0.0000 1752.9686 -7613.4201 294.0937 -9366.3887 -7647.9461 297.7414 -301.2725 -241.8970 31321.1859 -40.0504 59.1688
ENERGY: 600000 0.7661 2.4283 4.0360 0.0000 -10861.2500 1492.8563 0.0000 0.0000 1758.2385 -7602.9248 294.9778 -9361.1633 -7622.8850 299.5159 203.2332 329.4008 30568.3696 -143.3274 -50.9303
ENERGY: 900000 1.6260 3.9607 3.4875 0.0000 -10978.7791 1563.2200 0.0000 0.0000 1841.6082 -7564.8768 308.9646 -9406.4850 -7612.6236 300.4652 478.1742 562.4860 31022.9976 -133.6891 -35.5406
ENERGY: 1200000 1.9828 4.1517 3.7670 0.0000 -10860.6405 1477.1676 0.0000 0.0000 1812.4837 -7561.0877 304.0784 -9373.5714 -7600.9542 300.4875 104.0591 140.4254 31046.6341 -229.0948 -137.3443
ENERGY: 1500000 1.5770 2.3487 4.1740 0.0000 -10771.6811 1390.8696 0.0000 0.0000 1786.8597 -7585.8520 299.7795 -9372.7118 -7599.6021 300.6299 -471.3066 -474.2447 30856.2930 -253.7967 -172.5827
TCL: Running FEP window   7: Lambda1 0.3    Lambda2 0.35   [dLambda 0.04999999999999999]
TCL: Setting parameter firsttimestep to 0
TCL: Setting parameter alchLambda to 0.3
Info: NONBONDED TABLE R-SQUARED SPACING: 0.0625
Info: NONBONDED TABLE SIZE: 705 POINTS
TCL: Setting parameter alchLambda2 to 0.35
Info: NONBONDED TABLE R-SQUARED SPACING: 0.0625
Info: NONBONDED TABLE SIZE: 705 POINTS
TCL: Running for 1500000 steps
ETITLE: TS BOND ANGLE DIHED IMPRP ELECT VDW BOUNDARY MISC KINETIC TOTAL TEMP POTENTIAL TOTALAVG TEMPAVG PRESSURE GPRESSURE VOLUME PRESSAVG GPRESSAVG
ENERGY: 0 1.5770 2.3487 4.1740 0.0000 -10771.6810 1391.1659 0.0000 0.0000 1785.9822 -7586.4331 299.6323 -9372.4153 -7586.4331 299.6323 -548.5900 -467.3397 30856.2930 -548.5900 -467.3397
ENERGY: 300000 2.7660 2.7941 3.6241 0.0000 -10943.5847 1474.5817 0.0000 0.0000 1785.2673 -7674.5514 299.5124 -9459.8187 -7601.7585 301.7462 41.6160 75.8709 30545.2997 -143.5551 -75.2498
ENERGY: 600000 0.9922 1.4907 3.6935 0.0000 -10804.8543 1369.6836 0.0000 0.0000 1827.9942 -7601.0001 306.6806 -9428.9943 -7591.6349 303.1938 -770.8604 -676.1481 30907.6757 -205.4136 -136.7142
ENERGY: 900000 0.7212 2.9215 3.7070 0.0000 -10828.6083 1383.3334 0.0000 0.0000 1807.4253 -7630.4998 303.2298 -9437.9252 -7600.7669 302.8400 -782.7941 -739.5807 31261.9612 -292.8063 -219.6070
ENERGY: 1200000 2.1139 3.0619 4.1716 0.0000 -10956.4808 1503.0670 0.0000 0.0000 1739.0018 -7705.0646 291.7505 -9444.0664 -7606.1805 301.4441 202.9246 225.4144 30547.5425 -237.6769 -162.9514
ENERGY: 1500000 0.9406 2.7904 3.6227 0.0000 -10752.6781 1370.8198 0.0000 0.0000 1798.8796 -7575.6251 301.7961 -9374.5046 -7602.1431 301.6030 -575.3880 -495.6956 30871.0984 -197.4905 -124.9937
TCL: Running FEP window   8: Lambda1 0.35   Lambda2 0.39999999999999997 [dLambda 0.04999999999999999]
TCL: Setting parameter firsttimestep to 0
TCL: Setting parameter alchLambda to 0.35
Info: NONBONDED TABLE R-SQUARED SPACING: 0.0625
Info: NONBONDED TABLE SIZE: 705 POINTS
TCL: Setting parameter alchLambda2 to 0.39999999999999997
Info: NONBONDED TABLE R-SQUARED SPACING: 0.0625
Info: NONBONDED TABLE SIZE: 705 POINTS
TCL: Running for 1500000 steps
ETITLE: TS BOND ANGLE DIHED IMPRP ELECT VDW BOUNDARY MISC KINETIC TOTAL TEMP POTENTIAL TOTALAVG TEMPAVG PRESSURE GPRESSURE VOLUME PRESSAVG GPRESSAVG
ENERGY: 0 0.9406 2.7904 3.6227 0.0000 -10752.6790 1370.5063 0.0000 0.0000 1798.0066 -7576.8124 301.6496 -9374.8191 -7576.8124 301.6496 -586.3289 -494.2049 30871.0984 -586.3289 -494.2049
ENERGY: 300000 1.9503 7.3947 3.7727 0.0000 -10946.9714 1527.5724 0.0000 0.0000 1799.2969 -7606.9845 301.8661 -9406.2813 -7640.1732 297.9230 422.7190 448.0406 30928.1180 -24.6283 20.0662
ENERGY: 600000 3.8658 2.6392 3.9759 0.0000 -10823.8259 1422.2225 0.0000 0.0000 1805.5485 -7585.5739 302.9149 -9391.1224 -7619.6871 300.0171 -453.3737 -401.9051 31182.0815 -12.0876 35.3433
ENERGY: 900000 1.0414 4.5702 3.6539 0.0000 -10921.1477 1495.4561 0.0000 0.0000 1778.7389 -7637.6872 298.4171 -9416.4261 -7622.8673 298.7782 284.2010 348.9293 30487.3730 33.9496 84.9694
ENERGY: 1200000 1.0116 3.1537 3.7170 0.0000 -10803.3930 1365.6166 0.0000 0.0000 1849.3416 -7580.5525 310.2621 -9429.8942 -7621.9685 299.6412 -873.6516 -781.4200 30862.8843 -57.2666 0.7737
ENERGY: 1500000 0.9786 1.4773 3.6929 0.0000 -10776.4411 1430.2394 0.0000 0.0000 1814.9554 -7525.0975 304.4931 -9340.0529 -7620.5189 299.8908 27.6178 49.3558 30782.5815 -60.3891 -2.9964
TCL: Running FEP window   9: Lambda1 0.39999999999999997 Lambda2 0.44999999999999996 [dLambda 0.04999999999999999]
TCL: Setting parameter firsttimestep to 0
TCL: Setting parameter alchLambda to 0.39999999999999997
Info: NONBONDED TABLE R-SQUARED SPACING: 0.0625
Info: NONBONDED TABLE SIZE: 705 POINTS
TCL: Setting parameter alchLambda2 to 0.44999999999999996
Info: NONBONDED TABLE R-SQUARED SPACING: 0.0625
Info: NONBONDED TABLE SIZE: 705 POINTS
TCL: Running for 1500000 steps
ETITLE: TS BOND ANGLE DIHED IMPRP ELECT VDW BOUNDARY MISC KINETIC TOTAL TEMP POTENTIAL TOTALAVG TEMPAVG PRESSURE GPRESSURE VOLUME PRESSAVG GPRESSAVG
ENERGY: 0 0.9786 1.4773 3.6929 0.0000 -10776.4421 1429.9302 0.0000 0.0000 1814.0945 -7526.2687 304.3487 -9340.3631 -7526.2687 304.3487 -41.0043 50.9425 30782.5815 -41.0043 50.9425
ENERGY: 300000 0.4666 1.8596 3.7004 0.0000 -10863.6459 1470.7774 0.0000 0.0000 1750.6692 -7636.1727 293.7079 -9386.8419 -7576.8535 301.4141 131.8154 197.8048 30712.2750 -36.6238 41.6653
ENERGY: 600000 0.7863 2.2732 3.6134 0.0000 -10784.7890 1410.0358 0.0000 0.0000 1755.9108 -7612.1694 294.5873 -9368.0803 -7587.8796 298.8791 -368.8991 -301.6087 30814.2606 -23.5206 52.9771
ENERGY: 900000 1.5533 2.6187 3.7336 0.0000 -10846.3846 1439.2874 0.0000 0.0000 1812.4806 -7586.7110 304.0779 -9399.1915 -7593.2050 299.4927 -80.8445 5.7100 30655.6599 50.9314 123.4051
ENERGY: 1200000 2.8956 3.3554 3.5896 0.0000 -10776.1632 1437.3901 0.0000 0.0000 1742.2893 -7586.6431 292.3020 -9328.9324 -7588.4474 299.2275 -6.2028 9.7099 30900.2877 42.4699 109.1568
ENERGY: 1500000 3.0520 3.7304 4.3471 0.0000 -10830.5285 1456.6944 0.0000 0.0000 1765.7951 -7596.9094 296.2456 -9362.7046 -7588.5091 299.3658 -88.2309 -54.3591 31257.5516 -2.6055 64.2409
TCL: Running FEP window  10: Lambda1 0.44999999999999996 Lambda2 0.49999999999999994 [dLambda 0.04999999999999999]
TCL: Setting parameter firsttimestep to 0
TCL: Setting parameter alchLambda to 0.44999999999999996
Info: NONBONDED TABLE R-SQUARED SPACING: 0.0625
Info: NONBONDED TABLE SIZE: 705 POINTS
TCL: Setting parameter alchLambda2 to 0.49999999999999994
Info: NONBONDED TABLE R-SQUARED SPACING: 0.0625
Info: NONBONDED TABLE SIZE: 705 POINTS
TCL: Running for 1500000 steps
ETITLE: TS BOND ANGLE DIHED IMPRP ELECT VDW BOUNDARY MISC KINETIC TOTAL TEMP POTENTIAL TOTALAVG TEMPAVG PRESSURE GPRESSURE VOLUME PRESSAVG GPRESSAVG
ENERGY: 0 3.0520 3.7304 4.3471 0.0000 -10830.5290 1456.4158 0.0000 0.0000 1764.9144 -7598.0692 296.0978 -9362.9836 -7598.0692 296.0978 -127.7876 -54.0955 31257.5516 -127.7876 -54.0955
ENERGY: 300000 1.2029 2.1314 3.6874 0.0000 -10815.3412 1436.5993 0.0000 0.0000 1793.4011 -7578.3192 300.8770 -9371.7203 -7609.6227 298.6295 -69.7031 4.6173 30811.0011 5.7354 79.8664
ENERGY: 600000 0.6855 1.5782 3.8032 0.0000 -10803.1127 1447.6923 0.0000 0.0000 1829.2914 -7520.0621 306.8982 -9349.3535 -7583.9957 300.6395 -5.4523 99.1490 30831.8665 -93.4514 -17.5299
ENERGY: 900000 2.5462 2.0917 3.7120 0.0000 -10839.8285 1420.7906 0.0000 0.0000 1752.4240 -7658.2639 294.0023 -9410.6880 -7585.4949 300.7630 -408.8047 -309.3840 30899.1012 -26.9360 49.5500
ENERGY: 1200000 2.1660 2.8252 3.5307 0.0000 -10716.2293 1363.9059 0.0000 0.0000 1801.5516 -7542.2499 302.2444 -9343.8015 -7583.3433 300.9029 -857.9050 -762.4678 31419.8916 -134.9876 -63.7617
ENERGY: 1500000 0.7739 3.4170 3.7433 0.0000 -10953.9038 1479.2555 0.0000 0.0000 1800.5496 -7666.1644 302.0763 -9466.7141 -7601.1633 299.3896 -60.5084 48.5090 30684.8225 -69.4625 4.6126
TCL: Running FEP window  11: Lambda1 0.49999999999999994 Lambda2 0.5499999999999999 [dLambda 0.04999999999999999]
TCL: Setting parameter firsttimestep to 0
TCL: Setting parameter alchLambda to 0.49999999999999994
Info: NONBONDED TABLE R-SQUARED SPACING: 0.0625
Info: NONBONDED TABLE SIZE: 705 POINTS
TCL: Setting parameter alchLambda2 to 0.5499999999999999
Info: NONBONDED TABLE R-SQUARED SPACING: 0.0625
Info: NONBONDED TABLE SIZE: 705 POINTS
TCL: Running for 1500000 steps
ETITLE: TS BOND ANGLE DIHED IMPRP ELECT VDW BOUNDARY MISC KINETIC TOTAL TEMP POTENTIAL TOTALAVG TEMPAVG PRESSURE GPRESSURE VOLUME PRESSAVG GPRESSAVG
ENERGY: 0 0.7739 3.4170 3.7433 0.0000 -10953.9032 1479.7324 0.0000 0.0000 1799.6562 -7666.5804 301.9264 -9466.2366 -7666.5804 301.9264 -40.2999 53.8357 30684.8225 -40.2999 53.8357
ENERGY: 300000 3.1801 1.6544 3.6768 0.0000 -10863.6048 1483.2160 0.0000 0.0000 1785.2924 -7586.5851 299.5166 -9371.8775 -7622.8534 299.0767 120.8919 146.6416 31004.9045 150.0688 189.2319
ENERGY: 600000 1.5715 1.0716 3.6385 0.0000 -10826.2006 1459.0998 0.0000 0.0000 1825.8579 -7534.9613 306.3222 -9360.8192 -7595.3156 301.6787 -31.4877 41.1213 31001.4964 244.8840 282.9007
ENERGY: 900000 3.5153 3.3665 3.4824 0.0000 -10751.3327 1426.9925 0.0000 0.0000 1820.2660 -7493.7101 305.3841 -9313.9760 -7591.8647 302.2673 -459.6944 -392.7017 31527.3751 98.0198 140.5194
ENERGY: 1200000 0.9244 5.1369 3.7793 0.0000 -10867.8610 1527.5010 0.0000 0.0000 1808.6435 -7521.8760 303.4342 -9330.5194 -7598.2343 301.2570 677.2289 804.9508 30861.8768 84.0244 139.7498
ENERGY: 1500000 1.7219 2.2499 3.7266 0.0000 -10804.3118 1385.9572 0.0000 0.0000 1794.9446 -7615.7116 301.1359 -9410.6562 -7601.5576 301.7302 -618.4328 -577.7998 30869.5706 124.5170 185.9301
TCL: Running FEP window  12: Lambda1 0.5499999999999999 Lambda2 0.6    [dLambda 0.050000000000000044]
TCL: Setting parameter firsttimestep to 0
TCL: Setting parameter alchLambda to 0.5499999999999999
Info: NONBONDED TABLE R-SQUARED SPACING: 0.0625
Info: NONBONDED TABLE SIZE: 705 POINTS
TCL: Setting parameter alchLambda2 to 0.6
Info: NONBONDED TABLE R-SQUARED SPACING: 0.0625
Info: NONBONDED TABLE SIZE: 705 POINTS
TCL: Running for 1500000 steps
ETITLE: TS BOND ANGLE DIHED IMPRP ELECT VDW BOUNDARY MISC KINETIC TOTAL TEMP POTENTIAL TOTALAVG TEMPAVG PRESSURE GPRESSURE VOLUME PRESSAVG GPRESSAVG
ENERGY: 0 1.7219 2.2499 3.7266 0.0000 -10804.2562 1385.9274 0.0000 0.0000 1794.0993 -7616.5311 300.9941 -9410.6303 -7616.5311 300.9941 -658.6633 -572.2472 30869.5706 -658.6633 -572.2472
ENERGY: 300000 1.8106 3.8668 3.7296 0.0000 -10881.9321 1483.6150 0.0000 0.0000 1753.3839 -7635.5262 294.1633 -9388.9101 -7650.3958 295.2842 454.4959 627.8758 30033.1899 286.1766 391.6414
ENERGY: 600000 1.6808 4.9500 3.7151 0.0000 -10900.0160 1443.0423 0.0000 0.0000 1765.1225 -7681.5053 296.1327 -9446.6278 -7646.6729 296.9070 -273.2451 -236.9343 31176.1167 173.6401 268.8893
ENERGY: 900000 0.9079 5.2093 3.6372 0.0000 -10922.8012 1468.6241 0.0000 0.0000 1826.5968 -7617.8260 306.4462 -9444.4228 -7630.1231 298.8599 60.3847 104.0089 30701.8353 171.9508 257.0069
ENERGY: 1200000 2.4663 2.3886 3.8343 0.0000 -10958.7442 1552.0453 0.0000 0.0000 1838.8484 -7559.1614 308.5016 -9398.0098 -7615.0210 300.1594 925.4324 999.6837 30367.0163 269.0155 348.0391
ENERGY: 1500000 1.0737 3.9791 3.8021 0.0000 -10989.4607 1549.4600 0.0000 0.0000 1764.8931 -7666.2528 296.0942 -9431.1459 -7619.2226 300.1800 478.5087 574.1567 30617.1492 196.1360 272.6844
TCL: Running FEP window  13: Lambda1 0.6    Lambda2 0.65   [dLambda 0.050000000000000044]
TCL: Setting parameter firsttimestep to 0
TCL: Setting parameter alchLambda to 0.6
Info: NONBONDED TABLE R-SQUARED SPACING: 0.0625
Info: NONBONDED TABLE SIZE: 705 POINTS
TCL: Setting parameter alchLambda2 to 0.65
Info: NONBONDED TABLE R-SQUARED SPACING: 0.0625
Info: NONBONDED TABLE SIZE: 705 POINTS
TCL: Running for 1500000 steps
ETITLE: TS BOND ANGLE DIHED IMPRP ELECT VDW BOUNDARY MISC KINETIC TOTAL TEMP POTENTIAL TOTALAVG TEMPAVG PRESSURE GPRESSURE VOLUME PRESSAVG GPRESSAVG
ENERGY: 0 1.0737 3.9791 3.8021 0.0000 -10989.5795 1549.6592 0.0000 0.0000 1763.9926 -7667.0729 295.9431 -9431.0655 -7667.0729 295.9431 497.3160 582.0481 30617.1492 497.3160 582.0481
ENERGY: 300000 1.5704 2.1530 3.5322 0.0000 -10894.5310 1493.3970 0.0000 0.0000 1750.7127 -7643.1657 293.7152 -9393.8783 -7619.9035 294.2018 435.9536 533.6248 30602.5369 -131.4991 -80.3400
ENERGY: 600000 3.9833 6.9418 3.5467 0.0000 -10799.1284 1372.0314 0.0000 0.0000 1764.2740 -7648.3512 295.9904 -9412.6252 -7617.9009 298.3452 -1070.8896 -1030.9557 31342.7129 -325.7187 -279.1042
ENERGY: 900000 1.9153 2.9081 3.5481 0.0000 -10802.6932 1402.7988 0.0000 0.0000 1789.2602 -7602.2627 300.1823 -9391.5229 -7622.7309 298.9777 -646.5692 -588.7901 31253.0388 -333.3485 -288.9376
ENERGY: 1200000 2.0137 3.6187 3.7743 0.0000 -10916.6855 1492.0550 0.0000 0.0000 1775.8876 -7639.3362 297.9387 -9415.2238 -7619.8052 299.5764 169.4525 221.9915 30665.3049 -373.7309 -318.2607
ENERGY: 1500000 1.0466 2.5834 3.6126 0.0000 -10898.1497 1526.2426 0.0000 0.0000 1816.3999 -7548.2645 304.7355 -9364.6644 -7624.6142 299.5316 557.9435 639.2264 30780.5643 -281.9672 -223.3192
TCL: Running FEP window  14: Lambda1 0.65   Lambda2 0.7000000000000001 [dLambda 0.050000000000000044]
TCL: Setting parameter firsttimestep to 0
TCL: Setting parameter alchLambda to 0.65
Info: NONBONDED TABLE R-SQUARED SPACING: 0.0625
Info: NONBONDED TABLE SIZE: 705 POINTS
TCL: Setting parameter alchLambda2 to 0.7000000000000001
Info: NONBONDED TABLE R-SQUARED SPACING: 0.0625
Info: NONBONDED TABLE SIZE: 705 POINTS
TCL: Running for 1500000 steps
ETITLE: TS BOND ANGLE DIHED IMPRP ELECT VDW BOUNDARY MISC KINETIC TOTAL TEMP POTENTIAL TOTALAVG TEMPAVG PRESSURE GPRESSURE VOLUME PRESSAVG GPRESSAVG
ENERGY: 0 1.0466 2.5834 3.6126 0.0000 -10898.1480 1526.1390 0.0000 0.0000 1815.5044 -7549.2619 304.5852 -9364.7664 -7549.2619 304.5852 564.5052 646.3405 30780.5643 564.5052 646.3405
ENERGY: 300000 3.2339 3.0200 3.6932 0.0000 -10742.4861 1375.5732 0.0000 0.0000 1845.1547 -7511.8111 309.5596 -9356.9658 -7564.0852 304.2903 -693.9541 -551.1802 31015.1040 -93.1638 -15.1983
ENERGY: 600000 3.1111 3.0068 3.5960 0.0000 -10811.8767 1444.5228 0.0000 0.0000 1737.1617 -7620.4782 291.4417 -9357.6399 -7564.3756 300.9530 -273.2377 -196.8620 31537.2409 -139.5115 -57.1553
ENERGY: 900000 0.1158 4.1998 3.5336 0.0000 -10883.3909 1443.6043 0.0000 0.0000 1780.4711 -7651.4663 298.7077 -9431.9374 -7570.9494 300.7988 -195.4328 -118.2712 30738.1131 -248.1019 -171.8129
ENERGY: 1200000 1.5427 5.2243 3.7072 0.0000 -10894.9920 1437.2576 0.0000 0.0000 1828.0954 -7619.1648 306.6976 -9447.2603 -7572.1784 301.6618 -295.2564 -261.0952 30704.1596 -173.2935 -105.4826
ENERGY: 1500000 3.0723 2.7978 3.6323 0.0000 -10960.3330 1448.5177 0.0000 0.0000 1766.9802 -7735.3325 296.4444 -9502.3127 -7590.3667 300.7811 -395.6606 -296.6354 30501.5108 -111.1946 -36.6684
TCL: Running FEP window  15: Lambda1 0.7000000000000001 Lambda2 0.7500000000000001 [dLambda 0.050000000000000044]
TCL: Setting parameter firsttimestep to 0
TCL: Setting parameter alchLambda to 0.7000000000000001
Info: NONBONDED TABLE R-SQUARED SPACING: 0.0625
Info: NONBONDED TABLE SIZE: 705 POINTS
TCL: Setting parameter alchLambda2 to 0.7500000000000001
Info: NONBONDED TABLE R-SQUARED SPACING: 0.0625
Info: NONBONDED TABLE SIZE: 705 POINTS
TCL: Running for 1500000 steps
ETITLE: TS BOND ANGLE DIHED IMPRP ELECT VDW BOUNDARY MISC KINETIC TOTAL TEMP POTENTIAL TOTALAVG TEMPAVG PRESSURE GPRESSURE VOLUME PRESSAVG GPRESSAVG
ENERGY: 0 3.0723 2.7978 3.6323 0.0000 -10960.5475 1448.6157 0.0000 0.0000 1766.1014 -7736.3279 296.2969 -9502.4293 -7736.3279 296.2969 -366.0551 -289.1294 30501.5108 -366.0551 -289.1294
ENERGY: 300000 1.9668 3.7558 3.6606 0.0000 -10818.8548 1423.4157 0.0000 0.0000 1758.5849 -7627.4710 295.0359 -9386.0559 -7637.1065 298.7232 -289.9547 -252.5118 30746.0400 -221.8157 -159.7096
ENERGY: 600000 0.3861 1.7667 3.6853 0.0000 -10818.1846 1409.1674 0.0000 0.0000 1754.4122 -7648.7669 294.3358 -9403.1791 -7619.8466 297.3100 -323.0152 -217.1037 30630.6062 -215.2094 -129.5246
ENERGY: 900000 1.3650 2.5673 4.1851 0.0000 -10833.9788 1448.1992 0.0000 0.0000 1765.5909 -7612.0713 296.2113 -9377.6622 -7623.3258 298.1872 -63.7320 -45.8203 30874.0024 -48.4687 36.0081
ENERGY: 1200000 4.4303 2.7695 3.8280 0.0000 -10936.2940 1484.1751 0.0000 0.0000 1797.8629 -7643.2283 301.6255 -9441.0912 -7619.5265 298.3727 -142.6232 -82.5648 30930.8917 -67.1745 13.6742
ENERGY: 1500000 0.5634 1.8298 4.4046 0.0000 -10699.4662 1362.3017 0.0000 0.0000 1837.5757 -7492.7909 308.2881 -9330.3667 -7606.4353 299.8904 -613.1170 -563.5211 31035.1095 -77.9073 -0.8996
TCL: Running FEP window  16: Lambda1 0.7500000000000001 Lambda2 0.8000000000000002 [dLambda 0.050000000000000044]
TCL: Setting parameter firsttimestep to 0
TCL: Setting parameter alchLambda to 0.7500000000000001
Info: NONBONDED TABLE R-SQUARED SPACING: 0.0625
Info: NONBONDED TABLE SIZE: 705 POINTS
TCL: Setting parameter alchLambda2 to 0.8000000000000002
Info: NONBONDED TABLE R-SQUARED SPACING: 0.0625
Info: NONBONDED TABLE SIZE: 705 POINTS
TCL: Running for 1500000 steps
ETITLE: TS BOND ANGLE DIHED IMPRP ELECT VDW BOUNDARY MISC KINETIC TOTAL TEMP POTENTIAL TOTALAVG TEMPAVG PRESSURE GPRESSURE VOLUME PRESSAVG GPRESSAVG
ENERGY: 0 0.5634 1.8298 4.4046 0.0000 -10699.9454 1362.1599 0.0000 0.0000 1836.7235 -7494.2642 308.1451 -9330.9877 -7494.2642 308.1451 -621.7416 -559.3013 31035.1095 -621.7416 -559.3013
ENERGY: 300000 0.6433 4.1038 4.0366 0.0000 -10755.0840 1393.2719 0.0000 0.0000 1839.3542 -7513.6742 308.5865 -9353.0284 -7584.1998 299.3089 -220.3894 -138.5919 30749.7652 -349.1697 -290.8356
ENERGY: 600000 1.5014 3.0424 3.6429 0.0000 -10777.9608 1400.1526 0.0000 0.0000 1755.1494 -7614.4721 294.4595 -9369.6216 -7604.6473 297.9745 -251.1617 -216.2880 30715.7766 -238.5440 -189.9579
ENERGY: 900000 2.4088 6.7599 3.9441 0.0000 -10710.2996 1351.9527 0.0000 0.0000 1783.6692 -7561.5648 299.2443 -9345.2340 -7593.8600 299.2457 -457.3071 -379.5549 30589.6697 -269.4315 -213.5810
ENERGY: 1200000 1.4036 4.1234 3.4523 0.0000 -10806.9635 1428.1001 0.0000 0.0000 1737.9051 -7631.9790 291.5665 -9369.8841 -7603.1036 298.7419 -299.3187 -221.8746 30991.5006 -285.8403 -222.4307
ENERGY: 1500000 1.4888 2.6114 3.5318 0.0000 -10861.5828 1514.6113 0.0000 0.0000 1698.3503 -7640.9892 284.9304 -9339.3395 -7602.2568 298.0819 354.9289 436.3611 31262.1825 -226.0138 -162.3341
TCL: Running FEP window  17: Lambda1 0.8000000000000002 Lambda2 0.8500000000000002 [dLambda 0.050000000000000044]
TCL: Setting parameter firsttimestep to 0
TCL: Setting parameter alchLambda to 0.8000000000000002
Info: NONBONDED TABLE R-SQUARED SPACING: 0.0625
Info: NONBONDED TABLE SIZE: 705 POINTS
TCL: Setting parameter alchLambda2 to 0.8500000000000002
Info: NONBONDED TABLE R-SQUARED SPACING: 0.0625
Info: NONBONDED TABLE SIZE: 705 POINTS
TCL: Running for 1500000 steps
ETITLE: TS BOND ANGLE DIHED IMPRP ELECT VDW BOUNDARY MISC KINETIC TOTAL TEMP POTENTIAL TOTALAVG TEMPAVG PRESSURE GPRESSURE VOLUME PRESSAVG GPRESSAVG
ENERGY: 0 1.4888 2.6114 3.5318 0.0000 -10861.3413 1514.2626 0.0000 0.0000 1697.4701 -7641.9766 284.7827 -9339.4467 -7641.9766 284.7827 378.9284 439.4146 31262.1825 378.9284 439.4146
ENERGY: 300000 4.1875 2.5228 3.9324 0.0000 -10823.3691 1449.8204 0.0000 0.0000 1735.5180 -7627.3880 291.1660 -9362.9061 -7602.8290 292.4235 -81.9777 51.1014 30730.8480 -16.8105 54.7813
ENERGY: 600000 1.2970 2.7140 3.8162 0.0000 -10579.9734 1292.9502 0.0000 0.0000 1826.1098 -7453.0862 306.3645 -9279.1960 -7595.8047 296.9396 -834.3509 -790.4473 31017.9830 -100.0202 -39.4959
ENERGY: 900000 1.8780 1.6794 3.9416 0.0000 -10663.8806 1377.0272 0.0000 0.0000 1762.4930 -7516.8613 295.6916 -9279.3543 -7602.1975 296.0026 -531.0839 -521.8413 31467.6323 -170.2642 -116.9491
ENERGY: 1200000 2.2648 2.4137 3.5842 0.0000 -10872.9400 1461.3455 0.0000 0.0000 1784.2974 -7619.0343 299.3497 -9403.3317 -7606.8472 296.1818 -134.3514 -105.4577 31157.1689 -66.0662 -17.7182
ENERGY: 1500000 1.4704 5.6477 3.7291 0.0000 -10723.1051 1314.5810 0.0000 0.0000 1830.1789 -7567.4980 307.0472 -9397.6769 -7603.7307 297.6477 -1007.3973 -919.3258 30814.4303 -118.1312 -62.6783
TCL: Running FEP window  18: Lambda1 0.8500000000000002 Lambda2 0.9000000000000002 [dLambda 0.050000000000000044]
TCL: Setting parameter firsttimestep to 0
TCL: Setting parameter alchLambda to 0.8500000000000002
Info: NONBONDED TABLE R-SQUARED SPACING: 0.0625
Info: NONBONDED TABLE SIZE: 705 POINTS
TCL: Setting parameter alchLambda2 to 0.9000000000000002
Info: NONBONDED TABLE R-SQUARED SPACING: 0.0625
Info: NONBONDED TABLE SIZE: 705 POINTS
TCL: Running for 1500000 steps
ETITLE: TS BOND ANGLE DIHED IMPRP ELECT VDW BOUNDARY MISC KINETIC TOTAL TEMP POTENTIAL TOTALAVG TEMPAVG PRESSURE GPRESSURE VOLUME PRESSAVG GPRESSAVG
ENERGY: 0 1.4704 5.6477 3.7291 0.0000 -10723.3565 1314.3604 0.0000 0.0000 1829.2826 -7568.8663 306.8968 -9398.1490 -7568.8663 306.8968 -992.7749 -912.3814 30814.4303 -992.7749 -912.3814
ENERGY: 300000 2.2210 2.4317 3.9828 0.0000 -10861.7467 1435.2464 0.0000 0.0000 1752.6326 -7665.2322 294.0373 -9417.8648 -7592.1641 303.0924 -513.5831 -380.1726 31080.8570 -465.7794 -392.1152
ENERGY: 600000 1.6634 3.2742 3.7665 0.0000 -10823.5817 1444.7371 0.0000 0.0000 1730.5486 -7639.5920 290.3323 -9370.1405 -7607.0268 300.8376 -277.5152 -269.3362 31353.1694 -350.1688 -283.1441
ENERGY: 900000 1.0647 4.7157 3.5032 0.0000 -10750.7871 1410.4747 0.0000 0.0000 1789.9905 -7541.0384 300.3048 -9331.0289 -7612.6905 300.2819 -175.9198 -74.7768 31001.6853 -260.2502 -194.9177
ENERGY: 1200000 1.6909 2.4255 3.9888 0.0000 -10785.8503 1386.0208 0.0000 0.0000 1756.2171 -7635.5071 294.6386 -9391.7242 -7622.1218 300.0895 -576.1952 -489.5824 30894.3817 -160.2457 -98.8018
ENERGY: 1500000 1.3860 3.6667 3.7949 0.0000 -10717.6034 1349.9384 0.0000 0.0000 1860.0195 -7498.7980 312.0535 -9358.8176 -7622.2397 300.2368 -807.7245 -827.7919 31480.1369 -119.3029 -68.7040
TCL: Running FEP window  19: Lambda1 0.9000000000000002 Lambda2 0.9500000000000003 [dLambda 0.050000000000000044]
TCL: Setting parameter firsttimestep to 0
TCL: Setting parameter alchLambda to 0.9000000000000002
Info: NONBONDED TABLE R-SQUARED SPACING: 0.0625
Info: NONBONDED TABLE SIZE: 705 POINTS
TCL: Setting parameter alchLambda2 to 0.9500000000000003
Info: NONBONDED TABLE R-SQUARED SPACING: 0.0625
Info: NONBONDED TABLE SIZE: 705 POINTS
TCL: Running for 1500000 steps
ETITLE: TS BOND ANGLE DIHED IMPRP ELECT VDW BOUNDARY MISC KINETIC TOTAL TEMP POTENTIAL TOTALAVG TEMPAVG PRESSURE GPRESSURE VOLUME PRESSAVG GPRESSAVG
ENERGY: 0 1.3860 3.6667 3.7949 0.0000 -10718.0312 1350.6629 0.0000 0.0000 1859.1151 -7499.4056 311.9017 -9358.5208 -7499.4056 311.9017 -886.8402 -811.3171 31480.1369 -886.8402 -811.3171
ENERGY: 300000 1.1895 2.3114 3.6926 0.0000 -11019.4566 1519.5062 0.0000 0.0000 1792.5731 -7700.1838 300.7381 -9492.7570 -7610.2711 302.7822 215.0088 312.5516 30589.7930 -175.1346 -98.3244
ENERGY: 600000 3.1261 1.5240 3.6433 0.0000 -10916.6644 1517.1482 0.0000 0.0000 1790.2080 -7601.0148 300.3413 -9391.2229 -7614.4673 301.1387 375.0159 493.6183 30816.7948 -29.5932 45.2413
ENERGY: 900000 0.7721 4.2878 3.7365 0.0000 -10868.6346 1446.7847 0.0000 0.0000 1780.0285 -7633.0250 298.6335 -9413.0535 -7592.2476 302.9648 -286.7077 -175.4566 30850.5060 -0.7498 78.7917
ENERGY: 1200000 0.9531 1.6937 3.5881 0.0000 -10805.6497 1438.9220 0.0000 0.0000 1842.8774 -7517.6155 309.1776 -9360.4929 -7580.9484 303.2517 -27.0217 -20.6647 31142.5883 -130.6385 -58.3456
ENERGY: 1500000 2.4400 3.0071 3.5675 0.0000 -10689.3528 1389.6962 0.0000 0.0000 1747.5623 -7543.0796 293.1867 -9290.6419 -7578.6724 302.4708 -395.4257 -314.8998 31065.6736 -185.0866 -113.6529
TCL: Running FEP window  20: Lambda1 0.9500000000000003 Lambda2 1.0    [dLambda 0.04999999999999971]
TCL: Setting parameter firsttimestep to 0
TCL: Setting parameter alchLambda to 0.9500000000000003
Info: NONBONDED TABLE R-SQUARED SPACING: 0.0625
Info: NONBONDED TABLE SIZE: 705 POINTS
TCL: Setting parameter alchLambda2 to 1.0
Info: NONBONDED TABLE R-SQUARED SPACING: 0.0625
Info: NONBONDED TABLE SIZE: 705 POINTS
TCL: Running for 1500000 steps
ETITLE: TS BOND ANGLE DIHED IMPRP ELECT VDW BOUNDARY MISC KINETIC TOTAL TEMP POTENTIAL TOTALAVG TEMPAVG PRESSURE GPRESSURE VOLUME PRESSAVG GPRESSAVG
ENERGY: 0 2.4400 3.0071 3.5675 0.0000 -10689.6645 1389.3793 0.0000 0.0000 1746.6297 -7544.6407 293.0302 -9291.2704 -7544.6407 293.0302 -389.5541 -311.5391 31065.6736 -389.5541 -311.5391
ENERGY: 300000 1.2127 5.1360 3.7932 0.0000 -10775.6284 1363.2011 0.0000 0.0000 1809.4708 -7592.8147 303.5730 -9402.2855 -7613.5400 299.0875 -815.5265 -786.2689 30926.4266 -239.8412 -168.1350
ENERGY: 600000 1.0828 4.9162 3.7561 0.0000 -10991.7395 1462.8069 0.0000 0.0000 1743.7818 -7775.3958 292.5524 -9519.1776 -7628.3938 299.0042 -164.8525 -165.5885 30720.7585 -255.6344 -204.0457
ENERGY: 900000 0.9297 4.4339 3.7978 0.0000 -10795.7583 1385.3249 0.0000 0.0000 1806.8167 -7594.4554 303.1277 -9401.2721 -7620.2870 300.2510 -437.0585 -373.0976 30824.6824 -199.1362 -149.7980
ENERGY: 1200000 1.2052 2.0366 3.8266 0.0000 -10800.9688 1470.3970 0.0000 0.0000 1757.0965 -7566.4069 294.7862 -9323.5033 -7608.3215 299.9343 -16.2651 49.1747 31716.0728 -179.3842 -130.1384
ENERGY: 1500000 0.7293 3.2416 3.9340 0.0000 -10903.7281 1456.3909 0.0000 0.0000 1772.8693 -7666.5630 297.4324 -9439.4323 -7608.4333 299.8796 -107.1524 -96.1858 30675.2801 -147.3324 -97.3029
TCL: Exiting due to exit command.
