Info: SIMULATION PARAMETERS:
Info: TIMESTEP               2
Info: NUMBER OF STEPS        0
Info: STEPS PER CYCLE        10
Info: PERIODIC CELL BASIS 1  31.1031 0 0
Info: PERIODIC CELL BASIS 2  0 30.2947 0
Info: PERIODIC CELL BASIS 3  0 0 32.1595
Info: PERIODIC CELL CENTER   0 0 0
Info: WRAPPING WATERS AROUND PERIODIC BOUNDARIES ON OUTPUT.
Info: WRAPPING ALL CLUSTERS AROUND PERIODIC BOUNDARIES ON OUTPUT.
Info: FIRST LDB TIMESTEP     50
Info: LAST LDB TIMESTEP     -1
Info: HOM BACKGROUND SCALING 1
Info: PME BACKGROUND SCALING 1
Info: MIN ATOMS PER PATCH    40
Info: EMPTY PATCH LOAD       40 ATOMS
Info: VELOCITY FILE          mobley_7768165_equil.vel
Info: CENTER OF MASS MOVING INITIALLY? NO
Info: DIELECTRIC             1
Info: EXCLUDE                SCALED ONE-FOUR
Info: 1-4 ELECTROSTATICS SCALED BY 0.833333
Info: MODIFIED 1-4 VDW PARAMETERS WILL BE USED
Info: DCD FILENAME           mobley_7768165_prod.dcd
Info: DCD FREQUENCY          100000
Info: DCD FIRST STEP         100000
Info: DCD FILE WILL CONTAIN UNIT CELL DATA
Info: XST FILENAME           mobley_7768165_prod.xst
Info: XST FREQUENCY          100000
Info: NO VELOCITY DCD OUTPUT
Info: NO FORCE DCD OUTPUT
Info: OUTPUT FILENAME        mobley_7768165_prod
Info: BINARY OUTPUT FILES WILL BE USED
Info: RESTART FILENAME       mobley_7768165_prod.restart
Info: RESTART FREQUENCY      100000
Info: BINARY RESTART FILES WILL BE USED
Info: CUTOFF                 9
Info: PAIRLIST DISTANCE      11
Info: PAIRLIST SHRINK RATE   0.01
Info: PAIRLIST GROW RATE     0.01
Info: PAIRLIST TRIGGER       0.3
Info: PAIRLISTS PER CYCLE    2
Info: PAIRLISTS ENABLED
Info: MARGIN                 2
Info: HYDROGEN GROUP CUTOFF  2.5
Info: PATCH DIMENSION        15.5
Info: ENERGY OUTPUT STEPS    100000
Info: ENERGY EVALUATION STEPS    100000
Info: OUTPUT ENERGY PRECISION 4
Info: CROSSTERM ENERGY INCLUDED IN DIHEDRAL
Info: TIMING OUTPUT STEPS    1000000
Info: PRESSURE OUTPUT STEPS  100000
Info: ALCHEMICAL FEP ON
Info: FEP CURRENT LAMBDA VALUE     1
Info: FEP COMPARISON LAMBDA VALUE  0.95
Info: FEP INTRA-ALCHEMICAL NON-BONDED INTERACTIONS WILL BE RETAINED
Info: FEP INTRA-ALCHEMICAL BONDED INTERACTIONS WILL BE RETAINED
Info: FEP VDW SHIFTING COEFFICIENT 5
Info: FEP ELEC. ACTIVE FOR ANNIHILATED PARTICLES BETWEEN LAMBDA = 0 AND LAMBDA = 0.5
Info: FEP ELEC. ACTIVE FOR EXNIHILATED PARTICLES BETWEEN LAMBDA = 0.5 AND LAMBDA = 1
Info: FEP VDW ACTIVE FOR ANNIHILATED PARTICLES BETWEEN LAMBDA = 0 AND LAMBDA = 1
Info: FEP VDW ACTIVE FOR EXNIHILATED PARTICLES BETWEEN LAMBDA = 0 AND LAMBDA = 1
Info: FEP BOND ACTIVE FOR ANNIHILATED PARTICLES BETWEEN LAMBDA = 1 AND LAMBDA = 1
Info: FEP BOND ACTIVE FOR EXNIHILATED PARTICLES BETWEEN LAMBDA = 0 AND LAMBDA = 0
Info: LANGEVIN DYNAMICS ACTIVE
Info: LANGEVIN TEMPERATURE   300
Info: LANGEVIN USING BBK INTEGRATOR
Info: LANGEVIN DAMPING COEFFICIENT IS 1 INVERSE PS
Info: LANGEVIN DYNAMICS APPLIED TO HYDROGENS
Info: LANGEVIN PISTON PRESSURE CONTROL ACTIVE
Info:        TARGET PRESSURE IS 1.01325 BAR
Info:     OSCILLATION PERIOD IS 50 FS
Info:             DECAY TIME IS 25 FS
Info:     PISTON TEMPERATURE IS 300 K
Info:       PRESSURE CONTROL IS GROUP-BASED
Info:    INITIAL STRAIN RATE IS 0.000717074 0.000717074 0.000717074
Info:       CELL FLUCTUATION IS ISOTROPIC
Info: PARTICLE MESH EWALD (PME) ACTIVE
Info: PME TOLERANCE               1e-06
Info: PME EWALD COEFFICIENT       0.348832
Info: PME INTERPOLATION ORDER     4
Info: PME GRID DIMENSIONS         32 32 36
Info: PME MAXIMUM GRID SPACING    1
Info: PME CALCULATION WILL BE PERFORMED ON GPU
Info: FULL ELECTROSTATIC EVALUATION FREQUENCY      2
Info: USING VERLET I (r-RESPA) MTS SCHEME.
Info: C1 SPLITTING OF LONG RANGE ELECTROSTATICS
Info: PLACING ATOMS IN PATCHES BY HYDROGEN GROUPS
Info: RIGID BONDS TO HYDROGEN : ALL
Info:         ERROR TOLERANCE : 1e-08
Info:          MAX ITERATIONS : 100
Info: RIGID WATER USING SETTLE ALGORITHM
Info: RANDOM NUMBER SEED     1743672861
Info: USE HYDROGEN BONDS?    NO
Info: Using AMBER format force field!
Info: AMBER PARM FILE        mobley_7768165.prmtop
Info: COORDINATE PDB         mobley_7768165.pdb
Info: Exclusions will be read from PARM file!
Info: SCNB (VDW SCALING)     2
Info: USING ARITHMETIC MEAN TO COMBINE L-J SIGMA PARAMETERS
Info: BINARY COORDINATES     mobley_7768165_equil.coor
Info: SUMMARY OF PARAMETERS:
Info: 6 BONDS
Info: 6 ANGLES
Info:   6 HARMONIC
Info:   0 COSINE-BASED
Info: 4 DIHEDRAL
Info: 0 IMPROPER
Info: 0 CROSSTERM
Info: 0 VDW
Info: 21 VDW_PAIRS
Info: 0 NBTHOLE_PAIRS
Info: To read alchdata from file: mobley_7768165.pdb
Info: To read alchflag data from column: 5
Info: STRUCTURE SUMMARY:
Info: 2909 ATOMS
Info: 2908 BONDS
Info: 12 ANGLES
Info: 13 DIHEDRALS
Info: 0 IMPROPERS
Info: 0 CROSSTERMS
Info: 2929 EXCLUSIONS
Info: 2905 RIGID BONDS
Info: ALCH: 0 ATOMS TO DISAPPEAR IN FINAL STATE
Info: ALCH: 8 ATOMS TO APPEAR IN FINAL STATE
Info: 5822 DEGREES OF FREEDOM
Info: 971 HYDROGEN GROUPS
Info: 3 ATOMS IN LARGEST HYDROGEN GROUP
Info: 971 MIGRATION GROUPS
Info: 3 ATOMS IN LARGEST MIGRATION GROUP
Info: TOTAL MASS = 17564.9 amu
Info: TOTAL CHARGE = -0.000100011 e
Info: MASS DENSITY = 0.962554 g/cm^3
Info: ATOM DENSITY = 0.0959985 atoms/A^3
Info: ADDED 0 IMPLICIT EXCLUSIONS
Info: NONBONDED TABLE R-SQUARED SPACING: 0.0625
Info: NONBONDED TABLE SIZE: 705 POINTS
Info: REMOVING COM VELOCITY -0.182854 -0.1884 -0.169591
Info: Use 3D box decompostion in PME FFT.
Info: Updated CUDA force table with 4096 elements.
Info: Updated CUDA LJ table with 6 x 6 elements.
Info: Found 11 unique exclusion lists needing 16 bytes
TCL: Running for 1500000 steps
ETITLE: TS BOND ANGLE DIHED IMPRP ELECT VDW BOUNDARY MISC KINETIC TOTAL TEMP POTENTIAL TOTALAVG TEMPAVG PRESSURE GPRESSURE VOLUME PRESSAVG GPRESSAVG
ENERGY: 0 0.4972 2.7935 1.1838 0.0000 -10513.9444 1340.4872 0.0000 0.0000 1739.2916 -7429.6910 300.6703 -9168.9826 -7429.6910 300.6703 -783.4971 -698.4999 30302.5570 -783.4971 -698.4999
ENERGY: 300000 0.3596 1.0275 1.9065 0.0000 -10689.7547 1421.7867 0.0000 0.0000 1797.4917 -7467.1827 310.7314 -9264.6743 -7409.0603 303.4524 -81.9340 -61.3279 29657.0787 -10.2544 24.7956
ENERGY: 600000 0.9761 2.5907 2.5054 0.0000 -10680.7831 1465.4691 0.0000 0.0000 1759.0789 -7450.1629 304.0910 -9209.2418 -7402.4560 300.3396 144.7976 213.2999 29936.8112 -66.7094 -20.7582
ENERGY: 900000 1.3639 3.5499 2.3500 0.0000 -10425.3347 1423.2635 0.0000 0.0000 1721.5193 -7273.2881 297.5980 -8994.8074 -7402.0526 298.4922 441.2319 482.4991 30040.8223 -71.6836 -25.7485
ENERGY: 1200000 0.9224 3.9478 1.5071 0.0000 -10589.0560 1410.8150 0.0000 0.0000 1727.0498 -7444.8139 298.5541 -9171.8637 -7411.3410 298.0577 -159.6395 -47.2220 29993.5094 -146.6355 -97.1566
ENERGY: 1500000 0.8111 3.1778 1.8257 0.0000 -10472.7750 1400.2625 0.0000 0.0000 1720.4876 -7346.2102 297.4197 -9066.6978 -7397.1258 298.0617 14.9580 58.0609 30198.3757 -163.3065 -115.5571
TCL: Running FEP window   2: Lambda1 0.95   Lambda2 0.8999999999999999 [dLambda -0.050000000000000044]
TCL: Setting parameter firsttimestep to 0
TCL: Setting parameter alchLambda to 0.95
Info: NONBONDED TABLE R-SQUARED SPACING: 0.0625
Info: NONBONDED TABLE SIZE: 705 POINTS
TCL: Setting parameter alchLambda2 to 0.8999999999999999
Info: NONBONDED TABLE R-SQUARED SPACING: 0.0625
Info: NONBONDED TABLE SIZE: 705 POINTS
TCL: Running for 1500000 steps
ETITLE: TS BOND ANGLE DIHED IMPRP ELECT VDW BOUNDARY MISC KINETIC TOTAL TEMP POTENTIAL TOTALAVG TEMPAVG PRESSURE GPRESSURE VOLUME PRESSAVG GPRESSAVG
ENERGY: 0 0.8111 3.1778 1.8257 0.0000 -10472.4289 1400.3904 0.0000 0.0000 1719.6326 -7346.5911 297.2719 -9066.2237 -7346.5911 297.2719 -38.2356 51.6546 30198.3757 -38.2356 51.6546
ENERGY: 300000 0.4336 2.5511 1.3543 0.0000 -10742.1310 1553.8106 0.0000 0.0000 1697.0896 -7486.8919 293.3749 -9183.9815 -7416.4088 293.3137 884.5644 958.6877 29711.7110 47.2879 119.9253
ENERGY: 600000 0.2070 4.6158 2.0698 0.0000 -10654.6155 1456.2776 0.0000 0.0000 1690.1712 -7501.2742 292.1789 -9191.4454 -7446.5633 295.1215 23.4805 61.4587 30120.6918 39.7738 117.2903
ENERGY: 900000 0.4726 5.4518 1.3321 0.0000 -10483.4457 1350.4189 0.0000 0.0000 1774.5705 -7351.1998 306.7690 -9125.7703 -7423.1116 297.3861 -580.9775 -518.4833 30467.4589 -2.4804 72.9926
ENERGY: 1200000 0.2394 5.4552 1.3011 0.0000 -10542.5494 1405.0952 0.0000 0.0000 1721.2701 -7409.1885 297.5550 -9130.4586 -7404.5900 298.3074 -71.7339 -63.2927 30132.1080 -42.8759 25.2452
ENERGY: 1500000 0.9142 1.1785 1.2717 0.0000 -10471.8408 1375.1830 0.0000 0.0000 1787.9854 -7305.3080 309.0880 -9093.2934 -7401.2934 299.0906 -114.8899 -14.5283 30232.0178 -51.8072 18.3153
TCL: Running FEP window   3: Lambda1 0.8999999999999999 Lambda2 0.8499999999999999 [dLambda -0.050000000000000044]
TCL: Setting parameter firsttimestep to 0
TCL: Setting parameter alchLambda to 0.8999999999999999
Info: NONBONDED TABLE R-SQUARED SPACING: 0.0625
Info: NONBONDED TABLE SIZE: 705 POINTS
TCL: Setting parameter alchLambda2 to 0.8499999999999999
Info: NONBONDED TABLE R-SQUARED SPACING: 0.0625
Info: NONBONDED TABLE SIZE: 705 POINTS
TCL: Running for 1500000 steps
ETITLE: TS BOND ANGLE DIHED IMPRP ELECT VDW BOUNDARY MISC KINETIC TOTAL TEMP POTENTIAL TOTALAVG TEMPAVG PRESSURE GPRESSURE VOLUME PRESSAVG GPRESSAVG
ENERGY: 0 0.9142 1.1785 1.2717 0.0000 -10471.5527 1375.6045 0.0000 0.0000 1787.1286 -7305.4552 308.9399 -9092.5838 -7305.4552 308.9399 -105.7991 -16.4476 30232.0178 -105.7991 -16.4476
ENERGY: 300000 0.8859 2.7794 2.4963 0.0000 -10475.2927 1363.7263 0.0000 0.0000 1726.0067 -7379.3982 298.3738 -9105.4049 -7372.3453 301.6607 -542.4985 -472.1620 30369.5515 -127.8861 -48.6447
ENERGY: 600000 1.1314 4.6449 2.5507 0.0000 -10527.5392 1384.8792 0.0000 0.0000 1722.4710 -7411.8621 297.7626 -9134.3330 -7394.7292 300.8523 -304.5735 -255.6488 30160.2755 -92.4303 -22.9353
ENERGY: 900000 0.8411 3.9994 2.7823 0.0000 -10600.5594 1462.3106 0.0000 0.0000 1706.5606 -7424.0654 295.0121 -9130.6260 -7391.4713 300.1658 489.0454 580.8037 29778.4514 -86.0878 -14.4256
ENERGY: 1200000 1.1196 2.7017 1.1992 0.0000 -10517.8866 1346.7042 0.0000 0.0000 1770.8927 -7395.2692 306.1332 -9166.1619 -7393.6198 300.5705 -408.2953 -320.5732 29809.0474 -110.8822 -39.1880
ENERGY: 1500000 0.5106 4.5046 2.2435 0.0000 -10510.5123 1371.3710 0.0000 0.0000 1695.3978 -7436.4847 293.0824 -9131.8825 -7390.6635 300.3408 -387.3473 -322.5587 29820.6177 -161.6825 -89.9248
TCL: Running FEP window   4: Lambda1 0.8499999999999999 Lambda2 0.7999999999999998 [dLambda -0.050000000000000044]
TCL: Setting parameter firsttimestep to 0
TCL: Setting parameter alchLambda to 0.8499999999999999
Info: NONBONDED TABLE R-SQUARED SPACING: 0.0625
Info: NONBONDED TABLE SIZE: 705 POINTS
TCL: Setting parameter alchLambda2 to 0.7999999999999998
Info: NONBONDED TABLE R-SQUARED SPACING: 0.0625
Info: NONBONDED TABLE SIZE: 705 POINTS
TCL: Running for 1500000 steps
ETITLE: TS BOND ANGLE DIHED IMPRP ELECT VDW BOUNDARY MISC KINETIC TOTAL TEMP POTENTIAL TOTALAVG TEMPAVG PRESSURE GPRESSURE VOLUME PRESSAVG GPRESSAVG
ENERGY: 0 0.5106 4.5046 2.2435 0.0000 -10510.0707 1371.0524 0.0000 0.0000 1694.5492 -7437.2103 292.9357 -9131.7595 -7437.2103 292.9357 -423.2552 -332.8451 29820.6177 -423.2552 -332.8451
ENERGY: 300000 5.0893 2.7637 2.3660 0.0000 -10433.6809 1317.2026 0.0000 0.0000 1747.6271 -7358.6321 302.1113 -9106.2592 -7398.1826 298.4793 -797.7061 -724.4317 30237.5324 -316.0441 -234.7979
ENERGY: 600000 1.4139 2.7000 1.7197 0.0000 -10518.4028 1377.0468 0.0000 0.0000 1768.2067 -7367.3157 305.6689 -9135.5224 -7380.9878 303.3550 -233.0290 -187.8115 30002.7544 -225.3088 -145.3073
ENERGY: 900000 2.1391 4.3213 1.2507 0.0000 -10439.2992 1353.0409 0.0000 0.0000 1714.4370 -7364.1101 296.3737 -9078.5471 -7377.5291 301.8560 -559.9287 -507.5991 30503.1719 -288.8591 -213.8014
ENERGY: 1200000 0.6188 2.5072 1.3718 0.0000 -10490.1471 1382.8528 0.0000 0.0000 1676.2361 -7426.5604 289.7700 -9102.7965 -7384.2154 300.4963 -67.4227 30.0983 29752.3900 -236.0223 -167.2008
ENERGY: 1500000 0.8566 3.9326 1.3215 0.0000 -10674.0511 1436.4504 0.0000 0.0000 1812.2716 -7419.2185 313.2864 -9231.4901 -7386.5690 301.0189 -95.3447 -17.1692 29916.3722 -143.7631 -70.8864
TCL: Running FEP window   5: Lambda1 0.7999999999999998 Lambda2 0.7499999999999998 [dLambda -0.050000000000000044]
TCL: Setting parameter firsttimestep to 0
TCL: Setting parameter alchLambda to 0.7999999999999998
Info: NONBONDED TABLE R-SQUARED SPACING: 0.0625
Info: NONBONDED TABLE SIZE: 705 POINTS
TCL: Setting parameter alchLambda2 to 0.7499999999999998
Info: NONBONDED TABLE R-SQUARED SPACING: 0.0625
Info: NONBONDED TABLE SIZE: 705 POINTS
TCL: Running for 1500000 steps
ETITLE: TS BOND ANGLE DIHED IMPRP ELECT VDW BOUNDARY MISC KINETIC TOTAL TEMP POTENTIAL TOTALAVG TEMPAVG PRESSURE GPRESSURE VOLUME PRESSAVG GPRESSAVG
ENERGY: 0 0.8566 3.9326 1.3215 0.0000 -10673.3762 1436.2925 0.0000 0.0000 1811.4000 -7419.5731 313.1357 -9230.9731 -7419.5731 313.1357 -112.2059 -24.1015 29916.3722 -112.2059 -24.1015
ENERGY: 300000 0.0599 2.9163 2.6034 0.0000 -10588.3615 1481.8439 0.0000 0.0000 1732.7646 -7368.1734 299.5420 -9100.9380 -7390.9265 305.4111 624.2139 738.8023 29863.2996 85.8940 168.6995
ENERGY: 600000 0.5216 5.7521 1.8017 0.0000 -10511.0250 1399.4375 0.0000 0.0000 1715.8763 -7387.6359 296.6225 -9103.5122 -7392.6129 301.5363 -311.5465 -193.3388 30385.1362 94.5454 168.1616
ENERGY: 900000 1.0521 2.6614 1.7226 0.0000 -10536.8055 1409.0115 0.0000 0.0000 1770.7082 -7351.6496 306.1013 -9122.3579 -7381.5363 301.0932 76.6516 152.1689 29841.4186 99.5184 169.7115
ENERGY: 1200000 1.0470 1.5677 2.1923 0.0000 -10535.6853 1424.2954 0.0000 0.0000 1678.8521 -7427.7309 290.2222 -9106.5830 -7383.0962 300.6259 -163.0555 -130.6751 30297.3193 76.7081 142.0365
ENERGY: 1500000 1.6789 3.0634 2.5343 0.0000 -10490.0859 1402.7322 0.0000 0.0000 1685.9176 -7394.1595 291.4436 -9080.0771 -7385.0853 300.0535 -83.6718 -4.4868 30142.7193 126.1482 186.6784
TCL: Running FEP window   6: Lambda1 0.7499999999999998 Lambda2 0.6999999999999997 [dLambda -0.050000000000000044]
TCL: Setting parameter firsttimestep to 0
TCL: Setting parameter alchLambda to 0.7499999999999998
Info: NONBONDED TABLE R-SQUARED SPACING: 0.0625
Info: NONBONDED TABLE SIZE: 705 POINTS
TCL: Setting parameter alchLambda2 to 0.6999999999999997
Info: NONBONDED TABLE R-SQUARED SPACING: 0.0625
Info: NONBONDED TABLE SIZE: 705 POINTS
TCL: Running for 1500000 steps
ETITLE: TS BOND ANGLE DIHED IMPRP ELECT VDW BOUNDARY MISC KINETIC TOTAL TEMP POTENTIAL TOTALAVG TEMPAVG PRESSURE GPRESSURE VOLUME PRESSAVG GPRESSAVG
ENERGY: 0 1.6789 3.0634 2.5343 0.0000 -10489.9393 1402.0369 0.0000 0.0000 1685.0752 -7395.5506 291.2980 -9080.6258 -7395.5506 291.2980 -101.1895 -19.5983 30142.7193 -101.1895 -19.5983
ENERGY: 300000 0.3351 5.7892 1.5771 0.0000 -10678.6136 1502.4320 0.0000 0.0000 1779.8428 -7388.6376 307.6804 -9168.4803 -7390.7036 298.1833 527.4966 562.7161 30101.6214 -65.7380 -15.2487
ENERGY: 600000 0.7027 3.7855 2.5349 0.0000 -10496.2461 1372.6361 0.0000 0.0000 1732.6817 -7383.9053 299.5277 -9116.5869 -7397.7263 299.5185 -207.2362 -184.4505 29939.4442 4.2048 50.5801
ENERGY: 900000 2.1913 1.8223 1.1880 0.0000 -10327.1830 1234.2342 0.0000 0.0000 1757.7379 -7330.0092 303.8591 -9087.7471 -7389.3654 300.2788 -1437.6180 -1419.7352 30536.9440 -253.8807 -207.4174
ENERGY: 1200000 1.8429 1.6707 3.1829 0.0000 -10612.4465 1490.3103 0.0000 0.0000 1735.3768 -7380.0629 299.9936 -9115.4397 -7394.3190 299.8089 713.6313 671.5399 29992.8696 -199.6117 -161.8234
ENERGY: 1500000 1.7341 1.6940 2.6898 0.0000 -10652.8566 1447.2518 0.0000 0.0000 1780.9777 -7418.5092 307.8766 -9199.4869 -7395.2621 301.4158 330.9755 380.6076 29494.8956 -95.3604 -52.5014
TCL: Running FEP window   7: Lambda1 0.6999999999999997 Lambda2 0.6499999999999997 [dLambda -0.050000000000000044]
TCL: Setting parameter firsttimestep to 0
TCL: Setting parameter alchLambda to 0.6999999999999997
Info: NONBONDED TABLE R-SQUARED SPACING: 0.0625
Info: NONBONDED TABLE SIZE: 705 POINTS
TCL: Setting parameter alchLambda2 to 0.6499999999999997
Info: NONBONDED TABLE R-SQUARED SPACING: 0.0625
Info: NONBONDED TABLE SIZE: 705 POINTS
TCL: Running for 1500000 steps
ETITLE: TS BOND ANGLE DIHED IMPRP ELECT VDW BOUNDARY MISC KINETIC TOTAL TEMP POTENTIAL TOTALAVG TEMPAVG PRESSURE GPRESSURE VOLUME PRESSAVG GPRESSAVG
ENERGY: 0 1.7341 1.6940 2.6898 0.0000 -10652.5093 1447.3028 0.0000 0.0000 1780.1281 -7418.9604 307.7297 -9199.0885 -7418.9604 307.7297 292.1883 375.6818 29494.8956 292.1883 375.6818
ENERGY: 300000 0.3271 6.9939 2.0404 0.0000 -10537.5976 1372.0454 0.0000 0.0000 1760.0484 -7396.1424 304.2585 -9156.1908 -7390.5029 303.5425 -416.9133 -399.0952 30119.7457 -184.2824 -120.6066
ENERGY: 600000 0.3367 4.7117 3.0095 0.0000 -10397.5350 1289.1313 0.0000 0.0000 1707.0471 -7393.2989 295.0962 -9100.3459 -7372.7378 301.7963 -1041.2869 -905.1011 30173.0919 -359.5892 -281.7754
ENERGY: 900000 1.8465 4.4842 3.0842 0.0000 -10598.4233 1426.3211 0.0000 0.0000 1720.7723 -7441.9151 297.4689 -9162.6874 -7379.9858 300.6286 -416.0219 -268.4096 30173.6720 -280.9994 -196.8579
ENERGY: 1200000 1.2578 2.5261 1.4172 0.0000 -10532.4680 1378.9897 0.0000 0.0000 1752.0817 -7396.1955 302.8814 -9148.2772 -7393.9029 299.4727 -475.1522 -393.0494 30425.6243 -174.8020 -97.2439
ENERGY: 1500000 1.3316 3.2388 1.2054 0.0000 -10532.1191 1358.8835 0.0000 0.0000 1745.2841 -7422.1758 301.7063 -9167.4599 -7398.9766 299.3762 -618.1196 -504.5390 29843.5605 -169.2149 -89.5906
TCL: Running FEP window   8: Lambda1 0.6499999999999997 Lambda2 0.5999999999999996 [dLambda -0.050000000000000044]
TCL: Setting parameter firsttimestep to 0
TCL: Setting parameter alchLambda to 0.6499999999999997
Info: NONBONDED TABLE R-SQUARED SPACING: 0.0625
Info: NONBONDED TABLE SIZE: 705 POINTS
TCL: Setting parameter alchLambda2 to 0.5999999999999996
Info: NONBONDED TABLE R-SQUARED SPACING: 0.0625
Info: NONBONDED TABLE SIZE: 705 POINTS
TCL: Running for 1500000 steps
ETITLE: TS BOND ANGLE DIHED IMPRP ELECT VDW BOUNDARY MISC KINETIC TOTAL TEMP POTENTIAL TOTALAVG TEMPAVG PRESSURE GPRESSURE VOLUME PRESSAVG GPRESSAVG
ENERGY: 0 1.3316 3.2388 1.2054 0.0000 -10532.2958 1359.2010 0.0000 0.0000 1744.4186 -7422.9005 301.5566 -9167.3191 -7422.9005 301.5566 -591.1522 -510.3345 29843.5605 -591.1522 -510.3345
ENERGY: 300000 1.0896 2.2697 2.7164 0.0000 -10608.3081 1415.9678 0.0000 0.0000 1787.7167 -7398.5479 309.0416 -9186.2646 -7375.9248 303.4662 -283.0649 -235.4747 30092.0394 -140.1123 -80.6520
ENERGY: 600000 1.3744 2.4752 2.4951 0.0000 -10656.8213 1503.8419 0.0000 0.0000 1744.6695 -7401.9652 301.6000 -9146.6347 -7391.8901 301.3938 743.3028 759.7471 29832.8313 6.1684 58.2942
ENERGY: 900000 2.3175 2.6271 2.5373 0.0000 -10409.1924 1356.5257 0.0000 0.0000 1723.5241 -7321.6605 297.9446 -9045.1847 -7371.2379 302.8444 -316.4719 -229.2675 30202.3108 -65.1138 2.5138
ENERGY: 1200000 2.1012 5.4049 2.4625 0.0000 -10552.4640 1376.2131 0.0000 0.0000 1705.0420 -7461.2404 294.7496 -9166.2824 -7368.9026 303.3394 -592.5837 -512.2903 30245.6372 -83.0566 -9.6793
ENERGY: 1500000 0.0866 4.2116 2.3447 0.0000 -10556.2605 1375.0715 0.0000 0.0000 1729.4770 -7445.0691 298.9737 -9174.5461 -7370.2647 302.4214 -339.4214 -279.9914 29729.2027 -102.8993 -25.7609
TCL: Running FEP window   9: Lambda1 0.5999999999999996 Lambda2 0.5499999999999996 [dLambda -0.050000000000000044]
TCL: Setting parameter firsttimestep to 0
TCL: Setting parameter alchLambda to 0.5999999999999996
Info: NONBONDED TABLE R-SQUARED SPACING: 0.0625
Info: NONBONDED TABLE SIZE: 705 POINTS
TCL: Setting parameter alchLambda2 to 0.5499999999999996
Info: NONBONDED TABLE R-SQUARED SPACING: 0.0625
Info: NONBONDED TABLE SIZE: 705 POINTS
TCL: Running for 1500000 steps
ETITLE: TS BOND ANGLE DIHED IMPRP ELECT VDW BOUNDARY MISC KINETIC TOTAL TEMP POTENTIAL TOTALAVG TEMPAVG PRESSURE GPRESSURE VOLUME PRESSAVG GPRESSAVG
ENERGY: 0 0.0866 4.2116 2.3447 0.0000 -10556.2043 1374.8071 0.0000 0.0000 1728.6512 -7446.1030 298.8309 -9174.7543 -7446.1030 298.8309 -367.4743 -290.2102 29729.2027 -367.4743 -290.2102
ENERGY: 300000 0.7881 3.5389 2.8921 0.0000 -10536.6686 1352.5900 0.0000 0.0000 1789.7679 -7387.0916 309.3961 -9176.8595 -7408.9387 303.7469 -738.1298 -633.8098 30171.3540 -127.0503 -59.0206
ENERGY: 600000 0.7214 4.5471 3.0450 0.0000 -10653.7946 1462.3142 0.0000 0.0000 1716.7121 -7466.4548 296.7670 -9183.1669 -7439.2020 300.2590 319.3905 355.0974 29586.8274 67.6539 131.1322
ENERGY: 900000 0.3903 3.6806 1.3067 0.0000 -10595.8919 1457.2567 0.0000 0.0000 1763.4333 -7369.8243 304.8437 -9133.2576 -7425.8197 301.1886 208.2407 284.0523 30191.4435 -5.5002 53.1903
ENERGY: 1200000 0.4268 3.5901 2.5318 0.0000 -10523.5442 1337.0531 0.0000 0.0000 1738.8550 -7441.0874 300.5949 -9179.9424 -7423.1392 300.9955 -412.9867 -435.2167 29322.9895 -116.8864 -63.4342
ENERGY: 1500000 0.5496 2.0606 1.9091 0.0000 -10535.8187 1427.0406 0.0000 0.0000 1741.8183 -7362.4404 301.1071 -9104.2587 -7412.9778 301.6490 -4.3027 33.3902 30339.2965 -43.0559 10.3954
TCL: Running FEP window  10: Lambda1 0.5499999999999996 Lambda2 0.4999999999999996 [dLambda -0.04999999999999999]
TCL: Setting parameter firsttimestep to 0
TCL: Setting parameter alchLambda to 0.5499999999999996
Info: NONBONDED TABLE R-SQUARED SPACING: 0.0625
Info: NONBONDED TABLE SIZE: 705 POINTS
TCL: Setting parameter alchLambda2 to 0.4999999999999996
Info: NONBONDED TABLE R-SQUARED SPACING: 0.0625
Info: NONBONDED TABLE SIZE: 705 POINTS
TCL: Running for 1500000 steps
ETITLE: TS BOND ANGLE DIHED IMPRP ELECT VDW BOUNDARY MISC KINETIC TOTAL TEMP POTENTIAL TOTALAVG TEMPAVG PRESSURE GPRESSURE VOLUME PRESSAVG GPRESSAVG
ENERGY: 0 0.5497 2.0606 1.9091 0.0000 -10535.4430 1427.2162 0.0000 0.0000 1740.9528 -7362.7547 300.9575 -9103.7075 -7362.7547 300.9575 -49.8005 32.4529 30339.2965 -49.8005 32.4529
ENERGY: 300000 1.0402 4.3835 3.0044 0.0000 -10585.2668 1394.5107 0.0000 0.0000 1762.6223 -7419.7058 304.7035 -9182.3280 -7411.9714 300.5628 -416.2254 -327.7035 30163.2272 -189.4589 -128.6370
ENERGY: 600000 0.3138 2.7429 2.4949 0.0000 -10681.7621 1541.4127 0.0000 0.0000 1750.4305 -7384.3673 302.5959 -9134.7978 -7404.6910 300.1735 1156.2314 1176.6830 29835.7078 27.2342 81.8959
ENERGY: 900000 0.1987 3.5736 2.4933 0.0000 -10662.4171 1474.6515 0.0000 0.0000 1739.4495 -7442.0505 300.6976 -9181.5000 -7414.2428 299.0934 105.2978 58.7805 30357.7960 -5.8514 37.7011
ENERGY: 1200000 0.2075 3.1705 3.3076 0.0000 -10527.5504 1352.8013 0.0000 0.0000 1768.1264 -7399.9371 305.6550 -9168.0634 -7410.3488 299.9874 -386.8451 -351.7296 29625.5344 -31.9397 12.7741
ENERGY: 1500000 3.0321 3.2830 2.4790 0.0000 -10580.5918 1404.4073 0.0000 0.0000 1731.4896 -7435.9009 299.3216 -9167.3905 -7408.0948 300.3601 -273.1371 -242.0285 29985.0602 -41.0977 4.8863
TCL: Running FEP window  11: Lambda1 0.4999999999999996 Lambda2 0.4499999999999996 [dLambda -0.04999999999999999]
TCL: Setting parameter firsttimestep to 0
TCL: Setting parameter alchLambda to 0.4999999999999996
Info: NONBONDED TABLE R-SQUARED SPACING: 0.0625
Info: NONBONDED TABLE SIZE: 705 POINTS
TCL: Setting parameter alchLambda2 to 0.4499999999999996
Info: NONBONDED TABLE R-SQUARED SPACING: 0.0625
Info: NONBONDED TABLE SIZE: 705 POINTS
TCL: Running for 1500000 steps
ETITLE: TS BOND ANGLE DIHED IMPRP ELECT VDW BOUNDARY MISC KINETIC TOTAL TEMP POTENTIAL TOTALAVG TEMPAVG PRESSURE GPRESSURE VOLUME PRESSAVG GPRESSAVG
ENERGY: 0 3.0321 3.2830 2.4790 0.0000 -10580.3477 1404.6513 0.0000 0.0000 1730.6005 -7436.3018 299.1679 -9166.9024 -7436.3018 299.1679 -327.8395 -245.3226 29985.0602 -327.8395 -245.3226
ENERGY: 300000 2.4978 2.4612 2.4198 0.0000 -10576.9689 1400.3125 0.0000 0.0000 1777.7539 -7391.5237 307.3193 -9169.2776 -7434.8756 301.4770 -91.2633 -71.3475 29617.1688 -156.8884 -96.1426
ENERGY: 600000 1.2191 3.3121 2.8538 0.0000 -10416.0056 1296.7788 0.0000 0.0000 1720.6158 -7391.2259 297.4419 -9111.8418 -7397.9840 301.6075 -1144.9280 -1128.5225 30493.1625 40.3219 95.4744
ENERGY: 900000 0.4073 2.9786 1.3092 0.0000 -10542.9543 1397.9331 0.0000 0.0000 1741.3389 -7398.9871 301.0243 -9140.3260 -7395.4313 301.4138 -559.5638 -518.1729 30532.0994 -72.7994 -18.4125
ENERGY: 1200000 1.1724 2.8007 1.1464 0.0000 -10469.9161 1362.8909 0.0000 0.0000 1733.1118 -7368.7939 299.6020 -9101.9057 -7400.4815 300.3532 -606.6202 -532.6466 30414.5782 -129.0099 -76.2915
ENERGY: 1500000 0.0336 2.7096 2.5064 0.0000 -10600.8046 1421.2039 0.0000 0.0000 1685.9954 -7488.3557 291.4571 -9174.3511 -7409.2255 300.5020 -322.8283 -251.9768 30090.2073 -73.8310 -23.1448
TCL: Running FEP window  12: Lambda1 0.4499999999999996 Lambda2 0.39999999999999963 [dLambda -0.04999999999999999]
TCL: Setting parameter firsttimestep to 0
TCL: Setting parameter alchLambda to 0.4499999999999996
Info: NONBONDED TABLE R-SQUARED SPACING: 0.0625
Info: NONBONDED TABLE SIZE: 705 POINTS
TCL: Setting parameter alchLambda2 to 0.39999999999999963
Info: NONBONDED TABLE R-SQUARED SPACING: 0.0625
Info: NONBONDED TABLE SIZE: 705 POINTS
TCL: Running for 1500000 steps
ETITLE: TS BOND ANGLE DIHED IMPRP ELECT VDW BOUNDARY MISC KINETIC TOTAL TEMP POTENTIAL TOTALAVG TEMPAVG PRESSURE GPRESSURE VOLUME PRESSAVG GPRESSAVG
ENERGY: 0 0.0336 2.7096 2.5064 0.0000 -10600.8043 1421.1255 0.0000 0.0000 1685.1169 -7489.3122 291.3052 -9174.4291 -7489.3122 291.3052 -333.1783 -260.1550 30090.2073 -333.1783 -260.1550
ENERGY: 300000 1.6639 4.1923 1.3156 0.0000 -10575.0220 1399.5510 0.0000 0.0000 1747.8611 -7420.4381 302.1517 -9168.2992 -7446.7919 298.7424 -269.5013 -154.2479 30047.0868 -518.2302 -435.0825
ENERGY: 600000 0.6504 3.4726 2.0969 0.0000 -10501.1931 1386.1064 0.0000 0.0000 1740.2189 -7368.6479 300.8306 -9108.8669 -7413.1950 299.3782 -203.9647 -112.5220 29869.9494 -362.3710 -281.5684
ENERGY: 900000 1.0529 1.5461 3.4831 0.0000 -10595.6239 1416.5432 0.0000 0.0000 1725.4881 -7447.5104 298.2841 -9172.9985 -7422.6878 299.3332 -52.7988 -33.7516 29689.8757 -199.3247 -141.0887
ENERGY: 1200000 0.5357 3.1554 2.6298 0.0000 -10639.2745 1454.9408 0.0000 0.0000 1689.1793 -7488.8335 292.0075 -9178.0129 -7428.7539 297.5777 76.0164 158.3227 29870.0780 -154.6949 -94.2854
ENERGY: 1500000 1.4589 2.6994 2.7718 0.0000 -10589.1747 1431.0330 0.0000 0.0000 1667.3320 -7483.8796 288.2307 -9151.2116 -7430.1120 297.7264 -76.5510 -40.0812 30026.9269 -66.5809 -5.4884
TCL: Running FEP window  13: Lambda1 0.39999999999999963 Lambda2 0.34999999999999964 [dLambda -0.04999999999999999]
TCL: Setting parameter firsttimestep to 0
TCL: Setting parameter alchLambda to 0.39999999999999963
Info: NONBONDED TABLE R-SQUARED SPACING: 0.0625
Info: NONBONDED TABLE SIZE: 705 POINTS
TCL: Setting parameter alchLambda2 to 0.34999999999999964
Info: NONBONDED TABLE R-SQUARED SPACING: 0.0625
Info: NONBONDED TABLE SIZE: 705 POINTS
TCL: Running for 1500000 steps
ETITLE: TS BOND ANGLE DIHED IMPRP ELECT VDW BOUNDARY MISC KINETIC TOTAL TEMP POTENTIAL TOTALAVG TEMPAVG PRESSURE GPRESSURE VOLUME PRESSAVG GPRESSAVG
ENERGY: 0 1.4589 2.6994 2.7718 0.0000 -10589.1733 1431.0035 0.0000 0.0000 1666.4935 -7484.7462 288.0858 -9151.2397 -7484.7462 288.0858 -135.4285 -46.0396 30026.9269 -135.4285 -46.0396
ENERGY: 300000 0.7766 5.6842 1.2773 0.0000 -10568.3301 1381.0060 0.0000 0.0000 1722.8708 -7456.7151 297.8317 -9179.5859 -7457.8973 295.8200 -612.3424 -532.4905 30018.0635 -244.9632 -159.0820
ENERGY: 600000 0.7355 2.2242 2.8041 0.0000 -10485.4203 1372.9548 0.0000 0.0000 1714.3088 -7392.3930 296.3516 -9106.7018 -7420.5825 297.5196 -374.1723 -375.4704 29867.9385 -204.2812 -145.2176
ENERGY: 900000 1.9298 2.3511 1.8846 0.0000 -10494.6784 1413.9003 0.0000 0.0000 1739.0762 -7335.5364 300.6331 -9074.6126 -7401.3233 298.7319 -67.8102 37.1127 30010.2087 -318.5870 -254.6677
ENERGY: 1200000 1.6377 2.1693 2.3447 0.0000 -10672.4021 1473.3942 0.0000 0.0000 1723.2838 -7469.5724 297.9031 -9192.8562 -7410.6942 297.9473 420.9394 464.9054 29499.2327 -185.3002 -123.3061
ENERGY: 1500000 0.4626 2.4208 1.3340 0.0000 -10517.3805 1413.2947 0.0000 0.0000 1747.0545 -7352.8139 302.0123 -9099.8684 -7411.0505 299.2075 -278.8788 -177.8760 30414.0457 -228.7482 -165.2803
TCL: Running FEP window  14: Lambda1 0.34999999999999964 Lambda2 0.29999999999999966 [dLambda -0.04999999999999999]
TCL: Setting parameter firsttimestep to 0
TCL: Setting parameter alchLambda to 0.34999999999999964
Info: NONBONDED TABLE R-SQUARED SPACING: 0.0625
Info: NONBONDED TABLE SIZE: 705 POINTS
TCL: Setting parameter alchLambda2 to 0.29999999999999966
Info: NONBONDED TABLE R-SQUARED SPACING: 0.0625
Info: NONBONDED TABLE SIZE: 705 POINTS
TCL: Running for 1500000 steps
ETITLE: TS BOND ANGLE DIHED IMPRP ELECT VDW BOUNDARY MISC KINETIC TOTAL TEMP POTENTIAL TOTALAVG TEMPAVG PRESSURE GPRESSURE VOLUME PRESSAVG GPRESSAVG
ENERGY: 0 0.4626 2.4208 1.3340 0.0000 -10517.3800 1413.5206 0.0000 0.0000 1746.1766 -7353.4653 301.8605 -9099.6420 -7353.4653 301.8605 -265.6115 -179.1977 30414.0457 -265.6115 -179.1977
ENERGY: 300000 0.4154 1.1802 2.8792 0.0000 -10623.6018 1440.7178 0.0000 0.0000 1757.5683 -7420.8409 303.8298 -9178.4093 -7371.3018 300.4111 0.4543 76.2616 29660.0759 -180.3188 -96.6620
ENERGY: 600000 0.3256 2.3723 2.5574 0.0000 -10615.0575 1449.8305 0.0000 0.0000 1760.9951 -7398.9766 304.4222 -9159.9717 -7384.0063 300.8084 238.6431 279.5678 29722.4914 35.4729 107.2674
ENERGY: 900000 0.5586 1.5858 2.5255 0.0000 -10387.8876 1310.3151 0.0000 0.0000 1688.5738 -7384.3289 291.9028 -9072.9026 -7375.9704 298.8072 -663.8122 -605.8002 29865.6386 -114.8992 -50.4100
ENERGY: 1200000 0.7503 3.7463 2.4674 0.0000 -10490.2579 1415.3004 0.0000 0.0000 1775.3374 -7292.6560 306.9016 -9067.9935 -7379.2428 300.4212 -138.6217 -69.1249 30470.2469 -93.7102 -26.9639
ENERGY: 1500000 6.1724 3.3053 1.3134 0.0000 -10547.0559 1443.9935 0.0000 0.0000 1785.3878 -7306.8834 308.6390 -9092.2712 -7375.5997 301.0167 82.8136 97.5481 30318.3141 -96.1156 -35.7622
TCL: Running FEP window  15: Lambda1 0.29999999999999966 Lambda2 0.24999999999999967 [dLambda -0.04999999999999999]
TCL: Setting parameter firsttimestep to 0
TCL: Setting parameter alchLambda to 0.29999999999999966
Info: NONBONDED TABLE R-SQUARED SPACING: 0.0625
Info: NONBONDED TABLE SIZE: 705 POINTS
TCL: Setting parameter alchLambda2 to 0.24999999999999967
Info: NONBONDED TABLE R-SQUARED SPACING: 0.0625
Info: NONBONDED TABLE SIZE: 705 POINTS
TCL: Running for 1500000 steps
ETITLE: TS BOND ANGLE DIHED IMPRP ELECT VDW BOUNDARY MISC KINETIC TOTAL TEMP POTENTIAL TOTALAVG TEMPAVG PRESSURE GPRESSURE VOLUME PRESSAVG GPRESSAVG
ENERGY: 0 6.1724 3.3053 1.3134 0.0000 -10547.0574 1444.2502 0.0000 0.0000 1784.5284 -7307.4876 308.4904 -9092.0161 -7307.4876 308.4904 22.6968 94.1247 30318.3141 22.6968 94.1247
ENERGY: 300000 0.5795 4.1757 2.9737 0.0000 -10577.4542 1395.8790 0.0000 0.0000 1762.4723 -7411.3739 304.6776 -9173.8463 -7392.2158 302.0211 -416.2489 -340.0651 30141.3091 116.3098 170.8127
ENERGY: 600000 0.4373 4.0830 2.7560 0.0000 -10541.1625 1434.0671 0.0000 0.0000 1714.0406 -7385.7785 296.3052 -9099.8191 -7409.7068 299.7883 110.4580 213.0472 29996.8181 161.5839 230.4242
ENERGY: 900000 0.4300 1.5584 1.3397 0.0000 -10581.8241 1427.2462 0.0000 0.0000 1734.6637 -7416.5862 299.8703 -9151.2498 -7419.4186 299.1043 -14.5068 89.1209 30131.4998 14.5781 89.6321
ENERGY: 1200000 0.4383 3.2342 2.4097 0.0000 -10545.0677 1438.3119 0.0000 0.0000 1702.1304 -7398.5432 294.2463 -9100.6736 -7409.1985 298.9169 132.4669 182.0501 29964.2824 -7.3803 67.0062
ENERGY: 1500000 0.5202 2.8380 2.4593 0.0000 -10674.9565 1470.0488 0.0000 0.0000 1813.6100 -7385.4802 313.5177 -9199.0902 -7413.1486 299.2610 328.0302 332.3894 29772.4154 -12.3487 48.4611
TCL: Running FEP window  16: Lambda1 0.24999999999999967 Lambda2 0.19999999999999968 [dLambda -0.04999999999999999]
TCL: Setting parameter firsttimestep to 0
TCL: Setting parameter alchLambda to 0.24999999999999967
Info: NONBONDED TABLE R-SQUARED SPACING: 0.0625
Info: NONBONDED TABLE SIZE: 705 POINTS
TCL: Setting parameter alchLambda2 to 0.19999999999999968
Info: NONBONDED TABLE R-SQUARED SPACING: 0.0625
Info: NONBONDED TABLE SIZE: 705 POINTS
TCL: Running for 1500000 steps
ETITLE: TS BOND ANGLE DIHED IMPRP ELECT VDW BOUNDARY MISC KINETIC TOTAL TEMP POTENTIAL TOTALAVG TEMPAVG PRESSURE GPRESSURE VOLUME PRESSAVG GPRESSAVG
ENERGY: 0 0.5202 2.8380 2.4593 0.0000 -10674.9564 1470.3632 0.0000 0.0000 1812.7367 -7386.0390 313.3668 -9198.7758 -7386.0390 313.3668 253.6391 333.3654 29772.4154 253.6391 333.3654
ENERGY: 300000 0.9572 5.8787 1.5840 0.0000 -10607.7566 1414.6136 0.0000 0.0000 1713.3550 -7471.3681 296.1867 -9184.7230 -7433.2583 303.6370 -161.6351 -87.8293 29567.0614 -310.6672 -232.9210
ENERGY: 600000 2.5503 1.6013 2.5219 0.0000 -10343.4544 1293.0188 0.0000 0.0000 1750.5450 -7293.2171 302.6157 -9043.7621 -7394.0717 303.6179 -903.8625 -784.7160 30282.9942 -314.1376 -235.5753
ENERGY: 900000 0.3829 4.4898 2.7913 0.0000 -10530.8822 1425.4417 0.0000 0.0000 1730.9395 -7366.8371 299.2265 -9097.7766 -7388.8261 303.6236 -60.7491 12.5840 30016.7700 -189.3652 -115.6970
ENERGY: 1200000 1.0536 3.8525 2.3474 0.0000 -10514.5726 1411.4201 0.0000 0.0000 1704.8097 -7391.0893 294.7095 -9095.8989 -7385.0844 303.3569 112.7484 113.9594 29675.6795 -105.5658 -37.8327
ENERGY: 1500000 1.0544 3.0437 2.6633 0.0000 -10568.6284 1435.4037 0.0000 0.0000 1699.8283 -7426.6349 293.8483 -9126.4633 -7383.4763 302.9836 -83.4920 8.3818 30210.1356 -95.6757 -23.6250
TCL: Running FEP window  17: Lambda1 0.19999999999999968 Lambda2 0.1499999999999997 [dLambda -0.04999999999999999]
TCL: Setting parameter firsttimestep to 0
TCL: Setting parameter alchLambda to 0.19999999999999968
Info: NONBONDED TABLE R-SQUARED SPACING: 0.0625
Info: NONBONDED TABLE SIZE: 705 POINTS
TCL: Setting parameter alchLambda2 to 0.1499999999999997
Info: NONBONDED TABLE R-SQUARED SPACING: 0.0625
Info: NONBONDED TABLE SIZE: 705 POINTS
TCL: Running for 1500000 steps
ETITLE: TS BOND ANGLE DIHED IMPRP ELECT VDW BOUNDARY MISC KINETIC TOTAL TEMP POTENTIAL TOTALAVG TEMPAVG PRESSURE GPRESSURE VOLUME PRESSAVG GPRESSAVG
ENERGY: 0 1.0544 3.0437 2.6633 0.0000 -10568.6287 1435.5059 0.0000 0.0000 1698.9795 -7427.3819 293.7016 -9126.3614 -7427.3819 293.7016 -86.6092 5.9242 30210.1356 -86.6092 5.9242
ENERGY: 300000 1.1312 3.3735 1.3605 0.0000 -10461.0429 1372.4642 0.0000 0.0000 1720.9594 -7361.7540 297.5013 -9082.7133 -7404.4045 296.7759 -375.9237 -281.6639 29901.0408 -161.9486 -86.7737
ENERGY: 600000 0.5115 4.4632 2.5846 0.0000 -10567.3421 1384.1352 0.0000 0.0000 1766.6100 -7409.0376 305.3929 -9175.6476 -7404.0950 297.8025 -495.7152 -359.3003 29698.0636 -197.6460 -123.7115
ENERGY: 900000 0.3757 2.0039 2.6555 0.0000 -10544.0618 1348.3174 0.0000 0.0000 1677.9549 -7512.7545 290.0671 -9190.7094 -7426.1220 296.7250 -808.5443 -853.4970 30037.2019 -235.6654 -188.9161
ENERGY: 1200000 0.1299 2.7432 2.9014 0.0000 -10606.7431 1478.9590 0.0000 0.0000 1756.0578 -7365.9519 303.5687 -9122.0097 -7409.8366 298.2872 733.0285 809.7185 29523.6680 -112.9896 -60.2700
ENERGY: 1500000 0.0364 5.7614 2.3926 0.0000 -10573.9242 1488.1890 0.0000 0.0000 1782.2577 -7295.2871 308.0979 -9077.5448 -7397.8830 299.7766 441.6029 580.0429 30145.9495 -24.5273 36.8563
TCL: Running FEP window  18: Lambda1 0.1499999999999997 Lambda2 0.09999999999999969 [dLambda -0.05 ]
TCL: Setting parameter firsttimestep to 0
TCL: Setting parameter alchLambda to 0.1499999999999997
Info: NONBONDED TABLE R-SQUARED SPACING: 0.0625
Info: NONBONDED TABLE SIZE: 705 POINTS
TCL: Setting parameter alchLambda2 to 0.09999999999999969
Info: NONBONDED TABLE R-SQUARED SPACING: 0.0625
Info: NONBONDED TABLE SIZE: 705 POINTS
TCL: Running for 1500000 steps
ETITLE: TS BOND ANGLE DIHED IMPRP ELECT VDW BOUNDARY MISC KINETIC TOTAL TEMP POTENTIAL TOTALAVG TEMPAVG PRESSURE GPRESSURE VOLUME PRESSAVG GPRESSAVG
ENERGY: 0 0.0364 5.7614 2.3926 0.0000 -10573.9249 1488.5591 0.0000 0.0000 1781.3985 -7295.7769 307.9493 -9077.1754 -7295.7769 307.9493 497.2138 579.8794 30145.9495 497.2138 579.8794
ENERGY: 300000 0.3722 3.9975 2.4651 0.0000 -10515.7667 1368.3948 0.0000 0.0000 1701.1600 -7439.3770 294.0786 -9140.5371 -7406.0475 300.1584 -626.7055 -547.8448 29937.4699 -445.0455 -394.4828
ENERGY: 600000 0.1897 6.0614 3.0099 0.0000 -10704.2901 1459.1306 0.0000 0.0000 1743.2532 -7492.6453 301.3552 -9235.8984 -7412.3319 301.2975 230.2485 241.3312 29289.1952 -188.2375 -128.7117
ENERGY: 900000 0.6002 4.6533 2.4712 0.0000 -10619.9923 1440.4537 0.0000 0.0000 1793.1599 -7378.6540 309.9825 -9171.8139 -7398.0943 301.2928 0.7903 29.5466 29956.4844 -44.8109 5.2975
ENERGY: 1200000 0.4787 1.2998 2.5772 0.0000 -10672.9976 1501.3169 0.0000 0.0000 1811.6013 -7355.7236 313.1705 -9167.3250 -7393.5821 302.1324 649.1435 688.8094 29588.8063 42.2465 92.5912
ENERGY: 1500000 1.5156 3.0714 1.9686 0.0000 -10501.8201 1402.8968 0.0000 0.0000 1794.3700 -7297.9977 310.1917 -9092.3677 -7388.1587 302.8003 89.9814 186.8019 29855.2492 98.8360 155.3360
TCL: Running FEP window  19: Lambda1 0.09999999999999969 Lambda2 0.049999999999999684 [dLambda -0.05 ]
TCL: Setting parameter firsttimestep to 0
TCL: Setting parameter alchLambda to 0.09999999999999969
Info: NONBONDED TABLE R-SQUARED SPACING: 0.0625
Info: NONBONDED TABLE SIZE: 705 POINTS
TCL: Setting parameter alchLambda2 to 0.049999999999999684
Info: NONBONDED TABLE R-SQUARED SPACING: 0.0625
Info: NONBONDED TABLE SIZE: 705 POINTS
TCL: Running for 1500000 steps
ETITLE: TS BOND ANGLE DIHED IMPRP ELECT VDW BOUNDARY MISC KINETIC TOTAL TEMP POTENTIAL TOTALAVG TEMPAVG PRESSURE GPRESSURE VOLUME PRESSAVG GPRESSAVG
ENERGY: 0 1.5156 3.0714 1.9686 0.0000 -10501.8201 1402.1049 0.0000 0.0000 1793.5148 -7299.6448 310.0439 -9093.1596 -7299.6448 310.0439 101.3825 179.2092 29855.2492 101.3825 179.2092
ENERGY: 300000 0.1669 3.3144 1.8039 0.0000 -10585.8926 1424.9830 0.0000 0.0000 1697.8925 -7457.7319 293.5137 -9155.6244 -7439.1944 299.5662 -17.9729 -7.6343 29671.4789 -225.4107 -171.5989
ENERGY: 600000 0.9220 4.4096 1.5632 0.0000 -10677.0762 1496.9379 0.0000 0.0000 1708.3624 -7464.8811 295.3236 -9173.2435 -7432.3605 298.9502 622.3047 649.7738 29342.1005 37.4897 92.3427
ENERGY: 900000 0.2360 2.9053 1.8271 0.0000 -10523.7902 1379.0036 0.0000 0.0000 1760.6044 -7379.2138 304.3547 -9139.8182 -7426.4526 300.1117 -537.6739 -427.9469 30239.4620 -5.9928 55.6661
ENERGY: 1200000 0.6729 1.8190 2.3813 0.0000 -10640.0098 1442.9497 0.0000 0.0000 1662.8307 -7529.3562 287.4526 -9192.1869 -7431.1795 299.7192 149.9283 231.6375 29546.0975 -99.0138 -41.7583
ENERGY: 1500000 0.8654 2.7500 2.4743 0.0000 -10559.2000 1484.1935 0.0000 0.0000 1716.5609 -7352.3560 296.7409 -9068.9169 -7424.5066 299.4818 910.3046 944.3276 29628.1027 -27.6795 29.2766
TCL: Running FEP window  20: Lambda1 0.049999999999999684 Lambda2 0.0    [dLambda -0.049999999999999684]
TCL: Setting parameter firsttimestep to 0
TCL: Setting parameter alchLambda to 0.049999999999999684
Info: NONBONDED TABLE R-SQUARED SPACING: 0.0625
Info: NONBONDED TABLE SIZE: 705 POINTS
TCL: Setting parameter alchLambda2 to 0.0
Info: NONBONDED TABLE R-SQUARED SPACING: 0.0625
Info: NONBONDED TABLE SIZE: 705 POINTS
TCL: Running for 1500000 steps
ETITLE: TS BOND ANGLE DIHED IMPRP ELECT VDW BOUNDARY MISC KINETIC TOTAL TEMP POTENTIAL TOTALAVG TEMPAVG PRESSURE GPRESSURE VOLUME PRESSAVG GPRESSAVG
ENERGY: 0 0.8654 2.7500 2.4743 0.0000 -10559.1998 1483.7603 0.0000 0.0000 1715.6602 -7353.6896 296.5852 -9069.3499 -7353.6896 296.5852 862.1753 939.8961 29628.1027 862.1753 939.8961
ENERGY: 300000 1.4069 4.2521 2.5839 0.0000 -10625.6762 1485.8923 0.0000 0.0000 1741.9401 -7389.6009 301.1282 -9131.5410 -7376.8764 299.3235 569.1612 675.7226 29735.9439 398.1471 473.4818
ENERGY: 600000 1.7685 2.4417 1.2683 0.0000 -10574.6898 1442.2750 0.0000 0.0000 1795.1610 -7331.7753 310.3284 -9126.9363 -7367.7660 301.7591 56.4922 94.3845 30196.9719 232.3380 281.7974
ENERGY: 900000 0.5970 1.2402 2.0598 0.0000 -10607.3379 1455.3163 0.0000 0.0000 1803.5857 -7344.5389 311.7848 -9148.1246 -7376.1739 301.7933 188.3778 226.2496 29908.9636 -4.3949 51.7612
ENERGY: 1200000 0.2344 5.0830 1.7358 0.0000 -10533.1323 1379.8081 0.0000 0.0000 1786.3964 -7359.8746 308.8133 -9146.2710 -7373.7959 301.7253 -256.0740 -134.6302 29690.0428 35.1689 105.1656
ENERGY: 1500000 1.9326 2.0995 2.4390 0.0000 -10585.4395 1496.3212 0.0000 0.0000 1766.6833 -7315.9638 305.4055 -9082.6471 -7374.2636 301.4268 775.2478 774.8894 30232.2714 95.0361 149.2535
TCL: Exiting due to exit command.
