Info: SIMULATION PARAMETERS:
Info: TIMESTEP               2
Info: NUMBER OF STEPS        0
Info: STEPS PER CYCLE        10
Info: PERIODIC CELL BASIS 1  31.6844 0 0
Info: PERIODIC CELL BASIS 2  0 31.1617 0
Info: PERIODIC CELL BASIS 3  0 0 30.5184
Info: PERIODIC CELL CENTER   0 0 0
Info: WRAPPING WATERS AROUND PERIODIC BOUNDARIES ON OUTPUT.
Info: WRAPPING ALL CLUSTERS AROUND PERIODIC BOUNDARIES ON OUTPUT.
Info: FIRST LDB TIMESTEP     50
Info: LAST LDB TIMESTEP     -1
Info: HOM BACKGROUND SCALING 1
Info: PME BACKGROUND SCALING 1
Info: MIN ATOMS PER PATCH    40
Info: EMPTY PATCH LOAD       40 ATOMS
Info: VELOCITY FILE          mobley_4639255_equil.vel
Info: CENTER OF MASS MOVING INITIALLY? NO
Info: DIELECTRIC             1
Info: EXCLUDE                SCALED ONE-FOUR
Info: 1-4 ELECTROSTATICS SCALED BY 0.833333
Info: MODIFIED 1-4 VDW PARAMETERS WILL BE USED
Info: DCD FILENAME           mobley_4639255_prod.dcd
Info: DCD FREQUENCY          100000
Info: DCD FIRST STEP         100000
Info: DCD FILE WILL CONTAIN UNIT CELL DATA
Info: XST FILENAME           mobley_4639255_prod.xst
Info: XST FREQUENCY          100000
Info: NO VELOCITY DCD OUTPUT
Info: NO FORCE DCD OUTPUT
Info: OUTPUT FILENAME        mobley_4639255_prod
Info: BINARY OUTPUT FILES WILL BE USED
Info: RESTART FILENAME       mobley_4639255_prod.restart
Info: RESTART FREQUENCY      100000
Info: BINARY RESTART FILES WILL BE USED
Info: CUTOFF                 9
Info: PAIRLIST DISTANCE      11
Info: PAIRLIST SHRINK RATE   0.01
Info: PAIRLIST GROW RATE     0.01
Info: PAIRLIST TRIGGER       0.3
Info: PAIRLISTS PER CYCLE    2
Info: PAIRLISTS ENABLED
Info: MARGIN                 2
Info: HYDROGEN GROUP CUTOFF  2.5
Info: PATCH DIMENSION        15.5
Info: ENERGY OUTPUT STEPS    100000
Info: ENERGY EVALUATION STEPS    100000
Info: OUTPUT ENERGY PRECISION 4
Info: CROSSTERM ENERGY INCLUDED IN DIHEDRAL
Info: TIMING OUTPUT STEPS    1000000
Info: PRESSURE OUTPUT STEPS  100000
Info: ALCHEMICAL FEP ON
Info: FEP CURRENT LAMBDA VALUE     1
Info: FEP COMPARISON LAMBDA VALUE  0.95
Info: FEP INTRA-ALCHEMICAL NON-BONDED INTERACTIONS WILL BE RETAINED
Info: FEP INTRA-ALCHEMICAL BONDED INTERACTIONS WILL BE RETAINED
Info: FEP VDW SHIFTING COEFFICIENT 5
Info: FEP ELEC. ACTIVE FOR ANNIHILATED PARTICLES BETWEEN LAMBDA = 0 AND LAMBDA = 0.5
Info: FEP ELEC. ACTIVE FOR EXNIHILATED PARTICLES BETWEEN LAMBDA = 0.5 AND LAMBDA = 1
Info: FEP VDW ACTIVE FOR ANNIHILATED PARTICLES BETWEEN LAMBDA = 0 AND LAMBDA = 1
Info: FEP VDW ACTIVE FOR EXNIHILATED PARTICLES BETWEEN LAMBDA = 0 AND LAMBDA = 1
Info: FEP BOND ACTIVE FOR ANNIHILATED PARTICLES BETWEEN LAMBDA = 1 AND LAMBDA = 1
Info: FEP BOND ACTIVE FOR EXNIHILATED PARTICLES BETWEEN LAMBDA = 0 AND LAMBDA = 0
Info: LANGEVIN DYNAMICS ACTIVE
Info: LANGEVIN TEMPERATURE   300
Info: LANGEVIN USING BBK INTEGRATOR
Info: LANGEVIN DAMPING COEFFICIENT IS 1 INVERSE PS
Info: LANGEVIN DYNAMICS APPLIED TO HYDROGENS
Info: LANGEVIN PISTON PRESSURE CONTROL ACTIVE
Info:        TARGET PRESSURE IS 1.01325 BAR
Info:     OSCILLATION PERIOD IS 50 FS
Info:             DECAY TIME IS 25 FS
Info:     PISTON TEMPERATURE IS 300 K
Info:       PRESSURE CONTROL IS GROUP-BASED
Info:    INITIAL STRAIN RATE IS 0.000401079 0.000401079 0.000401079
Info:       CELL FLUCTUATION IS ISOTROPIC
Info: PARTICLE MESH EWALD (PME) ACTIVE
Info: PME TOLERANCE               1e-06
Info: PME EWALD COEFFICIENT       0.348832
Info: PME INTERPOLATION ORDER     4
Info: PME GRID DIMENSIONS         32 32 32
Info: PME MAXIMUM GRID SPACING    1
Info: PME CALCULATION WILL BE PERFORMED ON GPU
Info: FULL ELECTROSTATIC EVALUATION FREQUENCY      2
Info: USING VERLET I (r-RESPA) MTS SCHEME.
Info: C1 SPLITTING OF LONG RANGE ELECTROSTATICS
Info: PLACING ATOMS IN PATCHES BY HYDROGEN GROUPS
Info: RIGID BONDS TO HYDROGEN : ALL
Info:         ERROR TOLERANCE : 1e-08
Info:          MAX ITERATIONS : 100
Info: RIGID WATER USING SETTLE ALGORITHM
Info: RANDOM NUMBER SEED     1743675579
Info: USE HYDROGEN BONDS?    NO
Info: Using AMBER format force field!
Info: AMBER PARM FILE        mobley_4639255.prmtop
Info: COORDINATE PDB         mobley_4639255.pdb
Info: Exclusions will be read from PARM file!
Info: SCNB (VDW SCALING)     2
Info: USING ARITHMETIC MEAN TO COMBINE L-J SIGMA PARAMETERS
Info: BINARY COORDINATES     mobley_4639255_equil.coor
Info: SUMMARY OF PARAMETERS:
Info: 6 BONDS
Info: 5 ANGLES
Info:   5 HARMONIC
Info:   0 COSINE-BASED
Info: 7 DIHEDRAL
Info: 0 IMPROPER
Info: 0 CROSSTERM
Info: 0 VDW
Info: 15 VDW_PAIRS
Info: 0 NBTHOLE_PAIRS
Info: To read alchdata from file: mobley_4639255.pdb
Info: To read alchflag data from column: 5
Info: STRUCTURE SUMMARY:
Info: 2923 ATOMS
Info: 2922 BONDS
Info: 14 ANGLES
Info: 22 DIHEDRALS
Info: 0 IMPROPERS
Info: 0 CROSSTERMS
Info: 2951 EXCLUSIONS
Info: 2919 RIGID BONDS
Info: ALCH: 0 ATOMS TO DISAPPEAR IN FINAL STATE
Info: ALCH: 10 ATOMS TO APPEAR IN FINAL STATE
Info: 5850 DEGREES OF FREEDOM
Info: 975 HYDROGEN GROUPS
Info: 3 ATOMS IN LARGEST HYDROGEN GROUP
Info: 975 MIGRATION GROUPS
Info: 3 ATOMS IN LARGEST MIGRATION GROUP
Info: TOTAL MASS = 17555.6 amu
Info: TOTAL CHARGE = -0.000199959 e
Info: MASS DENSITY = 0.967492 g/cm^3
Info: ATOM DENSITY = 0.0970065 atoms/A^3
Info: ADDED 0 IMPLICIT EXCLUSIONS
Info: NONBONDED TABLE R-SQUARED SPACING: 0.0625
Info: NONBONDED TABLE SIZE: 705 POINTS
Info: REDUCING NUMBER OF PATCHES TO IMPROVE LOAD BALANCE
Info: REMOVING COM VELOCITY 0.040099 0.0555211 -0.148964
Info: Use 3D box decompostion in PME FFT.
Info: Updated CUDA force table with 4096 elements.
Info: Updated CUDA LJ table with 5 x 5 elements.
Info: Found 13 unique exclusion lists needing 20 bytes
TCL: Running for 1500000 steps
ETITLE: TS BOND ANGLE DIHED IMPRP ELECT VDW BOUNDARY MISC KINETIC TOTAL TEMP POTENTIAL TOTALAVG TEMPAVG PRESSURE GPRESSURE VOLUME PRESSAVG GPRESSAVG
ENERGY: 0 0.9068 2.4940 2.2137 0.0000 -10639.9956 1437.2109 0.0000 0.0000 1724.6088 -7472.5615 296.7052 -9197.1702 -7472.5615 296.7052 -80.1625 -2.9159 30131.9885 -80.1625 -2.9159
ENERGY: 300000 0.2791 1.3025 2.4441 0.0000 -10705.4387 1452.6572 0.0000 0.0000 1767.9592 -7480.7966 304.1633 -9248.7558 -7441.5365 299.5630 9.2647 68.5155 30036.5811 -319.9752 -254.0444
ENERGY: 600000 0.4396 4.1514 2.8217 0.0000 -10652.6597 1490.3685 0.0000 0.0000 1742.2592 -7412.6193 299.7418 -9154.8785 -7432.1593 302.0000 410.6391 472.5885 30069.4791 -190.1203 -120.7948
ENERGY: 900000 1.2494 2.3883 4.6625 0.0000 -10639.2376 1449.7428 0.0000 0.0000 1757.1172 -7424.0772 302.2980 -9181.1944 -7432.2308 300.9028 383.2807 464.5583 29654.6222 -116.6418 -46.3909
ENERGY: 1200000 0.8905 2.6261 2.6547 0.0000 -10728.2161 1477.4724 0.0000 0.0000 1700.5607 -7544.0118 292.5679 -9244.5724 -7441.4092 300.2289 259.5672 293.9715 29793.0382 -119.8911 -52.6186
ENERGY: 1500000 1.3672 2.8185 2.9605 0.0000 -10667.7214 1507.6142 0.0000 0.0000 1797.8592 -7355.1017 309.3073 -9152.9609 -7427.3178 300.9106 489.7283 620.7977 30518.6914 -123.4649 -58.3775
TCL: Running FEP window   2: Lambda1 0.95   Lambda2 0.8999999999999999 [dLambda -0.050000000000000044]
TCL: Setting parameter firsttimestep to 0
TCL: Setting parameter alchLambda to 0.95
Info: NONBONDED TABLE R-SQUARED SPACING: 0.0625
Info: NONBONDED TABLE SIZE: 705 POINTS
TCL: Setting parameter alchLambda2 to 0.8999999999999999
Info: NONBONDED TABLE R-SQUARED SPACING: 0.0625
Info: NONBONDED TABLE SIZE: 705 POINTS
TCL: Running for 1500000 steps
ETITLE: TS BOND ANGLE DIHED IMPRP ELECT VDW BOUNDARY MISC KINETIC TOTAL TEMP POTENTIAL TOTALAVG TEMPAVG PRESSURE GPRESSURE VOLUME PRESSAVG GPRESSAVG
ENERGY: 0 1.3672 2.8185 2.9605 0.0000 -10664.5486 1506.5368 0.0000 0.0000 1796.9886 -7353.8770 309.1575 -9150.8656 -7353.8770 309.1575 522.1918 612.0426 30518.6914 522.1918 612.0426
ENERGY: 300000 0.1850 4.0842 3.4458 0.0000 -10588.7780 1451.4610 0.0000 0.0000 1729.3886 -7400.2133 297.5275 -9129.6019 -7390.8521 303.1097 110.8699 224.7145 30202.4154 140.7302 231.8516
ENERGY: 600000 2.1842 3.6656 2.3920 0.0000 -10531.9118 1396.0615 0.0000 0.0000 1711.5072 -7416.1012 294.4512 -9127.6085 -7408.8462 299.8381 -326.6204 -237.1728 30385.4049 105.8172 179.4951
ENERGY: 900000 0.2699 4.9793 1.9442 0.0000 -10722.0268 1462.9657 0.0000 0.0000 1827.8252 -7424.0425 314.4627 -9251.8676 -7421.8970 301.8514 87.9002 203.6825 29806.4480 90.9330 167.3667
ENERGY: 1200000 1.8708 2.6935 2.7588 0.0000 -10526.7254 1376.3399 0.0000 0.0000 1786.4952 -7356.5671 307.3522 -9143.0623 -7418.9908 301.7397 -811.0360 -717.2731 30979.9085 -25.5896 52.3060
ENERGY: 1500000 1.2168 3.0368 2.0157 0.0000 -10676.8600 1503.0607 0.0000 0.0000 1811.7943 -7355.7357 311.7047 -9167.5299 -7410.4602 302.5231 784.1890 941.8583 29916.2170 12.5408 102.9487
TCL: Running FEP window   3: Lambda1 0.8999999999999999 Lambda2 0.8499999999999999 [dLambda -0.050000000000000044]
TCL: Setting parameter firsttimestep to 0
TCL: Setting parameter alchLambda to 0.8999999999999999
Info: NONBONDED TABLE R-SQUARED SPACING: 0.0625
Info: NONBONDED TABLE SIZE: 705 POINTS
TCL: Setting parameter alchLambda2 to 0.8499999999999999
Info: NONBONDED TABLE R-SQUARED SPACING: 0.0625
Info: NONBONDED TABLE SIZE: 705 POINTS
TCL: Running for 1500000 steps
ETITLE: TS BOND ANGLE DIHED IMPRP ELECT VDW BOUNDARY MISC KINETIC TOTAL TEMP POTENTIAL TOTALAVG TEMPAVG PRESSURE GPRESSURE VOLUME PRESSAVG GPRESSAVG
ENERGY: 0 1.2168 3.0368 2.0157 0.0000 -10674.9578 1501.9722 0.0000 0.0000 1810.9477 -7355.7685 311.5591 -9166.7162 -7355.7685 311.5591 841.8439 925.3447 29916.2170 841.8439 925.3447
ENERGY: 300000 0.0850 3.0084 2.0819 0.0000 -10588.9573 1432.0018 0.0000 0.0000 1731.9285 -7419.8517 297.9645 -9151.7802 -7411.4281 299.7747 -7.9396 80.3651 30327.7008 158.1459 205.8697
ENERGY: 600000 1.1460 2.5134 2.4046 0.0000 -10558.7646 1398.2951 0.0000 0.0000 1755.9083 -7398.4972 302.0900 -9154.4055 -7420.8355 298.7638 -123.4203 -27.0908 30152.2150 -9.7974 57.4331
ENERGY: 900000 0.6691 4.3750 2.5447 0.0000 -10512.3745 1392.7268 0.0000 0.0000 1745.1054 -7366.9536 300.2314 -9112.0590 -7415.0663 298.6763 -199.6000 -179.6630 30038.3042 -3.6109 55.3324
ENERGY: 1200000 1.8541 2.5920 2.7916 0.0000 -10629.5821 1417.9601 0.0000 0.0000 1737.1342 -7467.2501 298.8601 -9204.3843 -7409.1439 299.3188 -270.7591 -168.0799 29855.0472 -38.5158 23.0095
ENERGY: 1500000 0.7887 2.7187 2.0997 0.0000 -10556.3173 1367.2190 0.0000 0.0000 1755.7883 -7427.7029 302.0694 -9183.4912 -7422.5949 298.9175 -647.8929 -595.5379 30290.9060 -68.7240 -6.5671
TCL: Running FEP window   4: Lambda1 0.8499999999999999 Lambda2 0.7999999999999998 [dLambda -0.050000000000000044]
TCL: Setting parameter firsttimestep to 0
TCL: Setting parameter alchLambda to 0.8499999999999999
Info: NONBONDED TABLE R-SQUARED SPACING: 0.0625
Info: NONBONDED TABLE SIZE: 705 POINTS
TCL: Setting parameter alchLambda2 to 0.7999999999999998
Info: NONBONDED TABLE R-SQUARED SPACING: 0.0625
Info: NONBONDED TABLE SIZE: 705 POINTS
TCL: Running for 1500000 steps
ETITLE: TS BOND ANGLE DIHED IMPRP ELECT VDW BOUNDARY MISC KINETIC TOTAL TEMP POTENTIAL TOTALAVG TEMPAVG PRESSURE GPRESSURE VOLUME PRESSAVG GPRESSAVG
ENERGY: 0 0.7887 2.7187 2.0997 0.0000 -10553.5648 1365.6917 0.0000 0.0000 1754.9024 -7427.3636 301.9169 -9182.2660 -7427.3636 301.9169 -700.4248 -614.8641 30290.9060 -700.4248 -614.8641
ENERGY: 300000 2.1729 3.9987 2.1780 0.0000 -10531.9995 1396.1892 0.0000 0.0000 1774.9551 -7352.5057 305.3669 -9127.4608 -7396.7325 304.6010 -220.4094 -118.6079 30410.4303 -225.3384 -119.7248
ENERGY: 600000 0.2272 1.4846 4.2349 0.0000 -10453.9617 1347.9865 0.0000 0.0000 1702.2347 -7397.7939 292.8559 -9100.0286 -7401.1608 302.4349 -584.8604 -480.6189 30272.0937 -278.6503 -182.4388
ENERGY: 900000 0.1458 1.4937 2.1298 0.0000 -10658.2402 1490.1916 0.0000 0.0000 1777.6759 -7386.6033 305.8349 -9164.2792 -7417.3977 303.3411 382.9088 426.5060 30341.6214 -57.1799 17.1071
ENERGY: 1200000 0.9405 2.5215 2.3815 0.0000 -10630.4983 1482.5699 0.0000 0.0000 1727.8373 -7414.2475 297.2606 -9142.0848 -7422.1156 302.1010 394.4259 445.9338 30153.8525 -12.3709 51.6870
ENERGY: 1500000 0.3432 1.8375 1.9576 0.0000 -10462.4948 1327.2851 0.0000 0.0000 1799.7888 -7331.2826 309.6393 -9131.0714 -7420.4379 302.4681 -891.4471 -801.4730 30600.6863 -31.1358 35.3243
TCL: Running FEP window   5: Lambda1 0.7999999999999998 Lambda2 0.7499999999999998 [dLambda -0.050000000000000044]
TCL: Setting parameter firsttimestep to 0
TCL: Setting parameter alchLambda to 0.7999999999999998
Info: NONBONDED TABLE R-SQUARED SPACING: 0.0625
Info: NONBONDED TABLE SIZE: 705 POINTS
TCL: Setting parameter alchLambda2 to 0.7499999999999998
Info: NONBONDED TABLE R-SQUARED SPACING: 0.0625
Info: NONBONDED TABLE SIZE: 705 POINTS
TCL: Running for 1500000 steps
ETITLE: TS BOND ANGLE DIHED IMPRP ELECT VDW BOUNDARY MISC KINETIC TOTAL TEMP POTENTIAL TOTALAVG TEMPAVG PRESSURE GPRESSURE VOLUME PRESSAVG GPRESSAVG
ENERGY: 0 0.3432 1.8375 1.9576 0.0000 -10460.9198 1327.0386 0.0000 0.0000 1798.9234 -7330.8195 309.4904 -9129.7429 -7330.8195 309.4904 -885.9995 -804.9806 30600.6863 -885.9995 -804.9806
ENERGY: 300000 0.4318 3.4948 2.7584 0.0000 -10401.5874 1296.3100 0.0000 0.0000 1780.7033 -7317.8892 306.3558 -9098.5924 -7384.4798 302.0836 -1117.9522 -1005.3481 30542.5881 -464.3708 -384.9863
ENERGY: 600000 0.2758 1.6766 1.6930 0.0000 -10745.3327 1552.5545 0.0000 0.0000 1711.0490 -7478.0837 294.3723 -9189.1327 -7405.7096 299.9533 874.2715 985.3859 29885.6553 -352.0361 -273.3371
ENERGY: 900000 0.7153 2.8609 3.1190 0.0000 -10677.3966 1445.1608 0.0000 0.0000 1738.1946 -7487.3460 299.0425 -9225.5406 -7416.8653 300.5089 -132.0865 -98.4048 30234.8720 -209.4860 -134.6367
ENERGY: 1200000 0.4906 7.4824 4.8212 0.0000 -10750.6057 1514.0633 0.0000 0.0000 1752.6611 -7471.0871 301.5313 -9223.7482 -7426.7070 300.2855 468.8137 539.3975 29979.1805 -209.5552 -132.9401
ENERGY: 1500000 0.8932 1.8657 2.2725 0.0000 -10667.3005 1498.0815 0.0000 0.0000 1776.5604 -7387.6273 305.6430 -9164.1877 -7432.2736 299.5553 355.2304 458.3374 30099.5505 -193.6392 -113.4411
TCL: Running FEP window   6: Lambda1 0.7499999999999998 Lambda2 0.6999999999999997 [dLambda -0.050000000000000044]
TCL: Setting parameter firsttimestep to 0
TCL: Setting parameter alchLambda to 0.7499999999999998
Info: NONBONDED TABLE R-SQUARED SPACING: 0.0625
Info: NONBONDED TABLE SIZE: 705 POINTS
TCL: Setting parameter alchLambda2 to 0.6999999999999997
Info: NONBONDED TABLE R-SQUARED SPACING: 0.0625
Info: NONBONDED TABLE SIZE: 705 POINTS
TCL: Running for 1500000 steps
ETITLE: TS BOND ANGLE DIHED IMPRP ELECT VDW BOUNDARY MISC KINETIC TOTAL TEMP POTENTIAL TOTALAVG TEMPAVG PRESSURE GPRESSURE VOLUME PRESSAVG GPRESSAVG
ENERGY: 0 0.8932 1.8657 2.2725 0.0000 -10665.1737 1497.8448 0.0000 0.0000 1775.7036 -7386.5940 305.4956 -9162.2976 -7386.5940 305.4956 373.8654 457.6383 30099.5505 373.8654 457.6383
ENERGY: 300000 0.6642 2.4156 2.4197 0.0000 -10848.3902 1558.0283 0.0000 0.0000 1760.4693 -7524.3932 302.8747 -9284.8624 -7459.7855 302.1839 674.5278 694.2705 30316.3168 364.5558 414.8469
ENERGY: 600000 0.2890 4.7104 3.4090 0.0000 -10598.6923 1440.6998 0.0000 0.0000 1735.2329 -7414.3511 298.5330 -9149.5840 -7419.1157 301.6067 -109.0141 -68.3924 30417.6940 242.6000 289.2688
ENERGY: 900000 0.2036 1.8982 2.1761 0.0000 -10666.0538 1426.5090 0.0000 0.0000 1806.3063 -7428.9606 310.7606 -9235.2668 -7412.8882 303.5315 -132.6868 -36.0061 30111.3341 205.3784 265.7953
ENERGY: 1200000 0.7693 3.6199 2.3373 0.0000 -10556.4204 1444.9253 0.0000 0.0000 1790.3014 -7314.4672 308.0071 -9104.7686 -7400.6154 303.1148 407.7884 458.0049 29886.8020 216.9330 269.2320
ENERGY: 1500000 0.3933 3.1856 2.9697 0.0000 -10535.2649 1359.7185 0.0000 0.0000 1763.2430 -7405.7547 303.3519 -9168.9978 -7407.8877 302.8005 -849.8178 -755.1265 30745.1717 85.9368 143.0707
TCL: Running FEP window   7: Lambda1 0.6999999999999997 Lambda2 0.6499999999999997 [dLambda -0.050000000000000044]
TCL: Setting parameter firsttimestep to 0
TCL: Setting parameter alchLambda to 0.6999999999999997
Info: NONBONDED TABLE R-SQUARED SPACING: 0.0625
Info: NONBONDED TABLE SIZE: 705 POINTS
TCL: Setting parameter alchLambda2 to 0.6499999999999997
Info: NONBONDED TABLE R-SQUARED SPACING: 0.0625
Info: NONBONDED TABLE SIZE: 705 POINTS
TCL: Running for 1500000 steps
ETITLE: TS BOND ANGLE DIHED IMPRP ELECT VDW BOUNDARY MISC KINETIC TOTAL TEMP POTENTIAL TOTALAVG TEMPAVG PRESSURE GPRESSURE VOLUME PRESSAVG GPRESSAVG
ENERGY: 0 0.3933 3.1856 2.9697 0.0000 -10533.0258 1358.6472 0.0000 0.0000 1762.3552 -7405.4748 303.1991 -9167.8300 -7405.4748 303.1991 -837.6679 -766.0611 30745.1717 -837.6679 -766.0611
ENERGY: 300000 1.0201 3.0563 1.8466 0.0000 -10564.3907 1391.5859 0.0000 0.0000 1781.7061 -7385.1756 306.5283 -9166.8817 -7391.3961 303.8511 -55.2860 -11.6456 29789.2665 -225.9306 -167.2684
ENERGY: 600000 0.5689 2.7964 1.6860 0.0000 -10578.3481 1401.8955 0.0000 0.0000 1717.2167 -7454.1846 295.4334 -9171.4013 -7409.7445 301.9601 -402.7858 -260.6464 30127.9991 -127.9811 -43.1734
ENERGY: 900000 1.0496 5.2983 3.5812 0.0000 -10682.1031 1448.7715 0.0000 0.0000 1726.8197 -7496.5829 297.0855 -9223.4025 -7437.6309 300.8581 -278.3772 -163.4894 30464.2987 25.8345 96.2874
ENERGY: 1200000 0.3989 4.2699 3.3360 0.0000 -10511.2214 1374.9225 0.0000 0.0000 1729.2458 -7399.0483 297.5029 -9128.2941 -7435.0075 300.5972 -335.5064 -331.4582 30242.0791 -32.8366 29.8095
ENERGY: 1500000 2.5574 3.2507 1.8194 0.0000 -10497.7476 1387.2381 0.0000 0.0000 1740.2556 -7362.6263 299.3971 -9102.8819 -7422.5138 300.5043 -253.2308 -196.1684 29946.6148 32.3701 94.8635
TCL: Running FEP window   8: Lambda1 0.6499999999999997 Lambda2 0.5999999999999996 [dLambda -0.050000000000000044]
TCL: Setting parameter firsttimestep to 0
TCL: Setting parameter alchLambda to 0.6499999999999997
Info: NONBONDED TABLE R-SQUARED SPACING: 0.0625
Info: NONBONDED TABLE SIZE: 705 POINTS
TCL: Setting parameter alchLambda2 to 0.5999999999999996
Info: NONBONDED TABLE R-SQUARED SPACING: 0.0625
Info: NONBONDED TABLE SIZE: 705 POINTS
TCL: Running for 1500000 steps
ETITLE: TS BOND ANGLE DIHED IMPRP ELECT VDW BOUNDARY MISC KINETIC TOTAL TEMP POTENTIAL TOTALAVG TEMPAVG PRESSURE GPRESSURE VOLUME PRESSAVG GPRESSAVG
ENERGY: 0 2.5574 3.2507 1.8194 0.0000 -10496.0333 1386.5243 0.0000 0.0000 1739.3806 -7362.5009 299.2465 -9101.8815 -7362.5009 299.2465 -281.3890 -202.2177 29946.6148 -281.3890 -202.2177
ENERGY: 300000 1.4851 3.2927 3.5675 0.0000 -10568.2975 1386.4869 0.0000 0.0000 1749.1924 -7424.2729 300.9346 -9173.4653 -7375.5964 302.3881 -741.7236 -635.5428 30527.4832 82.2606 149.9719
ENERGY: 600000 0.3619 2.6229 2.9273 0.0000 -10541.9166 1379.1099 0.0000 0.0000 1759.7495 -7397.1451 302.7508 -9156.8946 -7407.2581 299.6897 -538.6566 -447.3294 30297.0943 -153.8677 -82.0442
ENERGY: 900000 0.5365 4.1526 1.5812 0.0000 -10704.1440 1503.2172 0.0000 0.0000 1779.1183 -7415.5383 306.0831 -9194.6565 -7386.1978 301.1516 534.7463 576.3786 30032.5647 -117.6755 -49.2424
ENERGY: 1200000 0.2297 4.8496 2.9780 0.0000 -10570.6095 1366.8563 0.0000 0.0000 1733.9550 -7461.7409 298.3131 -9195.6960 -7405.6434 300.8860 -485.1646 -452.0515 30025.5401 -146.3739 -85.3074
ENERGY: 1500000 3.6543 5.2799 5.4181 0.0000 -10587.1219 1383.1912 0.0000 0.0000 1743.8781 -7445.7003 300.0203 -9189.5784 -7405.3869 301.3375 -611.3485 -538.3218 29956.1353 -121.2430 -62.1889
TCL: Running FEP window   9: Lambda1 0.5999999999999996 Lambda2 0.5499999999999996 [dLambda -0.050000000000000044]
TCL: Setting parameter firsttimestep to 0
TCL: Setting parameter alchLambda to 0.5999999999999996
Info: NONBONDED TABLE R-SQUARED SPACING: 0.0625
Info: NONBONDED TABLE SIZE: 705 POINTS
TCL: Setting parameter alchLambda2 to 0.5499999999999996
Info: NONBONDED TABLE R-SQUARED SPACING: 0.0625
Info: NONBONDED TABLE SIZE: 705 POINTS
TCL: Running for 1500000 steps
ETITLE: TS BOND ANGLE DIHED IMPRP ELECT VDW BOUNDARY MISC KINETIC TOTAL TEMP POTENTIAL TOTALAVG TEMPAVG PRESSURE GPRESSURE VOLUME PRESSAVG GPRESSAVG
ENERGY: 0 3.6543 5.2799 5.4181 0.0000 -10583.9309 1382.0650 0.0000 0.0000 1743.0071 -7444.5065 299.8705 -9187.5136 -7444.5065 299.8705 -625.7816 -542.8996 29956.1353 -625.7816 -542.8996
ENERGY: 300000 0.8207 4.3042 1.8391 0.0000 -10426.2366 1374.5876 0.0000 0.0000 1790.2254 -7254.4596 307.9940 -9044.6850 -7392.1733 303.7606 -296.6579 -232.7688 30675.2996 -349.7738 -282.4955
ENERGY: 600000 1.3316 3.3034 2.8423 0.0000 -10586.3043 1419.3615 0.0000 0.0000 1705.7606 -7453.7049 293.4625 -9159.4655 -7440.1073 299.4785 201.0867 185.3750 29508.4604 -249.5102 -195.9849
ENERGY: 900000 1.6805 1.2566 3.4444 0.0000 -10561.2301 1410.9428 0.0000 0.0000 1772.3573 -7371.5484 304.9199 -9143.9058 -7435.2447 298.8931 -81.7690 -20.7850 30088.6515 -144.2246 -93.6082
ENERGY: 1200000 0.8360 4.2282 2.5628 0.0000 -10548.1928 1447.1082 0.0000 0.0000 1726.4168 -7367.0409 297.0162 -9093.4577 -7425.7763 299.5479 405.5066 487.7772 29864.8416 -123.9302 -67.3700
ENERGY: 1500000 0.3404 3.0315 3.2905 0.0000 -10743.6967 1483.4148 0.0000 0.0000 1782.1277 -7471.4918 306.6008 -9253.6194 -7427.6649 299.9400 285.5278 314.9894 29964.7842 -125.1212 -69.5458
TCL: Running FEP window  10: Lambda1 0.5499999999999996 Lambda2 0.4999999999999996 [dLambda -0.04999999999999999]
TCL: Setting parameter firsttimestep to 0
TCL: Setting parameter alchLambda to 0.5499999999999996
Info: NONBONDED TABLE R-SQUARED SPACING: 0.0625
Info: NONBONDED TABLE SIZE: 705 POINTS
TCL: Setting parameter alchLambda2 to 0.4999999999999996
Info: NONBONDED TABLE R-SQUARED SPACING: 0.0625
Info: NONBONDED TABLE SIZE: 705 POINTS
TCL: Running for 1500000 steps
ETITLE: TS BOND ANGLE DIHED IMPRP ELECT VDW BOUNDARY MISC KINETIC TOTAL TEMP POTENTIAL TOTALAVG TEMPAVG PRESSURE GPRESSURE VOLUME PRESSAVG GPRESSAVG
ENERGY: 0 0.3404 3.0315 3.2905 0.0000 -10743.1530 1482.9190 0.0000 0.0000 1781.2813 -7472.2903 306.4552 -9253.5716 -7472.2903 306.4552 233.3342 306.8949 29964.7842 233.3342 306.8949
ENERGY: 300000 0.4004 5.6717 3.3701 0.0000 -10530.0475 1394.9161 0.0000 0.0000 1713.1706 -7412.5186 294.7373 -9125.6892 -7452.7110 299.3727 -190.8715 -99.4223 30044.8693 -88.9299 5.1885
ENERGY: 600000 1.6162 4.0445 2.3063 0.0000 -10669.6520 1429.0109 0.0000 0.0000 1695.8093 -7536.8648 291.7505 -9232.6741 -7458.8530 298.1713 -211.8703 -182.9648 29862.4989 39.7291 116.0151
ENERGY: 900000 0.2343 6.4030 2.4568 0.0000 -10564.1491 1390.2772 0.0000 0.0000 1719.1506 -7445.6273 295.7661 -9164.7779 -7433.6486 298.3572 -564.8069 -504.2423 30621.8036 -14.1584 50.6428
ENERGY: 1200000 1.3969 2.9914 1.9592 0.0000 -10659.2971 1473.0064 0.0000 0.0000 1761.7257 -7418.2175 303.0908 -9179.9432 -7433.1710 298.8124 128.3113 165.1312 30336.6996 -87.1603 -21.2756
ENERGY: 1500000 1.4944 7.2159 2.0978 0.0000 -10748.4050 1529.5094 0.0000 0.0000 1779.8559 -7428.2316 306.2100 -9208.0875 -7431.0983 298.8369 775.5725 831.0101 29760.3158 3.6358 66.8239
TCL: Running FEP window  11: Lambda1 0.4999999999999996 Lambda2 0.4499999999999996 [dLambda -0.04999999999999999]
TCL: Setting parameter firsttimestep to 0
TCL: Setting parameter alchLambda to 0.4999999999999996
Info: NONBONDED TABLE R-SQUARED SPACING: 0.0625
Info: NONBONDED TABLE SIZE: 705 POINTS
TCL: Setting parameter alchLambda2 to 0.4499999999999996
Info: NONBONDED TABLE R-SQUARED SPACING: 0.0625
Info: NONBONDED TABLE SIZE: 705 POINTS
TCL: Running for 1500000 steps
ETITLE: TS BOND ANGLE DIHED IMPRP ELECT VDW BOUNDARY MISC KINETIC TOTAL TEMP POTENTIAL TOTALAVG TEMPAVG PRESSURE GPRESSURE VOLUME PRESSAVG GPRESSAVG
ENERGY: 0 1.4944 7.2159 2.0978 0.0000 -10747.7409 1529.2276 0.0000 0.0000 1778.9866 -7428.7185 306.0604 -9207.7051 -7428.7185 306.0604 736.3382 824.8559 29760.3158 736.3382 824.8559
ENERGY: 300000 0.0151 2.8725 3.2503 0.0000 -10649.6963 1470.7084 0.0000 0.0000 1736.4605 -7436.3894 298.7442 -9172.8500 -7435.4169 302.7660 544.2203 617.6779 29500.5695 254.8170 308.2052
ENERGY: 600000 0.4336 3.4379 1.8920 0.0000 -10570.4998 1433.3051 0.0000 0.0000 1741.0713 -7390.3599 299.5374 -9131.4312 -7419.3389 301.2034 65.3289 102.8818 30100.3527 298.9426 360.2256
ENERGY: 900000 0.1506 3.8355 3.9783 0.0000 -10610.5925 1413.8038 0.0000 0.0000 1775.9530 -7412.8713 305.5385 -9188.8244 -7419.9264 300.3035 -231.5754 -117.2440 30107.9470 94.7027 172.3248
ENERGY: 1200000 1.8298 2.5920 2.2506 0.0000 -10619.1349 1423.4580 0.0000 0.0000 1719.6061 -7469.3984 295.8445 -9189.0045 -7420.2283 300.1926 -103.5639 -1.2446 30121.5403 98.3599 174.8238
ENERGY: 1500000 0.7002 2.5953 2.1127 0.0000 -10578.0890 1434.7348 0.0000 0.0000 1699.7012 -7438.2448 292.4200 -9137.9460 -7424.7326 299.7548 -60.0590 -10.6814 30258.9612 172.6219 243.3750
TCL: Running FEP window  12: Lambda1 0.4499999999999996 Lambda2 0.39999999999999963 [dLambda -0.04999999999999999]
TCL: Setting parameter firsttimestep to 0
TCL: Setting parameter alchLambda to 0.4499999999999996
Info: NONBONDED TABLE R-SQUARED SPACING: 0.0625
Info: NONBONDED TABLE SIZE: 705 POINTS
TCL: Setting parameter alchLambda2 to 0.39999999999999963
Info: NONBONDED TABLE R-SQUARED SPACING: 0.0625
Info: NONBONDED TABLE SIZE: 705 POINTS
TCL: Running for 1500000 steps
ETITLE: TS BOND ANGLE DIHED IMPRP ELECT VDW BOUNDARY MISC KINETIC TOTAL TEMP POTENTIAL TOTALAVG TEMPAVG PRESSURE GPRESSURE VOLUME PRESSAVG GPRESSAVG
ENERGY: 0 0.7002 2.5953 2.1127 0.0000 -10578.0884 1435.1479 0.0000 0.0000 1698.8159 -7438.7164 292.2677 -9137.5323 -7438.7164 292.2677 -97.3389 -8.0089 30258.9612 -97.3389 -8.0089
ENERGY: 300000 1.7691 3.9528 1.7094 0.0000 -10584.8339 1404.3138 0.0000 0.0000 1683.3102 -7489.7787 289.6001 -9173.0889 -7427.6674 293.6988 -138.5906 -61.1377 29901.5283 -212.9520 -160.1713
ENERGY: 600000 0.7860 1.4652 3.1857 0.0000 -10535.3991 1366.6755 0.0000 0.0000 1775.5945 -7387.6920 305.4769 -9163.2865 -7425.7778 297.4279 -577.4391 -566.7042 30465.3625 -31.3536 8.4567
ENERGY: 900000 0.3877 2.2186 2.5817 0.0000 -10640.4183 1444.0818 0.0000 0.0000 1667.0487 -7524.0998 286.8024 -9191.1485 -7431.0390 296.3650 19.2610 85.5042 30019.9304 -22.4915 22.0794
ENERGY: 1200000 0.5077 3.9628 2.4671 0.0000 -10596.0293 1392.7487 0.0000 0.0000 1691.5761 -7504.7669 291.0222 -9196.3430 -7428.2469 297.0540 -651.1810 -585.7731 30404.4073 -139.2577 -95.8176
ENERGY: 1500000 1.0787 4.1679 3.6756 0.0000 -10583.4762 1407.1044 0.0000 0.0000 1767.9332 -7399.5164 304.1588 -9167.4496 -7429.1688 297.3026 -254.1205 -194.3994 30265.6869 -86.7505 -40.4809
TCL: Running FEP window  13: Lambda1 0.39999999999999963 Lambda2 0.34999999999999964 [dLambda -0.04999999999999999]
TCL: Setting parameter firsttimestep to 0
TCL: Setting parameter alchLambda to 0.39999999999999963
Info: NONBONDED TABLE R-SQUARED SPACING: 0.0625
Info: NONBONDED TABLE SIZE: 705 POINTS
TCL: Setting parameter alchLambda2 to 0.34999999999999964
Info: NONBONDED TABLE R-SQUARED SPACING: 0.0625
Info: NONBONDED TABLE SIZE: 705 POINTS
TCL: Running for 1500000 steps
ETITLE: TS BOND ANGLE DIHED IMPRP ELECT VDW BOUNDARY MISC KINETIC TOTAL TEMP POTENTIAL TOTALAVG TEMPAVG PRESSURE GPRESSURE VOLUME PRESSAVG GPRESSAVG
ENERGY: 0 1.0787 4.1679 3.6756 0.0000 -10583.4753 1407.4871 0.0000 0.0000 1767.1226 -7399.9434 304.0193 -9167.0660 -7399.9434 304.0193 -275.9709 -194.5780 30265.6869 -275.9709 -194.5780
ENERGY: 300000 0.6960 3.8296 2.5358 0.0000 -10524.5796 1312.7070 0.0000 0.0000 1662.8182 -7541.9930 286.0746 -9204.8112 -7438.3123 298.0357 -1105.7615 -1053.3615 30026.1691 -449.2195 -388.2146
ENERGY: 600000 2.3699 2.3913 1.6644 0.0000 -10510.2308 1332.6771 0.0000 0.0000 1781.5107 -7389.6173 306.4947 -9171.1281 -7440.0697 298.6894 -726.2582 -717.8164 30026.2147 -349.0519 -296.8648
ENERGY: 900000 0.0786 2.7868 2.8264 0.0000 -10355.8172 1305.0784 0.0000 0.0000 1695.1277 -7349.9193 291.6332 -9045.0470 -7411.0381 298.9406 -918.7505 -857.8997 30625.2904 -328.3835 -280.0295
ENERGY: 1200000 1.5668 2.3991 2.1354 0.0000 -10588.9167 1449.6577 0.0000 0.0000 1767.4551 -7365.7026 304.0765 -9133.1577 -7397.4675 300.2101 279.7343 332.8598 30259.0221 -222.0898 -169.1127
ENERGY: 1500000 0.3541 2.0927 2.0190 0.0000 -10540.7556 1391.4735 0.0000 0.0000 1814.5122 -7330.3042 312.1723 -9144.8164 -7391.4764 301.6520 -301.5867 -235.7396 30100.2915 -223.8310 -167.5486
TCL: Running FEP window  14: Lambda1 0.34999999999999964 Lambda2 0.29999999999999966 [dLambda -0.04999999999999999]
TCL: Setting parameter firsttimestep to 0
TCL: Setting parameter alchLambda to 0.34999999999999964
Info: NONBONDED TABLE R-SQUARED SPACING: 0.0625
Info: NONBONDED TABLE SIZE: 705 POINTS
TCL: Setting parameter alchLambda2 to 0.29999999999999966
Info: NONBONDED TABLE R-SQUARED SPACING: 0.0625
Info: NONBONDED TABLE SIZE: 705 POINTS
TCL: Running for 1500000 steps
ETITLE: TS BOND ANGLE DIHED IMPRP ELECT VDW BOUNDARY MISC KINETIC TOTAL TEMP POTENTIAL TOTALAVG TEMPAVG PRESSURE GPRESSURE VOLUME PRESSAVG GPRESSAVG
ENERGY: 0 0.3541 2.0927 2.0190 0.0000 -10540.7570 1391.3369 0.0000 0.0000 1813.6713 -7331.2831 312.0277 -9144.9544 -7331.2831 312.0277 -334.4098 -241.4090 30100.2915 -334.4098 -241.4090
ENERGY: 300000 0.7359 4.6868 2.6977 0.0000 -10881.5617 1601.0533 0.0000 0.0000 1772.6924 -7499.6956 304.9776 -9272.3879 -7455.5314 301.4326 1044.4978 1166.4097 29678.1068 -12.2100 91.2050
ENERGY: 600000 3.8941 2.8795 2.8154 0.0000 -10378.5671 1271.6886 0.0000 0.0000 1767.8035 -7329.4861 304.1365 -9097.2896 -7431.4770 300.3098 -1265.1569 -1215.2526 30544.1131 -53.7836 31.8376
ENERGY: 900000 2.1078 6.5938 2.7982 0.0000 -10552.5931 1413.3489 0.0000 0.0000 1741.1279 -7386.6164 299.5472 -9127.7443 -7414.7295 300.7559 111.7121 121.0506 29689.4022 -113.7189 -51.7442
ENERGY: 1200000 0.0140 5.4144 3.0662 0.0000 -10502.4496 1351.8249 0.0000 0.0000 1724.4406 -7417.6894 296.6762 -9142.1301 -7415.6335 300.6374 -470.1691 -376.2865 29986.9386 -156.0246 -96.2692
ENERGY: 1500000 1.0106 2.7213 2.0066 0.0000 -10642.2103 1448.4779 0.0000 0.0000 1734.9262 -7453.0677 298.4802 -9187.9939 -7423.2468 300.1898 72.9334 190.5957 29727.5995 -98.8209 -32.6418
TCL: Running FEP window  15: Lambda1 0.29999999999999966 Lambda2 0.24999999999999967 [dLambda -0.04999999999999999]
TCL: Setting parameter firsttimestep to 0
TCL: Setting parameter alchLambda to 0.29999999999999966
Info: NONBONDED TABLE R-SQUARED SPACING: 0.0625
Info: NONBONDED TABLE SIZE: 705 POINTS
TCL: Setting parameter alchLambda2 to 0.24999999999999967
Info: NONBONDED TABLE R-SQUARED SPACING: 0.0625
Info: NONBONDED TABLE SIZE: 705 POINTS
TCL: Running for 1500000 steps
ETITLE: TS BOND ANGLE DIHED IMPRP ELECT VDW BOUNDARY MISC KINETIC TOTAL TEMP POTENTIAL TOTALAVG TEMPAVG PRESSURE GPRESSURE VOLUME PRESSAVG GPRESSAVG
ENERGY: 0 1.0106 2.7213 2.0066 0.0000 -10642.2099 1447.9651 0.0000 0.0000 1734.0782 -7454.4280 298.3343 -9188.5063 -7454.4280 298.3343 110.7592 185.7100 29727.5995 110.7592 185.7100
ENERGY: 300000 0.8870 2.1560 2.8896 0.0000 -10623.5261 1447.2210 0.0000 0.0000 1805.7674 -7364.6051 310.6679 -9170.3725 -7410.8101 300.0790 6.4450 46.2977 30319.8775 -250.3573 -180.4749
ENERGY: 600000 0.0550 5.4596 2.2020 0.0000 -10625.7802 1389.5489 0.0000 0.0000 1728.6892 -7499.8255 297.4072 -9228.5148 -7440.0184 298.4945 -269.8828 -209.2291 29623.0006 -113.1528 -37.4285
ENERGY: 900000 0.1454 3.1318 2.0620 0.0000 -10396.9616 1298.7824 0.0000 0.0000 1731.6319 -7361.2081 297.9134 -9092.8400 -7436.5044 297.3517 -798.6650 -747.8339 29950.3524 -273.5234 -199.8704
ENERGY: 1200000 0.2234 4.3418 1.8165 0.0000 -10623.6644 1450.3894 0.0000 0.0000 1752.6070 -7414.2864 301.5220 -9166.8933 -7433.8414 297.7091 48.3374 147.4406 30117.2208 -131.5662 -62.3892
ENERGY: 1500000 0.7020 4.6682 2.2252 0.0000 -10667.1487 1435.4391 0.0000 0.0000 1768.8258 -7455.2884 304.3124 -9224.1142 -7423.7689 298.3321 -205.9624 -189.9204 30355.0494 -147.1965 -80.1670
TCL: Running FEP window  16: Lambda1 0.24999999999999967 Lambda2 0.19999999999999968 [dLambda -0.04999999999999999]
TCL: Setting parameter firsttimestep to 0
TCL: Setting parameter alchLambda to 0.24999999999999967
Info: NONBONDED TABLE R-SQUARED SPACING: 0.0625
Info: NONBONDED TABLE SIZE: 705 POINTS
TCL: Setting parameter alchLambda2 to 0.19999999999999968
Info: NONBONDED TABLE R-SQUARED SPACING: 0.0625
Info: NONBONDED TABLE SIZE: 705 POINTS
TCL: Running for 1500000 steps
ETITLE: TS BOND ANGLE DIHED IMPRP ELECT VDW BOUNDARY MISC KINETIC TOTAL TEMP POTENTIAL TOTALAVG TEMPAVG PRESSURE GPRESSURE VOLUME PRESSAVG GPRESSAVG
ENERGY: 0 0.7020 4.6682 2.2252 0.0000 -10667.1485 1435.6258 0.0000 0.0000 1767.9505 -7455.9768 304.1618 -9223.9272 -7455.9768 304.1618 -269.6531 -191.3826 30355.0494 -269.6531 -191.3826
ENERGY: 300000 1.6277 6.7689 3.3134 0.0000 -10622.8418 1452.7274 0.0000 0.0000 1745.5132 -7412.8913 300.3016 -9158.4045 -7398.3843 303.4905 127.9601 196.5786 30006.8789 -241.1337 -184.8268
ENERGY: 600000 0.8555 5.3972 2.2990 0.0000 -10644.3240 1505.7305 0.0000 0.0000 1703.2204 -7426.8215 293.0255 -9130.0419 -7400.9545 301.3118 623.7294 742.4827 29648.6942 35.6424 105.3861
ENERGY: 900000 0.0977 4.8059 2.5575 0.0000 -10556.9412 1367.0973 0.0000 0.0000 1809.3302 -7373.0526 311.2808 -9182.3828 -7381.4685 303.1869 -720.0502 -666.7283 30538.5142 -126.0274 -66.4893
ENERGY: 1200000 1.1168 1.7245 3.1970 0.0000 -10421.6282 1381.8932 0.0000 0.0000 1671.7999 -7361.8969 287.6198 -9033.6968 -7390.0226 301.6350 -299.5868 -223.0079 30575.2416 -67.5098 -0.4196
ENERGY: 1500000 0.1071 3.7077 2.7371 0.0000 -10619.6533 1499.1963 0.0000 0.0000 1729.9529 -7383.9521 297.6246 -9113.9050 -7396.7204 301.3646 725.2289 819.4604 29811.4624 -49.2432 17.6235
TCL: Running FEP window  17: Lambda1 0.19999999999999968 Lambda2 0.1499999999999997 [dLambda -0.04999999999999999]
TCL: Setting parameter firsttimestep to 0
TCL: Setting parameter alchLambda to 0.19999999999999968
Info: NONBONDED TABLE R-SQUARED SPACING: 0.0625
Info: NONBONDED TABLE SIZE: 705 POINTS
TCL: Setting parameter alchLambda2 to 0.1499999999999997
Info: NONBONDED TABLE R-SQUARED SPACING: 0.0625
Info: NONBONDED TABLE SIZE: 705 POINTS
TCL: Running for 1500000 steps
ETITLE: TS BOND ANGLE DIHED IMPRP ELECT VDW BOUNDARY MISC KINETIC TOTAL TEMP POTENTIAL TOTALAVG TEMPAVG PRESSURE GPRESSURE VOLUME PRESSAVG GPRESSAVG
ENERGY: 0 0.1071 3.7077 2.7371 0.0000 -10619.6544 1499.5247 0.0000 0.0000 1729.0678 -7384.5100 297.4723 -9113.5778 -7384.5100 297.4723 729.6164 820.3546 29811.4624 729.6164 820.3546
ENERGY: 300000 0.6087 5.1473 4.8855 0.0000 -10539.2920 1360.4390 0.0000 0.0000 1764.4234 -7403.7880 303.5550 -9168.2115 -7377.9584 301.8826 -703.2447 -601.0827 30071.6350 127.4630 203.9852
ENERGY: 600000 0.3955 2.9427 1.9166 0.0000 -10513.5905 1422.1807 0.0000 0.0000 1764.1755 -7321.9796 303.5123 -9086.1550 -7375.1228 300.6102 194.8277 291.6111 30030.6613 -23.9116 40.6923
ENERGY: 900000 1.0060 3.1640 1.8649 0.0000 -10570.1173 1380.7309 0.0000 0.0000 1686.4445 -7496.9070 290.1393 -9183.3515 -7398.0179 299.2163 -379.4160 -337.2654 29654.1725 43.5963 101.2655
ENERGY: 1200000 1.0578 5.3193 2.5994 0.0000 -10595.3043 1448.6349 0.0000 0.0000 1706.4451 -7431.2477 293.5803 -9137.6929 -7403.3716 298.2676 15.2022 77.4771 30244.2660 49.9439 112.1626
ENERGY: 1500000 0.4299 5.8080 3.4377 0.0000 -10583.6442 1392.6923 0.0000 0.0000 1743.5072 -7437.7690 299.9565 -9181.2762 -7408.7797 298.3340 -356.2901 -350.2756 30179.5419 -89.8198 -34.3659
TCL: Running FEP window  18: Lambda1 0.1499999999999997 Lambda2 0.09999999999999969 [dLambda -0.05 ]
TCL: Setting parameter firsttimestep to 0
TCL: Setting parameter alchLambda to 0.1499999999999997
Info: NONBONDED TABLE R-SQUARED SPACING: 0.0625
Info: NONBONDED TABLE SIZE: 705 POINTS
TCL: Setting parameter alchLambda2 to 0.09999999999999969
Info: NONBONDED TABLE R-SQUARED SPACING: 0.0625
Info: NONBONDED TABLE SIZE: 705 POINTS
TCL: Running for 1500000 steps
ETITLE: TS BOND ANGLE DIHED IMPRP ELECT VDW BOUNDARY MISC KINETIC TOTAL TEMP POTENTIAL TOTALAVG TEMPAVG PRESSURE GPRESSURE VOLUME PRESSAVG GPRESSAVG
ENERGY: 0 0.4299 5.8080 3.4377 0.0000 -10583.6435 1392.9214 0.0000 0.0000 1742.6331 -7438.4133 299.8061 -9181.0464 -7438.4133 299.8061 -436.9607 -347.7338 30179.5419 -436.9607 -347.7338
ENERGY: 300000 0.8588 2.8811 3.0712 0.0000 -10470.3382 1353.6559 0.0000 0.0000 1723.3106 -7386.5605 296.4818 -9109.8712 -7405.8653 299.5337 -608.1732 -524.2125 30111.7777 -294.2530 -237.6772
ENERGY: 600000 0.9464 4.6304 2.6057 0.0000 -10698.1141 1497.7564 0.0000 0.0000 1757.4415 -7434.7337 302.3538 -9192.1753 -7404.3518 301.4252 587.5327 655.5129 29656.7131 -137.2562 -87.1901
ENERGY: 900000 0.9659 1.2187 2.8049 0.0000 -10554.6115 1399.1965 0.0000 0.0000 1778.9577 -7371.4678 306.0555 -9150.4255 -7416.0355 301.2044 -20.6464 13.3663 29820.3393 -141.7091 -90.0717
ENERGY: 1200000 1.1944 3.8485 2.8805 0.0000 -10537.4156 1325.6826 0.0000 0.0000 1662.6192 -7541.1905 286.0403 -9203.8097 -7427.3586 300.1877 -879.3802 -826.1201 29804.1721 -66.5269 -13.3461
ENERGY: 1500000 0.2516 2.5456 2.9741 0.0000 -10796.8696 1571.4076 0.0000 0.0000 1736.4404 -7483.2502 298.7407 -9219.6907 -7429.8843 300.0030 1010.6440 1073.7401 29810.8911 4.6611 59.6495
TCL: Running FEP window  19: Lambda1 0.09999999999999969 Lambda2 0.049999999999999684 [dLambda -0.05 ]
TCL: Setting parameter firsttimestep to 0
TCL: Setting parameter alchLambda to 0.09999999999999969
Info: NONBONDED TABLE R-SQUARED SPACING: 0.0625
Info: NONBONDED TABLE SIZE: 705 POINTS
TCL: Setting parameter alchLambda2 to 0.049999999999999684
Info: NONBONDED TABLE R-SQUARED SPACING: 0.0625
Info: NONBONDED TABLE SIZE: 705 POINTS
TCL: Running for 1500000 steps
ETITLE: TS BOND ANGLE DIHED IMPRP ELECT VDW BOUNDARY MISC KINETIC TOTAL TEMP POTENTIAL TOTALAVG TEMPAVG PRESSURE GPRESSURE VOLUME PRESSAVG GPRESSAVG
ENERGY: 0 0.2516 2.5456 2.9741 0.0000 -10796.8698 1571.6607 0.0000 0.0000 1735.5730 -7483.8648 298.5915 -9219.4378 -7483.8648 298.5915 991.6926 1070.1420 29810.8911 991.6926 1070.1420
ENERGY: 300000 0.0176 5.9794 3.8634 0.0000 -10456.9078 1306.1768 0.0000 0.0000 1733.3448 -7407.5257 298.2081 -9140.8705 -7432.3524 298.5659 -1105.6507 -990.1151 30249.1929 -374.6714 -279.0141
ENERGY: 600000 0.9489 1.6352 1.8051 0.0000 -10547.1313 1403.2780 0.0000 0.0000 1756.4947 -7382.9694 302.1909 -9139.4642 -7433.8116 298.8840 -238.5611 -139.3277 30194.2626 -205.5761 -126.5419
ENERGY: 900000 0.1588 5.5022 2.0265 0.0000 -10480.7514 1343.6563 0.0000 0.0000 1792.2530 -7337.1547 308.3428 -9129.4077 -7434.2424 299.2179 -661.2829 -602.6980 30199.1640 -357.2092 -284.0835
ENERGY: 1200000 0.3076 4.7742 2.9165 0.0000 -10668.7940 1495.3561 0.0000 0.0000 1779.6119 -7385.8278 306.1680 -9165.4396 -7430.1521 299.1934 522.2714 574.6089 30122.0858 -308.1017 -233.8161
ENERGY: 1500000 0.4814 2.6755 2.6897 0.0000 -10638.0927 1467.5254 0.0000 0.0000 1713.0679 -7451.6529 294.7196 -9164.7207 -7435.8182 298.9114 232.8822 227.4790 30084.5698 -190.9859 -122.5394
TCL: Running FEP window  20: Lambda1 0.049999999999999684 Lambda2 0.0    [dLambda -0.049999999999999684]
TCL: Setting parameter firsttimestep to 0
TCL: Setting parameter alchLambda to 0.049999999999999684
Info: NONBONDED TABLE R-SQUARED SPACING: 0.0625
Info: NONBONDED TABLE SIZE: 705 POINTS
TCL: Setting parameter alchLambda2 to 0.0
Info: NONBONDED TABLE R-SQUARED SPACING: 0.0625
Info: NONBONDED TABLE SIZE: 705 POINTS
TCL: Running for 1500000 steps
ETITLE: TS BOND ANGLE DIHED IMPRP ELECT VDW BOUNDARY MISC KINETIC TOTAL TEMP POTENTIAL TOTALAVG TEMPAVG PRESSURE GPRESSURE VOLUME PRESSAVG GPRESSAVG
ENERGY: 0 0.4814 2.6755 2.6897 0.0000 -10638.0921 1467.1437 0.0000 0.0000 1712.1921 -7452.9097 294.5690 -9165.1019 -7452.9097 294.5690 130.3963 224.5277 30084.5698 130.3963 224.5277
ENERGY: 300000 0.5410 4.0120 1.6323 0.0000 -10678.8369 1505.0493 0.0000 0.0000 1684.6679 -7482.9345 289.8337 -9167.6023 -7427.4950 296.4956 389.3384 441.6978 30230.3526 -103.6135 -50.0876
ENERGY: 600000 3.7492 4.6804 2.6606 0.0000 -10636.2050 1397.9477 0.0000 0.0000 1750.6734 -7476.4936 301.1894 -9227.1671 -7407.7187 298.7744 -259.1147 -171.7385 29738.7695 -97.2178 -35.0123
ENERGY: 900000 1.6352 1.6185 3.9807 0.0000 -10719.2171 1478.7377 0.0000 0.0000 1754.3057 -7478.9394 301.8143 -9233.2451 -7416.5825 298.7686 340.6928 383.6379 29882.1130 -224.9294 -165.1161
ENERGY: 1200000 0.1275 5.0243 1.6156 0.0000 -10539.5730 1329.6395 0.0000 0.0000 1737.3810 -7465.7851 298.9025 -9203.1661 -7417.1291 298.6649 -894.8692 -854.0644 29829.1622 -294.9419 -230.0489
ENERGY: 1500000 0.0913 5.7215 1.8475 0.0000 -10542.7877 1410.3952 0.0000 0.0000 1732.9850 -7391.7473 298.1462 -9124.7323 -7411.3381 299.0657 -90.6791 -17.6422 30173.0781 -213.5044 -145.5134
TCL: Exiting due to exit command.
