Info: SIMULATION PARAMETERS:
Info: TIMESTEP               2
Info: NUMBER OF STEPS        0
Info: STEPS PER CYCLE        10
Info: PERIODIC CELL BASIS 1  32.7568 0 0
Info: PERIODIC CELL BASIS 2  0 31.4134 0
Info: PERIODIC CELL BASIS 3  0 0 28.9956
Info: PERIODIC CELL CENTER   0 0 0
Info: WRAPPING WATERS AROUND PERIODIC BOUNDARIES ON OUTPUT.
Info: WRAPPING ALL CLUSTERS AROUND PERIODIC BOUNDARIES ON OUTPUT.
Info: FIRST LDB TIMESTEP     50
Info: LAST LDB TIMESTEP     -1
Info: HOM BACKGROUND SCALING 1
Info: PME BACKGROUND SCALING 1
Info: MIN ATOMS PER PATCH    40
Info: EMPTY PATCH LOAD       40 ATOMS
Info: VELOCITY FILE          mobley_7378987_equil.vel
Info: CENTER OF MASS MOVING INITIALLY? NO
Info: DIELECTRIC             1
Info: EXCLUDE                SCALED ONE-FOUR
Info: 1-4 ELECTROSTATICS SCALED BY 0.833333
Info: MODIFIED 1-4 VDW PARAMETERS WILL BE USED
Info: DCD FILENAME           mobley_7378987_prod.dcd
Info: DCD FREQUENCY          100000
Info: DCD FIRST STEP         100000
Info: DCD FILE WILL CONTAIN UNIT CELL DATA
Info: XST FILENAME           mobley_7378987_prod.xst
Info: XST FREQUENCY          100000
Info: NO VELOCITY DCD OUTPUT
Info: NO FORCE DCD OUTPUT
Info: OUTPUT FILENAME        mobley_7378987_prod
Info: BINARY OUTPUT FILES WILL BE USED
Info: RESTART FILENAME       mobley_7378987_prod.restart
Info: RESTART FREQUENCY      100000
Info: BINARY RESTART FILES WILL BE USED
Info: CUTOFF                 9
Info: PAIRLIST DISTANCE      11
Info: PAIRLIST SHRINK RATE   0.01
Info: PAIRLIST GROW RATE     0.01
Info: PAIRLIST TRIGGER       0.3
Info: PAIRLISTS PER CYCLE    2
Info: PAIRLISTS ENABLED
Info: MARGIN                 2
Info: HYDROGEN GROUP CUTOFF  2.5
Info: PATCH DIMENSION        15.5
Info: ENERGY OUTPUT STEPS    100000
Info: ENERGY EVALUATION STEPS    100000
Info: OUTPUT ENERGY PRECISION 4
Info: CROSSTERM ENERGY INCLUDED IN DIHEDRAL
Info: TIMING OUTPUT STEPS    1000000
Info: PRESSURE OUTPUT STEPS  100000
Info: ALCHEMICAL FEP ON
Info: FEP CURRENT LAMBDA VALUE     1
Info: FEP COMPARISON LAMBDA VALUE  0.95
Info: FEP INTRA-ALCHEMICAL NON-BONDED INTERACTIONS WILL BE RETAINED
Info: FEP INTRA-ALCHEMICAL BONDED INTERACTIONS WILL BE RETAINED
Info: FEP VDW SHIFTING COEFFICIENT 5
Info: FEP ELEC. ACTIVE FOR ANNIHILATED PARTICLES BETWEEN LAMBDA = 0 AND LAMBDA = 0.5
Info: FEP ELEC. ACTIVE FOR EXNIHILATED PARTICLES BETWEEN LAMBDA = 0.5 AND LAMBDA = 1
Info: FEP VDW ACTIVE FOR ANNIHILATED PARTICLES BETWEEN LAMBDA = 0 AND LAMBDA = 1
Info: FEP VDW ACTIVE FOR EXNIHILATED PARTICLES BETWEEN LAMBDA = 0 AND LAMBDA = 1
Info: FEP BOND ACTIVE FOR ANNIHILATED PARTICLES BETWEEN LAMBDA = 1 AND LAMBDA = 1
Info: FEP BOND ACTIVE FOR EXNIHILATED PARTICLES BETWEEN LAMBDA = 0 AND LAMBDA = 0
Info: LANGEVIN DYNAMICS ACTIVE
Info: LANGEVIN TEMPERATURE   300
Info: LANGEVIN USING BBK INTEGRATOR
Info: LANGEVIN DAMPING COEFFICIENT IS 1 INVERSE PS
Info: LANGEVIN DYNAMICS APPLIED TO HYDROGENS
Info: LANGEVIN PISTON PRESSURE CONTROL ACTIVE
Info:        TARGET PRESSURE IS 1.01325 BAR
Info:     OSCILLATION PERIOD IS 50 FS
Info:             DECAY TIME IS 25 FS
Info:     PISTON TEMPERATURE IS 300 K
Info:       PRESSURE CONTROL IS GROUP-BASED
Info:    INITIAL STRAIN RATE IS -0.000185957 -0.000185957 -0.000185957
Info:       CELL FLUCTUATION IS ISOTROPIC
Info: PARTICLE MESH EWALD (PME) ACTIVE
Info: PME TOLERANCE               1e-06
Info: PME EWALD COEFFICIENT       0.348832
Info: PME INTERPOLATION ORDER     4
Info: PME GRID DIMENSIONS         36 32 32
Info: PME MAXIMUM GRID SPACING    1
Info: PME CALCULATION WILL BE PERFORMED ON GPU
Info: FULL ELECTROSTATIC EVALUATION FREQUENCY      2
Info: USING VERLET I (r-RESPA) MTS SCHEME.
Info: C1 SPLITTING OF LONG RANGE ELECTROSTATICS
Info: PLACING ATOMS IN PATCHES BY HYDROGEN GROUPS
Info: RIGID BONDS TO HYDROGEN : ALL
Info:         ERROR TOLERANCE : 1e-08
Info:          MAX ITERATIONS : 100
Info: RIGID WATER USING SETTLE ALGORITHM
Info: RANDOM NUMBER SEED     1743654663
Info: USE HYDROGEN BONDS?    NO
Info: Using AMBER format force field!
Info: AMBER PARM FILE        mobley_7378987.prmtop
Info: COORDINATE PDB         mobley_7378987.pdb
Info: Exclusions will be read from PARM file!
Info: SCNB (VDW SCALING)     2
Info: USING ARITHMETIC MEAN TO COMBINE L-J SIGMA PARAMETERS
Info: BINARY COORDINATES     mobley_7378987_equil.coor
Info: SUMMARY OF PARAMETERS:
Info: 14 BONDS
Info: 23 ANGLES
Info:   23 HARMONIC
Info:   0 COSINE-BASED
Info: 9 DIHEDRAL
Info: 0 IMPROPER
Info: 0 CROSSTERM
Info: 0 VDW
Info: 36 VDW_PAIRS
Info: 0 NBTHOLE_PAIRS
Info: To read alchdata from file: mobley_7378987.pdb
Info: To read alchflag data from column: 5
Info: STRUCTURE SUMMARY:
Info: 2937 ATOMS
Info: 2938 BONDS
Info: 43 ANGLES
Info: 62 DIHEDRALS
Info: 0 IMPROPERS
Info: 0 CROSSTERMS
Info: 3027 EXCLUSIONS
Info: 2923 RIGID BONDS
Info: ALCH: 0 ATOMS TO DISAPPEAR IN FINAL STATE
Info: ALCH: 24 ATOMS TO APPEAR IN FINAL STATE
Info: 5888 DEGREES OF FREEDOM
Info: 985 HYDROGEN GROUPS
Info: 4 ATOMS IN LARGEST HYDROGEN GROUP
Info: 985 MIGRATION GROUPS
Info: 4 ATOMS IN LARGEST MIGRATION GROUP
Info: TOTAL MASS = 17687.7 amu
Info: TOTAL CHARGE = -0.000199961 e
Info: MASS DENSITY = 0.984427 g/cm^3
Info: ATOM DENSITY = 0.0984364 atoms/A^3
Info: ADDED 0 IMPLICIT EXCLUSIONS
Info: NONBONDED TABLE R-SQUARED SPACING: 0.0625
Info: NONBONDED TABLE SIZE: 705 POINTS
Info: REDUCING NUMBER OF PATCHES TO IMPROVE LOAD BALANCE
Info: REMOVING COM VELOCITY 0.0108956 0.0599921 -0.0525017
Info: Use 3D box decompostion in PME FFT.
Info: Updated CUDA force table with 4096 elements.
Info: Updated CUDA LJ table with 8 x 8 elements.
Info: Found 26 unique exclusion lists needing 72 bytes
TCL: Running for 1500000 steps
ETITLE: TS BOND ANGLE DIHED IMPRP ELECT VDW BOUNDARY MISC KINETIC TOTAL TEMP POTENTIAL TOTALAVG TEMPAVG PRESSURE GPRESSURE VOLUME PRESSAVG GPRESSAVG
ENERGY: 0 4.6984 13.7106 3.8509 0.0000 -10918.4292 1519.5466 0.0000 0.0000 1755.8256 -7620.7972 300.1262 -9376.6228 -7620.7972 300.1262 895.4691 977.2059 29836.5205 895.4691 977.2059
ENERGY: 300000 3.7405 15.1774 5.5692 0.0000 -10748.8223 1365.3038 0.0000 0.0000 1729.6499 -7629.3815 295.6520 -9359.0314 -7635.3256 296.8512 -522.4772 -500.6040 30334.0595 402.7202 452.0858
ENERGY: 600000 3.6923 13.6331 4.2161 0.0000 -10827.0443 1448.0596 0.0000 0.0000 1755.3775 -7602.0658 300.0496 -9357.4433 -7617.7925 298.4702 566.1290 621.9142 29520.4678 324.9436 368.8116
ENERGY: 900000 2.9913 10.7930 3.3613 0.0000 -10909.2690 1491.7050 0.0000 0.0000 1772.1305 -7628.2880 302.9133 -9400.4185 -7614.8096 299.1369 468.4076 506.9786 30076.3076 399.7430 453.1635
ENERGY: 1200000 5.4894 10.8747 8.0038 0.0000 -10765.0496 1392.3125 0.0000 0.0000 1720.6415 -7627.7276 294.1122 -9348.3692 -7618.8333 298.5994 -329.1748 -217.3653 30062.2492 204.9598 268.3825
ENERGY: 1500000 2.9812 9.8153 5.8607 0.0000 -10976.0693 1515.6571 0.0000 0.0000 1762.4233 -7679.3318 301.2540 -9441.7551 -7622.4063 299.0919 688.0352 706.9632 29829.8649 60.9067 117.5087
TCL: Running FEP window   2: Lambda1 0.95   Lambda2 0.8999999999999999 [dLambda -0.050000000000000044]
TCL: Setting parameter firsttimestep to 0
TCL: Setting parameter alchLambda to 0.95
Info: NONBONDED TABLE R-SQUARED SPACING: 0.0625
Info: NONBONDED TABLE SIZE: 705 POINTS
TCL: Setting parameter alchLambda2 to 0.8999999999999999
Info: NONBONDED TABLE R-SQUARED SPACING: 0.0625
Info: NONBONDED TABLE SIZE: 705 POINTS
TCL: Running for 1500000 steps
ETITLE: TS BOND ANGLE DIHED IMPRP ELECT VDW BOUNDARY MISC KINETIC TOTAL TEMP POTENTIAL TOTALAVG TEMPAVG PRESSURE GPRESSURE VOLUME PRESSAVG GPRESSAVG
ENERGY: 0 2.9812 9.8153 5.8607 0.0000 -10971.5183 1514.1975 0.0000 0.0000 1761.5560 -7677.1077 301.1057 -9438.6637 -7677.1077 301.1057 594.6531 676.9812 29829.8649 594.6531 676.9812
ENERGY: 300000 6.5940 13.7112 4.7855 0.0000 -10751.9870 1410.7387 0.0000 0.0000 1734.0969 -7582.0608 296.4121 -9316.1577 -7574.4462 301.1364 185.6534 288.4455 29903.3436 267.2016 339.1618
ENERGY: 600000 6.1196 17.3223 8.3575 0.0000 -10617.0547 1337.9293 0.0000 0.0000 1753.2686 -7494.0575 299.6892 -9247.3261 -7568.9554 300.4588 -596.2494 -556.1442 30749.3342 92.5738 161.8778
ENERGY: 900000 6.2230 16.7847 6.1955 0.0000 -10784.1008 1387.0968 0.0000 0.0000 1800.1041 -7567.6968 307.6948 -9367.8008 -7576.6731 300.9297 -644.0812 -562.1785 30801.2457 -46.6378 30.3766
ENERGY: 1200000 7.2323 12.9039 4.3869 0.0000 -10757.3962 1407.3370 0.0000 0.0000 1785.8389 -7539.6972 305.2565 -9325.5361 -7585.9212 300.7465 -405.8321 -297.2331 30850.7396 -39.3532 40.4736
ENERGY: 1500000 3.8482 15.0355 3.8365 0.0000 -10921.0770 1446.4250 0.0000 0.0000 1719.5111 -7732.4207 293.9189 -9451.9318 -7596.3107 300.4422 178.4562 220.4185 29565.1625 -22.1608 51.2925
TCL: Running FEP window   3: Lambda1 0.8999999999999999 Lambda2 0.8499999999999999 [dLambda -0.050000000000000044]
TCL: Setting parameter firsttimestep to 0
TCL: Setting parameter alchLambda to 0.8999999999999999
Info: NONBONDED TABLE R-SQUARED SPACING: 0.0625
Info: NONBONDED TABLE SIZE: 705 POINTS
TCL: Setting parameter alchLambda2 to 0.8499999999999999
Info: NONBONDED TABLE R-SQUARED SPACING: 0.0625
Info: NONBONDED TABLE SIZE: 705 POINTS
TCL: Running for 1500000 steps
ETITLE: TS BOND ANGLE DIHED IMPRP ELECT VDW BOUNDARY MISC KINETIC TOTAL TEMP POTENTIAL TOTALAVG TEMPAVG PRESSURE GPRESSURE VOLUME PRESSAVG GPRESSAVG
ENERGY: 0 3.8482 15.0355 3.8365 0.0000 -10916.8364 1445.4328 0.0000 0.0000 1718.6520 -7730.0314 293.7721 -9448.6834 -7730.0314 293.7721 108.8940 193.5444 29565.1625 108.8940 193.5444
ENERGY: 300000 3.4373 14.2489 6.5546 0.0000 -10793.9069 1449.1687 0.0000 0.0000 1753.2125 -7567.2848 299.6796 -9320.4974 -7628.6784 298.0038 187.5949 267.8697 30309.8473 -35.6789 30.0075
ENERGY: 600000 4.2119 15.6496 4.9749 0.0000 -10865.8639 1466.7904 0.0000 0.0000 1728.0132 -7646.2240 295.3722 -9374.2371 -7607.5375 298.8888 321.6866 375.5043 30222.0214 182.2856 246.8455
ENERGY: 900000 6.2859 9.1809 3.1584 0.0000 -10753.0380 1341.5186 0.0000 0.0000 1798.8937 -7594.0007 307.4879 -9392.8944 -7596.6528 299.6609 -595.1332 -549.7133 29927.9836 108.2102 163.7107
ENERGY: 1200000 4.3098 10.8450 2.8281 0.0000 -10778.5817 1388.6855 0.0000 0.0000 1719.1450 -7652.7682 293.8564 -9371.9133 -7596.6194 299.4021 -334.1972 -284.4779 29614.2589 46.2260 100.2651
ENERGY: 1500000 5.4330 12.7953 2.5009 0.0000 -10765.3157 1404.2079 0.0000 0.0000 1714.2575 -7626.1210 293.0209 -9340.3786 -7601.6546 297.9652 -214.1997 -163.9436 30513.9020 -41.2157 11.3673
TCL: Running FEP window   4: Lambda1 0.8499999999999999 Lambda2 0.7999999999999998 [dLambda -0.050000000000000044]
TCL: Setting parameter firsttimestep to 0
TCL: Setting parameter alchLambda to 0.8499999999999999
Info: NONBONDED TABLE R-SQUARED SPACING: 0.0625
Info: NONBONDED TABLE SIZE: 705 POINTS
TCL: Setting parameter alchLambda2 to 0.7999999999999998
Info: NONBONDED TABLE R-SQUARED SPACING: 0.0625
Info: NONBONDED TABLE SIZE: 705 POINTS
TCL: Running for 1500000 steps
ETITLE: TS BOND ANGLE DIHED IMPRP ELECT VDW BOUNDARY MISC KINETIC TOTAL TEMP POTENTIAL TOTALAVG TEMPAVG PRESSURE GPRESSURE VOLUME PRESSAVG GPRESSAVG
ENERGY: 0 5.4330 12.7953 2.5009 0.0000 -10761.8457 1403.2840 0.0000 0.0000 1713.3660 -7624.4666 292.8685 -9337.8326 -7624.4666 292.8685 -266.4042 -181.1248 30513.9020 -266.4042 -181.1248
ENERGY: 300000 5.1622 15.9479 2.3148 0.0000 -10664.0918 1356.9689 0.0000 0.0000 1834.2517 -7449.4464 313.5317 -9283.6981 -7559.2501 304.2558 -77.8354 -12.4374 29931.9264 69.0978 117.3145
ENERGY: 600000 2.8081 14.6675 1.8385 0.0000 -10718.5237 1367.3030 0.0000 0.0000 1720.6269 -7611.2796 294.1097 -9331.9065 -7572.2529 301.5691 -653.4521 -585.2917 30393.1525 -92.4340 -40.0320
ENERGY: 900000 10.4789 9.5523 3.0929 0.0000 -10774.8161 1368.9576 0.0000 0.0000 1761.2390 -7621.4953 301.0516 -9382.7343 -7586.5016 301.6680 -483.0832 -481.9813 30018.1145 -197.3983 -147.0908
ENERGY: 1200000 8.3110 10.1149 1.9496 0.0000 -10644.8316 1340.1930 0.0000 0.0000 1730.6882 -7553.5750 295.8295 -9284.2632 -7585.9919 301.0349 -626.4554 -575.6091 30555.7444 -202.3132 -148.8354
ENERGY: 1500000 5.1847 10.5041 4.2003 0.0000 -10681.9328 1346.8943 0.0000 0.0000 1745.2728 -7569.8767 298.3224 -9315.1495 -7586.4039 300.9282 -676.0974 -636.5214 30461.6932 -230.6800 -175.5471
TCL: Running FEP window   5: Lambda1 0.7999999999999998 Lambda2 0.7499999999999998 [dLambda -0.050000000000000044]
TCL: Setting parameter firsttimestep to 0
TCL: Setting parameter alchLambda to 0.7999999999999998
Info: NONBONDED TABLE R-SQUARED SPACING: 0.0625
Info: NONBONDED TABLE SIZE: 705 POINTS
TCL: Setting parameter alchLambda2 to 0.7499999999999998
Info: NONBONDED TABLE R-SQUARED SPACING: 0.0625
Info: NONBONDED TABLE SIZE: 705 POINTS
TCL: Running for 1500000 steps
ETITLE: TS BOND ANGLE DIHED IMPRP ELECT VDW BOUNDARY MISC KINETIC TOTAL TEMP POTENTIAL TOTALAVG TEMPAVG PRESSURE GPRESSURE VOLUME PRESSAVG GPRESSAVG
ENERGY: 0 5.1847 10.5041 4.2003 0.0000 -10678.3346 1345.1618 0.0000 0.0000 1744.3744 -7568.9093 298.1689 -9313.2837 -7568.9093 298.1689 -731.7450 -665.6566 30461.6932 -731.7450 -665.6566
ENERGY: 300000 5.3045 14.0054 4.6467 0.0000 -10769.7057 1453.7590 0.0000 0.0000 1730.1137 -7561.8765 295.7313 -9291.9901 -7567.2575 297.6819 428.2814 493.7208 29714.2574 -277.6299 -211.5667
ENERGY: 600000 3.2453 10.9853 5.3498 0.0000 -10854.0061 1424.9236 0.0000 0.0000 1760.6061 -7648.8960 300.9434 -9409.5021 -7577.6479 297.8938 -292.4661 -285.4346 30457.8142 -119.0012 -75.0102
ENERGY: 900000 3.3781 19.2893 3.2129 0.0000 -10824.1316 1469.7564 0.0000 0.0000 1750.6483 -7577.8467 299.2413 -9328.4950 -7575.7223 297.5925 400.7427 472.9282 30206.7468 -16.5647 32.7326
ENERGY: 1200000 5.5123 11.0820 1.4362 0.0000 -10778.5496 1488.4712 0.0000 0.0000 1731.4779 -7540.5700 295.9644 -9272.0479 -7581.5060 297.7659 414.9701 503.7309 30338.0003 -23.9893 21.7206
ENERGY: 1500000 4.7513 14.7658 5.7566 0.0000 -10658.4221 1353.0675 0.0000 0.0000 1769.7448 -7510.3361 302.5055 -9280.0810 -7575.4059 298.8285 -257.9905 -167.1159 30255.8364 54.2967 98.6323
TCL: Running FEP window   6: Lambda1 0.7499999999999998 Lambda2 0.6999999999999997 [dLambda -0.050000000000000044]
TCL: Setting parameter firsttimestep to 0
TCL: Setting parameter alchLambda to 0.7499999999999998
Info: NONBONDED TABLE R-SQUARED SPACING: 0.0625
Info: NONBONDED TABLE SIZE: 705 POINTS
TCL: Setting parameter alchLambda2 to 0.6999999999999997
Info: NONBONDED TABLE R-SQUARED SPACING: 0.0625
Info: NONBONDED TABLE SIZE: 705 POINTS
TCL: Running for 1500000 steps
ETITLE: TS BOND ANGLE DIHED IMPRP ELECT VDW BOUNDARY MISC KINETIC TOTAL TEMP POTENTIAL TOTALAVG TEMPAVG PRESSURE GPRESSURE VOLUME PRESSAVG GPRESSAVG
ENERGY: 0 4.7513 14.7658 5.7566 0.0000 -10655.6887 1353.6456 0.0000 0.0000 1768.8825 -7507.8869 302.3581 -9276.7694 -7507.8869 302.3581 -248.6353 -171.8399 30255.8364 -248.6353 -171.8399
ENERGY: 300000 7.1531 9.9006 3.3938 0.0000 -10904.6417 1571.6565 0.0000 0.0000 1787.0331 -7525.5046 305.4606 -9312.5377 -7552.0603 301.5383 1348.4844 1446.6802 30025.2808 341.7069 390.1068
ENERGY: 600000 3.8201 14.6180 5.1216 0.0000 -10694.9833 1379.6150 0.0000 0.0000 1785.7469 -7506.0617 305.2407 -9291.8086 -7541.7271 302.2057 -174.5587 -70.6102 29981.2795 144.4817 208.9597
ENERGY: 900000 8.9629 7.8227 2.3673 0.0000 -10839.3577 1426.2286 0.0000 0.0000 1674.1510 -7719.8252 286.1655 -9393.9762 -7563.2974 300.0885 -362.1003 -251.3960 30035.4960 61.2408 126.3987
ENERGY: 1200000 4.6216 11.9103 6.1567 0.0000 -10700.7551 1378.1324 0.0000 0.0000 1736.1552 -7563.7788 296.7639 -9299.9340 -7575.2195 299.8666 -355.4715 -278.9816 30513.0506 15.1552 81.5952
ENERGY: 1500000 3.9687 11.0726 1.5402 0.0000 -10824.9139 1449.8615 0.0000 0.0000 1694.6178 -7663.8532 289.6639 -9358.4710 -7580.5000 299.7110 280.6672 348.6030 29812.3071 42.7081 107.3506
TCL: Running FEP window   7: Lambda1 0.6999999999999997 Lambda2 0.6499999999999997 [dLambda -0.050000000000000044]
TCL: Setting parameter firsttimestep to 0
TCL: Setting parameter alchLambda to 0.6999999999999997
Info: NONBONDED TABLE R-SQUARED SPACING: 0.0625
Info: NONBONDED TABLE SIZE: 705 POINTS
TCL: Setting parameter alchLambda2 to 0.6499999999999997
Info: NONBONDED TABLE R-SQUARED SPACING: 0.0625
Info: NONBONDED TABLE SIZE: 705 POINTS
TCL: Running for 1500000 steps
ETITLE: TS BOND ANGLE DIHED IMPRP ELECT VDW BOUNDARY MISC KINETIC TOTAL TEMP POTENTIAL TOTALAVG TEMPAVG PRESSURE GPRESSURE VOLUME PRESSAVG GPRESSAVG
ENERGY: 0 3.9687 11.0726 1.5402 0.0000 -10823.1113 1449.7952 0.0000 0.0000 1693.7803 -7662.9544 289.5207 -9356.7346 -7662.9544 289.5207 249.9175 335.8211 29812.3071 249.9175 335.8211
ENERGY: 300000 6.9913 21.3206 3.6317 0.0000 -10855.7605 1428.1790 0.0000 0.0000 1729.5180 -7666.1200 295.6294 -9395.6380 -7605.8902 296.0789 -208.5201 -104.6324 30134.5759 -406.9373 -320.6512
ENERGY: 600000 7.3749 11.9442 4.6941 0.0000 -10723.4458 1415.7044 0.0000 0.0000 1717.0521 -7566.6761 293.4986 -9283.7282 -7594.5743 296.1666 -117.6427 3.1759 30281.9653 -230.7958 -143.3420
ENERGY: 900000 4.8556 14.1819 2.9034 0.0000 -10893.9087 1504.0406 0.0000 0.0000 1727.7745 -7640.1526 295.3314 -9367.9271 -7583.5276 296.8728 483.1150 559.8482 30176.3342 -40.3883 37.4593
ENERGY: 1200000 4.2722 12.3508 3.8570 0.0000 -10767.1416 1395.3624 0.0000 0.0000 1809.4164 -7541.8828 309.2866 -9351.2992 -7571.9767 299.5248 -280.4664 -199.6252 30304.0797 -11.3147 59.5850
ENERGY: 1500000 5.2332 16.2303 3.7633 0.0000 -10882.6251 1509.6780 0.0000 0.0000 1754.5433 -7593.1769 299.9071 -9347.7202 -7573.6113 299.6244 450.4428 506.8324 30283.4024 -2.5797 67.1690
TCL: Running FEP window   8: Lambda1 0.6499999999999997 Lambda2 0.5999999999999996 [dLambda -0.050000000000000044]
TCL: Setting parameter firsttimestep to 0
TCL: Setting parameter alchLambda to 0.6499999999999997
Info: NONBONDED TABLE R-SQUARED SPACING: 0.0625
Info: NONBONDED TABLE SIZE: 705 POINTS
TCL: Setting parameter alchLambda2 to 0.5999999999999996
Info: NONBONDED TABLE R-SQUARED SPACING: 0.0625
Info: NONBONDED TABLE SIZE: 705 POINTS
TCL: Running for 1500000 steps
ETITLE: TS BOND ANGLE DIHED IMPRP ELECT VDW BOUNDARY MISC KINETIC TOTAL TEMP POTENTIAL TOTALAVG TEMPAVG PRESSURE GPRESSURE VOLUME PRESSAVG GPRESSAVG
ENERGY: 0 5.2332 16.2303 3.7633 0.0000 -10880.5235 1509.4617 0.0000 0.0000 1753.6532 -7592.1817 299.7549 -9345.8349 -7592.1817 299.7549 409.9088 497.9706 30283.4024 409.9088 497.9706
ENERGY: 300000 7.7337 14.6820 2.3095 0.0000 -10712.3471 1368.7080 0.0000 0.0000 1746.9602 -7571.9537 298.6109 -9318.9139 -7577.1395 299.7868 -618.4906 -556.7303 30166.7087 -12.5513 52.1614
ENERGY: 600000 5.7802 12.7021 4.4641 0.0000 -10658.9297 1335.6638 0.0000 0.0000 1768.4417 -7531.8779 302.2827 -9300.3196 -7565.8287 300.6349 -798.1889 -789.8253 30593.7326 -192.2359 -130.0032
ENERGY: 900000 3.0792 15.0108 1.8549 0.0000 -10771.9105 1453.2047 0.0000 0.0000 1706.6688 -7592.0920 291.7238 -9298.7608 -7571.8264 300.1963 158.0033 209.0312 30375.7998 -147.7465 -75.1661
ENERGY: 1200000 3.9330 12.6220 3.3573 0.0000 -10725.0678 1398.6093 0.0000 0.0000 1731.4449 -7575.1014 295.9588 -9306.5463 -7560.1653 300.7394 -203.1285 -181.0947 30231.2220 -149.8441 -78.8343
ENERGY: 1500000 5.3136 9.0632 3.3359 0.0000 -10801.7143 1431.6497 0.0000 0.0000 1771.3866 -7580.9652 302.7861 -9352.3518 -7560.6240 300.7032 -6.4390 7.1150 29926.0510 -138.1677 -69.7625
TCL: Running FEP window   9: Lambda1 0.5999999999999996 Lambda2 0.5499999999999996 [dLambda -0.050000000000000044]
TCL: Setting parameter firsttimestep to 0
TCL: Setting parameter alchLambda to 0.5999999999999996
Info: NONBONDED TABLE R-SQUARED SPACING: 0.0625
Info: NONBONDED TABLE SIZE: 705 POINTS
TCL: Setting parameter alchLambda2 to 0.5499999999999996
Info: NONBONDED TABLE R-SQUARED SPACING: 0.0625
Info: NONBONDED TABLE SIZE: 705 POINTS
TCL: Running for 1500000 steps
ETITLE: TS BOND ANGLE DIHED IMPRP ELECT VDW BOUNDARY MISC KINETIC TOTAL TEMP POTENTIAL TOTALAVG TEMPAVG PRESSURE GPRESSURE VOLUME PRESSAVG GPRESSAVG
ENERGY: 0 5.3136 9.0632 3.3359 0.0000 -10798.4937 1430.6234 0.0000 0.0000 1770.5232 -7579.6343 302.6385 -9350.1575 -7579.6343 302.6385 -91.4049 -10.3531 29926.0510 -91.4049 -10.3531
ENERGY: 300000 3.8191 10.1284 2.9083 0.0000 -10711.9695 1363.9430 0.0000 0.0000 1762.6985 -7568.4722 301.3010 -9331.1707 -7548.0375 301.3084 -471.7287 -359.2339 30071.7746 -399.8127 -305.0452
ENERGY: 600000 6.1215 10.8202 3.5451 0.0000 -10770.9771 1394.9417 0.0000 0.0000 1753.4712 -7602.0774 299.7238 -9355.5486 -7559.6670 299.8301 -376.4068 -281.9229 30157.6236 -495.1730 -408.9183
ENERGY: 900000 5.3446 13.8544 3.6111 0.0000 -10705.3871 1430.3887 0.0000 0.0000 1752.1781 -7500.0101 299.5028 -9252.1882 -7567.5517 298.9085 -238.7182 -137.4235 30550.8074 -270.8034 -186.4012
ENERGY: 1200000 5.4771 12.7745 2.0649 0.0000 -10725.8152 1384.3714 0.0000 0.0000 1768.1612 -7552.9661 302.2348 -9321.1273 -7565.2854 299.1393 -527.7383 -475.9367 30591.2757 -205.4323 -131.7603
ENERGY: 1500000 3.7302 14.5980 3.5576 0.0000 -10679.1615 1383.5138 0.0000 0.0000 1799.6889 -7474.0731 307.6239 -9273.7620 -7558.2159 299.4079 -328.8271 -222.6464 30602.8882 -221.7777 -146.4617
TCL: Running FEP window  10: Lambda1 0.5499999999999996 Lambda2 0.4999999999999996 [dLambda -0.04999999999999999]
TCL: Setting parameter firsttimestep to 0
TCL: Setting parameter alchLambda to 0.5499999999999996
Info: NONBONDED TABLE R-SQUARED SPACING: 0.0625
Info: NONBONDED TABLE SIZE: 705 POINTS
TCL: Setting parameter alchLambda2 to 0.4999999999999996
Info: NONBONDED TABLE R-SQUARED SPACING: 0.0625
Info: NONBONDED TABLE SIZE: 705 POINTS
TCL: Running for 1500000 steps
ETITLE: TS BOND ANGLE DIHED IMPRP ELECT VDW BOUNDARY MISC KINETIC TOTAL TEMP POTENTIAL TOTALAVG TEMPAVG PRESSURE GPRESSURE VOLUME PRESSAVG GPRESSAVG
ENERGY: 0 3.7302 14.5980 3.5576 0.0000 -10676.8078 1382.2485 0.0000 0.0000 1798.8013 -7473.8721 307.4721 -9272.6735 -7473.8721 307.4721 -328.4543 -241.2341 30602.8882 -328.4543 -241.2341
ENERGY: 300000 3.2315 14.4635 3.8020 0.0000 -10732.7489 1361.3790 0.0000 0.0000 1732.4125 -7617.4604 296.1242 -9349.8729 -7524.0571 301.4097 -773.8534 -670.2108 30764.9804 -32.2053 53.6828
ENERGY: 600000 5.1892 12.5794 4.9526 0.0000 -10614.2843 1338.2621 0.0000 0.0000 1737.5610 -7515.7400 297.0042 -9253.3010 -7535.1279 300.9871 -868.6754 -780.4731 30993.3152 -204.6326 -110.8836
ENERGY: 900000 3.2696 14.8618 4.7988 0.0000 -10761.1792 1390.5260 0.0000 0.0000 1705.9927 -7641.7303 291.6082 -9347.7230 -7555.7155 300.2917 -455.0637 -357.1766 30130.5257 -228.3961 -139.4728
ENERGY: 1200000 6.1918 9.0196 3.1877 0.0000 -10585.1222 1324.7595 0.0000 0.0000 1691.1468 -7550.8168 289.0706 -9241.9636 -7568.4956 298.4799 -823.0160 -754.5084 30698.3367 -261.7660 -181.9510
ENERGY: 1500000 3.2477 11.0592 5.2390 0.0000 -10765.1224 1355.4634 0.0000 0.0000 1750.2310 -7639.8821 299.1699 -9390.1131 -7575.8292 298.1900 -597.3688 -580.6532 29938.0294 -210.5439 -138.2575
TCL: Running FEP window  11: Lambda1 0.4999999999999996 Lambda2 0.4499999999999996 [dLambda -0.04999999999999999]
TCL: Setting parameter firsttimestep to 0
TCL: Setting parameter alchLambda to 0.4999999999999996
Info: NONBONDED TABLE R-SQUARED SPACING: 0.0625
Info: NONBONDED TABLE SIZE: 705 POINTS
TCL: Setting parameter alchLambda2 to 0.4499999999999996
Info: NONBONDED TABLE R-SQUARED SPACING: 0.0625
Info: NONBONDED TABLE SIZE: 705 POINTS
TCL: Running for 1500000 steps
ETITLE: TS BOND ANGLE DIHED IMPRP ELECT VDW BOUNDARY MISC KINETIC TOTAL TEMP POTENTIAL TOTALAVG TEMPAVG PRESSURE GPRESSURE VOLUME PRESSAVG GPRESSAVG
ENERGY: 0 3.2477 11.0592 5.2390 0.0000 -10764.9936 1356.0131 0.0000 0.0000 1749.3978 -7640.0368 299.0275 -9389.4346 -7640.0368 299.0275 -656.0787 -589.1388 29938.0294 -656.0787 -589.1388
ENERGY: 300000 4.6216 13.8106 1.9482 0.0000 -10679.3603 1358.8246 0.0000 0.0000 1734.7231 -7565.4321 296.5191 -9300.1552 -7617.6505 294.4148 -773.5224 -718.5275 30424.6465 -558.1971 -514.0194
ENERGY: 600000 6.6152 14.3594 3.6178 0.0000 -10907.9376 1565.8651 0.0000 0.0000 1727.7987 -7589.6813 295.3356 -9317.4800 -7586.0773 298.1637 1115.7650 1163.2184 29875.9297 -274.6926 -223.0978
ENERGY: 900000 6.7899 13.7406 2.8896 0.0000 -10878.6973 1478.4257 0.0000 0.0000 1805.0622 -7571.7893 308.5423 -9376.8515 -7597.4165 297.9123 301.6738 269.7792 30391.6244 -287.1013 -235.7272
ENERGY: 1200000 3.2498 11.5287 5.3401 0.0000 -10715.4826 1423.0329 0.0000 0.0000 1854.0433 -7418.2877 316.9148 -9272.3310 -7592.8096 299.7201 60.8878 125.6460 30323.2590 -269.7711 -216.0650
ENERGY: 1500000 5.2693 12.6450 3.9386 0.0000 -10807.5982 1444.4338 0.0000 0.0000 1745.6838 -7595.6276 298.3927 -9341.3114 -7588.0680 299.6982 447.4023 570.2017 29570.2912 -206.3001 -148.3619
TCL: Running FEP window  12: Lambda1 0.4499999999999996 Lambda2 0.39999999999999963 [dLambda -0.04999999999999999]
TCL: Setting parameter firsttimestep to 0
TCL: Setting parameter alchLambda to 0.4499999999999996
Info: NONBONDED TABLE R-SQUARED SPACING: 0.0625
Info: NONBONDED TABLE SIZE: 705 POINTS
TCL: Setting parameter alchLambda2 to 0.39999999999999963
Info: NONBONDED TABLE R-SQUARED SPACING: 0.0625
Info: NONBONDED TABLE SIZE: 705 POINTS
TCL: Running for 1500000 steps
ETITLE: TS BOND ANGLE DIHED IMPRP ELECT VDW BOUNDARY MISC KINETIC TOTAL TEMP POTENTIAL TOTALAVG TEMPAVG PRESSURE GPRESSURE VOLUME PRESSAVG GPRESSAVG
ENERGY: 0 5.2693 12.6450 3.9386 0.0000 -10807.5963 1444.9753 0.0000 0.0000 1744.8313 -7595.9366 298.2470 -9340.7680 -7595.9366 298.2470 465.4064 562.0349 29570.2912 465.4064 562.0349
ENERGY: 300000 3.6289 13.2537 5.2755 0.0000 -10825.1789 1476.1875 0.0000 0.0000 1813.5751 -7513.2582 309.9975 -9326.8334 -7524.5294 305.2341 433.0309 407.7179 30347.1146 587.0736 639.9380
ENERGY: 600000 5.4786 8.3871 2.5633 0.0000 -10599.7293 1360.3667 0.0000 0.0000 1731.0738 -7491.8598 295.8954 -9222.9336 -7536.5133 301.7912 -435.8894 -373.6985 30781.5805 284.9230 338.5617
ENERGY: 900000 4.3521 13.4114 4.0459 0.0000 -10700.7279 1387.3876 0.0000 0.0000 1748.1346 -7543.3963 298.8116 -9291.5309 -7544.5958 300.5270 -211.7363 -135.1131 30127.5242 122.3688 186.7858
ENERGY: 1200000 6.8106 11.7580 3.6934 0.0000 -10781.6219 1455.4608 0.0000 0.0000 1777.4462 -7526.4529 303.8219 -9303.8992 -7548.1282 301.4444 445.1377 477.4969 30051.3191 98.6524 163.7069
ENERGY: 1500000 4.1101 11.7731 3.0751 0.0000 -10845.4013 1473.2696 0.0000 0.0000 1785.3759 -7567.7975 305.1773 -9353.1735 -7554.2430 302.5123 598.9225 669.9925 29752.0162 126.8042 190.7694
TCL: Running FEP window  13: Lambda1 0.39999999999999963 Lambda2 0.34999999999999964 [dLambda -0.04999999999999999]
TCL: Setting parameter firsttimestep to 0
TCL: Setting parameter alchLambda to 0.39999999999999963
Info: NONBONDED TABLE R-SQUARED SPACING: 0.0625
Info: NONBONDED TABLE SIZE: 705 POINTS
TCL: Setting parameter alchLambda2 to 0.34999999999999964
Info: NONBONDED TABLE R-SQUARED SPACING: 0.0625
Info: NONBONDED TABLE SIZE: 705 POINTS
TCL: Running for 1500000 steps
ETITLE: TS BOND ANGLE DIHED IMPRP ELECT VDW BOUNDARY MISC KINETIC TOTAL TEMP POTENTIAL TOTALAVG TEMPAVG PRESSURE GPRESSURE VOLUME PRESSAVG GPRESSAVG
ENERGY: 0 4.1101 11.7731 3.0751 0.0000 -10845.4025 1473.6515 0.0000 0.0000 1784.4679 -7568.3249 305.0221 -9352.7927 -7568.3249 305.0221 584.1801 663.1619 29752.0162 584.1801 663.1619
ENERGY: 300000 4.2666 11.3280 2.9193 0.0000 -10683.8681 1413.0155 0.0000 0.0000 1786.0103 -7466.3284 305.2858 -9252.3387 -7512.4212 303.6493 290.5310 417.9053 29730.6950 51.7371 140.9212
ENERGY: 600000 4.3419 12.7443 5.5355 0.0000 -10746.6651 1374.8343 0.0000 0.0000 1760.1793 -7589.0298 300.8704 -9349.2091 -7552.2972 301.8656 -717.8756 -660.4415 30355.7630 -92.0426 -11.2354
ENERGY: 900000 7.6571 10.3623 1.8897 0.0000 -10761.4221 1441.5902 0.0000 0.0000 1815.4160 -7484.5069 310.3121 -9299.9228 -7542.3875 302.8607 297.9972 330.5356 30080.6474 -181.5049 -117.9055
ENERGY: 1200000 5.4245 13.8911 5.6747 0.0000 -10772.1672 1431.1012 0.0000 0.0000 1722.7347 -7593.3411 294.4699 -9316.0757 -7550.2149 300.9031 -154.0148 -83.6754 30291.9240 -147.4168 -79.2612
ENERGY: 1500000 6.0625 13.6233 4.9273 0.0000 -10871.8261 1509.8667 0.0000 0.0000 1782.8588 -7554.4875 304.7471 -9337.3462 -7555.2200 301.6668 960.8406 1056.5422 29887.1125 -59.0643 6.5830
TCL: Running FEP window  14: Lambda1 0.34999999999999964 Lambda2 0.29999999999999966 [dLambda -0.04999999999999999]
TCL: Setting parameter firsttimestep to 0
TCL: Setting parameter alchLambda to 0.34999999999999964
Info: NONBONDED TABLE R-SQUARED SPACING: 0.0625
Info: NONBONDED TABLE SIZE: 705 POINTS
TCL: Setting parameter alchLambda2 to 0.29999999999999966
Info: NONBONDED TABLE R-SQUARED SPACING: 0.0625
Info: NONBONDED TABLE SIZE: 705 POINTS
TCL: Running for 1500000 steps
ETITLE: TS BOND ANGLE DIHED IMPRP ELECT VDW BOUNDARY MISC KINETIC TOTAL TEMP POTENTIAL TOTALAVG TEMPAVG PRESSURE GPRESSURE VOLUME PRESSAVG GPRESSAVG
ENERGY: 0 6.0625 13.6233 4.9273 0.0000 -10871.8261 1509.8265 0.0000 0.0000 1782.0168 -7555.3697 304.6031 -9337.3864 -7555.3697 304.6031 953.1889 1047.6528 29887.1125 953.1889 1047.6528
ENERGY: 300000 5.1448 17.2853 6.4983 0.0000 -10772.2385 1428.1381 0.0000 0.0000 1755.4063 -7559.7658 300.0546 -9315.1720 -7578.1900 297.8511 -8.9881 90.7196 30086.0951 -22.5325 69.3634
ENERGY: 600000 4.1636 12.6410 4.5287 0.0000 -10794.9320 1450.4885 0.0000 0.0000 1772.9058 -7550.2043 303.0458 -9323.1101 -7561.9222 299.0442 299.4705 332.4892 29926.3232 126.3488 211.6888
ENERGY: 900000 5.8016 12.6439 3.0077 0.0000 -10795.4972 1472.9044 0.0000 0.0000 1782.2829 -7518.8567 304.6486 -9301.1397 -7565.2407 299.6238 460.5911 534.9776 29700.2234 182.3926 271.8383
ENERGY: 1200000 4.6260 17.3716 2.8687 0.0000 -10819.9433 1424.2789 0.0000 0.0000 1741.4395 -7629.3587 297.6672 -9370.7982 -7569.0232 298.9995 -196.2586 -214.2676 30148.0505 153.5180 234.2984
ENERGY: 1500000 3.6695 13.5964 3.4216 0.0000 -10666.1026 1365.7083 0.0000 0.0000 1767.4301 -7512.2767 302.1098 -9279.7069 -7563.9313 299.5916 -820.0434 -736.5060 30851.4034 67.7537 144.4073
TCL: Running FEP window  15: Lambda1 0.29999999999999966 Lambda2 0.24999999999999967 [dLambda -0.04999999999999999]
TCL: Setting parameter firsttimestep to 0
TCL: Setting parameter alchLambda to 0.29999999999999966
Info: NONBONDED TABLE R-SQUARED SPACING: 0.0625
Info: NONBONDED TABLE SIZE: 705 POINTS
TCL: Setting parameter alchLambda2 to 0.24999999999999967
Info: NONBONDED TABLE R-SQUARED SPACING: 0.0625
Info: NONBONDED TABLE SIZE: 705 POINTS
TCL: Running for 1500000 steps
ETITLE: TS BOND ANGLE DIHED IMPRP ELECT VDW BOUNDARY MISC KINETIC TOTAL TEMP POTENTIAL TOTALAVG TEMPAVG PRESSURE GPRESSURE VOLUME PRESSAVG GPRESSAVG
ENERGY: 0 3.6695 13.5964 3.4216 0.0000 -10666.1023 1366.2589 0.0000 0.0000 1766.4945 -7512.6614 301.9499 -9279.1559 -7512.6614 301.9499 -820.3666 -738.1904 30851.4034 -820.3666 -738.1904
ENERGY: 300000 2.4777 12.0778 3.9568 0.0000 -10764.1568 1467.7869 0.0000 0.0000 1751.0307 -7526.8270 299.3066 -9277.8577 -7532.0552 297.7362 281.1136 349.9326 30525.2644 221.4659 266.0584
ENERGY: 600000 9.2811 10.9614 2.6969 0.0000 -10988.2734 1554.4643 0.0000 0.0000 1734.3836 -7676.4861 296.4611 -9410.8697 -7578.6819 297.3585 567.9456 614.9743 30275.7152 237.1242 293.7262
ENERGY: 900000 5.6877 16.4264 5.7913 0.0000 -10802.3764 1427.1997 0.0000 0.0000 1737.3679 -7609.9034 296.9712 -9347.2713 -7582.1917 297.3514 -386.1223 -370.5589 30504.4882 395.9909 457.2440
ENERGY: 1200000 8.1554 17.0339 1.5208 0.0000 -10695.1124 1354.3693 0.0000 0.0000 1763.6783 -7550.3547 301.4685 -9314.0330 -7576.0220 296.8906 -816.0742 -773.1881 30346.3513 240.6563 302.8219
ENERGY: 1500000 7.3889 16.0223 4.9690 0.0000 -10721.5268 1428.0121 0.0000 0.0000 1754.2639 -7510.8704 299.8593 -9265.1343 -7566.9770 297.9366 -70.2300 -23.6882 30366.8355 200.9483 261.9842
TCL: Running FEP window  16: Lambda1 0.24999999999999967 Lambda2 0.19999999999999968 [dLambda -0.04999999999999999]
TCL: Setting parameter firsttimestep to 0
TCL: Setting parameter alchLambda to 0.24999999999999967
Info: NONBONDED TABLE R-SQUARED SPACING: 0.0625
Info: NONBONDED TABLE SIZE: 705 POINTS
TCL: Setting parameter alchLambda2 to 0.19999999999999968
Info: NONBONDED TABLE R-SQUARED SPACING: 0.0625
Info: NONBONDED TABLE SIZE: 705 POINTS
TCL: Running for 1500000 steps
ETITLE: TS BOND ANGLE DIHED IMPRP ELECT VDW BOUNDARY MISC KINETIC TOTAL TEMP POTENTIAL TOTALAVG TEMPAVG PRESSURE GPRESSURE VOLUME PRESSAVG GPRESSAVG
ENERGY: 0 7.3889 16.0223 4.9690 0.0000 -10721.5262 1428.6575 0.0000 0.0000 1753.3749 -7511.1134 299.7073 -9264.4884 -7511.1134 299.7073 -107.9773 -28.7656 30366.8355 -107.9773 -28.7656
ENERGY: 300000 3.6979 18.6528 3.3040 0.0000 -10878.5250 1579.4562 0.0000 0.0000 1774.7470 -7498.6671 303.3605 -9273.4141 -7557.4412 297.5215 1230.7800 1302.8739 29793.6046 161.2070 207.1494
ENERGY: 600000 5.9522 13.4773 4.2140 0.0000 -10708.3755 1400.8061 0.0000 0.0000 1737.6748 -7546.2511 297.0237 -9283.9258 -7550.9581 297.3985 78.8799 146.7785 29847.5586 125.0902 166.1300
ENERGY: 900000 8.5256 12.6175 1.6688 0.0000 -10790.2640 1424.1778 0.0000 0.0000 1728.9800 -7614.2942 295.5375 -9343.2742 -7548.8335 299.2403 -15.7738 92.4898 30012.0136 292.7961 339.2573
ENERGY: 1200000 4.2013 10.4026 5.5270 0.0000 -10661.5766 1373.9302 0.0000 0.0000 1668.9397 -7598.5757 285.2747 -9267.5155 -7554.0038 298.7345 -568.3114 -537.8281 30328.2304 195.7800 238.7983
ENERGY: 1500000 4.1470 15.6585 2.5761 0.0000 -10716.2478 1359.7273 0.0000 0.0000 1748.7282 -7585.4107 298.9131 -9334.1389 -7552.0581 299.3178 -647.0556 -644.3933 30325.0393 166.2221 214.3992
TCL: Running FEP window  17: Lambda1 0.19999999999999968 Lambda2 0.1499999999999997 [dLambda -0.04999999999999999]
TCL: Setting parameter firsttimestep to 0
TCL: Setting parameter alchLambda to 0.19999999999999968
Info: NONBONDED TABLE R-SQUARED SPACING: 0.0625
Info: NONBONDED TABLE SIZE: 705 POINTS
TCL: Setting parameter alchLambda2 to 0.1499999999999997
Info: NONBONDED TABLE R-SQUARED SPACING: 0.0625
Info: NONBONDED TABLE SIZE: 705 POINTS
TCL: Running for 1500000 steps
ETITLE: TS BOND ANGLE DIHED IMPRP ELECT VDW BOUNDARY MISC KINETIC TOTAL TEMP POTENTIAL TOTALAVG TEMPAVG PRESSURE GPRESSURE VOLUME PRESSAVG GPRESSAVG
ENERGY: 0 4.1470 15.6585 2.5761 0.0000 -10716.2476 1360.3308 0.0000 0.0000 1747.8882 -7585.6470 298.7695 -9333.5352 -7585.6470 298.7695 -715.6040 -643.9671 30325.0393 -715.6040 -643.9671
ENERGY: 300000 3.9507 12.6716 3.2838 0.0000 -10788.5320 1430.9774 0.0000 0.0000 1751.1803 -7586.4681 299.3322 -9337.6484 -7547.9121 301.1546 -11.2092 73.0167 29746.8439 -433.7639 -364.5124
ENERGY: 600000 1.7760 16.1919 4.1080 0.0000 -10698.4953 1318.8090 0.0000 0.0000 1729.8078 -7627.8026 295.6790 -9357.6104 -7576.1600 301.7352 -722.8049 -660.9173 29660.0075 -346.1681 -290.3192
ENERGY: 900000 7.0903 9.8782 3.2945 0.0000 -10704.5738 1376.3536 0.0000 0.0000 1799.5436 -7508.4137 307.5990 -9307.9573 -7563.9449 302.0126 -482.6750 -418.0775 30537.8900 -457.2106 -402.7177
ENERGY: 1200000 6.6751 11.9769 2.2545 0.0000 -10736.0630 1390.5822 0.0000 0.0000 1722.0404 -7602.5340 294.3513 -9324.5744 -7583.6562 299.8105 -227.2306 -174.8657 29804.7046 -407.9554 -359.5465
ENERGY: 1500000 10.5201 14.7275 1.0892 0.0000 -10865.0800 1508.0193 0.0000 0.0000 1720.4397 -7610.2843 294.0777 -9330.7239 -7574.8929 299.6685 434.1219 479.6174 29955.0149 -296.9708 -251.8152
TCL: Running FEP window  18: Lambda1 0.1499999999999997 Lambda2 0.09999999999999969 [dLambda -0.05 ]
TCL: Setting parameter firsttimestep to 0
TCL: Setting parameter alchLambda to 0.1499999999999997
Info: NONBONDED TABLE R-SQUARED SPACING: 0.0625
Info: NONBONDED TABLE SIZE: 705 POINTS
TCL: Setting parameter alchLambda2 to 0.09999999999999969
Info: NONBONDED TABLE R-SQUARED SPACING: 0.0625
Info: NONBONDED TABLE SIZE: 705 POINTS
TCL: Running for 1500000 steps
ETITLE: TS BOND ANGLE DIHED IMPRP ELECT VDW BOUNDARY MISC KINETIC TOTAL TEMP POTENTIAL TOTALAVG TEMPAVG PRESSURE GPRESSURE VOLUME PRESSAVG GPRESSAVG
ENERGY: 0 10.5201 14.7275 1.0892 0.0000 -10865.0796 1507.6407 0.0000 0.0000 1719.5574 -7611.5448 293.9268 -9331.1021 -7611.5448 293.9268 393.6689 471.5019 29955.0149 393.6689 471.5019
ENERGY: 300000 2.9092 10.6636 8.3476 0.0000 -10845.6358 1492.4908 0.0000 0.0000 1828.4064 -7502.8181 312.5326 -9331.2245 -7523.2458 303.6457 509.4660 576.1937 30017.7362 288.0594 349.3049
ENERGY: 600000 7.4810 12.8363 4.3935 0.0000 -10849.4560 1502.3121 0.0000 0.0000 1746.4112 -7576.0219 298.5170 -9322.4331 -7540.0618 301.4741 292.0165 317.4371 29707.2967 163.3377 226.9430
ENERGY: 900000 3.7879 11.6667 3.6509 0.0000 -10787.3178 1485.6813 0.0000 0.0000 1769.7343 -7512.7967 302.5037 -9282.5310 -7546.4023 300.2406 514.8383 581.3982 29970.1112 141.2432 208.7470
ENERGY: 1200000 3.1938 10.7589 1.9252 0.0000 -10620.4626 1335.5206 0.0000 0.0000 1753.1505 -7515.9136 299.6690 -9269.0641 -7541.7474 300.9039 -798.0249 -719.7241 30735.9011 100.6683 170.1203
ENERGY: 1500000 5.3609 13.8309 4.4296 0.0000 -10747.9399 1444.7351 0.0000 0.0000 1755.6100 -7523.9734 300.0894 -9279.5834 -7549.1571 300.9428 98.9310 85.9397 30045.5409 45.8491 113.5932
TCL: Running FEP window  19: Lambda1 0.09999999999999969 Lambda2 0.049999999999999684 [dLambda -0.05 ]
TCL: Setting parameter firsttimestep to 0
TCL: Setting parameter alchLambda to 0.09999999999999969
Info: NONBONDED TABLE R-SQUARED SPACING: 0.0625
Info: NONBONDED TABLE SIZE: 705 POINTS
TCL: Setting parameter alchLambda2 to 0.049999999999999684
Info: NONBONDED TABLE R-SQUARED SPACING: 0.0625
Info: NONBONDED TABLE SIZE: 705 POINTS
TCL: Running for 1500000 steps
ETITLE: TS BOND ANGLE DIHED IMPRP ELECT VDW BOUNDARY MISC KINETIC TOTAL TEMP POTENTIAL TOTALAVG TEMPAVG PRESSURE GPRESSURE VOLUME PRESSAVG GPRESSAVG
ENERGY: 0 5.3609 13.8309 4.4296 0.0000 -10747.9394 1444.9957 0.0000 0.0000 1754.7440 -7524.5783 299.9414 -9279.3223 -7524.5783 299.9414 17.7660 83.6908 30045.5409 17.7660 83.6908
ENERGY: 300000 6.3171 13.7454 2.7677 0.0000 -10759.4080 1407.0946 0.0000 0.0000 1836.2107 -7493.2726 313.8666 -9329.4833 -7535.9970 301.4730 -444.9642 -366.1832 30161.6899 160.8439 232.8517
ENERGY: 600000 6.8052 10.4666 5.9383 0.0000 -10867.2569 1488.7119 0.0000 0.0000 1752.7842 -7602.5507 299.6064 -9355.3349 -7554.4905 299.5557 313.4097 369.6775 29835.0464 -10.2830 64.2273
ENERGY: 900000 3.6899 13.0895 4.3521 0.0000 -10883.8568 1452.1315 0.0000 0.0000 1788.2374 -7622.3563 305.6664 -9410.5937 -7554.6876 300.7736 -4.7177 41.9128 29724.4365 4.7518 72.5592
ENERGY: 1200000 4.9616 13.3546 2.2712 0.0000 -10715.8673 1364.2766 0.0000 0.0000 1780.0170 -7550.9864 304.2613 -9331.0033 -7550.7510 300.1763 -812.8694 -741.4835 30389.2011 -63.9717 6.2302
ENERGY: 1500000 1.4989 15.3694 2.7564 0.0000 -10736.0672 1364.7967 0.0000 0.0000 1819.5429 -7532.1029 311.0175 -9351.6458 -7552.7191 300.3641 -713.0348 -674.4405 30270.1020 -120.0672 -51.0230
TCL: Running FEP window  20: Lambda1 0.049999999999999684 Lambda2 0.0    [dLambda -0.049999999999999684]
TCL: Setting parameter firsttimestep to 0
TCL: Setting parameter alchLambda to 0.049999999999999684
Info: NONBONDED TABLE R-SQUARED SPACING: 0.0625
Info: NONBONDED TABLE SIZE: 705 POINTS
TCL: Setting parameter alchLambda2 to 0.0
Info: NONBONDED TABLE R-SQUARED SPACING: 0.0625
Info: NONBONDED TABLE SIZE: 705 POINTS
TCL: Running for 1500000 steps
ETITLE: TS BOND ANGLE DIHED IMPRP ELECT VDW BOUNDARY MISC KINETIC TOTAL TEMP POTENTIAL TOTALAVG TEMPAVG PRESSURE GPRESSURE VOLUME PRESSAVG GPRESSAVG
ENERGY: 0 1.4989 15.3694 2.7564 0.0000 -10736.0661 1363.9112 0.0000 0.0000 1818.6994 -7533.8308 310.8734 -9352.5302 -7533.8308 310.8734 -761.0273 -680.5476 30270.1020 -761.0273 -680.5476
ENERGY: 300000 6.4080 14.0533 5.7291 0.0000 -10782.6710 1447.3604 0.0000 0.0000 1716.0339 -7593.0864 293.3246 -9309.1203 -7572.7403 302.5779 -10.2534 -14.8193 30398.4778 -72.4350 -17.3416
ENERGY: 600000 4.7898 12.0384 3.7617 0.0000 -10674.5370 1403.5922 0.0000 0.0000 1737.6499 -7512.7049 297.0194 -9250.3548 -7556.9730 301.1556 -295.0889 -242.4684 30566.9960 -11.1116 31.6905
ENERGY: 900000 2.5855 9.8451 3.8029 0.0000 -10720.7071 1386.7036 0.0000 0.0000 1766.3400 -7551.4301 301.9235 -9317.7701 -7555.8463 301.2023 -509.9470 -473.7520 30292.5633 -224.2303 -185.8185
ENERGY: 1200000 9.1061 12.1680 5.2425 0.0000 -10906.3511 1508.3865 0.0000 0.0000 1793.9892 -7577.4589 306.6496 -9371.4481 -7557.6092 301.2225 400.6643 503.8345 29494.9145 -97.4331 -51.5731
ENERGY: 1500000 4.7222 12.9073 3.7381 0.0000 -10807.7315 1462.3518 0.0000 0.0000 1737.6090 -7586.4031 297.0124 -9324.0121 -7561.2729 300.4626 -119.7657 29.3353 30052.6250 -112.8861 -58.1505
TCL: Exiting due to exit command.
