Info: SIMULATION PARAMETERS:
Info: TIMESTEP               2
Info: NUMBER OF STEPS        0
Info: STEPS PER CYCLE        10
Info: PERIODIC CELL BASIS 1  32.0718 0 0
Info: PERIODIC CELL BASIS 2  0 31.4188 0
Info: PERIODIC CELL BASIS 3  0 0 29.6913
Info: PERIODIC CELL CENTER   0 0 0
Info: WRAPPING WATERS AROUND PERIODIC BOUNDARIES ON OUTPUT.
Info: WRAPPING ALL CLUSTERS AROUND PERIODIC BOUNDARIES ON OUTPUT.
Info: FIRST LDB TIMESTEP     50
Info: LAST LDB TIMESTEP     -1
Info: HOM BACKGROUND SCALING 1
Info: PME BACKGROUND SCALING 1
Info: MIN ATOMS PER PATCH    40
Info: EMPTY PATCH LOAD       40 ATOMS
Info: VELOCITY FILE          mobley_9729792_equil.vel
Info: CENTER OF MASS MOVING INITIALLY? NO
Info: DIELECTRIC             1
Info: EXCLUDE                SCALED ONE-FOUR
Info: 1-4 ELECTROSTATICS SCALED BY 0.833333
Info: MODIFIED 1-4 VDW PARAMETERS WILL BE USED
Info: DCD FILENAME           mobley_9729792_prod.dcd
Info: DCD FREQUENCY          100000
Info: DCD FIRST STEP         100000
Info: DCD FILE WILL CONTAIN UNIT CELL DATA
Info: XST FILENAME           mobley_9729792_prod.xst
Info: XST FREQUENCY          100000
Info: NO VELOCITY DCD OUTPUT
Info: NO FORCE DCD OUTPUT
Info: OUTPUT FILENAME        mobley_9729792_prod
Info: BINARY OUTPUT FILES WILL BE USED
Info: RESTART FILENAME       mobley_9729792_prod.restart
Info: RESTART FREQUENCY      100000
Info: BINARY RESTART FILES WILL BE USED
Info: CUTOFF                 9
Info: PAIRLIST DISTANCE      11
Info: PAIRLIST SHRINK RATE   0.01
Info: PAIRLIST GROW RATE     0.01
Info: PAIRLIST TRIGGER       0.3
Info: PAIRLISTS PER CYCLE    2
Info: PAIRLISTS ENABLED
Info: MARGIN                 2
Info: HYDROGEN GROUP CUTOFF  2.5
Info: PATCH DIMENSION        15.5
Info: ENERGY OUTPUT STEPS    100000
Info: ENERGY EVALUATION STEPS    100000
Info: OUTPUT ENERGY PRECISION 4
Info: CROSSTERM ENERGY INCLUDED IN DIHEDRAL
Info: TIMING OUTPUT STEPS    1000000
Info: PRESSURE OUTPUT STEPS  100000
Info: ALCHEMICAL FEP ON
Info: FEP CURRENT LAMBDA VALUE     1
Info: FEP COMPARISON LAMBDA VALUE  0.95
Info: FEP INTRA-ALCHEMICAL NON-BONDED INTERACTIONS WILL BE RETAINED
Info: FEP INTRA-ALCHEMICAL BONDED INTERACTIONS WILL BE RETAINED
Info: FEP VDW SHIFTING COEFFICIENT 5
Info: FEP ELEC. ACTIVE FOR ANNIHILATED PARTICLES BETWEEN LAMBDA = 0 AND LAMBDA = 0.5
Info: FEP ELEC. ACTIVE FOR EXNIHILATED PARTICLES BETWEEN LAMBDA = 0.5 AND LAMBDA = 1
Info: FEP VDW ACTIVE FOR ANNIHILATED PARTICLES BETWEEN LAMBDA = 0 AND LAMBDA = 1
Info: FEP VDW ACTIVE FOR EXNIHILATED PARTICLES BETWEEN LAMBDA = 0 AND LAMBDA = 1
Info: FEP BOND ACTIVE FOR ANNIHILATED PARTICLES BETWEEN LAMBDA = 1 AND LAMBDA = 1
Info: FEP BOND ACTIVE FOR EXNIHILATED PARTICLES BETWEEN LAMBDA = 0 AND LAMBDA = 0
Info: LANGEVIN DYNAMICS ACTIVE
Info: LANGEVIN TEMPERATURE   300
Info: LANGEVIN USING BBK INTEGRATOR
Info: LANGEVIN DAMPING COEFFICIENT IS 1 INVERSE PS
Info: LANGEVIN DYNAMICS APPLIED TO HYDROGENS
Info: LANGEVIN PISTON PRESSURE CONTROL ACTIVE
Info:        TARGET PRESSURE IS 1.01325 BAR
Info:     OSCILLATION PERIOD IS 50 FS
Info:             DECAY TIME IS 25 FS
Info:     PISTON TEMPERATURE IS 300 K
Info:       PRESSURE CONTROL IS GROUP-BASED
Info:    INITIAL STRAIN RATE IS 8.24452e-05 8.24452e-05 8.24452e-05
Info:       CELL FLUCTUATION IS ISOTROPIC
Info: PARTICLE MESH EWALD (PME) ACTIVE
Info: PME TOLERANCE               1e-06
Info: PME EWALD COEFFICIENT       0.348832
Info: PME INTERPOLATION ORDER     4
Info: PME GRID DIMENSIONS         36 32 32
Info: PME MAXIMUM GRID SPACING    1
Info: PME CALCULATION WILL BE PERFORMED ON GPU
Info: FULL ELECTROSTATIC EVALUATION FREQUENCY      2
Info: USING VERLET I (r-RESPA) MTS SCHEME.
Info: C1 SPLITTING OF LONG RANGE ELECTROSTATICS
Info: PLACING ATOMS IN PATCHES BY HYDROGEN GROUPS
Info: RIGID BONDS TO HYDROGEN : ALL
Info:         ERROR TOLERANCE : 1e-08
Info:          MAX ITERATIONS : 100
Info: RIGID WATER USING SETTLE ALGORITHM
Info: RANDOM NUMBER SEED     1743591942
Info: USE HYDROGEN BONDS?    NO
Info: Using AMBER format force field!
Info: AMBER PARM FILE        mobley_9729792.prmtop
Info: COORDINATE PDB         mobley_9729792.pdb
Info: Exclusions will be read from PARM file!
Info: SCNB (VDW SCALING)     2
Info: USING ARITHMETIC MEAN TO COMBINE L-J SIGMA PARAMETERS
Info: BINARY COORDINATES     mobley_9729792_equil.coor
Info: SUMMARY OF PARAMETERS:
Info: 12 BONDS
Info: 18 ANGLES
Info:   18 HARMONIC
Info:   0 COSINE-BASED
Info: 4 DIHEDRAL
Info: 0 IMPROPER
Info: 0 CROSSTERM
Info: 0 VDW
Info: 21 VDW_PAIRS
Info: 0 NBTHOLE_PAIRS
Info: To read alchdata from file: mobley_9729792.pdb
Info: To read alchflag data from column: 5
Info: STRUCTURE SUMMARY:
Info: 2916 ATOMS
Info: 2916 BONDS
Info: 24 ANGLES
Info: 38 DIHEDRALS
Info: 0 IMPROPERS
Info: 0 CROSSTERMS
Info: 2972 EXCLUSIONS
Info: 2909 RIGID BONDS
Info: ALCH: 0 ATOMS TO DISAPPEAR IN FINAL STATE
Info: ALCH: 15 ATOMS TO APPEAR IN FINAL STATE
Info: 5839 DEGREES OF FREEDOM
Info: 974 HYDROGEN GROUPS
Info: 3 ATOMS IN LARGEST HYDROGEN GROUP
Info: 974 MIGRATION GROUPS
Info: 3 ATOMS IN LARGEST MIGRATION GROUP
Info: TOTAL MASS = 17513.6 amu
Info: TOTAL CHARGE = 6.51926e-09 e
Info: MASS DENSITY = 0.97206 g/cm^3
Info: ATOM DENSITY = 0.0974644 atoms/A^3
Info: ADDED 0 IMPLICIT EXCLUSIONS
Info: NONBONDED TABLE R-SQUARED SPACING: 0.0625
Info: NONBONDED TABLE SIZE: 705 POINTS
Info: REDUCING NUMBER OF PATCHES TO IMPROVE LOAD BALANCE
Info: REMOVING COM VELOCITY 0.0559816 0.0306469 -0.00302719
Info: Use 3D box decompostion in PME FFT.
Info: Updated CUDA force table with 4096 elements.
Info: Updated CUDA LJ table with 6 x 6 elements.
Info: Found 12 unique exclusion lists needing 28 bytes
TCL: Running for 1500000 steps
ETITLE: TS BOND ANGLE DIHED IMPRP ELECT VDW BOUNDARY MISC KINETIC TOTAL TEMP POTENTIAL TOTALAVG TEMPAVG PRESSURE GPRESSURE VOLUME PRESSAVG GPRESSAVG
ENERGY: 0 1.5033 6.2205 8.0439 0.0000 -10547.4347 1372.7036 0.0000 0.0000 1665.5986 -7493.3649 287.0928 -9158.9634 -7493.3649 287.0928 -493.1382 -412.6841 29918.6299 -493.1382 -412.6841
ENERGY: 300000 1.9397 4.1378 5.5648 0.0000 -10495.7270 1353.2581 0.0000 0.0000 1725.1039 -7405.7228 297.3495 -9130.8266 -7441.5345 297.8683 -377.3988 -412.2538 30175.1717 -13.3808 17.0602
ENERGY: 600000 1.2047 12.6007 6.8652 0.0000 -10423.1778 1335.4557 0.0000 0.0000 1715.4185 -7351.6332 295.6800 -9067.0516 -7407.2152 297.4130 -436.2393 -343.2246 30270.5196 -142.6459 -84.3401
ENERGY: 900000 0.1796 7.1780 5.7985 0.0000 -10581.0477 1419.9848 0.0000 0.0000 1686.3130 -7461.5938 290.6632 -9147.9068 -7400.3421 297.7200 -26.0178 36.5494 29920.9579 -110.0694 -48.2113
ENERGY: 1200000 2.2011 10.2762 7.9164 0.0000 -10595.8857 1447.3302 0.0000 0.0000 1766.4584 -7361.7033 304.4776 -9128.1618 -7401.7172 298.5630 182.8328 250.9108 30021.2586 -44.2222 19.3425
ENERGY: 1500000 2.6420 4.5121 4.8787 0.0000 -10655.9460 1422.1927 0.0000 0.0000 1722.9667 -7498.7538 296.9811 -9221.7205 -7404.2710 299.2516 -98.0870 -40.5761 29904.1430 -14.5631 51.8483
TCL: Running FEP window   2: Lambda1 0.95   Lambda2 0.8999999999999999 [dLambda -0.050000000000000044]
TCL: Setting parameter firsttimestep to 0
TCL: Setting parameter alchLambda to 0.95
Info: NONBONDED TABLE R-SQUARED SPACING: 0.0625
Info: NONBONDED TABLE SIZE: 705 POINTS
TCL: Setting parameter alchLambda2 to 0.8999999999999999
Info: NONBONDED TABLE R-SQUARED SPACING: 0.0625
Info: NONBONDED TABLE SIZE: 705 POINTS
TCL: Running for 1500000 steps
ETITLE: TS BOND ANGLE DIHED IMPRP ELECT VDW BOUNDARY MISC KINETIC TOTAL TEMP POTENTIAL TOTALAVG TEMPAVG PRESSURE GPRESSURE VOLUME PRESSAVG GPRESSAVG
ENERGY: 0 2.6420 4.5121 4.8787 0.0000 -10655.2141 1422.0986 0.0000 0.0000 1722.1134 -7498.9692 296.8340 -9221.0826 -7498.9692 296.8340 -130.7335 -52.7483 29904.1430 -130.7335 -52.7483
ENERGY: 300000 2.5194 9.0508 4.5899 0.0000 -10617.2218 1435.8102 0.0000 0.0000 1702.6415 -7462.6099 293.4777 -9165.2514 -7400.8005 296.8944 -3.7158 31.2338 29853.5495 39.5960 106.9557
ENERGY: 600000 1.0988 4.5822 7.5698 0.0000 -10483.7113 1389.8189 0.0000 0.0000 1704.5313 -7376.1102 293.8034 -9080.6415 -7372.7812 298.9486 40.8016 96.8524 29988.8379 116.5303 167.5340
ENERGY: 900000 1.3814 3.3823 6.6621 0.0000 -10711.4315 1532.2188 0.0000 0.0000 1760.4252 -7407.3616 303.4377 -9167.7868 -7363.0584 299.7936 947.2743 1012.0515 29804.0385 130.4227 185.0099
ENERGY: 1200000 1.0652 6.6138 6.1992 0.0000 -10643.9519 1382.6370 0.0000 0.0000 1717.4904 -7529.9463 296.0372 -9247.4368 -7380.6877 300.0411 -536.3588 -469.4029 29723.7809 97.5854 146.7497
ENERGY: 1500000 1.3915 4.9565 6.9928 0.0000 -10562.6919 1499.2141 0.0000 0.0000 1785.0057 -7265.1313 307.6745 -9050.1371 -7362.6855 300.6845 835.6390 866.1329 30294.0886 202.1684 250.1773
TCL: Running FEP window   3: Lambda1 0.8999999999999999 Lambda2 0.8499999999999999 [dLambda -0.050000000000000044]
TCL: Setting parameter firsttimestep to 0
TCL: Setting parameter alchLambda to 0.8999999999999999
Info: NONBONDED TABLE R-SQUARED SPACING: 0.0625
Info: NONBONDED TABLE SIZE: 705 POINTS
TCL: Setting parameter alchLambda2 to 0.8499999999999999
Info: NONBONDED TABLE R-SQUARED SPACING: 0.0625
Info: NONBONDED TABLE SIZE: 705 POINTS
TCL: Running for 1500000 steps
ETITLE: TS BOND ANGLE DIHED IMPRP ELECT VDW BOUNDARY MISC KINETIC TOTAL TEMP POTENTIAL TOTALAVG TEMPAVG PRESSURE GPRESSURE VOLUME PRESSAVG GPRESSAVG
ENERGY: 0 1.3915 4.9565 6.9928 0.0000 -10561.7948 1498.8173 0.0000 0.0000 1784.0877 -7265.5491 307.5163 -9049.6368 -7265.5491 307.5163 771.4275 850.9689 30294.0886 771.4275 850.9689
ENERGY: 300000 2.0715 4.8510 4.7155 0.0000 -10374.8724 1300.7270 0.0000 0.0000 1740.8489 -7321.6585 300.0634 -9062.5074 -7354.1903 300.4000 -706.1373 -636.6846 29884.4166 51.1990 123.9752
ENERGY: 600000 0.8823 3.5263 10.2847 0.0000 -10427.9221 1353.6884 0.0000 0.0000 1736.8748 -7322.6657 299.3784 -9059.5405 -7362.8709 301.0176 -228.1316 -182.5952 29989.7031 -127.2723 -42.1853
ENERGY: 900000 1.9023 10.8657 5.7877 0.0000 -10486.6286 1364.3734 0.0000 0.0000 1754.3169 -7349.3825 302.3848 -9103.6994 -7375.2141 300.6729 -490.1919 -391.2303 30024.7797 -168.0764 -93.3861
ENERGY: 1200000 1.9122 3.6774 7.2427 0.0000 -10372.2059 1345.7497 0.0000 0.0000 1706.8737 -7306.7503 294.2072 -9013.6240 -7356.4178 301.2088 -216.0538 -146.8241 30170.7378 -82.5886 -8.7942
ENERGY: 1500000 6.0215 6.7472 6.3057 0.0000 -10513.4294 1409.9134 0.0000 0.0000 1722.1692 -7362.2722 296.8436 -9084.4415 -7353.1243 301.6571 -48.1681 55.5972 29684.5961 -9.4226 58.7206
TCL: Running FEP window   4: Lambda1 0.8499999999999999 Lambda2 0.7999999999999998 [dLambda -0.050000000000000044]
TCL: Setting parameter firsttimestep to 0
TCL: Setting parameter alchLambda to 0.8499999999999999
Info: NONBONDED TABLE R-SQUARED SPACING: 0.0625
Info: NONBONDED TABLE SIZE: 705 POINTS
TCL: Setting parameter alchLambda2 to 0.7999999999999998
Info: NONBONDED TABLE R-SQUARED SPACING: 0.0625
Info: NONBONDED TABLE SIZE: 705 POINTS
TCL: Running for 1500000 steps
ETITLE: TS BOND ANGLE DIHED IMPRP ELECT VDW BOUNDARY MISC KINETIC TOTAL TEMP POTENTIAL TOTALAVG TEMPAVG PRESSURE GPRESSURE VOLUME PRESSAVG GPRESSAVG
ENERGY: 0 6.0215 6.7473 6.3057 0.0000 -10512.7623 1409.8922 0.0000 0.0000 1721.2833 -7362.5123 296.6909 -9083.7957 -7362.5123 296.6909 -30.7395 46.8245 29684.5961 -30.7395 46.8245
ENERGY: 300000 2.3767 5.1275 6.1029 0.0000 -10466.5456 1375.7102 0.0000 0.0000 1740.2345 -7336.9939 299.9575 -9077.2283 -7365.1555 300.8189 -283.5702 -268.2976 30313.6993 -217.2999 -152.2512
ENERGY: 600000 1.5266 5.2011 7.3952 0.0000 -10531.3273 1399.1252 0.0000 0.0000 1717.0607 -7401.0186 295.9631 -9118.0792 -7377.5644 300.3652 -219.1201 -151.5885 30150.6210 -59.6108 4.9892
ENERGY: 900000 1.8343 7.3562 6.1545 0.0000 -10463.3602 1341.8464 0.0000 0.0000 1753.8284 -7352.3404 302.3006 -9106.1688 -7366.6961 302.5700 -524.2185 -458.7489 29989.3118 -78.2452 -2.2278
ENERGY: 1200000 2.0706 7.8629 4.2886 0.0000 -10609.1479 1386.0032 0.0000 0.0000 1747.1462 -7461.7763 301.1488 -9208.9225 -7377.3449 302.1947 -579.2563 -541.2078 30115.1267 -143.8744 -73.7714
ENERGY: 1500000 3.4081 5.0693 5.6475 0.0000 -10829.9400 1565.7215 0.0000 0.0000 1712.3064 -7537.7872 295.1436 -9250.0937 -7385.7937 302.0388 1013.0025 1106.0884 29714.4537 -12.8961 58.4008
TCL: Running FEP window   5: Lambda1 0.7999999999999998 Lambda2 0.7499999999999998 [dLambda -0.050000000000000044]
TCL: Setting parameter firsttimestep to 0
TCL: Setting parameter alchLambda to 0.7999999999999998
Info: NONBONDED TABLE R-SQUARED SPACING: 0.0625
Info: NONBONDED TABLE SIZE: 705 POINTS
TCL: Setting parameter alchLambda2 to 0.7499999999999998
Info: NONBONDED TABLE R-SQUARED SPACING: 0.0625
Info: NONBONDED TABLE SIZE: 705 POINTS
TCL: Running for 1500000 steps
ETITLE: TS BOND ANGLE DIHED IMPRP ELECT VDW BOUNDARY MISC KINETIC TOTAL TEMP POTENTIAL TOTALAVG TEMPAVG PRESSURE GPRESSURE VOLUME PRESSAVG GPRESSAVG
ENERGY: 0 3.4081 5.0693 5.6475 0.0000 -10829.5408 1565.7824 0.0000 0.0000 1711.4730 -7538.1605 295.0000 -9249.6335 -7538.1605 295.0000 993.9525 1096.0047 29714.4537 993.9525 1096.0047
ENERGY: 300000 1.3571 4.9256 7.5269 0.0000 -10523.0234 1396.3763 0.0000 0.0000 1756.6281 -7356.2095 302.7832 -9112.8376 -7431.8681 298.1082 -33.6819 36.2531 29910.2105 246.7476 339.0331
ENERGY: 600000 2.0276 12.1450 5.1924 0.0000 -10518.8322 1445.5135 0.0000 0.0000 1710.3678 -7343.5859 294.8095 -9053.9537 -7403.6291 299.2845 -68.0357 -11.9934 30711.4909 167.4037 248.7115
ENERGY: 900000 2.6292 3.2368 7.7570 0.0000 -10527.6252 1397.0217 0.0000 0.0000 1792.3149 -7324.6657 308.9344 -9116.9806 -7383.8422 299.2331 -46.7368 82.1996 29832.5120 -3.5429 77.0491
ENERGY: 1200000 2.5082 5.4656 4.4100 0.0000 -10637.9891 1468.7559 0.0000 0.0000 1693.6104 -7463.2389 291.9211 -9156.8493 -7390.6386 298.8507 33.4731 63.3815 30355.7130 -35.0709 40.2305
ENERGY: 1500000 2.5467 4.1760 9.7041 0.0000 -10549.0746 1440.3047 0.0000 0.0000 1770.8245 -7321.5185 305.2302 -9092.3430 -7387.9628 298.7149 221.5005 245.6135 30250.9512 -28.7876 45.5391
TCL: Running FEP window   6: Lambda1 0.7499999999999998 Lambda2 0.6999999999999997 [dLambda -0.050000000000000044]
TCL: Setting parameter firsttimestep to 0
TCL: Setting parameter alchLambda to 0.7499999999999998
Info: NONBONDED TABLE R-SQUARED SPACING: 0.0625
Info: NONBONDED TABLE SIZE: 705 POINTS
TCL: Setting parameter alchLambda2 to 0.6999999999999997
Info: NONBONDED TABLE R-SQUARED SPACING: 0.0625
Info: NONBONDED TABLE SIZE: 705 POINTS
TCL: Running for 1500000 steps
ETITLE: TS BOND ANGLE DIHED IMPRP ELECT VDW BOUNDARY MISC KINETIC TOTAL TEMP POTENTIAL TOTALAVG TEMPAVG PRESSURE GPRESSURE VOLUME PRESSAVG GPRESSAVG
ENERGY: 0 2.5467 4.1760 9.7041 0.0000 -10548.9645 1440.6737 0.0000 0.0000 1769.9895 -7321.8744 305.0862 -9091.8640 -7321.8744 305.0862 158.5638 241.5695 30250.9512 158.5638 241.5695
ENERGY: 300000 1.7915 4.6441 3.8230 0.0000 -10452.0692 1363.6612 0.0000 0.0000 1774.1814 -7303.9679 305.8088 -9078.1493 -7354.1131 303.4036 -362.9676 -245.5079 30106.9448 -250.9014 -149.9186
ENERGY: 600000 2.6557 4.1838 7.2659 0.0000 -10622.0690 1500.1151 0.0000 0.0000 1702.3005 -7405.5480 293.4189 -9107.8485 -7369.7408 301.5885 689.8004 752.6031 29723.5045 -210.9810 -124.6238
ENERGY: 900000 4.1036 6.0594 4.6960 0.0000 -10477.8224 1381.8949 0.0000 0.0000 1734.5984 -7346.4700 298.9860 -9081.0685 -7367.4786 301.5809 -214.3344 -157.9162 30127.3201 -222.6831 -137.8975
ENERGY: 1200000 0.8952 9.1263 5.6917 0.0000 -10485.2202 1404.7277 0.0000 0.0000 1714.3446 -7350.4347 295.4949 -9064.7793 -7369.5917 300.7600 -93.4229 33.2616 30452.1211 -229.7848 -143.8263
ENERGY: 1500000 2.5845 5.7598 8.9248 0.0000 -10421.6133 1369.4309 0.0000 0.0000 1765.4521 -7269.4613 304.3041 -9034.9134 -7366.0225 300.9300 -359.7159 -316.5025 30123.4606 -169.2943 -88.7994
TCL: Running FEP window   7: Lambda1 0.6999999999999997 Lambda2 0.6499999999999997 [dLambda -0.050000000000000044]
TCL: Setting parameter firsttimestep to 0
TCL: Setting parameter alchLambda to 0.6999999999999997
Info: NONBONDED TABLE R-SQUARED SPACING: 0.0625
Info: NONBONDED TABLE SIZE: 705 POINTS
TCL: Setting parameter alchLambda2 to 0.6499999999999997
Info: NONBONDED TABLE R-SQUARED SPACING: 0.0625
Info: NONBONDED TABLE SIZE: 705 POINTS
TCL: Running for 1500000 steps
ETITLE: TS BOND ANGLE DIHED IMPRP ELECT VDW BOUNDARY MISC KINETIC TOTAL TEMP POTENTIAL TOTALAVG TEMPAVG PRESSURE GPRESSURE VOLUME PRESSAVG GPRESSAVG
ENERGY: 0 2.5845 5.7598 8.9248 0.0000 -10421.4976 1369.7240 0.0000 0.0000 1764.5747 -7269.9298 304.1529 -9034.5045 -7269.9298 304.1529 -403.6824 -321.3425 30123.4606 -403.6824 -321.3425
ENERGY: 300000 1.4605 9.7994 4.2217 0.0000 -10547.9177 1451.0376 0.0000 0.0000 1732.3701 -7349.0284 298.6019 -9081.3985 -7343.8078 302.1096 219.3537 339.6593 30146.2077 141.0020 234.1327
ENERGY: 600000 1.3999 7.2675 4.5423 0.0000 -10535.8665 1378.3789 0.0000 0.0000 1721.9444 -7422.3334 296.8049 -9144.2778 -7362.6304 300.3098 -465.2301 -334.3558 29927.6027 114.8299 205.0133
ENERGY: 900000 0.9034 6.1677 10.1488 0.0000 -10436.9667 1387.7801 0.0000 0.0000 1712.4279 -7319.5388 295.1646 -9031.9667 -7370.6475 300.1056 53.3814 88.7262 30265.3323 39.8127 123.3172
ENERGY: 1200000 1.1851 10.2129 5.8022 0.0000 -10800.8998 1573.5954 0.0000 0.0000 1745.3635 -7464.7406 300.8415 -9210.1041 -7383.6093 300.1892 1215.4893 1240.9548 29536.6040 -23.5984 55.0732
ENERGY: 1500000 4.1506 5.7691 4.6777 0.0000 -10580.8061 1390.4892 0.0000 0.0000 1729.2605 -7446.4590 298.0659 -9175.7195 -7386.7657 299.7178 -779.7200 -747.7608 30227.6690 -176.9203 -100.7276
TCL: Running FEP window   8: Lambda1 0.6499999999999997 Lambda2 0.5999999999999996 [dLambda -0.050000000000000044]
TCL: Setting parameter firsttimestep to 0
TCL: Setting parameter alchLambda to 0.6499999999999997
Info: NONBONDED TABLE R-SQUARED SPACING: 0.0625
Info: NONBONDED TABLE SIZE: 705 POINTS
TCL: Setting parameter alchLambda2 to 0.5999999999999996
Info: NONBONDED TABLE R-SQUARED SPACING: 0.0625
Info: NONBONDED TABLE SIZE: 705 POINTS
TCL: Running for 1500000 steps
ETITLE: TS BOND ANGLE DIHED IMPRP ELECT VDW BOUNDARY MISC KINETIC TOTAL TEMP POTENTIAL TOTALAVG TEMPAVG PRESSURE GPRESSURE VOLUME PRESSAVG GPRESSAVG
ENERGY: 0 4.1506 5.7691 4.6777 0.0000 -10580.4918 1390.7258 0.0000 0.0000 1728.3772 -7446.7914 297.9137 -9175.1686 -7446.7914 297.9137 -813.3533 -752.7541 30227.6690 -813.3533 -752.7541
ENERGY: 300000 6.4343 6.8574 5.5426 0.0000 -10549.1646 1413.2595 0.0000 0.0000 1709.2284 -7407.8424 294.6131 -9117.0708 -7375.1145 299.1906 -27.3521 -29.4205 29900.5452 -535.3720 -482.1765
ENERGY: 600000 1.0430 3.7868 8.9879 0.0000 -10669.0461 1469.8793 0.0000 0.0000 1689.8321 -7495.5171 291.2698 -9185.3492 -7380.6185 300.6100 205.2035 280.7592 29742.2448 -85.6638 -32.6031
ENERGY: 900000 2.9342 6.2274 3.5944 0.0000 -10589.0053 1477.9717 0.0000 0.0000 1753.2167 -7345.0609 302.1952 -9098.2776 -7378.4791 301.0983 793.5235 833.6991 30003.0018 133.3280 189.3752
ENERGY: 1200000 1.1586 3.9887 6.0126 0.0000 -10587.9434 1458.8687 0.0000 0.0000 1746.0724 -7371.8424 300.9637 -9117.9148 -7370.9234 301.3575 276.2098 319.4229 30097.6926 195.3622 249.3698
ENERGY: 1500000 2.2638 4.0215 6.4539 0.0000 -10487.4632 1345.7710 0.0000 0.0000 1777.0754 -7351.8776 306.3076 -9128.9530 -7365.0613 300.9363 -380.5855 -308.8406 29845.9504 151.2967 208.6574
TCL: Running FEP window   9: Lambda1 0.5999999999999996 Lambda2 0.5499999999999996 [dLambda -0.050000000000000044]
TCL: Setting parameter firsttimestep to 0
TCL: Setting parameter alchLambda to 0.5999999999999996
Info: NONBONDED TABLE R-SQUARED SPACING: 0.0625
Info: NONBONDED TABLE SIZE: 705 POINTS
TCL: Setting parameter alchLambda2 to 0.5499999999999996
Info: NONBONDED TABLE R-SQUARED SPACING: 0.0625
Info: NONBONDED TABLE SIZE: 705 POINTS
TCL: Running for 1500000 steps
ETITLE: TS BOND ANGLE DIHED IMPRP ELECT VDW BOUNDARY MISC KINETIC TOTAL TEMP POTENTIAL TOTALAVG TEMPAVG PRESSURE GPRESSURE VOLUME PRESSAVG GPRESSAVG
ENERGY: 0 2.2638 4.0215 6.4539 0.0000 -10487.3958 1345.8649 0.0000 0.0000 1776.2197 -7352.5720 306.1601 -9128.7917 -7352.5720 306.1601 -391.9113 -317.0038 29845.9504 -391.9113 -317.0038
ENERGY: 300000 3.7544 4.8556 4.4490 0.0000 -10645.5011 1499.1652 0.0000 0.0000 1769.0320 -7364.2449 304.9212 -9133.2770 -7375.2507 303.5386 685.8524 663.8728 30291.6151 107.0385 163.1835
ENERGY: 600000 3.4993 8.5348 6.1355 0.0000 -10454.0373 1331.4591 0.0000 0.0000 1661.1212 -7443.2873 286.3210 -9104.4085 -7366.6056 301.6816 -821.7119 -784.7066 30391.9334 -22.5454 15.9149
ENERGY: 900000 1.0072 7.6276 5.8432 0.0000 -10629.9597 1479.7193 0.0000 0.0000 1768.1987 -7367.5637 304.7776 -9135.7624 -7355.9370 302.2751 480.6013 547.0691 30202.2244 28.1453 67.6321
ENERGY: 1200000 1.5900 9.8021 5.2954 0.0000 -10512.0148 1451.7491 0.0000 0.0000 1761.2844 -7282.2939 303.5858 -9043.5782 -7359.2033 301.7545 702.9128 786.1601 29570.6376 -51.5693 0.2418
ENERGY: 1500000 1.7538 7.8451 5.2416 0.0000 -10551.7182 1467.7283 0.0000 0.0000 1729.2458 -7339.9036 298.0634 -9069.1493 -7356.2552 301.2030 510.4484 521.2631 29990.0127 32.9534 81.8233
TCL: Running FEP window  10: Lambda1 0.5499999999999996 Lambda2 0.4999999999999996 [dLambda -0.04999999999999999]
TCL: Setting parameter firsttimestep to 0
TCL: Setting parameter alchLambda to 0.5499999999999996
Info: NONBONDED TABLE R-SQUARED SPACING: 0.0625
Info: NONBONDED TABLE SIZE: 705 POINTS
TCL: Setting parameter alchLambda2 to 0.4999999999999996
Info: NONBONDED TABLE R-SQUARED SPACING: 0.0625
Info: NONBONDED TABLE SIZE: 705 POINTS
TCL: Running for 1500000 steps
ETITLE: TS BOND ANGLE DIHED IMPRP ELECT VDW BOUNDARY MISC KINETIC TOTAL TEMP POTENTIAL TOTALAVG TEMPAVG PRESSURE GPRESSURE VOLUME PRESSAVG GPRESSAVG
ENERGY: 0 1.7538 7.8451 5.2416 0.0000 -10551.4656 1466.6475 0.0000 0.0000 1728.3898 -7341.5877 297.9158 -9069.9775 -7341.5877 297.9158 422.0339 501.5528 29990.0127 422.0339 501.5528
ENERGY: 300000 2.5811 8.1614 5.6540 0.0000 -10431.1325 1361.0611 0.0000 0.0000 1756.5077 -7297.1672 302.7624 -9053.6749 -7351.1086 300.8435 -203.2492 -163.2833 29815.1691 41.0197 106.5548
ENERGY: 600000 0.7846 10.3977 5.6110 0.0000 -10388.2495 1288.1194 0.0000 0.0000 1739.7601 -7343.5767 299.8757 -9083.3369 -7346.7428 301.3347 -1000.7680 -898.5266 30161.0503 -258.9714 -186.2306
ENERGY: 900000 3.2722 3.7433 6.5387 0.0000 -10715.7928 1453.0335 0.0000 0.0000 1732.8834 -7516.3218 298.6904 -9249.2052 -7372.7187 301.2232 118.9975 138.1858 29699.1172 -126.4610 -64.2796
ENERGY: 1200000 2.4649 5.1793 8.3116 0.0000 -10441.8308 1353.9042 0.0000 0.0000 1755.6726 -7316.2982 302.6185 -9071.9708 -7369.0568 302.3556 -377.4014 -332.9687 29965.7033 -87.4977 -27.9435
ENERGY: 1500000 1.3994 2.9461 5.4055 0.0000 -10646.5782 1438.5708 0.0000 0.0000 1760.9619 -7437.2946 303.5302 -9198.2565 -7367.8361 302.6288 -44.0621 82.6361 29982.6817 -151.4316 -84.9344
TCL: Running FEP window  11: Lambda1 0.4999999999999996 Lambda2 0.4499999999999996 [dLambda -0.04999999999999999]
TCL: Setting parameter firsttimestep to 0
TCL: Setting parameter alchLambda to 0.4999999999999996
Info: NONBONDED TABLE R-SQUARED SPACING: 0.0625
Info: NONBONDED TABLE SIZE: 705 POINTS
TCL: Setting parameter alchLambda2 to 0.4499999999999996
Info: NONBONDED TABLE R-SQUARED SPACING: 0.0625
Info: NONBONDED TABLE SIZE: 705 POINTS
TCL: Running for 1500000 steps
ETITLE: TS BOND ANGLE DIHED IMPRP ELECT VDW BOUNDARY MISC KINETIC TOTAL TEMP POTENTIAL TOTALAVG TEMPAVG PRESSURE GPRESSURE VOLUME PRESSAVG GPRESSAVG
ENERGY: 0 1.3994 2.9461 5.4055 0.0000 -10646.4362 1438.8756 0.0000 0.0000 1760.0896 -7437.7201 303.3798 -9197.8097 -7437.7201 303.3798 -10.0590 82.5376 29982.6817 -10.0590 82.5376
ENERGY: 300000 1.8092 4.4266 6.9681 0.0000 -10729.2153 1559.0596 0.0000 0.0000 1705.2985 -7451.6533 293.9357 -9156.9518 -7437.2994 295.4900 1191.1368 1204.4465 29625.6585 -19.8304 52.1247
ENERGY: 600000 2.8589 8.5848 1.8358 0.0000 -10501.8476 1383.8284 0.0000 0.0000 1772.5624 -7332.1773 305.5297 -9104.7397 -7384.5153 299.7925 -392.0127 -333.4936 29987.3361 -40.0183 28.2042
ENERGY: 900000 2.5854 6.9074 5.0345 0.0000 -10524.2152 1405.3608 0.0000 0.0000 1709.3550 -7394.9720 294.6349 -9104.3270 -7375.1815 299.4513 -111.1558 -86.4385 29867.8505 -151.0640 -86.9649
ENERGY: 1200000 3.6578 4.8037 6.1054 0.0000 -10750.7112 1494.9552 0.0000 0.0000 1768.0105 -7473.1786 304.7451 -9241.1891 -7385.3291 300.3804 1.3544 101.2336 30083.4748 -187.3945 -129.4924
ENERGY: 1500000 2.0949 7.2384 5.2416 0.0000 -10649.2541 1454.3618 0.0000 0.0000 1774.3209 -7405.9965 305.8328 -9180.3174 -7387.0074 300.4237 256.8777 319.3471 29462.1142 -124.3986 -65.6863
TCL: Running FEP window  12: Lambda1 0.4499999999999996 Lambda2 0.39999999999999963 [dLambda -0.04999999999999999]
TCL: Setting parameter firsttimestep to 0
TCL: Setting parameter alchLambda to 0.4499999999999996
Info: NONBONDED TABLE R-SQUARED SPACING: 0.0625
Info: NONBONDED TABLE SIZE: 705 POINTS
TCL: Setting parameter alchLambda2 to 0.39999999999999963
Info: NONBONDED TABLE R-SQUARED SPACING: 0.0625
Info: NONBONDED TABLE SIZE: 705 POINTS
TCL: Running for 1500000 steps
ETITLE: TS BOND ANGLE DIHED IMPRP ELECT VDW BOUNDARY MISC KINETIC TOTAL TEMP POTENTIAL TOTALAVG TEMPAVG PRESSURE GPRESSURE VOLUME PRESSAVG GPRESSAVG
ENERGY: 0 2.0949 7.2384 5.2416 0.0000 -10649.2547 1454.0095 0.0000 0.0000 1773.4487 -7407.2216 305.6825 -9180.6703 -7407.2216 305.6825 223.9643 309.5801 29462.1142 223.9643 309.5801
ENERGY: 300000 0.8976 6.8654 7.0849 0.0000 -10432.7688 1318.2595 0.0000 0.0000 1704.7921 -7394.8694 293.8484 -9099.6614 -7402.9378 299.1434 -718.6167 -676.4063 30168.8662 -9.4112 41.5859
ENERGY: 600000 2.4627 6.5729 6.0207 0.0000 -10658.6071 1480.8214 0.0000 0.0000 1756.8107 -7405.9186 302.8147 -9162.7293 -7417.2102 297.6119 291.6773 339.1364 29814.1893 148.6857 190.2240
ENERGY: 900000 1.2776 5.2196 8.6379 0.0000 -10572.6235 1373.7064 0.0000 0.0000 1744.1337 -7439.6483 300.6296 -9183.7819 -7416.1975 299.0370 -528.3843 -390.3777 30017.6259 -15.4458 33.9637
ENERGY: 1200000 4.6523 4.7391 9.4964 0.0000 -10528.5770 1388.0616 0.0000 0.0000 1698.5531 -7423.0746 292.7730 -9121.6277 -7416.6262 298.5321 -366.0324 -331.3171 29931.9818 27.2928 77.9922
ENERGY: 1500000 1.3841 8.9779 3.3322 0.0000 -10658.8330 1488.7317 0.0000 0.0000 1769.4305 -7386.9765 304.9899 -9156.4070 -7405.4810 299.5549 318.8567 415.0000 29865.3137 -6.8165 48.7910
TCL: Running FEP window  13: Lambda1 0.39999999999999963 Lambda2 0.34999999999999964 [dLambda -0.04999999999999999]
TCL: Setting parameter firsttimestep to 0
TCL: Setting parameter alchLambda to 0.39999999999999963
Info: NONBONDED TABLE R-SQUARED SPACING: 0.0625
Info: NONBONDED TABLE SIZE: 705 POINTS
TCL: Setting parameter alchLambda2 to 0.34999999999999964
Info: NONBONDED TABLE R-SQUARED SPACING: 0.0625
Info: NONBONDED TABLE SIZE: 705 POINTS
TCL: Running for 1500000 steps
ETITLE: TS BOND ANGLE DIHED IMPRP ELECT VDW BOUNDARY MISC KINETIC TOTAL TEMP POTENTIAL TOTALAVG TEMPAVG PRESSURE GPRESSURE VOLUME PRESSAVG GPRESSAVG
ENERGY: 0 1.3841 8.9779 3.3322 0.0000 -10658.8319 1488.6381 0.0000 0.0000 1768.5566 -7387.9429 304.8392 -9156.4995 -7387.9429 304.8392 340.5449 408.1098 29865.3137 340.5449 408.1098
ENERGY: 300000 1.7424 7.7374 7.6521 0.0000 -10708.2271 1552.4436 0.0000 0.0000 1778.2378 -7360.4137 306.5080 -9138.6515 -7373.6369 303.9034 1201.5055 1200.9392 29582.0606 239.3391 253.0715
ENERGY: 600000 2.7527 5.8473 5.0977 0.0000 -10431.9447 1296.7492 0.0000 0.0000 1758.3757 -7363.1220 303.0844 -9121.4977 -7396.7151 302.6879 -1230.4102 -1132.6564 30334.6446 -108.9275 -60.5341
ENERGY: 900000 1.6612 8.7747 7.7104 0.0000 -10517.1140 1421.3289 0.0000 0.0000 1789.0782 -7288.5606 308.3765 -9077.6388 -7375.1580 302.1040 286.8607 310.4511 29854.6531 -17.3598 26.9582
ENERGY: 1200000 1.0303 5.4789 6.3365 0.0000 -10602.8793 1436.9165 0.0000 0.0000 1768.9479 -7384.1693 304.9067 -9153.1172 -7385.3579 301.0152 -206.2650 -186.6976 30499.9887 -38.5549 1.3699
ENERGY: 1500000 1.3593 5.3280 4.5742 0.0000 -10614.0375 1452.0655 0.0000 0.0000 1677.0426 -7473.6679 289.0653 -9150.7105 -7382.3475 299.7415 -157.8043 -72.1922 30335.4731 -63.6884 -20.4030
TCL: Running FEP window  14: Lambda1 0.34999999999999964 Lambda2 0.29999999999999966 [dLambda -0.04999999999999999]
TCL: Setting parameter firsttimestep to 0
TCL: Setting parameter alchLambda to 0.34999999999999964
Info: NONBONDED TABLE R-SQUARED SPACING: 0.0625
Info: NONBONDED TABLE SIZE: 705 POINTS
TCL: Setting parameter alchLambda2 to 0.29999999999999966
Info: NONBONDED TABLE R-SQUARED SPACING: 0.0625
Info: NONBONDED TABLE SIZE: 705 POINTS
TCL: Running for 1500000 steps
ETITLE: TS BOND ANGLE DIHED IMPRP ELECT VDW BOUNDARY MISC KINETIC TOTAL TEMP POTENTIAL TOTALAVG TEMPAVG PRESSURE GPRESSURE VOLUME PRESSAVG GPRESSAVG
ENERGY: 0 1.3593 5.3280 4.5742 0.0000 -10614.0395 1451.7911 0.0000 0.0000 1676.1750 -7474.8119 288.9158 -9150.9869 -7474.8119 288.9158 -157.8809 -82.4348 30335.4731 -157.8809 -82.4348
ENERGY: 300000 1.3972 5.3650 9.1410 0.0000 -10615.0574 1424.2629 0.0000 0.0000 1765.6832 -7409.2081 304.3440 -9174.8913 -7402.2658 301.0586 -184.8072 -130.0203 29840.8840 -60.0632 -2.8888
ENERGY: 600000 0.9058 7.0190 6.1137 0.0000 -10552.2468 1409.2976 0.0000 0.0000 1752.0613 -7376.8494 301.9960 -9128.9107 -7395.6136 301.5653 45.9118 80.8887 29687.6943 -116.1513 -66.7681
ENERGY: 900000 2.9053 6.8993 4.1574 0.0000 -10468.3076 1396.2435 0.0000 0.0000 1677.5775 -7380.5245 289.1575 -9058.1020 -7390.5841 301.5653 -216.6165 -209.2565 30232.1306 -118.4910 -82.6628
ENERGY: 1200000 2.2903 2.4876 10.8731 0.0000 -10549.6912 1408.9279 0.0000 0.0000 1723.4045 -7401.7078 297.0566 -9125.1123 -7390.8518 300.4185 -340.8036 -307.9995 30296.7684 -127.9444 -91.1121
ENERGY: 1500000 2.6381 6.1499 6.9680 0.0000 -10555.1690 1405.9745 0.0000 0.0000 1797.8226 -7335.6159 309.8837 -9133.4385 -7390.3990 300.9720 -85.2588 -52.4855 29900.6614 -35.4934 -2.6480
TCL: Running FEP window  15: Lambda1 0.29999999999999966 Lambda2 0.24999999999999967 [dLambda -0.04999999999999999]
TCL: Setting parameter firsttimestep to 0
TCL: Setting parameter alchLambda to 0.29999999999999966
Info: NONBONDED TABLE R-SQUARED SPACING: 0.0625
Info: NONBONDED TABLE SIZE: 705 POINTS
TCL: Setting parameter alchLambda2 to 0.24999999999999967
Info: NONBONDED TABLE R-SQUARED SPACING: 0.0625
Info: NONBONDED TABLE SIZE: 705 POINTS
TCL: Running for 1500000 steps
ETITLE: TS BOND ANGLE DIHED IMPRP ELECT VDW BOUNDARY MISC KINETIC TOTAL TEMP POTENTIAL TOTALAVG TEMPAVG PRESSURE GPRESSURE VOLUME PRESSAVG GPRESSAVG
ENERGY: 0 2.6381 6.1499 6.9680 0.0000 -10555.1695 1405.9655 0.0000 0.0000 1796.9726 -7336.4754 309.7372 -9133.4480 -7336.4754 309.7372 -121.3501 -55.9790 29900.6614 -121.3501 -55.9790
ENERGY: 300000 1.3164 9.4518 5.7996 0.0000 -10379.5514 1224.6729 0.0000 0.0000 1802.8291 -7335.4815 310.7467 -9138.3107 -7371.0065 303.4976 -1417.6674 -1420.7824 29901.8033 -393.8163 -329.8019
ENERGY: 600000 0.5107 4.2424 5.4047 0.0000 -10532.1922 1445.7212 0.0000 0.0000 1769.8129 -7306.5003 305.0558 -9076.3132 -7374.6281 302.3986 448.1608 523.0453 29824.4667 -317.6806 -255.7005
ENERGY: 900000 2.4689 2.8166 4.8102 0.0000 -10674.7734 1448.1787 0.0000 0.0000 1711.7365 -7504.7624 295.0454 -9216.4989 -7397.8461 300.2338 113.7362 128.9231 29673.1173 -289.3962 -224.6001
ENERGY: 1200000 3.0103 5.1010 5.0957 0.0000 -10490.5259 1394.4175 0.0000 0.0000 1746.2642 -7336.6373 300.9968 -9082.9015 -7393.0031 299.2283 -84.8946 -37.6093 30249.0144 -296.9630 -235.2197
ENERGY: 1500000 1.3649 7.0851 5.1528 0.0000 -10615.1928 1517.7073 0.0000 0.0000 1755.2091 -7328.6734 302.5386 -9083.8826 -7375.2983 299.7821 529.2987 638.6610 30291.5021 -140.8134 -72.9238
TCL: Running FEP window  16: Lambda1 0.24999999999999967 Lambda2 0.19999999999999968 [dLambda -0.04999999999999999]
TCL: Setting parameter firsttimestep to 0
TCL: Setting parameter alchLambda to 0.24999999999999967
Info: NONBONDED TABLE R-SQUARED SPACING: 0.0625
Info: NONBONDED TABLE SIZE: 705 POINTS
TCL: Setting parameter alchLambda2 to 0.19999999999999968
Info: NONBONDED TABLE R-SQUARED SPACING: 0.0625
Info: NONBONDED TABLE SIZE: 705 POINTS
TCL: Running for 1500000 steps
ETITLE: TS BOND ANGLE DIHED IMPRP ELECT VDW BOUNDARY MISC KINETIC TOTAL TEMP POTENTIAL TOTALAVG TEMPAVG PRESSURE GPRESSURE VOLUME PRESSAVG GPRESSAVG
ENERGY: 0 1.3649 7.0851 5.1528 0.0000 -10615.1922 1517.6028 0.0000 0.0000 1754.3237 -7329.6629 302.3860 -9083.9865 -7329.6629 302.3860 548.8690 631.0044 30291.5021 548.8690 631.0044
ENERGY: 300000 5.0346 6.0213 5.6935 0.0000 -10567.3630 1411.1601 0.0000 0.0000 1696.3150 -7443.1385 292.3872 -9139.4535 -7396.4843 300.5810 178.1250 199.2111 29506.1915 108.0026 173.0853
ENERGY: 600000 2.6676 5.8559 7.4429 0.0000 -10560.1477 1447.9591 0.0000 0.0000 1741.9125 -7354.3096 300.2467 -9096.2221 -7376.1703 301.4489 358.2152 422.1577 29987.8402 -32.3932 27.2351
ENERGY: 900000 2.1247 3.9700 6.7648 0.0000 -10489.1811 1422.5449 0.0000 0.0000 1777.8088 -7275.9680 306.4340 -9053.7767 -7361.6785 302.2478 252.8279 302.9197 29977.5414 -8.1480 51.4042
ENERGY: 1200000 1.5198 4.7243 7.9599 0.0000 -10493.5595 1408.4425 0.0000 0.0000 1743.2944 -7327.6187 300.4849 -9070.9131 -7366.2396 301.0767 -170.9854 -65.9768 30260.5967 -16.9185 44.4130
ENERGY: 1500000 1.3812 5.0468 6.8957 0.0000 -10596.3696 1443.2811 0.0000 0.0000 1810.5963 -7329.1686 312.0855 -9139.7648 -7358.3660 302.4875 94.3565 129.7790 29894.1350 -32.3664 33.2698
TCL: Running FEP window  17: Lambda1 0.19999999999999968 Lambda2 0.1499999999999997 [dLambda -0.04999999999999999]
TCL: Setting parameter firsttimestep to 0
TCL: Setting parameter alchLambda to 0.19999999999999968
Info: NONBONDED TABLE R-SQUARED SPACING: 0.0625
Info: NONBONDED TABLE SIZE: 705 POINTS
TCL: Setting parameter alchLambda2 to 0.1499999999999997
Info: NONBONDED TABLE R-SQUARED SPACING: 0.0625
Info: NONBONDED TABLE SIZE: 705 POINTS
TCL: Running for 1500000 steps
ETITLE: TS BOND ANGLE DIHED IMPRP ELECT VDW BOUNDARY MISC KINETIC TOTAL TEMP POTENTIAL TOTALAVG TEMPAVG PRESSURE GPRESSURE VOLUME PRESSAVG GPRESSAVG
ENERGY: 0 1.3812 5.0468 6.8957 0.0000 -10596.3694 1443.2783 0.0000 0.0000 1809.7162 -7330.0512 311.9338 -9139.7674 -7330.0512 311.9338 57.0568 127.0349 29894.1350 57.0568 127.0349
ENERGY: 300000 1.2809 3.8025 5.1062 0.0000 -10548.4187 1447.9464 0.0000 0.0000 1771.8626 -7318.4202 305.4091 -9090.2827 -7346.7993 305.1887 97.0759 178.8540 30305.1895 333.0573 430.5969
ENERGY: 600000 2.1558 5.6122 5.6272 0.0000 -10588.4848 1407.3277 0.0000 0.0000 1743.3799 -7424.3819 300.4996 -9167.7619 -7374.8084 301.9720 -279.4658 -228.6995 29694.7105 48.6638 131.6617
ENERGY: 900000 1.5155 6.4734 6.1781 0.0000 -10781.8082 1521.5033 0.0000 0.0000 1737.4670 -7508.6710 299.4804 -9246.1380 -7378.7353 301.0990 344.3926 397.2628 29737.6446 45.1722 120.7977
ENERGY: 1200000 0.4455 5.0885 7.7746 0.0000 -10483.0711 1416.7561 0.0000 0.0000 1702.7539 -7350.2526 293.4971 -9053.0065 -7385.9587 299.6552 72.6529 152.2737 30106.8156 -9.4268 62.1046
ENERGY: 1500000 1.2621 3.4798 10.1639 0.0000 -10459.2591 1376.7136 0.0000 0.0000 1710.5790 -7357.0607 294.8459 -9067.6397 -7385.8343 299.2306 -424.6480 -380.7934 30024.9308 -1.3091 64.4283
TCL: Running FEP window  18: Lambda1 0.1499999999999997 Lambda2 0.09999999999999969 [dLambda -0.05 ]
TCL: Setting parameter firsttimestep to 0
TCL: Setting parameter alchLambda to 0.1499999999999997
Info: NONBONDED TABLE R-SQUARED SPACING: 0.0625
Info: NONBONDED TABLE SIZE: 705 POINTS
TCL: Setting parameter alchLambda2 to 0.09999999999999969
Info: NONBONDED TABLE R-SQUARED SPACING: 0.0625
Info: NONBONDED TABLE SIZE: 705 POINTS
TCL: Running for 1500000 steps
ETITLE: TS BOND ANGLE DIHED IMPRP ELECT VDW BOUNDARY MISC KINETIC TOTAL TEMP POTENTIAL TOTALAVG TEMPAVG PRESSURE GPRESSURE VOLUME PRESSAVG GPRESSAVG
ENERGY: 0 1.2621 3.4798 10.1639 0.0000 -10459.2594 1376.6263 0.0000 0.0000 1709.7007 -7358.0265 294.6945 -9067.7272 -7358.0265 294.6945 -477.6502 -384.7530 30024.9308 -477.6502 -384.7530
ENERGY: 300000 0.8057 4.6814 4.0235 0.0000 -10623.4354 1490.0494 0.0000 0.0000 1761.6805 -7362.1948 303.6540 -9123.8753 -7339.9418 303.4939 442.1090 535.0104 29827.9190 -314.4811 -219.5707
ENERGY: 600000 2.2536 7.6277 4.8811 0.0000 -10672.7540 1507.8695 0.0000 0.0000 1792.3065 -7357.8157 308.9329 -9150.1221 -7354.1893 303.3300 147.5917 257.3049 30448.4508 -237.9028 -135.0811
ENERGY: 900000 4.4259 5.2095 7.3713 0.0000 -10577.9356 1404.3661 0.0000 0.0000 1729.8325 -7426.7303 298.1645 -9156.5628 -7382.0433 301.9352 -100.7732 -28.6414 29513.1390 -279.5989 -188.4525
ENERGY: 1200000 4.7892 3.3802 6.2292 0.0000 -10615.6934 1445.4997 0.0000 0.0000 1744.4747 -7411.3203 300.6883 -9155.7950 -7388.0462 301.0600 113.9991 170.7777 29680.1444 -232.7751 -145.0312
ENERGY: 1500000 4.1138 7.4968 7.9652 0.0000 -10493.6069 1321.5192 0.0000 0.0000 1686.5050 -7466.0069 290.6963 -9152.5119 -7399.6693 300.5727 -1080.3219 -972.1547 29714.8214 -176.5717 -95.0056
TCL: Running FEP window  19: Lambda1 0.09999999999999969 Lambda2 0.049999999999999684 [dLambda -0.05 ]
TCL: Setting parameter firsttimestep to 0
TCL: Setting parameter alchLambda to 0.09999999999999969
Info: NONBONDED TABLE R-SQUARED SPACING: 0.0625
Info: NONBONDED TABLE SIZE: 705 POINTS
TCL: Setting parameter alchLambda2 to 0.049999999999999684
Info: NONBONDED TABLE R-SQUARED SPACING: 0.0625
Info: NONBONDED TABLE SIZE: 705 POINTS
TCL: Running for 1500000 steps
ETITLE: TS BOND ANGLE DIHED IMPRP ELECT VDW BOUNDARY MISC KINETIC TOTAL TEMP POTENTIAL TOTALAVG TEMPAVG PRESSURE GPRESSURE VOLUME PRESSAVG GPRESSAVG
ENERGY: 0 4.1138 7.4968 7.9652 0.0000 -10493.6065 1321.1436 0.0000 0.0000 1685.6004 -7467.2867 290.5404 -9152.8871 -7467.2867 290.5404 -1060.1030 -976.9108 29714.8214 -1060.1030 -976.9108
ENERGY: 300000 2.9095 4.8313 6.2408 0.0000 -10486.3018 1365.6124 0.0000 0.0000 1692.2431 -7414.4648 291.6854 -9106.7079 -7382.2586 299.5612 -504.1141 -485.5653 30151.7971 -436.8240 -393.6966
ENERGY: 600000 2.1408 10.7202 9.9426 0.0000 -10489.0241 1360.6535 0.0000 0.0000 1722.0085 -7383.5585 296.8159 -9105.5670 -7382.3590 299.8780 -674.5268 -621.1137 30264.8840 -312.1872 -274.8156
ENERGY: 900000 1.4858 6.3161 4.2176 0.0000 -10534.2504 1360.7578 0.0000 0.0000 1807.8782 -7353.5948 311.6170 -9161.4731 -7387.9747 302.1660 -674.1261 -651.2105 30033.5040 -345.8142 -299.7772
ENERGY: 1200000 2.0728 12.7574 3.3856 0.0000 -10535.2764 1364.0504 0.0000 0.0000 1773.8387 -7379.1714 305.7497 -9153.0102 -7385.1491 301.8564 -383.3519 -293.1882 29717.5380 -252.5559 -207.6489
ENERGY: 1500000 2.2996 3.0370 5.1235 0.0000 -10696.7213 1462.5856 0.0000 0.0000 1740.3820 -7483.2937 299.9829 -9223.6757 -7393.4552 301.4324 -94.1075 16.7700 29746.3939 -225.3794 -173.9196
TCL: Running FEP window  20: Lambda1 0.049999999999999684 Lambda2 0.0    [dLambda -0.049999999999999684]
TCL: Setting parameter firsttimestep to 0
TCL: Setting parameter alchLambda to 0.049999999999999684
Info: NONBONDED TABLE R-SQUARED SPACING: 0.0625
Info: NONBONDED TABLE SIZE: 705 POINTS
TCL: Setting parameter alchLambda2 to 0.0
Info: NONBONDED TABLE R-SQUARED SPACING: 0.0625
Info: NONBONDED TABLE SIZE: 705 POINTS
TCL: Running for 1500000 steps
ETITLE: TS BOND ANGLE DIHED IMPRP ELECT VDW BOUNDARY MISC KINETIC TOTAL TEMP POTENTIAL TOTALAVG TEMPAVG PRESSURE GPRESSURE VOLUME PRESSAVG GPRESSAVG
ENERGY: 0 2.2996 3.0370 5.1235 0.0000 -10696.7208 1462.2992 0.0000 0.0000 1739.5461 -7484.4154 299.8388 -9223.9615 -7484.4154 299.8388 -73.9112 13.7646 29746.3939 -73.9112 13.7646
ENERGY: 300000 2.5729 8.9178 5.5963 0.0000 -10520.1640 1410.7595 0.0000 0.0000 1818.5615 -7273.7562 313.4584 -9092.3176 -7437.4848 301.5749 118.8435 173.7061 29832.9949 326.4255 420.1626
ENERGY: 600000 3.6707 6.1344 5.8863 0.0000 -10431.5328 1351.4674 0.0000 0.0000 1777.4393 -7286.9345 306.3703 -9064.3738 -7403.4872 301.3360 -584.5176 -517.6834 29966.4772 6.2555 82.6512
ENERGY: 900000 2.8348 6.6913 5.0053 0.0000 -10679.4098 1463.6532 0.0000 0.0000 1728.7636 -7472.4616 297.9803 -9201.2252 -7405.5845 300.7242 -156.0025 -148.8684 30055.9283 -28.6709 28.2794
ENERGY: 1200000 0.9725 5.1496 4.1691 0.0000 -10383.0902 1292.3759 0.0000 0.0000 1742.8613 -7337.5618 300.4102 -9080.4231 -7393.8391 300.3280 -1111.9587 -1056.2255 30587.7629 -139.3726 -78.0044
ENERGY: 1500000 2.5919 6.1219 5.2034 0.0000 -10547.8062 1386.0073 0.0000 0.0000 1787.2174 -7360.6642 308.0557 -9147.8816 -7381.0894 301.2809 -704.0904 -641.7813 30481.7726 -130.3708 -68.5982
TCL: Exiting due to exit command.
