Info: SIMULATION PARAMETERS:
Info: TIMESTEP               2
Info: NUMBER OF STEPS        0
Info: STEPS PER CYCLE        10
Info: PERIODIC CELL BASIS 1  31.7794 0 0
Info: PERIODIC CELL BASIS 2  0 30.624 0
Info: PERIODIC CELL BASIS 3  0 0 31.3478
Info: PERIODIC CELL CENTER   0 0 0
Info: WRAPPING WATERS AROUND PERIODIC BOUNDARIES ON OUTPUT.
Info: WRAPPING ALL CLUSTERS AROUND PERIODIC BOUNDARIES ON OUTPUT.
Info: FIRST LDB TIMESTEP     50
Info: LAST LDB TIMESTEP     -1
Info: HOM BACKGROUND SCALING 1
Info: PME BACKGROUND SCALING 1
Info: MIN ATOMS PER PATCH    40
Info: EMPTY PATCH LOAD       40 ATOMS
Info: VELOCITY FILE          mobley_5026370_equil.vel
Info: CENTER OF MASS MOVING INITIALLY? NO
Info: DIELECTRIC             1
Info: EXCLUDE                SCALED ONE-FOUR
Info: 1-4 ELECTROSTATICS SCALED BY 0.833333
Info: MODIFIED 1-4 VDW PARAMETERS WILL BE USED
Info: DCD FILENAME           mobley_5026370_prod.dcd
Info: DCD FREQUENCY          100000
Info: DCD FIRST STEP         100000
Info: DCD FILE WILL CONTAIN UNIT CELL DATA
Info: XST FILENAME           mobley_5026370_prod.xst
Info: XST FREQUENCY          100000
Info: NO VELOCITY DCD OUTPUT
Info: NO FORCE DCD OUTPUT
Info: OUTPUT FILENAME        mobley_5026370_prod
Info: BINARY OUTPUT FILES WILL BE USED
Info: RESTART FILENAME       mobley_5026370_prod.restart
Info: RESTART FREQUENCY      100000
Info: BINARY RESTART FILES WILL BE USED
Info: CUTOFF                 9
Info: PAIRLIST DISTANCE      11
Info: PAIRLIST SHRINK RATE   0.01
Info: PAIRLIST GROW RATE     0.01
Info: PAIRLIST TRIGGER       0.3
Info: PAIRLISTS PER CYCLE    2
Info: PAIRLISTS ENABLED
Info: MARGIN                 2
Info: HYDROGEN GROUP CUTOFF  2.5
Info: PATCH DIMENSION        15.5
Info: ENERGY OUTPUT STEPS    100000
Info: ENERGY EVALUATION STEPS    100000
Info: OUTPUT ENERGY PRECISION 4
Info: CROSSTERM ENERGY INCLUDED IN DIHEDRAL
Info: TIMING OUTPUT STEPS    1000000
Info: PRESSURE OUTPUT STEPS  100000
Info: ALCHEMICAL FEP ON
Info: FEP CURRENT LAMBDA VALUE     1
Info: FEP COMPARISON LAMBDA VALUE  0.95
Info: FEP INTRA-ALCHEMICAL NON-BONDED INTERACTIONS WILL BE RETAINED
Info: FEP INTRA-ALCHEMICAL BONDED INTERACTIONS WILL BE RETAINED
Info: FEP VDW SHIFTING COEFFICIENT 5
Info: FEP ELEC. ACTIVE FOR ANNIHILATED PARTICLES BETWEEN LAMBDA = 0 AND LAMBDA = 0.5
Info: FEP ELEC. ACTIVE FOR EXNIHILATED PARTICLES BETWEEN LAMBDA = 0.5 AND LAMBDA = 1
Info: FEP VDW ACTIVE FOR ANNIHILATED PARTICLES BETWEEN LAMBDA = 0 AND LAMBDA = 1
Info: FEP VDW ACTIVE FOR EXNIHILATED PARTICLES BETWEEN LAMBDA = 0 AND LAMBDA = 1
Info: FEP BOND ACTIVE FOR ANNIHILATED PARTICLES BETWEEN LAMBDA = 1 AND LAMBDA = 1
Info: FEP BOND ACTIVE FOR EXNIHILATED PARTICLES BETWEEN LAMBDA = 0 AND LAMBDA = 0
Info: LANGEVIN DYNAMICS ACTIVE
Info: LANGEVIN TEMPERATURE   300
Info: LANGEVIN USING BBK INTEGRATOR
Info: LANGEVIN DAMPING COEFFICIENT IS 1 INVERSE PS
Info: LANGEVIN DYNAMICS APPLIED TO HYDROGENS
Info: LANGEVIN PISTON PRESSURE CONTROL ACTIVE
Info:        TARGET PRESSURE IS 1.01325 BAR
Info:     OSCILLATION PERIOD IS 50 FS
Info:             DECAY TIME IS 25 FS
Info:     PISTON TEMPERATURE IS 300 K
Info:       PRESSURE CONTROL IS GROUP-BASED
Info:    INITIAL STRAIN RATE IS -3.23543e-05 -3.23543e-05 -3.23543e-05
Info:       CELL FLUCTUATION IS ISOTROPIC
Info: PARTICLE MESH EWALD (PME) ACTIVE
Info: PME TOLERANCE               1e-06
Info: PME EWALD COEFFICIENT       0.348832
Info: PME INTERPOLATION ORDER     4
Info: PME GRID DIMENSIONS         32 32 32
Info: PME MAXIMUM GRID SPACING    1
Info: PME CALCULATION WILL BE PERFORMED ON GPU
Info: FULL ELECTROSTATIC EVALUATION FREQUENCY      2
Info: USING VERLET I (r-RESPA) MTS SCHEME.
Info: C1 SPLITTING OF LONG RANGE ELECTROSTATICS
Info: PLACING ATOMS IN PATCHES BY HYDROGEN GROUPS
Info: RIGID BONDS TO HYDROGEN : ALL
Info:         ERROR TOLERANCE : 1e-08
Info:          MAX ITERATIONS : 100
Info: RIGID WATER USING SETTLE ALGORITHM
Info: RANDOM NUMBER SEED     1743547315
Info: USE HYDROGEN BONDS?    NO
Info: Using AMBER format force field!
Info: AMBER PARM FILE        mobley_5026370.prmtop
Info: COORDINATE PDB         mobley_5026370.pdb
Info: Exclusions will be read from PARM file!
Info: SCNB (VDW SCALING)     2
Info: USING ARITHMETIC MEAN TO COMBINE L-J SIGMA PARAMETERS
Info: BINARY COORDINATES     mobley_5026370_equil.coor
Info: SUMMARY OF PARAMETERS:
Info: 8 BONDS
Info: 8 ANGLES
Info:   8 HARMONIC
Info:   0 COSINE-BASED
Info: 4 DIHEDRAL
Info: 0 IMPROPER
Info: 0 CROSSTERM
Info: 0 VDW
Info: 28 VDW_PAIRS
Info: 0 NBTHOLE_PAIRS
Info: To read alchdata from file: mobley_5026370.pdb
Info: To read alchflag data from column: 5
Info: STRUCTURE SUMMARY:
Info: 2931 ATOMS
Info: 2931 BONDS
Info: 17 ANGLES
Info: 27 DIHEDRALS
Info: 0 IMPROPERS
Info: 0 CROSSTERMS
Info: 2967 EXCLUSIONS
Info: 2923 RIGID BONDS
Info: ALCH: 0 ATOMS TO DISAPPEAR IN FINAL STATE
Info: ALCH: 12 ATOMS TO APPEAR IN FINAL STATE
Info: 5870 DEGREES OF FREEDOM
Info: 981 HYDROGEN GROUPS
Info: 3 ATOMS IN LARGEST HYDROGEN GROUP
Info: 981 MIGRATION GROUPS
Info: 3 ATOMS IN LARGEST MIGRATION GROUP
Info: TOTAL MASS = 17633.7 amu
Info: TOTAL CHARGE = 9.99682e-05 e
Info: MASS DENSITY = 0.959815 g/cm^3
Info: ATOM DENSITY = 0.0960729 atoms/A^3
Info: ADDED 0 IMPLICIT EXCLUSIONS
Info: NONBONDED TABLE R-SQUARED SPACING: 0.0625
Info: NONBONDED TABLE SIZE: 705 POINTS
Info: REMOVING COM VELOCITY 0.0685435 0.040129 -0.047427
Info: Use 3D box decompostion in PME FFT.
Info: Updated CUDA force table with 4096 elements.
Info: Updated CUDA LJ table with 7 x 7 elements.
Info: Found 12 unique exclusion lists needing 20 bytes
TCL: Running for 1500000 steps
ETITLE: TS BOND ANGLE DIHED IMPRP ELECT VDW BOUNDARY MISC KINETIC TOTAL TEMP POTENTIAL TOTALAVG TEMPAVG PRESSURE GPRESSURE VOLUME PRESSAVG GPRESSAVG
ENERGY: 0 1.0516 1.9080 0.8863 0.0000 -10714.2714 1494.7626 0.0000 0.0000 1740.5485 -7475.1143 298.4272 -9215.6628 -7475.1143 298.4272 414.7484 518.3029 30508.0671 414.7484 518.3029
ENERGY: 300000 2.9350 2.2039 3.2222 0.0000 -10765.7601 1443.2827 0.0000 0.0000 1745.5463 -7568.5700 299.2841 -9314.1163 -7482.2144 300.7498 -387.9143 -259.2700 30671.9791 -138.5351 -35.5048
ENERGY: 600000 1.2490 2.5972 0.9375 0.0000 -10622.3260 1395.6937 0.0000 0.0000 1847.5990 -7374.2496 316.7816 -9221.8486 -7449.3212 303.8605 -344.6378 -275.7052 30609.7991 -145.6816 -61.4964
ENERGY: 900000 2.6850 4.5506 2.1526 0.0000 -10728.9493 1507.6984 0.0000 0.0000 1728.9902 -7482.8725 296.4455 -9211.8626 -7454.9097 303.1646 506.9032 597.1660 30097.0182 -13.5337 65.3279
ENERGY: 1200000 3.7637 2.3057 1.4247 0.0000 -10483.4490 1356.4713 0.0000 0.0000 1755.8236 -7363.6600 301.0462 -9119.4837 -7462.9376 301.5991 -605.1923 -468.3599 30749.4166 0.2323 76.5333
ENERGY: 1500000 2.7266 3.1057 2.0377 0.0000 -10629.1141 1437.1325 0.0000 0.0000 1712.8741 -7471.2375 293.6823 -9184.1116 -7467.6333 300.9149 -176.4487 -76.8398 30458.8794 -39.3578 41.2190
TCL: Running FEP window   2: Lambda1 0.95   Lambda2 0.8999999999999999 [dLambda -0.050000000000000044]
TCL: Setting parameter firsttimestep to 0
TCL: Setting parameter alchLambda to 0.95
Info: NONBONDED TABLE R-SQUARED SPACING: 0.0625
Info: NONBONDED TABLE SIZE: 705 POINTS
TCL: Setting parameter alchLambda2 to 0.8999999999999999
Info: NONBONDED TABLE R-SQUARED SPACING: 0.0625
Info: NONBONDED TABLE SIZE: 705 POINTS
TCL: Running for 1500000 steps
ETITLE: TS BOND ANGLE DIHED IMPRP ELECT VDW BOUNDARY MISC KINETIC TOTAL TEMP POTENTIAL TOTALAVG TEMPAVG PRESSURE GPRESSURE VOLUME PRESSAVG GPRESSAVG
ENERGY: 0 2.7266 3.1057 2.0377 0.0000 -10627.8171 1437.2971 0.0000 0.0000 1712.0073 -7470.6427 293.5337 -9182.6501 -7470.6427 293.5337 -170.6562 -82.4765 30458.8794 -170.6562 -82.4765
ENERGY: 300000 3.9583 1.8215 2.7152 0.0000 -10655.5943 1443.3945 0.0000 0.0000 1736.3392 -7467.3657 297.7055 -9203.7048 -7471.4360 299.1724 292.5247 327.8450 30143.3235 37.9875 109.1265
ENERGY: 600000 1.0561 2.4644 2.4144 0.0000 -10651.6576 1492.2161 0.0000 0.0000 1736.4629 -7417.0437 297.7267 -9153.5066 -7463.7899 301.3026 744.6093 825.7324 30279.4211 220.9075 293.8974
ENERGY: 900000 2.0477 3.2697 4.4841 0.0000 -10594.1552 1429.2726 0.0000 0.0000 1754.5389 -7400.5422 300.8259 -9155.0811 -7453.1827 302.1009 376.1028 436.7249 29975.1828 257.2614 331.7421
ENERGY: 1200000 1.3771 3.9531 2.4811 0.0000 -10755.9585 1499.3374 0.0000 0.0000 1711.3714 -7537.4383 293.4246 -9248.8097 -7464.2213 301.1227 181.5725 229.9458 30528.7204 177.4911 239.1958
ENERGY: 1500000 1.4787 3.3851 1.1919 0.0000 -10448.7274 1350.3484 0.0000 0.0000 1735.7540 -7356.5693 297.6052 -9092.3233 -7460.4651 300.8536 -385.4214 -331.7455 30350.9225 146.7765 208.4334
TCL: Running FEP window   3: Lambda1 0.8999999999999999 Lambda2 0.8499999999999999 [dLambda -0.050000000000000044]
TCL: Setting parameter firsttimestep to 0
TCL: Setting parameter alchLambda to 0.8999999999999999
Info: NONBONDED TABLE R-SQUARED SPACING: 0.0625
Info: NONBONDED TABLE SIZE: 705 POINTS
TCL: Setting parameter alchLambda2 to 0.8499999999999999
Info: NONBONDED TABLE R-SQUARED SPACING: 0.0625
Info: NONBONDED TABLE SIZE: 705 POINTS
TCL: Running for 1500000 steps
ETITLE: TS BOND ANGLE DIHED IMPRP ELECT VDW BOUNDARY MISC KINETIC TOTAL TEMP POTENTIAL TOTALAVG TEMPAVG PRESSURE GPRESSURE VOLUME PRESSAVG GPRESSAVG
ENERGY: 0 1.4787 3.3851 1.1919 0.0000 -10447.8293 1350.1098 0.0000 0.0000 1734.9100 -7356.7539 297.4605 -9091.6639 -7356.7539 297.4605 -422.8641 -342.9669 30350.9225 -422.8641 -342.9669
ENERGY: 300000 1.2713 4.0662 1.1584 0.0000 -10581.5399 1393.6624 0.0000 0.0000 1706.2391 -7475.1425 292.5447 -9181.3816 -7428.3017 298.6443 -297.1629 -227.7955 30693.4738 -80.7412 -1.1311
ENERGY: 600000 2.1618 3.3893 1.0629 0.0000 -10538.1359 1406.0551 0.0000 0.0000 1748.2713 -7377.1955 299.7513 -9125.4668 -7451.9125 297.5454 147.1284 232.7811 30053.8291 -130.3353 -57.1161
ENERGY: 900000 4.7989 3.1159 3.0934 0.0000 -10665.9796 1418.4217 0.0000 0.0000 1754.1506 -7482.3991 300.7594 -9236.5497 -7456.3671 298.5470 -400.8257 -294.9440 30272.6262 -80.9799 -4.6580
ENERGY: 1200000 1.8852 4.0084 2.6995 0.0000 -10706.9725 1449.5410 0.0000 0.0000 1753.6170 -7495.2215 300.6679 -9248.8385 -7456.8506 299.1290 85.4826 152.7063 30123.1588 -56.6798 9.2596
ENERGY: 1500000 1.3970 3.6324 1.3935 0.0000 -10754.3767 1492.1297 0.0000 0.0000 1757.3807 -7498.4435 301.3132 -9255.8242 -7460.7785 299.6840 352.1121 412.0194 30165.2125 65.9502 128.6275
TCL: Running FEP window   4: Lambda1 0.8499999999999999 Lambda2 0.7999999999999998 [dLambda -0.050000000000000044]
TCL: Setting parameter firsttimestep to 0
TCL: Setting parameter alchLambda to 0.8499999999999999
Info: NONBONDED TABLE R-SQUARED SPACING: 0.0625
Info: NONBONDED TABLE SIZE: 705 POINTS
TCL: Setting parameter alchLambda2 to 0.7999999999999998
Info: NONBONDED TABLE R-SQUARED SPACING: 0.0625
Info: NONBONDED TABLE SIZE: 705 POINTS
TCL: Running for 1500000 steps
ETITLE: TS BOND ANGLE DIHED IMPRP ELECT VDW BOUNDARY MISC KINETIC TOTAL TEMP POTENTIAL TOTALAVG TEMPAVG PRESSURE GPRESSURE VOLUME PRESSAVG GPRESSAVG
ENERGY: 0 1.3970 3.6323 1.3935 0.0000 -10753.7592 1492.2945 0.0000 0.0000 1756.5302 -7498.5117 301.1674 -9255.0418 -7498.5117 301.1674 322.2796 399.8891 30165.2125 322.2796 399.8891
ENERGY: 300000 4.5340 4.3576 4.4492 0.0000 -10537.3720 1391.3609 0.0000 0.0000 1787.8414 -7344.8289 306.5358 -9132.6702 -7475.9360 302.8945 66.8274 123.1697 29777.6303 -111.3242 -42.0457
ENERGY: 600000 2.2474 4.3231 2.2194 0.0000 -10756.6752 1512.8851 0.0000 0.0000 1717.5220 -7517.4783 294.4792 -9235.0003 -7466.2300 301.2014 595.6000 642.4414 30286.2601 65.2999 110.8693
ENERGY: 900000 5.4811 8.4778 1.9436 0.0000 -10571.2251 1363.0304 0.0000 0.0000 1779.8684 -7412.4238 305.1688 -9192.2922 -7455.7781 301.9849 -661.5995 -627.3658 30407.6095 12.2412 68.4496
ENERGY: 1200000 1.5080 4.3921 2.3387 0.0000 -10543.4750 1363.7564 0.0000 0.0000 1767.2600 -7404.2198 303.0071 -9171.4798 -7448.0906 302.9065 -255.3579 -229.3371 30239.3279 71.3704 123.1878
ENERGY: 1500000 2.8205 0.8471 1.5058 0.0000 -10552.9435 1398.2250 0.0000 0.0000 1756.2673 -7393.2779 301.1223 -9149.5452 -7450.6104 302.0471 27.5928 44.9678 30513.9078 102.4085 152.5367
TCL: Running FEP window   5: Lambda1 0.7999999999999998 Lambda2 0.7499999999999998 [dLambda -0.050000000000000044]
TCL: Setting parameter firsttimestep to 0
TCL: Setting parameter alchLambda to 0.7999999999999998
Info: NONBONDED TABLE R-SQUARED SPACING: 0.0625
Info: NONBONDED TABLE SIZE: 705 POINTS
TCL: Setting parameter alchLambda2 to 0.7499999999999998
Info: NONBONDED TABLE R-SQUARED SPACING: 0.0625
Info: NONBONDED TABLE SIZE: 705 POINTS
TCL: Running for 1500000 steps
ETITLE: TS BOND ANGLE DIHED IMPRP ELECT VDW BOUNDARY MISC KINETIC TOTAL TEMP POTENTIAL TOTALAVG TEMPAVG PRESSURE GPRESSURE VOLUME PRESSAVG GPRESSAVG
ENERGY: 0 2.8205 0.8471 1.5058 0.0000 -10551.6259 1397.7354 0.0000 0.0000 1755.4245 -7393.2927 300.9778 -9148.7172 -7393.2927 300.9778 -41.8222 35.1111 30513.9078 -41.8222 35.1111
ENERGY: 300000 0.5378 5.4735 2.0873 0.0000 -10602.6384 1410.9276 0.0000 0.0000 1777.1888 -7406.4233 304.7094 -9183.6121 -7417.1927 302.5981 14.7268 3.7512 30243.6892 -319.4750 -259.0828
ENERGY: 600000 5.1272 1.8708 2.4685 0.0000 -10659.0074 1371.6968 0.0000 0.0000 1734.2892 -7543.5550 297.3540 -9277.8442 -7446.9391 300.4559 -667.5665 -512.3583 30066.0288 -78.6708 -9.2426
ENERGY: 900000 1.7742 2.3518 3.6285 0.0000 -10701.1047 1464.2140 0.0000 0.0000 1722.2834 -7506.8528 295.2956 -9229.1363 -7454.8128 298.9517 171.4766 244.6614 30137.8379 -75.0162 -15.7731
ENERGY: 1200000 2.3931 1.6281 2.5349 0.0000 -10665.1794 1377.4769 0.0000 0.0000 1720.7327 -7560.4136 295.0297 -9281.1464 -7458.2778 299.6563 -725.8469 -632.5545 30133.8218 -98.1961 -33.0355
ENERGY: 1500000 10.4652 3.3714 3.0013 0.0000 -10707.8625 1453.9575 0.0000 0.0000 1733.3342 -7503.7328 297.1903 -9237.0670 -7464.5004 299.8818 52.2343 90.5262 30039.0789 -93.1170 -33.3599
TCL: Running FEP window   6: Lambda1 0.7499999999999998 Lambda2 0.6999999999999997 [dLambda -0.050000000000000044]
TCL: Setting parameter firsttimestep to 0
TCL: Setting parameter alchLambda to 0.7499999999999998
Info: NONBONDED TABLE R-SQUARED SPACING: 0.0625
Info: NONBONDED TABLE SIZE: 705 POINTS
TCL: Setting parameter alchLambda2 to 0.6999999999999997
Info: NONBONDED TABLE R-SQUARED SPACING: 0.0625
Info: NONBONDED TABLE SIZE: 705 POINTS
TCL: Running for 1500000 steps
ETITLE: TS BOND ANGLE DIHED IMPRP ELECT VDW BOUNDARY MISC KINETIC TOTAL TEMP POTENTIAL TOTALAVG TEMPAVG PRESSURE GPRESSURE VOLUME PRESSAVG GPRESSAVG
ENERGY: 0 10.4652 3.3714 3.0013 0.0000 -10706.4561 1453.6663 0.0000 0.0000 1732.4600 -7503.4919 297.0404 -9235.9519 -7503.4919 297.0404 -7.6415 84.0405 30039.0789 -7.6415 84.0405
ENERGY: 300000 2.1413 2.3534 0.8030 0.0000 -10647.5842 1444.4137 0.0000 0.0000 1793.3564 -7404.5165 307.4814 -9197.8728 -7436.1323 301.3081 163.9432 209.4977 30418.1451 -141.9387 -76.3606
ENERGY: 600000 3.2046 4.5897 3.1344 0.0000 -10714.6073 1512.0348 0.0000 0.0000 1743.3776 -7448.2662 298.9123 -9191.6438 -7441.9612 300.2913 687.8893 768.2366 30208.8443 -21.5095 59.4029
ENERGY: 900000 4.1272 1.7313 2.3342 0.0000 -10677.0496 1458.5902 0.0000 0.0000 1784.9231 -7425.3436 306.0355 -9210.2667 -7434.6569 301.9024 96.3969 114.4918 30548.8662 9.5497 90.3190
ENERGY: 1200000 1.6725 4.0494 4.0483 0.0000 -10649.0998 1445.2748 0.0000 0.0000 1737.8252 -7456.2296 297.9603 -9194.0549 -7439.8323 301.9439 259.5600 324.1332 29838.2262 -69.8199 7.5143
ENERGY: 1500000 3.7522 4.0433 2.5980 0.0000 -10618.1722 1413.1246 0.0000 0.0000 1748.9891 -7445.6651 299.8744 -9194.6542 -7439.3920 302.2883 -63.2939 1.4577 30123.0556 -80.8256 -4.5767
TCL: Running FEP window   7: Lambda1 0.6999999999999997 Lambda2 0.6499999999999997 [dLambda -0.050000000000000044]
TCL: Setting parameter firsttimestep to 0
TCL: Setting parameter alchLambda to 0.6999999999999997
Info: NONBONDED TABLE R-SQUARED SPACING: 0.0625
Info: NONBONDED TABLE SIZE: 705 POINTS
TCL: Setting parameter alchLambda2 to 0.6499999999999997
Info: NONBONDED TABLE R-SQUARED SPACING: 0.0625
Info: NONBONDED TABLE SIZE: 705 POINTS
TCL: Running for 1500000 steps
ETITLE: TS BOND ANGLE DIHED IMPRP ELECT VDW BOUNDARY MISC KINETIC TOTAL TEMP POTENTIAL TOTALAVG TEMPAVG PRESSURE GPRESSURE VOLUME PRESSAVG GPRESSAVG
ENERGY: 0 3.7522 4.0432 2.5980 0.0000 -10617.6039 1413.2017 0.0000 0.0000 1748.1208 -7445.8880 299.7255 -9194.0089 -7445.8880 299.7255 -89.0958 -5.8817 30123.0556 -89.0958 -5.8817
ENERGY: 300000 2.4984 8.4546 4.2437 0.0000 -10580.3491 1413.1513 0.0000 0.0000 1739.8093 -7412.1917 298.3005 -9152.0010 -7427.3303 301.4903 -88.4817 -22.5450 30759.8591 67.2684 127.8124
ENERGY: 600000 4.4734 3.9886 1.3058 0.0000 -10597.0179 1445.4457 0.0000 0.0000 1751.1421 -7390.6623 300.2435 -9141.8044 -7454.1633 300.0353 175.2345 218.6635 30106.7082 146.2821 206.9036
ENERGY: 900000 2.5916 3.8047 2.9650 0.0000 -10652.5914 1494.2765 0.0000 0.0000 1751.5630 -7397.3906 300.3157 -9148.9535 -7450.1857 300.5634 690.0198 787.6559 30232.2257 104.4360 162.6120
ENERGY: 1200000 0.7340 1.7903 1.3190 0.0000 -10508.5983 1358.1941 0.0000 0.0000 1740.6358 -7405.9251 298.4422 -9146.5609 -7436.0912 300.5106 -253.6497 -215.0511 29985.0426 51.0923 107.2977
ENERGY: 1500000 3.6659 6.3552 0.8460 0.0000 -10626.2456 1418.7475 0.0000 0.0000 1728.4577 -7468.1732 296.3542 -9196.6309 -7439.0857 299.9978 -201.7206 -113.4264 30322.5809 22.6861 78.2330
TCL: Running FEP window   8: Lambda1 0.6499999999999997 Lambda2 0.5999999999999996 [dLambda -0.050000000000000044]
TCL: Setting parameter firsttimestep to 0
TCL: Setting parameter alchLambda to 0.6499999999999997
Info: NONBONDED TABLE R-SQUARED SPACING: 0.0625
Info: NONBONDED TABLE SIZE: 705 POINTS
TCL: Setting parameter alchLambda2 to 0.5999999999999996
Info: NONBONDED TABLE R-SQUARED SPACING: 0.0625
Info: NONBONDED TABLE SIZE: 705 POINTS
TCL: Running for 1500000 steps
ETITLE: TS BOND ANGLE DIHED IMPRP ELECT VDW BOUNDARY MISC KINETIC TOTAL TEMP POTENTIAL TOTALAVG TEMPAVG PRESSURE GPRESSURE VOLUME PRESSAVG GPRESSAVG
ENERGY: 0 3.6659 6.3552 0.8460 0.0000 -10625.3771 1418.3246 0.0000 0.0000 1727.5670 -7468.6185 296.2014 -9196.1854 -7468.6185 296.2014 -220.5780 -123.8156 30322.5809 -220.5780 -123.8156
ENERGY: 300000 3.6563 6.9207 1.8408 0.0000 -10731.7033 1531.1902 0.0000 0.0000 1748.9615 -7439.1338 299.8697 -9188.0953 -7499.0926 295.1863 1049.9146 1058.0333 29899.0749 329.3454 391.6270
ENERGY: 600000 3.9229 4.4086 2.9612 0.0000 -10554.2422 1342.8583 0.0000 0.0000 1743.8516 -7456.2395 298.9935 -9200.0911 -7461.8463 300.0387 -927.7622 -899.7700 30548.1561 98.6405 165.9544
ENERGY: 900000 6.7217 1.6867 1.8521 0.0000 -10619.9594 1442.7941 0.0000 0.0000 1770.5373 -7396.3675 303.5690 -9166.9048 -7435.9752 302.1076 62.6300 152.5202 30135.1305 44.8978 119.1838
ENERGY: 1200000 1.1985 1.5730 2.6953 0.0000 -10650.0726 1459.1902 0.0000 0.0000 1713.1045 -7472.3110 293.7218 -9185.4155 -7430.2060 301.0729 134.5870 180.7410 30333.6665 -15.6397 54.3315
ENERGY: 1500000 3.9168 4.0837 1.3985 0.0000 -10671.5590 1442.6820 0.0000 0.0000 1770.6270 -7448.8509 303.5843 -9219.4779 -7432.9950 301.7713 -35.5519 -43.3388 30338.9571 -34.0026 33.3811
TCL: Running FEP window   9: Lambda1 0.5999999999999996 Lambda2 0.5499999999999996 [dLambda -0.050000000000000044]
TCL: Setting parameter firsttimestep to 0
TCL: Setting parameter alchLambda to 0.5999999999999996
Info: NONBONDED TABLE R-SQUARED SPACING: 0.0625
Info: NONBONDED TABLE SIZE: 705 POINTS
TCL: Setting parameter alchLambda2 to 0.5499999999999996
Info: NONBONDED TABLE R-SQUARED SPACING: 0.0625
Info: NONBONDED TABLE SIZE: 705 POINTS
TCL: Running for 1500000 steps
ETITLE: TS BOND ANGLE DIHED IMPRP ELECT VDW BOUNDARY MISC KINETIC TOTAL TEMP POTENTIAL TOTALAVG TEMPAVG PRESSURE GPRESSURE VOLUME PRESSAVG GPRESSAVG
ENERGY: 0 3.9168 4.0837 1.3985 0.0000 -10670.9980 1442.9880 0.0000 0.0000 1769.7800 -7448.8310 303.4391 -9218.6110 -7448.8310 303.4391 -121.9209 -49.4183 30338.9571 -121.9209 -49.4183
ENERGY: 300000 1.5707 2.7801 2.7940 0.0000 -10628.4719 1489.3545 0.0000 0.0000 1724.6736 -7407.2991 295.7054 -9131.9726 -7424.3525 302.2307 451.3687 469.5833 30416.7297 -43.8831 25.5580
ENERGY: 600000 4.9502 1.6897 1.5760 0.0000 -10650.5563 1425.7185 0.0000 0.0000 1724.0680 -7492.5540 295.6015 -9216.6219 -7434.5031 300.4904 -117.1626 58.5262 30185.4585 -115.8302 -29.6354
ENERGY: 900000 3.4631 4.2751 2.1563 0.0000 -10495.3635 1319.6990 0.0000 0.0000 1731.8002 -7433.9697 296.9273 -9165.7700 -7451.2435 298.3674 -742.6768 -733.3139 30345.2183 -41.1534 31.8415
ENERGY: 1200000 5.9630 5.3193 3.3510 0.0000 -10708.1783 1476.5003 0.0000 0.0000 1783.0515 -7433.9932 305.7146 -9217.0447 -7455.6891 298.3785 335.3894 454.4570 29992.2405 199.8829 273.3178
ENERGY: 1500000 2.0935 3.9652 1.1250 0.0000 -10566.0372 1364.6585 0.0000 0.0000 1721.2560 -7472.9389 295.1194 -9194.1949 -7457.9562 298.4540 -771.1602 -662.7455 30881.0481 82.8584 158.1534
TCL: Running FEP window  10: Lambda1 0.5499999999999996 Lambda2 0.4999999999999996 [dLambda -0.04999999999999999]
TCL: Setting parameter firsttimestep to 0
TCL: Setting parameter alchLambda to 0.5499999999999996
Info: NONBONDED TABLE R-SQUARED SPACING: 0.0625
Info: NONBONDED TABLE SIZE: 705 POINTS
TCL: Setting parameter alchLambda2 to 0.4999999999999996
Info: NONBONDED TABLE R-SQUARED SPACING: 0.0625
Info: NONBONDED TABLE SIZE: 705 POINTS
TCL: Running for 1500000 steps
ETITLE: TS BOND ANGLE DIHED IMPRP ELECT VDW BOUNDARY MISC KINETIC TOTAL TEMP POTENTIAL TOTALAVG TEMPAVG PRESSURE GPRESSURE VOLUME PRESSAVG GPRESSAVG
ENERGY: 0 2.0935 3.9652 1.1250 0.0000 -10565.8352 1364.6428 0.0000 0.0000 1720.3681 -7473.6406 294.9672 -9194.0087 -7473.6406 294.9672 -748.0463 -667.9409 30881.0481 -748.0463 -667.9409
ENERGY: 300000 1.9647 1.1000 1.1760 0.0000 -10699.0052 1428.4615 0.0000 0.0000 1760.1442 -7506.1589 301.7870 -9266.3031 -7457.8777 301.1201 -315.4088 -248.1423 30098.0395 -320.5090 -247.3063
ENERGY: 600000 2.5716 4.0238 2.1222 0.0000 -10708.2719 1526.9750 0.0000 0.0000 1736.8621 -7435.7173 297.7952 -9172.5794 -7452.2449 300.4953 849.2386 891.4546 29730.9165 -70.3400 -10.0355
ENERGY: 900000 2.3553 3.0419 2.0619 0.0000 -10502.1605 1365.1430 0.0000 0.0000 1734.2995 -7395.2590 297.3558 -9129.5585 -7444.6869 300.3743 -612.6558 -546.4218 30651.2612 -279.1700 -213.8759
ENERGY: 1200000 2.8779 4.4849 1.1017 0.0000 -10596.1292 1436.7468 0.0000 0.0000 1842.0201 -7308.8977 315.8251 -9150.9178 -7435.9149 301.9686 413.4945 450.1919 30106.2803 -212.5999 -137.6187
ENERGY: 1500000 1.6542 3.9997 1.2638 0.0000 -10529.7982 1407.8114 0.0000 0.0000 1751.6860 -7363.3831 300.3368 -9115.0691 -7431.8278 301.4468 -9.0803 6.3033 30627.5775 -96.6158 -31.6410
TCL: Running FEP window  11: Lambda1 0.4999999999999996 Lambda2 0.4499999999999996 [dLambda -0.04999999999999999]
TCL: Setting parameter firsttimestep to 0
TCL: Setting parameter alchLambda to 0.4999999999999996
Info: NONBONDED TABLE R-SQUARED SPACING: 0.0625
Info: NONBONDED TABLE SIZE: 705 POINTS
TCL: Setting parameter alchLambda2 to 0.4499999999999996
Info: NONBONDED TABLE R-SQUARED SPACING: 0.0625
Info: NONBONDED TABLE SIZE: 705 POINTS
TCL: Running for 1500000 steps
ETITLE: TS BOND ANGLE DIHED IMPRP ELECT VDW BOUNDARY MISC KINETIC TOTAL TEMP POTENTIAL TOTALAVG TEMPAVG PRESSURE GPRESSURE VOLUME PRESSAVG GPRESSAVG
ENERGY: 0 1.6542 3.9997 1.2638 0.0000 -10529.4975 1408.2841 0.0000 0.0000 1750.8255 -7363.4701 300.1893 -9114.2957 -7363.4701 300.1893 -81.6777 7.4656 30627.5775 -81.6777 7.4656
ENERGY: 300000 2.3083 2.8360 2.4766 0.0000 -10617.8007 1404.6484 0.0000 0.0000 1730.9051 -7474.6263 296.7738 -9205.5314 -7435.9787 300.7736 -523.0957 -494.0077 30785.9745 -526.8745 -435.0454
ENERGY: 600000 0.5945 4.1501 3.3598 0.0000 -10698.7266 1436.3782 0.0000 0.0000 1735.0789 -7519.1651 297.4894 -9254.2440 -7468.5220 300.1511 -80.7388 -86.3926 30429.4302 -282.1453 -207.6523
ENERGY: 900000 4.6438 4.7607 1.3811 0.0000 -10653.5036 1448.1227 0.0000 0.0000 1734.4519 -7460.1434 297.3819 -9194.5953 -7464.0933 300.6435 42.8683 106.9109 29798.3771 -158.0317 -88.5727
ENERGY: 1200000 2.2807 3.0524 2.0155 0.0000 -10570.6247 1404.6658 0.0000 0.0000 1738.2450 -7420.3654 298.0323 -9158.6104 -7456.5120 299.9151 -288.3422 -181.8498 30293.7485 -179.4112 -103.9527
ENERGY: 1500000 0.7585 2.6008 2.0673 0.0000 -10609.8587 1393.7388 0.0000 0.0000 1754.7593 -7455.9340 300.8637 -9210.6933 -7458.6813 299.6562 -289.8343 -221.3898 30097.0542 -160.0919 -86.2476
TCL: Running FEP window  12: Lambda1 0.4499999999999996 Lambda2 0.39999999999999963 [dLambda -0.04999999999999999]
TCL: Setting parameter firsttimestep to 0
TCL: Setting parameter alchLambda to 0.4499999999999996
Info: NONBONDED TABLE R-SQUARED SPACING: 0.0625
Info: NONBONDED TABLE SIZE: 705 POINTS
TCL: Setting parameter alchLambda2 to 0.39999999999999963
Info: NONBONDED TABLE R-SQUARED SPACING: 0.0625
Info: NONBONDED TABLE SIZE: 705 POINTS
TCL: Running for 1500000 steps
ETITLE: TS BOND ANGLE DIHED IMPRP ELECT VDW BOUNDARY MISC KINETIC TOTAL TEMP POTENTIAL TOTALAVG TEMPAVG PRESSURE GPRESSURE VOLUME PRESSAVG GPRESSAVG
ENERGY: 0 0.7585 2.6008 2.0673 0.0000 -10609.8578 1394.3357 0.0000 0.0000 1753.8254 -7456.2701 300.7036 -9210.0956 -7456.2701 300.7036 -299.3335 -222.5619 30097.0542 -299.3335 -222.5619
ENERGY: 300000 2.1601 4.3422 4.1860 0.0000 -10324.4798 1298.9935 0.0000 0.0000 1733.1414 -7281.6565 297.1572 -9014.7979 -7435.9231 297.0370 -323.8814 -305.4107 30018.5389 -358.1973 -315.9764
ENERGY: 600000 1.3348 2.8076 2.0763 0.0000 -10771.1453 1514.7124 0.0000 0.0000 1733.7200 -7516.4942 297.2564 -9250.2142 -7445.8699 298.2247 1001.5526 1028.7322 29334.9388 20.1818 79.6165
ENERGY: 900000 0.8760 2.5675 1.0057 0.0000 -10617.4115 1437.8732 0.0000 0.0000 1782.1253 -7392.9638 305.5558 -9175.0891 -7446.8525 298.7536 341.5950 361.0699 30021.5497 -119.4351 -64.9486
ENERGY: 1200000 3.1175 2.2159 2.0803 0.0000 -10589.5677 1391.9894 0.0000 0.0000 1789.7841 -7400.3806 306.8689 -9190.1647 -7456.0005 298.8354 -85.9170 -14.9959 30135.4814 -39.9826 15.3975
ENERGY: 1500000 2.8612 6.1612 5.1849 0.0000 -10723.9778 1534.6104 0.0000 0.0000 1759.4005 -7415.7596 301.6595 -9175.1601 -7451.6643 298.7249 975.6453 1062.8932 29945.0492 94.0693 155.6732
TCL: Running FEP window  13: Lambda1 0.39999999999999963 Lambda2 0.34999999999999964 [dLambda -0.04999999999999999]
TCL: Setting parameter firsttimestep to 0
TCL: Setting parameter alchLambda to 0.39999999999999963
Info: NONBONDED TABLE R-SQUARED SPACING: 0.0625
Info: NONBONDED TABLE SIZE: 705 POINTS
TCL: Setting parameter alchLambda2 to 0.34999999999999964
Info: NONBONDED TABLE R-SQUARED SPACING: 0.0625
Info: NONBONDED TABLE SIZE: 705 POINTS
TCL: Running for 1500000 steps
ETITLE: TS BOND ANGLE DIHED IMPRP ELECT VDW BOUNDARY MISC KINETIC TOTAL TEMP POTENTIAL TOTALAVG TEMPAVG PRESSURE GPRESSURE VOLUME PRESSAVG GPRESSAVG
ENERGY: 0 2.8612 6.1612 5.1849 0.0000 -10723.9778 1535.1681 0.0000 0.0000 1758.5078 -7416.0946 301.5064 -9174.6024 -7416.0946 301.5064 985.0403 1062.9328 29945.0492 985.0403 1062.9328
ENERGY: 300000 3.7005 4.2313 0.9157 0.0000 -10673.3652 1426.1154 0.0000 0.0000 1740.8382 -7497.5641 298.4769 -9238.4023 -7475.8507 297.7391 -91.4744 -101.6588 29926.3846 294.7195 368.2851
ENERGY: 600000 3.7986 3.8524 1.6607 0.0000 -10661.6229 1384.1998 0.0000 0.0000 1764.3996 -7503.7117 302.5166 -9268.1114 -7454.0704 300.4884 -520.8144 -401.9778 29843.8007 -33.9028 50.0848
ENERGY: 900000 5.0768 2.9145 4.0747 0.0000 -10620.2190 1414.0849 0.0000 0.0000 1731.5255 -7462.5425 296.8802 -9194.0680 -7461.6073 298.7026 -294.1155 -260.4996 30427.7846 34.6010 110.6126
ENERGY: 1200000 3.9881 1.2706 3.6785 0.0000 -10455.5470 1283.1474 0.0000 0.0000 1734.0518 -7429.4105 297.3133 -9163.4623 -7461.2856 299.1963 -1088.9567 -1036.2261 30351.0184 -132.4626 -56.1900
ENERGY: 1500000 2.4411 3.8884 2.4558 0.0000 -10576.1913 1386.8721 0.0000 0.0000 1759.3841 -7421.1499 301.6567 -9180.5339 -7460.3138 298.9085 -474.3514 -420.8287 30506.4847 -82.6308 -10.5243
TCL: Running FEP window  14: Lambda1 0.34999999999999964 Lambda2 0.29999999999999966 [dLambda -0.04999999999999999]
TCL: Setting parameter firsttimestep to 0
TCL: Setting parameter alchLambda to 0.34999999999999964
Info: NONBONDED TABLE R-SQUARED SPACING: 0.0625
Info: NONBONDED TABLE SIZE: 705 POINTS
TCL: Setting parameter alchLambda2 to 0.29999999999999966
Info: NONBONDED TABLE R-SQUARED SPACING: 0.0625
Info: NONBONDED TABLE SIZE: 705 POINTS
TCL: Running for 1500000 steps
ETITLE: TS BOND ANGLE DIHED IMPRP ELECT VDW BOUNDARY MISC KINETIC TOTAL TEMP POTENTIAL TOTALAVG TEMPAVG PRESSURE GPRESSURE VOLUME PRESSAVG GPRESSAVG
ENERGY: 0 2.4411 3.8884 2.4558 0.0000 -10576.1913 1387.4002 0.0000 0.0000 1758.5222 -7421.4836 301.5089 -9180.0058 -7421.4836 301.5089 -501.7722 -421.7513 30506.4847 -501.7722 -421.7513
ENERGY: 300000 2.1436 4.7185 3.9507 0.0000 -10759.4847 1486.4422 0.0000 0.0000 1733.7416 -7528.4881 297.2601 -9262.2297 -7506.9641 297.5113 93.5366 182.1926 30331.3893 188.3236 269.8639
ENERGY: 600000 0.7625 3.0936 1.1887 0.0000 -10535.8731 1363.9437 0.0000 0.0000 1717.6850 -7449.1996 294.5071 -9166.8846 -7479.4761 297.8551 -641.9498 -561.1599 30256.3276 195.7509 264.0208
ENERGY: 900000 5.7478 2.3646 1.8671 0.0000 -10530.7821 1371.1613 0.0000 0.0000 1724.0759 -7425.5655 295.6029 -9149.6414 -7475.8112 297.4328 -784.0188 -668.2368 30537.3775 -62.0840 21.5148
ENERGY: 1200000 1.2592 2.0307 1.2321 0.0000 -10596.3382 1401.6131 0.0000 0.0000 1782.9312 -7407.2720 305.6940 -9190.2032 -7465.6204 297.8696 -334.4002 -198.9042 30452.5116 -81.4622 4.7381
ENERGY: 1500000 1.0097 3.1124 2.4025 0.0000 -10619.8374 1390.0015 0.0000 0.0000 1704.6532 -7518.6582 292.2727 -9223.3113 -7463.5902 297.4062 -373.3122 -358.2613 30211.1622 -71.6271 6.4519
TCL: Running FEP window  15: Lambda1 0.29999999999999966 Lambda2 0.24999999999999967 [dLambda -0.04999999999999999]
TCL: Setting parameter firsttimestep to 0
TCL: Setting parameter alchLambda to 0.29999999999999966
Info: NONBONDED TABLE R-SQUARED SPACING: 0.0625
Info: NONBONDED TABLE SIZE: 705 POINTS
TCL: Setting parameter alchLambda2 to 0.24999999999999967
Info: NONBONDED TABLE R-SQUARED SPACING: 0.0625
Info: NONBONDED TABLE SIZE: 705 POINTS
TCL: Running for 1500000 steps
ETITLE: TS BOND ANGLE DIHED IMPRP ELECT VDW BOUNDARY MISC KINETIC TOTAL TEMP POTENTIAL TOTALAVG TEMPAVG PRESSURE GPRESSURE VOLUME PRESSAVG GPRESSAVG
ENERGY: 0 1.0097 3.1124 2.4025 0.0000 -10619.8371 1390.3841 0.0000 0.0000 1703.7811 -7519.1474 292.1232 -9222.9284 -7519.1474 292.1232 -445.9867 -358.5463 30211.1622 -445.9867 -358.5463
ENERGY: 300000 4.0572 3.2685 3.6446 0.0000 -10597.1326 1385.6971 0.0000 0.0000 1722.0737 -7478.3915 295.2596 -9200.4652 -7480.2786 297.6158 -456.3472 -300.2544 30262.3717 -266.1765 -174.1816
ENERGY: 600000 2.6530 2.1130 4.2216 0.0000 -10771.0064 1497.6164 0.0000 0.0000 1813.0219 -7451.3805 310.8532 -9264.4024 -7475.3928 299.3198 161.2308 235.9818 30439.7969 -173.0064 -102.8390
ENERGY: 900000 4.8197 2.8207 2.4530 0.0000 -10677.1028 1469.6422 0.0000 0.0000 1753.8952 -7443.4721 300.7156 -9197.3672 -7451.0531 300.4929 259.1095 329.0795 30202.7416 -144.3907 -73.1375
ENERGY: 1200000 2.8421 1.8842 1.4037 0.0000 -10671.0107 1404.9233 0.0000 0.0000 1739.8694 -7520.0881 298.3108 -9259.9574 -7452.4836 300.7662 -248.9461 -169.2388 29627.9391 -116.4825 -47.0566
ENERGY: 1500000 3.4133 1.7083 1.1111 0.0000 -10741.1214 1540.3333 0.0000 0.0000 1749.1746 -7445.3808 299.9062 -9194.5554 -7455.5718 300.5518 829.5961 846.8782 30093.4843 -99.8872 -35.4151
TCL: Running FEP window  16: Lambda1 0.24999999999999967 Lambda2 0.19999999999999968 [dLambda -0.04999999999999999]
TCL: Setting parameter firsttimestep to 0
TCL: Setting parameter alchLambda to 0.24999999999999967
Info: NONBONDED TABLE R-SQUARED SPACING: 0.0625
Info: NONBONDED TABLE SIZE: 705 POINTS
TCL: Setting parameter alchLambda2 to 0.19999999999999968
Info: NONBONDED TABLE R-SQUARED SPACING: 0.0625
Info: NONBONDED TABLE SIZE: 705 POINTS
TCL: Running for 1500000 steps
ETITLE: TS BOND ANGLE DIHED IMPRP ELECT VDW BOUNDARY MISC KINETIC TOTAL TEMP POTENTIAL TOTALAVG TEMPAVG PRESSURE GPRESSURE VOLUME PRESSAVG GPRESSAVG
ENERGY: 0 3.4133 1.7083 1.1111 0.0000 -10741.1232 1540.6712 0.0000 0.0000 1748.3143 -7445.9049 299.7587 -9194.2193 -7445.9049 299.7587 757.4569 843.4993 30093.4843 757.4569 843.4993
ENERGY: 300000 3.6922 3.0341 2.3612 0.0000 -10602.1368 1383.4716 0.0000 0.0000 1725.0006 -7484.5771 295.7614 -9209.5777 -7454.9678 299.0102 -590.2243 -558.5254 30252.2646 -191.5721 -129.2825
ENERGY: 600000 2.3705 2.4201 1.5459 0.0000 -10598.1499 1424.5079 0.0000 0.0000 1744.3942 -7422.9113 299.0866 -9167.3055 -7456.6346 297.2351 -183.8231 -124.2142 30818.3328 -173.5118 -119.4246
ENERGY: 900000 2.1573 1.4620 2.0973 0.0000 -10776.3253 1565.0829 0.0000 0.0000 1690.2528 -7515.2730 289.8037 -9205.5258 -7472.3237 296.4604 1163.0333 1208.6566 29777.5529 73.1349 114.0155
ENERGY: 1200000 3.6703 2.2305 4.1029 0.0000 -10546.5324 1400.6967 0.0000 0.0000 1731.9709 -7403.8611 296.9565 -9135.8320 -7455.9367 297.3294 -245.3035 -246.8052 30328.5403 -129.6033 -88.5542
ENERGY: 1500000 2.6300 3.0796 1.2843 0.0000 -10592.0912 1395.1783 0.0000 0.0000 1773.5636 -7416.3553 304.0878 -9189.9190 -7451.0061 297.9613 -405.5620 -361.5325 30114.1788 -162.0539 -120.4228
TCL: Running FEP window  17: Lambda1 0.19999999999999968 Lambda2 0.1499999999999997 [dLambda -0.04999999999999999]
TCL: Setting parameter firsttimestep to 0
TCL: Setting parameter alchLambda to 0.19999999999999968
Info: NONBONDED TABLE R-SQUARED SPACING: 0.0625
Info: NONBONDED TABLE SIZE: 705 POINTS
TCL: Setting parameter alchLambda2 to 0.1499999999999997
Info: NONBONDED TABLE R-SQUARED SPACING: 0.0625
Info: NONBONDED TABLE SIZE: 705 POINTS
TCL: Running for 1500000 steps
ETITLE: TS BOND ANGLE DIHED IMPRP ELECT VDW BOUNDARY MISC KINETIC TOTAL TEMP POTENTIAL TOTALAVG TEMPAVG PRESSURE GPRESSURE VOLUME PRESSAVG GPRESSAVG
ENERGY: 0 2.6300 3.0796 1.2843 0.0000 -10592.0915 1394.9639 0.0000 0.0000 1772.6890 -7417.4447 303.9379 -9190.1337 -7417.4447 303.9379 -440.5616 -364.8697 30114.1788 -440.5616 -364.8697
ENERGY: 300000 2.0346 1.3759 1.7666 0.0000 -10659.0232 1430.4416 0.0000 0.0000 1757.7278 -7465.6768 301.3727 -9223.4045 -7419.2088 303.4424 -144.8897 -84.9531 30168.8290 -253.4460 -183.3702
ENERGY: 600000 2.5211 3.9170 2.8087 0.0000 -10642.5461 1468.9155 0.0000 0.0000 1770.7720 -7393.6119 303.6092 -9164.3839 -7448.3681 300.2085 376.4130 441.5826 29961.1522 -41.7629 33.2391
ENERGY: 900000 1.5480 2.2008 0.9887 0.0000 -10656.9650 1397.9974 0.0000 0.0000 1724.9184 -7529.3116 295.7473 -9254.2301 -7447.1128 300.8847 -271.5953 -188.3459 29630.5191 13.9053 86.3597
ENERGY: 1200000 1.6841 2.9087 2.3886 0.0000 -10588.9861 1412.3940 0.0000 0.0000 1717.6488 -7451.9619 294.5009 -9169.6107 -7442.5897 300.4327 -327.3671 -265.0661 30470.4050 105.9356 173.8130
ENERGY: 1500000 3.1378 1.4439 1.6705 0.0000 -10486.9321 1327.0063 0.0000 0.0000 1788.6711 -7365.0025 306.6781 -9153.6736 -7453.0702 300.9289 -641.3333 -619.4762 30227.6571 38.9056 103.0179
TCL: Running FEP window  18: Lambda1 0.1499999999999997 Lambda2 0.09999999999999969 [dLambda -0.05 ]
TCL: Setting parameter firsttimestep to 0
TCL: Setting parameter alchLambda to 0.1499999999999997
Info: NONBONDED TABLE R-SQUARED SPACING: 0.0625
Info: NONBONDED TABLE SIZE: 705 POINTS
TCL: Setting parameter alchLambda2 to 0.09999999999999969
Info: NONBONDED TABLE R-SQUARED SPACING: 0.0625
Info: NONBONDED TABLE SIZE: 705 POINTS
TCL: Running for 1500000 steps
ETITLE: TS BOND ANGLE DIHED IMPRP ELECT VDW BOUNDARY MISC KINETIC TOTAL TEMP POTENTIAL TOTALAVG TEMPAVG PRESSURE GPRESSURE VOLUME PRESSAVG GPRESSAVG
ENERGY: 0 3.1378 1.4439 1.6705 0.0000 -10486.9325 1326.7271 0.0000 0.0000 1787.8241 -7366.1291 306.5329 -9153.9532 -7366.1291 306.5329 -697.3430 -623.8939 30227.6571 -697.3430 -623.8939
ENERGY: 300000 1.5745 8.1709 4.9616 0.0000 -10672.0071 1440.9116 0.0000 0.0000 1744.2056 -7472.1829 299.0542 -9216.3885 -7378.6214 305.1967 209.5748 246.6415 29752.4339 -231.3009 -164.1623
ENERGY: 600000 5.5214 1.6254 4.1253 0.0000 -10551.6439 1397.0036 0.0000 0.0000 1812.7696 -7330.5987 310.8099 -9143.3683 -7409.9484 304.5880 -433.4783 -327.6796 30265.7144 -267.5039 -207.2164
ENERGY: 900000 8.2090 1.3837 1.8749 0.0000 -10767.6598 1455.3832 0.0000 0.0000 1786.9803 -7513.8287 306.3882 -9300.8091 -7426.6343 304.0223 -205.4356 -172.5430 29872.8127 -194.9315 -140.0313
ENERGY: 1200000 2.5511 2.4565 4.3723 0.0000 -10578.2428 1396.8881 0.0000 0.0000 1784.7092 -7387.2655 305.9988 -9171.9747 -7421.3939 303.7167 -430.7857 -391.7746 30771.3334 -118.5595 -65.8187
ENERGY: 1500000 3.5038 3.5284 2.6883 0.0000 -10631.0087 1500.9908 0.0000 0.0000 1704.9039 -7415.3935 292.3157 -9120.2974 -7431.0145 301.8953 347.5672 416.8679 30451.7001 -42.8398 4.0451
TCL: Running FEP window  19: Lambda1 0.09999999999999969 Lambda2 0.049999999999999684 [dLambda -0.05 ]
TCL: Setting parameter firsttimestep to 0
TCL: Setting parameter alchLambda to 0.09999999999999969
Info: NONBONDED TABLE R-SQUARED SPACING: 0.0625
Info: NONBONDED TABLE SIZE: 705 POINTS
TCL: Setting parameter alchLambda2 to 0.049999999999999684
Info: NONBONDED TABLE R-SQUARED SPACING: 0.0625
Info: NONBONDED TABLE SIZE: 705 POINTS
TCL: Running for 1500000 steps
ETITLE: TS BOND ANGLE DIHED IMPRP ELECT VDW BOUNDARY MISC KINETIC TOTAL TEMP POTENTIAL TOTALAVG TEMPAVG PRESSURE GPRESSURE VOLUME PRESSAVG GPRESSAVG
ENERGY: 0 3.5038 3.5284 2.6883 0.0000 -10631.0089 1500.5202 0.0000 0.0000 1703.9977 -7416.7705 292.1604 -9120.7682 -7416.7705 292.1604 331.8016 409.5126 30451.7001 331.8016 409.5126
ENERGY: 300000 3.8906 2.7251 0.7820 0.0000 -10420.7952 1282.0834 0.0000 0.0000 1771.8927 -7359.4214 303.8013 -9131.3141 -7419.7600 297.6105 -1278.7588 -1223.0331 30383.6230 -71.0908 -20.7055
ENERGY: 600000 2.3641 3.1250 0.9016 0.0000 -10610.8224 1433.3007 0.0000 0.0000 1790.1315 -7380.9996 306.9285 -9171.1311 -7409.4606 299.0955 9.5192 59.1889 30107.3078 35.6760 90.4039
ENERGY: 900000 1.9525 4.6249 2.5082 0.0000 -10575.4456 1402.7575 0.0000 0.0000 1704.3730 -7459.2294 292.2247 -9163.6024 -7426.1540 299.8386 -213.4031 -139.0429 30332.0784 77.0526 137.3710
ENERGY: 1200000 4.8419 3.3106 3.7286 0.0000 -10642.0007 1503.2248 0.0000 0.0000 1703.9579 -7422.9368 292.1535 -9126.8947 -7427.5912 298.9637 677.5724 759.1394 29984.7090 74.7206 135.5152
ENERGY: 1500000 2.8965 3.1166 3.1638 0.0000 -10604.8418 1438.1199 0.0000 0.0000 1755.5325 -7402.0126 300.9963 -9157.5450 -7431.8712 299.5063 76.0736 154.4404 30256.8330 12.0206 76.2484
TCL: Running FEP window  20: Lambda1 0.049999999999999684 Lambda2 0.0    [dLambda -0.049999999999999684]
TCL: Setting parameter firsttimestep to 0
TCL: Setting parameter alchLambda to 0.049999999999999684
Info: NONBONDED TABLE R-SQUARED SPACING: 0.0625
Info: NONBONDED TABLE SIZE: 705 POINTS
TCL: Setting parameter alchLambda2 to 0.0
Info: NONBONDED TABLE R-SQUARED SPACING: 0.0625
Info: NONBONDED TABLE SIZE: 705 POINTS
TCL: Running for 1500000 steps
ETITLE: TS BOND ANGLE DIHED IMPRP ELECT VDW BOUNDARY MISC KINETIC TOTAL TEMP POTENTIAL TOTALAVG TEMPAVG PRESSURE GPRESSURE VOLUME PRESSAVG GPRESSAVG
ENERGY: 0 2.8965 3.1166 3.1638 0.0000 -10604.8414 1438.1944 0.0000 0.0000 1754.6515 -7402.8187 300.8452 -9157.4701 -7402.8187 300.8452 76.4192 153.8680 30256.8330 76.4192 153.8680
ENERGY: 300000 1.4069 3.8114 1.5772 0.0000 -10591.8096 1388.8222 0.0000 0.0000 1770.8823 -7425.3096 303.6281 -9196.1919 -7473.4711 297.9547 -537.8065 -451.8418 30366.9266 -162.9834 -59.6905
ENERGY: 600000 1.1992 3.1600 3.3923 0.0000 -10649.2560 1439.1028 0.0000 0.0000 1744.3411 -7458.0606 299.0775 -9202.4017 -7450.7230 299.0414 -99.7239 20.6045 30411.4852 -18.8827 74.2844
ENERGY: 900000 3.4474 2.5936 3.5566 0.0000 -10707.2081 1472.6710 0.0000 0.0000 1777.9032 -7447.0363 304.8319 -9224.9395 -7447.1208 300.7404 199.3867 285.0791 29994.2814 -45.2514 37.7670
ENERGY: 1200000 4.5975 4.4144 3.6197 0.0000 -10384.5374 1305.3294 0.0000 0.0000 1766.8879 -7299.6885 302.9432 -9066.5764 -7440.2997 301.0796 -644.9442 -611.6858 29984.3031 -200.0257 -126.0688
ENERGY: 1500000 1.7706 3.8839 2.0019 0.0000 -10696.7703 1493.5365 0.0000 0.0000 1731.0361 -7464.5413 296.7962 -9195.5774 -7440.3810 300.8128 664.0859 717.5785 29682.3185 -123.3134 -50.7031
TCL: Exiting due to exit command.
