Info: SIMULATION PARAMETERS:
Info: TIMESTEP               2
Info: NUMBER OF STEPS        0
Info: STEPS PER CYCLE        10
Info: PERIODIC CELL BASIS 1  31.7625 0 0
Info: PERIODIC CELL BASIS 2  0 29.6845 0
Info: PERIODIC CELL BASIS 3  0 0 32.3758
Info: PERIODIC CELL CENTER   0 0 0
Info: WRAPPING WATERS AROUND PERIODIC BOUNDARIES ON OUTPUT.
Info: WRAPPING ALL CLUSTERS AROUND PERIODIC BOUNDARIES ON OUTPUT.
Info: FIRST LDB TIMESTEP     50
Info: LAST LDB TIMESTEP     -1
Info: HOM BACKGROUND SCALING 1
Info: PME BACKGROUND SCALING 1
Info: MIN ATOMS PER PATCH    40
Info: EMPTY PATCH LOAD       40 ATOMS
Info: VELOCITY FILE          mobley_7200804_equil.vel
Info: CENTER OF MASS MOVING INITIALLY? NO
Info: DIELECTRIC             1
Info: EXCLUDE                SCALED ONE-FOUR
Info: 1-4 ELECTROSTATICS SCALED BY 0.833333
Info: MODIFIED 1-4 VDW PARAMETERS WILL BE USED
Info: DCD FILENAME           mobley_7200804_prod.dcd
Info: DCD FREQUENCY          100000
Info: DCD FIRST STEP         100000
Info: DCD FILE WILL CONTAIN UNIT CELL DATA
Info: XST FILENAME           mobley_7200804_prod.xst
Info: XST FREQUENCY          100000
Info: NO VELOCITY DCD OUTPUT
Info: NO FORCE DCD OUTPUT
Info: OUTPUT FILENAME        mobley_7200804_prod
Info: BINARY OUTPUT FILES WILL BE USED
Info: RESTART FILENAME       mobley_7200804_prod.restart
Info: RESTART FREQUENCY      100000
Info: BINARY RESTART FILES WILL BE USED
Info: CUTOFF                 9
Info: PAIRLIST DISTANCE      11
Info: PAIRLIST SHRINK RATE   0.01
Info: PAIRLIST GROW RATE     0.01
Info: PAIRLIST TRIGGER       0.3
Info: PAIRLISTS PER CYCLE    2
Info: PAIRLISTS ENABLED
Info: MARGIN                 2
Info: HYDROGEN GROUP CUTOFF  2.5
Info: PATCH DIMENSION        15.5
Info: ENERGY OUTPUT STEPS    100000
Info: ENERGY EVALUATION STEPS    100000
Info: OUTPUT ENERGY PRECISION 4
Info: CROSSTERM ENERGY INCLUDED IN DIHEDRAL
Info: TIMING OUTPUT STEPS    1000000
Info: PRESSURE OUTPUT STEPS  100000
Info: ALCHEMICAL FEP ON
Info: FEP CURRENT LAMBDA VALUE     1
Info: FEP COMPARISON LAMBDA VALUE  0.95
Info: FEP INTRA-ALCHEMICAL NON-BONDED INTERACTIONS WILL BE RETAINED
Info: FEP INTRA-ALCHEMICAL BONDED INTERACTIONS WILL BE RETAINED
Info: FEP VDW SHIFTING COEFFICIENT 5
Info: FEP ELEC. ACTIVE FOR ANNIHILATED PARTICLES BETWEEN LAMBDA = 0 AND LAMBDA = 0.5
Info: FEP ELEC. ACTIVE FOR EXNIHILATED PARTICLES BETWEEN LAMBDA = 0.5 AND LAMBDA = 1
Info: FEP VDW ACTIVE FOR ANNIHILATED PARTICLES BETWEEN LAMBDA = 0 AND LAMBDA = 1
Info: FEP VDW ACTIVE FOR EXNIHILATED PARTICLES BETWEEN LAMBDA = 0 AND LAMBDA = 1
Info: FEP BOND ACTIVE FOR ANNIHILATED PARTICLES BETWEEN LAMBDA = 1 AND LAMBDA = 1
Info: FEP BOND ACTIVE FOR EXNIHILATED PARTICLES BETWEEN LAMBDA = 0 AND LAMBDA = 0
Info: LANGEVIN DYNAMICS ACTIVE
Info: LANGEVIN TEMPERATURE   300
Info: LANGEVIN USING BBK INTEGRATOR
Info: LANGEVIN DAMPING COEFFICIENT IS 1 INVERSE PS
Info: LANGEVIN DYNAMICS APPLIED TO HYDROGENS
Info: LANGEVIN PISTON PRESSURE CONTROL ACTIVE
Info:        TARGET PRESSURE IS 1.01325 BAR
Info:     OSCILLATION PERIOD IS 50 FS
Info:             DECAY TIME IS 25 FS
Info:     PISTON TEMPERATURE IS 300 K
Info:       PRESSURE CONTROL IS GROUP-BASED
Info:    INITIAL STRAIN RATE IS -0.000349341 -0.000349341 -0.000349341
Info:       CELL FLUCTUATION IS ISOTROPIC
Info: PARTICLE MESH EWALD (PME) ACTIVE
Info: PME TOLERANCE               1e-06
Info: PME EWALD COEFFICIENT       0.348832
Info: PME INTERPOLATION ORDER     4
Info: PME GRID DIMENSIONS         32 32 36
Info: PME MAXIMUM GRID SPACING    1
Info: PME CALCULATION WILL BE PERFORMED ON GPU
Info: FULL ELECTROSTATIC EVALUATION FREQUENCY      2
Info: USING VERLET I (r-RESPA) MTS SCHEME.
Info: C1 SPLITTING OF LONG RANGE ELECTROSTATICS
Info: PLACING ATOMS IN PATCHES BY HYDROGEN GROUPS
Info: RIGID BONDS TO HYDROGEN : ALL
Info:         ERROR TOLERANCE : 1e-08
Info:          MAX ITERATIONS : 100
Info: RIGID WATER USING SETTLE ALGORITHM
Info: RANDOM NUMBER SEED     1743563924
Info: USE HYDROGEN BONDS?    NO
Info: Using AMBER format force field!
Info: AMBER PARM FILE        mobley_7200804.prmtop
Info: COORDINATE PDB         mobley_7200804.pdb
Info: Exclusions will be read from PARM file!
Info: SCNB (VDW SCALING)     2
Info: USING ARITHMETIC MEAN TO COMBINE L-J SIGMA PARAMETERS
Info: BINARY COORDINATES     mobley_7200804_equil.coor
Info: SUMMARY OF PARAMETERS:
Info: 7 BONDS
Info: 5 ANGLES
Info:   5 HARMONIC
Info:   0 COSINE-BASED
Info: 3 DIHEDRAL
Info: 0 IMPROPER
Info: 0 CROSSTERM
Info: 0 VDW
Info: 21 VDW_PAIRS
Info: 0 NBTHOLE_PAIRS
Info: To read alchdata from file: mobley_7200804.pdb
Info: To read alchflag data from column: 5
Info: STRUCTURE SUMMARY:
Info: 2953 ATOMS
Info: 2953 BONDS
Info: 19 ANGLES
Info: 32 DIHEDRALS
Info: 0 IMPROPERS
Info: 0 CROSSTERMS
Info: 2995 EXCLUSIONS
Info: 2945 RIGID BONDS
Info: ALCH: 0 ATOMS TO DISAPPEAR IN FINAL STATE
Info: ALCH: 13 ATOMS TO APPEAR IN FINAL STATE
Info: 5914 DEGREES OF FREEDOM
Info: 988 HYDROGEN GROUPS
Info: 3 ATOMS IN LARGEST HYDROGEN GROUP
Info: 988 MIGRATION GROUPS
Info: 3 ATOMS IN LARGEST MIGRATION GROUP
Info: TOTAL MASS = 17767.8 amu
Info: TOTAL CHARGE = -0.000100017 e
Info: MASS DENSITY = 0.96656 g/cm^3
Info: ATOM DENSITY = 0.0967386 atoms/A^3
Info: ADDED 0 IMPLICIT EXCLUSIONS
Info: NONBONDED TABLE R-SQUARED SPACING: 0.0625
Info: NONBONDED TABLE SIZE: 705 POINTS
Info: REMOVING COM VELOCITY -0.128641 -0.123246 0.007463
Info: Use 3D box decompostion in PME FFT.
Info: Updated CUDA force table with 4096 elements.
Info: Updated CUDA LJ table with 6 x 6 elements.
Info: Found 15 unique exclusion lists needing 28 bytes
TCL: Running for 1500000 steps
ETITLE: TS BOND ANGLE DIHED IMPRP ELECT VDW BOUNDARY MISC KINETIC TOTAL TEMP POTENTIAL TOTALAVG TEMPAVG PRESSURE GPRESSURE VOLUME PRESSAVG GPRESSAVG
ENERGY: 0 0.4782 3.6068 5.6895 0.0000 -10756.7875 1491.3912 0.0000 0.0000 1780.3122 -7475.3096 302.9739 -9255.6217 -7475.3096 302.9739 320.7226 395.3364 30525.5507 320.7226 395.3364
ENERGY: 300000 1.4434 2.0546 4.0607 0.0000 -10653.4842 1423.5541 0.0000 0.0000 1754.3096 -7468.0619 298.5488 -9222.3715 -7487.3322 299.2871 -79.5427 -76.1754 30649.1506 -170.5404 -98.2435
ENERGY: 600000 3.1025 3.6053 3.1797 0.0000 -10717.2688 1369.9425 0.0000 0.0000 1696.6870 -7640.7519 288.7426 -9337.4389 -7493.3174 298.7470 -780.3763 -732.7741 30344.9910 -272.2934 -211.7730
ENERGY: 900000 2.0865 3.3629 2.1258 0.0000 -10758.7538 1457.2766 0.0000 0.0000 1843.3219 -7450.5801 313.6969 -9293.9020 -7473.4231 301.3871 269.0912 288.6419 29986.0951 -72.0825 -11.3727
ENERGY: 1200000 5.3522 1.6910 4.9708 0.0000 -10720.3845 1392.8166 0.0000 0.0000 1815.1124 -7500.4415 308.8962 -9315.5539 -7478.2361 301.4449 -498.0558 -422.8918 30143.6277 1.4385 63.8694
ENERGY: 1500000 2.1514 2.6322 5.4467 0.0000 -10813.2225 1516.7771 0.0000 0.0000 1764.3460 -7521.8691 300.2568 -9286.2151 -7476.6638 301.9527 540.0164 505.7292 30542.5073 15.7292 70.6136
TCL: Running FEP window   2: Lambda1 0.95   Lambda2 0.8999999999999999 [dLambda -0.050000000000000044]
TCL: Setting parameter firsttimestep to 0
TCL: Setting parameter alchLambda to 0.95
Info: NONBONDED TABLE R-SQUARED SPACING: 0.0625
Info: NONBONDED TABLE SIZE: 705 POINTS
TCL: Setting parameter alchLambda2 to 0.8999999999999999
Info: NONBONDED TABLE R-SQUARED SPACING: 0.0625
Info: NONBONDED TABLE SIZE: 705 POINTS
TCL: Running for 1500000 steps
ETITLE: TS BOND ANGLE DIHED IMPRP ELECT VDW BOUNDARY MISC KINETIC TOTAL TEMP POTENTIAL TOTALAVG TEMPAVG PRESSURE GPRESSURE VOLUME PRESSAVG GPRESSAVG
ENERGY: 0 2.1514 2.6322 5.4467 0.0000 -10811.6988 1516.6043 0.0000 0.0000 1763.4540 -7521.4102 300.1050 -9284.8642 -7521.4102 300.1050 431.7794 499.1481 30542.5073 431.7794 499.1481
ENERGY: 300000 1.6623 2.5449 3.2908 0.0000 -10662.3195 1404.4836 0.0000 0.0000 1780.5476 -7469.7902 303.0140 -9250.3379 -7488.6172 301.9822 -247.4363 -162.0469 30564.4168 -263.5352 -197.5602
ENERGY: 600000 2.0647 2.5500 2.8509 0.0000 -10746.0389 1517.3218 0.0000 0.0000 1778.9351 -7442.3164 302.7396 -9221.2515 -7487.4494 300.1359 816.5584 884.8342 30404.4732 -5.0060 56.0606
ENERGY: 900000 2.7214 2.2535 5.3694 0.0000 -10695.3424 1412.7394 0.0000 0.0000 1690.9340 -7581.3248 287.7635 -9272.2588 -7501.8937 298.3714 -190.6676 -175.6221 30158.1514 -76.5957 -20.2108
ENERGY: 1200000 3.3835 4.4428 2.5890 0.0000 -10683.0969 1385.7496 0.0000 0.0000 1795.6756 -7491.2565 305.5885 -9286.9321 -7499.2618 299.7733 -550.0955 -484.6552 30542.6567 -218.6010 -161.0682
ENERGY: 1500000 3.5617 3.0885 5.6195 0.0000 -10695.0028 1413.1099 0.0000 0.0000 1761.8148 -7507.8084 299.8260 -9269.6232 -7497.8248 299.6351 -391.6562 -276.3690 30709.8646 -197.5617 -135.5305
TCL: Running FEP window   3: Lambda1 0.8999999999999999 Lambda2 0.8499999999999999 [dLambda -0.050000000000000044]
TCL: Setting parameter firsttimestep to 0
TCL: Setting parameter alchLambda to 0.8999999999999999
Info: NONBONDED TABLE R-SQUARED SPACING: 0.0625
Info: NONBONDED TABLE SIZE: 705 POINTS
TCL: Setting parameter alchLambda2 to 0.8499999999999999
Info: NONBONDED TABLE R-SQUARED SPACING: 0.0625
Info: NONBONDED TABLE SIZE: 705 POINTS
TCL: Running for 1500000 steps
ETITLE: TS BOND ANGLE DIHED IMPRP ELECT VDW BOUNDARY MISC KINETIC TOTAL TEMP POTENTIAL TOTALAVG TEMPAVG PRESSURE GPRESSURE VOLUME PRESSAVG GPRESSAVG
ENERGY: 0 3.5617 3.0885 5.6195 0.0000 -10693.3653 1412.6695 0.0000 0.0000 1760.9703 -7507.4559 299.6823 -9268.4261 -7507.4559 299.6823 -377.1444 -288.0221 30709.8646 -377.1444 -288.0221
ENERGY: 300000 2.0995 3.3692 3.3433 0.0000 -10694.6563 1406.0451 0.0000 0.0000 1755.4607 -7524.3385 298.7447 -9279.7992 -7515.7743 298.9114 -438.7287 -395.9485 30650.3799 -30.1876 19.9288
ENERGY: 600000 7.0032 1.1775 2.1586 0.0000 -10676.5883 1408.8048 0.0000 0.0000 1772.0734 -7485.3708 301.5718 -9257.4442 -7483.6150 300.2958 -413.5586 -340.6607 30259.0695 -357.8116 -311.6979
ENERGY: 900000 0.3653 2.5769 3.4215 0.0000 -10820.4769 1464.7929 0.0000 0.0000 1794.5365 -7554.7837 305.3946 -9349.3202 -7487.8575 301.1486 95.1536 157.3776 30167.3828 -252.8646 -212.5668
ENERGY: 1200000 1.0046 2.2426 2.4228 0.0000 -10689.5407 1391.1694 0.0000 0.0000 1793.5950 -7499.1063 305.2344 -9292.7013 -7496.6776 300.8362 -216.7651 -135.7875 29943.8587 -247.7090 -202.9378
ENERGY: 1500000 2.5733 5.2572 2.9720 0.0000 -10673.7214 1432.8571 0.0000 0.0000 1728.5891 -7501.4728 294.1717 -9230.0619 -7499.0482 300.0262 -43.2654 26.1406 30447.6151 -185.0028 -140.7494
TCL: Running FEP window   4: Lambda1 0.8499999999999999 Lambda2 0.7999999999999998 [dLambda -0.050000000000000044]
TCL: Setting parameter firsttimestep to 0
TCL: Setting parameter alchLambda to 0.8499999999999999
Info: NONBONDED TABLE R-SQUARED SPACING: 0.0625
Info: NONBONDED TABLE SIZE: 705 POINTS
TCL: Setting parameter alchLambda2 to 0.7999999999999998
Info: NONBONDED TABLE R-SQUARED SPACING: 0.0625
Info: NONBONDED TABLE SIZE: 705 POINTS
TCL: Running for 1500000 steps
ETITLE: TS BOND ANGLE DIHED IMPRP ELECT VDW BOUNDARY MISC KINETIC TOTAL TEMP POTENTIAL TOTALAVG TEMPAVG PRESSURE GPRESSURE VOLUME PRESSAVG GPRESSAVG
ENERGY: 0 2.5733 5.2572 2.9720 0.0000 -10671.7952 1432.4978 0.0000 0.0000 1727.7304 -7500.7645 294.0255 -9228.4949 -7500.7645 294.0255 -57.7260 15.3797 30447.6151 -57.7260 15.3797
ENERGY: 300000 2.2929 4.6734 1.4524 0.0000 -10809.6052 1533.0912 0.0000 0.0000 1762.7309 -7505.3644 299.9819 -9268.0953 -7476.4796 299.2372 830.7071 905.8439 30071.6769 388.8560 442.7547
ENERGY: 600000 3.7751 3.1762 4.4310 0.0000 -10727.6031 1462.7980 0.0000 0.0000 1772.0902 -7481.3327 301.5747 -9253.4229 -7485.0161 299.1651 258.2534 262.8200 30503.9599 82.7817 121.5703
ENERGY: 900000 3.6899 3.4868 2.6611 0.0000 -10797.1729 1583.2606 0.0000 0.0000 1771.5438 -7432.5307 301.4817 -9204.0745 -7482.7187 299.9147 1300.0819 1358.7674 30516.9030 256.6256 307.1210
ENERGY: 1200000 3.1477 3.1443 1.7978 0.0000 -10498.0289 1271.5687 0.0000 0.0000 1733.3748 -7484.9956 294.9861 -9218.3704 -7485.8725 300.0786 -1675.3020 -1559.3535 30899.9377 164.3160 217.4828
ENERGY: 1500000 2.6163 3.1425 4.7329 0.0000 -10736.4050 1488.1482 0.0000 0.0000 1807.9811 -7429.7839 307.6826 -9237.7650 -7484.7285 300.7446 347.6974 429.4762 30535.4419 117.1687 177.9317
TCL: Running FEP window   5: Lambda1 0.7999999999999998 Lambda2 0.7499999999999998 [dLambda -0.050000000000000044]
TCL: Setting parameter firsttimestep to 0
TCL: Setting parameter alchLambda to 0.7999999999999998
Info: NONBONDED TABLE R-SQUARED SPACING: 0.0625
Info: NONBONDED TABLE SIZE: 705 POINTS
TCL: Setting parameter alchLambda2 to 0.7499999999999998
Info: NONBONDED TABLE R-SQUARED SPACING: 0.0625
Info: NONBONDED TABLE SIZE: 705 POINTS
TCL: Running for 1500000 steps
ETITLE: TS BOND ANGLE DIHED IMPRP ELECT VDW BOUNDARY MISC KINETIC TOTAL TEMP POTENTIAL TOTALAVG TEMPAVG PRESSURE GPRESSURE VOLUME PRESSAVG GPRESSAVG
ENERGY: 0 2.6163 3.1425 4.7329 0.0000 -10735.8916 1488.4187 0.0000 0.0000 1807.1225 -7429.8586 307.5365 -9236.9811 -7429.8586 307.5365 341.0160 425.5242 30535.4419 341.0160 425.5242
ENERGY: 300000 1.8904 3.5105 2.0990 0.0000 -10713.2071 1484.4145 0.0000 0.0000 1713.4257 -7507.8669 291.5912 -9221.2926 -7510.0706 297.3103 482.0342 548.7432 30441.6755 153.5642 201.4401
ENERGY: 600000 3.3428 4.1869 4.1699 0.0000 -10733.0796 1463.6438 0.0000 0.0000 1747.0250 -7510.7111 297.3091 -9257.7361 -7503.5685 296.9904 165.2293 230.9068 30387.4276 149.5933 210.3982
ENERGY: 900000 4.6850 4.7492 3.6325 0.0000 -10659.5354 1360.2536 0.0000 0.0000 1811.9384 -7474.2767 308.3561 -9286.2151 -7490.5313 299.3079 -809.8153 -732.6992 30474.3557 -16.0752 50.6284
ENERGY: 1200000 4.6458 4.6850 4.8728 0.0000 -10723.9052 1447.2191 0.0000 0.0000 1752.3870 -7510.0955 298.2216 -9262.4825 -7495.7411 298.8981 -316.7223 -193.3786 30851.4065 20.5055 92.4455
ENERGY: 1500000 2.6293 3.0971 1.3283 0.0000 -10746.9239 1426.5190 0.0000 0.0000 1774.3623 -7538.9879 301.9614 -9313.3502 -7488.0043 300.1520 -14.4945 48.5763 30083.6264 -5.2932 70.0322
TCL: Running FEP window   6: Lambda1 0.7499999999999998 Lambda2 0.6999999999999997 [dLambda -0.050000000000000044]
TCL: Setting parameter firsttimestep to 0
TCL: Setting parameter alchLambda to 0.7499999999999998
Info: NONBONDED TABLE R-SQUARED SPACING: 0.0625
Info: NONBONDED TABLE SIZE: 705 POINTS
TCL: Setting parameter alchLambda2 to 0.6999999999999997
Info: NONBONDED TABLE R-SQUARED SPACING: 0.0625
Info: NONBONDED TABLE SIZE: 705 POINTS
TCL: Running for 1500000 steps
ETITLE: TS BOND ANGLE DIHED IMPRP ELECT VDW BOUNDARY MISC KINETIC TOTAL TEMP POTENTIAL TOTALAVG TEMPAVG PRESSURE GPRESSURE VOLUME PRESSAVG GPRESSAVG
ENERGY: 0 2.6293 3.0972 1.3283 0.0000 -10745.4993 1426.0776 0.0000 0.0000 1773.4487 -7538.9182 301.8059 -9312.3669 -7538.9182 301.8059 -50.1946 37.7928 30083.6264 -50.1946 37.7928
ENERGY: 300000 1.3932 3.3883 2.6081 0.0000 -10578.3454 1355.6233 0.0000 0.0000 1775.8287 -7439.5039 302.2109 -9215.3326 -7466.2357 302.6574 -284.1116 -265.2458 30302.1239 -250.9995 -193.3721
ENERGY: 600000 2.3796 4.9009 4.6402 0.0000 -10731.1610 1446.1038 0.0000 0.0000 1835.0580 -7438.0785 312.2906 -9273.1365 -7465.7196 304.6855 119.3524 218.9105 30073.6567 -261.9925 -190.5252
ENERGY: 900000 2.4737 3.0948 1.2565 0.0000 -10668.1954 1433.2807 0.0000 0.0000 1753.4780 -7474.6116 298.4073 -9228.0897 -7472.5207 303.0743 -24.9333 14.9307 30505.1593 -168.9332 -112.1179
ENERGY: 1200000 0.3054 2.8680 1.3915 0.0000 -10900.5109 1546.4436 0.0000 0.0000 1757.5520 -7591.9506 299.1006 -9349.5026 -7483.5098 302.5644 402.5818 528.2169 30641.7662 -12.9540 41.3733
ENERGY: 1500000 2.2648 2.6701 6.1706 0.0000 -10603.5847 1384.2609 0.0000 0.0000 1812.2502 -7395.9681 308.4091 -9208.2183 -7476.0584 302.7118 -399.5880 -383.2287 30622.2035 -44.7989 5.0930
TCL: Running FEP window   7: Lambda1 0.6999999999999997 Lambda2 0.6499999999999997 [dLambda -0.050000000000000044]
TCL: Setting parameter firsttimestep to 0
TCL: Setting parameter alchLambda to 0.6999999999999997
Info: NONBONDED TABLE R-SQUARED SPACING: 0.0625
Info: NONBONDED TABLE SIZE: 705 POINTS
TCL: Setting parameter alchLambda2 to 0.6499999999999997
Info: NONBONDED TABLE R-SQUARED SPACING: 0.0625
Info: NONBONDED TABLE SIZE: 705 POINTS
TCL: Running for 1500000 steps
ETITLE: TS BOND ANGLE DIHED IMPRP ELECT VDW BOUNDARY MISC KINETIC TOTAL TEMP POTENTIAL TOTALAVG TEMPAVG PRESSURE GPRESSURE VOLUME PRESSAVG GPRESSAVG
ENERGY: 0 2.2648 2.6701 6.1706 0.0000 -10602.9328 1384.3704 0.0000 0.0000 1811.3542 -7396.1027 308.2566 -9207.4569 -7396.1027 308.2566 -466.0241 -387.2660 30622.2035 -466.0241 -387.2660
ENERGY: 300000 5.4324 4.6823 2.6725 0.0000 -10859.6772 1512.4558 0.0000 0.0000 1825.0300 -7509.4042 310.5840 -9334.4342 -7470.3776 305.5116 536.4904 612.9130 29867.4968 -104.4288 -56.5390
ENERGY: 600000 2.5983 4.7637 2.1050 0.0000 -10700.4862 1453.5823 0.0000 0.0000 1654.0063 -7583.4304 281.4792 -9237.4367 -7485.6323 300.8563 183.2582 275.9396 30141.1206 -22.1605 43.8085
ENERGY: 900000 1.9722 2.6010 2.7274 0.0000 -10594.2716 1380.0408 0.0000 0.0000 1781.0595 -7425.8707 303.1011 -9206.9302 -7497.6020 299.9003 -364.1165 -309.0997 30499.4996 -70.2006 -3.0525
ENERGY: 1200000 5.8815 4.5337 1.7829 0.0000 -10764.0530 1506.8287 0.0000 0.0000 1794.0880 -7450.9382 305.3183 -9245.0262 -7499.1306 300.1681 358.1533 361.7310 30446.7715 -19.5967 36.8411
ENERGY: 1500000 3.0661 5.1694 1.3970 0.0000 -10785.4461 1570.4292 0.0000 0.0000 1765.8092 -7439.5751 300.5058 -9205.3843 -7491.2637 299.8708 979.5092 1032.6342 30732.7077 -7.7853 48.5011
TCL: Running FEP window   8: Lambda1 0.6499999999999997 Lambda2 0.5999999999999996 [dLambda -0.050000000000000044]
TCL: Setting parameter firsttimestep to 0
TCL: Setting parameter alchLambda to 0.6499999999999997
Info: NONBONDED TABLE R-SQUARED SPACING: 0.0625
Info: NONBONDED TABLE SIZE: 705 POINTS
TCL: Setting parameter alchLambda2 to 0.5999999999999996
Info: NONBONDED TABLE R-SQUARED SPACING: 0.0625
Info: NONBONDED TABLE SIZE: 705 POINTS
TCL: Running for 1500000 steps
ETITLE: TS BOND ANGLE DIHED IMPRP ELECT VDW BOUNDARY MISC KINETIC TOTAL TEMP POTENTIAL TOTALAVG TEMPAVG PRESSURE GPRESSURE VOLUME PRESSAVG GPRESSAVG
ENERGY: 0 3.0661 5.1694 1.3970 0.0000 -10784.0000 1570.0484 0.0000 0.0000 1764.9412 -7439.3779 300.3581 -9204.3191 -7439.3779 300.3581 941.0875 1026.5380 30732.7077 941.0875 1026.5380
ENERGY: 300000 3.0081 3.4801 1.3958 0.0000 -10769.4467 1483.0419 0.0000 0.0000 1782.5030 -7496.0178 303.3467 -9278.5207 -7448.6509 300.6426 68.8423 89.5692 30539.8776 194.2049 269.2769
ENERGY: 600000 2.9111 1.5192 1.4028 0.0000 -10779.7168 1499.6477 0.0000 0.0000 1770.8661 -7503.3700 301.3664 -9274.2361 -7453.0699 300.7357 377.5729 466.1000 30125.2570 32.1506 104.4809
ENERGY: 900000 1.4234 2.0608 1.0239 0.0000 -10710.9114 1413.2900 0.0000 0.0000 1762.6228 -7530.4905 299.9635 -9293.1133 -7477.2035 300.4098 -457.1941 -374.3286 30335.0352 42.9150 111.4607
ENERGY: 1200000 2.7059 3.6060 4.0322 0.0000 -10591.5042 1410.6043 0.0000 0.0000 1809.8283 -7360.7274 307.9970 -9170.5557 -7465.7990 300.3293 -73.0176 61.3378 30572.1695 29.9203 106.0118
ENERGY: 1500000 1.9322 2.0475 2.3325 0.0000 -10795.8068 1464.4854 0.0000 0.0000 1781.3230 -7543.6863 303.1459 -9325.0093 -7475.2748 300.8901 240.7094 285.7335 30092.9416 41.6009 117.8824
TCL: Running FEP window   9: Lambda1 0.5999999999999996 Lambda2 0.5499999999999996 [dLambda -0.050000000000000044]
TCL: Setting parameter firsttimestep to 0
TCL: Setting parameter alchLambda to 0.5999999999999996
Info: NONBONDED TABLE R-SQUARED SPACING: 0.0625
Info: NONBONDED TABLE SIZE: 705 POINTS
TCL: Setting parameter alchLambda2 to 0.5499999999999996
Info: NONBONDED TABLE R-SQUARED SPACING: 0.0625
Info: NONBONDED TABLE SIZE: 705 POINTS
TCL: Running for 1500000 steps
ETITLE: TS BOND ANGLE DIHED IMPRP ELECT VDW BOUNDARY MISC KINETIC TOTAL TEMP POTENTIAL TOTALAVG TEMPAVG PRESSURE GPRESSURE VOLUME PRESSAVG GPRESSAVG
ENERGY: 0 1.9322 2.0475 2.3325 0.0000 -10795.3136 1464.8020 0.0000 0.0000 1780.4596 -7543.7399 302.9990 -9324.1995 -7543.7399 302.9990 185.7126 284.1226 30092.9416 185.7126 284.1226
ENERGY: 300000 4.8357 3.3974 1.0486 0.0000 -10752.5089 1502.1907 0.0000 0.0000 1759.7691 -7481.2675 299.4779 -9241.0366 -7515.2479 301.0825 460.1736 534.1926 30377.8534 354.3754 444.0185
ENERGY: 600000 1.1210 7.1751 4.0622 0.0000 -10496.8868 1344.8493 0.0000 0.0000 1775.6328 -7364.0464 302.1776 -9139.6792 -7498.6093 299.1888 -622.9684 -559.8055 30951.0610 220.8148 294.3828
ENERGY: 900000 1.6466 3.0301 1.7000 0.0000 -10610.9374 1336.1219 0.0000 0.0000 1777.3876 -7491.0512 302.4762 -9268.4387 -7489.9119 300.6680 -966.5662 -875.1225 30488.9546 136.8406 210.4882
ENERGY: 1200000 3.0527 3.8063 1.9015 0.0000 -10663.9059 1406.7688 0.0000 0.0000 1787.4320 -7460.9447 304.1856 -9248.3767 -7487.4262 300.7925 -506.7016 -521.7578 30939.4489 42.6327 112.6744
ENERGY: 1500000 2.6401 3.6084 2.0677 0.0000 -10825.7301 1458.8617 0.0000 0.0000 1806.9788 -7551.5734 307.5120 -9358.5522 -7496.0317 300.5015 254.3558 283.4802 29801.3444 17.8227 84.1624
TCL: Running FEP window  10: Lambda1 0.5499999999999996 Lambda2 0.4999999999999996 [dLambda -0.04999999999999999]
TCL: Setting parameter firsttimestep to 0
TCL: Setting parameter alchLambda to 0.5499999999999996
Info: NONBONDED TABLE R-SQUARED SPACING: 0.0625
Info: NONBONDED TABLE SIZE: 705 POINTS
TCL: Setting parameter alchLambda2 to 0.4999999999999996
Info: NONBONDED TABLE R-SQUARED SPACING: 0.0625
Info: NONBONDED TABLE SIZE: 705 POINTS
TCL: Running for 1500000 steps
ETITLE: TS BOND ANGLE DIHED IMPRP ELECT VDW BOUNDARY MISC KINETIC TOTAL TEMP POTENTIAL TOTALAVG TEMPAVG PRESSURE GPRESSURE VOLUME PRESSAVG GPRESSAVG
ENERGY: 0 2.6401 3.6084 2.0677 0.0000 -10825.9452 1458.2651 0.0000 0.0000 1806.1087 -7553.2552 307.3640 -9359.3639 -7553.2552 307.3640 188.0716 272.8227 29801.3444 188.0716 272.8227
ENERGY: 300000 1.7059 4.9959 3.0641 0.0000 -10567.2868 1350.8402 0.0000 0.0000 1818.2666 -7388.4141 309.4330 -9206.6807 -7479.8744 306.2873 -895.8511 -826.2471 31272.8905 -104.2288 -18.2040
ENERGY: 600000 5.3677 4.6836 1.7670 0.0000 -10664.4049 1349.4382 0.0000 0.0000 1741.5802 -7561.5682 296.3825 -9303.1484 -7478.0224 303.6521 -945.6544 -931.6758 30553.7225 -78.6040 -9.2862
ENERGY: 900000 1.1869 3.9969 5.2581 0.0000 -10783.6196 1495.5585 0.0000 0.0000 1745.1510 -7532.4683 296.9902 -9277.6193 -7490.7477 301.4170 288.5657 368.7762 30503.7175 -138.3647 -63.9393
ENERGY: 1200000 5.2821 2.1488 4.3516 0.0000 -10688.7686 1423.6590 0.0000 0.0000 1749.4850 -7503.8422 297.7277 -9253.3272 -7497.9830 300.4322 -331.3741 -250.3036 30633.2007 -233.2976 -153.5984
ENERGY: 1500000 2.7600 3.3161 2.4587 0.0000 -10782.2636 1439.7519 0.0000 0.0000 1780.4705 -7553.5063 303.0009 -9333.9768 -7507.3356 300.5698 -31.1252 22.2437 29989.1973 -198.7778 -117.7218
TCL: Running FEP window  11: Lambda1 0.4999999999999996 Lambda2 0.4499999999999996 [dLambda -0.04999999999999999]
TCL: Setting parameter firsttimestep to 0
TCL: Setting parameter alchLambda to 0.4999999999999996
Info: NONBONDED TABLE R-SQUARED SPACING: 0.0625
Info: NONBONDED TABLE SIZE: 705 POINTS
TCL: Setting parameter alchLambda2 to 0.4499999999999996
Info: NONBONDED TABLE R-SQUARED SPACING: 0.0625
Info: NONBONDED TABLE SIZE: 705 POINTS
TCL: Running for 1500000 steps
ETITLE: TS BOND ANGLE DIHED IMPRP ELECT VDW BOUNDARY MISC KINETIC TOTAL TEMP POTENTIAL TOTALAVG TEMPAVG PRESSURE GPRESSURE VOLUME PRESSAVG GPRESSAVG
ENERGY: 0 2.7600 3.3161 2.4587 0.0000 -10781.9281 1439.8161 0.0000 0.0000 1779.6331 -7553.9440 302.8583 -9333.5771 -7553.9440 302.8583 -68.5976 17.6862 29989.1973 -68.5976 17.6862
ENERGY: 300000 3.4223 9.3456 3.0286 0.0000 -10690.3278 1436.2285 0.0000 0.0000 1811.9288 -7426.3740 308.3544 -9238.3028 -7509.3190 302.7953 -374.4857 -323.4115 30856.1359 -199.2732 -138.3727
ENERGY: 600000 1.9140 4.8301 3.0927 0.0000 -10679.9284 1417.8995 0.0000 0.0000 1742.7760 -7509.4162 296.5860 -9252.1922 -7516.9107 300.5478 -414.7363 -378.5270 30909.9122 -60.3639 -6.8575
ENERGY: 900000 3.3136 5.0658 3.4089 0.0000 -10595.9967 1364.2763 0.0000 0.0000 1769.8317 -7450.1004 301.1903 -9219.9321 -7497.5655 301.0796 -563.9329 -557.0517 30475.6413 -153.6940 -95.3803
ENERGY: 1200000 6.7487 1.4801 3.6459 0.0000 -10729.4527 1439.4810 0.0000 0.0000 1759.8038 -7518.2932 299.4838 -9278.0969 -7506.4651 300.2263 -269.8480 -262.8690 30408.5667 -111.7607 -58.9658
ENERGY: 1500000 1.9055 2.5250 1.7544 0.0000 -10631.1667 1309.3054 0.0000 0.0000 1759.7544 -7555.9221 299.4754 -9315.6765 -7511.9509 299.8014 -1095.7483 -1051.7808 30396.4794 -265.0927 -208.1280
TCL: Running FEP window  12: Lambda1 0.4499999999999996 Lambda2 0.39999999999999963 [dLambda -0.04999999999999999]
TCL: Setting parameter firsttimestep to 0
TCL: Setting parameter alchLambda to 0.4499999999999996
Info: NONBONDED TABLE R-SQUARED SPACING: 0.0625
Info: NONBONDED TABLE SIZE: 705 POINTS
TCL: Setting parameter alchLambda2 to 0.39999999999999963
Info: NONBONDED TABLE R-SQUARED SPACING: 0.0625
Info: NONBONDED TABLE SIZE: 705 POINTS
TCL: Running for 1500000 steps
ETITLE: TS BOND ANGLE DIHED IMPRP ELECT VDW BOUNDARY MISC KINETIC TOTAL TEMP POTENTIAL TOTALAVG TEMPAVG PRESSURE GPRESSURE VOLUME PRESSAVG GPRESSAVG
ENERGY: 0 1.9055 2.5250 1.7544 0.0000 -10631.1664 1309.8883 0.0000 0.0000 1758.8845 -7556.2088 299.3273 -9315.0933 -7556.2088 299.3273 -1134.4631 -1053.3998 30396.4794 -1134.4631 -1053.3998
ENERGY: 300000 1.4134 1.2944 1.1659 0.0000 -10844.5828 1559.1164 0.0000 0.0000 1767.1758 -7514.4168 300.7384 -9281.5926 -7501.3957 301.3915 1250.5595 1283.5336 29559.2643 -88.7882 -46.6178
ENERGY: 600000 1.0718 3.6494 1.2907 0.0000 -10763.7881 1409.7229 0.0000 0.0000 1780.4215 -7567.6317 302.9925 -9348.0532 -7507.4309 299.3856 -489.3380 -406.8799 30499.2499 -105.2695 -49.1950
ENERGY: 900000 1.2487 2.0308 1.5201 0.0000 -10766.2513 1527.3652 0.0000 0.0000 1764.7650 -7469.3214 300.3281 -9234.0864 -7503.6481 298.5385 760.1056 835.9503 30236.1911 61.6775 117.1188
ENERGY: 1200000 2.6286 4.7221 3.4961 0.0000 -10820.3656 1504.5401 0.0000 0.0000 1749.1888 -7555.7899 297.6773 -9304.9786 -7511.3527 298.4185 431.5081 548.1613 30013.5585 54.2123 119.3941
ENERGY: 1500000 0.9316 2.4308 2.5350 0.0000 -10615.1822 1420.9610 0.0000 0.0000 1797.6669 -7390.6570 305.9273 -9188.3239 -7505.7022 299.0555 -64.2585 -15.2899 30799.2215 29.8382 89.5362
TCL: Running FEP window  13: Lambda1 0.39999999999999963 Lambda2 0.34999999999999964 [dLambda -0.04999999999999999]
TCL: Setting parameter firsttimestep to 0
TCL: Setting parameter alchLambda to 0.39999999999999963
Info: NONBONDED TABLE R-SQUARED SPACING: 0.0625
Info: NONBONDED TABLE SIZE: 705 POINTS
TCL: Setting parameter alchLambda2 to 0.34999999999999964
Info: NONBONDED TABLE R-SQUARED SPACING: 0.0625
Info: NONBONDED TABLE SIZE: 705 POINTS
TCL: Running for 1500000 steps
ETITLE: TS BOND ANGLE DIHED IMPRP ELECT VDW BOUNDARY MISC KINETIC TOTAL TEMP POTENTIAL TOTALAVG TEMPAVG PRESSURE GPRESSURE VOLUME PRESSAVG GPRESSAVG
ENERGY: 0 0.9316 2.4308 2.5350 0.0000 -10615.1824 1421.1611 0.0000 0.0000 1796.7982 -7391.3257 305.7795 -9188.1239 -7391.3257 305.7795 -95.4112 -19.3328 30799.2215 -95.4112 -19.3328
ENERGY: 300000 0.2193 3.5338 1.8861 0.0000 -10859.5674 1529.3263 0.0000 0.0000 1781.6819 -7542.9201 303.2070 -9324.6020 -7494.6226 300.2165 655.5979 708.4752 29981.2017 -159.5308 -76.2808
ENERGY: 600000 3.8251 2.5212 3.4616 0.0000 -10651.2893 1385.5193 0.0000 0.0000 1810.9415 -7445.0205 308.1864 -9255.9620 -7473.8488 301.6853 -644.2465 -627.7153 30683.2329 -86.1395 -14.5301
ENERGY: 900000 3.2255 1.5259 2.4564 0.0000 -10745.6385 1482.6637 0.0000 0.0000 1800.5887 -7455.1782 306.4246 -9255.7669 -7464.5663 301.4525 300.3170 410.2672 30196.1587 -55.9231 25.4626
ENERGY: 1200000 2.1426 2.8792 4.5084 0.0000 -10716.6952 1465.5018 0.0000 0.0000 1799.3093 -7442.3539 306.2068 -9241.6632 -7476.4963 300.1889 33.9800 105.6885 30440.7339 -73.8815 4.4911
ENERGY: 1500000 2.1065 2.3756 2.8641 0.0000 -10687.0238 1465.1635 0.0000 0.0000 1693.7465 -7520.7675 288.2421 -9214.5140 -7475.1985 299.8521 148.3857 267.6259 30483.0084 -36.7675 40.9771
TCL: Running FEP window  14: Lambda1 0.34999999999999964 Lambda2 0.29999999999999966 [dLambda -0.04999999999999999]
TCL: Setting parameter firsttimestep to 0
TCL: Setting parameter alchLambda to 0.34999999999999964
Info: NONBONDED TABLE R-SQUARED SPACING: 0.0625
Info: NONBONDED TABLE SIZE: 705 POINTS
TCL: Setting parameter alchLambda2 to 0.29999999999999966
Info: NONBONDED TABLE R-SQUARED SPACING: 0.0625
Info: NONBONDED TABLE SIZE: 705 POINTS
TCL: Running for 1500000 steps
ETITLE: TS BOND ANGLE DIHED IMPRP ELECT VDW BOUNDARY MISC KINETIC TOTAL TEMP POTENTIAL TOTALAVG TEMPAVG PRESSURE GPRESSURE VOLUME PRESSAVG GPRESSAVG
ENERGY: 0 2.1065 2.3756 2.8641 0.0000 -10687.0241 1465.1022 0.0000 0.0000 1692.8746 -7521.7010 288.0938 -9214.5756 -7521.7010 288.0938 165.4080 263.3077 30483.0084 165.4080 263.3077
ENERGY: 300000 2.4853 2.8095 1.7208 0.0000 -10823.6190 1527.2916 0.0000 0.0000 1736.2383 -7553.0734 295.4734 -9289.3117 -7525.3359 295.7758 495.6270 585.8482 30036.5227 -52.1940 38.0032
ENERGY: 600000 2.2536 3.1829 4.9027 0.0000 -10807.8511 1522.6270 0.0000 0.0000 1814.1674 -7460.7174 308.7354 -9274.8848 -7494.5229 299.7074 574.9979 545.5131 29998.5320 134.2578 197.0476
ENERGY: 900000 4.8767 3.8399 1.4899 0.0000 -10775.6133 1467.7317 0.0000 0.0000 1691.9692 -7605.7059 287.9397 -9297.6751 -7490.8232 300.0566 182.5114 177.5133 30185.6284 210.5530 266.0081
ENERGY: 1200000 3.1285 3.8897 5.4899 0.0000 -10609.0665 1358.1401 0.0000 0.0000 1752.2692 -7486.1490 298.2015 -9238.4182 -7493.2986 299.2898 -688.0785 -639.1047 30812.8084 142.8975 201.9558
ENERGY: 1500000 2.0585 5.1522 1.9936 0.0000 -10617.8346 1407.4820 0.0000 0.0000 1772.3300 -7428.8184 301.6155 -9201.1484 -7489.9575 299.4144 -243.8208 -188.4047 30556.8479 109.6517 170.3911
TCL: Running FEP window  15: Lambda1 0.29999999999999966 Lambda2 0.24999999999999967 [dLambda -0.04999999999999999]
TCL: Setting parameter firsttimestep to 0
TCL: Setting parameter alchLambda to 0.29999999999999966
Info: NONBONDED TABLE R-SQUARED SPACING: 0.0625
Info: NONBONDED TABLE SIZE: 705 POINTS
TCL: Setting parameter alchLambda2 to 0.24999999999999967
Info: NONBONDED TABLE R-SQUARED SPACING: 0.0625
Info: NONBONDED TABLE SIZE: 705 POINTS
TCL: Running for 1500000 steps
ETITLE: TS BOND ANGLE DIHED IMPRP ELECT VDW BOUNDARY MISC KINETIC TOTAL TEMP POTENTIAL TOTALAVG TEMPAVG PRESSURE GPRESSURE VOLUME PRESSAVG GPRESSAVG
ENERGY: 0 2.0585 5.1522 1.9936 0.0000 -10617.8341 1407.8751 0.0000 0.0000 1771.4829 -7429.2719 301.4713 -9200.7548 -7429.2719 301.4713 -272.1373 -186.7307 30556.8479 -272.1373 -186.7307
ENERGY: 300000 0.9173 2.7374 0.6668 0.0000 -10755.2184 1445.8376 0.0000 0.0000 1725.0766 -7579.9827 293.5739 -9305.0593 -7505.6272 298.9982 77.8383 134.0014 30023.2163 177.0829 235.0882
ENERGY: 600000 1.8306 3.2547 3.7289 0.0000 -10648.5666 1433.6931 0.0000 0.0000 1725.8985 -7480.1606 293.7138 -9206.0592 -7505.0119 296.7953 73.6339 178.3935 30198.9902 -8.4358 62.8415
ENERGY: 900000 3.1270 2.4605 3.2657 0.0000 -10757.6443 1461.9735 0.0000 0.0000 1742.2056 -7544.6119 296.4889 -9286.8176 -7503.3488 297.9012 -77.1186 -73.2588 30752.5684 64.5737 123.5245
ENERGY: 1200000 1.0676 3.8053 4.9734 0.0000 -10757.9786 1438.2184 0.0000 0.0000 1793.9806 -7515.9334 305.3000 -9309.9139 -7501.8213 298.8143 -32.6690 -20.4784 30001.7274 23.4733 81.3182
ENERGY: 1500000 2.3088 5.8956 2.1624 0.0000 -10696.5357 1442.4533 0.0000 0.0000 1788.7787 -7454.9369 304.4147 -9243.7156 -7488.5783 300.1787 -184.3679 -107.5576 30668.1139 37.1418 96.5227
TCL: Running FEP window  16: Lambda1 0.24999999999999967 Lambda2 0.19999999999999968 [dLambda -0.04999999999999999]
TCL: Setting parameter firsttimestep to 0
TCL: Setting parameter alchLambda to 0.24999999999999967
Info: NONBONDED TABLE R-SQUARED SPACING: 0.0625
Info: NONBONDED TABLE SIZE: 705 POINTS
TCL: Setting parameter alchLambda2 to 0.19999999999999968
Info: NONBONDED TABLE R-SQUARED SPACING: 0.0625
Info: NONBONDED TABLE SIZE: 705 POINTS
TCL: Running for 1500000 steps
ETITLE: TS BOND ANGLE DIHED IMPRP ELECT VDW BOUNDARY MISC KINETIC TOTAL TEMP POTENTIAL TOTALAVG TEMPAVG PRESSURE GPRESSURE VOLUME PRESSAVG GPRESSAVG
ENERGY: 0 2.3088 5.8956 2.1624 0.0000 -10696.5359 1442.5242 0.0000 0.0000 1787.9363 -7455.7086 304.2714 -9243.6448 -7455.7086 304.2714 -195.0927 -110.2874 30668.1139 -195.0927 -110.2874
ENERGY: 300000 5.4075 5.0424 2.5907 0.0000 -10764.9477 1515.7709 0.0000 0.0000 1730.9299 -7505.2063 294.5700 -9236.1362 -7478.1679 298.8763 514.6482 522.2387 30380.2716 -204.9810 -150.5190
ENERGY: 600000 1.8074 0.9320 1.2160 0.0000 -10826.2725 1551.5181 0.0000 0.0000 1840.1100 -7430.6889 313.1503 -9270.7990 -7495.2657 300.3335 1120.7022 1173.2431 29750.2327 -3.4628 57.8281
ENERGY: 900000 0.7621 4.3217 3.4690 0.0000 -10747.1129 1465.2630 0.0000 0.0000 1780.9519 -7492.3452 303.0828 -9273.2972 -7496.2688 299.2489 245.7674 342.0326 30125.7518 47.0199 104.2732
ENERGY: 1200000 0.4204 3.8598 2.9030 0.0000 -10846.7259 1465.1358 0.0000 0.0000 1776.2868 -7598.1202 302.2889 -9374.4070 -7508.3562 299.1951 228.4388 283.2758 29596.2674 -2.6595 55.3899
ENERGY: 1500000 2.7862 3.5729 2.5028 0.0000 -10648.5614 1431.5960 0.0000 0.0000 1798.6239 -7409.4796 306.0902 -9208.1035 -7509.6765 299.3630 -54.4644 -55.3802 30403.2479 -89.8781 -30.8910
TCL: Running FEP window  17: Lambda1 0.19999999999999968 Lambda2 0.1499999999999997 [dLambda -0.04999999999999999]
TCL: Setting parameter firsttimestep to 0
TCL: Setting parameter alchLambda to 0.19999999999999968
Info: NONBONDED TABLE R-SQUARED SPACING: 0.0625
Info: NONBONDED TABLE SIZE: 705 POINTS
TCL: Setting parameter alchLambda2 to 0.1499999999999997
Info: NONBONDED TABLE R-SQUARED SPACING: 0.0625
Info: NONBONDED TABLE SIZE: 705 POINTS
TCL: Running for 1500000 steps
ETITLE: TS BOND ANGLE DIHED IMPRP ELECT VDW BOUNDARY MISC KINETIC TOTAL TEMP POTENTIAL TOTALAVG TEMPAVG PRESSURE GPRESSURE VOLUME PRESSAVG GPRESSAVG
ENERGY: 0 2.7862 3.5729 2.5028 0.0000 -10648.5628 1431.9848 0.0000 0.0000 1797.7689 -7409.9473 305.9447 -9207.7162 -7409.9473 305.9447 -149.2845 -55.1335 30403.2479 -149.2845 -55.1335
ENERGY: 300000 2.3403 1.5801 3.7135 0.0000 -10741.7884 1408.4201 0.0000 0.0000 1761.7131 -7564.0214 299.8087 -9325.7345 -7509.5600 301.7389 -325.7594 -251.9020 29977.1842 -366.7007 -310.3877
ENERGY: 600000 2.4228 4.0959 2.8083 0.0000 -10743.1764 1511.3464 0.0000 0.0000 1787.3525 -7435.1505 304.1720 -9222.5030 -7503.0859 300.6602 773.7140 855.5966 30379.8805 -234.6351 -179.9747
ENERGY: 900000 3.0477 1.4163 2.0891 0.0000 -10615.3195 1405.9045 0.0000 0.0000 1784.9606 -7417.9012 303.7650 -9202.8618 -7491.7598 300.9489 104.2920 128.2121 30076.5578 -149.2140 -84.1893
ENERGY: 1200000 2.9311 3.7416 2.8557 0.0000 -10645.3561 1432.7167 0.0000 0.0000 1750.1065 -7453.0045 297.8335 -9203.1110 -7494.9418 300.2441 272.7527 306.7600 29920.6673 -195.2245 -133.2493
ENERGY: 1500000 3.5735 1.8191 1.3446 0.0000 -10620.0668 1483.3946 0.0000 0.0000 1810.4282 -7319.5070 308.0991 -9129.9352 -7487.9037 301.1559 499.2735 519.0315 30836.4374 -121.7613 -63.1706
TCL: Running FEP window  18: Lambda1 0.1499999999999997 Lambda2 0.09999999999999969 [dLambda -0.05 ]
TCL: Setting parameter firsttimestep to 0
TCL: Setting parameter alchLambda to 0.1499999999999997
Info: NONBONDED TABLE R-SQUARED SPACING: 0.0625
Info: NONBONDED TABLE SIZE: 705 POINTS
TCL: Setting parameter alchLambda2 to 0.09999999999999969
Info: NONBONDED TABLE R-SQUARED SPACING: 0.0625
Info: NONBONDED TABLE SIZE: 705 POINTS
TCL: Running for 1500000 steps
ETITLE: TS BOND ANGLE DIHED IMPRP ELECT VDW BOUNDARY MISC KINETIC TOTAL TEMP POTENTIAL TOTALAVG TEMPAVG PRESSURE GPRESSURE VOLUME PRESSAVG GPRESSAVG
ENERGY: 0 3.5735 1.8191 1.3446 0.0000 -10620.0662 1483.6157 0.0000 0.0000 1809.5324 -7320.1809 307.9466 -9129.7133 -7320.1809 307.9466 452.3863 518.2056 30836.4374 452.3863 518.2056
ENERGY: 300000 2.2002 1.8243 2.0929 0.0000 -10572.2032 1344.2792 0.0000 0.0000 1748.0194 -7473.7872 297.4783 -9221.8066 -7439.2515 305.0832 -901.4234 -809.6288 30695.2146 -181.5155 -102.1406
ENERGY: 600000 3.3249 1.5025 8.9179 0.0000 -10604.9994 1418.8542 0.0000 0.0000 1789.9221 -7382.4779 304.6093 -9172.4000 -7453.4584 303.8119 263.9444 347.2207 29944.8620 -40.8248 35.0033
ENERGY: 900000 6.6166 3.9030 3.9656 0.0000 -10718.2910 1399.3934 0.0000 0.0000 1760.9777 -7543.4347 299.6836 -9304.4124 -7466.4056 303.0876 -526.4002 -457.0862 29977.0645 33.6422 107.3545
ENERGY: 1200000 0.8925 2.6505 4.3101 0.0000 -10679.3283 1402.2108 0.0000 0.0000 1701.4623 -7567.8022 289.5552 -9269.2645 -7473.6362 302.2098 -168.0887 -82.3837 30162.1397 -27.9901 48.1480
ENERGY: 1500000 5.0951 2.8668 3.8124 0.0000 -10563.4019 1452.4302 0.0000 0.0000 1845.4995 -7253.6978 314.0675 -9099.1974 -7466.0025 302.9730 114.3600 143.0148 30992.3814 9.2022 80.2387
TCL: Running FEP window  19: Lambda1 0.09999999999999969 Lambda2 0.049999999999999684 [dLambda -0.05 ]
TCL: Setting parameter firsttimestep to 0
TCL: Setting parameter alchLambda to 0.09999999999999969
Info: NONBONDED TABLE R-SQUARED SPACING: 0.0625
Info: NONBONDED TABLE SIZE: 705 POINTS
TCL: Setting parameter alchLambda2 to 0.049999999999999684
Info: NONBONDED TABLE R-SQUARED SPACING: 0.0625
Info: NONBONDED TABLE SIZE: 705 POINTS
TCL: Running for 1500000 steps
ETITLE: TS BOND ANGLE DIHED IMPRP ELECT VDW BOUNDARY MISC KINETIC TOTAL TEMP POTENTIAL TOTALAVG TEMPAVG PRESSURE GPRESSURE VOLUME PRESSAVG GPRESSAVG
ENERGY: 0 5.0951 2.8668 3.8124 0.0000 -10563.4028 1452.7969 0.0000 0.0000 1844.5711 -7254.2605 313.9095 -9098.8316 -7254.2605 313.9095 48.2441 140.3410 30992.3814 48.2441 140.3410
ENERGY: 300000 1.2935 1.8246 5.3286 0.0000 -10706.4385 1440.2032 0.0000 0.0000 1763.1119 -7494.6768 300.0468 -9257.7887 -7363.6587 307.8619 43.0434 141.5923 30001.9045 199.5129 259.8397
ENERGY: 600000 2.0130 3.6526 2.8788 0.0000 -10651.9096 1416.7356 0.0000 0.0000 1765.0451 -7461.5844 300.3758 -9226.6296 -7410.6209 307.7391 -389.2644 -228.0549 30435.1377 225.4072 293.1247
ENERGY: 900000 2.1438 2.0405 1.3588 0.0000 -10776.1745 1547.1359 0.0000 0.0000 1786.7992 -7436.6962 304.0779 -9223.4954 -7424.6489 306.0715 736.3059 799.3694 30708.8134 280.9843 344.8769
ENERGY: 1200000 2.9717 2.9462 2.5003 0.0000 -10503.3825 1321.5318 0.0000 0.0000 1765.2725 -7408.1599 300.4145 -9173.4324 -7440.6309 304.7328 -715.7216 -702.4805 30754.5139 195.2105 258.2583
ENERGY: 1500000 1.6870 1.4518 1.8703 0.0000 -10849.5092 1550.8407 0.0000 0.0000 1733.0990 -7560.5605 294.9392 -9293.6594 -7451.7616 303.7857 559.6320 655.8245 30604.2562 137.0307 204.3441
TCL: Running FEP window  20: Lambda1 0.049999999999999684 Lambda2 0.0    [dLambda -0.049999999999999684]
TCL: Setting parameter firsttimestep to 0
TCL: Setting parameter alchLambda to 0.049999999999999684
Info: NONBONDED TABLE R-SQUARED SPACING: 0.0625
Info: NONBONDED TABLE SIZE: 705 POINTS
TCL: Setting parameter alchLambda2 to 0.0
Info: NONBONDED TABLE R-SQUARED SPACING: 0.0625
Info: NONBONDED TABLE SIZE: 705 POINTS
TCL: Running for 1500000 steps
ETITLE: TS BOND ANGLE DIHED IMPRP ELECT VDW BOUNDARY MISC KINETIC TOTAL TEMP POTENTIAL TOTALAVG TEMPAVG PRESSURE GPRESSURE VOLUME PRESSAVG GPRESSAVG
ENERGY: 0 1.6870 1.4518 1.8703 0.0000 -10849.5103 1550.8230 0.0000 0.0000 1732.2197 -7561.4585 294.7895 -9293.6782 -7561.4585 294.7895 561.8155 651.7726 30604.2562 561.8155 651.7726
ENERGY: 300000 1.8165 4.1253 1.2715 0.0000 -10627.5943 1437.5824 0.0000 0.0000 1755.4242 -7427.3744 298.7385 -9182.7985 -7499.6118 297.1442 129.3422 199.0803 30365.3025 318.1511 408.4978
ENERGY: 600000 1.1910 5.7359 2.9171 0.0000 -10563.5458 1268.4146 0.0000 0.0000 1751.2322 -7534.0550 298.0251 -9285.2872 -7508.6354 297.2108 -1289.3722 -1327.7041 30065.9016 161.8119 228.5166
ENERGY: 900000 1.2911 2.3421 1.9219 0.0000 -10563.1072 1312.8331 0.0000 0.0000 1767.7864 -7476.9326 300.8423 -9244.7190 -7497.7902 298.0187 -931.7230 -881.1176 30197.2567 -34.6427 40.9880
ENERGY: 1200000 1.0805 3.5026 3.5852 0.0000 -10708.5871 1416.6533 0.0000 0.0000 1712.2042 -7571.5613 291.3833 -9283.7655 -7498.7653 298.2194 -85.1894 -43.5491 29552.2311 45.9868 120.3058
ENERGY: 1500000 2.6405 7.1997 1.7138 0.0000 -10735.3469 1505.2957 0.0000 0.0000 1736.2141 -7482.2832 295.4693 -9218.4973 -7497.9549 298.6175 586.6035 625.4986 30291.0847 18.0301 83.2115
TCL: Exiting due to exit command.
