Info: SIMULATION PARAMETERS:
Info: TIMESTEP               2
Info: NUMBER OF STEPS        0
Info: STEPS PER CYCLE        10
Info: PERIODIC CELL BASIS 1  32.4645 0 0
Info: PERIODIC CELL BASIS 2  0 33.0441 0
Info: PERIODIC CELL BASIS 3  0 0 27.4077
Info: PERIODIC CELL CENTER   0 0 0
Info: WRAPPING WATERS AROUND PERIODIC BOUNDARIES ON OUTPUT.
Info: WRAPPING ALL CLUSTERS AROUND PERIODIC BOUNDARIES ON OUTPUT.
Info: FIRST LDB TIMESTEP     50
Info: LAST LDB TIMESTEP     -1
Info: HOM BACKGROUND SCALING 1
Info: PME BACKGROUND SCALING 1
Info: MIN ATOMS PER PATCH    40
Info: EMPTY PATCH LOAD       40 ATOMS
Info: VELOCITY FILE          mobley_7239499_equil.vel
Info: CENTER OF MASS MOVING INITIALLY? NO
Info: DIELECTRIC             1
Info: EXCLUDE                SCALED ONE-FOUR
Info: 1-4 ELECTROSTATICS SCALED BY 0.833333
Info: MODIFIED 1-4 VDW PARAMETERS WILL BE USED
Info: DCD FILENAME           mobley_7239499_prod.dcd
Info: DCD FREQUENCY          100000
Info: DCD FIRST STEP         100000
Info: DCD FILE WILL CONTAIN UNIT CELL DATA
Info: XST FILENAME           mobley_7239499_prod.xst
Info: XST FREQUENCY          100000
Info: NO VELOCITY DCD OUTPUT
Info: NO FORCE DCD OUTPUT
Info: OUTPUT FILENAME        mobley_7239499_prod
Info: BINARY OUTPUT FILES WILL BE USED
Info: RESTART FILENAME       mobley_7239499_prod.restart
Info: RESTART FREQUENCY      100000
Info: BINARY RESTART FILES WILL BE USED
Info: CUTOFF                 9
Info: PAIRLIST DISTANCE      11
Info: PAIRLIST SHRINK RATE   0.01
Info: PAIRLIST GROW RATE     0.01
Info: PAIRLIST TRIGGER       0.3
Info: PAIRLISTS PER CYCLE    2
Info: PAIRLISTS ENABLED
Info: MARGIN                 2
Info: HYDROGEN GROUP CUTOFF  2.5
Info: PATCH DIMENSION        15.5
Info: ENERGY OUTPUT STEPS    100000
Info: ENERGY EVALUATION STEPS    100000
Info: OUTPUT ENERGY PRECISION 4
Info: CROSSTERM ENERGY INCLUDED IN DIHEDRAL
Info: TIMING OUTPUT STEPS    1000000
Info: PRESSURE OUTPUT STEPS  100000
Info: ALCHEMICAL FEP ON
Info: FEP CURRENT LAMBDA VALUE     0
Info: FEP COMPARISON LAMBDA VALUE  0.05
Info: FEP INTRA-ALCHEMICAL NON-BONDED INTERACTIONS WILL BE RETAINED
Info: FEP INTRA-ALCHEMICAL BONDED INTERACTIONS WILL BE RETAINED
Info: FEP VDW SHIFTING COEFFICIENT 5
Info: FEP ELEC. ACTIVE FOR ANNIHILATED PARTICLES BETWEEN LAMBDA = 0 AND LAMBDA = 0.5
Info: FEP ELEC. ACTIVE FOR EXNIHILATED PARTICLES BETWEEN LAMBDA = 0.5 AND LAMBDA = 1
Info: FEP VDW ACTIVE FOR ANNIHILATED PARTICLES BETWEEN LAMBDA = 0 AND LAMBDA = 1
Info: FEP VDW ACTIVE FOR EXNIHILATED PARTICLES BETWEEN LAMBDA = 0 AND LAMBDA = 1
Info: FEP BOND ACTIVE FOR ANNIHILATED PARTICLES BETWEEN LAMBDA = 1 AND LAMBDA = 1
Info: FEP BOND ACTIVE FOR EXNIHILATED PARTICLES BETWEEN LAMBDA = 0 AND LAMBDA = 0
Info: LANGEVIN DYNAMICS ACTIVE
Info: LANGEVIN TEMPERATURE   300
Info: LANGEVIN USING BBK INTEGRATOR
Info: LANGEVIN DAMPING COEFFICIENT IS 1 INVERSE PS
Info: LANGEVIN DYNAMICS APPLIED TO HYDROGENS
Info: LANGEVIN PISTON PRESSURE CONTROL ACTIVE
Info:        TARGET PRESSURE IS 1.01325 BAR
Info:     OSCILLATION PERIOD IS 50 FS
Info:             DECAY TIME IS 25 FS
Info:     PISTON TEMPERATURE IS 300 K
Info:       PRESSURE CONTROL IS GROUP-BASED
Info:    INITIAL STRAIN RATE IS 0.000661755 0.000661755 0.000661755
Info:       CELL FLUCTUATION IS ISOTROPIC
Info: PARTICLE MESH EWALD (PME) ACTIVE
Info: PME TOLERANCE               1e-06
Info: PME EWALD COEFFICIENT       0.348832
Info: PME INTERPOLATION ORDER     4
Info: PME GRID DIMENSIONS         36 36 28
Info: PME MAXIMUM GRID SPACING    1
Info: PME CALCULATION WILL BE PERFORMED ON GPU
Info: FULL ELECTROSTATIC EVALUATION FREQUENCY      2
Info: USING VERLET I (r-RESPA) MTS SCHEME.
Info: C1 SPLITTING OF LONG RANGE ELECTROSTATICS
Info: PLACING ATOMS IN PATCHES BY HYDROGEN GROUPS
Info: RIGID BONDS TO HYDROGEN : ALL
Info:         ERROR TOLERANCE : 1e-08
Info:          MAX ITERATIONS : 100
Info: RIGID WATER USING SETTLE ALGORITHM
Info: RANDOM NUMBER SEED     1743636444
Info: USE HYDROGEN BONDS?    NO
Info: Using AMBER format force field!
Info: AMBER PARM FILE        mobley_7239499.prmtop
Info: COORDINATE PDB         mobley_7239499.pdb
Info: Exclusions will be read from PARM file!
Info: SCNB (VDW SCALING)     2
Info: USING ARITHMETIC MEAN TO COMBINE L-J SIGMA PARAMETERS
Info: BINARY COORDINATES     mobley_7239499_equil.coor
Info: SUMMARY OF PARAMETERS:
Info: 6 BONDS
Info: 5 ANGLES
Info:   5 HARMONIC
Info:   0 COSINE-BASED
Info: 3 DIHEDRAL
Info: 0 IMPROPER
Info: 0 CROSSTERM
Info: 0 VDW
Info: 21 VDW_PAIRS
Info: 0 NBTHOLE_PAIRS
Info: To read alchdata from file: mobley_7239499.pdb
Info: To read alchflag data from column: 5
Info: STRUCTURE SUMMARY:
Info: 2905 ATOMS
Info: 2907 BONDS
Info: 38 ANGLES
Info: 68 DIHEDRALS
Info: 0 IMPROPERS
Info: 0 CROSSTERMS
Info: 2992 EXCLUSIONS
Info: 2890 RIGID BONDS
Info: ALCH: 0 ATOMS TO DISAPPEAR IN FINAL STATE
Info: ALCH: 22 ATOMS TO APPEAR IN FINAL STATE
Info: 5825 DEGREES OF FREEDOM
Info: 976 HYDROGEN GROUPS
Info: 3 ATOMS IN LARGEST HYDROGEN GROUP
Info: 976 MIGRATION GROUPS
Info: 3 ATOMS IN LARGEST MIGRATION GROUP
Info: TOTAL MASS = 17532 amu
Info: TOTAL CHARGE = -1.11759e-08 e
Info: MASS DENSITY = 0.990183 g/cm^3
Info: ATOM DENSITY = 0.0988031 atoms/A^3
Info: ADDED 0 IMPLICIT EXCLUSIONS
Info: NONBONDED TABLE R-SQUARED SPACING: 0.0625
Info: NONBONDED TABLE SIZE: 705 POINTS
Info: REDUCING NUMBER OF PATCHES TO IMPROVE LOAD BALANCE
Info: REMOVING COM VELOCITY 0.153167 -0.137015 0.106482
Info: Use 3D box decompostion in PME FFT.
Info: Updated CUDA force table with 4096 elements.
Info: Updated CUDA LJ table with 6 x 6 elements.
Info: Found 22 unique exclusion lists needing 64 bytes
TCL: Running for 1500000 steps
ETITLE: TS BOND ANGLE DIHED IMPRP ELECT VDW BOUNDARY MISC KINETIC TOTAL TEMP POTENTIAL TOTALAVG TEMPAVG PRESSURE GPRESSURE VOLUME PRESSAVG GPRESSAVG
ENERGY: 0 6.5453 9.4240 2.9918 0.0000 -10553.0828 1466.7545 0.0000 0.0000 1674.7473 -7392.6198 289.3635 -9067.3672 -7392.6198 289.3635 494.5829 577.8182 29401.9020 494.5829 577.8182
ENERGY: 300000 6.0108 8.8515 5.0328 0.0000 -10598.4469 1505.5340 0.0000 0.0000 1691.6142 -7381.4037 292.2778 -9073.0179 -7323.1653 300.0406 406.7972 471.3917 29752.2443 144.8300 202.8035
ENERGY: 600000 4.0693 6.0052 7.0178 0.0000 -10453.6195 1372.1245 0.0000 0.0000 1711.6582 -7352.7444 295.7410 -9064.4026 -7346.7091 297.8896 -493.4557 -397.1375 29668.5690 -119.5560 -56.7469
ENERGY: 900000 6.5427 6.9306 5.7068 0.0000 -10404.0399 1382.6169 0.0000 0.0000 1714.6940 -7287.5489 296.2655 -9002.2429 -7338.1057 297.7674 -281.0212 -311.4863 30055.0481 -158.7923 -105.0234
ENERGY: 1200000 7.8139 6.1103 7.2401 0.0000 -10422.8472 1362.7061 0.0000 0.0000 1763.3154 -7275.6613 304.6663 -9038.9768 -7313.6363 299.7574 -828.1675 -774.2086 30119.8990 -149.3759 -90.3393
ENERGY: 1500000 5.6614 3.4565 3.8933 0.0000 -10551.5623 1513.9475 0.0000 0.0000 1776.0866 -7248.5169 306.8729 -9024.6035 -7300.1776 301.0205 1109.1455 1198.8012 29595.7621 -85.8944 -24.6339
TCL: Running FEP window   2: Lambda1 0.05   Lambda2 0.1    [dLambda 0.05  ]
TCL: Setting parameter firsttimestep to 0
TCL: Setting parameter alchLambda to 0.05
Info: NONBONDED TABLE R-SQUARED SPACING: 0.0625
Info: NONBONDED TABLE SIZE: 705 POINTS
TCL: Setting parameter alchLambda2 to 0.1
Info: NONBONDED TABLE R-SQUARED SPACING: 0.0625
Info: NONBONDED TABLE SIZE: 705 POINTS
TCL: Running for 1500000 steps
ETITLE: TS BOND ANGLE DIHED IMPRP ELECT VDW BOUNDARY MISC KINETIC TOTAL TEMP POTENTIAL TOTALAVG TEMPAVG PRESSURE GPRESSURE VOLUME PRESSAVG GPRESSAVG
ENERGY: 0 5.6615 3.4565 3.8933 0.0000 -10551.5599 1518.3747 0.0000 0.0000 1775.2118 -7244.9622 306.7218 -9020.1740 -7244.9622 306.7218 1134.8826 1211.9408 29595.7621 1134.8826 1211.9408
ENERGY: 300000 4.7938 4.9639 3.0653 0.0000 -10428.2753 1443.3452 0.0000 0.0000 1733.5248 -7238.5822 299.5191 -8972.1070 -7252.4061 301.4010 199.6477 266.9735 29995.5717 381.6549 450.0478
ENERGY: 600000 5.0757 6.8559 6.1110 0.0000 -10624.7174 1527.1289 0.0000 0.0000 1742.9889 -7336.5571 301.1543 -9079.5460 -7280.4589 299.4340 568.8436 549.7218 29949.8323 263.7987 315.1583
ENERGY: 900000 6.5662 2.5103 6.1404 0.0000 -10464.8800 1364.9396 0.0000 0.0000 1710.7723 -7373.9513 295.5879 -9084.7235 -7299.7732 299.8415 -777.6377 -680.7182 29831.0655 250.9884 305.8253
ENERGY: 1200000 4.9809 4.9125 4.8968 0.0000 -10369.3172 1396.3283 0.0000 0.0000 1744.8859 -7213.3128 301.4821 -8958.1987 -7302.6043 299.9844 -74.0343 -7.6952 29975.9321 123.2806 174.6148
ENERGY: 1500000 8.2284 4.3113 7.1062 0.0000 -10304.5858 1304.0094 0.0000 0.0000 1769.9607 -7210.9698 305.8145 -8980.9305 -7292.7664 301.0348 -1171.3600 -1022.3328 30138.3812 27.8932 86.0743
TCL: Running FEP window   3: Lambda1 0.1    Lambda2 0.15000000000000002 [dLambda 0.05000000000000002]
TCL: Setting parameter firsttimestep to 0
TCL: Setting parameter alchLambda to 0.1
Info: NONBONDED TABLE R-SQUARED SPACING: 0.0625
Info: NONBONDED TABLE SIZE: 705 POINTS
TCL: Setting parameter alchLambda2 to 0.15000000000000002
Info: NONBONDED TABLE R-SQUARED SPACING: 0.0625
Info: NONBONDED TABLE SIZE: 705 POINTS
TCL: Running for 1500000 steps
ETITLE: TS BOND ANGLE DIHED IMPRP ELECT VDW BOUNDARY MISC KINETIC TOTAL TEMP POTENTIAL TOTALAVG TEMPAVG PRESSURE GPRESSURE VOLUME PRESSAVG GPRESSAVG
ENERGY: 0 8.2284 4.3113 7.1062 0.0000 -10304.5856 1304.2094 0.0000 0.0000 1769.1396 -7211.5907 305.6726 -8980.7303 -7211.5907 305.6726 -1102.3469 -1017.1346 30138.3812 -1102.3469 -1017.1346
ENERGY: 300000 5.7824 2.4404 3.6615 0.0000 -10469.0986 1410.8701 0.0000 0.0000 1715.4751 -7330.8690 296.4005 -9046.3441 -7301.2358 297.9524 -24.3193 0.9919 29750.8103 -347.6919 -270.4441
ENERGY: 600000 10.5771 5.4743 6.6187 0.0000 -10497.2072 1413.0681 0.0000 0.0000 1794.3341 -7267.1349 310.0257 -9061.4690 -7293.2577 299.7658 -266.8997 -114.2470 30102.0538 -246.2979 -162.0021
ENERGY: 900000 5.6999 5.8736 4.3771 0.0000 -10489.4142 1387.3799 0.0000 0.0000 1794.0533 -7292.0304 309.9772 -9086.0836 -7301.3235 300.6624 -275.6902 -193.9693 29431.0832 -308.1482 -228.3361
ENERGY: 1200000 4.4032 3.5659 5.8775 0.0000 -10428.8573 1404.4932 0.0000 0.0000 1748.1632 -7262.3542 302.0483 -9010.5175 -7308.8276 300.9467 273.1977 267.2579 29228.5645 -221.6604 -151.1725
ENERGY: 1500000 2.9329 2.9122 4.3016 0.0000 -10601.8892 1507.0753 0.0000 0.0000 1758.8150 -7325.8522 303.8888 -9084.6672 -7308.9105 301.2745 807.2307 903.2965 29364.5924 -101.3012 -28.9354
TCL: Running FEP window   4: Lambda1 0.15000000000000002 Lambda2 0.2    [dLambda 0.04999999999999999]
TCL: Setting parameter firsttimestep to 0
TCL: Setting parameter alchLambda to 0.15000000000000002
Info: NONBONDED TABLE R-SQUARED SPACING: 0.0625
Info: NONBONDED TABLE SIZE: 705 POINTS
TCL: Setting parameter alchLambda2 to 0.2
Info: NONBONDED TABLE R-SQUARED SPACING: 0.0625
Info: NONBONDED TABLE SIZE: 705 POINTS
TCL: Running for 1500000 steps
ETITLE: TS BOND ANGLE DIHED IMPRP ELECT VDW BOUNDARY MISC KINETIC TOTAL TEMP POTENTIAL TOTALAVG TEMPAVG PRESSURE GPRESSURE VOLUME PRESSAVG GPRESSAVG
ENERGY: 0 2.9329 2.9122 4.3016 0.0000 -10601.8903 1508.3776 0.0000 0.0000 1757.9711 -7325.3949 303.7429 -9083.3660 -7325.3949 303.7429 815.4554 911.9083 29364.5924 815.4554 911.9083
ENERGY: 300000 2.3422 9.1824 3.4992 0.0000 -10363.2510 1403.5535 0.0000 0.0000 1714.7233 -7229.9504 296.2706 -8944.6737 -7286.0166 299.5710 294.7945 369.8966 29748.5926 304.2952 381.5929
ENERGY: 600000 1.9614 6.2839 5.2263 0.0000 -10384.3682 1340.3405 0.0000 0.0000 1690.5177 -7340.0384 292.0883 -9030.5561 -7297.4273 301.3872 -642.9122 -560.4188 29886.1207 91.9585 167.1288
ENERGY: 900000 5.8286 4.2061 3.5205 0.0000 -10556.0650 1457.2966 0.0000 0.0000 1678.1947 -7407.0185 289.9591 -9085.2132 -7314.2164 301.6219 522.4438 513.1624 29337.8417 189.8417 262.9040
ENERGY: 1200000 6.2973 5.5038 4.9760 0.0000 -10455.6099 1378.8125 0.0000 0.0000 1703.3304 -7356.6901 294.3021 -9060.0205 -7307.7320 301.3827 -753.3718 -670.8674 29743.6829 52.5972 113.7395
ENERGY: 1500000 5.4456 5.1701 6.2259 0.0000 -10445.1210 1363.7199 0.0000 0.0000 1727.3939 -7337.1656 298.4598 -9064.5595 -7294.8643 301.8451 -144.9568 -151.6495 29508.9657 20.6025 79.9817
TCL: Running FEP window   5: Lambda1 0.2    Lambda2 0.25   [dLambda 0.04999999999999999]
TCL: Setting parameter firsttimestep to 0
TCL: Setting parameter alchLambda to 0.2
Info: NONBONDED TABLE R-SQUARED SPACING: 0.0625
Info: NONBONDED TABLE SIZE: 705 POINTS
TCL: Setting parameter alchLambda2 to 0.25
Info: NONBONDED TABLE R-SQUARED SPACING: 0.0625
Info: NONBONDED TABLE SIZE: 705 POINTS
TCL: Running for 1500000 steps
ETITLE: TS BOND ANGLE DIHED IMPRP ELECT VDW BOUNDARY MISC KINETIC TOTAL TEMP POTENTIAL TOTALAVG TEMPAVG PRESSURE GPRESSURE VOLUME PRESSAVG GPRESSAVG
ENERGY: 0 5.4456 5.1702 6.2259 0.0000 -10445.1203 1364.6994 0.0000 0.0000 1726.5216 -7337.0576 298.3091 -9063.5792 -7337.0576 298.3091 -205.6280 -136.6186 29508.9657 -205.6280 -136.6186
ENERGY: 300000 3.9275 2.2352 9.7399 0.0000 -10531.5317 1455.1096 0.0000 0.0000 1728.4993 -7332.0201 298.6508 -9060.5195 -7309.1704 300.9161 -195.0713 -56.6498 30401.0331 -180.7301 -79.8826
ENERGY: 600000 6.8263 6.4154 6.0631 0.0000 -10518.7396 1481.4200 0.0000 0.0000 1743.6449 -7274.3699 301.2676 -9018.0148 -7285.6878 301.8268 503.4128 566.1090 29727.4612 -18.1659 61.9606
ENERGY: 900000 6.1550 6.3953 7.2991 0.0000 -10408.8045 1395.9435 0.0000 0.0000 1697.5440 -7295.4677 293.3023 -8993.0116 -7287.3716 300.5655 -412.5975 -226.6762 30075.8977 -114.4989 -19.4550
ENERGY: 1200000 4.7863 3.0469 5.3937 0.0000 -10388.8156 1300.3789 0.0000 0.0000 1759.0944 -7316.1153 303.9370 -9075.2098 -7300.3772 299.9445 -1029.1502 -949.8949 30029.5284 -193.2505 -106.4957
ENERGY: 1500000 4.4694 4.9717 6.1494 0.0000 -10488.6398 1403.9598 0.0000 0.0000 1683.5215 -7385.5679 290.8795 -9069.0894 -7300.3484 299.9849 -140.5787 -96.9140 29542.5248 -220.2429 -138.2487
TCL: Running FEP window   6: Lambda1 0.25   Lambda2 0.3    [dLambda 0.04999999999999999]
TCL: Setting parameter firsttimestep to 0
TCL: Setting parameter alchLambda to 0.25
Info: NONBONDED TABLE R-SQUARED SPACING: 0.0625
Info: NONBONDED TABLE SIZE: 705 POINTS
TCL: Setting parameter alchLambda2 to 0.3
Info: NONBONDED TABLE R-SQUARED SPACING: 0.0625
Info: NONBONDED TABLE SIZE: 705 POINTS
TCL: Running for 1500000 steps
ETITLE: TS BOND ANGLE DIHED IMPRP ELECT VDW BOUNDARY MISC KINETIC TOTAL TEMP POTENTIAL TOTALAVG TEMPAVG PRESSURE GPRESSURE VOLUME PRESSAVG GPRESSAVG
ENERGY: 0 4.4694 4.9717 6.1494 0.0000 -10488.6399 1404.5883 0.0000 0.0000 1682.6473 -7385.8137 290.7285 -9068.4611 -7385.8137 290.7285 -167.7197 -85.8064 29542.5248 -167.7197 -85.8064
ENERGY: 300000 3.1577 8.1911 9.0687 0.0000 -10495.1509 1474.6668 0.0000 0.0000 1702.0732 -7297.9934 294.0849 -9000.0666 -7327.9193 295.2610 672.2715 722.6103 29621.6025 218.7277 296.4360
ENERGY: 600000 5.5514 5.2850 5.3118 0.0000 -10449.2925 1382.7164 0.0000 0.0000 1690.6278 -7359.8001 292.1073 -9050.4279 -7317.7579 296.6988 -581.2166 -500.8573 29815.3067 111.5527 181.5470
ENERGY: 900000 5.8098 5.9957 9.3353 0.0000 -10558.7131 1448.6585 0.0000 0.0000 1701.7259 -7387.1879 294.0249 -9088.9139 -7316.6365 297.7542 221.9304 262.7975 29534.2034 16.6658 84.6127
ENERGY: 1200000 7.7908 7.1386 6.2709 0.0000 -10527.8841 1477.8437 0.0000 0.0000 1756.5478 -7272.2923 303.4970 -9028.8401 -7310.3882 297.8691 335.4323 381.5740 29837.7310 31.6297 95.7914
ENERGY: 1500000 5.1912 4.5828 4.8670 0.0000 -10365.8596 1397.0573 0.0000 0.0000 1721.9414 -7232.2200 297.5177 -8954.1613 -7305.0468 298.3667 -175.9571 -64.8384 30151.8686 22.7587 92.9406
TCL: Running FEP window   7: Lambda1 0.3    Lambda2 0.35   [dLambda 0.04999999999999999]
TCL: Setting parameter firsttimestep to 0
TCL: Setting parameter alchLambda to 0.3
Info: NONBONDED TABLE R-SQUARED SPACING: 0.0625
Info: NONBONDED TABLE SIZE: 705 POINTS
TCL: Setting parameter alchLambda2 to 0.35
Info: NONBONDED TABLE R-SQUARED SPACING: 0.0625
Info: NONBONDED TABLE SIZE: 705 POINTS
TCL: Running for 1500000 steps
ETITLE: TS BOND ANGLE DIHED IMPRP ELECT VDW BOUNDARY MISC KINETIC TOTAL TEMP POTENTIAL TOTALAVG TEMPAVG PRESSURE GPRESSURE VOLUME PRESSAVG GPRESSAVG
ENERGY: 0 5.1911 4.5828 4.8670 0.0000 -10365.8583 1396.8488 0.0000 0.0000 1721.0690 -7233.2995 297.3670 -8954.3685 -7233.2995 297.3670 -140.9755 -58.4858 30151.8686 -140.9755 -58.4858
ENERGY: 300000 6.8492 4.8519 6.0162 0.0000 -10478.6961 1340.7458 0.0000 0.0000 1713.1541 -7407.0788 295.9994 -9120.2329 -7321.1283 296.9721 -860.9596 -797.3849 29509.8668 -215.0026 -174.2328
ENERGY: 600000 3.6038 5.7671 5.3201 0.0000 -10502.8999 1402.0199 0.0000 0.0000 1705.2588 -7380.9302 294.6353 -9086.1890 -7311.3691 298.0210 -345.3119 -293.6724 29959.6790 -231.9785 -198.7076
ENERGY: 900000 6.1761 2.9927 9.2817 0.0000 -10533.1009 1403.2027 0.0000 0.0000 1748.8610 -7362.5867 302.1689 -9111.4477 -7330.9939 297.9592 -49.0385 -12.0934 29559.1155 -192.7287 -145.8398
ENERGY: 1200000 4.6494 6.7910 4.0214 0.0000 -10422.4486 1357.2499 0.0000 0.0000 1701.8218 -7347.9151 294.0414 -9049.7369 -7328.8233 297.7693 -419.8657 -392.2171 29961.2936 -103.7729 -60.5671
ENERGY: 1500000 9.3885 2.3478 3.5293 0.0000 -10451.4332 1350.2051 0.0000 0.0000 1785.6426 -7300.3199 308.5240 -9085.9625 -7318.7726 298.6893 -854.9518 -781.4196 30045.9040 -114.2685 -73.3478
TCL: Running FEP window   8: Lambda1 0.35   Lambda2 0.39999999999999997 [dLambda 0.04999999999999999]
TCL: Setting parameter firsttimestep to 0
TCL: Setting parameter alchLambda to 0.35
Info: NONBONDED TABLE R-SQUARED SPACING: 0.0625
Info: NONBONDED TABLE SIZE: 705 POINTS
TCL: Setting parameter alchLambda2 to 0.39999999999999997
Info: NONBONDED TABLE R-SQUARED SPACING: 0.0625
Info: NONBONDED TABLE SIZE: 705 POINTS
TCL: Running for 1500000 steps
ETITLE: TS BOND ANGLE DIHED IMPRP ELECT VDW BOUNDARY MISC KINETIC TOTAL TEMP POTENTIAL TOTALAVG TEMPAVG PRESSURE GPRESSURE VOLUME PRESSAVG GPRESSAVG
ENERGY: 0 9.3885 2.3478 3.5293 0.0000 -10451.4331 1351.3534 0.0000 0.0000 1784.7607 -7300.0533 308.3717 -9084.8140 -7300.0533 308.3717 -840.5696 -765.3262 30045.9040 -840.5696 -765.3262
ENERGY: 300000 6.7871 5.2821 4.9688 0.0000 -10530.9484 1469.4578 0.0000 0.0000 1698.9135 -7345.5391 293.5389 -9044.4525 -7310.6345 303.1641 258.2103 324.0602 29941.6196 14.5283 87.5902
ENERGY: 600000 5.6448 4.9944 7.0859 0.0000 -10562.3364 1450.3789 0.0000 0.0000 1735.5505 -7358.6819 299.8691 -9094.2324 -7328.2580 302.0573 187.2394 216.3951 29676.8166 102.6894 175.3527
ENERGY: 900000 8.7391 8.4898 2.4749 0.0000 -10563.9674 1475.1979 0.0000 0.0000 1708.7423 -7360.3234 295.2372 -9069.0657 -7323.9840 301.8336 305.6480 345.5071 29550.2128 112.8296 188.1432
ENERGY: 1200000 10.1519 3.0974 4.8427 0.0000 -10339.2482 1312.3216 0.0000 0.0000 1721.2337 -7287.6009 297.3954 -9008.8346 -7325.2786 300.9706 -534.6707 -483.4809 29833.4902 73.6564 140.5165
ENERGY: 1500000 5.0632 9.1137 2.7925 0.0000 -10622.2043 1518.4267 0.0000 0.0000 1691.7112 -7395.0970 292.2945 -9086.8082 -7335.5622 299.6755 585.0950 649.9328 29710.9824 -30.0688 36.8894
TCL: Running FEP window   9: Lambda1 0.39999999999999997 Lambda2 0.44999999999999996 [dLambda 0.04999999999999999]
TCL: Setting parameter firsttimestep to 0
TCL: Setting parameter alchLambda to 0.39999999999999997
Info: NONBONDED TABLE R-SQUARED SPACING: 0.0625
Info: NONBONDED TABLE SIZE: 705 POINTS
TCL: Setting parameter alchLambda2 to 0.44999999999999996
Info: NONBONDED TABLE R-SQUARED SPACING: 0.0625
Info: NONBONDED TABLE SIZE: 705 POINTS
TCL: Running for 1500000 steps
ETITLE: TS BOND ANGLE DIHED IMPRP ELECT VDW BOUNDARY MISC KINETIC TOTAL TEMP POTENTIAL TOTALAVG TEMPAVG PRESSURE GPRESSURE VOLUME PRESSAVG GPRESSAVG
ENERGY: 0 5.0632 9.1137 2.7925 0.0000 -10622.2043 1519.0758 0.0000 0.0000 1690.9125 -7395.2466 292.1565 -9086.1590 -7395.2466 292.1565 580.0561 662.8103 29710.9824 580.0561 662.8103
ENERGY: 300000 6.4702 8.5425 9.2335 0.0000 -10436.1110 1346.0674 0.0000 0.0000 1751.3453 -7314.4520 302.5981 -9065.7974 -7376.1357 295.0800 -589.5448 -555.4208 29786.0291 -116.5610 -65.2290
ENERGY: 600000 3.5075 3.3005 11.2974 0.0000 -10594.1165 1507.5292 0.0000 0.0000 1746.1323 -7322.3496 301.6974 -9068.4819 -7358.1398 295.7500 666.9516 710.5884 29571.0741 -100.5858 -36.1051
ENERGY: 900000 6.4698 2.2857 9.2572 0.0000 -10458.0557 1393.7485 0.0000 0.0000 1708.2055 -7338.0890 295.1444 -9046.2945 -7349.7677 295.5878 -223.7596 -209.4758 29988.6134 -57.5674 8.3231
ENERGY: 1200000 5.3899 6.0183 2.9794 0.0000 -10597.2757 1499.3728 0.0000 0.0000 1717.9078 -7365.6075 296.8208 -9083.5153 -7345.6966 296.6596 388.0233 396.3867 29921.1323 48.8449 112.5650
ENERGY: 1500000 3.7115 8.5448 3.0550 0.0000 -10401.7464 1363.5724 0.0000 0.0000 1795.1818 -7227.6808 310.1722 -9022.8626 -7336.7079 297.0480 -610.8813 -570.4824 30148.2005 -13.3325 47.5414
TCL: Running FEP window  10: Lambda1 0.44999999999999996 Lambda2 0.49999999999999994 [dLambda 0.04999999999999999]
TCL: Setting parameter firsttimestep to 0
TCL: Setting parameter alchLambda to 0.44999999999999996
Info: NONBONDED TABLE R-SQUARED SPACING: 0.0625
Info: NONBONDED TABLE SIZE: 705 POINTS
TCL: Setting parameter alchLambda2 to 0.49999999999999994
Info: NONBONDED TABLE R-SQUARED SPACING: 0.0625
Info: NONBONDED TABLE SIZE: 705 POINTS
TCL: Running for 1500000 steps
ETITLE: TS BOND ANGLE DIHED IMPRP ELECT VDW BOUNDARY MISC KINETIC TOTAL TEMP POTENTIAL TOTALAVG TEMPAVG PRESSURE GPRESSURE VOLUME PRESSAVG GPRESSAVG
ENERGY: 0 3.7116 8.5448 3.0550 0.0000 -10401.7461 1362.6802 0.0000 0.0000 1794.3527 -7229.4019 310.0290 -9023.7546 -7229.4019 310.0290 -644.9493 -569.3383 30148.2005 -644.9493 -569.3383
ENERGY: 300000 6.3160 6.1160 3.1448 0.0000 -10656.7595 1518.2279 0.0000 0.0000 1697.3827 -7425.5721 293.2744 -9122.9547 -7330.9787 301.4702 513.1018 535.0760 29696.6186 -112.0263 -68.9569
ENERGY: 600000 3.2250 3.5606 5.0979 0.0000 -10553.9350 1487.6120 0.0000 0.0000 1750.0563 -7304.3833 302.3754 -9054.4396 -7333.4071 299.2035 639.3785 741.2031 30019.3565 -106.9917 -61.9995
ENERGY: 900000 8.3539 3.6120 5.7673 0.0000 -10400.2424 1339.3256 0.0000 0.0000 1746.8093 -7296.3742 301.8144 -9043.1835 -7330.9136 299.3950 -1055.3494 -922.3016 30307.5342 -166.2180 -102.1221
ENERGY: 1200000 6.7069 4.9749 4.2673 0.0000 -10565.7880 1398.6309 0.0000 0.0000 1757.6012 -7393.6067 303.6790 -9151.2080 -7323.7426 300.2709 -516.4522 -471.2117 29739.5563 -56.8641 2.7818
ENERGY: 1500000 3.4767 3.0521 2.8392 0.0000 -10426.3927 1396.3149 0.0000 0.0000 1732.5256 -7288.1841 299.3465 -9020.7098 -7320.3864 299.6814 -482.8201 -415.9769 30406.9821 -93.7079 -36.9956
TCL: Running FEP window  11: Lambda1 0.49999999999999994 Lambda2 0.5499999999999999 [dLambda 0.04999999999999999]
TCL: Setting parameter firsttimestep to 0
TCL: Setting parameter alchLambda to 0.49999999999999994
Info: NONBONDED TABLE R-SQUARED SPACING: 0.0625
Info: NONBONDED TABLE SIZE: 705 POINTS
TCL: Setting parameter alchLambda2 to 0.5499999999999999
Info: NONBONDED TABLE R-SQUARED SPACING: 0.0625
Info: NONBONDED TABLE SIZE: 705 POINTS
TCL: Running for 1500000 steps
ETITLE: TS BOND ANGLE DIHED IMPRP ELECT VDW BOUNDARY MISC KINETIC TOTAL TEMP POTENTIAL TOTALAVG TEMPAVG PRESSURE GPRESSURE VOLUME PRESSAVG GPRESSAVG
ENERGY: 0 3.4767 3.0521 2.8392 0.0000 -10426.3930 1395.9996 0.0000 0.0000 1731.6781 -7289.3474 299.2000 -9021.0254 -7289.3474 299.2000 -493.6601 -410.3917 30406.9821 -493.6601 -410.3917
ENERGY: 300000 6.1957 4.0042 6.9193 0.0000 -10380.0936 1370.3747 0.0000 0.0000 1800.2050 -7192.3946 311.0401 -8992.5996 -7306.5746 300.7208 -291.0392 -150.2530 30085.0058 -110.8848 -27.1339
ENERGY: 600000 4.2718 6.4409 6.1859 0.0000 -10579.3981 1486.1241 0.0000 0.0000 1744.7438 -7331.6316 301.4575 -9076.3753 -7296.1958 301.3634 510.0636 546.4672 29930.8934 -119.3402 -46.9960
ENERGY: 900000 6.1922 4.3019 2.4469 0.0000 -10392.2565 1339.9719 0.0000 0.0000 1737.4061 -7301.9375 300.1897 -9039.3436 -7300.1212 301.9464 -631.6977 -517.6816 29755.7951 -210.4101 -132.1795
ENERGY: 1200000 4.8449 6.6004 4.9168 0.0000 -10478.0375 1415.1847 0.0000 0.0000 1725.8043 -7320.6865 298.1851 -9046.4908 -7306.6881 301.2236 377.7924 355.8360 29447.4562 -107.2098 -37.6327
ENERGY: 1500000 4.2265 7.6517 5.5955 0.0000 -10488.7579 1395.8475 0.0000 0.0000 1765.0608 -7310.3759 304.9679 -9075.4367 -7305.5804 301.9230 53.7097 88.9682 29799.5745 -67.5880 3.3291
TCL: Running FEP window  12: Lambda1 0.5499999999999999 Lambda2 0.6    [dLambda 0.050000000000000044]
TCL: Setting parameter firsttimestep to 0
TCL: Setting parameter alchLambda to 0.5499999999999999
Info: NONBONDED TABLE R-SQUARED SPACING: 0.0625
Info: NONBONDED TABLE SIZE: 705 POINTS
TCL: Setting parameter alchLambda2 to 0.6
Info: NONBONDED TABLE R-SQUARED SPACING: 0.0625
Info: NONBONDED TABLE SIZE: 705 POINTS
TCL: Running for 1500000 steps
ETITLE: TS BOND ANGLE DIHED IMPRP ELECT VDW BOUNDARY MISC KINETIC TOTAL TEMP POTENTIAL TOTALAVG TEMPAVG PRESSURE GPRESSURE VOLUME PRESSAVG GPRESSAVG
ENERGY: 0 4.2265 7.6517 5.5955 0.0000 -10488.8586 1396.7895 0.0000 0.0000 1764.1757 -7310.4197 304.8150 -9074.5954 -7310.4197 304.8150 22.8827 107.1538 29799.5745 22.8827 107.1538
ENERGY: 300000 5.0429 2.5449 6.7707 0.0000 -10496.6561 1397.5605 0.0000 0.0000 1802.3339 -7282.4031 311.4080 -9084.7371 -7285.0012 305.2244 -156.8938 -124.4847 29843.0303 -64.3037 -10.6713
ENERGY: 600000 4.0839 2.7741 3.4201 0.0000 -10502.6548 1416.8922 0.0000 0.0000 1706.6657 -7368.8188 294.8784 -9075.4845 -7287.3526 303.3428 -55.9445 -23.8572 30158.7209 -33.8385 18.4009
ENERGY: 900000 4.2187 3.8286 6.5791 0.0000 -10375.7126 1357.9194 0.0000 0.0000 1710.0099 -7293.1569 295.4562 -9003.1667 -7296.8024 301.2587 -386.1660 -385.3415 30044.9007 -46.2182 5.8503
ENERGY: 1200000 4.7238 5.7843 5.2813 0.0000 -10219.3606 1283.5558 0.0000 0.0000 1759.7498 -7160.2655 304.0503 -8920.0154 -7290.0704 301.5584 -633.5145 -573.5012 30087.1780 -80.4386 -25.7007
ENERGY: 1500000 4.3546 7.4043 12.0063 0.0000 -10508.7609 1386.1422 0.0000 0.0000 1735.6136 -7363.2399 299.8800 -9098.8535 -7293.6826 301.3181 -430.7589 -329.0191 29768.7647 -124.4336 -68.3454
TCL: Running FEP window  13: Lambda1 0.6    Lambda2 0.65   [dLambda 0.050000000000000044]
TCL: Setting parameter firsttimestep to 0
TCL: Setting parameter alchLambda to 0.6
Info: NONBONDED TABLE R-SQUARED SPACING: 0.0625
Info: NONBONDED TABLE SIZE: 705 POINTS
TCL: Setting parameter alchLambda2 to 0.65
Info: NONBONDED TABLE R-SQUARED SPACING: 0.0625
Info: NONBONDED TABLE SIZE: 705 POINTS
TCL: Running for 1500000 steps
ETITLE: TS BOND ANGLE DIHED IMPRP ELECT VDW BOUNDARY MISC KINETIC TOTAL TEMP POTENTIAL TOTALAVG TEMPAVG PRESSURE GPRESSURE VOLUME PRESSAVG GPRESSAVG
ENERGY: 0 4.3546 7.4043 12.0063 0.0000 -10509.4211 1386.7158 0.0000 0.0000 1734.8060 -7364.1341 299.7405 -9098.9401 -7364.1341 299.7405 -416.5324 -314.8482 29768.7647 -416.5324 -314.8482
ENERGY: 300000 6.2998 6.4361 2.6120 0.0000 -10406.2716 1379.1823 0.0000 0.0000 1747.2995 -7264.4420 301.8991 -9011.7415 -7319.1174 300.0805 -352.3890 -312.7548 30227.2918 -145.5446 -95.4392
ENERGY: 600000 3.4891 4.1570 7.3465 0.0000 -10478.5186 1357.6642 0.0000 0.0000 1745.9517 -7359.9101 301.6662 -9105.8618 -7329.1736 299.6246 -539.8431 -435.9118 29775.8613 -163.2474 -106.8104
ENERGY: 900000 6.1111 9.8261 8.5765 0.0000 -10460.1151 1392.2789 0.0000 0.0000 1747.8621 -7295.4604 301.9963 -9043.3225 -7310.0544 299.5043 -359.6362 -294.2602 30290.1138 -197.6346 -141.3722
ENERGY: 1200000 7.7139 4.2828 8.2304 0.0000 -10603.2751 1447.6306 0.0000 0.0000 1739.5215 -7395.8958 300.5552 -9135.4173 -7313.6014 299.2443 -122.9762 -97.7200 29950.0795 -144.8850 -99.4447
ENERGY: 1500000 4.9225 3.5368 5.4427 0.0000 -10490.3515 1450.4444 0.0000 0.0000 1734.2086 -7291.7965 299.6372 -9026.0051 -7314.4517 299.6864 803.9263 825.2930 29282.6906 -98.1203 -55.6628
TCL: Running FEP window  14: Lambda1 0.65   Lambda2 0.7000000000000001 [dLambda 0.050000000000000044]
TCL: Setting parameter firsttimestep to 0
TCL: Setting parameter alchLambda to 0.65
Info: NONBONDED TABLE R-SQUARED SPACING: 0.0625
Info: NONBONDED TABLE SIZE: 705 POINTS
TCL: Setting parameter alchLambda2 to 0.7000000000000001
Info: NONBONDED TABLE R-SQUARED SPACING: 0.0625
Info: NONBONDED TABLE SIZE: 705 POINTS
TCL: Running for 1500000 steps
ETITLE: TS BOND ANGLE DIHED IMPRP ELECT VDW BOUNDARY MISC KINETIC TOTAL TEMP POTENTIAL TOTALAVG TEMPAVG PRESSURE GPRESSURE VOLUME PRESSAVG GPRESSAVG
ENERGY: 0 4.9225 3.5368 5.4427 0.0000 -10490.3570 1450.8703 0.0000 0.0000 1733.3753 -7292.2094 299.4933 -9025.5847 -7292.2094 299.4933 768.1095 844.3752 29282.6906 768.1095 844.3752
ENERGY: 300000 6.7897 3.4271 7.6525 0.0000 -10551.7619 1457.3321 0.0000 0.0000 1724.3975 -7352.1630 297.9421 -9076.5605 -7278.9932 299.3350 194.1773 307.3985 29768.5965 125.9236 195.7709
ENERGY: 600000 4.7241 2.6774 6.3775 0.0000 -10524.6289 1429.1570 0.0000 0.0000 1755.2295 -7326.4634 303.2692 -9081.6929 -7302.5689 300.4398 64.9651 117.5529 29891.1653 -112.3769 -41.3827
ENERGY: 900000 4.4462 5.8307 5.4178 0.0000 -10560.7281 1487.6562 0.0000 0.0000 1731.0917 -7326.2855 299.0987 -9057.3772 -7310.7025 299.6562 356.5812 424.1143 30306.0227 -187.7372 -111.7259
ENERGY: 1200000 4.5436 6.2737 5.7108 0.0000 -10522.1114 1456.7105 0.0000 0.0000 1734.3443 -7314.5285 299.6607 -9048.8727 -7314.3857 299.8407 487.1323 579.2757 29725.6339 -54.3241 24.8533
ENERGY: 1500000 5.7126 5.2433 5.8618 0.0000 -10425.5711 1362.5820 0.0000 0.0000 1744.5211 -7301.6504 301.4190 -9046.1715 -7307.6796 300.4330 -132.2521 -110.7821 29585.9281 -41.1738 36.9722
TCL: Running FEP window  15: Lambda1 0.7000000000000001 Lambda2 0.7500000000000001 [dLambda 0.050000000000000044]
TCL: Setting parameter firsttimestep to 0
TCL: Setting parameter alchLambda to 0.7000000000000001
Info: NONBONDED TABLE R-SQUARED SPACING: 0.0625
Info: NONBONDED TABLE SIZE: 705 POINTS
TCL: Setting parameter alchLambda2 to 0.7500000000000001
Info: NONBONDED TABLE R-SQUARED SPACING: 0.0625
Info: NONBONDED TABLE SIZE: 705 POINTS
TCL: Running for 1500000 steps
ETITLE: TS BOND ANGLE DIHED IMPRP ELECT VDW BOUNDARY MISC KINETIC TOTAL TEMP POTENTIAL TOTALAVG TEMPAVG PRESSURE GPRESSURE VOLUME PRESSAVG GPRESSAVG
ENERGY: 0 5.7126 5.2433 5.8618 0.0000 -10426.1391 1362.4540 0.0000 0.0000 1743.6380 -7303.2295 301.2665 -9046.8675 -7303.2295 301.2665 -189.9064 -97.4393 29585.9281 -189.9064 -97.4393
ENERGY: 300000 7.0790 7.2226 3.2514 0.0000 -10501.7841 1469.1571 0.0000 0.0000 1703.1287 -7311.9452 294.2672 -9015.0739 -7337.4261 295.6795 304.9664 362.5144 29884.8515 -25.7804 25.8146
ENERGY: 600000 3.3865 4.8690 4.6803 0.0000 -10549.9598 1472.4574 0.0000 0.0000 1745.0291 -7319.5375 301.5068 -9064.5666 -7312.5004 299.7932 547.1700 585.9378 29961.5867 -65.3526 -7.3998
ENERGY: 900000 3.9299 7.2618 5.6395 0.0000 -10367.8781 1382.9199 0.0000 0.0000 1713.1789 -7254.9482 296.0037 -8968.1270 -7313.7758 299.3701 -56.0501 42.2944 30067.5697 -41.4420 26.2888
ENERGY: 1200000 6.2511 5.4633 9.6371 0.0000 -10625.2357 1479.0916 0.0000 0.0000 1709.0258 -7415.7668 295.2861 -9124.7926 -7313.4996 299.4022 327.5606 396.7316 29638.8276 -39.6751 27.1646
ENERGY: 1500000 5.0614 5.9812 7.1754 0.0000 -10564.7777 1467.1033 0.0000 0.0000 1675.1547 -7404.3017 289.4339 -9079.4564 -7317.8458 299.2954 116.8105 270.2149 29859.6409 -41.6407 32.1486
TCL: Running FEP window  16: Lambda1 0.7500000000000001 Lambda2 0.8000000000000002 [dLambda 0.050000000000000044]
TCL: Setting parameter firsttimestep to 0
TCL: Setting parameter alchLambda to 0.7500000000000001
Info: NONBONDED TABLE R-SQUARED SPACING: 0.0625
Info: NONBONDED TABLE SIZE: 705 POINTS
TCL: Setting parameter alchLambda2 to 0.8000000000000002
Info: NONBONDED TABLE R-SQUARED SPACING: 0.0625
Info: NONBONDED TABLE SIZE: 705 POINTS
TCL: Running for 1500000 steps
ETITLE: TS BOND ANGLE DIHED IMPRP ELECT VDW BOUNDARY MISC KINETIC TOTAL TEMP POTENTIAL TOTALAVG TEMPAVG PRESSURE GPRESSURE VOLUME PRESSAVG GPRESSAVG
ENERGY: 0 5.0614 5.9812 7.1754 0.0000 -10564.9967 1466.8653 0.0000 0.0000 1674.3141 -7405.5992 289.2886 -9079.9134 -7405.5992 289.2886 185.2841 273.7149 29859.6409 185.2841 273.7149
ENERGY: 300000 5.1367 6.5265 5.9569 0.0000 -10390.1563 1400.6104 0.0000 0.0000 1728.0366 -7243.8893 298.5708 -8971.9259 -7319.4848 295.2587 211.6391 247.2712 29992.5054 -249.3062 -195.8169
ENERGY: 600000 3.3521 4.5743 7.6264 0.0000 -10561.3909 1456.7044 0.0000 0.0000 1666.7934 -7422.3404 287.9892 -9089.1338 -7334.5652 297.4209 151.0153 246.6987 30007.8193 -68.1259 -8.5663
ENERGY: 900000 6.9040 4.3940 6.2703 0.0000 -10633.2125 1542.7587 0.0000 0.0000 1749.4204 -7323.4651 302.2655 -9072.8856 -7335.4489 299.5464 887.9451 1027.1602 30046.0060 -1.8085 66.5420
ENERGY: 1200000 7.3711 4.0545 7.5087 0.0000 -10417.9024 1389.6688 0.0000 0.0000 1745.3607 -7263.9385 301.5641 -9009.2993 -7336.4742 299.5035 94.9692 125.6620 29543.8497 66.3287 126.3201
ENERGY: 1500000 4.2281 5.0407 5.8223 0.0000 -10421.5079 1369.6858 0.0000 0.0000 1775.8154 -7260.9154 306.8261 -9036.7309 -7328.2580 300.2796 48.5221 105.0411 29396.7417 -8.6908 62.1398
TCL: Running FEP window  17: Lambda1 0.8000000000000002 Lambda2 0.8500000000000002 [dLambda 0.050000000000000044]
TCL: Setting parameter firsttimestep to 0
TCL: Setting parameter alchLambda to 0.8000000000000002
Info: NONBONDED TABLE R-SQUARED SPACING: 0.0625
Info: NONBONDED TABLE SIZE: 705 POINTS
TCL: Setting parameter alchLambda2 to 0.8500000000000002
Info: NONBONDED TABLE R-SQUARED SPACING: 0.0625
Info: NONBONDED TABLE SIZE: 705 POINTS
TCL: Running for 1500000 steps
ETITLE: TS BOND ANGLE DIHED IMPRP ELECT VDW BOUNDARY MISC KINETIC TOTAL TEMP POTENTIAL TOTALAVG TEMPAVG PRESSURE GPRESSURE VOLUME PRESSAVG GPRESSAVG
ENERGY: 0 4.2281 5.0407 5.8223 0.0000 -10422.2015 1369.0923 0.0000 0.0000 1774.9661 -7263.0518 306.6793 -9038.0179 -7263.0518 306.6793 29.3404 108.4069 29396.7417 29.3404 108.4069
ENERGY: 300000 5.3688 2.5689 4.5549 0.0000 -10512.3621 1411.5760 0.0000 0.0000 1790.5453 -7297.7482 309.3711 -9088.2935 -7297.6674 303.4301 54.8693 166.2320 30013.4765 -72.5651 11.0338
ENERGY: 600000 8.6573 3.4997 4.6690 0.0000 -10571.5678 1440.5900 0.0000 0.0000 1755.1604 -7358.9915 303.2573 -9114.1519 -7305.2224 302.0979 170.7644 242.3463 29615.7282 -14.6703 52.3051
ENERGY: 900000 4.9364 9.0864 4.8804 0.0000 -10463.0132 1411.5531 0.0000 0.0000 1720.5862 -7311.9707 297.2836 -9032.5569 -7315.4713 300.3140 -289.1932 -219.3425 30220.5799 -5.4761 57.8904
ENERGY: 1200000 6.4709 5.0173 3.8225 0.0000 -10488.0842 1393.8117 0.0000 0.0000 1708.1255 -7370.8364 295.1306 -9078.9619 -7314.7132 300.4698 -231.0737 -165.9130 30126.3955 -85.4917 -13.9543
ENERGY: 1500000 5.0408 2.8354 5.3542 0.0000 -10562.9786 1517.9147 0.0000 0.0000 1737.3436 -7294.4899 300.1789 -9031.8334 -7307.8049 300.5657 870.2104 955.2774 29922.9265 -16.9110 52.6867
TCL: Running FEP window  18: Lambda1 0.8500000000000002 Lambda2 0.9000000000000002 [dLambda 0.050000000000000044]
TCL: Setting parameter firsttimestep to 0
TCL: Setting parameter alchLambda to 0.8500000000000002
Info: NONBONDED TABLE R-SQUARED SPACING: 0.0625
Info: NONBONDED TABLE SIZE: 705 POINTS
TCL: Setting parameter alchLambda2 to 0.9000000000000002
Info: NONBONDED TABLE R-SQUARED SPACING: 0.0625
Info: NONBONDED TABLE SIZE: 705 POINTS
TCL: Running for 1500000 steps
ETITLE: TS BOND ANGLE DIHED IMPRP ELECT VDW BOUNDARY MISC KINETIC TOTAL TEMP POTENTIAL TOTALAVG TEMPAVG PRESSURE GPRESSURE VOLUME PRESSAVG GPRESSAVG
ENERGY: 0 5.0408 2.8354 5.3542 0.0000 -10564.4335 1518.1315 0.0000 0.0000 1736.4536 -7296.6179 300.0251 -9033.0716 -7296.6179 300.0251 901.5661 971.1545 29922.9265 901.5661 971.1545
ENERGY: 300000 5.2369 4.1819 4.9063 0.0000 -10403.7488 1312.7925 0.0000 0.0000 1724.4952 -7352.1360 297.9590 -9076.6311 -7333.5950 300.2891 -804.6559 -758.3481 29981.4945 178.8667 249.6945
ENERGY: 600000 2.3314 4.8897 3.0292 0.0000 -10592.8152 1470.0040 0.0000 0.0000 1823.2113 -7289.3496 315.0152 -9112.5609 -7317.3369 302.2119 400.8287 439.4390 30058.2376 52.7787 125.1778
ENERGY: 900000 3.8914 4.5732 4.1756 0.0000 -10504.9475 1418.5127 0.0000 0.0000 1761.5412 -7312.2535 304.3598 -9073.7947 -7321.6734 301.4248 218.6366 260.1523 29655.3898 -64.8847 -1.1906
ENERGY: 1200000 6.5867 7.1479 8.6337 0.0000 -10427.1530 1369.5402 0.0000 0.0000 1778.2497 -7256.9949 307.2467 -9035.2445 -7307.6003 302.8871 -162.5851 -62.6421 29746.4577 -14.6838 44.6721
ENERGY: 1500000 8.2040 6.3244 7.4951 0.0000 -10365.6576 1350.5366 0.0000 0.0000 1763.8963 -7229.2013 304.7667 -8993.0976 -7309.8041 303.0305 -357.9850 -364.2759 30423.7607 -31.9628 24.2810
TCL: Running FEP window  19: Lambda1 0.9000000000000002 Lambda2 0.9500000000000003 [dLambda 0.050000000000000044]
TCL: Setting parameter firsttimestep to 0
TCL: Setting parameter alchLambda to 0.9000000000000002
Info: NONBONDED TABLE R-SQUARED SPACING: 0.0625
Info: NONBONDED TABLE SIZE: 705 POINTS
TCL: Setting parameter alchLambda2 to 0.9500000000000003
Info: NONBONDED TABLE R-SQUARED SPACING: 0.0625
Info: NONBONDED TABLE SIZE: 705 POINTS
TCL: Running for 1500000 steps
ETITLE: TS BOND ANGLE DIHED IMPRP ELECT VDW BOUNDARY MISC KINETIC TOTAL TEMP POTENTIAL TOTALAVG TEMPAVG PRESSURE GPRESSURE VOLUME PRESSAVG GPRESSAVG
ENERGY: 0 8.2040 6.3244 7.4951 0.0000 -10366.3851 1349.7114 0.0000 0.0000 1763.0204 -7231.6298 304.6153 -8994.6502 -7231.6298 304.6153 -443.5726 -359.0137 30423.7607 -443.5726 -359.0137
ENERGY: 300000 4.4747 5.6861 3.5985 0.0000 -10467.2716 1374.2708 0.0000 0.0000 1685.9301 -7393.3113 291.2957 -9079.2414 -7339.5863 298.2464 -611.8741 -529.2783 30198.4360 -155.4891 -81.5760
ENERGY: 600000 2.9834 4.5675 7.9867 0.0000 -10602.1283 1480.1407 0.0000 0.0000 1735.3970 -7371.0530 299.8426 -9106.4500 -7337.4368 299.4247 615.8584 698.1264 29819.9870 119.5967 189.3122
ENERGY: 900000 5.5552 4.7777 5.3775 0.0000 -10511.9392 1398.8730 0.0000 0.0000 1708.3782 -7388.9776 295.1742 -9097.3558 -7340.1591 299.4398 -201.4346 -148.5697 29861.3947 -61.9530 10.0592
ENERGY: 1200000 4.3824 4.6066 7.9050 0.0000 -10487.1022 1420.8859 0.0000 0.0000 1744.9308 -7304.3914 301.4898 -9049.3223 -7339.6969 300.2392 -142.2857 -94.3726 30370.7897 -203.2597 -139.9683
ENERGY: 1500000 7.5200 7.1527 7.6796 0.0000 -10374.6619 1363.4205 0.0000 0.0000 1798.5537 -7190.3354 310.7548 -8988.8891 -7324.2431 301.1364 -273.4743 -212.7812 30147.9994 -172.1330 -107.4225
TCL: Running FEP window  20: Lambda1 0.9500000000000003 Lambda2 1.0    [dLambda 0.04999999999999971]
TCL: Setting parameter firsttimestep to 0
TCL: Setting parameter alchLambda to 0.9500000000000003
Info: NONBONDED TABLE R-SQUARED SPACING: 0.0625
Info: NONBONDED TABLE SIZE: 705 POINTS
TCL: Setting parameter alchLambda2 to 1.0
Info: NONBONDED TABLE R-SQUARED SPACING: 0.0625
Info: NONBONDED TABLE SIZE: 705 POINTS
TCL: Running for 1500000 steps
ETITLE: TS BOND ANGLE DIHED IMPRP ELECT VDW BOUNDARY MISC KINETIC TOTAL TEMP POTENTIAL TOTALAVG TEMPAVG PRESSURE GPRESSURE VOLUME PRESSAVG GPRESSAVG
ENERGY: 0 7.5200 7.1527 7.6796 0.0000 -10375.4395 1362.7387 0.0000 0.0000 1797.7462 -7192.6023 310.6153 -8990.3485 -7192.6023 310.6153 -285.2481 -203.9505 30147.9994 -285.2481 -203.9505
ENERGY: 300000 4.7061 9.2867 4.4692 0.0000 -10416.2348 1390.0066 0.0000 0.0000 1808.0542 -7199.7120 312.3963 -9007.7662 -7296.7503 303.3204 -8.4234 37.9356 30162.3602 -133.6991 -40.1543
ENERGY: 600000 8.0152 5.8716 6.2930 0.0000 -10329.2587 1259.3157 0.0000 0.0000 1708.6048 -7341.1586 295.2134 -9049.7633 -7294.7291 302.8053 -1323.2050 -1203.1249 29853.0012 -234.4731 -161.3655
ENERGY: 900000 4.5145 3.9253 7.1411 0.0000 -10450.0912 1364.3785 0.0000 0.0000 1781.4496 -7288.6823 307.7996 -9070.1319 -7304.2314 302.5687 -318.8938 -221.7221 29621.0768 -97.1861 -20.7915
ENERGY: 1200000 5.2436 4.9293 7.6909 0.0000 -10560.5232 1408.9443 0.0000 0.0000 1748.5576 -7385.1575 302.1165 -9133.7151 -7318.9072 302.1900 -40.5654 -52.8850 29684.8027 16.7649 77.6387
ENERGY: 1500000 5.2680 4.8089 6.7382 0.0000 -10567.2155 1435.3057 0.0000 0.0000 1754.5718 -7360.5230 303.1556 -9115.0948 -7333.2552 301.4116 66.7027 149.7847 29775.9129 -11.3544 49.7193
TCL: Exiting due to exit command.
