Info: SIMULATION PARAMETERS:
Info: TIMESTEP               2
Info: NUMBER OF STEPS        0
Info: STEPS PER CYCLE        10
Info: PERIODIC CELL BASIS 1  31.6517 0 0
Info: PERIODIC CELL BASIS 2  0 30.1177 0
Info: PERIODIC CELL BASIS 3  0 0 32.0763
Info: PERIODIC CELL CENTER   0 0 0
Info: WRAPPING WATERS AROUND PERIODIC BOUNDARIES ON OUTPUT.
Info: WRAPPING ALL CLUSTERS AROUND PERIODIC BOUNDARIES ON OUTPUT.
Info: FIRST LDB TIMESTEP     50
Info: LAST LDB TIMESTEP     -1
Info: HOM BACKGROUND SCALING 1
Info: PME BACKGROUND SCALING 1
Info: MIN ATOMS PER PATCH    40
Info: EMPTY PATCH LOAD       40 ATOMS
Info: VELOCITY FILE          mobley_1571523_equil.vel
Info: CENTER OF MASS MOVING INITIALLY? NO
Info: DIELECTRIC             1
Info: EXCLUDE                SCALED ONE-FOUR
Info: 1-4 ELECTROSTATICS SCALED BY 0.833333
Info: MODIFIED 1-4 VDW PARAMETERS WILL BE USED
Info: DCD FILENAME           mobley_1571523_prod.dcd
Info: DCD FREQUENCY          100000
Info: DCD FIRST STEP         100000
Info: DCD FILE WILL CONTAIN UNIT CELL DATA
Info: XST FILENAME           mobley_1571523_prod.xst
Info: XST FREQUENCY          100000
Info: NO VELOCITY DCD OUTPUT
Info: NO FORCE DCD OUTPUT
Info: OUTPUT FILENAME        mobley_1571523_prod
Info: BINARY OUTPUT FILES WILL BE USED
Info: RESTART FILENAME       mobley_1571523_prod.restart
Info: RESTART FREQUENCY      100000
Info: BINARY RESTART FILES WILL BE USED
Info: CUTOFF                 9
Info: PAIRLIST DISTANCE      11
Info: PAIRLIST SHRINK RATE   0.01
Info: PAIRLIST GROW RATE     0.01
Info: PAIRLIST TRIGGER       0.3
Info: PAIRLISTS PER CYCLE    2
Info: PAIRLISTS ENABLED
Info: MARGIN                 2
Info: HYDROGEN GROUP CUTOFF  2.5
Info: PATCH DIMENSION        15.5
Info: ENERGY OUTPUT STEPS    100000
Info: ENERGY EVALUATION STEPS    100000
Info: OUTPUT ENERGY PRECISION 4
Info: CROSSTERM ENERGY INCLUDED IN DIHEDRAL
Info: TIMING OUTPUT STEPS    1000000
Info: PRESSURE OUTPUT STEPS  100000
Info: ALCHEMICAL FEP ON
Info: FEP CURRENT LAMBDA VALUE     1
Info: FEP COMPARISON LAMBDA VALUE  0.95
Info: FEP INTRA-ALCHEMICAL NON-BONDED INTERACTIONS WILL BE RETAINED
Info: FEP INTRA-ALCHEMICAL BONDED INTERACTIONS WILL BE RETAINED
Info: FEP VDW SHIFTING COEFFICIENT 5
Info: FEP ELEC. ACTIVE FOR ANNIHILATED PARTICLES BETWEEN LAMBDA = 0 AND LAMBDA = 0.5
Info: FEP ELEC. ACTIVE FOR EXNIHILATED PARTICLES BETWEEN LAMBDA = 0.5 AND LAMBDA = 1
Info: FEP VDW ACTIVE FOR ANNIHILATED PARTICLES BETWEEN LAMBDA = 0 AND LAMBDA = 1
Info: FEP VDW ACTIVE FOR EXNIHILATED PARTICLES BETWEEN LAMBDA = 0 AND LAMBDA = 1
Info: FEP BOND ACTIVE FOR ANNIHILATED PARTICLES BETWEEN LAMBDA = 1 AND LAMBDA = 1
Info: FEP BOND ACTIVE FOR EXNIHILATED PARTICLES BETWEEN LAMBDA = 0 AND LAMBDA = 0
Info: LANGEVIN DYNAMICS ACTIVE
Info: LANGEVIN TEMPERATURE   300
Info: LANGEVIN USING BBK INTEGRATOR
Info: LANGEVIN DAMPING COEFFICIENT IS 1 INVERSE PS
Info: LANGEVIN DYNAMICS APPLIED TO HYDROGENS
Info: LANGEVIN PISTON PRESSURE CONTROL ACTIVE
Info:        TARGET PRESSURE IS 1.01325 BAR
Info:     OSCILLATION PERIOD IS 50 FS
Info:             DECAY TIME IS 25 FS
Info:     PISTON TEMPERATURE IS 300 K
Info:       PRESSURE CONTROL IS GROUP-BASED
Info:    INITIAL STRAIN RATE IS -9.61541e-05 -9.61541e-05 -9.61541e-05
Info:       CELL FLUCTUATION IS ISOTROPIC
Info: PARTICLE MESH EWALD (PME) ACTIVE
Info: PME TOLERANCE               1e-06
Info: PME EWALD COEFFICIENT       0.348832
Info: PME INTERPOLATION ORDER     4
Info: PME GRID DIMENSIONS         32 32 36
Info: PME MAXIMUM GRID SPACING    1
Info: PME CALCULATION WILL BE PERFORMED ON GPU
Info: FULL ELECTROSTATIC EVALUATION FREQUENCY      2
Info: USING VERLET I (r-RESPA) MTS SCHEME.
Info: C1 SPLITTING OF LONG RANGE ELECTROSTATICS
Info: PLACING ATOMS IN PATCHES BY HYDROGEN GROUPS
Info: RIGID BONDS TO HYDROGEN : ALL
Info:         ERROR TOLERANCE : 1e-08
Info:          MAX ITERATIONS : 100
Info: RIGID WATER USING SETTLE ALGORITHM
Info: RANDOM NUMBER SEED     1743619249
Info: USE HYDROGEN BONDS?    NO
Info: Using AMBER format force field!
Info: AMBER PARM FILE        mobley_1571523.prmtop
Info: COORDINATE PDB         mobley_1571523.pdb
Info: Exclusions will be read from PARM file!
Info: SCNB (VDW SCALING)     2
Info: USING ARITHMETIC MEAN TO COMBINE L-J SIGMA PARAMETERS
Info: BINARY COORDINATES     mobley_1571523_equil.coor
Info: SUMMARY OF PARAMETERS:
Info: 8 BONDS
Info: 7 ANGLES
Info:   7 HARMONIC
Info:   0 COSINE-BASED
Info: 4 DIHEDRAL
Info: 0 IMPROPER
Info: 0 CROSSTERM
Info: 0 VDW
Info: 28 VDW_PAIRS
Info: 0 NBTHOLE_PAIRS
Info: To read alchdata from file: mobley_1571523.pdb
Info: To read alchflag data from column: 5
Info: STRUCTURE SUMMARY:
Info: 2992 ATOMS
Info: 2992 BONDS
Info: 31 ANGLES
Info: 44 DIHEDRALS
Info: 0 IMPROPERS
Info: 0 CROSSTERMS
Info: 3058 EXCLUSIONS
Info: 2983 RIGID BONDS
Info: ALCH: 0 ATOMS TO DISAPPEAR IN FINAL STATE
Info: ALCH: 19 ATOMS TO APPEAR IN FINAL STATE
Info: 5993 DEGREES OF FREEDOM
Info: 1000 HYDROGEN GROUPS
Info: 4 ATOMS IN LARGEST HYDROGEN GROUP
Info: 1000 MIGRATION GROUPS
Info: 4 ATOMS IN LARGEST MIGRATION GROUP
Info: TOTAL MASS = 17976 amu
Info: TOTAL CHARGE = -0.000100031 e
Info: MASS DENSITY = 0.976227 g/cm^3
Info: ATOM DENSITY = 0.0978498 atoms/A^3
Info: ADDED 0 IMPLICIT EXCLUSIONS
Info: NONBONDED TABLE R-SQUARED SPACING: 0.0625
Info: NONBONDED TABLE SIZE: 705 POINTS
Info: REMOVING COM VELOCITY -0.156091 -0.144686 0.116544
Info: Use 3D box decompostion in PME FFT.
Info: Updated CUDA force table with 4096 elements.
Info: Updated CUDA LJ table with 7 x 7 elements.
Info: Found 17 unique exclusion lists needing 44 bytes
TCL: Running for 1500000 steps
ETITLE: TS BOND ANGLE DIHED IMPRP ELECT VDW BOUNDARY MISC KINETIC TOTAL TEMP POTENTIAL TOTALAVG TEMPAVG PRESSURE GPRESSURE VOLUME PRESSAVG GPRESSAVG
ENERGY: 0 1.8311 7.6266 3.1959 0.0000 -11104.9355 1606.5608 0.0000 0.0000 1756.6011 -7729.1200 294.9981 -9485.7210 -7729.1200 294.9981 733.9736 823.2092 30577.4852 733.9736 823.2092
ENERGY: 300000 1.6562 8.3795 3.8843 0.0000 -10789.5942 1391.6626 0.0000 0.0000 1770.6650 -7613.3465 297.3600 -9384.0115 -7657.8979 297.2493 -658.5916 -543.7070 30821.7810 -275.2349 -192.7970
ENERGY: 600000 2.8959 6.8787 4.4153 0.0000 -10672.0056 1402.0906 0.0000 0.0000 1771.5110 -7484.2142 297.5020 -9255.7252 -7614.6522 298.0893 -291.1176 -269.5383 31563.6928 -245.4239 -179.9770
ENERGY: 900000 2.6654 5.5569 3.6784 0.0000 -10846.4040 1415.5792 0.0000 0.0000 1770.4394 -7648.4847 297.3221 -9418.9240 -7601.1181 297.9234 -272.1911 -174.6274 30624.7896 -243.1054 -176.5098
ENERGY: 1200000 0.6816 5.8455 1.8522 0.0000 -11014.1325 1555.7358 0.0000 0.0000 1807.9314 -7642.0860 303.6184 -9450.0174 -7598.9328 299.5889 1016.9728 1055.2078 30222.3963 -132.5682 -70.7880
ENERGY: 1500000 2.5693 4.6456 3.7920 0.0000 -10747.7000 1443.4993 0.0000 0.0000 1768.5120 -7524.6818 296.9984 -9293.1938 -7595.1754 299.5173 54.1768 109.7010 31316.4640 -165.9755 -100.4832
TCL: Running FEP window   2: Lambda1 0.95   Lambda2 0.8999999999999999 [dLambda -0.050000000000000044]
TCL: Setting parameter firsttimestep to 0
TCL: Setting parameter alchLambda to 0.95
Info: NONBONDED TABLE R-SQUARED SPACING: 0.0625
Info: NONBONDED TABLE SIZE: 705 POINTS
TCL: Setting parameter alchLambda2 to 0.8999999999999999
Info: NONBONDED TABLE R-SQUARED SPACING: 0.0625
Info: NONBONDED TABLE SIZE: 705 POINTS
TCL: Running for 1500000 steps
ETITLE: TS BOND ANGLE DIHED IMPRP ELECT VDW BOUNDARY MISC KINETIC TOTAL TEMP POTENTIAL TOTALAVG TEMPAVG PRESSURE GPRESSURE VOLUME PRESSAVG GPRESSAVG
ENERGY: 0 2.5693 4.6456 3.7920 0.0000 -10746.0202 1442.5221 0.0000 0.0000 1767.6366 -7524.8545 296.8514 -9292.4912 -7524.8545 296.8514 -1.1779 89.0188 31316.4640 -1.1779 89.0188
ENERGY: 300000 6.0061 7.1766 3.8724 0.0000 -10801.9041 1415.2166 0.0000 0.0000 1774.9543 -7594.6782 298.0803 -9369.6325 -7571.4432 299.4048 -673.1371 -569.0882 31037.5779 -387.0103 -307.0671
ENERGY: 600000 4.5611 8.8414 1.5608 0.0000 -10877.0443 1506.8886 0.0000 0.0000 1786.8134 -7568.3789 300.0719 -9355.1923 -7565.1803 299.5810 331.8615 354.3032 31173.8085 -293.2283 -224.4758
ENERGY: 900000 3.0266 8.3853 4.9453 0.0000 -10939.4924 1516.4254 0.0000 0.0000 1817.1133 -7589.5965 305.1604 -9406.7098 -7572.9506 299.6165 263.7519 351.6798 30955.9700 -271.0382 -203.7502
ENERGY: 1200000 1.3577 12.3608 0.7718 0.0000 -10818.3152 1443.7531 0.0000 0.0000 1838.0359 -7522.0359 308.6740 -9360.0719 -7564.8283 300.3653 163.4548 228.0444 30564.8695 -151.3036 -87.8892
ENERGY: 1500000 1.7430 7.5534 1.1838 0.0000 -10823.9122 1434.2663 0.0000 0.0000 1812.0100 -7567.1558 304.3033 -9379.1658 -7572.6236 300.2656 -170.0510 -63.8554 31055.3491 -103.9240 -43.4144
TCL: Running FEP window   3: Lambda1 0.8999999999999999 Lambda2 0.8499999999999999 [dLambda -0.050000000000000044]
TCL: Setting parameter firsttimestep to 0
TCL: Setting parameter alchLambda to 0.8999999999999999
Info: NONBONDED TABLE R-SQUARED SPACING: 0.0625
Info: NONBONDED TABLE SIZE: 705 POINTS
TCL: Setting parameter alchLambda2 to 0.8499999999999999
Info: NONBONDED TABLE R-SQUARED SPACING: 0.0625
Info: NONBONDED TABLE SIZE: 705 POINTS
TCL: Running for 1500000 steps
ETITLE: TS BOND ANGLE DIHED IMPRP ELECT VDW BOUNDARY MISC KINETIC TOTAL TEMP POTENTIAL TOTALAVG TEMPAVG PRESSURE GPRESSURE VOLUME PRESSAVG GPRESSAVG
ENERGY: 0 1.7430 7.5534 1.1838 0.0000 -10822.9274 1434.2321 0.0000 0.0000 1811.1222 -7567.0929 304.1542 -9378.2151 -7567.0929 304.1542 -156.7565 -76.5703 31055.3491 -156.7565 -76.5703
ENERGY: 300000 2.5599 3.8914 3.5989 0.0000 -10715.1651 1404.8161 0.0000 0.0000 1768.6646 -7531.6343 297.0240 -9300.2988 -7545.0037 303.3801 -280.9302 -188.3112 30998.1169 -170.4781 -84.6071
ENERGY: 600000 0.9423 8.3969 4.4754 0.0000 -10949.6386 1513.2099 0.0000 0.0000 1820.0248 -7602.5894 305.6493 -9422.6141 -7572.2295 302.8312 384.2787 458.5592 30446.7863 2.9390 94.8958
ENERGY: 900000 7.4455 6.1189 4.3295 0.0000 -10956.4467 1512.2324 0.0000 0.0000 1807.3474 -7618.9730 303.5203 -9426.3204 -7562.4825 303.1321 205.3510 229.8350 30933.3981 -104.5962 -27.4385
ENERGY: 1200000 4.6745 5.3514 4.1831 0.0000 -10735.5291 1388.2692 0.0000 0.0000 1806.0274 -7527.0236 303.2986 -9333.0510 -7561.1531 302.5502 -311.3349 -272.4675 30733.7014 21.8584 96.4494
ENERGY: 1500000 2.7640 6.2743 2.6301 0.0000 -10732.3826 1377.3430 0.0000 0.0000 1763.6365 -7579.7348 296.1796 -9343.3713 -7576.6463 300.9722 -730.6354 -652.7427 31175.2286 -20.3503 52.2765
TCL: Running FEP window   4: Lambda1 0.8499999999999999 Lambda2 0.7999999999999998 [dLambda -0.050000000000000044]
TCL: Setting parameter firsttimestep to 0
TCL: Setting parameter alchLambda to 0.8499999999999999
Info: NONBONDED TABLE R-SQUARED SPACING: 0.0625
Info: NONBONDED TABLE SIZE: 705 POINTS
TCL: Setting parameter alchLambda2 to 0.7999999999999998
Info: NONBONDED TABLE R-SQUARED SPACING: 0.0625
Info: NONBONDED TABLE SIZE: 705 POINTS
TCL: Running for 1500000 steps
ETITLE: TS BOND ANGLE DIHED IMPRP ELECT VDW BOUNDARY MISC KINETIC TOTAL TEMP POTENTIAL TOTALAVG TEMPAVG PRESSURE GPRESSURE VOLUME PRESSAVG GPRESSAVG
ENERGY: 0 2.7640 6.2743 2.6301 0.0000 -10730.3725 1377.3165 0.0000 0.0000 1762.7480 -7578.6397 296.0304 -9341.3877 -7578.6397 296.0304 -734.7263 -655.4552 31175.2286 -734.7263 -655.4552
ENERGY: 300000 2.2852 8.2354 2.1766 0.0000 -10892.6698 1499.3288 0.0000 0.0000 1779.4402 -7601.2036 298.8337 -9380.6438 -7580.4198 300.5026 168.0901 305.0733 30726.2182 8.3715 86.4257
ENERGY: 600000 5.2217 6.0148 6.0368 0.0000 -10704.5510 1380.9458 0.0000 0.0000 1770.3441 -7535.9879 297.3061 -9306.3320 -7573.1512 298.2906 -491.0218 -415.2231 30730.6909 -118.0640 -56.9102
ENERGY: 900000 1.8256 6.0842 1.9687 0.0000 -10785.5527 1439.1314 0.0000 0.0000 1744.1646 -7592.3780 292.9096 -9336.5427 -7575.9434 299.6697 166.8942 180.2698 30604.2300 28.6940 84.0710
ENERGY: 1200000 4.0034 6.8047 1.6316 0.0000 -10919.5005 1506.6952 0.0000 0.0000 1829.0285 -7571.3371 307.1614 -9400.3656 -7569.2918 300.3392 281.2815 369.2685 30629.7089 73.9480 130.8172
ENERGY: 1500000 2.5461 8.4564 4.6333 0.0000 -10717.4587 1352.4498 0.0000 0.0000 1798.2062 -7551.1669 301.9852 -9349.3731 -7566.9672 300.6338 -887.9750 -830.3134 30885.4838 52.8228 111.3314
TCL: Running FEP window   5: Lambda1 0.7999999999999998 Lambda2 0.7499999999999998 [dLambda -0.050000000000000044]
TCL: Setting parameter firsttimestep to 0
TCL: Setting parameter alchLambda to 0.7999999999999998
Info: NONBONDED TABLE R-SQUARED SPACING: 0.0625
Info: NONBONDED TABLE SIZE: 705 POINTS
TCL: Setting parameter alchLambda2 to 0.7499999999999998
Info: NONBONDED TABLE R-SQUARED SPACING: 0.0625
Info: NONBONDED TABLE SIZE: 705 POINTS
TCL: Running for 1500000 steps
ETITLE: TS BOND ANGLE DIHED IMPRP ELECT VDW BOUNDARY MISC KINETIC TOTAL TEMP POTENTIAL TOTALAVG TEMPAVG PRESSURE GPRESSURE VOLUME PRESSAVG GPRESSAVG
ENERGY: 0 2.5461 8.4564 4.6333 0.0000 -10716.1179 1352.6100 0.0000 0.0000 1797.2923 -7550.5799 301.8317 -9347.8722 -7550.5799 301.8317 -915.1909 -832.0583 30885.4838 -915.1909 -832.0583
ENERGY: 300000 2.7993 8.6641 2.9802 0.0000 -10911.4394 1523.6501 0.0000 0.0000 1718.4986 -7654.8472 288.5993 -9373.3457 -7624.5943 297.2657 413.8851 484.5459 30878.2376 -34.4831 16.6694
ENERGY: 600000 0.3539 5.7591 2.5613 0.0000 -10739.6102 1435.4399 0.0000 0.0000 1759.4335 -7536.0626 295.4738 -9295.4961 -7613.4905 298.2047 -223.4322 -164.3842 31502.8119 -9.0091 44.8667
ENERGY: 900000 2.7446 5.6711 1.6242 0.0000 -10824.9811 1463.4943 0.0000 0.0000 1791.2200 -7560.2269 300.8119 -9351.4469 -7604.3983 300.5912 81.4614 185.5192 30873.4009 -144.9874 -88.4245
ENERGY: 1200000 2.8632 8.1325 4.1518 0.0000 -10829.8355 1487.1967 0.0000 0.0000 1775.6811 -7551.8102 298.2024 -9327.4913 -7594.6655 299.8729 255.8610 328.7002 31076.3026 -140.5870 -77.8539
ENERGY: 1500000 1.4835 5.5976 1.0636 0.0000 -10728.1768 1399.0199 0.0000 0.0000 1815.0935 -7505.9188 304.8212 -9321.0123 -7588.7812 300.2983 -405.8260 -335.7480 31013.4506 -164.4639 -98.5549
TCL: Running FEP window   6: Lambda1 0.7499999999999998 Lambda2 0.6999999999999997 [dLambda -0.050000000000000044]
TCL: Setting parameter firsttimestep to 0
TCL: Setting parameter alchLambda to 0.7499999999999998
Info: NONBONDED TABLE R-SQUARED SPACING: 0.0625
Info: NONBONDED TABLE SIZE: 705 POINTS
TCL: Setting parameter alchLambda2 to 0.6999999999999997
Info: NONBONDED TABLE R-SQUARED SPACING: 0.0625
Info: NONBONDED TABLE SIZE: 705 POINTS
TCL: Running for 1500000 steps
ETITLE: TS BOND ANGLE DIHED IMPRP ELECT VDW BOUNDARY MISC KINETIC TOTAL TEMP POTENTIAL TOTALAVG TEMPAVG PRESSURE GPRESSURE VOLUME PRESSAVG GPRESSAVG
ENERGY: 0 1.4835 5.5976 1.0636 0.0000 -10727.3065 1399.5051 0.0000 0.0000 1814.1948 -7505.4619 304.6702 -9319.6567 -7505.4619 304.6702 -426.1492 -334.9419 31013.4506 -426.1492 -334.9419
ENERGY: 300000 3.7800 5.7415 6.9192 0.0000 -10730.3502 1412.8909 0.0000 0.0000 1759.0517 -7541.9670 295.4097 -9301.0187 -7560.2665 300.8470 -420.4440 -353.9316 30848.6021 -501.3008 -438.0893
ENERGY: 600000 3.2249 4.8989 2.8021 0.0000 -10790.6469 1444.5179 0.0000 0.0000 1864.8115 -7470.3916 313.1706 -9335.2031 -7561.1343 304.2936 62.8227 120.6071 30815.3094 -251.4423 -201.8931
ENERGY: 900000 3.1398 6.3979 2.5678 0.0000 -10871.2224 1468.9120 0.0000 0.0000 1808.6301 -7581.5748 303.7357 -9390.2049 -7580.4824 303.1293 -38.2132 47.4863 30710.0192 -134.6821 -73.0536
ENERGY: 1200000 4.8524 5.1165 4.6355 0.0000 -11068.2190 1565.2573 0.0000 0.0000 1809.5152 -7678.8422 303.8843 -9488.3573 -7590.7276 302.6623 719.9061 716.8693 30544.2484 -16.0546 43.9004
ENERGY: 1500000 5.3388 6.8926 1.7503 0.0000 -10909.1775 1542.3009 0.0000 0.0000 1836.9577 -7515.9373 308.4930 -9352.8950 -7588.4315 303.3797 653.9293 785.4025 30623.4853 4.3448 72.6497
TCL: Running FEP window   7: Lambda1 0.6999999999999997 Lambda2 0.6499999999999997 [dLambda -0.050000000000000044]
TCL: Setting parameter firsttimestep to 0
TCL: Setting parameter alchLambda to 0.6999999999999997
Info: NONBONDED TABLE R-SQUARED SPACING: 0.0625
Info: NONBONDED TABLE SIZE: 705 POINTS
TCL: Setting parameter alchLambda2 to 0.6499999999999997
Info: NONBONDED TABLE R-SQUARED SPACING: 0.0625
Info: NONBONDED TABLE SIZE: 705 POINTS
TCL: Running for 1500000 steps
ETITLE: TS BOND ANGLE DIHED IMPRP ELECT VDW BOUNDARY MISC KINETIC TOTAL TEMP POTENTIAL TOTALAVG TEMPAVG PRESSURE GPRESSURE VOLUME PRESSAVG GPRESSAVG
ENERGY: 0 5.3388 6.8926 1.7503 0.0000 -10907.3550 1541.5600 0.0000 0.0000 1836.0714 -7515.7419 308.3441 -9351.8133 -7515.7419 308.3441 681.8509 774.0896 30623.4853 681.8509 774.0896
ENERGY: 300000 4.2827 6.8455 2.0380 0.0000 -10812.7602 1409.2080 0.0000 0.0000 1795.6593 -7594.7267 301.5574 -9390.3860 -7611.5358 302.4667 -482.6226 -427.1645 30558.7142 118.3841 199.2038
ENERGY: 600000 1.3563 5.3888 2.8401 0.0000 -10919.4107 1482.1787 0.0000 0.0000 1790.9146 -7636.7323 300.7606 -9427.6469 -7616.0541 301.6416 -72.7919 37.9490 30772.3530 46.8919 127.7030
ENERGY: 900000 2.1711 4.5438 4.1472 0.0000 -10878.5947 1514.2391 0.0000 0.0000 1753.0465 -7600.4470 294.4012 -9353.4935 -7591.5310 301.5266 389.2316 433.8205 30869.5623 -191.9061 -124.4963
ENERGY: 1200000 2.6121 8.0552 2.4717 0.0000 -10812.3804 1416.7862 0.0000 0.0000 1817.1383 -7565.3168 305.1646 -9382.4551 -7605.7675 299.9589 -243.4535 -143.2245 30739.8258 -226.3560 -156.2205
ENERGY: 1500000 0.8663 8.3194 5.6157 0.0000 -10617.3918 1359.8429 0.0000 0.0000 1781.3871 -7461.3604 299.1606 -9242.7475 -7599.3120 299.4235 -528.1641 -442.5610 31180.9810 -246.3942 -178.4818
TCL: Running FEP window   8: Lambda1 0.6499999999999997 Lambda2 0.5999999999999996 [dLambda -0.050000000000000044]
TCL: Setting parameter firsttimestep to 0
TCL: Setting parameter alchLambda to 0.6499999999999997
Info: NONBONDED TABLE R-SQUARED SPACING: 0.0625
Info: NONBONDED TABLE SIZE: 705 POINTS
TCL: Setting parameter alchLambda2 to 0.5999999999999996
Info: NONBONDED TABLE R-SQUARED SPACING: 0.0625
Info: NONBONDED TABLE SIZE: 705 POINTS
TCL: Running for 1500000 steps
ETITLE: TS BOND ANGLE DIHED IMPRP ELECT VDW BOUNDARY MISC KINETIC TOTAL TEMP POTENTIAL TOTALAVG TEMPAVG PRESSURE GPRESSURE VOLUME PRESSAVG GPRESSAVG
ENERGY: 0 0.8663 8.3194 5.6157 0.0000 -10615.5336 1359.3760 0.0000 0.0000 1780.5273 -7460.8289 299.0162 -9241.3562 -7460.8289 299.0162 -532.8793 -452.2978 31180.9810 -532.8793 -452.2978
ENERGY: 300000 2.1849 4.5353 6.8324 0.0000 -10864.0341 1459.9881 0.0000 0.0000 1826.2671 -7564.2263 306.6976 -9390.4934 -7567.0950 304.0852 -0.6602 59.6064 30703.5696 -34.9222 33.4360
ENERGY: 600000 2.3798 6.2923 1.8300 0.0000 -10821.1827 1447.7751 0.0000 0.0000 1853.8528 -7509.0525 311.3303 -9362.9054 -7571.6753 303.8108 -146.1157 -85.7784 31244.6524 -64.5103 -0.3254
ENERGY: 900000 1.9090 10.2884 2.7145 0.0000 -10782.2373 1415.6270 0.0000 0.0000 1813.0353 -7538.6631 304.4755 -9351.6984 -7561.3972 302.1978 -477.4700 -394.4201 31276.6810 -255.3899 -185.2004
ENERGY: 1200000 2.5086 9.0476 5.0105 0.0000 -10768.8214 1446.4415 0.0000 0.0000 1817.0342 -7488.7790 305.1471 -9305.8132 -7561.0458 301.9287 -95.6540 -24.4001 30837.9578 -174.9539 -108.2446
ENERGY: 1500000 3.3548 6.9958 2.7578 0.0000 -10807.0077 1454.5301 0.0000 0.0000 1812.4513 -7526.9179 304.3774 -9339.3692 -7560.4284 301.6394 -86.2576 3.1146 30708.3554 -146.9790 -80.0347
TCL: Running FEP window   9: Lambda1 0.5999999999999996 Lambda2 0.5499999999999996 [dLambda -0.050000000000000044]
TCL: Setting parameter firsttimestep to 0
TCL: Setting parameter alchLambda to 0.5999999999999996
Info: NONBONDED TABLE R-SQUARED SPACING: 0.0625
Info: NONBONDED TABLE SIZE: 705 POINTS
TCL: Setting parameter alchLambda2 to 0.5499999999999996
Info: NONBONDED TABLE R-SQUARED SPACING: 0.0625
Info: NONBONDED TABLE SIZE: 705 POINTS
TCL: Running for 1500000 steps
ETITLE: TS BOND ANGLE DIHED IMPRP ELECT VDW BOUNDARY MISC KINETIC TOTAL TEMP POTENTIAL TOTALAVG TEMPAVG PRESSURE GPRESSURE VOLUME PRESSAVG GPRESSAVG
ENERGY: 0 3.3548 6.9958 2.7578 0.0000 -10805.5169 1454.5420 0.0000 0.0000 1811.5776 -7526.2889 304.2307 -9337.8664 -7526.2889 304.2307 -77.2916 -1.4194 30708.3554 -77.2916 -1.4194
ENERGY: 300000 2.8019 10.3661 7.5155 0.0000 -10840.4943 1450.9726 0.0000 0.0000 1762.6087 -7606.2295 296.0070 -9368.8381 -7560.4580 299.1483 -199.1788 -106.8459 30560.9919 -88.6350 -30.5835
ENERGY: 600000 3.5457 5.8297 1.6489 0.0000 -10904.2189 1485.5638 0.0000 0.0000 1761.8493 -7645.7816 295.8795 -9407.6308 -7563.1783 300.9714 409.9767 453.9791 30084.1292 162.0081 210.8411
ENERGY: 900000 1.2427 5.6227 2.0969 0.0000 -10824.3492 1445.2438 0.0000 0.0000 1807.3866 -7562.7565 303.5269 -9370.1431 -7569.5168 300.1118 -106.4686 -44.6083 30787.3608 4.2374 58.2379
ENERGY: 1200000 2.7774 5.4229 2.1014 0.0000 -10771.6156 1415.9343 0.0000 0.0000 1807.7720 -7537.6076 303.5916 -9345.3796 -7578.3652 298.8261 -77.1215 -4.3695 30320.5798 60.0428 111.6025
ENERGY: 1500000 4.6221 9.2985 1.6884 0.0000 -10825.9405 1456.3255 0.0000 0.0000 1765.1982 -7588.8078 296.4419 -9354.0059 -7580.0395 298.0041 42.2206 115.4404 30389.9722 30.4578 84.6445
TCL: Running FEP window  10: Lambda1 0.5499999999999996 Lambda2 0.4999999999999996 [dLambda -0.04999999999999999]
TCL: Setting parameter firsttimestep to 0
TCL: Setting parameter alchLambda to 0.5499999999999996
Info: NONBONDED TABLE R-SQUARED SPACING: 0.0625
Info: NONBONDED TABLE SIZE: 705 POINTS
TCL: Setting parameter alchLambda2 to 0.4999999999999996
Info: NONBONDED TABLE R-SQUARED SPACING: 0.0625
Info: NONBONDED TABLE SIZE: 705 POINTS
TCL: Running for 1500000 steps
ETITLE: TS BOND ANGLE DIHED IMPRP ELECT VDW BOUNDARY MISC KINETIC TOTAL TEMP POTENTIAL TOTALAVG TEMPAVG PRESSURE GPRESSURE VOLUME PRESSAVG GPRESSAVG
ENERGY: 0 4.6221 9.2985 1.6884 0.0000 -10824.8194 1456.1267 0.0000 0.0000 1764.2802 -7588.8033 296.2877 -9353.0836 -7588.8033 296.2877 12.2690 107.3781 30389.9722 12.2690 107.3781
ENERGY: 300000 7.5402 8.4338 2.4316 0.0000 -10818.7827 1450.3274 0.0000 0.0000 1825.5831 -7524.4666 306.5827 -9350.0497 -7565.0311 299.9847 114.0281 184.3306 30782.3126 -157.0027 -63.7574
ENERGY: 600000 5.7042 4.7627 3.8631 0.0000 -10894.9701 1538.4721 0.0000 0.0000 1827.8363 -7514.3316 306.9611 -9342.1678 -7575.8384 301.0237 441.9628 469.5994 30994.3427 -108.7974 -32.5737
ENERGY: 900000 3.3883 8.4692 2.4568 0.0000 -10901.4288 1464.9987 0.0000 0.0000 1761.7480 -7660.3678 295.8625 -9422.1158 -7592.3835 299.2778 132.4670 157.1128 30317.4864 -80.5229 -15.9085
ENERGY: 1200000 3.3331 8.8160 1.6099 0.0000 -10773.1232 1347.7603 0.0000 0.0000 1775.1371 -7636.4669 298.1110 -9411.6039 -7592.2722 298.8645 -1063.6934 -999.8298 30830.1819 -126.5687 -60.1632
ENERGY: 1500000 3.3886 6.0663 2.3566 0.0000 -10837.6429 1429.8068 0.0000 0.0000 1778.5324 -7617.4923 298.6812 -9396.0247 -7595.3671 298.7682 -444.8321 -382.2337 31040.8821 -143.6695 -75.2067
TCL: Running FEP window  11: Lambda1 0.4999999999999996 Lambda2 0.4499999999999996 [dLambda -0.04999999999999999]
TCL: Setting parameter firsttimestep to 0
TCL: Setting parameter alchLambda to 0.4999999999999996
Info: NONBONDED TABLE R-SQUARED SPACING: 0.0625
Info: NONBONDED TABLE SIZE: 705 POINTS
TCL: Setting parameter alchLambda2 to 0.4499999999999996
Info: NONBONDED TABLE R-SQUARED SPACING: 0.0625
Info: NONBONDED TABLE SIZE: 705 POINTS
TCL: Running for 1500000 steps
ETITLE: TS BOND ANGLE DIHED IMPRP ELECT VDW BOUNDARY MISC KINETIC TOTAL TEMP POTENTIAL TOTALAVG TEMPAVG PRESSURE GPRESSURE VOLUME PRESSAVG GPRESSAVG
ENERGY: 0 3.3886 6.0663 2.3566 0.0000 -10837.9550 1430.5324 0.0000 0.0000 1777.7212 -7617.8898 298.5450 -9395.6110 -7617.8898 298.5450 -457.6996 -380.7257 31040.8821 -457.6996 -380.7257
ENERGY: 300000 1.9859 6.1938 1.6901 0.0000 -10958.9863 1538.1590 0.0000 0.0000 1746.1937 -7664.7639 293.2503 -9410.9575 -7626.1012 299.1099 421.9009 431.9567 30904.5828 51.1298 101.9387
ENERGY: 600000 1.9310 7.7120 2.6245 0.0000 -10777.6005 1383.1093 0.0000 0.0000 1802.8242 -7579.3994 302.7607 -9382.2237 -7597.3086 301.1680 -712.8098 -603.3691 31132.7620 5.4228 59.4824
ENERGY: 900000 1.7402 8.2798 4.1505 0.0000 -10886.9301 1476.3519 0.0000 0.0000 1748.7612 -7647.6464 293.6815 -9396.4076 -7596.1639 300.2346 -98.8259 27.4953 30762.3918 1.0530 58.5701
ENERGY: 1200000 4.0784 8.1401 2.9409 0.0000 -10906.6296 1518.4855 0.0000 0.0000 1763.5363 -7609.4484 296.1628 -9372.9847 -7595.7029 298.8756 638.8283 616.8920 30096.4834 64.7342 117.7578
ENERGY: 1500000 3.4704 5.7129 5.0842 0.0000 -10735.2634 1398.0727 0.0000 0.0000 1793.6832 -7529.2400 301.2256 -9322.9232 -7593.1220 299.4333 -455.1662 -340.1003 30795.0831 84.0528 137.8332
TCL: Running FEP window  12: Lambda1 0.4499999999999996 Lambda2 0.39999999999999963 [dLambda -0.04999999999999999]
TCL: Setting parameter firsttimestep to 0
TCL: Setting parameter alchLambda to 0.4499999999999996
Info: NONBONDED TABLE R-SQUARED SPACING: 0.0625
Info: NONBONDED TABLE SIZE: 705 POINTS
TCL: Setting parameter alchLambda2 to 0.39999999999999963
Info: NONBONDED TABLE R-SQUARED SPACING: 0.0625
Info: NONBONDED TABLE SIZE: 705 POINTS
TCL: Running for 1500000 steps
ETITLE: TS BOND ANGLE DIHED IMPRP ELECT VDW BOUNDARY MISC KINETIC TOTAL TEMP POTENTIAL TOTALAVG TEMPAVG PRESSURE GPRESSURE VOLUME PRESSAVG GPRESSAVG
ENERGY: 0 3.4704 5.7129 5.0842 0.0000 -10735.2634 1397.6068 0.0000 0.0000 1792.8187 -7530.5704 301.0804 -9323.3891 -7530.5704 301.0804 -439.3422 -351.9259 30795.0831 -439.3422 -351.9259
ENERGY: 300000 5.7492 9.0696 6.7267 0.0000 -10903.5336 1484.0968 0.0000 0.0000 1817.4728 -7580.4185 305.2207 -9397.8913 -7537.0595 304.2876 3.7672 96.3268 30762.1489 -260.4578 -191.3449
ENERGY: 600000 2.9345 6.3252 3.5623 0.0000 -10840.0224 1504.2591 0.0000 0.0000 1796.9585 -7525.9828 301.7756 -9322.9412 -7567.1155 302.0350 150.9717 228.4687 31083.7542 -139.4399 -60.4329
ENERGY: 900000 1.7464 6.2080 1.3385 0.0000 -10920.1437 1496.2533 0.0000 0.0000 1741.4613 -7673.1362 292.4556 -9414.5975 -7577.7291 301.3758 551.1471 540.5927 30218.0717 -92.8020 -24.0871
ENERGY: 1200000 2.6654 2.4408 3.6799 0.0000 -10884.3877 1498.9325 0.0000 0.0000 1785.9079 -7590.7611 299.9198 -9376.6690 -7574.7844 300.8537 494.7349 575.3742 30555.3760 6.8086 68.1218
ENERGY: 1500000 7.8658 6.3355 2.8184 0.0000 -10810.1591 1454.7151 0.0000 0.0000 1789.6242 -7548.8001 300.5439 -9338.4243 -7574.1842 301.6614 200.6777 180.0223 30622.3924 63.7239 121.2433
TCL: Running FEP window  13: Lambda1 0.39999999999999963 Lambda2 0.34999999999999964 [dLambda -0.04999999999999999]
TCL: Setting parameter firsttimestep to 0
TCL: Setting parameter alchLambda to 0.39999999999999963
Info: NONBONDED TABLE R-SQUARED SPACING: 0.0625
Info: NONBONDED TABLE SIZE: 705 POINTS
TCL: Setting parameter alchLambda2 to 0.34999999999999964
Info: NONBONDED TABLE R-SQUARED SPACING: 0.0625
Info: NONBONDED TABLE SIZE: 705 POINTS
TCL: Running for 1500000 steps
ETITLE: TS BOND ANGLE DIHED IMPRP ELECT VDW BOUNDARY MISC KINETIC TOTAL TEMP POTENTIAL TOTALAVG TEMPAVG PRESSURE GPRESSURE VOLUME PRESSAVG GPRESSAVG
ENERGY: 0 7.8658 6.3355 2.8184 0.0000 -10810.1566 1454.9686 0.0000 0.0000 1788.7086 -7549.4596 300.3902 -9338.1682 -7549.4596 300.3902 103.5861 173.6605 30622.3924 103.5861 173.6605
ENERGY: 300000 0.5421 7.3190 1.7935 0.0000 -10895.2591 1521.0418 0.0000 0.0000 1737.6523 -7626.9104 291.8159 -9364.5626 -7603.5973 295.3024 482.4568 493.2639 30895.1826 -75.6121 -15.1832
ENERGY: 600000 6.5491 7.8489 5.3104 0.0000 -10854.0451 1455.8871 0.0000 0.0000 1765.7769 -7612.6726 296.5391 -9378.4495 -7619.7045 295.9682 -17.5876 -9.0602 30518.5698 -47.4121 18.1667
ENERGY: 900000 3.2222 8.0967 4.2621 0.0000 -10816.1890 1435.8298 0.0000 0.0000 1765.4644 -7599.3138 296.4866 -9364.7782 -7606.5213 297.8607 -249.4217 -174.7039 31021.1395 -58.4698 9.2578
ENERGY: 1200000 1.8681 5.4686 1.4174 0.0000 -11013.8101 1568.0443 0.0000 0.0000 1753.9017 -7683.1099 294.5448 -9437.0116 -7614.3465 297.5447 717.9229 805.3333 30395.2950 -114.6543 -49.6243
ENERGY: 1500000 3.1871 4.1527 1.5425 0.0000 -10829.8560 1443.7569 0.0000 0.0000 1754.7820 -7622.4347 294.6926 -9377.2167 -7606.6574 297.4760 -250.3836 -193.5545 30660.3802 -57.8854 9.1388
TCL: Running FEP window  14: Lambda1 0.34999999999999964 Lambda2 0.29999999999999966 [dLambda -0.04999999999999999]
TCL: Setting parameter firsttimestep to 0
TCL: Setting parameter alchLambda to 0.34999999999999964
Info: NONBONDED TABLE R-SQUARED SPACING: 0.0625
Info: NONBONDED TABLE SIZE: 705 POINTS
TCL: Setting parameter alchLambda2 to 0.29999999999999966
Info: NONBONDED TABLE R-SQUARED SPACING: 0.0625
Info: NONBONDED TABLE SIZE: 705 POINTS
TCL: Running for 1500000 steps
ETITLE: TS BOND ANGLE DIHED IMPRP ELECT VDW BOUNDARY MISC KINETIC TOTAL TEMP POTENTIAL TOTALAVG TEMPAVG PRESSURE GPRESSURE VOLUME PRESSAVG GPRESSAVG
ENERGY: 0 3.1871 4.1527 1.5425 0.0000 -10829.8547 1443.7451 0.0000 0.0000 1753.9053 -7623.3220 294.5454 -9377.2273 -7623.3220 294.5454 -279.6760 -197.0839 30660.3802 -279.6760 -197.0839
ENERGY: 300000 0.6152 8.5332 2.2019 0.0000 -10736.9157 1421.5259 0.0000 0.0000 1740.0700 -7563.9696 292.2219 -9304.0396 -7584.5498 298.1313 -127.3619 -23.8949 30742.0164 -96.5639 -42.6727
ENERGY: 600000 1.6479 8.1996 2.8264 0.0000 -10874.8967 1502.4043 0.0000 0.0000 1794.8969 -7564.9216 301.4294 -9359.8185 -7583.9671 298.9731 444.3557 520.7564 30585.1404 -154.4204 -81.7986
ENERGY: 900000 2.7289 8.5402 1.8511 0.0000 -10834.3721 1486.5133 0.0000 0.0000 1790.3637 -7544.3748 300.6681 -9334.7385 -7568.2006 299.7336 153.2019 226.0049 30661.4374 -95.8857 -24.4481
ENERGY: 1200000 3.5576 5.3077 2.7508 0.0000 -10713.6267 1375.3932 0.0000 0.0000 1813.7679 -7512.8495 304.5985 -9326.6174 -7554.2578 300.3721 -556.9365 -547.1659 30650.3874 -178.4897 -115.5600
ENERGY: 1500000 2.3593 4.3239 2.2121 0.0000 -10823.1021 1485.8906 0.0000 0.0000 1746.7219 -7581.5943 293.3390 -9328.3162 -7558.4571 299.4109 232.3705 287.9457 30880.3855 -60.0174 5.4575
TCL: Running FEP window  15: Lambda1 0.29999999999999966 Lambda2 0.24999999999999967 [dLambda -0.04999999999999999]
TCL: Setting parameter firsttimestep to 0
TCL: Setting parameter alchLambda to 0.29999999999999966
Info: NONBONDED TABLE R-SQUARED SPACING: 0.0625
Info: NONBONDED TABLE SIZE: 705 POINTS
TCL: Setting parameter alchLambda2 to 0.24999999999999967
Info: NONBONDED TABLE R-SQUARED SPACING: 0.0625
Info: NONBONDED TABLE SIZE: 705 POINTS
TCL: Running for 1500000 steps
ETITLE: TS BOND ANGLE DIHED IMPRP ELECT VDW BOUNDARY MISC KINETIC TOTAL TEMP POTENTIAL TOTALAVG TEMPAVG PRESSURE GPRESSURE VOLUME PRESSAVG GPRESSAVG
ENERGY: 0 2.3593 4.3239 2.2121 0.0000 -10823.1021 1486.0027 0.0000 0.0000 1745.7819 -7582.4223 293.1812 -9328.2042 -7582.4223 293.1812 206.7905 285.0929 30880.3855 206.7905 285.0929
ENERGY: 300000 3.3621 5.9851 3.7401 0.0000 -10789.0581 1413.8505 0.0000 0.0000 1786.9299 -7575.1904 300.0915 -9362.1204 -7564.1601 301.0892 -143.1844 -88.9780 30555.8792 0.6744 74.0379
ENERGY: 600000 3.1871 6.6134 2.1049 0.0000 -10761.6930 1421.2690 0.0000 0.0000 1784.4359 -7544.0827 299.6726 -9328.5186 -7575.0189 301.4339 -357.5490 -288.8003 30860.7257 -81.0542 -23.0093
ENERGY: 900000 1.6723 7.7968 5.3664 0.0000 -10748.9478 1402.7252 0.0000 0.0000 1806.4572 -7524.9301 303.3708 -9331.3872 -7581.0625 302.3044 -235.9950 -112.6865 30665.5691 -91.3457 -21.7344
ENERGY: 1200000 5.8959 3.6329 3.6645 0.0000 -10718.3628 1434.9750 0.0000 0.0000 1817.3949 -7452.7996 305.2077 -9270.1945 -7565.1899 302.7385 -80.5265 -64.0066 30909.1808 -165.6248 -102.4186
ENERGY: 1500000 1.5098 5.3614 1.3275 0.0000 -10914.6169 1497.8850 0.0000 0.0000 1803.3315 -7605.2018 302.8459 -9408.5333 -7575.4108 302.5002 285.9700 343.8902 30717.3973 -138.5247 -75.5085
TCL: Running FEP window  16: Lambda1 0.24999999999999967 Lambda2 0.19999999999999968 [dLambda -0.04999999999999999]
TCL: Setting parameter firsttimestep to 0
TCL: Setting parameter alchLambda to 0.24999999999999967
Info: NONBONDED TABLE R-SQUARED SPACING: 0.0625
Info: NONBONDED TABLE SIZE: 705 POINTS
TCL: Setting parameter alchLambda2 to 0.19999999999999968
Info: NONBONDED TABLE R-SQUARED SPACING: 0.0625
Info: NONBONDED TABLE SIZE: 705 POINTS
TCL: Running for 1500000 steps
ETITLE: TS BOND ANGLE DIHED IMPRP ELECT VDW BOUNDARY MISC KINETIC TOTAL TEMP POTENTIAL TOTALAVG TEMPAVG PRESSURE GPRESSURE VOLUME PRESSAVG GPRESSAVG
ENERGY: 0 1.5098 5.3614 1.3275 0.0000 -10914.6166 1498.2783 0.0000 0.0000 1802.4473 -7605.6923 302.6974 -9408.1396 -7605.6923 302.6974 254.0975 342.2466 30717.3973 254.0975 342.2466
ENERGY: 300000 3.9537 5.4511 1.7600 0.0000 -10847.0785 1486.8916 0.0000 0.0000 1764.9911 -7584.0311 296.4071 -9349.0222 -7598.1300 298.9916 245.8041 296.1546 30640.3714 47.6790 107.4167
ENERGY: 600000 4.7861 6.4870 3.2465 0.0000 -10847.1212 1410.5102 0.0000 0.0000 1761.5020 -7660.5894 295.8212 -9422.0915 -7605.9647 300.3498 -766.5416 -745.8815 31077.4702 -142.1527 -93.8857
ENERGY: 900000 4.0215 6.3611 4.1348 0.0000 -10893.6557 1516.6273 0.0000 0.0000 1774.5943 -7587.9166 298.0199 -9362.5109 -7592.8935 299.9437 452.9345 571.2608 30297.3626 -174.9286 -125.4308
ENERGY: 1200000 5.8265 6.1989 1.8211 0.0000 -10891.8220 1465.3785 0.0000 0.0000 1739.8646 -7672.7324 292.1874 -9412.5970 -7588.9814 299.2667 -81.2812 -5.9809 30632.6654 -144.5324 -98.3463
ENERGY: 1500000 3.1248 6.5284 3.4917 0.0000 -10890.4286 1489.5708 0.0000 0.0000 1788.4027 -7599.3102 300.3388 -9387.7129 -7588.0651 299.3774 165.0024 210.0955 30522.1659 -106.2450 -59.2578
TCL: Running FEP window  17: Lambda1 0.19999999999999968 Lambda2 0.1499999999999997 [dLambda -0.04999999999999999]
TCL: Setting parameter firsttimestep to 0
TCL: Setting parameter alchLambda to 0.19999999999999968
Info: NONBONDED TABLE R-SQUARED SPACING: 0.0625
Info: NONBONDED TABLE SIZE: 705 POINTS
TCL: Setting parameter alchLambda2 to 0.1499999999999997
Info: NONBONDED TABLE R-SQUARED SPACING: 0.0625
Info: NONBONDED TABLE SIZE: 705 POINTS
TCL: Running for 1500000 steps
ETITLE: TS BOND ANGLE DIHED IMPRP ELECT VDW BOUNDARY MISC KINETIC TOTAL TEMP POTENTIAL TOTALAVG TEMPAVG PRESSURE GPRESSURE VOLUME PRESSAVG GPRESSAVG
ENERGY: 0 3.1248 6.5284 3.4917 0.0000 -10890.4303 1489.1930 0.0000 0.0000 1787.4843 -7600.6082 300.1846 -9388.0925 -7600.6082 300.1846 123.7263 204.6078 30522.1659 123.7263 204.6078
ENERGY: 300000 3.8832 4.5628 4.0555 0.0000 -10750.1913 1410.0381 0.0000 0.0000 1841.1150 -7486.5367 309.1911 -9327.6517 -7576.7288 300.5168 -419.3952 -338.3556 31015.1712 -84.8426 -23.2690
ENERGY: 600000 3.8920 9.2956 3.5126 0.0000 -10819.3477 1460.4359 0.0000 0.0000 1810.1651 -7532.0464 303.9935 -9342.2115 -7558.6972 301.4378 208.8783 326.7747 30237.1813 16.8973 91.7056
ENERGY: 900000 6.4203 5.0092 2.1939 0.0000 -10726.8174 1433.7935 0.0000 0.0000 1829.3056 -7450.0950 307.2079 -9279.4005 -7551.6307 302.1582 100.5318 169.9750 30660.1820 -19.2082 58.6347
ENERGY: 1200000 6.3669 5.9192 1.6081 0.0000 -10768.4720 1460.3632 0.0000 0.0000 1808.9293 -7485.2853 303.7860 -9294.2146 -7543.5451 301.8071 278.9431 381.8018 30184.5048 -1.5990 74.0489
ENERGY: 1500000 3.2587 9.2151 3.2530 0.0000 -10837.8333 1485.7541 0.0000 0.0000 1800.9183 -7535.4341 302.4406 -9336.3524 -7542.7629 301.8794 232.2113 291.7188 30615.6924 -64.3434 7.4254
TCL: Running FEP window  18: Lambda1 0.1499999999999997 Lambda2 0.09999999999999969 [dLambda -0.05 ]
TCL: Setting parameter firsttimestep to 0
TCL: Setting parameter alchLambda to 0.1499999999999997
Info: NONBONDED TABLE R-SQUARED SPACING: 0.0625
Info: NONBONDED TABLE SIZE: 705 POINTS
TCL: Setting parameter alchLambda2 to 0.09999999999999969
Info: NONBONDED TABLE R-SQUARED SPACING: 0.0625
Info: NONBONDED TABLE SIZE: 705 POINTS
TCL: Running for 1500000 steps
ETITLE: TS BOND ANGLE DIHED IMPRP ELECT VDW BOUNDARY MISC KINETIC TOTAL TEMP POTENTIAL TOTALAVG TEMPAVG PRESSURE GPRESSURE VOLUME PRESSAVG GPRESSAVG
ENERGY: 0 3.2587 9.2151 3.2530 0.0000 -10837.8327 1485.1587 0.0000 0.0000 1800.0391 -7536.9081 302.2930 -9336.9472 -7536.9081 302.2930 214.1139 284.5865 30615.6924 214.1139 284.5865
ENERGY: 300000 1.6494 3.7767 3.7846 0.0000 -10770.6446 1428.2739 0.0000 0.0000 1778.8727 -7554.2873 298.7384 -9333.1600 -7540.5915 302.0358 -358.5062 -305.5592 31338.1777 -208.5823 -145.7741
ENERGY: 600000 2.4703 5.3968 1.7443 0.0000 -10771.6690 1429.6149 0.0000 0.0000 1795.2395 -7537.2033 301.4869 -9332.4427 -7550.0874 301.9291 -69.0598 -13.4963 30521.6197 -301.3129 -248.8658
ENERGY: 900000 3.2346 9.9010 5.0930 0.0000 -10773.6434 1406.7190 0.0000 0.0000 1869.0394 -7479.6565 313.8807 -9348.6958 -7537.4433 303.7121 -414.2531 -364.3130 30820.4533 -200.6601 -139.4314
ENERGY: 1200000 5.7613 4.1980 4.1060 0.0000 -10807.1691 1407.4140 0.0000 0.0000 1803.4820 -7582.2078 302.8711 -9385.6897 -7551.1460 303.2343 -654.6960 -611.7031 31175.5955 -303.0026 -243.4764
ENERGY: 1500000 2.2702 3.9530 2.9907 0.0000 -10898.9546 1467.8057 0.0000 0.0000 1789.9163 -7632.0186 300.5930 -9421.9349 -7555.7249 303.2260 -0.6391 92.5926 30394.8623 -255.4262 -196.3561
TCL: Running FEP window  19: Lambda1 0.09999999999999969 Lambda2 0.049999999999999684 [dLambda -0.05 ]
TCL: Setting parameter firsttimestep to 0
TCL: Setting parameter alchLambda to 0.09999999999999969
Info: NONBONDED TABLE R-SQUARED SPACING: 0.0625
Info: NONBONDED TABLE SIZE: 705 POINTS
TCL: Setting parameter alchLambda2 to 0.049999999999999684
Info: NONBONDED TABLE R-SQUARED SPACING: 0.0625
Info: NONBONDED TABLE SIZE: 705 POINTS
TCL: Running for 1500000 steps
ETITLE: TS BOND ANGLE DIHED IMPRP ELECT VDW BOUNDARY MISC KINETIC TOTAL TEMP POTENTIAL TOTALAVG TEMPAVG PRESSURE GPRESSURE VOLUME PRESSAVG GPRESSAVG
ENERGY: 0 2.2702 3.9530 2.9907 0.0000 -10898.9553 1468.3571 0.0000 0.0000 1789.0647 -7632.3195 300.4500 -9421.3842 -7632.3195 300.4500 17.5104 91.2189 30394.8623 17.5104 91.2189
ENERGY: 300000 3.2022 4.0472 1.9957 0.0000 -10931.2802 1500.9770 0.0000 0.0000 1864.1702 -7556.8878 313.0629 -9421.0580 -7606.5736 301.2798 282.6934 356.0737 30275.6131 7.2015 78.1291
ENERGY: 600000 3.9667 5.6692 8.0161 0.0000 -10910.5920 1532.0749 0.0000 0.0000 1772.3279 -7588.5374 297.6392 -9360.8653 -7610.5670 299.5489 383.0224 444.9717 30884.4643 187.7210 266.9912
ENERGY: 900000 2.5126 4.1884 3.4014 0.0000 -10821.5049 1451.3760 0.0000 0.0000 1821.4162 -7538.6102 305.8830 -9360.0264 -7596.0948 300.7159 -7.6669 16.1818 30805.3779 44.9174 116.4181
ENERGY: 1200000 2.9088 9.3479 4.3673 0.0000 -10758.5555 1394.1214 0.0000 0.0000 1782.0494 -7565.7607 299.2718 -9347.8101 -7599.4139 299.5228 -743.0965 -708.3957 30966.1446 -98.8532 -29.5304
ENERGY: 1500000 3.1340 7.1267 4.2596 0.0000 -10839.1027 1466.3447 0.0000 0.0000 1771.4166 -7586.8211 297.4862 -9358.2377 -7589.3695 299.6735 -177.6095 -91.5044 30974.0804 -91.5722 -23.8648
TCL: Running FEP window  20: Lambda1 0.049999999999999684 Lambda2 0.0    [dLambda -0.049999999999999684]
TCL: Setting parameter firsttimestep to 0
TCL: Setting parameter alchLambda to 0.049999999999999684
Info: NONBONDED TABLE R-SQUARED SPACING: 0.0625
Info: NONBONDED TABLE SIZE: 705 POINTS
TCL: Setting parameter alchLambda2 to 0.0
Info: NONBONDED TABLE R-SQUARED SPACING: 0.0625
Info: NONBONDED TABLE SIZE: 705 POINTS
TCL: Running for 1500000 steps
ETITLE: TS BOND ANGLE DIHED IMPRP ELECT VDW BOUNDARY MISC KINETIC TOTAL TEMP POTENTIAL TOTALAVG TEMPAVG PRESSURE GPRESSURE VOLUME PRESSAVG GPRESSAVG
ENERGY: 0 3.1340 7.1266 4.2596 0.0000 -10839.1017 1465.6051 0.0000 0.0000 1770.4919 -7588.4844 297.3309 -9358.9764 -7588.4844 297.3309 -185.9695 -98.7853 30974.0804 -185.9695 -98.7853
ENERGY: 300000 3.5947 6.1643 2.3371 0.0000 -10728.9195 1431.6197 0.0000 0.0000 1789.5237 -7495.6800 300.5270 -9285.2037 -7536.9621 300.2132 -201.8854 -90.0299 30622.2439 4.2837 64.2377
ENERGY: 600000 2.5456 4.3719 2.3177 0.0000 -10782.7809 1422.0786 0.0000 0.0000 1758.5429 -7592.9241 295.3242 -9351.4671 -7587.4274 299.1181 -402.6639 -331.4673 30506.4816 -142.6464 -84.6617
ENERGY: 900000 1.9915 5.0342 2.4854 0.0000 -10830.5743 1447.3221 0.0000 0.0000 1804.6421 -7569.0990 303.0660 -9373.7411 -7601.6754 299.1399 -191.9455 -85.9536 30536.0446 -95.9993 -31.5566
ENERGY: 1200000 1.2754 8.6984 4.9168 0.0000 -10880.2175 1480.0283 0.0000 0.0000 1842.7680 -7542.5305 309.4687 -9385.2986 -7600.0239 299.5328 123.4429 205.3954 30455.0218 -59.6942 4.2121
ENERGY: 1500000 2.2383 7.2677 2.7465 0.0000 -10898.0460 1521.3735 0.0000 0.0000 1752.7044 -7611.7157 294.3437 -9364.4200 -7598.0913 299.1104 369.5907 450.1804 30628.5000 20.9331 83.2726
TCL: Exiting due to exit command.
