Info: SIMULATION PARAMETERS:
Info: TIMESTEP               2
Info: NUMBER OF STEPS        0
Info: STEPS PER CYCLE        10
Info: PERIODIC CELL BASIS 1  32.7756 0 0
Info: PERIODIC CELL BASIS 2  0 32.4481 0
Info: PERIODIC CELL BASIS 3  0 0 28.117
Info: PERIODIC CELL CENTER   0 0 0
Info: WRAPPING WATERS AROUND PERIODIC BOUNDARIES ON OUTPUT.
Info: WRAPPING ALL CLUSTERS AROUND PERIODIC BOUNDARIES ON OUTPUT.
Info: FIRST LDB TIMESTEP     50
Info: LAST LDB TIMESTEP     -1
Info: HOM BACKGROUND SCALING 1
Info: PME BACKGROUND SCALING 1
Info: MIN ATOMS PER PATCH    40
Info: EMPTY PATCH LOAD       40 ATOMS
Info: VELOCITY FILE          mobley_547634_equil.vel
Info: CENTER OF MASS MOVING INITIALLY? NO
Info: DIELECTRIC             1
Info: EXCLUDE                SCALED ONE-FOUR
Info: 1-4 ELECTROSTATICS SCALED BY 0.833333
Info: MODIFIED 1-4 VDW PARAMETERS WILL BE USED
Info: DCD FILENAME           mobley_547634_prod.dcd
Info: DCD FREQUENCY          100000
Info: DCD FIRST STEP         100000
Info: DCD FILE WILL CONTAIN UNIT CELL DATA
Info: XST FILENAME           mobley_547634_prod.xst
Info: XST FREQUENCY          100000
Info: NO VELOCITY DCD OUTPUT
Info: NO FORCE DCD OUTPUT
Info: OUTPUT FILENAME        mobley_547634_prod
Info: BINARY OUTPUT FILES WILL BE USED
Info: RESTART FILENAME       mobley_547634_prod.restart
Info: RESTART FREQUENCY      100000
Info: BINARY RESTART FILES WILL BE USED
Info: CUTOFF                 9
Info: PAIRLIST DISTANCE      11
Info: PAIRLIST SHRINK RATE   0.01
Info: PAIRLIST GROW RATE     0.01
Info: PAIRLIST TRIGGER       0.3
Info: PAIRLISTS PER CYCLE    2
Info: PAIRLISTS ENABLED
Info: MARGIN                 2
Info: HYDROGEN GROUP CUTOFF  2.5
Info: PATCH DIMENSION        15.5
Info: ENERGY OUTPUT STEPS    100000
Info: ENERGY EVALUATION STEPS    100000
Info: OUTPUT ENERGY PRECISION 4
Info: CROSSTERM ENERGY INCLUDED IN DIHEDRAL
Info: TIMING OUTPUT STEPS    1000000
Info: PRESSURE OUTPUT STEPS  100000
Info: ALCHEMICAL FEP ON
Info: FEP CURRENT LAMBDA VALUE     1
Info: FEP COMPARISON LAMBDA VALUE  0.95
Info: FEP INTRA-ALCHEMICAL NON-BONDED INTERACTIONS WILL BE RETAINED
Info: FEP INTRA-ALCHEMICAL BONDED INTERACTIONS WILL BE RETAINED
Info: FEP VDW SHIFTING COEFFICIENT 5
Info: FEP ELEC. ACTIVE FOR ANNIHILATED PARTICLES BETWEEN LAMBDA = 0 AND LAMBDA = 0.5
Info: FEP ELEC. ACTIVE FOR EXNIHILATED PARTICLES BETWEEN LAMBDA = 0.5 AND LAMBDA = 1
Info: FEP VDW ACTIVE FOR ANNIHILATED PARTICLES BETWEEN LAMBDA = 0 AND LAMBDA = 1
Info: FEP VDW ACTIVE FOR EXNIHILATED PARTICLES BETWEEN LAMBDA = 0 AND LAMBDA = 1
Info: FEP BOND ACTIVE FOR ANNIHILATED PARTICLES BETWEEN LAMBDA = 1 AND LAMBDA = 1
Info: FEP BOND ACTIVE FOR EXNIHILATED PARTICLES BETWEEN LAMBDA = 0 AND LAMBDA = 0
Info: LANGEVIN DYNAMICS ACTIVE
Info: LANGEVIN TEMPERATURE   300
Info: LANGEVIN USING BBK INTEGRATOR
Info: LANGEVIN DAMPING COEFFICIENT IS 1 INVERSE PS
Info: LANGEVIN DYNAMICS APPLIED TO HYDROGENS
Info: LANGEVIN PISTON PRESSURE CONTROL ACTIVE
Info:        TARGET PRESSURE IS 1.01325 BAR
Info:     OSCILLATION PERIOD IS 50 FS
Info:             DECAY TIME IS 25 FS
Info:     PISTON TEMPERATURE IS 300 K
Info:       PRESSURE CONTROL IS GROUP-BASED
Info:    INITIAL STRAIN RATE IS 0.0005563 0.0005563 0.0005563
Info:       CELL FLUCTUATION IS ISOTROPIC
Info: PARTICLE MESH EWALD (PME) ACTIVE
Info: PME TOLERANCE               1e-06
Info: PME EWALD COEFFICIENT       0.348832
Info: PME INTERPOLATION ORDER     4
Info: PME GRID DIMENSIONS         36 36 32
Info: PME MAXIMUM GRID SPACING    1
Info: PME CALCULATION WILL BE PERFORMED ON GPU
Info: FULL ELECTROSTATIC EVALUATION FREQUENCY      2
Info: USING VERLET I (r-RESPA) MTS SCHEME.
Info: C1 SPLITTING OF LONG RANGE ELECTROSTATICS
Info: PLACING ATOMS IN PATCHES BY HYDROGEN GROUPS
Info: RIGID BONDS TO HYDROGEN : ALL
Info:         ERROR TOLERANCE : 1e-08
Info:          MAX ITERATIONS : 100
Info: RIGID WATER USING SETTLE ALGORITHM
Info: RANDOM NUMBER SEED     1743651579
Info: USE HYDROGEN BONDS?    NO
Info: Using AMBER format force field!
Info: AMBER PARM FILE        mobley_547634.prmtop
Info: COORDINATE PDB         mobley_547634.pdb
Info: Exclusions will be read from PARM file!
Info: SCNB (VDW SCALING)     2
Info: USING ARITHMETIC MEAN TO COMBINE L-J SIGMA PARAMETERS
Info: BINARY COORDINATES     mobley_547634_equil.coor
Info: SUMMARY OF PARAMETERS:
Info: 6 BONDS
Info: 5 ANGLES
Info:   5 HARMONIC
Info:   0 COSINE-BASED
Info: 3 DIHEDRAL
Info: 0 IMPROPER
Info: 0 CROSSTERM
Info: 0 VDW
Info: 21 VDW_PAIRS
Info: 0 NBTHOLE_PAIRS
Info: To read alchdata from file: mobley_547634.pdb
Info: To read alchflag data from column: 5
Info: STRUCTURE SUMMARY:
Info: 2949 ATOMS
Info: 2950 BONDS
Info: 42 ANGLES
Info: 66 DIHEDRALS
Info: 0 IMPROPERS
Info: 0 CROSSTERMS
Info: 3042 EXCLUSIONS
Info: 2937 RIGID BONDS
Info: ALCH: 0 ATOMS TO DISAPPEAR IN FINAL STATE
Info: ALCH: 24 ATOMS TO APPEAR IN FINAL STATE
Info: 5910 DEGREES OF FREEDOM
Info: 987 HYDROGEN GROUPS
Info: 4 ATOMS IN LARGEST HYDROGEN GROUP
Info: 987 MIGRATION GROUPS
Info: 4 ATOMS IN LARGEST MIGRATION GROUP
Info: TOTAL MASS = 17721.8 amu
Info: TOTAL CHARGE = -0.000100054 e
Info: MASS DENSITY = 0.984143 g/cm^3
Info: ATOM DENSITY = 0.0986201 atoms/A^3
Info: ADDED 0 IMPLICIT EXCLUSIONS
Info: NONBONDED TABLE R-SQUARED SPACING: 0.0625
Info: NONBONDED TABLE SIZE: 705 POINTS
Info: REDUCING NUMBER OF PATCHES TO IMPROVE LOAD BALANCE
Info: REMOVING COM VELOCITY -0.109051 -0.276926 -0.0213257
Info: Use 3D box decompostion in PME FFT.
Info: Updated CUDA force table with 4096 elements.
Info: Updated CUDA LJ table with 6 x 6 elements.
Info: Found 23 unique exclusion lists needing 68 bytes
TCL: Running for 1500000 steps
ETITLE: TS BOND ANGLE DIHED IMPRP ELECT VDW BOUNDARY MISC KINETIC TOTAL TEMP POTENTIAL TOTALAVG TEMPAVG PRESSURE GPRESSURE VOLUME PRESSAVG GPRESSAVG
ENERGY: 0 3.5023 4.7852 5.6046 0.0000 -10686.8155 1370.0928 0.0000 0.0000 1752.6103 -7550.2204 298.4615 -9302.8306 -7550.2204 298.4615 -417.7271 -331.0861 29902.6151 -417.7271 -331.0861
ENERGY: 300000 6.1576 7.4031 3.6421 0.0000 -10632.9373 1386.4567 0.0000 0.0000 1798.8827 -7430.3951 306.3414 -9229.2778 -7452.9446 305.6620 -38.0941 -16.0571 29677.1578 316.2912 369.1915
ENERGY: 600000 3.3887 10.9336 5.5663 0.0000 -10718.8489 1415.0722 0.0000 0.0000 1788.0220 -7495.8661 304.4919 -9283.8881 -7469.7599 302.1966 31.0414 102.5956 29811.9561 223.7042 271.1872
ENERGY: 900000 2.8693 5.3123 3.6334 0.0000 -10632.5107 1409.4085 0.0000 0.0000 1741.3523 -7469.9348 296.5443 -9211.2871 -7459.2413 301.1566 -165.0160 -205.5605 30704.1335 26.5082 68.1354
ENERGY: 1200000 2.2499 7.1890 5.8273 0.0000 -10623.8557 1419.2766 0.0000 0.0000 1846.5420 -7342.7709 314.4576 -9189.3129 -7453.6414 302.2559 12.9466 85.3605 30587.0948 1.9413 50.6712
ENERGY: 1500000 3.2333 6.1335 1.6119 0.0000 -10572.4549 1406.4063 0.0000 0.0000 1802.3410 -7352.7288 306.9304 -9155.0698 -7447.6868 302.2448 -43.7738 65.0168 30448.5819 59.0567 113.9763
TCL: Running FEP window   2: Lambda1 0.95   Lambda2 0.8999999999999999 [dLambda -0.050000000000000044]
TCL: Setting parameter firsttimestep to 0
TCL: Setting parameter alchLambda to 0.95
Info: NONBONDED TABLE R-SQUARED SPACING: 0.0625
Info: NONBONDED TABLE SIZE: 705 POINTS
TCL: Setting parameter alchLambda2 to 0.8999999999999999
Info: NONBONDED TABLE R-SQUARED SPACING: 0.0625
Info: NONBONDED TABLE SIZE: 705 POINTS
TCL: Running for 1500000 steps
ETITLE: TS BOND ANGLE DIHED IMPRP ELECT VDW BOUNDARY MISC KINETIC TOTAL TEMP POTENTIAL TOTALAVG TEMPAVG PRESSURE GPRESSURE VOLUME PRESSAVG GPRESSAVG
ENERGY: 0 3.2333 6.1335 1.6119 0.0000 -10571.1798 1406.9332 0.0000 0.0000 1801.4630 -7351.8049 306.7808 -9153.2679 -7351.8049 306.7808 -37.0423 57.5463 30448.5819 -37.0423 57.5463
ENERGY: 300000 9.6300 5.1298 6.7974 0.0000 -10701.2391 1450.6945 0.0000 0.0000 1759.9916 -7468.9959 299.7185 -9228.9875 -7422.9111 303.1469 -94.7722 -86.1585 30349.6149 247.7662 303.5352
ENERGY: 600000 3.3377 5.8001 3.7282 0.0000 -10726.2758 1476.1129 0.0000 0.0000 1763.1527 -7474.1442 300.2568 -9237.2969 -7438.3962 300.7497 492.4356 496.5337 29833.8811 175.4346 226.3408
ENERGY: 900000 4.1786 10.1794 2.4276 0.0000 -10760.6103 1458.7987 0.0000 0.0000 1761.4598 -7523.5663 299.9685 -9285.0261 -7442.1221 300.2251 33.3653 136.2853 30110.8735 -15.8538 46.6904
ENERGY: 1200000 4.2238 6.8341 6.0065 0.0000 -10719.3136 1499.6683 0.0000 0.0000 1781.0939 -7421.4870 303.3121 -9202.5809 -7444.7950 301.0010 635.6926 707.0771 30097.9316 16.0950 72.5062
ENERGY: 1500000 2.5425 11.8000 3.4666 0.0000 -10655.2190 1433.0406 0.0000 0.0000 1722.4369 -7481.9322 293.3231 -9204.3692 -7448.6969 299.3550 -217.6094 -181.6173 30651.0029 -9.8999 48.5175
TCL: Running FEP window   3: Lambda1 0.8999999999999999 Lambda2 0.8499999999999999 [dLambda -0.050000000000000044]
TCL: Setting parameter firsttimestep to 0
TCL: Setting parameter alchLambda to 0.8999999999999999
Info: NONBONDED TABLE R-SQUARED SPACING: 0.0625
Info: NONBONDED TABLE SIZE: 705 POINTS
TCL: Setting parameter alchLambda2 to 0.8499999999999999
Info: NONBONDED TABLE R-SQUARED SPACING: 0.0625
Info: NONBONDED TABLE SIZE: 705 POINTS
TCL: Running for 1500000 steps
ETITLE: TS BOND ANGLE DIHED IMPRP ELECT VDW BOUNDARY MISC KINETIC TOTAL TEMP POTENTIAL TOTALAVG TEMPAVG PRESSURE GPRESSURE VOLUME PRESSAVG GPRESSAVG
ENERGY: 0 2.5425 11.8000 3.4666 0.0000 -10654.0622 1433.4182 0.0000 0.0000 1721.6132 -7481.2215 293.1828 -9202.8347 -7481.2215 293.1828 -263.2401 -186.3623 30651.0029 -263.2401 -186.3623
ENERGY: 300000 2.2356 8.6136 3.8980 0.0000 -10682.2429 1463.4277 0.0000 0.0000 1792.7192 -7411.3489 305.2918 -9204.0682 -7435.6958 303.3831 485.8471 594.6341 30107.1421 384.7896 454.5087
ENERGY: 600000 5.4032 9.5857 3.8283 0.0000 -10658.9493 1433.6327 0.0000 0.0000 1780.4971 -7426.0022 303.2105 -9206.4994 -7435.0965 302.2457 30.9652 -12.8423 30431.9492 84.0075 135.7079
ENERGY: 900000 4.4058 6.3826 4.9617 0.0000 -10700.6068 1399.5325 0.0000 0.0000 1726.4520 -7558.8722 294.0068 -9285.3241 -7448.4727 301.3207 -611.9598 -536.4116 30366.1783 -117.0787 -55.9554
ENERGY: 1200000 5.1473 8.9941 2.4119 0.0000 -10773.6211 1412.2428 0.0000 0.0000 1779.8467 -7564.9783 303.0997 -9344.8250 -7453.6521 301.5506 -459.6088 -432.6406 30129.7492 -118.2529 -58.2549
ENERGY: 1500000 5.4536 4.4614 2.4415 0.0000 -10775.1950 1556.9132 0.0000 0.0000 1789.8440 -7416.0812 304.8022 -9205.9252 -7448.2497 302.0226 923.0361 1020.8683 30106.4185 -91.0231 -29.1211
TCL: Running FEP window   4: Lambda1 0.8499999999999999 Lambda2 0.7999999999999998 [dLambda -0.050000000000000044]
TCL: Setting parameter firsttimestep to 0
TCL: Setting parameter alchLambda to 0.8499999999999999
Info: NONBONDED TABLE R-SQUARED SPACING: 0.0625
Info: NONBONDED TABLE SIZE: 705 POINTS
TCL: Setting parameter alchLambda2 to 0.7999999999999998
Info: NONBONDED TABLE R-SQUARED SPACING: 0.0625
Info: NONBONDED TABLE SIZE: 705 POINTS
TCL: Running for 1500000 steps
ETITLE: TS BOND ANGLE DIHED IMPRP ELECT VDW BOUNDARY MISC KINETIC TOTAL TEMP POTENTIAL TOTALAVG TEMPAVG PRESSURE GPRESSURE VOLUME PRESSAVG GPRESSAVG
ENERGY: 0 5.4536 4.4614 2.4415 0.0000 -10774.1304 1557.4370 0.0000 0.0000 1788.9891 -7415.3477 304.6566 -9204.3367 -7415.3477 304.6566 939.2870 1018.1789 30106.4185 939.2870 1018.1789
ENERGY: 300000 6.5271 4.6551 4.8527 0.0000 -10679.1170 1433.5615 0.0000 0.0000 1777.7590 -7451.7616 302.7442 -9229.5206 -7441.4342 299.9268 -283.7901 -207.2280 30943.9350 317.4099 375.1687
ENERGY: 600000 5.0585 6.6793 3.8469 0.0000 -10742.9914 1483.3449 0.0000 0.0000 1756.5397 -7487.5221 299.1306 -9244.0619 -7455.4639 300.7966 218.9325 272.7663 30471.9669 131.4455 185.5013
ENERGY: 900000 5.1909 5.5843 7.1148 0.0000 -10603.4907 1411.7285 0.0000 0.0000 1742.0957 -7431.7765 296.6709 -9173.8722 -7441.8392 300.7202 -144.7266 -70.8944 30389.9530 97.9529 155.5637
ENERGY: 1200000 3.6062 4.8225 4.0982 0.0000 -10707.4788 1466.8147 0.0000 0.0000 1776.2932 -7451.8441 302.4946 -9228.1373 -7431.8692 300.5546 492.9045 547.2975 29951.5817 246.1084 310.4069
ENERGY: 1500000 4.0651 11.9113 2.5526 0.0000 -10531.5298 1433.8970 0.0000 0.0000 1777.2427 -7301.8610 302.6563 -9079.1038 -7426.6181 300.2533 112.2784 142.8432 30776.7820 231.6490 295.7257
TCL: Running FEP window   5: Lambda1 0.7999999999999998 Lambda2 0.7499999999999998 [dLambda -0.050000000000000044]
TCL: Setting parameter firsttimestep to 0
TCL: Setting parameter alchLambda to 0.7999999999999998
Info: NONBONDED TABLE R-SQUARED SPACING: 0.0625
Info: NONBONDED TABLE SIZE: 705 POINTS
TCL: Setting parameter alchLambda2 to 0.7499999999999998
Info: NONBONDED TABLE R-SQUARED SPACING: 0.0625
Info: NONBONDED TABLE SIZE: 705 POINTS
TCL: Running for 1500000 steps
ETITLE: TS BOND ANGLE DIHED IMPRP ELECT VDW BOUNDARY MISC KINETIC TOTAL TEMP POTENTIAL TOTALAVG TEMPAVG PRESSURE GPRESSURE VOLUME PRESSAVG GPRESSAVG
ENERGY: 0 4.0651 11.9113 2.5526 0.0000 -10530.5361 1433.6581 0.0000 0.0000 1776.3692 -7301.9797 302.5075 -9078.3489 -7301.9797 302.5075 64.8073 129.4529 30776.7820 64.8073 129.4529
ENERGY: 300000 6.2595 4.7548 4.0922 0.0000 -10532.2959 1381.4078 0.0000 0.0000 1720.6983 -7415.0834 293.0270 -9135.7816 -7385.0452 298.7752 -374.5097 -349.5353 30664.7638 -163.2764 -64.6126
ENERGY: 600000 2.6198 7.1247 4.6516 0.0000 -10784.6372 1494.1550 0.0000 0.0000 1752.3362 -7523.7499 298.4148 -9276.0861 -7415.6988 300.0895 253.9069 392.9954 30361.2335 -67.8981 19.8978
ENERGY: 900000 4.2188 13.5648 8.1857 0.0000 -10709.4788 1428.6018 0.0000 0.0000 1747.1489 -7507.7589 297.5314 -9254.9078 -7435.6953 298.6786 -105.3162 -39.3828 30201.1498 -77.1340 15.8355
ENERGY: 1200000 5.2030 7.5145 4.4566 0.0000 -10616.7903 1370.0074 0.0000 0.0000 1818.0148 -7411.5940 309.5995 -9229.6087 -7424.1761 300.2402 -591.1895 -539.9689 30555.3826 -105.7753 -14.2823
ENERGY: 1500000 5.2570 6.2138 6.2029 0.0000 -10585.7113 1418.2564 0.0000 0.0000 1743.3124 -7406.4689 296.8781 -9149.7812 -7434.9510 299.8610 -177.8260 -52.1893 30372.7907 -74.3655 18.4425
TCL: Running FEP window   6: Lambda1 0.7499999999999998 Lambda2 0.6999999999999997 [dLambda -0.050000000000000044]
TCL: Setting parameter firsttimestep to 0
TCL: Setting parameter alchLambda to 0.7499999999999998
Info: NONBONDED TABLE R-SQUARED SPACING: 0.0625
Info: NONBONDED TABLE SIZE: 705 POINTS
TCL: Setting parameter alchLambda2 to 0.6999999999999997
Info: NONBONDED TABLE R-SQUARED SPACING: 0.0625
Info: NONBONDED TABLE SIZE: 705 POINTS
TCL: Running for 1500000 steps
ETITLE: TS BOND ANGLE DIHED IMPRP ELECT VDW BOUNDARY MISC KINETIC TOTAL TEMP POTENTIAL TOTALAVG TEMPAVG PRESSURE GPRESSURE VOLUME PRESSAVG GPRESSAVG
ENERGY: 0 5.2569 6.2138 6.2029 0.0000 -10584.8644 1418.6393 0.0000 0.0000 1742.4391 -7406.1122 296.7294 -9148.5514 -7406.1122 296.7294 -134.5621 -61.8629 30372.7907 -134.5621 -61.8629
ENERGY: 300000 9.1482 10.0511 5.3658 0.0000 -10563.0759 1391.2860 0.0000 0.0000 1726.7421 -7420.4828 294.0562 -9147.2248 -7430.0932 297.0890 -375.7874 -348.0174 30712.8497 -211.9854 -171.3093
ENERGY: 600000 4.4608 8.6906 5.0900 0.0000 -10752.9851 1444.7458 0.0000 0.0000 1702.6223 -7587.3756 289.9487 -9289.9979 -7462.0563 297.0830 -287.3787 -219.3357 30325.8936 -233.7926 -178.4969
ENERGY: 900000 4.7637 14.3908 4.2734 0.0000 -10607.7909 1395.7066 0.0000 0.0000 1709.1601 -7479.4962 291.0621 -9188.6563 -7466.8363 296.4636 -359.2430 -258.3622 30072.4338 -163.6236 -102.9061
ENERGY: 1200000 4.6199 9.3736 2.3958 0.0000 -10551.4637 1384.5680 0.0000 0.0000 1731.1147 -7419.3916 294.8009 -9150.5063 -7447.6773 296.9934 -661.2504 -556.1528 31069.0005 -219.0810 -145.6688
ENERGY: 1500000 3.6211 10.6179 3.3774 0.0000 -10593.3363 1399.5236 0.0000 0.0000 1739.1596 -7437.0368 296.1709 -9176.1964 -7447.5712 297.7439 -353.0164 -333.8898 30632.7331 -178.0477 -109.8966
TCL: Running FEP window   7: Lambda1 0.6999999999999997 Lambda2 0.6499999999999997 [dLambda -0.050000000000000044]
TCL: Setting parameter firsttimestep to 0
TCL: Setting parameter alchLambda to 0.6999999999999997
Info: NONBONDED TABLE R-SQUARED SPACING: 0.0625
Info: NONBONDED TABLE SIZE: 705 POINTS
TCL: Setting parameter alchLambda2 to 0.6499999999999997
Info: NONBONDED TABLE R-SQUARED SPACING: 0.0625
Info: NONBONDED TABLE SIZE: 705 POINTS
TCL: Running for 1500000 steps
ETITLE: TS BOND ANGLE DIHED IMPRP ELECT VDW BOUNDARY MISC KINETIC TOTAL TEMP POTENTIAL TOTALAVG TEMPAVG PRESSURE GPRESSURE VOLUME PRESSAVG GPRESSAVG
ENERGY: 0 3.6211 10.6179 3.3774 0.0000 -10592.6069 1400.2433 0.0000 0.0000 1738.2951 -7436.4522 296.0237 -9174.7473 -7436.4522 296.0237 -405.0380 -334.6172 30632.7331 -405.0380 -334.6172
ENERGY: 300000 1.7280 4.3365 8.8874 0.0000 -10660.8697 1495.8979 0.0000 0.0000 1750.8610 -7399.1589 298.1636 -9150.0199 -7437.7865 293.6807 349.6443 465.3221 30725.0958 -242.5020 -161.4903
ENERGY: 600000 3.1124 10.3553 12.4682 0.0000 -10711.3835 1485.7241 0.0000 0.0000 1769.0847 -7430.6388 301.2670 -9199.7234 -7447.5676 295.6284 388.7139 469.0058 30198.8570 -267.9051 -181.1156
ENERGY: 900000 4.5302 7.9290 3.4503 0.0000 -10553.6551 1350.1351 0.0000 0.0000 1762.8241 -7424.7864 300.2008 -9187.6105 -7435.7452 297.5609 -579.8607 -581.5870 30494.7820 -248.7133 -177.6212
ENERGY: 1200000 4.4143 5.8192 4.5068 0.0000 -10659.2857 1435.2526 0.0000 0.0000 1735.6357 -7473.6571 295.5708 -9209.2928 -7445.9731 296.9692 102.1860 252.4312 30214.5960 -231.4897 -155.6142
ENERGY: 1500000 1.9258 8.8150 6.4001 0.0000 -10652.5149 1416.4998 0.0000 0.0000 1754.8485 -7464.0258 298.8426 -9218.8743 -7449.3645 297.3172 -255.7781 -216.8238 30863.6649 -140.9047 -70.8015
TCL: Running FEP window   8: Lambda1 0.6499999999999997 Lambda2 0.5999999999999996 [dLambda -0.050000000000000044]
TCL: Setting parameter firsttimestep to 0
TCL: Setting parameter alchLambda to 0.6499999999999997
Info: NONBONDED TABLE R-SQUARED SPACING: 0.0625
Info: NONBONDED TABLE SIZE: 705 POINTS
TCL: Setting parameter alchLambda2 to 0.5999999999999996
Info: NONBONDED TABLE R-SQUARED SPACING: 0.0625
Info: NONBONDED TABLE SIZE: 705 POINTS
TCL: Running for 1500000 steps
ETITLE: TS BOND ANGLE DIHED IMPRP ELECT VDW BOUNDARY MISC KINETIC TOTAL TEMP POTENTIAL TOTALAVG TEMPAVG PRESSURE GPRESSURE VOLUME PRESSAVG GPRESSAVG
ENERGY: 0 1.9258 8.8150 6.4001 0.0000 -10651.5693 1417.1886 0.0000 0.0000 1753.9846 -7463.2553 298.6955 -9217.2398 -7463.2553 298.6955 -310.2163 -217.3289 30863.6649 -310.2163 -217.3289
ENERGY: 300000 1.8272 5.7813 4.3325 0.0000 -10534.0156 1344.5466 0.0000 0.0000 1801.4061 -7376.1218 306.7712 -9177.5279 -7446.6293 299.4853 -364.9639 -367.6107 30146.1700 -509.6783 -434.2586
ENERGY: 600000 3.1832 8.2152 1.4946 0.0000 -10533.6078 1376.4599 0.0000 0.0000 1742.0362 -7402.2187 296.6607 -9144.2549 -7407.2181 302.3883 -593.5619 -560.1538 30811.6013 -410.8036 -349.6681
ENERGY: 900000 3.0495 7.4636 2.8296 0.0000 -10741.7171 1432.8633 0.0000 0.0000 1783.7388 -7511.7724 303.7625 -9295.5111 -7412.8374 301.6587 44.3143 79.7962 29738.9667 -321.2531 -267.8524
ENERGY: 1200000 5.2621 6.4582 4.5309 0.0000 -10657.9568 1494.5566 0.0000 0.0000 1722.3495 -7424.7996 293.3082 -9147.1491 -7410.8801 301.2912 279.5674 385.6305 30851.6724 -229.6590 -165.0918
ENERGY: 1500000 5.1675 6.9691 2.8670 0.0000 -10691.8088 1437.6394 0.0000 0.0000 1777.2578 -7461.9080 302.6588 -9239.1658 -7415.7065 300.5687 -48.5792 53.9567 30133.5578 -219.5169 -150.9889
TCL: Running FEP window   9: Lambda1 0.5999999999999996 Lambda2 0.5499999999999996 [dLambda -0.050000000000000044]
TCL: Setting parameter firsttimestep to 0
TCL: Setting parameter alchLambda to 0.5999999999999996
Info: NONBONDED TABLE R-SQUARED SPACING: 0.0625
Info: NONBONDED TABLE SIZE: 705 POINTS
TCL: Setting parameter alchLambda2 to 0.5499999999999996
Info: NONBONDED TABLE R-SQUARED SPACING: 0.0625
Info: NONBONDED TABLE SIZE: 705 POINTS
TCL: Running for 1500000 steps
ETITLE: TS BOND ANGLE DIHED IMPRP ELECT VDW BOUNDARY MISC KINETIC TOTAL TEMP POTENTIAL TOTALAVG TEMPAVG PRESSURE GPRESSURE VOLUME PRESSAVG GPRESSAVG
ENERGY: 0 5.1675 6.9691 2.8670 0.0000 -10691.0124 1438.0277 0.0000 0.0000 1776.4118 -7461.5692 302.5148 -9237.9811 -7461.5692 302.5148 -49.0044 50.9627 30133.5578 -49.0044 50.9627
ENERGY: 300000 4.5263 8.3082 6.1593 0.0000 -10666.7894 1455.3172 0.0000 0.0000 1730.8007 -7461.6777 294.7474 -9192.4784 -7412.8091 302.0145 155.5309 244.6493 30318.0222 172.3487 252.5994
ENERGY: 600000 2.7839 12.3404 4.2024 0.0000 -10694.4212 1425.4399 0.0000 0.0000 1777.9350 -7471.7196 302.7741 -9249.6546 -7433.3988 301.1387 -352.0967 -259.6210 30476.6558 148.5668 222.8211
ENERGY: 900000 3.2356 9.1380 2.5515 0.0000 -10583.1083 1370.1123 0.0000 0.0000 1816.2998 -7381.7710 309.3075 -9198.0708 -7441.7715 300.9740 -527.2697 -502.7420 30314.5329 2.1047 64.6884
ENERGY: 1200000 5.6044 7.7852 5.1871 0.0000 -10520.2080 1357.5313 0.0000 0.0000 1765.5344 -7378.5657 300.6624 -9144.1001 -7428.2414 300.8728 -640.6603 -534.4505 30667.2119 -11.3917 51.8842
ENERGY: 1500000 6.2677 7.0015 3.3544 0.0000 -10816.3721 1524.5646 0.0000 0.0000 1749.2140 -7525.9700 297.8831 -9275.1839 -7451.4533 299.6096 582.7386 740.0643 30039.3101 58.9138 128.8724
TCL: Running FEP window  10: Lambda1 0.5499999999999996 Lambda2 0.4999999999999996 [dLambda -0.04999999999999999]
TCL: Setting parameter firsttimestep to 0
TCL: Setting parameter alchLambda to 0.5499999999999996
Info: NONBONDED TABLE R-SQUARED SPACING: 0.0625
Info: NONBONDED TABLE SIZE: 705 POINTS
TCL: Setting parameter alchLambda2 to 0.4999999999999996
Info: NONBONDED TABLE R-SQUARED SPACING: 0.0625
Info: NONBONDED TABLE SIZE: 705 POINTS
TCL: Running for 1500000 steps
ETITLE: TS BOND ANGLE DIHED IMPRP ELECT VDW BOUNDARY MISC KINETIC TOTAL TEMP POTENTIAL TOTALAVG TEMPAVG PRESSURE GPRESSURE VOLUME PRESSAVG GPRESSAVG
ENERGY: 0 6.2677 7.0015 3.3544 0.0000 -10816.0454 1525.0307 0.0000 0.0000 1748.3758 -7526.0153 297.7403 -9274.3911 -7526.0153 297.7403 655.4966 737.5021 30039.3101 655.4966 737.5021
ENERGY: 300000 2.0570 8.6361 4.6957 0.0000 -10487.3616 1314.3092 0.0000 0.0000 1724.1170 -7433.5467 293.6092 -9157.6637 -7461.9616 294.5624 -957.7435 -927.9515 30979.5527 -308.4537 -256.5558
ENERGY: 600000 4.0488 7.8151 6.8413 0.0000 -10582.1013 1431.8200 0.0000 0.0000 1721.1621 -7410.4141 293.1060 -9131.5762 -7461.2628 294.0679 -146.5262 -62.5305 30744.0860 -146.4572 -92.3743
ENERGY: 900000 5.8920 6.9809 3.4247 0.0000 -10733.0485 1490.7778 0.0000 0.0000 1710.0307 -7515.9424 291.2104 -9225.9731 -7467.6929 294.9174 204.7546 287.3115 30404.6367 -137.2407 -82.4236
ENERGY: 1200000 6.9055 7.8891 8.4114 0.0000 -10711.1950 1450.7944 0.0000 0.0000 1729.1920 -7508.0026 294.4734 -9237.1946 -7468.1455 295.0437 174.2233 225.6117 29975.4803 -131.1868 -81.8005
ENERGY: 1500000 3.8753 4.4986 2.7461 0.0000 -10741.2095 1468.0142 0.0000 0.0000 1727.0007 -7535.0746 294.1003 -9262.0753 -7475.5150 294.8405 -89.1036 -53.2871 30524.8307 -122.0664 -70.8712
TCL: Running FEP window  11: Lambda1 0.4999999999999996 Lambda2 0.4499999999999996 [dLambda -0.04999999999999999]
TCL: Setting parameter firsttimestep to 0
TCL: Setting parameter alchLambda to 0.4999999999999996
Info: NONBONDED TABLE R-SQUARED SPACING: 0.0625
Info: NONBONDED TABLE SIZE: 705 POINTS
TCL: Setting parameter alchLambda2 to 0.4499999999999996
Info: NONBONDED TABLE R-SQUARED SPACING: 0.0625
Info: NONBONDED TABLE SIZE: 705 POINTS
TCL: Running for 1500000 steps
ETITLE: TS BOND ANGLE DIHED IMPRP ELECT VDW BOUNDARY MISC KINETIC TOTAL TEMP POTENTIAL TOTALAVG TEMPAVG PRESSURE GPRESSURE VOLUME PRESSAVG GPRESSAVG
ENERGY: 0 3.8753 4.4986 2.7461 0.0000 -10741.2106 1468.6414 0.0000 0.0000 1726.1550 -7535.2942 293.9562 -9261.4492 -7535.2942 293.9562 -138.6616 -54.3302 30524.8307 -138.6616 -54.3302
ENERGY: 300000 4.8057 7.7858 4.4192 0.0000 -10689.9602 1447.1583 0.0000 0.0000 1769.9779 -7455.8132 301.4191 -9225.7912 -7441.8958 301.1796 264.9972 274.1353 29917.4976 -191.6746 -153.0674
ENERGY: 600000 6.1163 6.2465 5.2822 0.0000 -10643.6552 1465.5769 0.0000 0.0000 1728.9858 -7431.4476 294.4383 -9160.4334 -7466.1453 299.3879 174.3456 182.3235 30382.1180 -215.9721 -179.5135
ENERGY: 900000 4.1571 5.2147 5.6816 0.0000 -10733.7622 1533.8982 0.0000 0.0000 1712.4615 -7472.3491 291.6243 -9184.8106 -7458.8212 298.4863 838.8209 896.7870 30081.3223 13.0592 59.3781
ENERGY: 1200000 3.0515 6.9552 4.6024 0.0000 -10639.4407 1452.6137 0.0000 0.0000 1757.4143 -7414.8036 299.2796 -9172.2179 -7454.4368 299.1019 380.3232 392.5201 30268.0420 -45.0829 1.9378
ENERGY: 1500000 6.1650 8.0475 1.1698 0.0000 -10664.8419 1484.3776 0.0000 0.0000 1734.3408 -7430.7412 295.3503 -9165.0820 -7454.1756 299.0102 755.7143 840.3466 29898.2927 -38.8516 12.2977
TCL: Running FEP window  12: Lambda1 0.4499999999999996 Lambda2 0.39999999999999963 [dLambda -0.04999999999999999]
TCL: Setting parameter firsttimestep to 0
TCL: Setting parameter alchLambda to 0.4499999999999996
Info: NONBONDED TABLE R-SQUARED SPACING: 0.0625
Info: NONBONDED TABLE SIZE: 705 POINTS
TCL: Setting parameter alchLambda2 to 0.39999999999999963
Info: NONBONDED TABLE R-SQUARED SPACING: 0.0625
Info: NONBONDED TABLE SIZE: 705 POINTS
TCL: Running for 1500000 steps
ETITLE: TS BOND ANGLE DIHED IMPRP ELECT VDW BOUNDARY MISC KINETIC TOTAL TEMP POTENTIAL TOTALAVG TEMPAVG PRESSURE GPRESSURE VOLUME PRESSAVG GPRESSAVG
ENERGY: 0 6.1650 8.0475 1.1698 0.0000 -10664.8423 1484.9681 0.0000 0.0000 1733.4333 -7431.0585 295.1957 -9164.4918 -7431.0585 295.1957 763.1044 840.7325 29898.2927 763.1044 840.7325
ENERGY: 300000 7.0315 9.0574 4.6276 0.0000 -10614.7948 1475.3292 0.0000 0.0000 1769.6648 -7349.0844 301.3658 -9118.7492 -7382.8807 298.3825 575.9342 675.3598 30249.3767 574.4547 633.5974
ENERGY: 600000 3.0320 9.6160 3.5351 0.0000 -10723.6611 1444.0642 0.0000 0.0000 1774.3238 -7489.0899 302.1592 -9263.4137 -7403.2136 299.5101 29.0023 77.3436 30120.5932 308.9532 368.1553
ENERGY: 900000 5.7944 8.9043 3.5539 0.0000 -10575.6942 1406.0580 0.0000 0.0000 1805.0734 -7346.3102 307.3957 -9151.3836 -7390.4224 301.4950 -12.0474 47.5501 29869.5545 241.4479 305.5019
ENERGY: 1200000 7.3878 9.7654 4.6000 0.0000 -10620.6936 1437.2503 0.0000 0.0000 1771.6957 -7389.9944 301.7116 -9161.6901 -7399.6564 301.6652 311.6205 395.8918 30201.1978 222.2636 293.3607
ENERGY: 1500000 4.2107 7.3276 2.1760 0.0000 -10685.6067 1488.7547 0.0000 0.0000 1802.4536 -7380.6840 306.9495 -9183.1376 -7404.8285 301.5930 646.8474 718.6429 29994.9583 210.7338 277.4146
TCL: Running FEP window  13: Lambda1 0.39999999999999963 Lambda2 0.34999999999999964 [dLambda -0.04999999999999999]
TCL: Setting parameter firsttimestep to 0
TCL: Setting parameter alchLambda to 0.39999999999999963
Info: NONBONDED TABLE R-SQUARED SPACING: 0.0625
Info: NONBONDED TABLE SIZE: 705 POINTS
TCL: Setting parameter alchLambda2 to 0.34999999999999964
Info: NONBONDED TABLE R-SQUARED SPACING: 0.0625
Info: NONBONDED TABLE SIZE: 705 POINTS
TCL: Running for 1500000 steps
ETITLE: TS BOND ANGLE DIHED IMPRP ELECT VDW BOUNDARY MISC KINETIC TOTAL TEMP POTENTIAL TOTALAVG TEMPAVG PRESSURE GPRESSURE VOLUME PRESSAVG GPRESSAVG
ENERGY: 0 4.2107 7.3276 2.1760 0.0000 -10685.6078 1489.2023 0.0000 0.0000 1801.5792 -7381.1119 306.8006 -9182.6912 -7381.1119 306.8006 624.6916 716.4274 29994.9583 624.6916 716.4274
ENERGY: 300000 3.5335 7.1698 2.6305 0.0000 -10759.0213 1546.8630 0.0000 0.0000 1765.3415 -7433.4831 300.6295 -9198.8246 -7440.5374 301.1874 914.9667 973.6818 30193.0967 292.6775 340.1703
ENERGY: 600000 1.8575 5.4070 4.9850 0.0000 -10658.3707 1461.1636 0.0000 0.0000 1706.7616 -7478.1960 290.6536 -9184.9576 -7441.7816 300.6917 327.4310 336.7990 30183.2866 328.5466 362.6957
ENERGY: 900000 5.8807 5.2678 5.8224 0.0000 -10476.5492 1315.5831 0.0000 0.0000 1772.8896 -7371.1055 301.9149 -9143.9951 -7457.5932 298.5081 -852.8531 -808.7995 30470.8741 200.0148 233.8940
ENERGY: 1200000 8.6369 8.9043 4.9122 0.0000 -10753.7433 1492.8460 0.0000 0.0000 1768.8229 -7469.6211 301.2224 -9238.4439 -7453.9002 298.7302 498.1561 510.0360 29846.5928 223.9047 259.7810
ENERGY: 1500000 5.4391 6.2201 4.0107 0.0000 -10620.3846 1388.7373 0.0000 0.0000 1766.1526 -7449.8248 300.7677 -9215.9774 -7445.9005 299.0530 -352.3043 -339.3288 30400.2777 195.3628 231.9895
TCL: Running FEP window  14: Lambda1 0.34999999999999964 Lambda2 0.29999999999999966 [dLambda -0.04999999999999999]
TCL: Setting parameter firsttimestep to 0
TCL: Setting parameter alchLambda to 0.34999999999999964
Info: NONBONDED TABLE R-SQUARED SPACING: 0.0625
Info: NONBONDED TABLE SIZE: 705 POINTS
TCL: Setting parameter alchLambda2 to 0.29999999999999966
Info: NONBONDED TABLE R-SQUARED SPACING: 0.0625
Info: NONBONDED TABLE SIZE: 705 POINTS
TCL: Running for 1500000 steps
ETITLE: TS BOND ANGLE DIHED IMPRP ELECT VDW BOUNDARY MISC KINETIC TOTAL TEMP POTENTIAL TOTALAVG TEMPAVG PRESSURE GPRESSURE VOLUME PRESSAVG GPRESSAVG
ENERGY: 0 5.4391 6.2201 4.0107 0.0000 -10620.3851 1389.0279 0.0000 0.0000 1765.2337 -7450.4535 300.6112 -9215.6872 -7450.4535 300.6112 -405.7195 -343.1758 30400.2777 -405.7195 -343.1758
ENERGY: 300000 4.7295 8.1212 3.6861 0.0000 -10651.4862 1431.5464 0.0000 0.0000 1800.0648 -7403.3383 306.5427 -9203.4031 -7420.6024 305.7814 220.3811 249.8881 29984.0758 175.6073 199.7129
ENERGY: 600000 4.1142 8.5146 3.8016 0.0000 -10590.6391 1472.7488 0.0000 0.0000 1796.8686 -7304.5914 305.9984 -9101.4599 -7412.1270 303.9088 636.0963 695.1156 30121.1995 165.5183 209.8380
ENERGY: 900000 7.7519 6.2613 7.8692 0.0000 -10846.7373 1544.8619 0.0000 0.0000 1776.7807 -7503.2123 302.5776 -9279.9930 -7409.2630 302.5235 871.7461 957.4942 29667.1058 248.6641 300.4422
ENERGY: 1200000 6.4587 7.5255 4.0281 0.0000 -10681.5278 1482.0765 0.0000 0.0000 1795.5618 -7385.8772 305.7759 -9181.4390 -7408.4965 302.2754 336.9487 414.5234 30260.9541 178.3214 224.2129
ENERGY: 1500000 4.9415 5.5230 5.0522 0.0000 -10786.8679 1603.5854 0.0000 0.0000 1749.2284 -7418.5373 297.8855 -9167.7657 -7402.5037 301.7747 1490.6122 1519.5743 30445.9811 222.7242 266.4222
TCL: Running FEP window  15: Lambda1 0.29999999999999966 Lambda2 0.24999999999999967 [dLambda -0.04999999999999999]
TCL: Setting parameter firsttimestep to 0
TCL: Setting parameter alchLambda to 0.29999999999999966
Info: NONBONDED TABLE R-SQUARED SPACING: 0.0625
Info: NONBONDED TABLE SIZE: 705 POINTS
TCL: Setting parameter alchLambda2 to 0.24999999999999967
Info: NONBONDED TABLE R-SQUARED SPACING: 0.0625
Info: NONBONDED TABLE SIZE: 705 POINTS
TCL: Running for 1500000 steps
ETITLE: TS BOND ANGLE DIHED IMPRP ELECT VDW BOUNDARY MISC KINETIC TOTAL TEMP POTENTIAL TOTALAVG TEMPAVG PRESSURE GPRESSURE VOLUME PRESSAVG GPRESSAVG
ENERGY: 0 4.9415 5.5230 5.0522 0.0000 -10786.8668 1603.9166 0.0000 0.0000 1748.3513 -7419.0822 297.7362 -9167.4335 -7419.0822 297.7362 1433.4812 1514.8008 30445.9811 1433.4812 1514.8008
ENERGY: 300000 5.1675 7.9504 5.4719 0.0000 -10657.3649 1460.9188 0.0000 0.0000 1754.9977 -7422.8587 298.8680 -9177.8564 -7427.7063 298.5710 353.0916 419.3784 30201.7813 378.8705 453.2600
ENERGY: 600000 3.7967 7.1972 5.4244 0.0000 -10605.4013 1420.7817 0.0000 0.0000 1764.7340 -7403.4672 300.5261 -9168.2012 -7428.0911 301.1193 -1.4121 51.3558 30377.8919 65.8288 127.1231
ENERGY: 900000 1.6886 11.6441 6.9593 0.0000 -10666.1376 1459.7783 0.0000 0.0000 1848.5237 -7337.5436 314.7951 -9186.0673 -7423.3397 301.2728 269.8650 301.1605 30620.4089 135.4848 198.0111
ENERGY: 1200000 4.6198 10.0480 5.5127 0.0000 -10533.4740 1386.1078 0.0000 0.0000 1790.3130 -7336.8726 304.8821 -9127.1856 -7416.7560 301.1129 -170.4479 -99.3056 30525.8461 0.0324 63.9191
ENERGY: 1500000 3.6119 8.9492 2.9953 0.0000 -10489.0626 1375.9713 0.0000 0.0000 1730.0418 -7367.4932 294.6182 -9097.5350 -7416.4636 300.8341 -463.7644 -417.8200 30620.9690 -7.8381 54.3656
TCL: Running FEP window  16: Lambda1 0.24999999999999967 Lambda2 0.19999999999999968 [dLambda -0.04999999999999999]
TCL: Setting parameter firsttimestep to 0
TCL: Setting parameter alchLambda to 0.24999999999999967
Info: NONBONDED TABLE R-SQUARED SPACING: 0.0625
Info: NONBONDED TABLE SIZE: 705 POINTS
TCL: Setting parameter alchLambda2 to 0.19999999999999968
Info: NONBONDED TABLE R-SQUARED SPACING: 0.0625
Info: NONBONDED TABLE SIZE: 705 POINTS
TCL: Running for 1500000 steps
ETITLE: TS BOND ANGLE DIHED IMPRP ELECT VDW BOUNDARY MISC KINETIC TOTAL TEMP POTENTIAL TOTALAVG TEMPAVG PRESSURE GPRESSURE VOLUME PRESSAVG GPRESSAVG
ENERGY: 0 3.6119 8.9492 2.9953 0.0000 -10489.0629 1375.6391 0.0000 0.0000 1729.1499 -7368.7175 294.4663 -9097.8674 -7368.7175 294.4663 -500.8579 -423.9644 30620.9690 -500.8579 -423.9644
ENERGY: 300000 4.2078 8.2377 3.8291 0.0000 -10505.8677 1363.1051 0.0000 0.0000 1807.3154 -7319.1726 307.7775 -9126.4880 -7419.6110 300.6066 -468.7173 -323.8432 30435.7534 -178.5143 -97.3006
ENERGY: 600000 6.0797 6.8834 6.6411 0.0000 -10648.6814 1455.9631 0.0000 0.0000 1801.8086 -7371.3054 306.8397 -9173.1141 -7417.2033 300.1313 -249.5721 -158.0208 30353.4105 -12.9229 71.0671
ENERGY: 900000 3.5438 7.0502 4.9184 0.0000 -10582.6668 1393.0043 0.0000 0.0000 1764.3592 -7409.7909 300.4622 -9174.1501 -7410.3334 300.6217 -118.1969 34.1464 30459.2054 -67.6686 19.4680
ENERGY: 1200000 1.8744 9.4211 5.7175 0.0000 -10635.2475 1418.1429 0.0000 0.0000 1731.7452 -7468.3464 294.9082 -9200.0916 -7421.4898 300.0857 -374.6217 -281.6293 30518.6512 -126.8144 -46.4224
ENERGY: 1500000 7.2372 5.1382 6.4093 0.0000 -10654.5686 1438.9447 0.0000 0.0000 1725.9063 -7470.9329 293.9139 -9196.8391 -7426.2021 299.7144 -93.4518 -4.3656 30242.6761 -100.4210 -17.9178
TCL: Running FEP window  17: Lambda1 0.19999999999999968 Lambda2 0.1499999999999997 [dLambda -0.04999999999999999]
TCL: Setting parameter firsttimestep to 0
TCL: Setting parameter alchLambda to 0.19999999999999968
Info: NONBONDED TABLE R-SQUARED SPACING: 0.0625
Info: NONBONDED TABLE SIZE: 705 POINTS
TCL: Setting parameter alchLambda2 to 0.1499999999999997
Info: NONBONDED TABLE R-SQUARED SPACING: 0.0625
Info: NONBONDED TABLE SIZE: 705 POINTS
TCL: Running for 1500000 steps
ETITLE: TS BOND ANGLE DIHED IMPRP ELECT VDW BOUNDARY MISC KINETIC TOTAL TEMP POTENTIAL TOTALAVG TEMPAVG PRESSURE GPRESSURE VOLUME PRESSAVG GPRESSAVG
ENERGY: 0 7.2372 5.1382 6.4093 0.0000 -10654.5676 1439.6930 0.0000 0.0000 1725.0716 -7471.0183 293.7717 -9196.0899 -7471.0183 293.7717 -83.8228 -3.6404 30242.6761 -83.8228 -3.6404
ENERGY: 300000 6.8834 7.5431 5.3845 0.0000 -10510.8384 1373.6023 0.0000 0.0000 1794.2307 -7323.1945 305.5492 -9117.4252 -7439.1717 299.6641 -504.2555 -454.6494 30548.4187 -140.9875 -76.3146
ENERGY: 600000 6.8330 9.6845 5.2902 0.0000 -10824.8453 1602.8113 0.0000 0.0000 1744.0700 -7456.1564 297.0071 -9200.2264 -7440.2175 299.2080 1271.5154 1302.9771 30452.2604 87.7789 154.5069
ENERGY: 900000 9.6325 4.4016 5.7172 0.0000 -10571.5543 1348.9132 0.0000 0.0000 1774.4093 -7428.4805 302.1737 -9202.8898 -7416.3051 301.1355 -806.0392 -751.4998 30220.3266 -13.1702 50.4418
ENERGY: 1200000 1.5114 8.2828 5.6557 0.0000 -10573.4583 1373.4553 0.0000 0.0000 1777.5038 -7407.0493 302.7007 -9184.5531 -7409.1391 300.4441 -627.5198 -553.6058 30595.0583 -51.7679 11.3040
ENERGY: 1500000 5.2416 5.1335 1.8601 0.0000 -10766.1093 1519.5684 0.0000 0.0000 1767.7981 -7466.5075 301.0479 -9234.3056 -7416.7275 300.8083 824.6804 932.4865 29867.0845 48.4956 114.9673
TCL: Running FEP window  18: Lambda1 0.1499999999999997 Lambda2 0.09999999999999969 [dLambda -0.05 ]
TCL: Setting parameter firsttimestep to 0
TCL: Setting parameter alchLambda to 0.1499999999999997
Info: NONBONDED TABLE R-SQUARED SPACING: 0.0625
Info: NONBONDED TABLE SIZE: 705 POINTS
TCL: Setting parameter alchLambda2 to 0.09999999999999969
Info: NONBONDED TABLE R-SQUARED SPACING: 0.0625
Info: NONBONDED TABLE SIZE: 705 POINTS
TCL: Running for 1500000 steps
ETITLE: TS BOND ANGLE DIHED IMPRP ELECT VDW BOUNDARY MISC KINETIC TOTAL TEMP POTENTIAL TOTALAVG TEMPAVG PRESSURE GPRESSURE VOLUME PRESSAVG GPRESSAVG
ENERGY: 0 5.2416 5.1335 1.8601 0.0000 -10766.1088 1519.4587 0.0000 0.0000 1766.9318 -7467.4831 300.9003 -9234.4149 -7467.4831 300.9003 858.3470 924.7583 29867.0845 858.3470 924.7583
ENERGY: 300000 5.1654 8.5194 4.4266 0.0000 -10760.4521 1525.9294 0.0000 0.0000 1771.9244 -7444.4869 301.7506 -9216.4113 -7475.8922 299.6938 509.1613 563.6969 30116.3305 363.1206 422.0959
ENERGY: 600000 6.0945 5.9148 5.1339 0.0000 -10536.1214 1417.6015 0.0000 0.0000 1790.1175 -7311.2592 304.8488 -9101.3767 -7453.1486 300.3104 27.7470 78.7843 30475.3539 185.0573 229.2225
ENERGY: 900000 5.0269 8.1505 5.7032 0.0000 -10622.7085 1456.3449 0.0000 0.0000 1773.5137 -7373.9694 302.0212 -9147.4830 -7447.3112 299.8061 117.5847 132.7394 30322.7751 207.7210 252.8468
ENERGY: 1200000 3.8140 6.8550 6.6703 0.0000 -10671.4454 1439.8972 0.0000 0.0000 1714.1339 -7500.0750 291.9091 -9214.2090 -7444.1746 299.7993 -0.5890 60.4222 29954.2913 25.9137 74.5084
ENERGY: 1500000 4.2084 5.1111 4.2327 0.0000 -10456.3678 1298.1645 0.0000 0.0000 1747.2585 -7397.3926 297.5501 -9144.6511 -7426.6474 300.9327 -1013.5425 -1083.6114 30470.7584 -94.7979 -55.4556
TCL: Running FEP window  19: Lambda1 0.09999999999999969 Lambda2 0.049999999999999684 [dLambda -0.05 ]
TCL: Setting parameter firsttimestep to 0
TCL: Setting parameter alchLambda to 0.09999999999999969
Info: NONBONDED TABLE R-SQUARED SPACING: 0.0625
Info: NONBONDED TABLE SIZE: 705 POINTS
TCL: Setting parameter alchLambda2 to 0.049999999999999684
Info: NONBONDED TABLE R-SQUARED SPACING: 0.0625
Info: NONBONDED TABLE SIZE: 705 POINTS
TCL: Running for 1500000 steps
ETITLE: TS BOND ANGLE DIHED IMPRP ELECT VDW BOUNDARY MISC KINETIC TOTAL TEMP POTENTIAL TOTALAVG TEMPAVG PRESSURE GPRESSURE VOLUME PRESSAVG GPRESSAVG
ENERGY: 0 4.2084 5.1111 4.2327 0.0000 -10456.3669 1298.4599 0.0000 0.0000 1746.4273 -7397.9274 297.4085 -9144.3547 -7397.9274 297.4085 -1167.2072 -1088.0723 30470.7584 -1167.2072 -1088.0723
ENERGY: 300000 3.8348 11.1564 8.0818 0.0000 -10808.6403 1529.0374 0.0000 0.0000 1798.0604 -7458.4694 306.2014 -9256.5299 -7435.2566 302.9560 578.4398 634.7972 30167.7297 -209.7926 -157.6175
ENERGY: 600000 3.6995 5.2424 4.8394 0.0000 -10817.7410 1523.8368 0.0000 0.0000 1719.3050 -7560.8179 292.7897 -9280.1229 -7442.7842 298.3656 366.9801 494.3633 30080.4552 -168.3658 -107.4322
ENERGY: 900000 3.6944 7.1877 7.5320 0.0000 -10677.2209 1420.6581 0.0000 0.0000 1785.2026 -7452.9459 304.0118 -9238.1486 -7440.3853 299.5946 -285.4013 -192.1337 30112.0857 -198.8129 -137.4521
ENERGY: 1200000 4.2651 4.6193 3.8455 0.0000 -10594.4980 1456.4999 0.0000 0.0000 1762.4270 -7362.8411 300.1332 -9125.2682 -7430.4045 300.1465 171.8301 199.7138 30476.6225 -73.9453 -16.1639
ENERGY: 1500000 5.4548 5.7569 3.4837 0.0000 -10765.1616 1558.1027 0.0000 0.0000 1801.7144 -7390.6490 306.8237 -9192.3635 -7434.8376 299.9952 872.9884 902.4799 29976.4465 24.7472 82.1526
TCL: Running FEP window  20: Lambda1 0.049999999999999684 Lambda2 0.0    [dLambda -0.049999999999999684]
TCL: Setting parameter firsttimestep to 0
TCL: Setting parameter alchLambda to 0.049999999999999684
Info: NONBONDED TABLE R-SQUARED SPACING: 0.0625
Info: NONBONDED TABLE SIZE: 705 POINTS
TCL: Setting parameter alchLambda2 to 0.0
Info: NONBONDED TABLE R-SQUARED SPACING: 0.0625
Info: NONBONDED TABLE SIZE: 705 POINTS
TCL: Running for 1500000 steps
ETITLE: TS BOND ANGLE DIHED IMPRP ELECT VDW BOUNDARY MISC KINETIC TOTAL TEMP POTENTIAL TOTALAVG TEMPAVG PRESSURE GPRESSURE VOLUME PRESSAVG GPRESSAVG
ENERGY: 0 5.4548 5.7569 3.4837 0.0000 -10765.1629 1557.1422 0.0000 0.0000 1800.8325 -7392.4928 306.6735 -9193.3253 -7392.4928 306.6735 817.5105 892.5926 29976.4465 817.5105 892.5926
ENERGY: 300000 5.0951 9.7069 8.4582 0.0000 -10565.1433 1466.6986 0.0000 0.0000 1751.3013 -7323.8833 298.2385 -9075.1846 -7400.9328 301.7916 220.9107 287.1181 30677.3242 528.1368 591.7351
ENERGY: 600000 6.6536 5.5538 8.1760 0.0000 -10685.3432 1451.2952 0.0000 0.0000 1744.0315 -7469.6331 297.0005 -9213.6646 -7421.5496 298.9332 -92.1468 -35.5777 30238.4869 263.7291 331.0816
ENERGY: 900000 5.3809 7.5320 1.9323 0.0000 -10608.5962 1387.0957 0.0000 0.0000 1750.1000 -7456.5553 298.0340 -9206.6553 -7427.3713 298.9649 -500.8180 -478.9044 30073.5170 52.1181 111.6597
ENERGY: 1200000 3.1317 6.2309 7.0771 0.0000 -10733.7156 1509.0711 0.0000 0.0000 1810.3332 -7397.8715 308.2914 -9208.2048 -7422.2105 299.7599 541.5536 651.5151 30252.0416 48.2801 101.8983
ENERGY: 1500000 9.6457 7.7496 4.6681 0.0000 -10681.8141 1477.0557 0.0000 0.0000 1751.2546 -7431.4404 298.2306 -9182.6951 -7418.7906 300.1634 418.3950 428.4860 29821.6442 63.0067 114.8263
TCL: Exiting due to exit command.
