Info: SIMULATION PARAMETERS:
Info: TIMESTEP               2
Info: NUMBER OF STEPS        0
Info: STEPS PER CYCLE        10
Info: PERIODIC CELL BASIS 1  30.8116 0 0
Info: PERIODIC CELL BASIS 2  0 29.4183 0
Info: PERIODIC CELL BASIS 3  0 0 32.757
Info: PERIODIC CELL CENTER   0 0 0
Info: WRAPPING WATERS AROUND PERIODIC BOUNDARIES ON OUTPUT.
Info: WRAPPING ALL CLUSTERS AROUND PERIODIC BOUNDARIES ON OUTPUT.
Info: FIRST LDB TIMESTEP     50
Info: LAST LDB TIMESTEP     -1
Info: HOM BACKGROUND SCALING 1
Info: PME BACKGROUND SCALING 1
Info: MIN ATOMS PER PATCH    40
Info: EMPTY PATCH LOAD       40 ATOMS
Info: VELOCITY FILE          mobley_20524_equil.vel
Info: CENTER OF MASS MOVING INITIALLY? NO
Info: DIELECTRIC             1
Info: EXCLUDE                SCALED ONE-FOUR
Info: 1-4 ELECTROSTATICS SCALED BY 0.833333
Info: MODIFIED 1-4 VDW PARAMETERS WILL BE USED
Info: DCD FILENAME           mobley_20524_prod.dcd
Info: DCD FREQUENCY          100000
Info: DCD FIRST STEP         100000
Info: DCD FILE WILL CONTAIN UNIT CELL DATA
Info: XST FILENAME           mobley_20524_prod.xst
Info: XST FREQUENCY          100000
Info: NO VELOCITY DCD OUTPUT
Info: NO FORCE DCD OUTPUT
Info: OUTPUT FILENAME        mobley_20524_prod
Info: BINARY OUTPUT FILES WILL BE USED
Info: RESTART FILENAME       mobley_20524_prod.restart
Info: RESTART FREQUENCY      100000
Info: BINARY RESTART FILES WILL BE USED
Info: CUTOFF                 9
Info: PAIRLIST DISTANCE      11
Info: PAIRLIST SHRINK RATE   0.01
Info: PAIRLIST GROW RATE     0.01
Info: PAIRLIST TRIGGER       0.3
Info: PAIRLISTS PER CYCLE    2
Info: PAIRLISTS ENABLED
Info: MARGIN                 2
Info: HYDROGEN GROUP CUTOFF  2.5
Info: PATCH DIMENSION        15.5
Info: ENERGY OUTPUT STEPS    100000
Info: ENERGY EVALUATION STEPS    100000
Info: OUTPUT ENERGY PRECISION 4
Info: CROSSTERM ENERGY INCLUDED IN DIHEDRAL
Info: TIMING OUTPUT STEPS    1000000
Info: PRESSURE OUTPUT STEPS  100000
Info: ALCHEMICAL FEP ON
Info: FEP CURRENT LAMBDA VALUE     1
Info: FEP COMPARISON LAMBDA VALUE  0.95
Info: FEP INTRA-ALCHEMICAL NON-BONDED INTERACTIONS WILL BE RETAINED
Info: FEP INTRA-ALCHEMICAL BONDED INTERACTIONS WILL BE RETAINED
Info: FEP VDW SHIFTING COEFFICIENT 5
Info: FEP ELEC. ACTIVE FOR ANNIHILATED PARTICLES BETWEEN LAMBDA = 0 AND LAMBDA = 0.5
Info: FEP ELEC. ACTIVE FOR EXNIHILATED PARTICLES BETWEEN LAMBDA = 0.5 AND LAMBDA = 1
Info: FEP VDW ACTIVE FOR ANNIHILATED PARTICLES BETWEEN LAMBDA = 0 AND LAMBDA = 1
Info: FEP VDW ACTIVE FOR EXNIHILATED PARTICLES BETWEEN LAMBDA = 0 AND LAMBDA = 1
Info: FEP BOND ACTIVE FOR ANNIHILATED PARTICLES BETWEEN LAMBDA = 1 AND LAMBDA = 1
Info: FEP BOND ACTIVE FOR EXNIHILATED PARTICLES BETWEEN LAMBDA = 0 AND LAMBDA = 0
Info: LANGEVIN DYNAMICS ACTIVE
Info: LANGEVIN TEMPERATURE   300
Info: LANGEVIN USING BBK INTEGRATOR
Info: LANGEVIN DAMPING COEFFICIENT IS 1 INVERSE PS
Info: LANGEVIN DYNAMICS APPLIED TO HYDROGENS
Info: LANGEVIN PISTON PRESSURE CONTROL ACTIVE
Info:        TARGET PRESSURE IS 1.01325 BAR
Info:     OSCILLATION PERIOD IS 50 FS
Info:             DECAY TIME IS 25 FS
Info:     PISTON TEMPERATURE IS 300 K
Info:       PRESSURE CONTROL IS GROUP-BASED
Info:    INITIAL STRAIN RATE IS 0.000563349 0.000563349 0.000563349
Info:       CELL FLUCTUATION IS ISOTROPIC
Info: PARTICLE MESH EWALD (PME) ACTIVE
Info: PME TOLERANCE               1e-06
Info: PME EWALD COEFFICIENT       0.348832
Info: PME INTERPOLATION ORDER     4
Info: PME GRID DIMENSIONS         32 32 36
Info: PME MAXIMUM GRID SPACING    1
Info: PME CALCULATION WILL BE PERFORMED ON GPU
Info: FULL ELECTROSTATIC EVALUATION FREQUENCY      2
Info: USING VERLET I (r-RESPA) MTS SCHEME.
Info: C1 SPLITTING OF LONG RANGE ELECTROSTATICS
Info: PLACING ATOMS IN PATCHES BY HYDROGEN GROUPS
Info: RIGID BONDS TO HYDROGEN : ALL
Info:         ERROR TOLERANCE : 1e-08
Info:          MAX ITERATIONS : 100
Info: RIGID WATER USING SETTLE ALGORITHM
Info: RANDOM NUMBER SEED     1743560931
Info: USE HYDROGEN BONDS?    NO
Info: Using AMBER format force field!
Info: AMBER PARM FILE        mobley_20524.prmtop
Info: COORDINATE PDB         mobley_20524.pdb
Info: Exclusions will be read from PARM file!
Info: SCNB (VDW SCALING)     2
Info: USING ARITHMETIC MEAN TO COMBINE L-J SIGMA PARAMETERS
Info: BINARY COORDINATES     mobley_20524_equil.coor
Info: SUMMARY OF PARAMETERS:
Info: 6 BONDS
Info: 4 ANGLES
Info:   4 HARMONIC
Info:   0 COSINE-BASED
Info: 3 DIHEDRAL
Info: 0 IMPROPER
Info: 0 CROSSTERM
Info: 0 VDW
Info: 15 VDW_PAIRS
Info: 0 NBTHOLE_PAIRS
Info: To read alchdata from file: mobley_20524.pdb
Info: To read alchflag data from column: 5
Info: STRUCTURE SUMMARY:
Info: 2938 ATOMS
Info: 2938 BONDS
Info: 19 ANGLES
Info: 32 DIHEDRALS
Info: 0 IMPROPERS
Info: 0 CROSSTERMS
Info: 2980 EXCLUSIONS
Info: 2931 RIGID BONDS
Info: ALCH: 0 ATOMS TO DISAPPEAR IN FINAL STATE
Info: ALCH: 13 ATOMS TO APPEAR IN FINAL STATE
Info: 5883 DEGREES OF FREEDOM
Info: 982 HYDROGEN GROUPS
Info: 3 ATOMS IN LARGEST HYDROGEN GROUP
Info: 982 MIGRATION GROUPS
Info: 3 ATOMS IN LARGEST MIGRATION GROUP
Info: TOTAL MASS = 17659.7 amu
Info: TOTAL CHARGE = -1.49012e-08 e
Info: MASS DENSITY = 0.98766 g/cm^3
Info: ATOM DENSITY = 0.0989501 atoms/A^3
Info: ADDED 0 IMPLICIT EXCLUSIONS
Info: NONBONDED TABLE R-SQUARED SPACING: 0.0625
Info: NONBONDED TABLE SIZE: 705 POINTS
Info: REMOVING COM VELOCITY 0.1351 -0.128345 0.293459
Info: Use 3D box decompostion in PME FFT.
Info: Updated CUDA force table with 4096 elements.
Info: Updated CUDA LJ table with 5 x 5 elements.
Info: Found 15 unique exclusion lists needing 28 bytes
TCL: Running for 1500000 steps
ETITLE: TS BOND ANGLE DIHED IMPRP ELECT VDW BOUNDARY MISC KINETIC TOTAL TEMP POTENTIAL TOTALAVG TEMPAVG PRESSURE GPRESSURE VOLUME PRESSAVG GPRESSAVG
ENERGY: 0 0.9087 1.8534 4.5869 0.0000 -10754.5413 1498.8592 0.0000 0.0000 1730.0732 -7518.2599 295.9757 -9248.3331 -7518.2599 295.9757 739.6622 827.6287 29691.7243 739.6622 827.6287
ENERGY: 300000 3.9054 2.0497 3.1687 0.0000 -10582.0359 1330.5766 0.0000 0.0000 1704.8380 -7537.4976 291.6585 -9242.3355 -7517.9419 295.2524 -960.3527 -819.7232 30412.4587 -126.0771 -23.9979
ENERGY: 600000 1.6807 2.3557 2.6247 0.0000 -10530.5074 1338.6256 0.0000 0.0000 1741.2095 -7444.0113 297.8808 -9185.2207 -7512.3996 295.5164 -447.8973 -475.4352 30288.0361 -198.6295 -128.4075
ENERGY: 900000 0.9483 1.9164 4.1361 0.0000 -10555.9865 1394.0924 0.0000 0.0000 1790.3350 -7364.5582 306.2851 -9154.8932 -7495.1270 298.4944 160.3618 246.5973 29915.2840 -63.7616 -4.4393
ENERGY: 1200000 2.0211 4.8342 3.2122 0.0000 -10651.9562 1414.7411 0.0000 0.0000 1759.3777 -7467.7699 300.9890 -9227.1476 -7485.5993 299.9700 -116.1627 16.0054 29948.4594 -10.1145 52.2962
ENERGY: 1500000 2.7012 1.5924 3.3026 0.0000 -10730.9062 1482.9249 0.0000 0.0000 1799.0247 -7441.3604 307.7717 -9240.3851 -7481.2075 301.0184 426.6558 509.6676 30175.3714 13.2147 72.7782
TCL: Running FEP window   2: Lambda1 0.95   Lambda2 0.8999999999999999 [dLambda -0.050000000000000044]
TCL: Setting parameter firsttimestep to 0
TCL: Setting parameter alchLambda to 0.95
Info: NONBONDED TABLE R-SQUARED SPACING: 0.0625
Info: NONBONDED TABLE SIZE: 705 POINTS
TCL: Setting parameter alchLambda2 to 0.8999999999999999
Info: NONBONDED TABLE R-SQUARED SPACING: 0.0625
Info: NONBONDED TABLE SIZE: 705 POINTS
TCL: Running for 1500000 steps
ETITLE: TS BOND ANGLE DIHED IMPRP ELECT VDW BOUNDARY MISC KINETIC TOTAL TEMP POTENTIAL TOTALAVG TEMPAVG PRESSURE GPRESSURE VOLUME PRESSAVG GPRESSAVG
ENERGY: 0 2.7012 1.5924 3.3026 0.0000 -10728.8243 1482.6816 0.0000 0.0000 1798.1398 -7440.4066 307.6203 -9238.5465 -7440.4066 307.6203 422.5665 501.7483 30175.3714 422.5665 501.7483
ENERGY: 300000 2.8007 3.8596 4.0929 0.0000 -10780.1490 1507.9855 0.0000 0.0000 1759.8699 -7501.5405 301.0732 -9261.4103 -7461.3210 300.6181 440.5391 503.9141 30349.3175 43.0894 108.4020
ENERGY: 600000 3.2589 2.6701 6.4928 0.0000 -10785.7504 1592.5772 0.0000 0.0000 1743.3931 -7437.3583 298.2544 -9180.7514 -7460.4351 301.1683 1723.7410 1764.6652 29863.0616 232.3316 287.1505
ENERGY: 900000 0.2077 3.2931 3.0706 0.0000 -10713.3084 1418.5292 0.0000 0.0000 1826.0986 -7462.1091 312.4034 -9288.2077 -7464.9434 300.4597 -60.6087 47.0070 29988.2815 77.9624 135.9204
ENERGY: 1200000 1.5767 3.4353 2.9852 0.0000 -10726.0158 1476.7629 0.0000 0.0000 1788.0821 -7453.1735 305.8997 -9241.2556 -7451.1159 301.5339 294.6347 336.9138 30272.5179 -26.9839 25.6034
ENERGY: 1500000 1.3068 2.2214 5.8023 0.0000 -10588.4550 1409.3104 0.0000 0.0000 1738.1223 -7431.6918 297.3527 -9169.8141 -7450.3492 301.2522 -81.8183 -28.9066 30682.7756 -12.0904 47.5823
TCL: Running FEP window   3: Lambda1 0.8999999999999999 Lambda2 0.8499999999999999 [dLambda -0.050000000000000044]
TCL: Setting parameter firsttimestep to 0
TCL: Setting parameter alchLambda to 0.8999999999999999
Info: NONBONDED TABLE R-SQUARED SPACING: 0.0625
Info: NONBONDED TABLE SIZE: 705 POINTS
TCL: Setting parameter alchLambda2 to 0.8499999999999999
Info: NONBONDED TABLE R-SQUARED SPACING: 0.0625
Info: NONBONDED TABLE SIZE: 705 POINTS
TCL: Running for 1500000 steps
ETITLE: TS BOND ANGLE DIHED IMPRP ELECT VDW BOUNDARY MISC KINETIC TOTAL TEMP POTENTIAL TOTALAVG TEMPAVG PRESSURE GPRESSURE VOLUME PRESSAVG GPRESSAVG
ENERGY: 0 1.3068 2.2214 5.8023 0.0000 -10586.8958 1409.1600 0.0000 0.0000 1737.2364 -7431.1689 297.2011 -9168.4053 -7431.1689 297.2011 -128.2114 -36.5297 30682.7756 -128.2114 -36.5297
ENERGY: 300000 2.1928 1.2806 2.1281 0.0000 -10669.8039 1462.1575 0.0000 0.0000 1747.0861 -7454.9589 298.8862 -9202.0450 -7439.0823 299.7018 518.4306 525.0727 29874.3332 125.5713 199.2743
ENERGY: 600000 0.8433 1.6124 3.5558 0.0000 -10778.8582 1576.1114 0.0000 0.0000 1787.7408 -7408.9946 305.8413 -9196.7354 -7441.7640 301.1558 1298.2889 1354.7261 29964.6223 177.3430 254.5549
ENERGY: 900000 6.7675 4.4396 2.4624 0.0000 -10670.3585 1395.8074 0.0000 0.0000 1794.6323 -7466.2493 307.0202 -9260.8815 -7446.1286 302.0888 -557.7161 -492.0078 30488.2720 44.8708 109.1692
ENERGY: 1200000 3.8263 2.6879 2.0838 0.0000 -10546.8104 1313.0293 0.0000 0.0000 1771.7017 -7453.4813 303.0973 -9225.1830 -7440.7977 302.6329 -1129.4759 -1074.2380 30737.9063 47.8281 106.0662
ENERGY: 1500000 5.2873 1.5636 2.3008 0.0000 -10816.0974 1466.6541 0.0000 0.0000 1721.9229 -7618.3688 294.5813 -9340.2917 -7456.8073 301.1759 238.0685 302.4186 29847.7885 -31.6686 25.0755
TCL: Running FEP window   4: Lambda1 0.8499999999999999 Lambda2 0.7999999999999998 [dLambda -0.050000000000000044]
TCL: Setting parameter firsttimestep to 0
TCL: Setting parameter alchLambda to 0.8499999999999999
Info: NONBONDED TABLE R-SQUARED SPACING: 0.0625
Info: NONBONDED TABLE SIZE: 705 POINTS
TCL: Setting parameter alchLambda2 to 0.7999999999999998
Info: NONBONDED TABLE R-SQUARED SPACING: 0.0625
Info: NONBONDED TABLE SIZE: 705 POINTS
TCL: Running for 1500000 steps
ETITLE: TS BOND ANGLE DIHED IMPRP ELECT VDW BOUNDARY MISC KINETIC TOTAL TEMP POTENTIAL TOTALAVG TEMPAVG PRESSURE GPRESSURE VOLUME PRESSAVG GPRESSAVG
ENERGY: 0 5.2873 1.5636 2.3008 0.0000 -10814.8059 1466.5827 0.0000 0.0000 1721.0362 -7618.0354 294.4296 -9339.0716 -7618.0354 294.4296 225.2934 295.9888 29847.7885 225.2934 295.9888
ENERGY: 300000 1.1386 2.0110 1.4629 0.0000 -10631.8003 1374.5175 0.0000 0.0000 1801.4505 -7451.2200 308.1867 -9252.6704 -7523.7689 299.7834 -461.5096 -334.4505 30125.5646 76.8367 166.1246
ENERGY: 600000 2.8229 2.7704 2.6937 0.0000 -10698.7234 1479.2730 0.0000 0.0000 1772.6627 -7438.5007 303.2618 -9211.1634 -7493.6694 301.2827 524.3437 611.7084 30158.6983 120.8321 194.3677
ENERGY: 900000 0.8450 1.8979 5.7343 0.0000 -10502.1020 1365.3874 0.0000 0.0000 1731.2959 -7396.9416 296.1848 -9128.2374 -7486.4442 299.7794 -304.6515 -234.9288 30609.6829 -0.6766 71.9576
ENERGY: 1200000 2.2942 3.5205 3.6461 0.0000 -10584.3249 1417.1525 0.0000 0.0000 1777.8642 -7379.8473 304.1516 -9157.7116 -7471.6283 299.9004 64.9386 142.1938 30085.5288 -30.2295 38.1156
ENERGY: 1500000 2.6476 4.1947 4.6362 0.0000 -10645.4459 1388.4793 0.0000 0.0000 1764.7687 -7480.7194 301.9113 -9245.4881 -7474.7419 300.1815 -192.6952 -219.1620 30172.6637 -5.1437 58.7651
TCL: Running FEP window   5: Lambda1 0.7999999999999998 Lambda2 0.7499999999999998 [dLambda -0.050000000000000044]
TCL: Setting parameter firsttimestep to 0
TCL: Setting parameter alchLambda to 0.7999999999999998
Info: NONBONDED TABLE R-SQUARED SPACING: 0.0625
Info: NONBONDED TABLE SIZE: 705 POINTS
TCL: Setting parameter alchLambda2 to 0.7499999999999998
Info: NONBONDED TABLE R-SQUARED SPACING: 0.0625
Info: NONBONDED TABLE SIZE: 705 POINTS
TCL: Running for 1500000 steps
ETITLE: TS BOND ANGLE DIHED IMPRP ELECT VDW BOUNDARY MISC KINETIC TOTAL TEMP POTENTIAL TOTALAVG TEMPAVG PRESSURE GPRESSURE VOLUME PRESSAVG GPRESSAVG
ENERGY: 0 2.6476 4.1947 4.6362 0.0000 -10644.4093 1388.7669 0.0000 0.0000 1763.9441 -7480.2199 301.7702 -9244.1640 -7480.2199 301.7702 -306.2257 -223.8778 30172.6637 -306.2257 -223.8778
ENERGY: 300000 1.3674 4.1058 2.5469 0.0000 -10673.9235 1446.0020 0.0000 0.0000 1791.5470 -7428.3545 306.4924 -9219.9014 -7485.4750 299.4360 -178.0083 -125.4280 30688.3134 -381.7622 -334.4625
ENERGY: 600000 0.8293 2.7530 2.7375 0.0000 -10615.4877 1432.2714 0.0000 0.0000 1728.8388 -7448.0577 295.7645 -9176.8966 -7461.0620 300.6215 112.9716 107.9869 30356.5358 -35.4330 -1.5143
ENERGY: 900000 0.9990 2.8043 2.6907 0.0000 -10593.8362 1366.8492 0.0000 0.0000 1680.4131 -7540.0800 287.4800 -9220.4931 -7472.2720 299.1005 -702.3137 -628.2372 30535.5233 -109.4000 -61.4830
ENERGY: 1200000 1.5443 0.9771 2.7799 0.0000 -10592.5739 1384.4952 0.0000 0.0000 1794.8787 -7407.8986 307.0624 -9202.7773 -7460.8416 299.9893 -713.2173 -634.5574 30914.3199 -171.9918 -133.1305
ENERGY: 1500000 1.3825 3.6649 3.7020 0.0000 -10639.5461 1403.6547 0.0000 0.0000 1778.9020 -7448.2400 304.3292 -9227.1420 -7465.1235 300.7831 -88.9753 -14.7701 30125.6559 -154.8290 -118.6060
TCL: Running FEP window   6: Lambda1 0.7499999999999998 Lambda2 0.6999999999999997 [dLambda -0.050000000000000044]
TCL: Setting parameter firsttimestep to 0
TCL: Setting parameter alchLambda to 0.7499999999999998
Info: NONBONDED TABLE R-SQUARED SPACING: 0.0625
Info: NONBONDED TABLE SIZE: 705 POINTS
TCL: Setting parameter alchLambda2 to 0.6999999999999997
Info: NONBONDED TABLE R-SQUARED SPACING: 0.0625
Info: NONBONDED TABLE SIZE: 705 POINTS
TCL: Running for 1500000 steps
ETITLE: TS BOND ANGLE DIHED IMPRP ELECT VDW BOUNDARY MISC KINETIC TOTAL TEMP POTENTIAL TOTALAVG TEMPAVG PRESSURE GPRESSURE VOLUME PRESSAVG GPRESSAVG
ENERGY: 0 1.3825 3.6649 3.7020 0.0000 -10637.5394 1402.5379 0.0000 0.0000 1778.0434 -7448.2086 304.1823 -9226.2520 -7448.2086 304.1823 -108.2085 -28.1636 30125.6559 -108.2085 -28.1636
ENERGY: 300000 3.0633 2.6963 3.5181 0.0000 -10641.8049 1396.7850 0.0000 0.0000 1796.8215 -7438.9206 307.3948 -9235.7421 -7455.3037 303.3378 -307.5910 -280.5727 30423.2483 -197.5565 -133.8328
ENERGY: 600000 2.4019 4.6212 1.9615 0.0000 -10557.0135 1349.2524 0.0000 0.0000 1782.3555 -7416.4212 304.9200 -9198.7766 -7466.4632 301.0753 -608.5705 -571.0115 30354.3509 -143.8975 -78.2614
ENERGY: 900000 2.8054 2.3016 3.7053 0.0000 -10676.7222 1405.4356 0.0000 0.0000 1714.0115 -7548.4627 293.2279 -9262.4742 -7466.5281 298.5021 -424.4290 -346.9893 30199.3590 -243.2948 -175.6922
ENERGY: 1200000 1.8390 2.5495 1.9066 0.0000 -10577.0431 1428.9783 0.0000 0.0000 1732.3043 -7409.4654 296.3574 -9141.7697 -7469.0490 297.8485 -69.9148 -37.9007 30430.4425 -168.5709 -99.9882
ENERGY: 1500000 1.4363 1.5975 1.5839 0.0000 -10496.3404 1287.5973 0.0000 0.0000 1759.3989 -7444.7265 300.9926 -9204.1254 -7479.6387 297.6214 -1278.1973 -1200.5972 30682.4181 -169.9077 -101.4205
TCL: Running FEP window   7: Lambda1 0.6999999999999997 Lambda2 0.6499999999999997 [dLambda -0.050000000000000044]
TCL: Setting parameter firsttimestep to 0
TCL: Setting parameter alchLambda to 0.6999999999999997
Info: NONBONDED TABLE R-SQUARED SPACING: 0.0625
Info: NONBONDED TABLE SIZE: 705 POINTS
TCL: Setting parameter alchLambda2 to 0.6499999999999997
Info: NONBONDED TABLE R-SQUARED SPACING: 0.0625
Info: NONBONDED TABLE SIZE: 705 POINTS
TCL: Running for 1500000 steps
ETITLE: TS BOND ANGLE DIHED IMPRP ELECT VDW BOUNDARY MISC KINETIC TOTAL TEMP POTENTIAL TOTALAVG TEMPAVG PRESSURE GPRESSURE VOLUME PRESSAVG GPRESSAVG
ENERGY: 0 1.4363 1.5975 1.5839 0.0000 -10494.8109 1287.5033 0.0000 0.0000 1758.5097 -7444.1802 300.8405 -9202.6900 -7444.1802 300.8405 -1291.3311 -1203.0057 30682.4181 -1291.3311 -1203.0057
ENERGY: 300000 4.8329 1.3491 4.2801 0.0000 -10493.8535 1405.4362 0.0000 0.0000 1714.9948 -7362.9604 293.3961 -9077.9551 -7449.2648 293.0525 -85.6801 -29.5606 30446.8218 -589.1140 -513.0442
ENERGY: 600000 1.5059 4.4195 2.6776 0.0000 -10653.5889 1456.8504 0.0000 0.0000 1736.5169 -7451.6185 297.0780 -9188.1355 -7453.6141 298.1520 233.6855 283.5334 30288.6474 -292.7506 -225.8130
ENERGY: 900000 1.9366 4.0623 3.5426 0.0000 -10503.3728 1385.6712 0.0000 0.0000 1795.4361 -7312.7241 307.1578 -9108.1601 -7442.0405 298.8206 -80.0907 78.4618 30314.6462 -197.5437 -113.2970
ENERGY: 1200000 2.1034 0.9171 1.3051 0.0000 -10710.3933 1398.0589 0.0000 0.0000 1713.3376 -7594.6713 293.1126 -9308.0089 -7462.7681 297.3661 -687.3411 -566.6926 30434.4029 -249.4362 -171.9843
ENERGY: 1500000 2.9725 1.9504 3.9907 0.0000 -10730.4906 1495.4699 0.0000 0.0000 1748.8272 -7477.2800 299.1840 -9226.1072 -7468.8980 298.0834 404.7261 504.9398 30330.6846 -170.5156 -100.3618
TCL: Running FEP window   8: Lambda1 0.6499999999999997 Lambda2 0.5999999999999996 [dLambda -0.050000000000000044]
TCL: Setting parameter firsttimestep to 0
TCL: Setting parameter alchLambda to 0.6499999999999997
Info: NONBONDED TABLE R-SQUARED SPACING: 0.0625
Info: NONBONDED TABLE SIZE: 705 POINTS
TCL: Setting parameter alchLambda2 to 0.5999999999999996
Info: NONBONDED TABLE R-SQUARED SPACING: 0.0625
Info: NONBONDED TABLE SIZE: 705 POINTS
TCL: Running for 1500000 steps
ETITLE: TS BOND ANGLE DIHED IMPRP ELECT VDW BOUNDARY MISC KINETIC TOTAL TEMP POTENTIAL TOTALAVG TEMPAVG PRESSURE GPRESSURE VOLUME PRESSAVG GPRESSAVG
ENERGY: 0 2.9725 1.9504 3.9907 0.0000 -10728.9612 1494.8647 0.0000 0.0000 1747.9561 -7477.2269 299.0350 -9225.1829 -7477.2269 299.0350 394.1947 495.2320 30330.6846 394.1947 495.2320
ENERGY: 300000 1.9607 2.4671 3.3329 0.0000 -10677.5082 1381.6677 0.0000 0.0000 1736.0938 -7551.9859 297.0057 -9288.0797 -7488.3024 297.5069 -725.6702 -651.8346 30270.4632 -177.6121 -107.6400
ENERGY: 600000 1.8876 3.0428 1.9543 0.0000 -10691.0071 1435.4447 0.0000 0.0000 1757.6678 -7491.0098 300.6965 -9248.6776 -7477.0586 299.8702 -507.3583 -422.0090 30910.9404 -211.2067 -152.9676
ENERGY: 900000 2.4445 1.8380 4.1484 0.0000 -10867.7891 1490.4736 0.0000 0.0000 1801.8032 -7567.0813 308.2470 -9368.8846 -7476.5328 301.1683 -177.8588 -112.6166 30146.9179 -258.2262 -204.1802
ENERGY: 1200000 1.6985 4.9605 2.3635 0.0000 -10681.9452 1438.1268 0.0000 0.0000 1725.6421 -7509.1538 295.2176 -9234.7958 -7492.0284 300.4377 -138.0433 -97.6621 30327.8759 7.0622 58.3527
ENERGY: 1500000 1.4159 5.6664 3.4948 0.0000 -10740.3335 1526.3663 0.0000 0.0000 1672.7000 -7530.6901 286.1604 -9203.3901 -7492.8333 298.8398 698.5800 827.7185 30046.3901 18.8613 74.5238
TCL: Running FEP window   9: Lambda1 0.5999999999999996 Lambda2 0.5499999999999996 [dLambda -0.050000000000000044]
TCL: Setting parameter firsttimestep to 0
TCL: Setting parameter alchLambda to 0.5999999999999996
Info: NONBONDED TABLE R-SQUARED SPACING: 0.0625
Info: NONBONDED TABLE SIZE: 705 POINTS
TCL: Setting parameter alchLambda2 to 0.5499999999999996
Info: NONBONDED TABLE R-SQUARED SPACING: 0.0625
Info: NONBONDED TABLE SIZE: 705 POINTS
TCL: Running for 1500000 steps
ETITLE: TS BOND ANGLE DIHED IMPRP ELECT VDW BOUNDARY MISC KINETIC TOTAL TEMP POTENTIAL TOTALAVG TEMPAVG PRESSURE GPRESSURE VOLUME PRESSAVG GPRESSAVG
ENERGY: 0 1.4159 5.6664 3.4948 0.0000 -10739.1375 1526.5193 0.0000 0.0000 1671.8343 -7530.2069 286.0123 -9202.0412 -7530.2069 286.0123 728.4406 828.5051 30046.3901 728.4406 828.5051
ENERGY: 300000 1.1129 2.6192 5.7234 0.0000 -10556.3980 1314.1076 0.0000 0.0000 1744.5327 -7488.3022 298.4494 -9232.8349 -7520.7142 295.8061 -879.2332 -847.6875 30142.4541 385.9065 428.1464
ENERGY: 600000 2.6670 3.1805 2.2781 0.0000 -10669.0297 1399.4523 0.0000 0.0000 1762.2275 -7499.2243 301.4765 -9261.4518 -7492.9496 298.0888 -264.0848 -274.0972 30040.3171 145.4907 183.8737
ENERGY: 900000 0.4366 1.6495 5.5906 0.0000 -10662.5734 1438.5806 0.0000 0.0000 1769.0956 -7447.2205 302.6515 -9216.3161 -7473.8166 299.9410 -134.5474 -56.6539 30439.3293 74.4191 118.9098
ENERGY: 1200000 1.9402 2.4187 2.1134 0.0000 -10564.7578 1410.8198 0.0000 0.0000 1684.1011 -7463.3646 288.1109 -9147.4657 -7469.6805 298.9358 -124.3916 -57.1989 30424.9304 -43.2761 8.4458
ENERGY: 1500000 2.7918 3.8204 2.3305 0.0000 -10546.6477 1378.1233 0.0000 0.0000 1711.2606 -7448.3211 292.7573 -9159.5817 -7473.4665 298.6741 -670.8465 -620.1378 31136.3532 -70.5798 -12.8315
TCL: Running FEP window  10: Lambda1 0.5499999999999996 Lambda2 0.4999999999999996 [dLambda -0.04999999999999999]
TCL: Setting parameter firsttimestep to 0
TCL: Setting parameter alchLambda to 0.5499999999999996
Info: NONBONDED TABLE R-SQUARED SPACING: 0.0625
Info: NONBONDED TABLE SIZE: 705 POINTS
TCL: Setting parameter alchLambda2 to 0.4999999999999996
Info: NONBONDED TABLE R-SQUARED SPACING: 0.0625
Info: NONBONDED TABLE SIZE: 705 POINTS
TCL: Running for 1500000 steps
ETITLE: TS BOND ANGLE DIHED IMPRP ELECT VDW BOUNDARY MISC KINETIC TOTAL TEMP POTENTIAL TOTALAVG TEMPAVG PRESSURE GPRESSURE VOLUME PRESSAVG GPRESSAVG
ENERGY: 0 2.7918 3.8204 2.3305 0.0000 -10546.1811 1378.2737 0.0000 0.0000 1710.3703 -7448.5945 292.6050 -9158.9648 -7448.5945 292.6050 -708.2719 -624.7470 31136.3532 -708.2719 -624.7470
ENERGY: 300000 1.4833 4.4252 5.2633 0.0000 -10746.0188 1545.9363 0.0000 0.0000 1797.6008 -7391.3097 307.5281 -9188.9106 -7423.5781 303.7168 1070.5473 1157.5859 29822.9739 202.0905 265.4189
ENERGY: 600000 1.6321 4.9541 1.2786 0.0000 -10645.5999 1405.5690 0.0000 0.0000 1726.6637 -7505.5024 295.3924 -9232.1661 -7453.5101 300.9057 -177.4600 -170.6972 30030.7715 141.9497 185.3740
ENERGY: 900000 1.4887 2.2676 3.4334 0.0000 -10612.0253 1404.7588 0.0000 0.0000 1740.1119 -7459.9648 297.6931 -9200.0768 -7451.4696 299.8894 -167.8695 -103.8822 30087.4181 9.0356 59.9900
ENERGY: 1200000 2.7205 2.2081 2.6555 0.0000 -10860.4474 1511.9865 0.0000 0.0000 1711.3483 -7629.5285 292.7723 -9340.8768 -7469.2880 299.3405 598.0606 663.8442 29496.0267 167.6917 223.8971
ENERGY: 1500000 3.0855 2.0418 4.8972 0.0000 -10504.4149 1277.5276 0.0000 0.0000 1752.6408 -7464.2221 299.8365 -9216.8628 -7455.9869 300.0374 -1548.9111 -1415.4563 30551.6444 5.2130 68.5662
TCL: Running FEP window  11: Lambda1 0.4999999999999996 Lambda2 0.4499999999999996 [dLambda -0.04999999999999999]
TCL: Setting parameter firsttimestep to 0
TCL: Setting parameter alchLambda to 0.4999999999999996
Info: NONBONDED TABLE R-SQUARED SPACING: 0.0625
Info: NONBONDED TABLE SIZE: 705 POINTS
TCL: Setting parameter alchLambda2 to 0.4499999999999996
Info: NONBONDED TABLE R-SQUARED SPACING: 0.0625
Info: NONBONDED TABLE SIZE: 705 POINTS
TCL: Running for 1500000 steps
ETITLE: TS BOND ANGLE DIHED IMPRP ELECT VDW BOUNDARY MISC KINETIC TOTAL TEMP POTENTIAL TOTALAVG TEMPAVG PRESSURE GPRESSURE VOLUME PRESSAVG GPRESSAVG
ENERGY: 0 3.0855 2.0418 4.8972 0.0000 -10504.7165 1277.5047 0.0000 0.0000 1751.7635 -7465.4238 299.6864 -9217.1873 -7465.4238 299.6864 -1492.9234 -1421.5025 30551.6444 -1492.9234 -1421.5025
ENERGY: 300000 0.9408 0.9887 0.6082 0.0000 -10797.0950 1594.9508 0.0000 0.0000 1754.8780 -7444.7285 300.2192 -9199.6065 -7465.2650 298.1649 1412.0723 1490.8516 30029.0525 -352.8168 -270.2348
ENERGY: 600000 2.5980 3.3475 4.1282 0.0000 -10558.9351 1410.8021 0.0000 0.0000 1750.6686 -7387.3906 299.4991 -9138.0593 -7463.7788 297.9916 -62.0056 -6.9214 30221.8896 -209.3947 -132.5805
ENERGY: 900000 1.3973 2.5538 1.1904 0.0000 -10622.1856 1389.9109 0.0000 0.0000 1744.5334 -7482.5999 298.4495 -9227.1334 -7462.1701 298.6796 29.6710 90.9314 29624.7653 -117.9446 -42.9830
ENERGY: 1200000 1.8743 1.8233 4.8700 0.0000 -10626.4168 1391.1767 0.0000 0.0000 1736.3048 -7490.3676 297.0418 -9226.6725 -7470.6161 298.1784 -338.8759 -283.1590 30129.3266 -89.3310 -15.9696
ENERGY: 1500000 3.5884 3.5462 1.2352 0.0000 -10596.1662 1383.2645 0.0000 0.0000 1739.8924 -7464.6396 297.6555 -9204.5320 -7474.0081 298.3950 -431.5376 -411.3729 30268.7554 -80.6391 -11.3808
TCL: Running FEP window  12: Lambda1 0.4499999999999996 Lambda2 0.39999999999999963 [dLambda -0.04999999999999999]
TCL: Setting parameter firsttimestep to 0
TCL: Setting parameter alchLambda to 0.4499999999999996
Info: NONBONDED TABLE R-SQUARED SPACING: 0.0625
Info: NONBONDED TABLE SIZE: 705 POINTS
TCL: Setting parameter alchLambda2 to 0.39999999999999963
Info: NONBONDED TABLE R-SQUARED SPACING: 0.0625
Info: NONBONDED TABLE SIZE: 705 POINTS
TCL: Running for 1500000 steps
ETITLE: TS BOND ANGLE DIHED IMPRP ELECT VDW BOUNDARY MISC KINETIC TOTAL TEMP POTENTIAL TOTALAVG TEMPAVG PRESSURE GPRESSURE VOLUME PRESSAVG GPRESSAVG
ENERGY: 0 3.5884 3.5462 1.2352 0.0000 -10596.1660 1383.4930 0.0000 0.0000 1738.9950 -7465.3082 297.5020 -9204.3032 -7465.3082 297.5020 -485.0709 -415.8298 30268.7554 -485.0709 -415.8298
ENERGY: 300000 3.0760 3.5917 4.6664 0.0000 -10733.2886 1475.1200 0.0000 0.0000 1754.8142 -7492.0202 300.2083 -9246.8344 -7438.5178 304.0977 399.0295 466.2352 29951.1184 43.4723 90.7994
ENERGY: 600000 1.2424 5.3045 3.2505 0.0000 -10597.8664 1365.6822 0.0000 0.0000 1749.3735 -7473.0132 299.2775 -9222.3867 -7460.7024 302.5917 -718.9520 -648.6329 30179.8538 -157.9239 -104.4051
ENERGY: 900000 2.8442 3.1924 3.4913 0.0000 -10527.3489 1334.0070 0.0000 0.0000 1762.6960 -7421.1180 301.5567 -9183.8140 -7453.9929 302.2873 -1110.6996 -1061.7961 30638.2454 -270.5662 -219.5099
ENERGY: 1200000 2.5136 4.2157 3.6978 0.0000 -10811.0606 1513.8287 0.0000 0.0000 1753.4879 -7533.3169 299.9814 -9286.8049 -7455.8539 302.8358 499.8606 518.2292 30203.9762 -200.3030 -153.8944
ENERGY: 1500000 3.1086 3.0323 7.6676 0.0000 -10640.6363 1394.3923 0.0000 0.0000 1799.8517 -7432.5838 307.9132 -9232.4355 -7451.1810 302.3296 -548.1493 -464.6976 30510.8499 -202.7409 -155.2578
TCL: Running FEP window  13: Lambda1 0.39999999999999963 Lambda2 0.34999999999999964 [dLambda -0.04999999999999999]
TCL: Setting parameter firsttimestep to 0
TCL: Setting parameter alchLambda to 0.39999999999999963
Info: NONBONDED TABLE R-SQUARED SPACING: 0.0625
Info: NONBONDED TABLE SIZE: 705 POINTS
TCL: Setting parameter alchLambda2 to 0.34999999999999964
Info: NONBONDED TABLE R-SQUARED SPACING: 0.0625
Info: NONBONDED TABLE SIZE: 705 POINTS
TCL: Running for 1500000 steps
ETITLE: TS BOND ANGLE DIHED IMPRP ELECT VDW BOUNDARY MISC KINETIC TOTAL TEMP POTENTIAL TOTALAVG TEMPAVG PRESSURE GPRESSURE VOLUME PRESSAVG GPRESSAVG
ENERGY: 0 3.1086 3.0323 7.6676 0.0000 -10640.6354 1394.8094 0.0000 0.0000 1798.9341 -7433.0834 307.7562 -9232.0175 -7433.0834 307.7562 -562.7321 -464.2897 30510.8499 -562.7321 -464.2897
ENERGY: 300000 2.6947 1.8336 2.6672 0.0000 -10711.7013 1471.3436 0.0000 0.0000 1737.4183 -7495.7438 297.2323 -9233.1621 -7417.6817 303.9019 226.1309 274.9147 30100.2196 -438.3504 -362.3798
ENERGY: 600000 0.9109 1.9979 3.1414 0.0000 -10581.4497 1369.0964 0.0000 0.0000 1789.6055 -7416.6975 306.1603 -9206.3030 -7434.3847 302.2233 -694.5017 -644.7048 30866.3077 -355.3068 -284.1433
ENERGY: 900000 3.8051 3.1974 4.4963 0.0000 -10582.4920 1347.7944 0.0000 0.0000 1771.1120 -7452.0869 302.9965 -9223.1989 -7445.0266 303.2669 -949.2945 -913.9942 30426.9341 -245.2693 -177.0367
ENERGY: 1200000 1.3926 1.6480 3.3703 0.0000 -10597.7799 1376.0681 0.0000 0.0000 1749.8490 -7465.4519 299.3589 -9215.3009 -7459.1154 301.8739 -339.6050 -276.3404 30299.1948 -248.6546 -189.4559
ENERGY: 1500000 1.6490 1.5855 2.5177 0.0000 -10542.6408 1388.2884 0.0000 0.0000 1680.4670 -7468.1332 287.4892 -9148.6002 -7455.2335 301.8420 -239.9500 -99.6947 30026.6542 -307.6144 -239.8807
TCL: Running FEP window  14: Lambda1 0.34999999999999964 Lambda2 0.29999999999999966 [dLambda -0.04999999999999999]
TCL: Setting parameter firsttimestep to 0
TCL: Setting parameter alchLambda to 0.34999999999999964
Info: NONBONDED TABLE R-SQUARED SPACING: 0.0625
Info: NONBONDED TABLE SIZE: 705 POINTS
TCL: Setting parameter alchLambda2 to 0.29999999999999966
Info: NONBONDED TABLE R-SQUARED SPACING: 0.0625
Info: NONBONDED TABLE SIZE: 705 POINTS
TCL: Running for 1500000 steps
ETITLE: TS BOND ANGLE DIHED IMPRP ELECT VDW BOUNDARY MISC KINETIC TOTAL TEMP POTENTIAL TOTALAVG TEMPAVG PRESSURE GPRESSURE VOLUME PRESSAVG GPRESSAVG
ENERGY: 0 1.6490 1.5855 2.5177 0.0000 -10542.6396 1388.2608 0.0000 0.0000 1679.6038 -7469.0227 287.3415 -9148.6265 -7469.0227 287.3415 -180.8056 -104.4214 30026.6542 -180.8056 -104.4214
ENERGY: 300000 1.1812 2.2958 1.6816 0.0000 -10590.6955 1380.1260 0.0000 0.0000 1750.2816 -7455.1294 299.4329 -9205.4110 -7446.5366 297.8372 -479.7250 -435.8014 30371.9481 -670.5018 -604.3804
ENERGY: 600000 2.1778 3.1243 2.1422 0.0000 -10657.0203 1381.0149 0.0000 0.0000 1748.5118 -7520.0494 299.1301 -9268.5612 -7484.9039 296.7570 -496.3019 -406.0124 30335.8991 -482.5623 -402.6308
ENERGY: 900000 3.2342 2.4661 1.5838 0.0000 -10724.1888 1404.4663 0.0000 0.0000 1765.3799 -7547.0584 302.0158 -9312.4383 -7482.4374 299.0608 -507.8009 -468.5057 30121.2977 -455.1098 -385.2973
ENERGY: 1200000 1.7162 2.6978 2.2224 0.0000 -10608.3671 1438.5952 0.0000 0.0000 1773.7726 -7389.3630 303.4516 -9163.1355 -7461.5721 299.9338 29.4952 99.9026 30621.2764 -384.2777 -320.6586
ENERGY: 1500000 2.7936 3.6124 1.8015 0.0000 -10705.5067 1389.7274 0.0000 0.0000 1764.0825 -7543.4894 301.7939 -9307.5718 -7463.6338 300.8594 -368.1949 -336.8680 29877.8631 -342.7881 -281.7618
TCL: Running FEP window  15: Lambda1 0.29999999999999966 Lambda2 0.24999999999999967 [dLambda -0.04999999999999999]
TCL: Setting parameter firsttimestep to 0
TCL: Setting parameter alchLambda to 0.29999999999999966
Info: NONBONDED TABLE R-SQUARED SPACING: 0.0625
Info: NONBONDED TABLE SIZE: 705 POINTS
TCL: Setting parameter alchLambda2 to 0.24999999999999967
Info: NONBONDED TABLE R-SQUARED SPACING: 0.0625
Info: NONBONDED TABLE SIZE: 705 POINTS
TCL: Running for 1500000 steps
ETITLE: TS BOND ANGLE DIHED IMPRP ELECT VDW BOUNDARY MISC KINETIC TOTAL TEMP POTENTIAL TOTALAVG TEMPAVG PRESSURE GPRESSURE VOLUME PRESSAVG GPRESSAVG
ENERGY: 0 2.7936 3.6124 1.8015 0.0000 -10705.5058 1390.0707 0.0000 0.0000 1763.2382 -7543.9894 301.6494 -9307.2276 -7543.9894 301.6494 -414.8707 -339.4565 29877.8631 -414.8707 -339.4565
ENERGY: 300000 1.7074 3.8910 2.2256 0.0000 -10651.8860 1414.3285 0.0000 0.0000 1798.7447 -7430.9888 307.7238 -9229.7336 -7505.4740 302.1032 -136.0330 -114.2423 30378.1979 -372.9431 -325.4221
ENERGY: 600000 1.2558 4.3492 3.6289 0.0000 -10673.5364 1449.0417 0.0000 0.0000 1725.8220 -7489.4388 295.2484 -9215.2609 -7474.4878 300.4377 137.8950 169.7591 30194.0216 -108.2908 -66.8466
ENERGY: 900000 2.3144 2.1169 3.5053 0.0000 -10674.6083 1457.9309 0.0000 0.0000 1751.5359 -7457.2049 299.6474 -9208.7408 -7482.4525 300.7486 138.5272 222.6104 30138.1472 -84.7826 -35.6946
ENERGY: 1200000 1.2591 6.6444 2.2246 0.0000 -10787.3306 1527.6416 0.0000 0.0000 1752.1601 -7497.4008 299.7542 -9249.5610 -7471.3623 301.9800 246.6676 381.4705 30515.5504 -69.7786 -17.2356
ENERGY: 1500000 2.4084 4.4068 3.7719 0.0000 -10688.3603 1459.5486 0.0000 0.0000 1740.7850 -7477.4395 297.8082 -9218.2246 -7466.4550 302.1247 11.1857 149.3666 30362.7815 -87.5981 -18.2938
TCL: Running FEP window  16: Lambda1 0.24999999999999967 Lambda2 0.19999999999999968 [dLambda -0.04999999999999999]
TCL: Setting parameter firsttimestep to 0
TCL: Setting parameter alchLambda to 0.24999999999999967
Info: NONBONDED TABLE R-SQUARED SPACING: 0.0625
Info: NONBONDED TABLE SIZE: 705 POINTS
TCL: Setting parameter alchLambda2 to 0.19999999999999968
Info: NONBONDED TABLE R-SQUARED SPACING: 0.0625
Info: NONBONDED TABLE SIZE: 705 POINTS
TCL: Running for 1500000 steps
ETITLE: TS BOND ANGLE DIHED IMPRP ELECT VDW BOUNDARY MISC KINETIC TOTAL TEMP POTENTIAL TOTALAVG TEMPAVG PRESSURE GPRESSURE VOLUME PRESSAVG GPRESSAVG
ENERGY: 0 2.4084 4.4068 3.7719 0.0000 -10688.3614 1459.9662 0.0000 0.0000 1739.9257 -7477.8824 297.6612 -9217.8081 -7477.8824 297.6612 43.6401 146.9911 30362.7815 43.6401 146.9911
ENERGY: 300000 1.8241 4.8354 3.9161 0.0000 -10713.6389 1485.6033 0.0000 0.0000 1783.9165 -7433.5436 305.1870 -9217.4601 -7467.1609 300.7794 605.4303 646.0464 30114.8279 135.4963 194.9675
ENERGY: 600000 1.9640 3.3053 2.8967 0.0000 -10680.5208 1399.5330 0.0000 0.0000 1738.0661 -7534.7557 297.3431 -9272.8218 -7483.7267 300.5094 -401.3764 -320.7646 29925.4645 -143.1740 -77.2040
ENERGY: 900000 4.7111 1.3610 2.3918 0.0000 -10542.6643 1357.6747 0.0000 0.0000 1760.3220 -7416.2036 301.1505 -9176.5256 -7471.1438 301.0179 -975.4997 -861.2805 30770.5260 -292.0628 -225.8345
ENERGY: 1200000 7.2366 6.1708 2.8087 0.0000 -10527.2111 1355.6147 0.0000 0.0000 1718.4898 -7436.8904 293.9940 -9155.3802 -7467.8013 300.2124 -555.2967 -492.0559 30274.4664 -321.5068 -252.7514
ENERGY: 1500000 1.9760 3.1359 3.7422 0.0000 -10669.6279 1378.9492 0.0000 0.0000 1776.1638 -7505.6608 303.8607 -9281.8246 -7476.6124 300.4809 -666.5411 -565.6674 30060.2811 -306.9595 -241.2573
TCL: Running FEP window  17: Lambda1 0.19999999999999968 Lambda2 0.1499999999999997 [dLambda -0.04999999999999999]
TCL: Setting parameter firsttimestep to 0
TCL: Setting parameter alchLambda to 0.19999999999999968
Info: NONBONDED TABLE R-SQUARED SPACING: 0.0625
Info: NONBONDED TABLE SIZE: 705 POINTS
TCL: Setting parameter alchLambda2 to 0.1499999999999997
Info: NONBONDED TABLE R-SQUARED SPACING: 0.0625
Info: NONBONDED TABLE SIZE: 705 POINTS
TCL: Running for 1500000 steps
ETITLE: TS BOND ANGLE DIHED IMPRP ELECT VDW BOUNDARY MISC KINETIC TOTAL TEMP POTENTIAL TOTALAVG TEMPAVG PRESSURE GPRESSURE VOLUME PRESSAVG GPRESSAVG
ENERGY: 0 1.9760 3.1359 3.7422 0.0000 -10669.6263 1378.3704 0.0000 0.0000 1775.2990 -7507.1028 303.7128 -9282.4018 -7507.1028 303.7128 -662.4815 -571.6136 30060.2811 -662.4815 -571.6136
ENERGY: 300000 2.1099 4.4628 3.6139 0.0000 -10708.6099 1432.9561 0.0000 0.0000 1768.8435 -7496.6236 302.6084 -9265.4671 -7467.7786 304.4436 -169.4891 -113.4208 30181.1352 -268.5322 -179.1636
ENERGY: 600000 1.3228 2.1280 2.6634 0.0000 -10745.9410 1482.4877 0.0000 0.0000 1734.7782 -7522.5609 296.7806 -9257.3391 -7479.6299 303.3325 126.9551 237.7113 30193.6095 -87.2497 -0.2136
ENERGY: 900000 3.9648 2.8452 2.8667 0.0000 -10702.8001 1451.2989 0.0000 0.0000 1756.2871 -7485.5374 300.4603 -9241.8245 -7473.9609 301.9013 -80.4933 -68.1775 30417.3555 -56.8931 21.5828
ENERGY: 1200000 2.4586 3.1125 1.4954 0.0000 -10727.7529 1486.7676 0.0000 0.0000 1754.2950 -7479.6239 300.1195 -9233.9189 -7464.4029 302.7022 321.8061 428.8279 30163.8600 -78.6248 -1.1844
ENERGY: 1500000 1.7109 4.7240 6.2726 0.0000 -10674.9384 1420.5050 0.0000 0.0000 1741.7243 -7500.0015 297.9689 -9241.7259 -7468.5480 303.0228 -53.3539 53.1593 29721.1090 1.3945 74.5835
TCL: Running FEP window  18: Lambda1 0.1499999999999997 Lambda2 0.09999999999999969 [dLambda -0.05 ]
TCL: Setting parameter firsttimestep to 0
TCL: Setting parameter alchLambda to 0.1499999999999997
Info: NONBONDED TABLE R-SQUARED SPACING: 0.0625
Info: NONBONDED TABLE SIZE: 705 POINTS
TCL: Setting parameter alchLambda2 to 0.09999999999999969
Info: NONBONDED TABLE R-SQUARED SPACING: 0.0625
Info: NONBONDED TABLE SIZE: 705 POINTS
TCL: Running for 1500000 steps
ETITLE: TS BOND ANGLE DIHED IMPRP ELECT VDW BOUNDARY MISC KINETIC TOTAL TEMP POTENTIAL TOTALAVG TEMPAVG PRESSURE GPRESSURE VOLUME PRESSAVG GPRESSAVG
ENERGY: 0 1.7109 4.7240 6.2726 0.0000 -10674.9372 1420.2134 0.0000 0.0000 1740.8915 -7501.1249 297.8264 -9242.0164 -7501.1249 297.8264 -45.3772 46.3632 29721.1090 -45.3772 46.3632
ENERGY: 300000 3.7841 2.3794 0.9683 0.0000 -10614.5102 1420.5145 0.0000 0.0000 1690.7111 -7496.1529 289.2417 -9186.8640 -7502.1025 297.2070 -423.4376 -359.6752 30537.7753 -294.7164 -217.5580
ENERGY: 600000 2.3772 2.6206 1.7884 0.0000 -10647.1664 1446.8872 0.0000 0.0000 1758.8725 -7434.6203 300.9026 -9193.4929 -7495.3404 299.3351 -40.0770 10.0960 30025.4791 -154.4274 -102.6031
ENERGY: 900000 1.0452 4.8647 2.7415 0.0000 -10586.6561 1349.5847 0.0000 0.0000 1732.4197 -7496.0004 296.3771 -9228.4200 -7483.0770 299.4501 -875.1595 -858.5246 30346.2267 -162.8210 -109.9130
ENERGY: 1200000 2.1345 5.0898 2.6704 0.0000 -10725.6792 1460.2753 0.0000 0.0000 1724.9541 -7530.5551 295.0999 -9255.5092 -7486.9890 298.9537 -4.2661 59.5059 30272.1700 -183.1950 -127.4889
ENERGY: 1500000 2.8690 3.3370 9.1473 0.0000 -10701.1418 1513.3545 0.0000 0.0000 1731.2676 -7441.1663 296.1800 -9172.4339 -7482.5753 298.7214 436.1858 484.0697 30392.8279 -170.2032 -113.1578
TCL: Running FEP window  19: Lambda1 0.09999999999999969 Lambda2 0.049999999999999684 [dLambda -0.05 ]
TCL: Setting parameter firsttimestep to 0
TCL: Setting parameter alchLambda to 0.09999999999999969
Info: NONBONDED TABLE R-SQUARED SPACING: 0.0625
Info: NONBONDED TABLE SIZE: 705 POINTS
TCL: Setting parameter alchLambda2 to 0.049999999999999684
Info: NONBONDED TABLE R-SQUARED SPACING: 0.0625
Info: NONBONDED TABLE SIZE: 705 POINTS
TCL: Running for 1500000 steps
ETITLE: TS BOND ANGLE DIHED IMPRP ELECT VDW BOUNDARY MISC KINETIC TOTAL TEMP POTENTIAL TOTALAVG TEMPAVG PRESSURE GPRESSURE VOLUME PRESSAVG GPRESSAVG
ENERGY: 0 2.8690 3.3370 9.1473 0.0000 -10701.1405 1513.4656 0.0000 0.0000 1730.3916 -7441.9300 296.0301 -9172.3216 -7441.9300 296.0301 417.2794 486.0577 30392.8279 417.2794 486.0577
ENERGY: 300000 1.2483 3.7744 0.7327 0.0000 -10690.1489 1465.8417 0.0000 0.0000 1704.0488 -7514.5029 291.5235 -9218.5517 -7486.6977 297.8811 233.6009 270.4343 30065.3931 108.0546 184.4474
ENERGY: 600000 2.5732 6.1155 2.5422 0.0000 -10833.2658 1547.0633 0.0000 0.0000 1793.2530 -7481.7185 306.7843 -9274.9716 -7477.9854 300.0611 858.3018 850.8072 29659.2837 44.1734 99.1067
ENERGY: 900000 1.7637 3.0597 1.9949 0.0000 -10502.1070 1315.8280 0.0000 0.0000 1792.2064 -7387.2542 306.6052 -9179.4606 -7464.1210 302.0252 -1174.6134 -1051.4442 30653.4259 -53.5996 7.6260
ENERGY: 1200000 3.2195 1.6446 2.0919 0.0000 -10625.1133 1441.3599 0.0000 0.0000 1733.9814 -7442.8161 296.6443 -9176.7974 -7459.9477 301.1029 75.6507 130.1682 30459.0170 -58.7691 2.4646
ENERGY: 1500000 4.1439 1.6112 4.0535 0.0000 -10639.7663 1426.1765 0.0000 0.0000 1717.9140 -7485.8673 293.8955 -9203.7812 -7466.2971 300.8266 65.7689 173.7230 29785.2366 14.8891 80.8620
TCL: Running FEP window  20: Lambda1 0.049999999999999684 Lambda2 0.0    [dLambda -0.049999999999999684]
TCL: Setting parameter firsttimestep to 0
TCL: Setting parameter alchLambda to 0.049999999999999684
Info: NONBONDED TABLE R-SQUARED SPACING: 0.0625
Info: NONBONDED TABLE SIZE: 705 POINTS
TCL: Setting parameter alchLambda2 to 0.0
Info: NONBONDED TABLE R-SQUARED SPACING: 0.0625
Info: NONBONDED TABLE SIZE: 705 POINTS
TCL: Running for 1500000 steps
ETITLE: TS BOND ANGLE DIHED IMPRP ELECT VDW BOUNDARY MISC KINETIC TOTAL TEMP POTENTIAL TOTALAVG TEMPAVG PRESSURE GPRESSURE VOLUME PRESSAVG GPRESSAVG
ENERGY: 0 4.1439 1.6112 4.0535 0.0000 -10639.7652 1425.7222 0.0000 0.0000 1717.0659 -7487.1686 293.7504 -9204.2345 -7487.1686 293.7504 62.3144 169.8157 29785.2366 62.3144 169.8157
ENERGY: 300000 3.3249 3.1365 3.4746 0.0000 -10548.9970 1428.4362 0.0000 0.0000 1810.4911 -7300.1336 309.7333 -9110.6248 -7442.4840 297.6662 25.3146 87.0356 30587.2119 119.2313 195.5011
ENERGY: 600000 1.8655 2.8494 3.1586 0.0000 -10807.8369 1564.9281 0.0000 0.0000 1685.7588 -7549.2766 288.3945 -9235.0354 -7485.0088 296.7349 889.7975 959.2904 29834.7640 55.4670 135.0089
ENERGY: 900000 1.4103 1.6139 3.1816 0.0000 -10677.8832 1460.5018 0.0000 0.0000 1748.4817 -7462.6939 299.1249 -9211.1756 -7480.7082 298.3229 210.6319 258.3953 30484.1310 46.3834 120.7725
ENERGY: 1200000 1.6574 8.2187 3.0696 0.0000 -10779.6633 1536.7508 0.0000 0.0000 1816.4337 -7413.5331 310.7500 -9229.9668 -7474.6540 299.2349 570.0129 651.2438 30496.8088 96.3783 166.4003
ENERGY: 1500000 3.5340 1.4313 5.7586 0.0000 -10761.4975 1479.7530 0.0000 0.0000 1749.6593 -7521.3613 299.3264 -9271.0206 -7475.7222 299.3924 174.7510 281.7844 29872.0996 139.2877 213.2937
TCL: Exiting due to exit command.
