Info: SIMULATION PARAMETERS:
Info: TIMESTEP               2
Info: NUMBER OF STEPS        0
Info: STEPS PER CYCLE        10
Info: PERIODIC CELL BASIS 1  30.7022 0 0
Info: PERIODIC CELL BASIS 2  0 31.3981 0
Info: PERIODIC CELL BASIS 3  0 0 31.1673
Info: PERIODIC CELL CENTER   0 0 0
Info: WRAPPING WATERS AROUND PERIODIC BOUNDARIES ON OUTPUT.
Info: WRAPPING ALL CLUSTERS AROUND PERIODIC BOUNDARIES ON OUTPUT.
Info: FIRST LDB TIMESTEP     50
Info: LAST LDB TIMESTEP     -1
Info: HOM BACKGROUND SCALING 1
Info: PME BACKGROUND SCALING 1
Info: MIN ATOMS PER PATCH    40
Info: EMPTY PATCH LOAD       40 ATOMS
Info: VELOCITY FILE          mobley_210639_equil.vel
Info: CENTER OF MASS MOVING INITIALLY? NO
Info: DIELECTRIC             1
Info: EXCLUDE                SCALED ONE-FOUR
Info: 1-4 ELECTROSTATICS SCALED BY 0.833333
Info: MODIFIED 1-4 VDW PARAMETERS WILL BE USED
Info: DCD FILENAME           mobley_210639_prod.dcd
Info: DCD FREQUENCY          100000
Info: DCD FIRST STEP         100000
Info: DCD FILE WILL CONTAIN UNIT CELL DATA
Info: XST FILENAME           mobley_210639_prod.xst
Info: XST FREQUENCY          100000
Info: NO VELOCITY DCD OUTPUT
Info: NO FORCE DCD OUTPUT
Info: OUTPUT FILENAME        mobley_210639_prod
Info: BINARY OUTPUT FILES WILL BE USED
Info: RESTART FILENAME       mobley_210639_prod.restart
Info: RESTART FREQUENCY      100000
Info: BINARY RESTART FILES WILL BE USED
Info: CUTOFF                 9
Info: PAIRLIST DISTANCE      11
Info: PAIRLIST SHRINK RATE   0.01
Info: PAIRLIST GROW RATE     0.01
Info: PAIRLIST TRIGGER       0.3
Info: PAIRLISTS PER CYCLE    2
Info: PAIRLISTS ENABLED
Info: MARGIN                 2
Info: HYDROGEN GROUP CUTOFF  2.5
Info: PATCH DIMENSION        15.5
Info: ENERGY OUTPUT STEPS    100000
Info: ENERGY EVALUATION STEPS    100000
Info: OUTPUT ENERGY PRECISION 4
Info: CROSSTERM ENERGY INCLUDED IN DIHEDRAL
Info: TIMING OUTPUT STEPS    1000000
Info: PRESSURE OUTPUT STEPS  100000
Info: ALCHEMICAL FEP ON
Info: FEP CURRENT LAMBDA VALUE     1
Info: FEP COMPARISON LAMBDA VALUE  0.95
Info: FEP INTRA-ALCHEMICAL NON-BONDED INTERACTIONS WILL BE RETAINED
Info: FEP INTRA-ALCHEMICAL BONDED INTERACTIONS WILL BE RETAINED
Info: FEP VDW SHIFTING COEFFICIENT 5
Info: FEP ELEC. ACTIVE FOR ANNIHILATED PARTICLES BETWEEN LAMBDA = 0 AND LAMBDA = 0.5
Info: FEP ELEC. ACTIVE FOR EXNIHILATED PARTICLES BETWEEN LAMBDA = 0.5 AND LAMBDA = 1
Info: FEP VDW ACTIVE FOR ANNIHILATED PARTICLES BETWEEN LAMBDA = 0 AND LAMBDA = 1
Info: FEP VDW ACTIVE FOR EXNIHILATED PARTICLES BETWEEN LAMBDA = 0 AND LAMBDA = 1
Info: FEP BOND ACTIVE FOR ANNIHILATED PARTICLES BETWEEN LAMBDA = 1 AND LAMBDA = 1
Info: FEP BOND ACTIVE FOR EXNIHILATED PARTICLES BETWEEN LAMBDA = 0 AND LAMBDA = 0
Info: LANGEVIN DYNAMICS ACTIVE
Info: LANGEVIN TEMPERATURE   300
Info: LANGEVIN USING BBK INTEGRATOR
Info: LANGEVIN DAMPING COEFFICIENT IS 1 INVERSE PS
Info: LANGEVIN DYNAMICS APPLIED TO HYDROGENS
Info: LANGEVIN PISTON PRESSURE CONTROL ACTIVE
Info:        TARGET PRESSURE IS 1.01325 BAR
Info:     OSCILLATION PERIOD IS 50 FS
Info:             DECAY TIME IS 25 FS
Info:     PISTON TEMPERATURE IS 300 K
Info:       PRESSURE CONTROL IS GROUP-BASED
Info:    INITIAL STRAIN RATE IS -1.31244e-05 -1.31244e-05 -1.31244e-05
Info:       CELL FLUCTUATION IS ISOTROPIC
Info: PARTICLE MESH EWALD (PME) ACTIVE
Info: PME TOLERANCE               1e-06
Info: PME EWALD COEFFICIENT       0.348832
Info: PME INTERPOLATION ORDER     4
Info: PME GRID DIMENSIONS         32 32 32
Info: PME MAXIMUM GRID SPACING    1
Info: PME CALCULATION WILL BE PERFORMED ON GPU
Info: FULL ELECTROSTATIC EVALUATION FREQUENCY      2
Info: USING VERLET I (r-RESPA) MTS SCHEME.
Info: C1 SPLITTING OF LONG RANGE ELECTROSTATICS
Info: PLACING ATOMS IN PATCHES BY HYDROGEN GROUPS
Info: RIGID BONDS TO HYDROGEN : ALL
Info:         ERROR TOLERANCE : 1e-08
Info:          MAX ITERATIONS : 100
Info: RIGID WATER USING SETTLE ALGORITHM
Info: RANDOM NUMBER SEED     1743526368
Info: USE HYDROGEN BONDS?    NO
Info: Using AMBER format force field!
Info: AMBER PARM FILE        mobley_210639.prmtop
Info: COORDINATE PDB         mobley_210639.pdb
Info: Exclusions will be read from PARM file!
Info: SCNB (VDW SCALING)     2
Info: USING ARITHMETIC MEAN TO COMBINE L-J SIGMA PARAMETERS
Info: BINARY COORDINATES     mobley_210639_equil.coor
Info: SUMMARY OF PARAMETERS:
Info: 6 BONDS
Info: 6 ANGLES
Info:   6 HARMONIC
Info:   0 COSINE-BASED
Info: 2 DIHEDRAL
Info: 0 IMPROPER
Info: 0 CROSSTERM
Info: 0 VDW
Info: 21 VDW_PAIRS
Info: 0 NBTHOLE_PAIRS
Info: To read alchdata from file: mobley_210639.pdb
Info: To read alchflag data from column: 5
Info: STRUCTURE SUMMARY:
Info: 2900 ATOMS
Info: 2899 BONDS
Info: 18 ANGLES
Info: 18 DIHEDRALS
Info: 0 IMPROPERS
Info: 0 CROSSTERMS
Info: 2935 EXCLUSIONS
Info: 2896 RIGID BONDS
Info: ALCH: 0 ATOMS TO DISAPPEAR IN FINAL STATE
Info: ALCH: 11 ATOMS TO APPEAR IN FINAL STATE
Info: 5804 DEGREES OF FREEDOM
Info: 967 HYDROGEN GROUPS
Info: 4 ATOMS IN LARGEST HYDROGEN GROUP
Info: 967 MIGRATION GROUPS
Info: 4 ATOMS IN LARGEST MIGRATION GROUP
Info: TOTAL MASS = 17519.4 amu
Info: TOTAL CHARGE = -7.45058e-09 e
Info: MASS DENSITY = 0.968292 g/cm^3
Info: ATOM DENSITY = 0.0965219 atoms/A^3
Info: ADDED 0 IMPLICIT EXCLUSIONS
Info: NONBONDED TABLE R-SQUARED SPACING: 0.0625
Info: NONBONDED TABLE SIZE: 705 POINTS
Info: REMOVING COM VELOCITY -0.00967409 0.0186968 -0.0414988
Info: Use 3D box decompostion in PME FFT.
Info: Updated CUDA force table with 4096 elements.
Info: Updated CUDA LJ table with 6 x 6 elements.
Info: Found 14 unique exclusion lists needing 24 bytes
TCL: Running for 1500000 steps
ETITLE: TS BOND ANGLE DIHED IMPRP ELECT VDW BOUNDARY MISC KINETIC TOTAL TEMP POTENTIAL TOTALAVG TEMPAVG PRESSURE GPRESSURE VOLUME PRESSAVG GPRESSAVG
ENERGY: 0 0.2469 2.9115 0.0801 0.0000 -10414.4905 1386.1507 0.0000 0.0000 1709.4015 -7315.6998 296.4197 -9025.1012 -7315.6998 296.4197 -9.6035 88.3263 30044.9837 -9.6035 88.3263
ENERGY: 300000 0.3303 2.6998 0.2001 0.0000 -10558.7260 1477.8884 0.0000 0.0000 1675.3305 -7402.2769 290.5116 -9077.6074 -7372.5302 294.6960 417.7101 545.0219 29822.1940 -4.7413 94.8119
ENERGY: 600000 1.9651 5.3305 0.7441 0.0000 -10540.8528 1390.2913 0.0000 0.0000 1775.9085 -7366.6133 307.9524 -9142.5218 -7377.5935 297.1263 -422.9853 -335.1217 30224.7236 -15.2624 69.3938
ENERGY: 900000 0.5785 3.6414 0.5869 0.0000 -10556.6317 1418.1315 0.0000 0.0000 1721.0903 -7412.6032 298.4466 -9133.6935 -7365.0755 298.3438 -179.0703 -86.8460 30052.6799 -90.9832 -0.1793
ENERGY: 1200000 1.3574 6.5217 0.7780 0.0000 -10549.7745 1414.2443 0.0000 0.0000 1779.1569 -7347.7161 308.5157 -9126.8730 -7363.9777 298.9719 -60.0782 51.0598 29805.4327 -145.7536 -55.6582
ENERGY: 1500000 0.1931 2.7383 1.6477 0.0000 -10456.1294 1310.2357 0.0000 0.0000 1680.1384 -7461.1763 291.3453 -9141.3147 -7372.1677 298.9091 -930.6727 -858.5927 29751.9293 -191.8596 -109.5159
TCL: Running FEP window   2: Lambda1 0.95   Lambda2 0.8999999999999999 [dLambda -0.050000000000000044]
TCL: Setting parameter firsttimestep to 0
TCL: Setting parameter alchLambda to 0.95
Info: NONBONDED TABLE R-SQUARED SPACING: 0.0625
Info: NONBONDED TABLE SIZE: 705 POINTS
TCL: Setting parameter alchLambda2 to 0.8999999999999999
Info: NONBONDED TABLE R-SQUARED SPACING: 0.0625
Info: NONBONDED TABLE SIZE: 705 POINTS
TCL: Running for 1500000 steps
ETITLE: TS BOND ANGLE DIHED IMPRP ELECT VDW BOUNDARY MISC KINETIC TOTAL TEMP POTENTIAL TOTALAVG TEMPAVG PRESSURE GPRESSURE VOLUME PRESSAVG GPRESSAVG
ENERGY: 0 0.1931 2.7383 1.6477 0.0000 -10455.8921 1310.4177 0.0000 0.0000 1679.2930 -7461.6025 291.1987 -9140.8955 -7461.6025 291.1987 -954.2797 -867.7281 29751.9293 -954.2797 -867.7281
ENERGY: 300000 0.9775 6.0082 0.2420 0.0000 -10462.6958 1358.1133 0.0000 0.0000 1699.5531 -7397.8016 294.7119 -9097.3548 -7367.2298 297.6802 -256.9313 -154.3623 29716.7000 -578.6728 -512.6987
ENERGY: 600000 1.2993 4.7200 0.1328 0.0000 -10575.1046 1432.6224 0.0000 0.0000 1712.3167 -7424.0134 296.9252 -9136.3301 -7373.1807 299.5651 12.8460 68.6990 29765.5174 -489.9504 -422.7034
ENERGY: 900000 0.4897 2.7227 0.3014 0.0000 -10458.0467 1443.4853 0.0000 0.0000 1739.6464 -7271.4012 301.6643 -9011.0476 -7378.3106 297.6595 371.5553 447.2673 30134.1488 -352.2838 -288.3617
ENERGY: 1200000 1.0131 7.0643 0.7047 0.0000 -10634.3989 1442.1827 0.0000 0.0000 1759.4032 -7424.0308 305.0903 -9183.4341 -7369.1788 299.6830 215.8513 208.1525 29427.0353 -225.0133 -161.0617
ENERGY: 1500000 1.1136 2.8756 0.2579 0.0000 -10533.4649 1410.7744 0.0000 0.0000 1726.0986 -7392.3447 299.3151 -9118.4433 -7377.4639 299.2546 -68.8925 3.0242 29872.5694 -225.1418 -164.3862
TCL: Running FEP window   3: Lambda1 0.8999999999999999 Lambda2 0.8499999999999999 [dLambda -0.050000000000000044]
TCL: Setting parameter firsttimestep to 0
TCL: Setting parameter alchLambda to 0.8999999999999999
Info: NONBONDED TABLE R-SQUARED SPACING: 0.0625
Info: NONBONDED TABLE SIZE: 705 POINTS
TCL: Setting parameter alchLambda2 to 0.8499999999999999
Info: NONBONDED TABLE R-SQUARED SPACING: 0.0625
Info: NONBONDED TABLE SIZE: 705 POINTS
TCL: Running for 1500000 steps
ETITLE: TS BOND ANGLE DIHED IMPRP ELECT VDW BOUNDARY MISC KINETIC TOTAL TEMP POTENTIAL TOTALAVG TEMPAVG PRESSURE GPRESSURE VOLUME PRESSAVG GPRESSAVG
ENERGY: 0 1.1136 2.8756 0.2579 0.0000 -10532.9266 1411.0364 0.0000 0.0000 1725.1985 -7392.4445 299.1590 -9117.6430 -7392.4445 299.1590 -83.1876 -2.0219 29872.5694 -83.1876 -2.0219
ENERGY: 300000 0.9533 4.1097 0.7910 0.0000 -10439.3038 1426.3155 0.0000 0.0000 1765.8983 -7241.2360 306.2166 -9007.1342 -7328.3724 300.0273 228.1318 274.5722 30070.9170 63.0275 145.8269
ENERGY: 600000 0.1523 4.4197 0.2222 0.0000 -10476.0312 1379.5193 0.0000 0.0000 1720.0519 -7371.6658 298.2665 -9091.7177 -7338.8081 301.2496 -315.1783 -190.4119 29877.9445 -24.3611 54.8903
ENERGY: 900000 2.7085 3.7741 0.1650 0.0000 -10391.7900 1277.1787 0.0000 0.0000 1691.2891 -7416.6746 293.2789 -9107.9638 -7334.3869 300.4096 -1191.2459 -1157.4585 29948.8056 -155.2493 -89.3131
ENERGY: 1200000 0.1503 6.1566 0.6762 0.0000 -10432.1833 1303.1282 0.0000 0.0000 1776.2376 -7345.8345 308.0094 -9122.0721 -7334.1539 300.4811 -806.6141 -811.8213 30018.2526 -197.5560 -140.2583
ENERGY: 1500000 0.6224 5.1231 0.2104 0.0000 -10523.2857 1373.4419 0.0000 0.0000 1736.2956 -7407.5924 301.0833 -9143.8879 -7346.4708 300.6417 -373.9262 -284.7384 29707.9531 -240.8450 -181.3428
TCL: Running FEP window   4: Lambda1 0.8499999999999999 Lambda2 0.7999999999999998 [dLambda -0.050000000000000044]
TCL: Setting parameter firsttimestep to 0
TCL: Setting parameter alchLambda to 0.8499999999999999
Info: NONBONDED TABLE R-SQUARED SPACING: 0.0625
Info: NONBONDED TABLE SIZE: 705 POINTS
TCL: Setting parameter alchLambda2 to 0.7999999999999998
Info: NONBONDED TABLE R-SQUARED SPACING: 0.0625
Info: NONBONDED TABLE SIZE: 705 POINTS
TCL: Running for 1500000 steps
ETITLE: TS BOND ANGLE DIHED IMPRP ELECT VDW BOUNDARY MISC KINETIC TOTAL TEMP POTENTIAL TOTALAVG TEMPAVG PRESSURE GPRESSURE VOLUME PRESSAVG GPRESSAVG
ENERGY: 0 0.6224 5.1231 0.2104 0.0000 -10522.9325 1373.8460 0.0000 0.0000 1735.4191 -7407.7115 300.9313 -9143.1306 -7407.7115 300.9313 -369.7339 -286.6406 29707.9531 -369.7339 -286.6406
ENERGY: 300000 1.5223 4.5482 0.1451 0.0000 -10590.3299 1475.5736 0.0000 0.0000 1736.0415 -7372.4991 301.0392 -9108.5406 -7381.8388 298.2081 546.6357 650.9325 29870.2273 -95.9498 -0.4933
ENERGY: 600000 0.7356 6.5054 0.0915 0.0000 -10533.5042 1372.1232 0.0000 0.0000 1769.1933 -7384.8552 306.7879 -9154.0485 -7376.6965 298.9349 -520.7990 -501.2997 29910.9382 -77.0191 -9.6709
ENERGY: 900000 0.6113 4.7136 0.1347 0.0000 -10477.0929 1408.4150 0.0000 0.0000 1690.6617 -7372.5565 293.1701 -9063.2183 -7370.9401 298.4696 223.3903 271.3351 29747.0793 49.8063 110.8895
ENERGY: 1200000 0.1868 3.4592 0.0943 0.0000 -10474.2226 1391.8720 0.0000 0.0000 1765.7259 -7312.8844 306.1867 -9078.6103 -7363.8928 299.5659 145.2575 242.2570 29545.3862 92.3131 157.1717
ENERGY: 1500000 0.6198 3.6054 0.4385 0.0000 -10561.4457 1411.4436 0.0000 0.0000 1669.3649 -7475.9736 289.4771 -9145.3385 -7371.5243 299.0366 -225.7378 -115.9178 30111.0456 79.1404 149.6859
TCL: Running FEP window   5: Lambda1 0.7999999999999998 Lambda2 0.7499999999999998 [dLambda -0.050000000000000044]
TCL: Setting parameter firsttimestep to 0
TCL: Setting parameter alchLambda to 0.7999999999999998
Info: NONBONDED TABLE R-SQUARED SPACING: 0.0625
Info: NONBONDED TABLE SIZE: 705 POINTS
TCL: Setting parameter alchLambda2 to 0.7499999999999998
Info: NONBONDED TABLE R-SQUARED SPACING: 0.0625
Info: NONBONDED TABLE SIZE: 705 POINTS
TCL: Running for 1500000 steps
ETITLE: TS BOND ANGLE DIHED IMPRP ELECT VDW BOUNDARY MISC KINETIC TOTAL TEMP POTENTIAL TOTALAVG TEMPAVG PRESSURE GPRESSURE VOLUME PRESSAVG GPRESSAVG
ENERGY: 0 0.6198 3.6054 0.4385 0.0000 -10560.8614 1411.0316 0.0000 0.0000 1668.4804 -7476.6858 289.3238 -9145.1662 -7476.6858 289.3238 -212.7954 -133.2035 30111.0456 -212.7954 -133.2035
ENERGY: 300000 0.7961 2.4666 0.0412 0.0000 -10423.5213 1365.4238 0.0000 0.0000 1714.3155 -7340.4781 297.2718 -9054.7936 -7415.0729 295.7187 -431.1248 -336.0128 30012.7719 -100.2468 -20.2233
ENERGY: 600000 1.3322 4.0672 0.6162 0.0000 -10455.8609 1329.7225 0.0000 0.0000 1716.5285 -7403.5944 297.6556 -9120.1229 -7402.4813 296.7100 -810.7088 -745.0234 29711.8189 -339.4164 -256.8698
ENERGY: 900000 0.2442 2.3595 0.2474 0.0000 -10634.8418 1493.4106 0.0000 0.0000 1777.0879 -7361.4922 308.1569 -9138.5801 -7390.0876 297.6506 514.9262 568.9506 29986.6720 -173.3927 -84.3469
ENERGY: 1200000 1.6005 6.6722 0.1588 0.0000 -10481.6377 1352.1444 0.0000 0.0000 1674.1299 -7446.9318 290.3034 -9121.0617 -7395.6765 296.8573 -780.3182 -665.0615 30011.8539 -212.7678 -119.7392
ENERGY: 1500000 0.7120 2.6104 0.5097 0.0000 -10383.0656 1352.9347 0.0000 0.0000 1695.3706 -7330.9282 293.9867 -9026.2988 -7386.6835 297.1301 -86.1351 37.4371 29555.3282 -261.9926 -171.7079
TCL: Running FEP window   6: Lambda1 0.7499999999999998 Lambda2 0.6999999999999997 [dLambda -0.050000000000000044]
TCL: Setting parameter firsttimestep to 0
TCL: Setting parameter alchLambda to 0.7499999999999998
Info: NONBONDED TABLE R-SQUARED SPACING: 0.0625
Info: NONBONDED TABLE SIZE: 705 POINTS
TCL: Setting parameter alchLambda2 to 0.6999999999999997
Info: NONBONDED TABLE R-SQUARED SPACING: 0.0625
Info: NONBONDED TABLE SIZE: 705 POINTS
TCL: Running for 1500000 steps
ETITLE: TS BOND ANGLE DIHED IMPRP ELECT VDW BOUNDARY MISC KINETIC TOTAL TEMP POTENTIAL TOTALAVG TEMPAVG PRESSURE GPRESSURE VOLUME PRESSAVG GPRESSAVG
ENERGY: 0 0.7120 2.6104 0.5097 0.0000 -10382.7995 1353.2040 0.0000 0.0000 1694.5062 -7331.2571 293.8368 -9025.7634 -7331.2571 293.8368 -32.2650 33.8562 29555.3282 -32.2650 33.8562
ENERGY: 300000 2.1842 4.7978 1.7063 0.0000 -10552.1050 1365.4220 0.0000 0.0000 1701.6570 -7476.3377 295.0768 -9177.9947 -7354.3862 300.3311 -514.0704 -461.2101 29692.5523 -170.8175 -91.0276
ENERGY: 600000 1.0102 6.9270 0.8045 0.0000 -10523.5712 1407.1115 0.0000 0.0000 1716.0010 -7391.7170 297.5641 -9107.7180 -7373.0693 298.2760 73.2494 96.0873 29637.7591 -53.2365 7.2581
ENERGY: 900000 1.1672 2.8215 0.3665 0.0000 -10501.9972 1435.9508 0.0000 0.0000 1724.7681 -7336.9232 299.0843 -9061.6912 -7370.7488 297.8866 -0.0939 36.4741 30324.8969 -48.3754 12.4837
ENERGY: 1200000 1.3038 5.6715 1.2826 0.0000 -10559.9245 1433.1508 0.0000 0.0000 1719.2154 -7399.3003 298.1215 -9118.5158 -7380.6623 297.8265 92.9823 158.3290 29973.9038 -1.4494 59.2093
ENERGY: 1500000 0.0501 3.2910 0.1789 0.0000 -10584.0631 1460.6659 0.0000 0.0000 1714.9229 -7404.9544 297.3771 -9119.8773 -7379.1939 297.6184 292.0149 342.4764 30093.0083 45.6839 102.9979
TCL: Running FEP window   7: Lambda1 0.6999999999999997 Lambda2 0.6499999999999997 [dLambda -0.050000000000000044]
TCL: Setting parameter firsttimestep to 0
TCL: Setting parameter alchLambda to 0.6999999999999997
Info: NONBONDED TABLE R-SQUARED SPACING: 0.0625
Info: NONBONDED TABLE SIZE: 705 POINTS
TCL: Setting parameter alchLambda2 to 0.6499999999999997
Info: NONBONDED TABLE R-SQUARED SPACING: 0.0625
Info: NONBONDED TABLE SIZE: 705 POINTS
TCL: Running for 1500000 steps
ETITLE: TS BOND ANGLE DIHED IMPRP ELECT VDW BOUNDARY MISC KINETIC TOTAL TEMP POTENTIAL TOTALAVG TEMPAVG PRESSURE GPRESSURE VOLUME PRESSAVG GPRESSAVG
ENERGY: 0 0.0501 3.2910 0.1789 0.0000 -10583.5135 1460.9254 0.0000 0.0000 1714.0514 -7405.0168 297.2260 -9119.0682 -7405.0168 297.2260 249.8441 335.7773 30093.0083 249.8441 335.7773
ENERGY: 300000 0.5202 6.1754 0.7876 0.0000 -10415.2560 1350.3864 0.0000 0.0000 1726.2134 -7331.1730 299.3350 -9057.3864 -7349.8970 299.7967 -391.5649 -332.6349 29871.5183 0.8850 74.3919
ENERGY: 600000 0.5677 4.0011 1.7290 0.0000 -10352.4190 1296.5922 0.0000 0.0000 1752.7065 -7296.8226 303.9290 -9049.5291 -7358.5604 300.5378 -879.8917 -808.1264 30100.3654 -67.6823 14.8015
ENERGY: 900000 0.8534 4.0394 0.3239 0.0000 -10376.5886 1321.2320 0.0000 0.0000 1787.0891 -7263.0509 309.8912 -9050.1399 -7361.1967 300.2686 -661.8728 -577.2006 30168.5264 -84.3116 -4.9526
ENERGY: 1200000 0.5442 3.5481 0.9899 0.0000 -10385.8000 1340.1556 0.0000 0.0000 1745.4110 -7295.1513 302.6640 -9040.5623 -7360.6363 300.8741 -260.1891 -283.0794 29623.0606 -133.8584 -65.2066
ENERGY: 1500000 4.2606 3.1051 0.2491 0.0000 -10535.3350 1405.5115 0.0000 0.0000 1725.9229 -7396.2857 299.2846 -9122.2087 -7362.0934 300.6570 -173.2686 -109.6343 29832.5842 -203.1328 -139.2621
TCL: Running FEP window   8: Lambda1 0.6499999999999997 Lambda2 0.5999999999999996 [dLambda -0.050000000000000044]
TCL: Setting parameter firsttimestep to 0
TCL: Setting parameter alchLambda to 0.6499999999999997
Info: NONBONDED TABLE R-SQUARED SPACING: 0.0625
Info: NONBONDED TABLE SIZE: 705 POINTS
TCL: Setting parameter alchLambda2 to 0.5999999999999996
Info: NONBONDED TABLE R-SQUARED SPACING: 0.0625
Info: NONBONDED TABLE SIZE: 705 POINTS
TCL: Running for 1500000 steps
ETITLE: TS BOND ANGLE DIHED IMPRP ELECT VDW BOUNDARY MISC KINETIC TOTAL TEMP POTENTIAL TOTALAVG TEMPAVG PRESSURE GPRESSURE VOLUME PRESSAVG GPRESSAVG
ENERGY: 0 4.2606 3.1051 0.2491 0.0000 -10535.0698 1405.9121 0.0000 0.0000 1725.0309 -7396.5120 299.1299 -9121.5429 -7396.5120 299.1299 -204.9572 -113.9485 29832.5842 -204.9572 -113.9485
ENERGY: 300000 0.6653 3.9489 0.6037 0.0000 -10492.5802 1382.4624 0.0000 0.0000 1711.5076 -7393.3924 296.7849 -9104.9000 -7383.9058 299.5618 -399.9241 -326.7567 30186.9851 -221.0910 -131.1156
ENERGY: 600000 0.3631 5.1524 0.2959 0.0000 -10359.7794 1355.2117 0.0000 0.0000 1811.0494 -7187.7069 314.0460 -8998.7563 -7370.3160 302.3061 -57.7506 41.8843 29740.2330 -26.2790 39.9802
ENERGY: 900000 0.5274 5.3483 0.8370 0.0000 -10482.6576 1366.9180 0.0000 0.0000 1720.8484 -7388.1786 298.4047 -9109.0270 -7356.3789 300.8194 -328.7198 -306.6796 29968.5463 -131.5361 -70.8782
ENERGY: 1200000 0.5837 4.4303 2.7130 0.0000 -10493.7520 1334.0508 0.0000 0.0000 1741.8833 -7410.0908 302.0522 -9151.9741 -7373.7606 300.4013 -678.1174 -634.8269 29769.2597 -183.3804 -119.6682
ENERGY: 1500000 0.5209 7.5283 0.3258 0.0000 -10495.1829 1415.5133 0.0000 0.0000 1731.0618 -7340.2329 300.1757 -9071.2947 -7373.5883 300.3757 125.8963 184.0988 29777.8566 -69.5201 -5.7548
TCL: Running FEP window   9: Lambda1 0.5999999999999996 Lambda2 0.5499999999999996 [dLambda -0.050000000000000044]
TCL: Setting parameter firsttimestep to 0
TCL: Setting parameter alchLambda to 0.5999999999999996
Info: NONBONDED TABLE R-SQUARED SPACING: 0.0625
Info: NONBONDED TABLE SIZE: 705 POINTS
TCL: Setting parameter alchLambda2 to 0.5499999999999996
Info: NONBONDED TABLE R-SQUARED SPACING: 0.0625
Info: NONBONDED TABLE SIZE: 705 POINTS
TCL: Running for 1500000 steps
ETITLE: TS BOND ANGLE DIHED IMPRP ELECT VDW BOUNDARY MISC KINETIC TOTAL TEMP POTENTIAL TOTALAVG TEMPAVG PRESSURE GPRESSURE VOLUME PRESSAVG GPRESSAVG
ENERGY: 0 0.5209 7.5283 0.3258 0.0000 -10495.0283 1415.3104 0.0000 0.0000 1730.2120 -7341.1309 300.0284 -9071.3429 -7341.1309 300.0284 81.5823 173.8884 29777.8566 81.5823 173.8884
ENERGY: 300000 1.0045 5.8673 1.1428 0.0000 -10560.6213 1436.6625 0.0000 0.0000 1721.6335 -7394.3108 298.5408 -9115.9443 -7375.1415 297.9772 -115.5819 -12.9020 30418.6302 -63.1259 -4.2355
ENERGY: 600000 1.5792 5.3761 0.4888 0.0000 -10483.2395 1403.8988 0.0000 0.0000 1723.1897 -7348.7071 298.8106 -9071.8967 -7370.9444 299.4693 -194.6108 -157.0019 30078.5702 -127.6321 -79.3939
ENERGY: 900000 2.4578 5.9563 0.2007 0.0000 -10514.5820 1421.4532 0.0000 0.0000 1684.7121 -7399.8020 292.1384 -9084.5140 -7376.7571 298.5790 -64.9068 -44.7592 29952.7605 -66.1577 -14.4829
ENERGY: 1200000 1.1604 7.3414 1.0301 0.0000 -10551.4543 1408.1782 0.0000 0.0000 1772.8351 -7360.9092 307.4194 -9133.7443 -7378.9809 298.9919 -349.0350 -288.2919 29817.8613 -93.6000 -24.1822
ENERGY: 1500000 0.3588 5.2812 1.9289 0.0000 -10593.0133 1447.5727 0.0000 0.0000 1711.8011 -7426.0706 296.8358 -9137.8717 -7382.5286 299.0110 228.3834 229.5435 29736.3661 -14.4386 48.6603
TCL: Running FEP window  10: Lambda1 0.5499999999999996 Lambda2 0.4999999999999996 [dLambda -0.04999999999999999]
TCL: Setting parameter firsttimestep to 0
TCL: Setting parameter alchLambda to 0.5499999999999996
Info: NONBONDED TABLE R-SQUARED SPACING: 0.0625
Info: NONBONDED TABLE SIZE: 705 POINTS
TCL: Setting parameter alchLambda2 to 0.4999999999999996
Info: NONBONDED TABLE R-SQUARED SPACING: 0.0625
Info: NONBONDED TABLE SIZE: 705 POINTS
TCL: Running for 1500000 steps
ETITLE: TS BOND ANGLE DIHED IMPRP ELECT VDW BOUNDARY MISC KINETIC TOTAL TEMP POTENTIAL TOTALAVG TEMPAVG PRESSURE GPRESSURE VOLUME PRESSAVG GPRESSAVG
ENERGY: 0 0.3588 5.2812 1.9289 0.0000 -10592.5663 1447.5346 0.0000 0.0000 1710.9571 -7426.5057 296.6894 -9137.4628 -7426.5057 296.6894 141.1880 223.0899 29736.3661 141.1880 223.0899
ENERGY: 300000 0.8318 6.3636 0.4536 0.0000 -10696.7530 1506.8937 0.0000 0.0000 1709.9249 -7472.2855 296.5105 -9182.2103 -7399.2144 298.1281 527.8955 561.3731 29497.0214 471.6473 521.6192
ENERGY: 600000 1.2865 4.1127 0.2520 0.0000 -10495.7236 1396.8968 0.0000 0.0000 1723.4683 -7369.7073 298.8590 -9093.1756 -7381.1730 298.4678 86.1565 152.3905 29528.9135 208.9403 281.0445
ENERGY: 900000 2.3296 5.2493 0.4432 0.0000 -10540.3642 1401.1715 0.0000 0.0000 1731.8451 -7399.3255 300.3115 -9131.1706 -7395.2742 299.2695 -160.4093 -125.1435 29578.8466 96.3718 156.3704
ENERGY: 1200000 1.3750 5.0389 1.3392 0.0000 -10516.5734 1422.1024 0.0000 0.0000 1705.4655 -7381.2524 295.7372 -9086.7179 -7396.2320 298.7301 69.6233 98.9536 29758.8358 65.8488 121.1163
ENERGY: 1500000 0.3202 5.5182 0.4913 0.0000 -10560.3551 1419.1195 0.0000 0.0000 1755.6822 -7379.2237 304.4450 -9134.9059 -7389.6214 299.3990 -15.8024 -0.2120 29833.4002 6.3773 55.7453
TCL: Running FEP window  11: Lambda1 0.4999999999999996 Lambda2 0.4499999999999996 [dLambda -0.04999999999999999]
TCL: Setting parameter firsttimestep to 0
TCL: Setting parameter alchLambda to 0.4999999999999996
Info: NONBONDED TABLE R-SQUARED SPACING: 0.0625
Info: NONBONDED TABLE SIZE: 705 POINTS
TCL: Setting parameter alchLambda2 to 0.4499999999999996
Info: NONBONDED TABLE R-SQUARED SPACING: 0.0625
Info: NONBONDED TABLE SIZE: 705 POINTS
TCL: Running for 1500000 steps
ETITLE: TS BOND ANGLE DIHED IMPRP ELECT VDW BOUNDARY MISC KINETIC TOTAL TEMP POTENTIAL TOTALAVG TEMPAVG PRESSURE GPRESSURE VOLUME PRESSAVG GPRESSAVG
ENERGY: 0 0.3202 5.5182 0.4913 0.0000 -10560.2198 1419.2435 0.0000 0.0000 1754.8214 -7379.8251 304.2958 -9134.6466 -7379.8251 304.2958 -96.0309 0.6686 29833.4002 -96.0309 0.6686
ENERGY: 300000 0.2962 3.0941 1.9636 0.0000 -10530.6708 1416.9016 0.0000 0.0000 1756.9443 -7351.4709 304.6639 -9108.4152 -7345.2148 302.7279 -24.6135 44.8945 29785.8217 -70.7947 13.0692
ENERGY: 600000 0.3869 3.9232 1.0239 0.0000 -10582.6881 1447.0858 0.0000 0.0000 1716.2346 -7414.0337 297.6046 -9130.2683 -7374.5678 300.7590 139.4511 220.6158 29751.6147 -94.2202 -2.5655
ENERGY: 900000 0.9581 2.5847 0.0460 0.0000 -10472.6776 1377.3032 0.0000 0.0000 1736.7036 -7355.0820 301.1540 -9091.7856 -7377.0544 301.1475 -75.9888 -46.4588 29603.3540 -97.5452 -19.3386
ENERGY: 1200000 0.3244 4.7800 0.6075 0.0000 -10384.9412 1328.1055 0.0000 0.0000 1743.1160 -7308.0078 302.2660 -9051.1239 -7372.5558 300.9467 -759.8289 -765.2369 30576.5814 -113.5914 -38.1701
ENERGY: 1500000 0.0913 5.0909 0.2479 0.0000 -10598.0419 1512.3094 0.0000 0.0000 1782.2218 -7298.0807 309.0471 -9080.3024 -7375.1536 301.1425 946.1805 1048.3728 29589.1910 -119.3846 -50.2918
TCL: Running FEP window  12: Lambda1 0.4499999999999996 Lambda2 0.39999999999999963 [dLambda -0.04999999999999999]
TCL: Setting parameter firsttimestep to 0
TCL: Setting parameter alchLambda to 0.4499999999999996
Info: NONBONDED TABLE R-SQUARED SPACING: 0.0625
Info: NONBONDED TABLE SIZE: 705 POINTS
TCL: Setting parameter alchLambda2 to 0.39999999999999963
Info: NONBONDED TABLE R-SQUARED SPACING: 0.0625
Info: NONBONDED TABLE SIZE: 705 POINTS
TCL: Running for 1500000 steps
ETITLE: TS BOND ANGLE DIHED IMPRP ELECT VDW BOUNDARY MISC KINETIC TOTAL TEMP POTENTIAL TOTALAVG TEMPAVG PRESSURE GPRESSURE VOLUME PRESSAVG GPRESSAVG
ENERGY: 0 0.0913 5.0909 0.2479 0.0000 -10598.0417 1512.7422 0.0000 0.0000 1781.3864 -7298.4831 308.9023 -9079.8695 -7298.4831 308.9023 977.9392 1046.6591 29589.1910 977.9392 1046.6591
ENERGY: 300000 1.4717 3.9757 0.7576 0.0000 -10508.1014 1349.9274 0.0000 0.0000 1757.0609 -7394.9080 304.6841 -9151.9689 -7345.7498 305.2890 -641.4946 -583.5870 29887.3733 -275.3682 -206.7266
ENERGY: 600000 0.4276 6.1757 0.0841 0.0000 -10476.1683 1354.7543 0.0000 0.0000 1780.5133 -7334.2133 308.7509 -9114.7266 -7351.7738 304.1669 -592.0252 -513.2073 29894.0040 -322.6240 -252.2558
ENERGY: 900000 0.3298 3.7798 1.1941 0.0000 -10395.7266 1325.2892 0.0000 0.0000 1713.8417 -7351.2919 297.1897 -9065.1337 -7351.1035 304.0667 -598.3790 -535.3268 29947.6599 -378.0284 -309.4936
ENERGY: 1200000 0.7929 1.9239 0.4658 0.0000 -10523.0414 1447.0424 0.0000 0.0000 1729.4400 -7343.3765 299.8945 -9072.8165 -7349.4120 303.3075 332.6721 432.5746 29778.6043 -272.1630 -199.4976
ENERGY: 1500000 1.3025 6.0560 0.1649 0.0000 -10580.2654 1480.1279 0.0000 0.0000 1709.3976 -7383.2165 296.4190 -9092.6141 -7342.4330 302.9509 641.7134 711.1888 29625.9345 -249.2683 -173.6687
TCL: Running FEP window  13: Lambda1 0.39999999999999963 Lambda2 0.34999999999999964 [dLambda -0.04999999999999999]
TCL: Setting parameter firsttimestep to 0
TCL: Setting parameter alchLambda to 0.39999999999999963
Info: NONBONDED TABLE R-SQUARED SPACING: 0.0625
Info: NONBONDED TABLE SIZE: 705 POINTS
TCL: Setting parameter alchLambda2 to 0.34999999999999964
Info: NONBONDED TABLE R-SQUARED SPACING: 0.0625
Info: NONBONDED TABLE SIZE: 705 POINTS
TCL: Running for 1500000 steps
ETITLE: TS BOND ANGLE DIHED IMPRP ELECT VDW BOUNDARY MISC KINETIC TOTAL TEMP POTENTIAL TOTALAVG TEMPAVG PRESSURE GPRESSURE VOLUME PRESSAVG GPRESSAVG
ENERGY: 0 1.3025 6.0560 0.1649 0.0000 -10580.2644 1480.0893 0.0000 0.0000 1708.4986 -7384.1530 296.2631 -9092.6517 -7384.1530 296.2631 612.7984 707.2956 29625.9345 612.7984 707.2956
ENERGY: 300000 0.8186 3.2957 0.1112 0.0000 -10545.7197 1406.7294 0.0000 0.0000 1705.0821 -7429.6827 295.6707 -9134.7648 -7367.7248 299.1928 24.5008 67.5194 29266.4973 93.5157 159.3564
ENERGY: 600000 2.0527 3.2406 1.2913 0.0000 -10587.4847 1401.7445 0.0000 0.0000 1798.5780 -7380.5776 311.8834 -9179.1556 -7376.3633 301.9525 -191.1339 -78.8750 29475.2957 118.9176 196.1054
ENERGY: 900000 1.6827 4.2048 0.6471 0.0000 -10474.1796 1383.4368 0.0000 0.0000 1741.6460 -7342.5621 302.0111 -9084.2081 -7364.9644 301.9724 -280.3103 -258.0228 30175.0100 5.9292 78.6522
ENERGY: 1200000 1.1732 3.5830 0.3270 0.0000 -10549.0994 1410.6022 0.0000 0.0000 1746.2165 -7387.1974 302.8036 -9133.4139 -7361.8454 302.3194 -238.6883 -147.3527 29792.6953 -7.5032 68.1110
ENERGY: 1500000 0.5145 2.2528 0.1251 0.0000 -10546.7742 1372.1726 0.0000 0.0000 1708.1354 -7463.5738 296.2002 -9171.7092 -7364.7723 301.2427 -524.2472 -478.9069 29651.2520 -90.8698 -18.9309
TCL: Running FEP window  14: Lambda1 0.34999999999999964 Lambda2 0.29999999999999966 [dLambda -0.04999999999999999]
TCL: Setting parameter firsttimestep to 0
TCL: Setting parameter alchLambda to 0.34999999999999964
Info: NONBONDED TABLE R-SQUARED SPACING: 0.0625
Info: NONBONDED TABLE SIZE: 705 POINTS
TCL: Setting parameter alchLambda2 to 0.29999999999999966
Info: NONBONDED TABLE R-SQUARED SPACING: 0.0625
Info: NONBONDED TABLE SIZE: 705 POINTS
TCL: Running for 1500000 steps
ETITLE: TS BOND ANGLE DIHED IMPRP ELECT VDW BOUNDARY MISC KINETIC TOTAL TEMP POTENTIAL TOTALAVG TEMPAVG PRESSURE GPRESSURE VOLUME PRESSAVG GPRESSAVG
ENERGY: 0 0.5145 2.2528 0.1251 0.0000 -10546.7742 1372.7123 0.0000 0.0000 1707.2732 -7463.8963 296.0506 -9171.1695 -7463.8963 296.0506 -561.2260 -479.8719 29651.2520 -561.2260 -479.8719
ENERGY: 300000 3.4393 5.6677 0.2511 0.0000 -10378.1363 1326.0043 0.0000 0.0000 1746.5679 -7296.2061 302.8646 -9042.7740 -7349.8239 297.8013 -640.5990 -578.0278 29864.1706 -321.0123 -241.0138
ENERGY: 600000 1.3115 3.9236 0.7585 0.0000 -10590.3448 1419.9532 0.0000 0.0000 1711.9944 -7452.4036 296.8693 -9164.3979 -7367.2722 297.1391 -37.7799 4.4841 29700.3413 -184.9414 -122.8443
ENERGY: 900000 1.2317 4.6176 0.2351 0.0000 -10366.5016 1361.5304 0.0000 0.0000 1738.3624 -7260.5244 301.4417 -8998.8867 -7358.9703 297.8309 -364.8552 -296.8224 30060.5397 -246.8502 -190.9556
ENERGY: 1200000 0.8083 4.1897 1.0356 0.0000 -10588.3129 1428.6187 0.0000 0.0000 1722.3914 -7431.2692 298.6722 -9153.6606 -7356.9991 299.1576 26.2596 68.2558 29671.2650 -184.3346 -125.6720
ENERGY: 1500000 0.3242 4.0384 0.1892 0.0000 -10546.0604 1448.9862 0.0000 0.0000 1742.4826 -7350.0399 302.1561 -9092.5225 -7352.5211 299.7510 236.7990 317.8318 29902.7330 -145.3980 -81.9812
TCL: Running FEP window  15: Lambda1 0.29999999999999966 Lambda2 0.24999999999999967 [dLambda -0.04999999999999999]
TCL: Setting parameter firsttimestep to 0
TCL: Setting parameter alchLambda to 0.29999999999999966
Info: NONBONDED TABLE R-SQUARED SPACING: 0.0625
Info: NONBONDED TABLE SIZE: 705 POINTS
TCL: Setting parameter alchLambda2 to 0.24999999999999967
Info: NONBONDED TABLE R-SQUARED SPACING: 0.0625
Info: NONBONDED TABLE SIZE: 705 POINTS
TCL: Running for 1500000 steps
ETITLE: TS BOND ANGLE DIHED IMPRP ELECT VDW BOUNDARY MISC KINETIC TOTAL TEMP POTENTIAL TOTALAVG TEMPAVG PRESSURE GPRESSURE VOLUME PRESSAVG GPRESSAVG
ENERGY: 0 0.3242 4.0384 0.1892 0.0000 -10546.0610 1449.2262 0.0000 0.0000 1741.5854 -7350.6976 302.0006 -9092.2830 -7350.6976 302.0006 231.5340 317.1566 29902.7330 231.5340 317.1566
ENERGY: 300000 0.2717 6.4151 0.2767 0.0000 -10425.2789 1370.1922 0.0000 0.0000 1698.2866 -7349.8368 294.4923 -9048.1234 -7385.2484 296.0565 -382.3452 -382.4753 29930.6956 -373.1385 -311.6399
ENERGY: 600000 2.1211 10.2986 0.6346 0.0000 -10548.3925 1468.1073 0.0000 0.0000 1757.5594 -7309.6714 304.7706 -9067.2309 -7369.1709 298.5867 301.2541 390.7023 29878.3987 -128.6186 -56.2242
ENERGY: 900000 0.7623 5.4936 0.3714 0.0000 -10622.4692 1456.3665 0.0000 0.0000 1715.7183 -7443.7570 297.5151 -9159.4753 -7374.9372 298.9666 384.4900 469.2938 29431.7827 -0.3065 69.6013
ENERGY: 1200000 0.6084 3.4068 0.3843 0.0000 -10560.3345 1409.9006 0.0000 0.0000 1678.3014 -7467.7331 291.0268 -9146.0344 -7384.8339 298.7209 -181.4215 -97.4951 29729.1777 -8.1140 69.3351
ENERGY: 1500000 0.7223 3.2334 1.1449 0.0000 -10602.9636 1462.9507 0.0000 0.0000 1700.5339 -7434.3784 294.8820 -9134.9122 -7383.6917 298.8064 327.1739 390.1559 29545.7191 -29.3677 43.1923
TCL: Running FEP window  16: Lambda1 0.24999999999999967 Lambda2 0.19999999999999968 [dLambda -0.04999999999999999]
TCL: Setting parameter firsttimestep to 0
TCL: Setting parameter alchLambda to 0.24999999999999967
Info: NONBONDED TABLE R-SQUARED SPACING: 0.0625
Info: NONBONDED TABLE SIZE: 705 POINTS
TCL: Setting parameter alchLambda2 to 0.19999999999999968
Info: NONBONDED TABLE R-SQUARED SPACING: 0.0625
Info: NONBONDED TABLE SIZE: 705 POINTS
TCL: Running for 1500000 steps
ETITLE: TS BOND ANGLE DIHED IMPRP ELECT VDW BOUNDARY MISC KINETIC TOTAL TEMP POTENTIAL TOTALAVG TEMPAVG PRESSURE GPRESSURE VOLUME PRESSAVG GPRESSAVG
ENERGY: 0 0.7223 3.2334 1.1449 0.0000 -10602.9629 1462.0255 0.0000 0.0000 1699.7114 -7436.1253 294.7394 -9135.8367 -7436.1253 294.7394 288.6890 380.8166 29545.7191 288.6890 380.8166
ENERGY: 300000 0.3561 3.9840 0.8445 0.0000 -10404.8623 1360.7860 0.0000 0.0000 1743.8449 -7295.0469 302.3924 -9038.8918 -7377.7089 297.1804 -348.9773 -291.1502 29854.0855 -493.4859 -434.5924
ENERGY: 600000 0.1316 5.7003 0.4180 0.0000 -10594.2093 1428.3534 0.0000 0.0000 1739.9996 -7419.6062 301.7256 -9159.6059 -7379.3444 298.4961 -166.0991 -22.5191 29898.9332 -262.1021 -189.5064
ENERGY: 900000 0.6346 4.6923 0.3831 0.0000 -10529.7599 1415.0113 0.0000 0.0000 1741.0109 -7368.0276 301.9009 -9109.0385 -7389.4300 298.4191 -271.9653 -193.3174 30001.5289 -281.9535 -217.0148
ENERGY: 1200000 1.0905 5.3838 0.1045 0.0000 -10525.7674 1414.1182 0.0000 0.0000 1731.6114 -7373.4589 300.2710 -9105.0703 -7395.0274 298.0922 30.6199 158.9357 29320.4244 -210.9839 -143.4936
ENERGY: 1500000 0.9699 4.9699 0.7904 0.0000 -10397.5466 1287.3745 0.0000 0.0000 1829.9384 -7273.5035 317.3215 -9103.4419 -7385.8523 298.6565 -1080.5357 -1017.7969 29767.4379 -328.9850 -263.0250
TCL: Running FEP window  17: Lambda1 0.19999999999999968 Lambda2 0.1499999999999997 [dLambda -0.04999999999999999]
TCL: Setting parameter firsttimestep to 0
TCL: Setting parameter alchLambda to 0.19999999999999968
Info: NONBONDED TABLE R-SQUARED SPACING: 0.0625
Info: NONBONDED TABLE SIZE: 705 POINTS
TCL: Setting parameter alchLambda2 to 0.1499999999999997
Info: NONBONDED TABLE R-SQUARED SPACING: 0.0625
Info: NONBONDED TABLE SIZE: 705 POINTS
TCL: Running for 1500000 steps
ETITLE: TS BOND ANGLE DIHED IMPRP ELECT VDW BOUNDARY MISC KINETIC TOTAL TEMP POTENTIAL TOTALAVG TEMPAVG PRESSURE GPRESSURE VOLUME PRESSAVG GPRESSAVG
ENERGY: 0 0.9699 4.9699 0.7904 0.0000 -10397.5487 1287.2092 0.0000 0.0000 1829.0754 -7274.5339 317.1718 -9103.6093 -7274.5339 317.1718 -1108.3116 -1023.4064 29767.4379 -1108.3116 -1023.4064
ENERGY: 300000 1.0806 3.0433 0.3292 0.0000 -10488.7125 1410.5730 0.0000 0.0000 1731.4240 -7342.2624 300.2385 -9073.6864 -7357.6923 303.8500 -29.1986 6.3404 30166.1447 -394.5025 -325.0838
ENERGY: 600000 2.0376 5.5131 0.4828 0.0000 -10329.7138 1316.8759 0.0000 0.0000 1752.2710 -7252.5333 303.8535 -9004.8043 -7358.7206 301.7092 -616.9083 -590.0705 30073.0999 -331.2382 -259.5883
ENERGY: 900000 0.2951 4.4026 0.9555 0.0000 -10471.1755 1400.6733 0.0000 0.0000 1674.8208 -7390.0282 290.4232 -9064.8490 -7364.6234 300.4186 -169.9264 -142.5270 30168.3610 -195.3796 -134.1819
ENERGY: 1200000 0.0700 4.0220 0.2926 0.0000 -10403.8081 1323.6459 0.0000 0.0000 1754.7362 -7321.0414 304.2810 -9075.7776 -7354.3745 301.2155 -525.9458 -476.7808 29667.4908 -245.3132 -189.8532
ENERGY: 1500000 1.0139 2.6223 0.1144 0.0000 -10554.2300 1391.3033 0.0000 0.0000 1739.4788 -7419.6974 301.6353 -9159.1761 -7364.1653 301.0720 -533.1447 -512.7180 30006.6302 -337.8449 -280.0875
TCL: Running FEP window  18: Lambda1 0.1499999999999997 Lambda2 0.09999999999999969 [dLambda -0.05 ]
TCL: Setting parameter firsttimestep to 0
TCL: Setting parameter alchLambda to 0.1499999999999997
Info: NONBONDED TABLE R-SQUARED SPACING: 0.0625
Info: NONBONDED TABLE SIZE: 705 POINTS
TCL: Setting parameter alchLambda2 to 0.09999999999999969
Info: NONBONDED TABLE R-SQUARED SPACING: 0.0625
Info: NONBONDED TABLE SIZE: 705 POINTS
TCL: Running for 1500000 steps
ETITLE: TS BOND ANGLE DIHED IMPRP ELECT VDW BOUNDARY MISC KINETIC TOTAL TEMP POTENTIAL TOTALAVG TEMPAVG PRESSURE GPRESSURE VOLUME PRESSAVG GPRESSAVG
ENERGY: 0 1.0139 2.6223 0.1144 0.0000 -10554.2301 1391.6766 0.0000 0.0000 1738.5873 -7420.2156 301.4807 -9158.8030 -7420.2156 301.4807 -597.4728 -513.1024 30006.6302 -597.4728 -513.1024
ENERGY: 300000 1.2199 2.8430 0.1990 0.0000 -10466.8530 1374.9891 0.0000 0.0000 1783.5117 -7304.0902 309.2708 -9087.6019 -7396.5597 300.8245 -426.2886 -350.2057 30201.9590 -319.3045 -239.8995
ENERGY: 600000 0.6569 5.4631 0.2023 0.0000 -10531.6189 1430.6734 0.0000 0.0000 1713.7889 -7380.8343 297.1805 -9094.6232 -7394.0151 299.5213 -83.2372 -26.7559 30053.9994 -148.2672 -81.9405
ENERGY: 900000 0.8491 3.3077 0.4698 0.0000 -10540.2416 1416.8278 0.0000 0.0000 1726.8607 -7391.9265 299.4472 -9118.7871 -7386.8964 299.6854 -22.5316 87.6389 29275.0882 -165.7661 -107.6651
ENERGY: 1200000 1.1686 5.0154 0.1157 0.0000 -10449.6802 1415.6111 0.0000 0.0000 1712.9168 -7314.8525 297.0293 -9027.7694 -7381.3241 299.2964 227.5501 284.7233 29806.8861 -105.9692 -53.9195
ENERGY: 1500000 1.1554 5.4606 1.3374 0.0000 -10416.1582 1344.5479 0.0000 0.0000 1753.3030 -7310.3538 304.0325 -9063.6568 -7364.8372 300.5912 -557.1457 -513.6800 29741.3031 -158.7833 -106.9968
TCL: Running FEP window  19: Lambda1 0.09999999999999969 Lambda2 0.049999999999999684 [dLambda -0.05 ]
TCL: Setting parameter firsttimestep to 0
TCL: Setting parameter alchLambda to 0.09999999999999969
Info: NONBONDED TABLE R-SQUARED SPACING: 0.0625
Info: NONBONDED TABLE SIZE: 705 POINTS
TCL: Setting parameter alchLambda2 to 0.049999999999999684
Info: NONBONDED TABLE R-SQUARED SPACING: 0.0625
Info: NONBONDED TABLE SIZE: 705 POINTS
TCL: Running for 1500000 steps
ETITLE: TS BOND ANGLE DIHED IMPRP ELECT VDW BOUNDARY MISC KINETIC TOTAL TEMP POTENTIAL TOTALAVG TEMPAVG PRESSURE GPRESSURE VOLUME PRESSAVG GPRESSAVG
ENERGY: 0 1.1554 5.4606 1.3374 0.0000 -10416.1562 1344.2639 0.0000 0.0000 1752.4505 -7311.4883 303.8846 -9063.9388 -7311.4883 303.8846 -608.5105 -518.8821 29741.3031 -608.5105 -518.8821
ENERGY: 300000 0.1569 6.2207 1.0812 0.0000 -10604.2996 1479.8825 0.0000 0.0000 1750.6241 -7366.3342 303.5679 -9116.9583 -7357.5762 302.8103 571.1326 754.7664 29230.4441 13.2865 115.1032
ENERGY: 600000 1.0113 3.6413 0.9598 0.0000 -10463.1618 1369.0174 0.0000 0.0000 1756.1487 -7332.3835 304.5259 -9088.5322 -7367.9297 302.4182 -356.5205 -283.7335 29835.5108 -54.7978 29.7983
ENERGY: 900000 0.4657 4.5880 1.0051 0.0000 -10469.7847 1324.2371 0.0000 0.0000 1709.2351 -7430.2537 296.3908 -9139.4888 -7379.8445 300.4582 -916.3804 -785.8925 29719.6280 -148.1625 -60.8012
ENERGY: 1200000 0.3535 5.0464 2.6276 0.0000 -10369.7721 1331.1978 0.0000 0.0000 1747.8220 -7282.7249 303.0820 -9030.5469 -7372.2097 300.1869 -552.4738 -480.6972 29903.2469 -154.8956 -73.5441
ENERGY: 1500000 2.8165 3.4190 0.6964 0.0000 -10592.1797 1510.3932 0.0000 0.0000 1734.3785 -7340.4760 300.7508 -9074.8545 -7364.6844 300.6450 541.9327 555.6285 30271.5865 -84.6177 -14.4183
TCL: Running FEP window  20: Lambda1 0.049999999999999684 Lambda2 0.0    [dLambda -0.049999999999999684]
TCL: Setting parameter firsttimestep to 0
TCL: Setting parameter alchLambda to 0.049999999999999684
Info: NONBONDED TABLE R-SQUARED SPACING: 0.0625
Info: NONBONDED TABLE SIZE: 705 POINTS
TCL: Setting parameter alchLambda2 to 0.0
Info: NONBONDED TABLE R-SQUARED SPACING: 0.0625
Info: NONBONDED TABLE SIZE: 705 POINTS
TCL: Running for 1500000 steps
ETITLE: TS BOND ANGLE DIHED IMPRP ELECT VDW BOUNDARY MISC KINETIC TOTAL TEMP POTENTIAL TOTALAVG TEMPAVG PRESSURE GPRESSURE VOLUME PRESSAVG GPRESSAVG
ENERGY: 0 2.8165 3.4190 0.6964 0.0000 -10592.1805 1510.5275 0.0000 0.0000 1733.5003 -7341.2208 300.5986 -9074.7211 -7341.2208 300.5986 479.0662 553.7357 30271.5865 479.0662 553.7357
ENERGY: 300000 0.3363 4.4867 1.7034 0.0000 -10481.5871 1399.3137 0.0000 0.0000 1694.8725 -7380.8744 293.9003 -9075.7469 -7352.8454 300.5216 -52.1713 119.4524 29373.7246 92.6302 174.6260
ENERGY: 600000 2.2334 10.4460 0.3566 0.0000 -10422.7014 1373.7609 0.0000 0.0000 1731.9567 -7303.9478 300.3309 -9035.9045 -7351.8372 300.5690 -219.9388 -203.5450 29976.4756 -145.7776 -76.9742
ENERGY: 900000 0.6286 5.4412 0.6038 0.0000 -10377.5254 1332.1850 0.0000 0.0000 1732.0785 -7306.5884 300.3520 -9038.6669 -7345.6115 300.2717 -774.2178 -710.9411 30246.3886 -183.1936 -114.9279
ENERGY: 1200000 2.3538 6.9344 0.1909 0.0000 -10448.3955 1440.6359 0.0000 0.0000 1756.0219 -7242.2586 304.5039 -8998.2805 -7340.0557 301.1122 206.4214 288.6803 29873.8780 -127.7104 -54.3253
ENERGY: 1500000 0.9892 5.5235 0.7598 0.0000 -10579.0621 1479.0056 0.0000 0.0000 1769.1245 -7323.6595 306.7760 -9092.7840 -7345.1551 300.3545 299.1170 337.5241 30244.1403 -96.0143 -26.4738
TCL: Exiting due to exit command.
