Info: SIMULATION PARAMETERS:
Info: TIMESTEP               2
Info: NUMBER OF STEPS        0
Info: STEPS PER CYCLE        10
Info: PERIODIC CELL BASIS 1  33.1524 0 0
Info: PERIODIC CELL BASIS 2  0 30.3853 0
Info: PERIODIC CELL BASIS 3  0 0 30.5724
Info: PERIODIC CELL CENTER   0 0 0
Info: WRAPPING WATERS AROUND PERIODIC BOUNDARIES ON OUTPUT.
Info: WRAPPING ALL CLUSTERS AROUND PERIODIC BOUNDARIES ON OUTPUT.
Info: FIRST LDB TIMESTEP     50
Info: LAST LDB TIMESTEP     -1
Info: HOM BACKGROUND SCALING 1
Info: PME BACKGROUND SCALING 1
Info: MIN ATOMS PER PATCH    40
Info: EMPTY PATCH LOAD       40 ATOMS
Info: VELOCITY FILE          mobley_242480_equil.vel
Info: CENTER OF MASS MOVING INITIALLY? NO
Info: DIELECTRIC             1
Info: EXCLUDE                SCALED ONE-FOUR
Info: 1-4 ELECTROSTATICS SCALED BY 0.833333
Info: MODIFIED 1-4 VDW PARAMETERS WILL BE USED
Info: DCD FILENAME           mobley_242480_prod.dcd
Info: DCD FREQUENCY          100000
Info: DCD FIRST STEP         100000
Info: DCD FILE WILL CONTAIN UNIT CELL DATA
Info: XST FILENAME           mobley_242480_prod.xst
Info: XST FREQUENCY          100000
Info: NO VELOCITY DCD OUTPUT
Info: NO FORCE DCD OUTPUT
Info: OUTPUT FILENAME        mobley_242480_prod
Info: BINARY OUTPUT FILES WILL BE USED
Info: RESTART FILENAME       mobley_242480_prod.restart
Info: RESTART FREQUENCY      100000
Info: BINARY RESTART FILES WILL BE USED
Info: CUTOFF                 9
Info: PAIRLIST DISTANCE      11
Info: PAIRLIST SHRINK RATE   0.01
Info: PAIRLIST GROW RATE     0.01
Info: PAIRLIST TRIGGER       0.3
Info: PAIRLISTS PER CYCLE    2
Info: PAIRLISTS ENABLED
Info: MARGIN                 2
Info: HYDROGEN GROUP CUTOFF  2.5
Info: PATCH DIMENSION        15.5
Info: ENERGY OUTPUT STEPS    100000
Info: ENERGY EVALUATION STEPS    100000
Info: OUTPUT ENERGY PRECISION 4
Info: CROSSTERM ENERGY INCLUDED IN DIHEDRAL
Info: TIMING OUTPUT STEPS    1000000
Info: PRESSURE OUTPUT STEPS  100000
Info: ALCHEMICAL FEP ON
Info: FEP CURRENT LAMBDA VALUE     0
Info: FEP COMPARISON LAMBDA VALUE  0.05
Info: FEP INTRA-ALCHEMICAL NON-BONDED INTERACTIONS WILL BE RETAINED
Info: FEP INTRA-ALCHEMICAL BONDED INTERACTIONS WILL BE RETAINED
Info: FEP VDW SHIFTING COEFFICIENT 5
Info: FEP ELEC. ACTIVE FOR ANNIHILATED PARTICLES BETWEEN LAMBDA = 0 AND LAMBDA = 0.5
Info: FEP ELEC. ACTIVE FOR EXNIHILATED PARTICLES BETWEEN LAMBDA = 0.5 AND LAMBDA = 1
Info: FEP VDW ACTIVE FOR ANNIHILATED PARTICLES BETWEEN LAMBDA = 0 AND LAMBDA = 1
Info: FEP VDW ACTIVE FOR EXNIHILATED PARTICLES BETWEEN LAMBDA = 0 AND LAMBDA = 1
Info: FEP BOND ACTIVE FOR ANNIHILATED PARTICLES BETWEEN LAMBDA = 1 AND LAMBDA = 1
Info: FEP BOND ACTIVE FOR EXNIHILATED PARTICLES BETWEEN LAMBDA = 0 AND LAMBDA = 0
Info: LANGEVIN DYNAMICS ACTIVE
Info: LANGEVIN TEMPERATURE   300
Info: LANGEVIN USING BBK INTEGRATOR
Info: LANGEVIN DAMPING COEFFICIENT IS 1 INVERSE PS
Info: LANGEVIN DYNAMICS APPLIED TO HYDROGENS
Info: LANGEVIN PISTON PRESSURE CONTROL ACTIVE
Info:        TARGET PRESSURE IS 1.01325 BAR
Info:     OSCILLATION PERIOD IS 50 FS
Info:             DECAY TIME IS 25 FS
Info:     PISTON TEMPERATURE IS 300 K
Info:       PRESSURE CONTROL IS GROUP-BASED
Info:    INITIAL STRAIN RATE IS 0.000643636 0.000643636 0.000643636
Info:       CELL FLUCTUATION IS ISOTROPIC
Info: PARTICLE MESH EWALD (PME) ACTIVE
Info: PME TOLERANCE               1e-06
Info: PME EWALD COEFFICIENT       0.348832
Info: PME INTERPOLATION ORDER     4
Info: PME GRID DIMENSIONS         36 32 32
Info: PME MAXIMUM GRID SPACING    1
Info: PME CALCULATION WILL BE PERFORMED ON GPU
Info: FULL ELECTROSTATIC EVALUATION FREQUENCY      2
Info: USING VERLET I (r-RESPA) MTS SCHEME.
Info: C1 SPLITTING OF LONG RANGE ELECTROSTATICS
Info: PLACING ATOMS IN PATCHES BY HYDROGEN GROUPS
Info: RIGID BONDS TO HYDROGEN : ALL
Info:         ERROR TOLERANCE : 1e-08
Info:          MAX ITERATIONS : 100
Info: RIGID WATER USING SETTLE ALGORITHM
Info: RANDOM NUMBER SEED     1743666150
Info: USE HYDROGEN BONDS?    NO
Info: Using AMBER format force field!
Info: AMBER PARM FILE        mobley_242480.prmtop
Info: COORDINATE PDB         mobley_242480.pdb
Info: Exclusions will be read from PARM file!
Info: SCNB (VDW SCALING)     2
Info: USING ARITHMETIC MEAN TO COMBINE L-J SIGMA PARAMETERS
Info: BINARY COORDINATES     mobley_242480_equil.coor
Info: SUMMARY OF PARAMETERS:
Info: 8 BONDS
Info: 8 ANGLES
Info:   8 HARMONIC
Info:   0 COSINE-BASED
Info: 5 DIHEDRAL
Info: 0 IMPROPER
Info: 0 CROSSTERM
Info: 0 VDW
Info: 28 VDW_PAIRS
Info: 0 NBTHOLE_PAIRS
Info: To read alchdata from file: mobley_242480.pdb
Info: To read alchflag data from column: 5
Info: STRUCTURE SUMMARY:
Info: 2962 ATOMS
Info: 2964 BONDS
Info: 48 ANGLES
Info: 88 DIHEDRALS
Info: 0 IMPROPERS
Info: 0 CROSSTERMS
Info: 3075 EXCLUSIONS
Info: 2944 RIGID BONDS
Info: ALCH: 0 ATOMS TO DISAPPEAR IN FINAL STATE
Info: ALCH: 28 ATOMS TO APPEAR IN FINAL STATE
Info: 5942 DEGREES OF FREEDOM
Info: 996 HYDROGEN GROUPS
Info: 3 ATOMS IN LARGEST HYDROGEN GROUP
Info: 996 MIGRATION GROUPS
Info: 3 ATOMS IN LARGEST MIGRATION GROUP
Info: TOTAL MASS = 17857.9 amu
Info: TOTAL CHARGE = 0.000299968 e
Info: MASS DENSITY = 0.962898 g/cm^3
Info: ATOM DENSITY = 0.096178 atoms/A^3
Info: ADDED 0 IMPLICIT EXCLUSIONS
Info: NONBONDED TABLE R-SQUARED SPACING: 0.0625
Info: NONBONDED TABLE SIZE: 705 POINTS
Info: REMOVING COM VELOCITY 0.147962 0.000151955 -0.0620166
Info: Use 3D box decompostion in PME FFT.
Info: Updated CUDA force table with 4096 elements.
Info: Updated CUDA LJ table with 7 x 7 elements.
Info: Found 29 unique exclusion lists needing 100 bytes
TCL: Running for 1500000 steps
ETITLE: TS BOND ANGLE DIHED IMPRP ELECT VDW BOUNDARY MISC KINETIC TOTAL TEMP POTENTIAL TOTALAVG TEMPAVG PRESSURE GPRESSURE VOLUME PRESSAVG GPRESSAVG
ENERGY: 0 5.4635 10.5671 9.2538 0.0000 -10900.1920 1584.0567 0.0000 0.0000 1774.5510 -7516.2998 300.5704 -9290.8508 -7516.2998 300.5704 754.3560 820.5280 30797.0501 754.3560 820.5280
ENERGY: 300000 7.5913 8.7968 6.8832 0.0000 -10804.4578 1442.7768 0.0000 0.0000 1812.5855 -7525.8242 307.0126 -9338.4097 -7525.1646 300.2868 -241.3117 -123.6741 29841.0868 -172.8777 -93.0797
ENERGY: 600000 3.9240 9.6967 9.3038 0.0000 -10835.3462 1500.6938 0.0000 0.0000 1782.2009 -7529.5270 301.8661 -9311.7279 -7520.1415 300.8377 245.8718 339.7862 29945.6680 70.9918 143.6784
ENERGY: 900000 5.0572 8.5109 8.8561 0.0000 -10775.9762 1462.0590 0.0000 0.0000 1788.1158 -7503.3772 302.8680 -9291.4930 -7508.9567 300.9961 -323.3411 -238.4313 30338.1511 -60.3194 23.2314
ENERGY: 1200000 6.9349 8.1472 10.2153 0.0000 -10785.7249 1505.5520 0.0000 0.0000 1810.1817 -7444.6938 306.6055 -9254.8755 -7500.6458 301.2194 464.4636 531.4330 30216.8969 58.8593 142.4208
ENERGY: 1500000 9.8069 9.5838 12.0618 0.0000 -10652.0009 1382.4793 0.0000 0.0000 1763.9672 -7474.1019 298.7777 -9238.0691 -7502.5102 299.6745 -762.7083 -712.1275 30172.9418 -29.1263 52.4771
TCL: Running FEP window   2: Lambda1 0.05   Lambda2 0.1    [dLambda 0.05  ]
TCL: Setting parameter firsttimestep to 0
TCL: Setting parameter alchLambda to 0.05
Info: NONBONDED TABLE R-SQUARED SPACING: 0.0625
Info: NONBONDED TABLE SIZE: 705 POINTS
TCL: Setting parameter alchLambda2 to 0.1
Info: NONBONDED TABLE R-SQUARED SPACING: 0.0625
Info: NONBONDED TABLE SIZE: 705 POINTS
TCL: Running for 1500000 steps
ETITLE: TS BOND ANGLE DIHED IMPRP ELECT VDW BOUNDARY MISC KINETIC TOTAL TEMP POTENTIAL TOTALAVG TEMPAVG PRESSURE GPRESSURE VOLUME PRESSAVG GPRESSAVG
ENERGY: 0 9.8069 9.5838 12.0618 0.0000 -10652.0021 1389.3391 0.0000 0.0000 1763.0499 -7468.1605 298.6224 -9231.2104 -7468.1605 298.6224 -785.2188 -699.0917 30172.9418 -785.2188 -699.0917
ENERGY: 300000 7.9891 9.9577 4.4350 0.0000 -10722.1055 1433.3793 0.0000 0.0000 1771.7121 -7494.6323 300.0896 -9266.3444 -7444.0717 302.2974 -362.4260 -246.2115 30413.4312 -67.6503 -13.5148
ENERGY: 600000 4.5459 9.3851 7.8521 0.0000 -10684.4263 1435.0139 0.0000 0.0000 1756.8472 -7470.7821 297.5718 -9227.6293 -7468.5266 298.8748 -148.6504 -25.0982 30328.7551 -170.2474 -100.0307
ENERGY: 900000 10.9867 15.0137 4.7411 0.0000 -10548.6059 1414.8647 0.0000 0.0000 1767.2109 -7335.7887 299.3272 -9102.9996 -7446.6971 299.6398 -244.2491 -151.3250 30453.4839 -112.3022 -47.7584
ENERGY: 1200000 7.6260 8.4419 6.6247 0.0000 -10699.2148 1434.2640 0.0000 0.0000 1808.2389 -7434.0192 306.2764 -9242.2581 -7444.6739 300.0137 82.2815 77.1855 29728.2906 -88.2508 -26.4814
ENERGY: 1500000 4.0116 6.8704 11.1762 0.0000 -10706.1734 1477.4157 0.0000 0.0000 1806.9564 -7399.7432 306.0592 -9206.6996 -7441.6642 300.3711 414.3129 480.6166 30434.5706 -92.0778 -30.1014
TCL: Running FEP window   3: Lambda1 0.1    Lambda2 0.15000000000000002 [dLambda 0.05000000000000002]
TCL: Setting parameter firsttimestep to 0
TCL: Setting parameter alchLambda to 0.1
Info: NONBONDED TABLE R-SQUARED SPACING: 0.0625
Info: NONBONDED TABLE SIZE: 705 POINTS
TCL: Setting parameter alchLambda2 to 0.15000000000000002
Info: NONBONDED TABLE R-SQUARED SPACING: 0.0625
Info: NONBONDED TABLE SIZE: 705 POINTS
TCL: Running for 1500000 steps
ETITLE: TS BOND ANGLE DIHED IMPRP ELECT VDW BOUNDARY MISC KINETIC TOTAL TEMP POTENTIAL TOTALAVG TEMPAVG PRESSURE GPRESSURE VOLUME PRESSAVG GPRESSAVG
ENERGY: 0 4.0116 6.8704 11.1762 0.0000 -10706.1715 1477.9534 0.0000 0.0000 1806.0685 -7400.0915 305.9088 -9206.1600 -7400.0915 305.9088 411.6350 491.0907 30434.5706 411.6350 491.0907
ENERGY: 300000 4.3910 10.5460 11.9439 0.0000 -10711.9820 1472.7965 0.0000 0.0000 1856.0737 -7356.2309 314.3786 -9212.3047 -7432.3751 303.0541 52.4490 146.0244 30637.4077 242.5555 324.2841
ENERGY: 600000 5.8208 9.0060 8.4129 0.0000 -10723.1707 1472.9158 0.0000 0.0000 1795.9017 -7431.1136 304.1868 -9227.0153 -7436.8106 301.5777 411.0177 401.5796 30326.8142 102.8618 160.3077
ENERGY: 900000 6.8692 9.2619 7.6571 0.0000 -10819.1433 1473.3679 0.0000 0.0000 1817.8847 -7504.1025 307.9102 -9321.9872 -7436.7133 302.0470 -38.6470 9.7590 30159.5729 -52.1352 5.7761
ENERGY: 1200000 8.6584 9.1810 9.1845 0.0000 -10610.9373 1432.4648 0.0000 0.0000 1764.5374 -7386.9113 298.8743 -9151.4487 -7437.3415 301.4003 -8.4663 70.1496 30050.6560 -162.3508 -96.6609
ENERGY: 1500000 7.6738 7.4322 7.4457 0.0000 -10821.2887 1540.1967 0.0000 0.0000 1745.7512 -7512.7892 295.6923 -9258.5404 -7444.7484 301.5404 246.7738 316.5346 30759.3072 -200.2675 -129.9064
TCL: Running FEP window   4: Lambda1 0.15000000000000002 Lambda2 0.2    [dLambda 0.04999999999999999]
TCL: Setting parameter firsttimestep to 0
TCL: Setting parameter alchLambda to 0.15000000000000002
Info: NONBONDED TABLE R-SQUARED SPACING: 0.0625
Info: NONBONDED TABLE SIZE: 705 POINTS
TCL: Setting parameter alchLambda2 to 0.2
Info: NONBONDED TABLE R-SQUARED SPACING: 0.0625
Info: NONBONDED TABLE SIZE: 705 POINTS
TCL: Running for 1500000 steps
ETITLE: TS BOND ANGLE DIHED IMPRP ELECT VDW BOUNDARY MISC KINETIC TOTAL TEMP POTENTIAL TOTALAVG TEMPAVG PRESSURE GPRESSURE VOLUME PRESSAVG GPRESSAVG
ENERGY: 0 7.6738 7.4322 7.4457 0.0000 -10821.2893 1541.2184 0.0000 0.0000 1744.8606 -7512.6586 295.5415 -9257.5192 -7512.6586 295.5415 258.7408 322.3137 30759.3072 258.7408 322.3137
ENERGY: 300000 8.0788 11.6065 10.7767 0.0000 -10740.0185 1519.1001 0.0000 0.0000 1849.0290 -7341.4274 313.1854 -9190.4564 -7434.3252 304.9441 531.0795 573.1628 30521.1954 227.4177 279.9939
ENERGY: 600000 5.6479 8.0717 14.5180 0.0000 -10558.1442 1306.6379 0.0000 0.0000 1767.0488 -7456.2199 299.2997 -9223.2688 -7443.8340 303.2011 -1091.7180 -1024.1862 30445.4718 124.3735 205.8960
ENERGY: 900000 4.7403 10.2958 6.2137 0.0000 -10686.9860 1468.3533 0.0000 0.0000 1750.7900 -7446.5930 296.5458 -9197.3829 -7437.8285 301.4328 119.1007 195.1256 30623.1054 187.3475 267.8901
ENERGY: 1200000 11.3835 9.9119 10.5176 0.0000 -10749.0847 1426.2246 0.0000 0.0000 1770.7742 -7520.2729 299.9307 -9291.0471 -7452.2042 300.8337 -479.0365 -467.7152 30374.1175 87.6830 158.5250
ENERGY: 1500000 6.7894 6.9832 17.6710 0.0000 -10573.2772 1320.5319 0.0000 0.0000 1772.8377 -7448.4640 300.2802 -9221.3017 -7460.9254 301.1398 -1255.2707 -1201.0269 30702.8129 45.3394 117.7292
TCL: Running FEP window   5: Lambda1 0.2    Lambda2 0.25   [dLambda 0.04999999999999999]
TCL: Setting parameter firsttimestep to 0
TCL: Setting parameter alchLambda to 0.2
Info: NONBONDED TABLE R-SQUARED SPACING: 0.0625
Info: NONBONDED TABLE SIZE: 705 POINTS
TCL: Setting parameter alchLambda2 to 0.25
Info: NONBONDED TABLE R-SQUARED SPACING: 0.0625
Info: NONBONDED TABLE SIZE: 705 POINTS
TCL: Running for 1500000 steps
ETITLE: TS BOND ANGLE DIHED IMPRP ELECT VDW BOUNDARY MISC KINETIC TOTAL TEMP POTENTIAL TOTALAVG TEMPAVG PRESSURE GPRESSURE VOLUME PRESSAVG GPRESSAVG
ENERGY: 0 6.7894 6.9832 17.6710 0.0000 -10573.2770 1320.5433 0.0000 0.0000 1771.9498 -7449.3404 300.1298 -9221.2902 -7449.3404 300.1298 -1285.8533 -1193.0030 30702.8129 -1285.8533 -1193.0030
ENERGY: 300000 5.2023 6.8676 8.4188 0.0000 -10830.2206 1532.3238 0.0000 0.0000 1782.0216 -7495.3865 301.8358 -9277.4081 -7475.2708 299.4135 681.4268 738.9417 30199.7787 -209.6899 -126.7089
ENERGY: 600000 7.1556 8.7099 9.2482 0.0000 -10605.9083 1409.8466 0.0000 0.0000 1814.7702 -7356.1777 307.3827 -9170.9479 -7451.7345 301.1975 -174.2289 -117.0298 30531.9597 -55.5118 21.7749
ENERGY: 900000 7.2901 11.0698 6.6124 0.0000 -10682.9263 1429.9368 0.0000 0.0000 1750.5140 -7477.5032 296.4991 -9228.0172 -7476.7550 298.0236 -31.6730 25.9832 30246.9533 -37.2368 37.5592
ENERGY: 1200000 7.4097 7.8016 8.2039 0.0000 -10741.4148 1466.2280 0.0000 0.0000 1794.7189 -7457.0526 303.9864 -9251.7716 -7477.1606 298.4127 165.6949 206.3372 30454.6967 4.9892 70.9121
ENERGY: 1500000 12.4161 8.7964 5.7007 0.0000 -10632.9377 1374.2412 0.0000 0.0000 1821.1974 -7410.5859 308.4713 -9231.7833 -7474.3696 299.2510 -858.4932 -781.6206 30892.5789 11.1387 77.2309
TCL: Running FEP window   6: Lambda1 0.25   Lambda2 0.3    [dLambda 0.04999999999999999]
TCL: Setting parameter firsttimestep to 0
TCL: Setting parameter alchLambda to 0.25
Info: NONBONDED TABLE R-SQUARED SPACING: 0.0625
Info: NONBONDED TABLE SIZE: 705 POINTS
TCL: Setting parameter alchLambda2 to 0.3
Info: NONBONDED TABLE R-SQUARED SPACING: 0.0625
Info: NONBONDED TABLE SIZE: 705 POINTS
TCL: Running for 1500000 steps
ETITLE: TS BOND ANGLE DIHED IMPRP ELECT VDW BOUNDARY MISC KINETIC TOTAL TEMP POTENTIAL TOTALAVG TEMPAVG PRESSURE GPRESSURE VOLUME PRESSAVG GPRESSAVG
ENERGY: 0 12.4161 8.7964 5.7007 0.0000 -10632.9375 1374.4192 0.0000 0.0000 1820.3226 -7411.2824 308.3231 -9231.6050 -7411.2824 308.3231 -853.8640 -776.1442 30892.5789 -853.8640 -776.1442
ENERGY: 300000 6.6357 7.3560 8.9043 0.0000 -10748.9229 1475.2263 0.0000 0.0000 1785.8299 -7464.9707 302.4808 -9250.8005 -7413.5789 302.0235 -156.2329 -77.5276 30804.7910 -366.3395 -306.2856
ENERGY: 600000 8.9732 7.4100 12.8271 0.0000 -10791.9132 1496.3511 0.0000 0.0000 1753.1986 -7513.1531 296.9538 -9266.3517 -7428.7145 301.9953 300.0807 388.9447 30256.5523 -82.6958 -40.4119
ENERGY: 900000 4.9534 11.0108 14.9808 0.0000 -10600.1638 1350.1005 0.0000 0.0000 1782.9429 -7436.1755 301.9918 -9219.1184 -7432.8490 302.2061 -739.4230 -605.2534 30174.5874 -47.3027 2.7492
ENERGY: 1200000 10.2222 9.2523 10.4079 0.0000 -10636.8973 1452.5670 0.0000 0.0000 1770.3274 -7384.1205 299.8550 -9154.4479 -7424.9668 302.4693 -119.0581 -118.5331 30729.9566 -35.0328 10.1454
ENERGY: 1500000 8.1605 9.8054 9.9657 0.0000 -10674.8398 1410.3633 0.0000 0.0000 1775.1375 -7461.4075 300.6698 -9236.5450 -7424.8616 303.1082 -377.1564 -337.9925 30393.7922 -69.8101 -22.8487
TCL: Running FEP window   7: Lambda1 0.3    Lambda2 0.35   [dLambda 0.04999999999999999]
TCL: Setting parameter firsttimestep to 0
TCL: Setting parameter alchLambda to 0.3
Info: NONBONDED TABLE R-SQUARED SPACING: 0.0625
Info: NONBONDED TABLE SIZE: 705 POINTS
TCL: Setting parameter alchLambda2 to 0.35
Info: NONBONDED TABLE R-SQUARED SPACING: 0.0625
Info: NONBONDED TABLE SIZE: 705 POINTS
TCL: Running for 1500000 steps
ETITLE: TS BOND ANGLE DIHED IMPRP ELECT VDW BOUNDARY MISC KINETIC TOTAL TEMP POTENTIAL TOTALAVG TEMPAVG PRESSURE GPRESSURE VOLUME PRESSAVG GPRESSAVG
ENERGY: 0 8.1605 9.8054 9.9657 0.0000 -10674.8397 1410.2589 0.0000 0.0000 1774.2848 -7462.3644 300.5253 -9236.6492 -7462.3644 300.5253 -419.1380 -332.7171 30393.7922 -419.1380 -332.7171
ENERGY: 300000 4.2427 8.4358 5.6783 0.0000 -10765.1127 1523.5187 0.0000 0.0000 1762.9448 -7460.2923 298.6046 -9223.2371 -7448.5937 300.9505 684.1872 773.4260 30247.2530 1.4873 85.5510
ENERGY: 600000 10.2874 12.4593 16.0814 0.0000 -10787.5614 1568.4556 0.0000 0.0000 1803.1463 -7377.1312 305.4138 -9180.2776 -7445.7050 301.8603 756.2704 853.2172 30611.7520 23.2483 100.2863
ENERGY: 900000 5.2011 10.3590 7.5684 0.0000 -10538.8468 1355.8391 0.0000 0.0000 1784.8529 -7375.0264 302.3153 -9159.8793 -7438.9916 300.8441 -734.1857 -673.4475 30657.5986 -162.1490 -87.8140
ENERGY: 1200000 14.6189 6.3517 7.9429 0.0000 -10780.1434 1482.8434 0.0000 0.0000 1721.0092 -7547.3772 291.5016 -9268.3864 -7453.9423 299.3329 -279.9027 -247.7685 30525.3232 -264.8339 -196.1623
ENERGY: 1500000 6.4786 8.8203 8.0012 0.0000 -10765.3168 1532.8856 0.0000 0.0000 1792.3048 -7416.8262 303.5775 -9209.1310 -7448.9053 299.9924 878.0676 952.5367 30293.0090 -216.2425 -148.5542
TCL: Running FEP window   8: Lambda1 0.35   Lambda2 0.39999999999999997 [dLambda 0.04999999999999999]
TCL: Setting parameter firsttimestep to 0
TCL: Setting parameter alchLambda to 0.35
Info: NONBONDED TABLE R-SQUARED SPACING: 0.0625
Info: NONBONDED TABLE SIZE: 705 POINTS
TCL: Setting parameter alchLambda2 to 0.39999999999999997
Info: NONBONDED TABLE R-SQUARED SPACING: 0.0625
Info: NONBONDED TABLE SIZE: 705 POINTS
TCL: Running for 1500000 steps
ETITLE: TS BOND ANGLE DIHED IMPRP ELECT VDW BOUNDARY MISC KINETIC TOTAL TEMP POTENTIAL TOTALAVG TEMPAVG PRESSURE GPRESSURE VOLUME PRESSAVG GPRESSAVG
ENERGY: 0 6.4786 8.8203 8.0012 0.0000 -10765.3173 1532.6435 0.0000 0.0000 1791.4330 -7417.9407 303.4298 -9209.3737 -7417.9407 303.4298 875.0576 956.4720 30293.0090 875.0576 956.4720
ENERGY: 300000 9.3564 7.4065 10.0698 0.0000 -10672.0321 1439.2614 0.0000 0.0000 1775.3792 -7430.5588 300.7107 -9205.9380 -7449.3223 297.9654 178.7433 218.8149 30379.3498 404.2231 463.9155
ENERGY: 600000 9.0494 11.8996 13.6320 0.0000 -10738.9520 1434.8262 0.0000 0.0000 1743.6516 -7525.8934 295.3367 -9269.5450 -7481.4932 298.4023 -130.0128 -71.7151 30173.8314 415.6867 481.9058
ENERGY: 900000 5.9160 11.7332 9.1029 0.0000 -10815.7267 1518.5261 0.0000 0.0000 1838.1255 -7432.3230 311.3386 -9270.4485 -7485.8660 299.3415 452.2235 518.2024 30241.7718 238.3284 313.8596
ENERGY: 1200000 13.6595 6.7869 6.9617 0.0000 -10574.6963 1388.9447 0.0000 0.0000 1751.7402 -7406.6034 296.7068 -9158.3436 -7477.9327 298.6324 -475.7852 -367.7919 30290.7658 109.8798 185.3240
ENERGY: 1500000 8.3919 4.1800 11.5932 0.0000 -10737.6402 1428.7951 0.0000 0.0000 1809.8267 -7474.8532 306.5453 -9284.6799 -7468.6042 299.6659 -459.0547 -335.5364 30570.0420 -17.0743 65.3693
TCL: Running FEP window   9: Lambda1 0.39999999999999997 Lambda2 0.44999999999999996 [dLambda 0.04999999999999999]
TCL: Setting parameter firsttimestep to 0
TCL: Setting parameter alchLambda to 0.39999999999999997
Info: NONBONDED TABLE R-SQUARED SPACING: 0.0625
Info: NONBONDED TABLE SIZE: 705 POINTS
TCL: Setting parameter alchLambda2 to 0.44999999999999996
Info: NONBONDED TABLE R-SQUARED SPACING: 0.0625
Info: NONBONDED TABLE SIZE: 705 POINTS
TCL: Running for 1500000 steps
ETITLE: TS BOND ANGLE DIHED IMPRP ELECT VDW BOUNDARY MISC KINETIC TOTAL TEMP POTENTIAL TOTALAVG TEMPAVG PRESSURE GPRESSURE VOLUME PRESSAVG GPRESSAVG
ENERGY: 0 8.3919 4.1800 11.5932 0.0000 -10737.6401 1428.5393 0.0000 0.0000 1809.0045 -7475.9311 306.4061 -9284.9356 -7475.9311 306.4061 -417.2858 -328.9136 30570.0420 -417.2858 -328.9136
ENERGY: 300000 5.1844 9.6772 7.8149 0.0000 -10682.2686 1436.1229 0.0000 0.0000 1766.5761 -7456.8932 299.2196 -9223.4693 -7468.9272 302.5053 81.1324 197.9624 29975.1920 -9.7732 79.8455
ENERGY: 600000 7.7184 10.5302 9.4823 0.0000 -10697.2170 1445.6877 0.0000 0.0000 1772.8494 -7450.9491 300.2822 -9223.7985 -7457.2715 301.8743 190.9727 209.5155 30171.1022 129.2273 209.7135
ENERGY: 900000 7.0154 7.0194 11.0695 0.0000 -10661.5838 1426.8829 0.0000 0.0000 1748.1935 -7461.4030 296.1060 -9209.5964 -7469.1422 301.2074 -203.3247 -147.2692 30504.6086 160.8656 233.6071
ENERGY: 1200000 7.6696 5.4379 13.2890 0.0000 -10756.5762 1494.7837 0.0000 0.0000 1765.1349 -7470.2611 298.9755 -9235.3960 -7466.1701 301.4575 434.4195 491.7005 30118.5703 236.7900 303.5174
ENERGY: 1500000 10.5384 8.3298 12.7835 0.0000 -10756.2979 1389.9235 0.0000 0.0000 1762.8041 -7571.9188 298.5807 -9334.7228 -7463.7895 301.6910 -660.9702 -632.6493 30264.2530 118.4138 185.8763
TCL: Running FEP window  10: Lambda1 0.44999999999999996 Lambda2 0.49999999999999994 [dLambda 0.04999999999999999]
TCL: Setting parameter firsttimestep to 0
TCL: Setting parameter alchLambda to 0.44999999999999996
Info: NONBONDED TABLE R-SQUARED SPACING: 0.0625
Info: NONBONDED TABLE SIZE: 705 POINTS
TCL: Setting parameter alchLambda2 to 0.49999999999999994
Info: NONBONDED TABLE R-SQUARED SPACING: 0.0625
Info: NONBONDED TABLE SIZE: 705 POINTS
TCL: Running for 1500000 steps
ETITLE: TS BOND ANGLE DIHED IMPRP ELECT VDW BOUNDARY MISC KINETIC TOTAL TEMP POTENTIAL TOTALAVG TEMPAVG PRESSURE GPRESSURE VOLUME PRESSAVG GPRESSAVG
ENERGY: 0 10.5384 8.3298 12.7835 0.0000 -10756.2985 1389.6109 0.0000 0.0000 1761.9793 -7573.0567 298.4410 -9335.0360 -7573.0567 298.4410 -718.1347 -624.0739 30264.2530 -718.1347 -624.0739
ENERGY: 300000 8.3147 9.5688 7.7095 0.0000 -10697.6030 1452.1276 0.0000 0.0000 1749.7406 -7470.1418 296.3681 -9219.8824 -7504.9761 300.1117 64.8770 60.8026 30335.7918 -164.4021 -101.3917
ENERGY: 600000 4.7428 6.6661 6.0653 0.0000 -10702.5784 1400.6406 0.0000 0.0000 1744.2551 -7540.2085 295.4389 -9284.4636 -7480.6156 301.7902 -515.2954 -445.4362 30670.7114 -155.1547 -90.9347
ENERGY: 900000 12.8484 12.4943 8.7705 0.0000 -10673.0433 1405.3647 0.0000 0.0000 1755.3927 -7478.1725 297.3254 -9233.5653 -7485.6549 300.6190 -700.7488 -607.9194 30725.7754 -189.6559 -135.3369
ENERGY: 1200000 8.0138 7.8532 7.6594 0.0000 -10851.7791 1561.0778 0.0000 0.0000 1769.4526 -7497.7223 299.7069 -9267.1749 -7473.7112 300.6709 915.8447 985.3255 30222.0510 -249.3999 -185.5975
ENERGY: 1500000 5.6877 11.8675 6.1656 0.0000 -10610.5493 1426.7159 0.0000 0.0000 1789.3875 -7370.7251 303.0834 -9160.1126 -7454.1670 302.1752 -186.9042 -154.9649 30889.8022 -205.2941 -141.5482
TCL: Running FEP window  11: Lambda1 0.49999999999999994 Lambda2 0.5499999999999999 [dLambda 0.04999999999999999]
TCL: Setting parameter firsttimestep to 0
TCL: Setting parameter alchLambda to 0.49999999999999994
Info: NONBONDED TABLE R-SQUARED SPACING: 0.0625
Info: NONBONDED TABLE SIZE: 705 POINTS
TCL: Setting parameter alchLambda2 to 0.5499999999999999
Info: NONBONDED TABLE R-SQUARED SPACING: 0.0625
Info: NONBONDED TABLE SIZE: 705 POINTS
TCL: Running for 1500000 steps
ETITLE: TS BOND ANGLE DIHED IMPRP ELECT VDW BOUNDARY MISC KINETIC TOTAL TEMP POTENTIAL TOTALAVG TEMPAVG PRESSURE GPRESSURE VOLUME PRESSAVG GPRESSAVG
ENERGY: 0 5.6877 11.8675 6.1656 0.0000 -10610.5488 1425.7745 0.0000 0.0000 1788.4786 -7372.5749 302.9294 -9161.0535 -7372.5749 302.9294 -221.6386 -152.3321 30889.8022 -221.6386 -152.3321
ENERGY: 300000 5.5345 9.8351 8.7062 0.0000 -10722.8139 1459.6072 0.0000 0.0000 1753.8484 -7485.2826 297.0638 -9239.1310 -7472.4188 297.4483 -180.4287 -104.6603 30866.2920 -213.8306 -174.5659
ENERGY: 600000 10.2020 13.2191 8.2572 0.0000 -10613.1823 1424.5444 0.0000 0.0000 1760.4694 -7396.4903 298.1853 -9156.9596 -7463.1257 299.3335 34.1992 46.9235 30499.0134 -53.8895 -7.3579
ENERGY: 900000 5.1410 11.0547 11.7886 0.0000 -10786.6387 1539.2597 0.0000 0.0000 1763.6429 -7455.7518 298.7228 -9219.3947 -7475.5564 298.6894 896.1039 892.6649 30365.0975 96.8382 135.9623
ENERGY: 1200000 8.4567 9.7230 8.3948 0.0000 -10551.4391 1318.1077 0.0000 0.0000 1782.7735 -7423.9834 301.9631 -9206.7569 -7474.1780 299.1479 -887.4912 -841.6096 30393.6258 15.3257 72.3698
ENERGY: 1500000 7.4902 9.0679 6.7149 0.0000 -10770.3794 1473.5845 0.0000 0.0000 1727.2220 -7546.2999 292.5539 -9273.5219 -7484.3004 298.7816 75.4045 86.9404 30435.1028 -1.5440 51.7295
TCL: Running FEP window  12: Lambda1 0.5499999999999999 Lambda2 0.6    [dLambda 0.050000000000000044]
TCL: Setting parameter firsttimestep to 0
TCL: Setting parameter alchLambda to 0.5499999999999999
Info: NONBONDED TABLE R-SQUARED SPACING: 0.0625
Info: NONBONDED TABLE SIZE: 705 POINTS
TCL: Setting parameter alchLambda2 to 0.6
Info: NONBONDED TABLE R-SQUARED SPACING: 0.0625
Info: NONBONDED TABLE SIZE: 705 POINTS
TCL: Running for 1500000 steps
ETITLE: TS BOND ANGLE DIHED IMPRP ELECT VDW BOUNDARY MISC KINETIC TOTAL TEMP POTENTIAL TOTALAVG TEMPAVG PRESSURE GPRESSURE VOLUME PRESSAVG GPRESSAVG
ENERGY: 0 7.4902 9.0679 6.7149 0.0000 -10770.2781 1472.5099 0.0000 0.0000 1726.3106 -7548.1847 292.3995 -9274.4952 -7548.1847 292.3995 4.1678 89.2067 30435.1028 4.1678 89.2067
ENERGY: 300000 10.2731 12.3625 7.7297 0.0000 -10690.7916 1440.4142 0.0000 0.0000 1779.4258 -7440.5863 301.3961 -9220.0121 -7445.8989 299.4746 151.3744 267.3810 30365.1500 -46.5334 12.1838
ENERGY: 600000 6.5688 7.0724 15.5133 0.0000 -10711.2780 1448.8810 0.0000 0.0000 1725.7423 -7507.5002 292.3033 -9233.2425 -7437.6187 298.4740 -109.3757 -71.7988 30630.2647 135.4919 198.0130
ENERGY: 900000 4.7748 12.5420 8.3559 0.0000 -10933.7247 1658.6823 0.0000 0.0000 1755.2136 -7494.1561 297.2951 -9249.3697 -7431.1130 300.2408 1590.6364 1612.0906 30467.9977 120.8028 178.7081
ENERGY: 1200000 7.1466 10.9157 10.5814 0.0000 -10554.7534 1394.4095 0.0000 0.0000 1784.4794 -7347.2208 302.2521 -9131.7002 -7421.7138 300.4938 -386.9127 -350.6490 30821.7776 157.2286 209.4306
ENERGY: 1500000 8.6646 14.7109 7.3175 0.0000 -10775.5821 1464.8838 0.0000 0.0000 1816.5538 -7463.4515 307.6848 -9280.0054 -7429.4501 300.6554 -101.4480 -62.8237 30769.4170 133.0655 177.1269
TCL: Running FEP window  13: Lambda1 0.6    Lambda2 0.65   [dLambda 0.050000000000000044]
TCL: Setting parameter firsttimestep to 0
TCL: Setting parameter alchLambda to 0.6
Info: NONBONDED TABLE R-SQUARED SPACING: 0.0625
Info: NONBONDED TABLE SIZE: 705 POINTS
TCL: Setting parameter alchLambda2 to 0.65
Info: NONBONDED TABLE R-SQUARED SPACING: 0.0625
Info: NONBONDED TABLE SIZE: 705 POINTS
TCL: Running for 1500000 steps
ETITLE: TS BOND ANGLE DIHED IMPRP ELECT VDW BOUNDARY MISC KINETIC TOTAL TEMP POTENTIAL TOTALAVG TEMPAVG PRESSURE GPRESSURE VOLUME PRESSAVG GPRESSAVG
ENERGY: 0 8.6646 14.7109 7.3175 0.0000 -10776.1804 1464.9815 0.0000 0.0000 1815.6538 -7464.8521 307.5323 -9280.5060 -7464.8521 307.5323 -137.8920 -49.8393 30769.4170 -137.8920 -49.8393
ENERGY: 300000 7.9534 7.0426 10.3554 0.0000 -10685.9361 1405.6065 0.0000 0.0000 1761.0879 -7493.8903 298.2900 -9254.9782 -7476.2315 299.2155 -262.5755 -253.7577 29921.4818 -274.4622 -227.1601
ENERGY: 600000 5.3447 8.5319 10.2508 0.0000 -10749.6781 1475.5638 0.0000 0.0000 1776.7067 -7473.2802 300.9355 -9249.9869 -7470.9728 300.9149 142.0691 190.7161 30449.4750 -182.9247 -128.1931
ENERGY: 900000 9.3112 7.8234 6.6229 0.0000 -10768.8556 1408.1148 0.0000 0.0000 1835.0558 -7501.9275 310.8186 -9336.9833 -7454.6748 303.2967 -375.7936 -366.1755 30148.7874 -253.9234 -204.0625
ENERGY: 1200000 8.4970 8.1835 11.5594 0.0000 -10585.2280 1400.3298 0.0000 0.0000 1749.7152 -7406.9431 296.3638 -9156.6584 -7453.0706 302.2630 -269.9596 -154.3669 30764.4021 -199.5463 -150.2372
ENERGY: 1500000 10.5158 5.8101 7.2934 0.0000 -10826.5450 1479.8618 0.0000 0.0000 1780.9434 -7542.1205 301.6531 -9323.0639 -7456.6125 301.9413 140.2662 240.4476 30435.1698 -207.6930 -148.7257
TCL: Running FEP window  14: Lambda1 0.65   Lambda2 0.7000000000000001 [dLambda 0.050000000000000044]
TCL: Setting parameter firsttimestep to 0
TCL: Setting parameter alchLambda to 0.65
Info: NONBONDED TABLE R-SQUARED SPACING: 0.0625
Info: NONBONDED TABLE SIZE: 705 POINTS
TCL: Setting parameter alchLambda2 to 0.7000000000000001
Info: NONBONDED TABLE R-SQUARED SPACING: 0.0625
Info: NONBONDED TABLE SIZE: 705 POINTS
TCL: Running for 1500000 steps
ETITLE: TS BOND ANGLE DIHED IMPRP ELECT VDW BOUNDARY MISC KINETIC TOTAL TEMP POTENTIAL TOTALAVG TEMPAVG PRESSURE GPRESSURE VOLUME PRESSAVG GPRESSAVG
ENERGY: 0 10.5158 5.8101 7.2934 0.0000 -10827.5255 1479.3882 0.0000 0.0000 1780.0714 -7544.4466 301.5055 -9324.5181 -7544.4466 301.5055 161.0295 250.2872 30435.1698 161.0295 250.2872
ENERGY: 300000 9.7682 7.1413 12.7047 0.0000 -10773.9278 1473.8962 0.0000 0.0000 1752.7122 -7517.7051 296.8714 -9270.4173 -7485.3896 299.5542 275.7888 329.0460 30119.2095 -129.4592 -62.9178
ENERGY: 600000 7.4963 6.8229 15.4745 0.0000 -10823.0393 1455.4044 0.0000 0.0000 1747.0588 -7590.7824 295.9138 -9337.8412 -7501.0154 299.7586 -362.9928 -330.4156 30345.8703 -182.5079 -123.4557
ENERGY: 900000 5.9953 8.7935 7.0748 0.0000 -10767.6057 1512.1710 0.0000 0.0000 1794.4884 -7439.0827 303.9474 -9233.5712 -7482.7772 300.3289 513.4768 595.5434 30505.6475 -43.3414 17.5412
ENERGY: 1200000 4.9524 9.6313 9.8486 0.0000 -10738.3119 1451.3144 0.0000 0.0000 1757.0520 -7505.5133 297.6064 -9262.5653 -7472.5292 300.9779 -46.8162 -9.1399 30544.3327 5.4191 72.0993
ENERGY: 1500000 9.5804 4.7797 6.9353 0.0000 -11037.3618 1611.5566 0.0000 0.0000 1771.3954 -7633.1144 300.0359 -9404.5098 -7479.3633 300.4372 1137.7605 1220.6067 29869.5327 14.5765 78.0993
TCL: Running FEP window  15: Lambda1 0.7000000000000001 Lambda2 0.7500000000000001 [dLambda 0.050000000000000044]
TCL: Setting parameter firsttimestep to 0
TCL: Setting parameter alchLambda to 0.7000000000000001
Info: NONBONDED TABLE R-SQUARED SPACING: 0.0625
Info: NONBONDED TABLE SIZE: 705 POINTS
TCL: Setting parameter alchLambda2 to 0.7500000000000001
Info: NONBONDED TABLE R-SQUARED SPACING: 0.0625
Info: NONBONDED TABLE SIZE: 705 POINTS
TCL: Running for 1500000 steps
ETITLE: TS BOND ANGLE DIHED IMPRP ELECT VDW BOUNDARY MISC KINETIC TOTAL TEMP POTENTIAL TOTALAVG TEMPAVG PRESSURE GPRESSURE VOLUME PRESSAVG GPRESSAVG
ENERGY: 0 9.5804 4.7797 6.9353 0.0000 -11039.4229 1611.7957 0.0000 0.0000 1770.4664 -7635.8654 299.8786 -9406.3318 -7635.8654 299.8786 1158.1485 1229.2770 29869.5327 1158.1485 1229.2770
ENERGY: 300000 5.8011 5.3184 7.2780 0.0000 -10529.8796 1352.0600 0.0000 0.0000 1760.0024 -7399.4197 298.1062 -9159.4220 -7491.5196 302.4291 -497.9681 -383.7440 30713.1124 379.4550 445.0605
ENERGY: 600000 4.9000 7.2985 11.2227 0.0000 -10663.6292 1443.3642 0.0000 0.0000 1756.0342 -7440.8097 297.4341 -9196.8439 -7486.0632 300.2036 42.4572 138.1770 30803.3379 141.5435 220.4176
ENERGY: 900000 10.2646 7.7512 8.9748 0.0000 -10659.5068 1366.4570 0.0000 0.0000 1826.8511 -7439.2080 309.4289 -9266.0592 -7472.6167 301.1049 -873.0360 -759.4479 30571.2876 91.5459 175.3235
ENERGY: 1200000 6.6383 10.0235 8.7751 0.0000 -10666.0277 1458.4774 0.0000 0.0000 1730.2433 -7451.8700 293.0656 -9182.1133 -7475.3217 299.0104 389.3847 429.8236 30291.0915 33.3593 105.1698
ENERGY: 1500000 5.2822 6.3133 11.6243 0.0000 -10689.5421 1483.0042 0.0000 0.0000 1787.3540 -7395.9641 302.7390 -9183.3180 -7467.8152 299.1356 442.2553 533.3241 30694.7959 33.0779 98.9516
TCL: Running FEP window  16: Lambda1 0.7500000000000001 Lambda2 0.8000000000000002 [dLambda 0.050000000000000044]
TCL: Setting parameter firsttimestep to 0
TCL: Setting parameter alchLambda to 0.7500000000000001
Info: NONBONDED TABLE R-SQUARED SPACING: 0.0625
Info: NONBONDED TABLE SIZE: 705 POINTS
TCL: Setting parameter alchLambda2 to 0.8000000000000002
Info: NONBONDED TABLE R-SQUARED SPACING: 0.0625
Info: NONBONDED TABLE SIZE: 705 POINTS
TCL: Running for 1500000 steps
ETITLE: TS BOND ANGLE DIHED IMPRP ELECT VDW BOUNDARY MISC KINETIC TOTAL TEMP POTENTIAL TOTALAVG TEMPAVG PRESSURE GPRESSURE VOLUME PRESSAVG GPRESSAVG
ENERGY: 0 5.2822 6.3133 11.6243 0.0000 -10691.5317 1483.8315 0.0000 0.0000 1786.4843 -7397.9961 302.5916 -9184.4804 -7397.9961 302.5916 463.3530 548.6580 30694.7959 463.3530 548.6580
ENERGY: 300000 6.3467 11.0998 8.9177 0.0000 -10892.9523 1527.0515 0.0000 0.0000 1785.7091 -7553.8275 302.4603 -9339.5366 -7478.6728 299.9829 788.3273 782.3609 30019.8139 284.9885 337.1727
ENERGY: 600000 4.8375 8.1358 15.0349 0.0000 -10698.7683 1381.3914 0.0000 0.0000 1764.1035 -7525.2652 298.8008 -9289.3687 -7478.5629 301.5113 -799.1316 -726.8616 30652.7091 -101.8164 -51.3917
ENERGY: 900000 7.4290 7.5115 4.8564 0.0000 -10673.9056 1429.2794 0.0000 0.0000 1792.3189 -7432.5105 303.5799 -9224.8294 -7474.4356 300.0983 -241.7794 -159.0612 30482.7973 -71.6128 -9.5756
ENERGY: 1200000 8.7285 14.9366 8.7417 0.0000 -10806.7583 1509.1043 0.0000 0.0000 1737.1681 -7528.0792 294.2386 -9265.2474 -7496.0560 298.4338 498.0437 506.5420 30586.1591 -6.1990 46.2871
ENERGY: 1500000 12.0076 7.1662 12.4680 0.0000 -10595.6254 1376.9081 0.0000 0.0000 1771.5680 -7415.5075 300.0652 -9187.0754 -7493.9907 298.8493 -677.9559 -673.6120 30938.4404 -57.1464 -10.3180
TCL: Running FEP window  17: Lambda1 0.8000000000000002 Lambda2 0.8500000000000002 [dLambda 0.050000000000000044]
TCL: Setting parameter firsttimestep to 0
TCL: Setting parameter alchLambda to 0.8000000000000002
Info: NONBONDED TABLE R-SQUARED SPACING: 0.0625
Info: NONBONDED TABLE SIZE: 705 POINTS
TCL: Setting parameter alchLambda2 to 0.8500000000000002
Info: NONBONDED TABLE R-SQUARED SPACING: 0.0625
Info: NONBONDED TABLE SIZE: 705 POINTS
TCL: Running for 1500000 steps
ETITLE: TS BOND ANGLE DIHED IMPRP ELECT VDW BOUNDARY MISC KINETIC TOTAL TEMP POTENTIAL TOTALAVG TEMPAVG PRESSURE GPRESSURE VOLUME PRESSAVG GPRESSAVG
ENERGY: 0 12.0076 7.1662 12.4680 0.0000 -10598.7688 1378.0853 0.0000 0.0000 1770.6241 -7418.4176 299.9053 -9189.0417 -7418.4176 299.9053 -721.6644 -650.7867 30938.4404 -721.6644 -650.7867
ENERGY: 300000 5.1939 7.4456 9.9885 0.0000 -10657.2819 1401.3980 0.0000 0.0000 1757.4275 -7475.8284 297.6701 -9233.2559 -7447.0945 300.1780 -338.2425 -221.4495 30636.5345 -346.5061 -273.2505
ENERGY: 600000 8.8185 7.5262 10.2339 0.0000 -10586.1964 1337.8837 0.0000 0.0000 1773.4628 -7448.2714 300.3861 -9221.7342 -7436.5184 301.4985 -950.9375 -897.1901 31022.3586 -311.7739 -245.4645
ENERGY: 900000 5.3254 8.5654 9.2475 0.0000 -10803.1588 1511.8894 0.0000 0.0000 1765.6939 -7502.4371 299.0702 -9268.1311 -7456.3881 301.4396 581.1536 705.2050 30380.8353 -118.8225 -50.2042
ENERGY: 1200000 8.0863 7.1803 5.6341 0.0000 -10899.5651 1551.9402 0.0000 0.0000 1796.5072 -7530.2170 304.2893 -9326.7242 -7459.1006 301.7537 582.1667 628.5840 30306.3082 -82.7045 -16.7699
ENERGY: 1500000 7.9179 5.2265 12.4939 0.0000 -10673.1005 1391.7249 0.0000 0.0000 1785.3038 -7470.4335 302.3917 -9255.7373 -7458.1291 301.4824 -530.8875 -415.2967 30541.3942 -148.6121 -81.5700
TCL: Running FEP window  18: Lambda1 0.8500000000000002 Lambda2 0.9000000000000002 [dLambda 0.050000000000000044]
TCL: Setting parameter firsttimestep to 0
TCL: Setting parameter alchLambda to 0.8500000000000002
Info: NONBONDED TABLE R-SQUARED SPACING: 0.0625
Info: NONBONDED TABLE SIZE: 705 POINTS
TCL: Setting parameter alchLambda2 to 0.9000000000000002
Info: NONBONDED TABLE R-SQUARED SPACING: 0.0625
Info: NONBONDED TABLE SIZE: 705 POINTS
TCL: Running for 1500000 steps
ETITLE: TS BOND ANGLE DIHED IMPRP ELECT VDW BOUNDARY MISC KINETIC TOTAL TEMP POTENTIAL TOTALAVG TEMPAVG PRESSURE GPRESSURE VOLUME PRESSAVG GPRESSAVG
ENERGY: 0 7.9180 5.2265 12.4939 0.0000 -10676.9427 1392.9028 0.0000 0.0000 1784.4841 -7473.9175 302.2529 -9258.4016 -7473.9175 302.2529 -470.9250 -391.2807 30541.3942 -470.9250 -391.2807
ENERGY: 300000 6.5885 12.4819 7.5434 0.0000 -10794.5444 1458.4097 0.0000 0.0000 1756.1345 -7553.3865 297.4510 -9309.5209 -7480.8755 300.1571 86.9705 199.6339 30056.4864 -555.7439 -473.3576
ENERGY: 600000 5.6073 6.6472 12.1588 0.0000 -10821.0004 1529.2380 0.0000 0.0000 1771.0914 -7496.2577 299.9844 -9267.3491 -7456.5138 300.4690 650.0173 722.3358 30449.5381 -200.8797 -144.6996
ENERGY: 900000 6.9910 7.3019 8.4639 0.0000 -10828.7215 1429.7166 0.0000 0.0000 1732.3825 -7643.8656 293.4280 -9376.2481 -7468.2344 300.0534 -687.0476 -610.9683 30548.1831 -127.0186 -68.5628
ENERGY: 1200000 4.5080 8.5746 8.5974 0.0000 -10761.7390 1464.6025 0.0000 0.0000 1806.9840 -7468.4724 306.0639 -9275.4564 -7468.9015 300.8755 194.8993 241.6677 30450.0012 -150.4662 -96.8492
ENERGY: 1500000 4.4570 18.7342 6.6933 0.0000 -10767.0523 1485.8667 0.0000 0.0000 1749.4935 -7501.8076 296.3262 -9251.3011 -7474.6729 300.9074 411.8102 458.7750 30794.2989 -130.8278 -82.7056
TCL: Running FEP window  19: Lambda1 0.9000000000000002 Lambda2 0.9500000000000003 [dLambda 0.050000000000000044]
TCL: Setting parameter firsttimestep to 0
TCL: Setting parameter alchLambda to 0.9000000000000002
Info: NONBONDED TABLE R-SQUARED SPACING: 0.0625
Info: NONBONDED TABLE SIZE: 705 POINTS
TCL: Setting parameter alchLambda2 to 0.9500000000000003
Info: NONBONDED TABLE R-SQUARED SPACING: 0.0625
Info: NONBONDED TABLE SIZE: 705 POINTS
TCL: Running for 1500000 steps
ETITLE: TS BOND ANGLE DIHED IMPRP ELECT VDW BOUNDARY MISC KINETIC TOTAL TEMP POTENTIAL TOTALAVG TEMPAVG PRESSURE GPRESSURE VOLUME PRESSAVG GPRESSAVG
ENERGY: 0 4.4570 18.7342 6.6933 0.0000 -10771.5005 1488.5954 0.0000 0.0000 1748.6435 -7504.3771 296.1822 -9253.0206 -7504.3771 296.1822 421.9858 495.5120 30794.2989 421.9858 495.5120
ENERGY: 300000 3.5093 10.0453 10.0156 0.0000 -10667.3817 1452.6130 0.0000 0.0000 1758.3172 -7432.8812 297.8208 -9191.1984 -7475.9578 301.0650 204.1480 282.5916 30709.4327 -101.7455 -18.8030
ENERGY: 600000 5.3787 9.3951 7.6791 0.0000 -10602.7400 1397.2339 0.0000 0.0000 1774.1724 -7408.8808 300.5063 -9183.0532 -7470.7029 301.3994 -168.5507 -88.9098 30866.8426 -55.8070 22.5547
ENERGY: 900000 10.5879 5.1287 8.0505 0.0000 -10540.4443 1354.7131 0.0000 0.0000 1768.4389 -7393.5251 299.5352 -9161.9640 -7454.4523 302.2174 -763.0372 -674.8288 30799.1953 -67.0600 9.6178
ENERGY: 1200000 7.4500 17.2670 10.7895 0.0000 -10635.9722 1344.9411 0.0000 0.0000 1762.3274 -7493.1971 298.5000 -9255.5245 -7453.7633 302.7138 -846.0110 -801.8748 30689.5191 -165.7748 -90.1763
ENERGY: 1500000 7.7966 11.9114 5.3296 0.0000 -10684.0553 1434.6005 0.0000 0.0000 1764.9786 -7459.4386 298.9491 -9224.4173 -7461.9141 302.3813 -90.0974 -48.8138 30767.0475 -153.4664 -79.1449
TCL: Running FEP window  20: Lambda1 0.9500000000000003 Lambda2 1.0    [dLambda 0.04999999999999971]
TCL: Setting parameter firsttimestep to 0
TCL: Setting parameter alchLambda to 0.9500000000000003
Info: NONBONDED TABLE R-SQUARED SPACING: 0.0625
Info: NONBONDED TABLE SIZE: 705 POINTS
TCL: Setting parameter alchLambda2 to 1.0
Info: NONBONDED TABLE R-SQUARED SPACING: 0.0625
Info: NONBONDED TABLE SIZE: 705 POINTS
TCL: Running for 1500000 steps
ETITLE: TS BOND ANGLE DIHED IMPRP ELECT VDW BOUNDARY MISC KINETIC TOTAL TEMP POTENTIAL TOTALAVG TEMPAVG PRESSURE GPRESSURE VOLUME PRESSAVG GPRESSAVG
ENERGY: 0 7.7966 11.9114 5.3296 0.0000 -10688.4549 1437.1055 0.0000 0.0000 1764.0785 -7462.2334 298.7966 -9226.3119 -7462.2334 298.7966 -57.8115 -6.0279 30767.0475 -57.8115 -6.0279
ENERGY: 300000 8.7112 6.9587 9.2805 0.0000 -10764.0321 1472.8812 0.0000 0.0000 1772.4509 -7493.7496 300.2147 -9266.2005 -7479.5389 299.4196 679.3073 701.4952 30132.3868 -94.8925 -44.6095
ENERGY: 600000 11.9764 10.6167 13.3530 0.0000 -10577.7061 1395.6796 0.0000 0.0000 1855.8386 -7290.2419 314.3388 -9146.0805 -7451.4527 302.7433 -409.3515 -322.7145 30717.7285 -118.8950 -65.9739
ENERGY: 900000 6.9539 9.7151 9.2636 0.0000 -10848.2928 1539.6434 0.0000 0.0000 1815.5450 -7467.1718 307.5139 -9282.7168 -7439.8613 303.6347 1034.0805 1054.6737 30105.2544 42.0648 99.0760
ENERGY: 1200000 8.2462 9.3165 9.4783 0.0000 -10758.6408 1467.3145 0.0000 0.0000 1749.3165 -7514.9688 296.2962 -9264.2852 -7448.4906 302.3819 -20.3702 95.3972 30421.1908 77.4990 136.2498
ENERGY: 1500000 8.4595 6.7382 10.9903 0.0000 -10880.5102 1539.1350 0.0000 0.0000 1787.6472 -7527.5400 302.7886 -9315.1872 -7456.6635 302.1147 1084.7238 1105.1110 29879.1175 118.0514 176.9142
TCL: Exiting due to exit command.
