Info: SIMULATION PARAMETERS:
Info: TIMESTEP               2
Info: NUMBER OF STEPS        0
Info: STEPS PER CYCLE        10
Info: PERIODIC CELL BASIS 1  32.3633 0 0
Info: PERIODIC CELL BASIS 2  0 30.3008 0
Info: PERIODIC CELL BASIS 3  0 0 30.9146
Info: PERIODIC CELL CENTER   0 0 0
Info: WRAPPING WATERS AROUND PERIODIC BOUNDARIES ON OUTPUT.
Info: WRAPPING ALL CLUSTERS AROUND PERIODIC BOUNDARIES ON OUTPUT.
Info: FIRST LDB TIMESTEP     50
Info: LAST LDB TIMESTEP     -1
Info: HOM BACKGROUND SCALING 1
Info: PME BACKGROUND SCALING 1
Info: MIN ATOMS PER PATCH    40
Info: EMPTY PATCH LOAD       40 ATOMS
Info: VELOCITY FILE          mobley_1107178_equil.vel
Info: CENTER OF MASS MOVING INITIALLY? NO
Info: DIELECTRIC             1
Info: EXCLUDE                SCALED ONE-FOUR
Info: 1-4 ELECTROSTATICS SCALED BY 0.833333
Info: MODIFIED 1-4 VDW PARAMETERS WILL BE USED
Info: DCD FILENAME           mobley_1107178_prod.dcd
Info: DCD FREQUENCY          100000
Info: DCD FIRST STEP         100000
Info: DCD FILE WILL CONTAIN UNIT CELL DATA
Info: XST FILENAME           mobley_1107178_prod.xst
Info: XST FREQUENCY          100000
Info: NO VELOCITY DCD OUTPUT
Info: NO FORCE DCD OUTPUT
Info: OUTPUT FILENAME        mobley_1107178_prod
Info: BINARY OUTPUT FILES WILL BE USED
Info: RESTART FILENAME       mobley_1107178_prod.restart
Info: RESTART FREQUENCY      100000
Info: BINARY RESTART FILES WILL BE USED
Info: CUTOFF                 9
Info: PAIRLIST DISTANCE      11
Info: PAIRLIST SHRINK RATE   0.01
Info: PAIRLIST GROW RATE     0.01
Info: PAIRLIST TRIGGER       0.3
Info: PAIRLISTS PER CYCLE    2
Info: PAIRLISTS ENABLED
Info: MARGIN                 2
Info: HYDROGEN GROUP CUTOFF  2.5
Info: PATCH DIMENSION        15.5
Info: ENERGY OUTPUT STEPS    100000
Info: ENERGY EVALUATION STEPS    100000
Info: OUTPUT ENERGY PRECISION 4
Info: CROSSTERM ENERGY INCLUDED IN DIHEDRAL
Info: TIMING OUTPUT STEPS    1000000
Info: PRESSURE OUTPUT STEPS  100000
Info: ALCHEMICAL FEP ON
Info: FEP CURRENT LAMBDA VALUE     1
Info: FEP COMPARISON LAMBDA VALUE  0.95
Info: FEP INTRA-ALCHEMICAL NON-BONDED INTERACTIONS WILL BE RETAINED
Info: FEP INTRA-ALCHEMICAL BONDED INTERACTIONS WILL BE RETAINED
Info: FEP VDW SHIFTING COEFFICIENT 5
Info: FEP ELEC. ACTIVE FOR ANNIHILATED PARTICLES BETWEEN LAMBDA = 0 AND LAMBDA = 0.5
Info: FEP ELEC. ACTIVE FOR EXNIHILATED PARTICLES BETWEEN LAMBDA = 0.5 AND LAMBDA = 1
Info: FEP VDW ACTIVE FOR ANNIHILATED PARTICLES BETWEEN LAMBDA = 0 AND LAMBDA = 1
Info: FEP VDW ACTIVE FOR EXNIHILATED PARTICLES BETWEEN LAMBDA = 0 AND LAMBDA = 1
Info: FEP BOND ACTIVE FOR ANNIHILATED PARTICLES BETWEEN LAMBDA = 1 AND LAMBDA = 1
Info: FEP BOND ACTIVE FOR EXNIHILATED PARTICLES BETWEEN LAMBDA = 0 AND LAMBDA = 0
Info: LANGEVIN DYNAMICS ACTIVE
Info: LANGEVIN TEMPERATURE   300
Info: LANGEVIN USING BBK INTEGRATOR
Info: LANGEVIN DAMPING COEFFICIENT IS 1 INVERSE PS
Info: LANGEVIN DYNAMICS APPLIED TO HYDROGENS
Info: LANGEVIN PISTON PRESSURE CONTROL ACTIVE
Info:        TARGET PRESSURE IS 1.01325 BAR
Info:     OSCILLATION PERIOD IS 50 FS
Info:             DECAY TIME IS 25 FS
Info:     PISTON TEMPERATURE IS 300 K
Info:       PRESSURE CONTROL IS GROUP-BASED
Info:    INITIAL STRAIN RATE IS -0.000569782 -0.000569782 -0.000569782
Info:       CELL FLUCTUATION IS ISOTROPIC
Info: PARTICLE MESH EWALD (PME) ACTIVE
Info: PME TOLERANCE               1e-06
Info: PME EWALD COEFFICIENT       0.348832
Info: PME INTERPOLATION ORDER     4
Info: PME GRID DIMENSIONS         36 32 32
Info: PME MAXIMUM GRID SPACING    1
Info: PME CALCULATION WILL BE PERFORMED ON GPU
Info: FULL ELECTROSTATIC EVALUATION FREQUENCY      2
Info: USING VERLET I (r-RESPA) MTS SCHEME.
Info: C1 SPLITTING OF LONG RANGE ELECTROSTATICS
Info: PLACING ATOMS IN PATCHES BY HYDROGEN GROUPS
Info: RIGID BONDS TO HYDROGEN : ALL
Info:         ERROR TOLERANCE : 1e-08
Info:          MAX ITERATIONS : 100
Info: RIGID WATER USING SETTLE ALGORITHM
Info: RANDOM NUMBER SEED     1743497401
Info: USE HYDROGEN BONDS?    NO
Info: Using AMBER format force field!
Info: AMBER PARM FILE        mobley_1107178.prmtop
Info: COORDINATE PDB         mobley_1107178.pdb
Info: Exclusions will be read from PARM file!
Info: SCNB (VDW SCALING)     2
Info: USING ARITHMETIC MEAN TO COMBINE L-J SIGMA PARAMETERS
Info: BINARY COORDINATES     mobley_1107178_equil.coor
Info: SUMMARY OF PARAMETERS:
Info: 6 BONDS
Info: 6 ANGLES
Info:   6 HARMONIC
Info:   0 COSINE-BASED
Info: 1 DIHEDRAL
Info: 0 IMPROPER
Info: 0 CROSSTERM
Info: 0 VDW
Info: 21 VDW_PAIRS
Info: 0 NBTHOLE_PAIRS
Info: To read alchdata from file: mobley_1107178.pdb
Info: To read alchflag data from column: 5
Info: STRUCTURE SUMMARY:
Info: 2954 ATOMS
Info: 2953 BONDS
Info: 12 ANGLES
Info: 9 DIHEDRALS
Info: 0 IMPROPERS
Info: 0 CROSSTERMS
Info: 2974 EXCLUSIONS
Info: 2951 RIGID BONDS
Info: ALCH: 0 ATOMS TO DISAPPEAR IN FINAL STATE
Info: ALCH: 8 ATOMS TO APPEAR IN FINAL STATE
Info: 5911 DEGREES OF FREEDOM
Info: 985 HYDROGEN GROUPS
Info: 4 ATOMS IN LARGEST HYDROGEN GROUP
Info: 985 MIGRATION GROUPS
Info: 4 ATOMS IN LARGEST MIGRATION GROUP
Info: TOTAL MASS = 17847.7 amu
Info: TOTAL CHARGE = 0.000100002 e
Info: MASS DENSITY = 0.977622 g/cm^3
Info: ATOM DENSITY = 0.0974408 atoms/A^3
Info: ADDED 0 IMPLICIT EXCLUSIONS
Info: NONBONDED TABLE R-SQUARED SPACING: 0.0625
Info: NONBONDED TABLE SIZE: 705 POINTS
Info: REMOVING COM VELOCITY 0.0125442 0.13062 0.122789
Info: Use 3D box decompostion in PME FFT.
Info: Updated CUDA force table with 4096 elements.
Info: Updated CUDA LJ table with 6 x 6 elements.
Info: Found 11 unique exclusion lists needing 16 bytes
TCL: Running for 1500000 steps
ETITLE: TS BOND ANGLE DIHED IMPRP ELECT VDW BOUNDARY MISC KINETIC TOTAL TEMP POTENTIAL TOTALAVG TEMPAVG PRESSURE GPRESSURE VOLUME PRESSAVG GPRESSAVG
ENERGY: 0 0.1215 3.3620 1.1580 0.0000 -10803.7936 1489.4504 0.0000 0.0000 1734.2068 -7575.4949 295.2775 -9309.7017 -7575.4949 295.2775 360.8202 443.6813 30315.8550 360.8202 443.6813
ENERGY: 300000 0.1548 1.4204 1.1957 0.0000 -10750.4092 1409.9556 0.0000 0.0000 1770.6842 -7566.9985 301.4884 -9337.6827 -7567.4740 298.3434 -476.0637 -443.5118 30596.7250 186.3298 254.1250
ENERGY: 600000 0.6053 5.0097 0.4106 0.0000 -10608.5738 1348.9772 0.0000 0.0000 1767.1328 -7486.4382 300.8837 -9253.5710 -7547.2979 296.8436 -632.8321 -589.7158 30571.0469 -49.7076 0.4074
ENERGY: 900000 0.0102 2.5608 0.0483 0.0000 -10794.1278 1428.0602 0.0000 0.0000 1762.6410 -7600.8073 300.1189 -9363.4483 -7546.1813 298.1198 -75.9717 -54.3571 30093.6471 -87.0865 -48.4049
ENERGY: 1200000 0.1401 3.3305 0.1130 0.0000 -10651.4592 1409.2919 0.0000 0.0000 1771.3588 -7467.2250 301.6032 -9238.5838 -7533.6821 299.2025 88.8414 72.9250 30199.2795 -72.7343 -41.2933
ENERGY: 1500000 2.5004 2.6708 0.0318 0.0000 -10688.8866 1432.5021 0.0000 0.0000 1771.4375 -7479.7440 301.6166 -9251.1815 -7530.5513 299.5397 161.1718 193.1285 30438.2868 -13.9012 22.0678
TCL: Running FEP window   2: Lambda1 0.95   Lambda2 0.8999999999999999 [dLambda -0.050000000000000044]
TCL: Setting parameter firsttimestep to 0
TCL: Setting parameter alchLambda to 0.95
Info: NONBONDED TABLE R-SQUARED SPACING: 0.0625
Info: NONBONDED TABLE SIZE: 705 POINTS
TCL: Setting parameter alchLambda2 to 0.8999999999999999
Info: NONBONDED TABLE R-SQUARED SPACING: 0.0625
Info: NONBONDED TABLE SIZE: 705 POINTS
TCL: Running for 1500000 steps
ETITLE: TS BOND ANGLE DIHED IMPRP ELECT VDW BOUNDARY MISC KINETIC TOTAL TEMP POTENTIAL TOTALAVG TEMPAVG PRESSURE GPRESSURE VOLUME PRESSAVG GPRESSAVG
ENERGY: 0 2.5004 2.6708 0.0318 0.0000 -10688.4859 1432.8987 0.0000 0.0000 1770.5640 -7479.8203 301.4679 -9250.3843 -7479.8203 301.4679 106.6578 194.4050 30438.2868 106.6578 194.4050
ENERGY: 300000 0.1588 6.1978 0.0595 0.0000 -10894.2251 1519.1774 0.0000 0.0000 1786.7701 -7581.8614 304.2272 -9368.6315 -7543.4043 301.5143 621.2396 663.2059 29877.5372 214.1261 258.1113
ENERGY: 600000 0.4596 2.2589 0.6933 0.0000 -10809.4373 1416.8171 0.0000 0.0000 1775.5809 -7613.6274 302.3221 -9389.2083 -7548.0377 301.2796 -704.4643 -608.1475 30731.0156 82.0696 132.5201
ENERGY: 900000 0.2904 1.4369 0.0919 0.0000 -10695.6239 1358.5876 0.0000 0.0000 1780.9126 -7554.3045 303.2299 -9335.2171 -7543.6062 301.4943 -673.8929 -622.2156 30226.4680 -115.2084 -59.2484
ENERGY: 1200000 0.1187 3.9743 0.7666 0.0000 -10650.5867 1384.9113 0.0000 0.0000 1733.7036 -7527.1122 295.1918 -9260.8158 -7536.6974 300.5807 -546.8711 -427.3720 30697.3275 -179.2103 -116.7301
ENERGY: 1500000 0.0494 5.1960 0.1361 0.0000 -10830.5150 1491.2056 0.0000 0.0000 1745.8363 -7588.0916 297.2576 -9333.9279 -7552.1637 299.1633 425.4584 478.9339 30166.3849 -105.4096 -41.7909
TCL: Running FEP window   3: Lambda1 0.8999999999999999 Lambda2 0.8499999999999999 [dLambda -0.050000000000000044]
TCL: Setting parameter firsttimestep to 0
TCL: Setting parameter alchLambda to 0.8999999999999999
Info: NONBONDED TABLE R-SQUARED SPACING: 0.0625
Info: NONBONDED TABLE SIZE: 705 POINTS
TCL: Setting parameter alchLambda2 to 0.8499999999999999
Info: NONBONDED TABLE R-SQUARED SPACING: 0.0625
Info: NONBONDED TABLE SIZE: 705 POINTS
TCL: Running for 1500000 steps
ETITLE: TS BOND ANGLE DIHED IMPRP ELECT VDW BOUNDARY MISC KINETIC TOTAL TEMP POTENTIAL TOTALAVG TEMPAVG PRESSURE GPRESSURE VOLUME PRESSAVG GPRESSAVG
ENERGY: 0 0.0494 5.1960 0.1361 0.0000 -10830.2941 1491.5363 0.0000 0.0000 1744.9917 -7588.3846 297.1138 -9333.3762 -7588.3846 297.1138 401.2055 475.4759 30166.3849 401.2055 475.4759
ENERGY: 300000 0.1529 2.7995 0.2462 0.0000 -10845.9270 1530.7975 0.0000 0.0000 1718.0873 -7593.8436 292.5329 -9311.9309 -7539.6496 298.5841 771.1092 778.8236 30013.7289 270.4181 341.7560
ENERGY: 600000 1.0860 3.1335 2.5944 0.0000 -10703.6391 1427.0342 0.0000 0.0000 1783.4134 -7486.3777 303.6557 -9269.7911 -7552.3971 298.2393 0.1552 69.6840 30418.5598 129.6540 197.6418
ENERGY: 900000 0.2403 2.0877 0.0484 0.0000 -10728.7383 1426.1010 0.0000 0.0000 1817.9252 -7482.3357 309.5319 -9300.2610 -7532.7614 299.5173 -120.3883 -104.8964 30512.3880 13.3612 83.3220
ENERGY: 1200000 0.1193 1.8060 0.0465 0.0000 -10636.4908 1441.0917 0.0000 0.0000 1761.9331 -7431.4943 299.9983 -9193.4274 -7517.4367 300.6928 177.1421 207.0128 30661.4317 -30.1460 38.4640
ENERGY: 1500000 0.7146 2.1095 0.0622 0.0000 -10643.9564 1389.6628 0.0000 0.0000 1717.7212 -7533.6861 292.4705 -9251.4073 -7519.7258 300.1390 -571.8545 -468.7968 30732.3480 -82.2446 -9.6499
TCL: Running FEP window   4: Lambda1 0.8499999999999999 Lambda2 0.7999999999999998 [dLambda -0.050000000000000044]
TCL: Setting parameter firsttimestep to 0
TCL: Setting parameter alchLambda to 0.8499999999999999
Info: NONBONDED TABLE R-SQUARED SPACING: 0.0625
Info: NONBONDED TABLE SIZE: 705 POINTS
TCL: Setting parameter alchLambda2 to 0.7999999999999998
Info: NONBONDED TABLE R-SQUARED SPACING: 0.0625
Info: NONBONDED TABLE SIZE: 705 POINTS
TCL: Running for 1500000 steps
ETITLE: TS BOND ANGLE DIHED IMPRP ELECT VDW BOUNDARY MISC KINETIC TOTAL TEMP POTENTIAL TOTALAVG TEMPAVG PRESSURE GPRESSURE VOLUME PRESSAVG GPRESSAVG
ENERGY: 0 0.7146 2.1095 0.0622 0.0000 -10643.7736 1390.0361 0.0000 0.0000 1716.8385 -7534.0126 292.3202 -9250.8512 -7534.0126 292.3202 -554.8139 -470.6684 30732.3480 -554.8139 -470.6684
ENERGY: 300000 0.7407 2.9335 0.0995 0.0000 -10763.7763 1403.1551 0.0000 0.0000 1751.7652 -7605.0822 298.2671 -9356.8475 -7554.1144 298.1132 -586.8627 -515.5899 30485.3225 -146.5009 -89.3300
ENERGY: 600000 1.3100 2.0680 0.1237 0.0000 -10591.9429 1380.9453 0.0000 0.0000 1775.9387 -7431.5572 302.3830 -9207.4959 -7513.2647 298.3257 -314.4866 -298.5864 30924.5587 -107.6076 -55.7097
ENERGY: 900000 3.4354 3.7136 0.1476 0.0000 -10874.1218 1505.3620 0.0000 0.0000 1795.1320 -7566.3312 305.6510 -9361.4632 -7532.9385 300.7234 54.1683 154.1063 30383.2182 -95.8988 -36.4105
ENERGY: 1200000 0.0669 1.7408 0.0685 0.0000 -10825.2324 1513.3125 0.0000 0.0000 1713.2896 -7596.7540 291.7160 -9310.0436 -7537.8643 299.4731 545.7737 569.4160 30062.0190 -132.9506 -78.0066
ENERGY: 1500000 0.5364 1.4553 1.8066 0.0000 -10854.6746 1555.6865 0.0000 0.0000 1768.8661 -7526.3236 301.1788 -9295.1897 -7541.2649 299.4542 992.2710 1001.5265 30395.9967 -87.0057 -37.6790
TCL: Running FEP window   5: Lambda1 0.7999999999999998 Lambda2 0.7499999999999998 [dLambda -0.050000000000000044]
TCL: Setting parameter firsttimestep to 0
TCL: Setting parameter alchLambda to 0.7999999999999998
Info: NONBONDED TABLE R-SQUARED SPACING: 0.0625
Info: NONBONDED TABLE SIZE: 705 POINTS
TCL: Setting parameter alchLambda2 to 0.7499999999999998
Info: NONBONDED TABLE R-SQUARED SPACING: 0.0625
Info: NONBONDED TABLE SIZE: 705 POINTS
TCL: Running for 1500000 steps
ETITLE: TS BOND ANGLE DIHED IMPRP ELECT VDW BOUNDARY MISC KINETIC TOTAL TEMP POTENTIAL TOTALAVG TEMPAVG PRESSURE GPRESSURE VOLUME PRESSAVG GPRESSAVG
ENERGY: 0 0.5364 1.4553 1.8066 0.0000 -10854.7157 1555.9989 0.0000 0.0000 1767.9821 -7526.9364 301.0283 -9294.9185 -7526.9364 301.0283 922.1294 997.0063 30395.9967 922.1294 997.0063
ENERGY: 300000 0.3788 1.4492 0.1025 0.0000 -10641.4577 1425.5531 0.0000 0.0000 1858.2151 -7355.7590 316.3919 -9213.9741 -7431.4899 307.4354 -61.2700 10.6984 30884.7935 167.3967 219.5101
ENERGY: 600000 0.7084 3.2387 0.0596 0.0000 -10727.9378 1401.0613 0.0000 0.0000 1714.2030 -7608.6668 291.8715 -9322.8698 -7504.0483 302.1986 -425.4895 -352.6505 30360.3288 50.2847 110.3244
ENERGY: 900000 1.3735 3.6912 0.0771 0.0000 -10639.8046 1324.3931 0.0000 0.0000 1788.5673 -7521.7023 304.5332 -9310.2696 -7510.4593 303.3813 -960.8821 -942.5936 30717.4911 75.9773 139.3370
ENERGY: 1200000 0.0167 4.9719 0.1833 0.0000 -10591.4103 1361.1517 0.0000 0.0000 1801.6560 -7423.4308 306.7618 -9225.0867 -7512.6581 302.5684 -363.4030 -287.1796 30441.3692 68.0600 135.4484
ENERGY: 1500000 0.2909 0.7415 0.0169 0.0000 -10619.0210 1364.8943 0.0000 0.0000 1775.8276 -7477.2498 302.3641 -9253.0774 -7510.1369 302.5722 -679.4010 -623.4210 30808.1104 88.6879 149.0550
TCL: Running FEP window   6: Lambda1 0.7499999999999998 Lambda2 0.6999999999999997 [dLambda -0.050000000000000044]
TCL: Setting parameter firsttimestep to 0
TCL: Setting parameter alchLambda to 0.7499999999999998
Info: NONBONDED TABLE R-SQUARED SPACING: 0.0625
Info: NONBONDED TABLE SIZE: 705 POINTS
TCL: Setting parameter alchLambda2 to 0.6999999999999997
Info: NONBONDED TABLE R-SQUARED SPACING: 0.0625
Info: NONBONDED TABLE SIZE: 705 POINTS
TCL: Running for 1500000 steps
ETITLE: TS BOND ANGLE DIHED IMPRP ELECT VDW BOUNDARY MISC KINETIC TOTAL TEMP POTENTIAL TOTALAVG TEMPAVG PRESSURE GPRESSURE VOLUME PRESSAVG GPRESSAVG
ENERGY: 0 0.2909 0.7415 0.0169 0.0000 -10618.7345 1365.0909 0.0000 0.0000 1774.9395 -7477.6549 302.2129 -9252.5944 -7477.6549 302.2129 -696.9406 -624.5368 30808.1104 -696.9406 -624.5368
ENERGY: 300000 1.3164 2.2755 0.3335 0.0000 -10839.4640 1516.5966 0.0000 0.0000 1798.3590 -7520.5831 306.2004 -9318.9420 -7492.6276 303.6144 545.2486 578.7634 30383.4141 228.5172 286.7907
ENERGY: 600000 0.0937 1.7849 0.0252 0.0000 -10637.0469 1371.7945 0.0000 0.0000 1758.0315 -7505.3172 299.3340 -9263.3486 -7498.2532 302.7229 -372.9157 -391.5871 30594.4322 -78.8003 -32.6812
ENERGY: 900000 0.9733 3.8521 0.4661 0.0000 -10636.4814 1408.0897 0.0000 0.0000 1763.0103 -7460.0900 300.1817 -9223.1002 -7484.7742 301.0233 -109.0061 -69.3793 30319.8321 -67.6646 -36.3776
ENERGY: 1200000 2.7073 3.1153 0.2166 0.0000 -10634.2400 1391.0379 0.0000 0.0000 1779.9097 -7457.2532 303.0591 -9237.1629 -7503.6129 300.6866 -237.4149 -185.7335 30477.0623 -40.5796 4.4199
ENERGY: 1500000 0.7930 2.4532 0.1918 0.0000 -10762.0815 1426.9239 0.0000 0.0000 1773.5826 -7558.1369 301.9819 -9331.7196 -7509.2592 300.6266 -185.4043 -81.5923 30392.1655 -126.5887 -73.9536
TCL: Running FEP window   7: Lambda1 0.6999999999999997 Lambda2 0.6499999999999997 [dLambda -0.050000000000000044]
TCL: Setting parameter firsttimestep to 0
TCL: Setting parameter alchLambda to 0.6999999999999997
Info: NONBONDED TABLE R-SQUARED SPACING: 0.0625
Info: NONBONDED TABLE SIZE: 705 POINTS
TCL: Setting parameter alchLambda2 to 0.6499999999999997
Info: NONBONDED TABLE R-SQUARED SPACING: 0.0625
Info: NONBONDED TABLE SIZE: 705 POINTS
TCL: Running for 1500000 steps
ETITLE: TS BOND ANGLE DIHED IMPRP ELECT VDW BOUNDARY MISC KINETIC TOTAL TEMP POTENTIAL TOTALAVG TEMPAVG PRESSURE GPRESSURE VOLUME PRESSAVG GPRESSAVG
ENERGY: 0 0.7930 2.4532 0.1918 0.0000 -10761.7844 1427.1347 0.0000 0.0000 1772.7090 -7558.5026 301.8331 -9331.2117 -7558.5026 301.8331 -174.2193 -89.4343 30392.1655 -174.2193 -89.4343
ENERGY: 300000 0.1134 3.6870 0.3703 0.0000 -10699.9823 1438.1421 0.0000 0.0000 1760.9362 -7496.7334 299.8286 -9257.6696 -7507.5371 303.5490 124.5791 170.3194 30488.4557 -276.0108 -227.2181
ENERGY: 600000 0.3495 2.2534 0.0613 0.0000 -10699.5315 1392.1193 0.0000 0.0000 1752.3387 -7552.4095 298.3647 -9304.7481 -7515.4045 301.2795 -547.0732 -465.2060 30576.7751 -399.2602 -342.4899
ENERGY: 900000 0.5257 2.8195 0.1040 0.0000 -10826.8250 1516.0317 0.0000 0.0000 1788.2515 -7519.0925 304.4795 -9307.3440 -7523.6308 299.9695 689.8889 794.3779 30194.8768 -294.5844 -223.3715
ENERGY: 1200000 0.1845 2.8096 0.2526 0.0000 -10594.6602 1370.7935 0.0000 0.0000 1719.2631 -7501.3569 292.7331 -9220.6200 -7522.6599 299.2219 -447.9949 -382.4600 30625.0028 -286.2605 -218.9153
ENERGY: 1500000 2.3725 5.3717 0.0869 0.0000 -10832.3151 1471.1927 0.0000 0.0000 1755.9158 -7597.3754 298.9738 -9353.2912 -7532.4003 299.3982 90.7819 87.7374 30488.9304 -232.4757 -168.2503
TCL: Running FEP window   8: Lambda1 0.6499999999999997 Lambda2 0.5999999999999996 [dLambda -0.050000000000000044]
TCL: Setting parameter firsttimestep to 0
TCL: Setting parameter alchLambda to 0.6499999999999997
Info: NONBONDED TABLE R-SQUARED SPACING: 0.0625
Info: NONBONDED TABLE SIZE: 705 POINTS
TCL: Setting parameter alchLambda2 to 0.5999999999999996
Info: NONBONDED TABLE R-SQUARED SPACING: 0.0625
Info: NONBONDED TABLE SIZE: 705 POINTS
TCL: Running for 1500000 steps
ETITLE: TS BOND ANGLE DIHED IMPRP ELECT VDW BOUNDARY MISC KINETIC TOTAL TEMP POTENTIAL TOTALAVG TEMPAVG PRESSURE GPRESSURE VOLUME PRESSAVG GPRESSAVG
ENERGY: 0 2.3725 5.3717 0.0869 0.0000 -10832.4824 1471.3587 0.0000 0.0000 1754.9810 -7598.3115 298.8146 -9353.2925 -7598.3115 298.8146 2.1671 81.2396 30488.9304 2.1671 81.2396
ENERGY: 300000 0.0492 3.4627 0.2302 0.0000 -10568.5512 1418.5372 0.0000 0.0000 1796.3672 -7349.9045 305.8613 -9146.2717 -7519.7617 299.2096 200.3591 295.6492 30374.6856 225.4933 293.6771
ENERGY: 600000 0.0721 6.5280 0.1453 0.0000 -10699.9693 1389.2625 0.0000 0.0000 1698.8755 -7605.0859 289.2617 -9303.9614 -7533.4895 297.1171 -627.0284 -603.2586 30608.6540 -61.1026 0.7732
ENERGY: 900000 0.2931 3.3288 0.1121 0.0000 -10649.4563 1417.8567 0.0000 0.0000 1724.9347 -7502.9310 293.6987 -9227.8656 -7521.6845 297.6955 56.2720 57.2891 30474.8965 6.5488 67.6749
ENERGY: 1200000 1.6364 3.6642 0.1789 0.0000 -10779.2123 1411.5802 0.0000 0.0000 1778.3639 -7583.7888 302.7959 -9362.1526 -7521.0335 298.7144 -425.1494 -317.9066 30070.6912 -42.4180 25.7351
ENERGY: 1500000 0.6545 3.6031 0.0699 0.0000 -10684.5803 1437.1519 0.0000 0.0000 1800.3253 -7442.7757 306.5352 -9243.1010 -7520.4327 299.7631 -56.7318 -15.5371 30994.7407 -52.0422 12.6278
TCL: Running FEP window   9: Lambda1 0.5999999999999996 Lambda2 0.5499999999999996 [dLambda -0.050000000000000044]
TCL: Setting parameter firsttimestep to 0
TCL: Setting parameter alchLambda to 0.5999999999999996
Info: NONBONDED TABLE R-SQUARED SPACING: 0.0625
Info: NONBONDED TABLE SIZE: 705 POINTS
TCL: Setting parameter alchLambda2 to 0.5499999999999996
Info: NONBONDED TABLE R-SQUARED SPACING: 0.0625
Info: NONBONDED TABLE SIZE: 705 POINTS
TCL: Running for 1500000 steps
ETITLE: TS BOND ANGLE DIHED IMPRP ELECT VDW BOUNDARY MISC KINETIC TOTAL TEMP POTENTIAL TOTALAVG TEMPAVG PRESSURE GPRESSURE VOLUME PRESSAVG GPRESSAVG
ENERGY: 0 0.6545 3.6031 0.0699 0.0000 -10684.3793 1437.5095 0.0000 0.0000 1799.4461 -7443.0963 306.3855 -9242.5424 -7443.0963 306.3855 -99.2034 -18.6262 30994.7407 -99.2034 -18.6262
ENERGY: 300000 0.0791 4.8866 0.1605 0.0000 -10990.0470 1583.0915 0.0000 0.0000 1769.9618 -7631.8676 301.3653 -9401.8294 -7522.5636 303.9921 710.5151 754.7119 30161.5414 -105.4699 -59.4393
ENERGY: 600000 0.4743 2.3953 0.0306 0.0000 -10896.0630 1511.7913 0.0000 0.0000 1746.0779 -7635.2936 297.2987 -9381.3716 -7531.4087 303.1213 311.6372 408.4000 29965.4692 -63.9672 7.5018
ENERGY: 900000 0.2267 2.9754 1.1335 0.0000 -10742.6029 1411.0948 0.0000 0.0000 1768.7332 -7558.4395 301.1562 -9327.1726 -7531.6684 302.5694 -456.9880 -367.2201 30388.8294 -40.6399 32.3561
ENERGY: 1200000 0.1206 3.3950 0.0540 0.0000 -10768.1538 1439.1901 0.0000 0.0000 1701.7569 -7623.6371 289.7523 -9325.3940 -7539.5378 300.5908 -73.0746 -71.4788 30317.2591 -59.1134 4.8556
ENERGY: 1500000 0.0941 2.8137 0.3880 0.0000 -10793.2364 1462.8823 0.0000 0.0000 1729.4923 -7597.5659 294.4747 -9327.0582 -7548.0351 299.7587 -206.0561 -184.0737 30550.0837 -84.3368 -23.8718
TCL: Running FEP window  10: Lambda1 0.5499999999999996 Lambda2 0.4999999999999996 [dLambda -0.04999999999999999]
TCL: Setting parameter firsttimestep to 0
TCL: Setting parameter alchLambda to 0.5499999999999996
Info: NONBONDED TABLE R-SQUARED SPACING: 0.0625
Info: NONBONDED TABLE SIZE: 705 POINTS
TCL: Setting parameter alchLambda2 to 0.4999999999999996
Info: NONBONDED TABLE R-SQUARED SPACING: 0.0625
Info: NONBONDED TABLE SIZE: 705 POINTS
TCL: Running for 1500000 steps
ETITLE: TS BOND ANGLE DIHED IMPRP ELECT VDW BOUNDARY MISC KINETIC TOTAL TEMP POTENTIAL TOTALAVG TEMPAVG PRESSURE GPRESSURE VOLUME PRESSAVG GPRESSAVG
ENERGY: 0 0.0941 2.8137 0.3880 0.0000 -10793.0538 1463.2318 0.0000 0.0000 1728.6067 -7597.9195 294.3240 -9326.5262 -7597.9195 294.3240 -261.1931 -185.1940 30550.0837 -261.1931 -185.1940
ENERGY: 300000 0.0891 2.0857 1.3581 0.0000 -10726.6691 1424.5796 0.0000 0.0000 1766.2833 -7532.2733 300.7390 -9298.5566 -7576.6156 299.5721 -93.0469 -13.5159 30123.4751 -87.3616 -22.8266
ENERGY: 600000 2.1139 1.8427 2.1209 0.0000 -10610.1093 1352.4288 0.0000 0.0000 1777.3607 -7474.2424 302.6251 -9251.6030 -7534.4952 300.8902 -637.5043 -621.5853 30329.6613 -358.1741 -320.3011
ENERGY: 900000 0.7204 2.1286 0.2281 0.0000 -10645.2356 1357.2072 0.0000 0.0000 1753.0091 -7531.9423 298.4789 -9284.9514 -7532.2339 300.6962 -853.1010 -781.9446 30727.8384 -446.8153 -395.3959
ENERGY: 1200000 0.3365 2.2742 0.1354 0.0000 -10756.4757 1426.7154 0.0000 0.0000 1727.8450 -7599.1692 294.1943 -9327.0141 -7530.0887 300.5347 -500.6319 -441.5838 30706.0600 -415.4273 -357.3171
ENERGY: 1500000 0.6291 2.3567 0.9290 0.0000 -10734.9153 1435.2583 0.0000 0.0000 1752.6400 -7543.1022 298.4160 -9295.7422 -7535.5347 300.7267 383.2582 442.1238 29565.7992 -316.5604 -255.4733
TCL: Running FEP window  11: Lambda1 0.4999999999999996 Lambda2 0.4499999999999996 [dLambda -0.04999999999999999]
TCL: Setting parameter firsttimestep to 0
TCL: Setting parameter alchLambda to 0.4999999999999996
Info: NONBONDED TABLE R-SQUARED SPACING: 0.0625
Info: NONBONDED TABLE SIZE: 705 POINTS
TCL: Setting parameter alchLambda2 to 0.4499999999999996
Info: NONBONDED TABLE R-SQUARED SPACING: 0.0625
Info: NONBONDED TABLE SIZE: 705 POINTS
TCL: Running for 1500000 steps
ETITLE: TS BOND ANGLE DIHED IMPRP ELECT VDW BOUNDARY MISC KINETIC TOTAL TEMP POTENTIAL TOTALAVG TEMPAVG PRESSURE GPRESSURE VOLUME PRESSAVG GPRESSAVG
ENERGY: 0 0.6291 2.3567 0.9290 0.0000 -10735.1687 1435.5731 0.0000 0.0000 1751.7464 -7543.9344 298.2639 -9295.6808 -7543.9344 298.2639 338.1733 438.6975 29565.7992 338.1733 438.6975
ENERGY: 300000 0.4816 2.0704 0.0498 0.0000 -10863.7228 1534.6708 0.0000 0.0000 1791.1268 -7535.3234 304.9690 -9326.4502 -7534.9256 300.2712 483.6631 488.8771 30642.4997 448.0833 502.9807
ENERGY: 600000 0.7231 3.7503 0.1402 0.0000 -10737.4950 1487.4567 0.0000 0.0000 1743.0919 -7502.3327 296.7903 -9245.4246 -7532.5363 299.6130 328.8937 413.2831 30349.2459 279.2109 332.6090
ENERGY: 900000 0.2050 3.3224 1.0459 0.0000 -10730.4324 1427.6553 0.0000 0.0000 1757.6555 -7540.5484 299.2700 -9298.2039 -7519.8875 299.9601 -436.7571 -348.6430 30779.4883 138.4244 195.7976
ENERGY: 1200000 0.4903 4.2526 0.0952 0.0000 -10624.9453 1422.0027 0.0000 0.0000 1783.8298 -7414.2746 303.7266 -9198.1044 -7513.0751 300.0632 5.5227 114.0142 30798.9551 102.4497 166.3609
ENERGY: 1500000 0.9037 3.3380 0.2367 0.0000 -10712.5980 1475.0257 0.0000 0.0000 1739.8955 -7493.1983 296.2461 -9233.0939 -7515.3063 298.9959 503.2389 474.6884 30170.3288 151.1725 204.1411
TCL: Running FEP window  12: Lambda1 0.4499999999999996 Lambda2 0.39999999999999963 [dLambda -0.04999999999999999]
TCL: Setting parameter firsttimestep to 0
TCL: Setting parameter alchLambda to 0.4499999999999996
Info: NONBONDED TABLE R-SQUARED SPACING: 0.0625
Info: NONBONDED TABLE SIZE: 705 POINTS
TCL: Setting parameter alchLambda2 to 0.39999999999999963
Info: NONBONDED TABLE R-SQUARED SPACING: 0.0625
Info: NONBONDED TABLE SIZE: 705 POINTS
TCL: Running for 1500000 steps
ETITLE: TS BOND ANGLE DIHED IMPRP ELECT VDW BOUNDARY MISC KINETIC TOTAL TEMP POTENTIAL TOTALAVG TEMPAVG PRESSURE GPRESSURE VOLUME PRESSAVG GPRESSAVG
ENERGY: 0 0.9037 3.3380 0.2367 0.0000 -10712.5973 1475.3879 0.0000 0.0000 1739.0177 -7493.7133 296.0966 -9232.7310 -7493.7133 296.0966 401.8320 473.5603 30170.3288 401.8320 473.5603
ENERGY: 300000 0.1580 3.6188 0.4074 0.0000 -10682.8007 1426.5622 0.0000 0.0000 1762.5257 -7489.5286 300.0992 -9252.0543 -7469.2664 300.6473 -280.8604 -166.3854 30698.8945 -32.9334 56.1992
ENERGY: 600000 0.0896 2.3218 0.0875 0.0000 -10672.0804 1469.9768 0.0000 0.0000 1685.4695 -7514.1352 286.9791 -9199.6047 -7500.0098 297.8971 367.2175 415.7174 30495.2799 66.2794 137.1511
ENERGY: 900000 0.4441 1.3721 0.0528 0.0000 -10720.4370 1409.4932 0.0000 0.0000 1740.1054 -7568.9694 296.2818 -9309.0748 -7505.8281 297.5845 -445.9680 -352.1987 30499.8367 -73.3879 3.0532
ENERGY: 1200000 0.0716 3.7009 0.0995 0.0000 -10648.7528 1406.3863 0.0000 0.0000 1758.4108 -7480.0837 299.3986 -9238.4945 -7515.6328 296.9701 -187.5643 -102.7877 30228.0196 -17.4129 55.8482
ENERGY: 1500000 1.5067 2.2363 0.0678 0.0000 -10623.3324 1396.9780 0.0000 0.0000 1723.4836 -7499.0601 293.4517 -9222.5437 -7510.9770 297.1343 -294.6279 -245.8381 30411.5630 -21.2341 45.4381
TCL: Running FEP window  13: Lambda1 0.39999999999999963 Lambda2 0.34999999999999964 [dLambda -0.04999999999999999]
TCL: Setting parameter firsttimestep to 0
TCL: Setting parameter alchLambda to 0.39999999999999963
Info: NONBONDED TABLE R-SQUARED SPACING: 0.0625
Info: NONBONDED TABLE SIZE: 705 POINTS
TCL: Setting parameter alchLambda2 to 0.34999999999999964
Info: NONBONDED TABLE R-SQUARED SPACING: 0.0625
Info: NONBONDED TABLE SIZE: 705 POINTS
TCL: Running for 1500000 steps
ETITLE: TS BOND ANGLE DIHED IMPRP ELECT VDW BOUNDARY MISC KINETIC TOTAL TEMP POTENTIAL TOTALAVG TEMPAVG PRESSURE GPRESSURE VOLUME PRESSAVG GPRESSAVG
ENERGY: 0 1.5067 2.2363 0.0678 0.0000 -10623.3320 1396.2736 0.0000 0.0000 1722.6010 -7500.6467 293.3014 -9223.2477 -7500.6467 293.3014 -335.6864 -253.9041 30411.5630 -335.6864 -253.9041
ENERGY: 300000 0.4548 6.6173 0.1573 0.0000 -10725.8693 1446.2432 0.0000 0.0000 1759.6322 -7512.7646 299.6066 -9272.3968 -7505.5623 298.9299 -64.6227 -35.1073 30862.2373 38.2493 88.9809
ENERGY: 600000 0.7770 8.1733 0.3928 0.0000 -10615.4599 1351.1696 0.0000 0.0000 1760.6017 -7494.3455 299.7716 -9254.9472 -7502.8239 299.2722 -463.7108 -453.7380 30116.7604 -204.2055 -162.3361
ENERGY: 900000 1.6375 1.6577 0.3217 0.0000 -10766.5822 1467.5272 0.0000 0.0000 1808.1864 -7487.2516 307.8737 -9295.4381 -7501.5595 300.7695 134.5610 168.7061 30288.8090 -183.7487 -138.8143
ENERGY: 1200000 0.1619 3.3522 0.0184 0.0000 -10702.7550 1372.4313 0.0000 0.0000 1713.4931 -7613.2981 291.7506 -9326.7912 -7506.5587 299.7750 -816.7399 -791.5894 30543.1063 -205.5621 -157.4549
ENERGY: 1500000 0.0260 1.6915 0.2360 0.0000 -10733.9000 1435.5413 0.0000 0.0000 1711.2520 -7585.1532 291.3690 -9296.4052 -7512.2323 298.7954 158.8456 160.9854 30007.6723 -180.5953 -132.1125
TCL: Running FEP window  14: Lambda1 0.34999999999999964 Lambda2 0.29999999999999966 [dLambda -0.04999999999999999]
TCL: Setting parameter firsttimestep to 0
TCL: Setting parameter alchLambda to 0.34999999999999964
Info: NONBONDED TABLE R-SQUARED SPACING: 0.0625
Info: NONBONDED TABLE SIZE: 705 POINTS
TCL: Setting parameter alchLambda2 to 0.29999999999999966
Info: NONBONDED TABLE R-SQUARED SPACING: 0.0625
Info: NONBONDED TABLE SIZE: 705 POINTS
TCL: Running for 1500000 steps
ETITLE: TS BOND ANGLE DIHED IMPRP ELECT VDW BOUNDARY MISC KINETIC TOTAL TEMP POTENTIAL TOTALAVG TEMPAVG PRESSURE GPRESSURE VOLUME PRESSAVG GPRESSAVG
ENERGY: 0 0.0260 1.6915 0.2360 0.0000 -10733.9008 1435.5319 0.0000 0.0000 1710.3928 -7586.0225 291.2227 -9296.4154 -7586.0225 291.2227 65.5238 157.6027 30007.6723 65.5238 157.6027
ENERGY: 300000 0.3020 1.4063 0.0424 0.0000 -10802.7219 1547.0914 0.0000 0.0000 1816.3219 -7437.5579 309.2589 -9253.8798 -7498.3886 299.5249 1146.4681 1116.2457 30101.4297 78.7186 90.2413
ENERGY: 600000 1.1412 4.5190 0.8349 0.0000 -10639.1752 1394.4057 0.0000 0.0000 1753.5335 -7484.7410 298.5682 -9238.2745 -7508.9428 298.4232 -403.8984 -387.1996 30537.1161 -108.5301 -78.3376
ENERGY: 900000 0.3359 2.4816 0.0657 0.0000 -10677.7290 1434.0513 0.0000 0.0000 1778.6924 -7462.1020 302.8519 -9240.7944 -7490.3883 299.0157 209.9904 193.6852 30355.3514 -140.3656 -108.2532
ENERGY: 1200000 0.0304 4.9807 0.6512 0.0000 -10690.3531 1448.4495 0.0000 0.0000 1741.3572 -7494.8842 296.4949 -9236.2413 -7494.3559 298.9994 366.1409 398.9235 30089.6417 -58.4349 -20.6582
ENERGY: 1500000 0.1710 3.1486 0.2835 0.0000 -10768.1933 1468.9926 0.0000 0.0000 1745.7790 -7549.8186 297.2478 -9295.5976 -7496.4280 299.9758 307.4591 371.4399 30050.2992 -55.3183 -8.2075
TCL: Running FEP window  15: Lambda1 0.29999999999999966 Lambda2 0.24999999999999967 [dLambda -0.04999999999999999]
TCL: Setting parameter firsttimestep to 0
TCL: Setting parameter alchLambda to 0.29999999999999966
Info: NONBONDED TABLE R-SQUARED SPACING: 0.0625
Info: NONBONDED TABLE SIZE: 705 POINTS
TCL: Setting parameter alchLambda2 to 0.24999999999999967
Info: NONBONDED TABLE R-SQUARED SPACING: 0.0625
Info: NONBONDED TABLE SIZE: 705 POINTS
TCL: Running for 1500000 steps
ETITLE: TS BOND ANGLE DIHED IMPRP ELECT VDW BOUNDARY MISC KINETIC TOTAL TEMP POTENTIAL TOTALAVG TEMPAVG PRESSURE GPRESSURE VOLUME PRESSAVG GPRESSAVG
ENERGY: 0 0.1710 3.1486 0.2835 0.0000 -10768.1940 1468.9251 0.0000 0.0000 1744.8980 -7550.7678 297.0978 -9295.6658 -7550.7678 297.0978 305.7833 370.8811 30050.2992 305.7833 370.8811
ENERGY: 300000 0.1704 6.5590 0.3341 0.0000 -10765.5611 1474.8041 0.0000 0.0000 1797.4148 -7486.2787 306.0397 -9283.6935 -7535.3731 299.0008 547.3731 647.7789 29730.3295 354.7083 421.8051
ENERGY: 600000 0.0890 3.9199 0.0689 0.0000 -10656.8867 1378.7253 0.0000 0.0000 1746.2666 -7527.8169 297.3309 -9274.0835 -7529.8136 298.2837 -292.7085 -235.0237 30041.7363 205.9036 274.4773
ENERGY: 900000 0.0750 1.0690 0.0087 0.0000 -10663.6150 1400.0885 0.0000 0.0000 1753.7228 -7508.6510 298.6004 -9262.3738 -7523.3250 298.9469 -489.2652 -419.8439 30805.6779 -0.6594 64.1930
ENERGY: 1200000 0.5643 4.8128 0.7509 0.0000 -10844.9332 1577.8931 0.0000 0.0000 1748.9311 -7511.9811 297.7845 -9260.9121 -7515.9376 299.1490 1268.6203 1328.1571 29934.2269 -3.3864 63.8871
ENERGY: 1500000 0.3051 2.5698 0.2435 0.0000 -10750.2384 1482.6603 0.0000 0.0000 1767.5564 -7496.9033 300.9558 -9264.4597 -7511.6315 299.0654 421.3072 494.5183 30334.0355 3.3180 70.2378
TCL: Running FEP window  16: Lambda1 0.24999999999999967 Lambda2 0.19999999999999968 [dLambda -0.04999999999999999]
TCL: Setting parameter firsttimestep to 0
TCL: Setting parameter alchLambda to 0.24999999999999967
Info: NONBONDED TABLE R-SQUARED SPACING: 0.0625
Info: NONBONDED TABLE SIZE: 705 POINTS
TCL: Setting parameter alchLambda2 to 0.19999999999999968
Info: NONBONDED TABLE R-SQUARED SPACING: 0.0625
Info: NONBONDED TABLE SIZE: 705 POINTS
TCL: Running for 1500000 steps
ETITLE: TS BOND ANGLE DIHED IMPRP ELECT VDW BOUNDARY MISC KINETIC TOTAL TEMP POTENTIAL TOTALAVG TEMPAVG PRESSURE GPRESSURE VOLUME PRESSAVG GPRESSAVG
ENERGY: 0 0.3051 2.5698 0.2435 0.0000 -10750.2390 1482.8986 0.0000 0.0000 1766.7244 -7497.4976 300.8141 -9264.2220 -7497.4976 300.8141 409.3425 496.1191 30334.0355 409.3425 496.1191
ENERGY: 300000 0.2402 3.1815 0.0806 0.0000 -10763.2430 1468.7706 0.0000 0.0000 1788.9365 -7502.0336 304.5961 -9290.9701 -7482.0922 305.2012 207.2851 303.8096 30346.6757 211.9146 270.0445
ENERGY: 600000 0.0164 2.4384 0.8341 0.0000 -10680.9595 1368.8017 0.0000 0.0000 1756.8277 -7552.0412 299.1291 -9308.8689 -7493.2458 302.7097 -802.8379 -715.8553 30407.3712 -24.3226 26.7044
ENERGY: 900000 0.7014 2.0803 0.0089 0.0000 -10875.7527 1504.5429 0.0000 0.0000 1733.2531 -7635.1662 295.1151 -9368.4194 -7521.4711 301.4574 111.7433 246.2150 30095.2382 -107.8552 -42.5186
ENERGY: 1200000 0.1277 4.2420 0.1310 0.0000 -10692.9605 1430.3647 0.0000 0.0000 1813.8774 -7444.2178 308.8427 -9258.0952 -7516.0572 301.4174 -128.8119 -74.5545 30383.0564 -92.9942 -30.8844
ENERGY: 1500000 0.8751 1.9557 0.1544 0.0000 -10755.5812 1458.1696 0.0000 0.0000 1744.2387 -7550.1877 296.9856 -9294.4265 -7515.1419 302.1478 -159.3690 -152.6843 30607.2570 -20.2055 32.8218
TCL: Running FEP window  17: Lambda1 0.19999999999999968 Lambda2 0.1499999999999997 [dLambda -0.04999999999999999]
TCL: Setting parameter firsttimestep to 0
TCL: Setting parameter alchLambda to 0.19999999999999968
Info: NONBONDED TABLE R-SQUARED SPACING: 0.0625
Info: NONBONDED TABLE SIZE: 705 POINTS
TCL: Setting parameter alchLambda2 to 0.1499999999999997
Info: NONBONDED TABLE R-SQUARED SPACING: 0.0625
Info: NONBONDED TABLE SIZE: 705 POINTS
TCL: Running for 1500000 steps
ETITLE: TS BOND ANGLE DIHED IMPRP ELECT VDW BOUNDARY MISC KINETIC TOTAL TEMP POTENTIAL TOTALAVG TEMPAVG PRESSURE GPRESSURE VOLUME PRESSAVG GPRESSAVG
ENERGY: 0 0.8751 1.9557 0.1544 0.0000 -10755.5800 1458.1962 0.0000 0.0000 1743.3508 -7551.0479 296.8344 -9294.3987 -7551.0479 296.8344 -233.8496 -152.8687 30607.2570 -233.8496 -152.8687
ENERGY: 300000 0.5910 2.2853 0.1846 0.0000 -10728.5865 1498.1628 0.0000 0.0000 1777.6586 -7449.7043 302.6759 -9227.3629 -7513.9661 296.9912 448.5044 570.7594 30541.1065 175.3591 273.6375
ENERGY: 600000 0.1535 2.6852 0.2901 0.0000 -10778.4067 1392.5571 0.0000 0.0000 1701.4699 -7681.2509 289.7035 -9382.7207 -7539.2459 296.3694 -540.5175 -489.6317 29846.9118 30.5147 92.2717
ENERGY: 900000 0.0038 7.0601 0.1257 0.0000 -10677.8630 1431.5999 0.0000 0.0000 1795.5753 -7443.4982 305.7265 -9239.0735 -7520.9546 298.7973 -5.4226 59.6941 30443.1090 24.9006 93.7265
ENERGY: 1200000 0.4268 5.8544 0.6133 0.0000 -10754.5768 1415.1446 0.0000 0.0000 1756.7888 -7575.7489 299.1224 -9332.5377 -7519.9389 299.7202 -238.6096 -119.5352 29985.2809 -48.9024 20.9757
ENERGY: 1500000 0.8967 2.0886 0.4866 0.0000 -10638.7488 1401.7818 0.0000 0.0000 1751.8573 -7481.6377 298.2828 -9233.4951 -7513.7426 300.0663 -321.9607 -222.3280 30679.1773 -83.2466 -11.5100
TCL: Running FEP window  18: Lambda1 0.1499999999999997 Lambda2 0.09999999999999969 [dLambda -0.05 ]
TCL: Setting parameter firsttimestep to 0
TCL: Setting parameter alchLambda to 0.1499999999999997
Info: NONBONDED TABLE R-SQUARED SPACING: 0.0625
Info: NONBONDED TABLE SIZE: 705 POINTS
TCL: Setting parameter alchLambda2 to 0.09999999999999969
Info: NONBONDED TABLE R-SQUARED SPACING: 0.0625
Info: NONBONDED TABLE SIZE: 705 POINTS
TCL: Running for 1500000 steps
ETITLE: TS BOND ANGLE DIHED IMPRP ELECT VDW BOUNDARY MISC KINETIC TOTAL TEMP POTENTIAL TOTALAVG TEMPAVG PRESSURE GPRESSURE VOLUME PRESSAVG GPRESSAVG
ENERGY: 0 0.8967 2.0886 0.4866 0.0000 -10638.7493 1401.8655 0.0000 0.0000 1751.0048 -7482.4071 298.1376 -9233.4118 -7482.4071 298.1376 -300.2523 -223.7336 30679.1773 -300.2523 -223.7336
ENERGY: 300000 0.0128 2.4408 0.1485 0.0000 -10834.2350 1504.0731 0.0000 0.0000 1758.3937 -7569.1661 299.3957 -9327.5598 -7524.2120 296.6176 364.1675 439.7258 30092.9364 -80.5470 -24.5836
ENERGY: 600000 0.0842 5.5974 1.5339 0.0000 -10851.4318 1520.2709 0.0000 0.0000 1782.2918 -7541.6536 303.4647 -9323.9454 -7525.9255 297.4082 399.5373 450.0598 30273.6028 27.7007 88.0786
ENERGY: 900000 0.7814 1.7998 0.0964 0.0000 -10804.7860 1504.9377 0.0000 0.0000 1764.2305 -7532.9400 300.3895 -9297.1706 -7533.1758 297.5757 53.9217 102.2577 31069.8577 80.3800 145.0999
ENERGY: 1200000 2.6945 1.4540 0.1345 0.0000 -10653.7132 1391.2965 0.0000 0.0000 1772.5996 -7485.5341 301.8145 -9258.1337 -7533.5154 297.2811 -340.3551 -319.7258 30576.9810 29.2312 85.1499
ENERGY: 1500000 0.4435 1.5556 0.0197 0.0000 -10776.1350 1480.4197 0.0000 0.0000 1773.0582 -7520.6383 301.8926 -9293.6965 -7536.2866 298.0206 82.5896 93.7926 30660.3193 -42.3396 10.4780
TCL: Running FEP window  19: Lambda1 0.09999999999999969 Lambda2 0.049999999999999684 [dLambda -0.05 ]
TCL: Setting parameter firsttimestep to 0
TCL: Setting parameter alchLambda to 0.09999999999999969
Info: NONBONDED TABLE R-SQUARED SPACING: 0.0625
Info: NONBONDED TABLE SIZE: 705 POINTS
TCL: Setting parameter alchLambda2 to 0.049999999999999684
Info: NONBONDED TABLE R-SQUARED SPACING: 0.0625
Info: NONBONDED TABLE SIZE: 705 POINTS
TCL: Running for 1500000 steps
ETITLE: TS BOND ANGLE DIHED IMPRP ELECT VDW BOUNDARY MISC KINETIC TOTAL TEMP POTENTIAL TOTALAVG TEMPAVG PRESSURE GPRESSURE VOLUME PRESSAVG GPRESSAVG
ENERGY: 0 0.4435 1.5556 0.0197 0.0000 -10776.1346 1480.4040 0.0000 0.0000 1772.1562 -7521.5557 301.7390 -9293.7119 -7521.5557 301.7390 10.2005 92.5458 30660.3193 10.2005 92.5458
ENERGY: 300000 0.6460 2.2509 0.3269 0.0000 -10793.1776 1463.8883 0.0000 0.0000 1741.8125 -7584.2531 296.5725 -9326.0656 -7514.0447 297.0534 158.0496 238.7062 30022.1767 75.3398 159.4179
ENERGY: 600000 1.3287 4.2394 0.0967 0.0000 -10757.2346 1463.9035 0.0000 0.0000 1756.5875 -7531.0789 299.0881 -9287.6664 -7503.2500 298.4777 -170.8933 -114.3738 30748.7848 148.6116 219.5359
ENERGY: 900000 0.5884 1.0153 0.9197 0.0000 -10665.1261 1401.4258 0.0000 0.0000 1766.7488 -7494.4280 300.8183 -9261.1768 -7490.0522 300.2501 -417.5856 -383.5467 30591.2124 -60.2981 4.9198
ENERGY: 1200000 0.5923 2.9213 0.5809 0.0000 -10629.8627 1381.1150 0.0000 0.0000 1768.4366 -7476.2168 301.1057 -9244.6533 -7500.8259 300.1245 -278.2018 -243.0163 30098.3574 -116.1664 -55.8951
ENERGY: 1500000 0.1885 4.6750 0.6466 0.0000 -10688.0318 1442.4392 0.0000 0.0000 1745.3095 -7494.7729 297.1679 -9240.0825 -7504.1633 299.2924 -140.0718 -40.0169 30815.4344 -187.6479 -118.4108
TCL: Running FEP window  20: Lambda1 0.049999999999999684 Lambda2 0.0    [dLambda -0.049999999999999684]
TCL: Setting parameter firsttimestep to 0
TCL: Setting parameter alchLambda to 0.049999999999999684
Info: NONBONDED TABLE R-SQUARED SPACING: 0.0625
Info: NONBONDED TABLE SIZE: 705 POINTS
TCL: Setting parameter alchLambda2 to 0.0
Info: NONBONDED TABLE R-SQUARED SPACING: 0.0625
Info: NONBONDED TABLE SIZE: 705 POINTS
TCL: Running for 1500000 steps
ETITLE: TS BOND ANGLE DIHED IMPRP ELECT VDW BOUNDARY MISC KINETIC TOTAL TEMP POTENTIAL TOTALAVG TEMPAVG PRESSURE GPRESSURE VOLUME PRESSAVG GPRESSAVG
ENERGY: 0 0.1885 4.6750 0.6466 0.0000 -10688.0315 1442.5619 0.0000 0.0000 1744.4044 -7495.5550 297.0138 -9239.9594 -7495.5550 297.0138 -127.0490 -41.9713 30815.4344 -127.0490 -41.9713
ENERGY: 300000 0.5911 2.0138 0.2028 0.0000 -10589.4522 1322.1182 0.0000 0.0000 1766.5976 -7497.9288 300.7925 -9264.5264 -7487.9496 303.0057 -888.4562 -850.3149 30565.6656 -76.6127 -14.3526
ENERGY: 600000 0.3628 2.3416 0.4177 0.0000 -10595.4525 1418.6117 0.0000 0.0000 1711.7847 -7461.9339 291.4597 -9173.7186 -7500.1523 300.2107 -37.3633 -8.7049 30750.5896 -121.4269 -59.5662
ENERGY: 900000 1.3462 3.5016 0.0441 0.0000 -10702.3574 1478.9010 0.0000 0.0000 1848.9320 -7369.6325 314.8113 -9218.5644 -7503.7424 299.9210 423.2116 496.8803 30319.6635 -3.3995 63.3416
ENERGY: 1200000 0.8077 2.1106 0.1447 0.0000 -10660.7746 1396.4425 0.0000 0.0000 1778.2820 -7482.9871 302.7820 -9261.2690 -7499.6510 300.2667 -396.9555 -374.3463 30584.5680 -18.8435 46.8206
ENERGY: 1500000 0.0719 3.0052 0.8351 0.0000 -10754.9369 1487.0752 0.0000 0.0000 1738.1399 -7525.8095 295.9471 -9263.9494 -7499.7210 300.4028 617.3779 662.1373 29902.8507 3.8120 67.9843
TCL: Exiting due to exit command.
