Info: SIMULATION PARAMETERS:
Info: TIMESTEP               2
Info: NUMBER OF STEPS        0
Info: STEPS PER CYCLE        10
Info: PERIODIC CELL BASIS 1  31.2183 0 0
Info: PERIODIC CELL BASIS 2  0 29.7862 0
Info: PERIODIC CELL BASIS 3  0 0 33.1667
Info: PERIODIC CELL CENTER   0 0 0
Info: WRAPPING WATERS AROUND PERIODIC BOUNDARIES ON OUTPUT.
Info: WRAPPING ALL CLUSTERS AROUND PERIODIC BOUNDARIES ON OUTPUT.
Info: FIRST LDB TIMESTEP     50
Info: LAST LDB TIMESTEP     -1
Info: HOM BACKGROUND SCALING 1
Info: PME BACKGROUND SCALING 1
Info: MIN ATOMS PER PATCH    40
Info: EMPTY PATCH LOAD       40 ATOMS
Info: VELOCITY FILE          mobley_4035953_equil.vel
Info: CENTER OF MASS MOVING INITIALLY? NO
Info: DIELECTRIC             1
Info: EXCLUDE                SCALED ONE-FOUR
Info: 1-4 ELECTROSTATICS SCALED BY 0.833333
Info: MODIFIED 1-4 VDW PARAMETERS WILL BE USED
Info: DCD FILENAME           mobley_4035953_prod.dcd
Info: DCD FREQUENCY          100000
Info: DCD FIRST STEP         100000
Info: DCD FILE WILL CONTAIN UNIT CELL DATA
Info: XST FILENAME           mobley_4035953_prod.xst
Info: XST FREQUENCY          100000
Info: NO VELOCITY DCD OUTPUT
Info: NO FORCE DCD OUTPUT
Info: OUTPUT FILENAME        mobley_4035953_prod
Info: BINARY OUTPUT FILES WILL BE USED
Info: RESTART FILENAME       mobley_4035953_prod.restart
Info: RESTART FREQUENCY      100000
Info: BINARY RESTART FILES WILL BE USED
Info: CUTOFF                 9
Info: PAIRLIST DISTANCE      11
Info: PAIRLIST SHRINK RATE   0.01
Info: PAIRLIST GROW RATE     0.01
Info: PAIRLIST TRIGGER       0.3
Info: PAIRLISTS PER CYCLE    2
Info: PAIRLISTS ENABLED
Info: MARGIN                 2
Info: HYDROGEN GROUP CUTOFF  2.5
Info: PATCH DIMENSION        15.5
Info: ENERGY OUTPUT STEPS    100000
Info: ENERGY EVALUATION STEPS    100000
Info: OUTPUT ENERGY PRECISION 4
Info: CROSSTERM ENERGY INCLUDED IN DIHEDRAL
Info: TIMING OUTPUT STEPS    1000000
Info: PRESSURE OUTPUT STEPS  100000
Info: ALCHEMICAL FEP ON
Info: FEP CURRENT LAMBDA VALUE     0
Info: FEP COMPARISON LAMBDA VALUE  0.05
Info: FEP INTRA-ALCHEMICAL NON-BONDED INTERACTIONS WILL BE RETAINED
Info: FEP INTRA-ALCHEMICAL BONDED INTERACTIONS WILL BE RETAINED
Info: FEP VDW SHIFTING COEFFICIENT 5
Info: FEP ELEC. ACTIVE FOR ANNIHILATED PARTICLES BETWEEN LAMBDA = 0 AND LAMBDA = 0.5
Info: FEP ELEC. ACTIVE FOR EXNIHILATED PARTICLES BETWEEN LAMBDA = 0.5 AND LAMBDA = 1
Info: FEP VDW ACTIVE FOR ANNIHILATED PARTICLES BETWEEN LAMBDA = 0 AND LAMBDA = 1
Info: FEP VDW ACTIVE FOR EXNIHILATED PARTICLES BETWEEN LAMBDA = 0 AND LAMBDA = 1
Info: FEP BOND ACTIVE FOR ANNIHILATED PARTICLES BETWEEN LAMBDA = 1 AND LAMBDA = 1
Info: FEP BOND ACTIVE FOR EXNIHILATED PARTICLES BETWEEN LAMBDA = 0 AND LAMBDA = 0
Info: LANGEVIN DYNAMICS ACTIVE
Info: LANGEVIN TEMPERATURE   300
Info: LANGEVIN USING BBK INTEGRATOR
Info: LANGEVIN DAMPING COEFFICIENT IS 1 INVERSE PS
Info: LANGEVIN DYNAMICS APPLIED TO HYDROGENS
Info: LANGEVIN PISTON PRESSURE CONTROL ACTIVE
Info:        TARGET PRESSURE IS 1.01325 BAR
Info:     OSCILLATION PERIOD IS 50 FS
Info:             DECAY TIME IS 25 FS
Info:     PISTON TEMPERATURE IS 300 K
Info:       PRESSURE CONTROL IS GROUP-BASED
Info:    INITIAL STRAIN RATE IS 0.000118557 0.000118557 0.000118557
Info:       CELL FLUCTUATION IS ISOTROPIC
Info: PARTICLE MESH EWALD (PME) ACTIVE
Info: PME TOLERANCE               1e-06
Info: PME EWALD COEFFICIENT       0.348832
Info: PME INTERPOLATION ORDER     4
Info: PME GRID DIMENSIONS         32 32 36
Info: PME MAXIMUM GRID SPACING    1
Info: PME CALCULATION WILL BE PERFORMED ON GPU
Info: FULL ELECTROSTATIC EVALUATION FREQUENCY      2
Info: USING VERLET I (r-RESPA) MTS SCHEME.
Info: C1 SPLITTING OF LONG RANGE ELECTROSTATICS
Info: PLACING ATOMS IN PATCHES BY HYDROGEN GROUPS
Info: RIGID BONDS TO HYDROGEN : ALL
Info:         ERROR TOLERANCE : 1e-08
Info:          MAX ITERATIONS : 100
Info: RIGID WATER USING SETTLE ALGORITHM
Info: RANDOM NUMBER SEED     1743581439
Info: USE HYDROGEN BONDS?    NO
Info: Using AMBER format force field!
Info: AMBER PARM FILE        mobley_4035953.prmtop
Info: COORDINATE PDB         mobley_4035953.pdb
Info: Exclusions will be read from PARM file!
Info: SCNB (VDW SCALING)     2
Info: USING ARITHMETIC MEAN TO COMBINE L-J SIGMA PARAMETERS
Info: BINARY COORDINATES     mobley_4035953_equil.coor
Info: SUMMARY OF PARAMETERS:
Info: 8 BONDS
Info: 7 ANGLES
Info:   7 HARMONIC
Info:   0 COSINE-BASED
Info: 4 DIHEDRAL
Info: 0 IMPROPER
Info: 0 CROSSTERM
Info: 0 VDW
Info: 28 VDW_PAIRS
Info: 0 NBTHOLE_PAIRS
Info: To read alchdata from file: mobley_4035953.pdb
Info: To read alchflag data from column: 5
Info: STRUCTURE SUMMARY:
Info: 2959 ATOMS
Info: 2959 BONDS
Info: 25 ANGLES
Info: 38 DIHEDRALS
Info: 0 IMPROPERS
Info: 0 CROSSTERMS
Info: 3013 EXCLUSIONS
Info: 2951 RIGID BONDS
Info: ALCH: 0 ATOMS TO DISAPPEAR IN FINAL STATE
Info: ALCH: 16 ATOMS TO APPEAR IN FINAL STATE
Info: 5926 DEGREES OF FREEDOM
Info: 989 HYDROGEN GROUPS
Info: 4 ATOMS IN LARGEST HYDROGEN GROUP
Info: 989 MIGRATION GROUPS
Info: 4 ATOMS IN LARGEST MIGRATION GROUP
Info: TOTAL MASS = 17781.8 amu
Info: TOTAL CHARGE = -9.99942e-05 e
Info: MASS DENSITY = 0.957434 g/cm^3
Info: ATOM DENSITY = 0.095944 atoms/A^3
Info: ADDED 0 IMPLICIT EXCLUSIONS
Info: NONBONDED TABLE R-SQUARED SPACING: 0.0625
Info: NONBONDED TABLE SIZE: 705 POINTS
Info: REMOVING COM VELOCITY -0.0807663 -0.0959548 0.135277
Info: Use 3D box decompostion in PME FFT.
Info: Updated CUDA force table with 4096 elements.
Info: Updated CUDA LJ table with 7 x 7 elements.
Info: Found 15 unique exclusion lists needing 32 bytes
TCL: Running for 1500000 steps
ETITLE: TS BOND ANGLE DIHED IMPRP ELECT VDW BOUNDARY MISC KINETIC TOTAL TEMP POTENTIAL TOTALAVG TEMPAVG PRESSURE GPRESSURE VOLUME PRESSAVG GPRESSAVG
ENERGY: 0 1.9996 10.3077 6.9097 0.0000 -10755.8475 1464.5081 0.0000 0.0000 1772.0623 -7500.0602 300.9593 -9272.1225 -7500.0602 300.9593 -72.0702 8.1202 30840.8970 -72.0702 8.1202
ENERGY: 300000 2.7097 5.5876 2.9698 0.0000 -10724.5893 1383.3833 0.0000 0.0000 1777.0242 -7552.9147 301.8020 -9329.9389 -7540.7433 301.8910 -688.5501 -576.0189 30396.9568 -235.7950 -162.0498
ENERGY: 600000 0.9549 4.3444 2.9312 0.0000 -10629.8837 1429.2806 0.0000 0.0000 1744.8330 -7447.5396 296.3348 -9192.3726 -7514.5215 301.7829 184.6126 256.8837 30401.4880 -194.7906 -129.5314
ENERGY: 900000 2.3344 3.6917 6.2512 0.0000 -10737.9399 1464.9211 0.0000 0.0000 1827.8087 -7432.9329 310.4270 -9260.7416 -7493.5684 302.6121 108.2250 189.6332 30228.4707 -140.0413 -63.0130
ENERGY: 1200000 2.3901 7.1758 1.9377 0.0000 -10711.3097 1439.1507 0.0000 0.0000 1758.6238 -7502.0316 298.6769 -9260.6554 -7496.2921 302.2312 -63.2423 -21.9123 30514.0139 -146.7836 -80.6735
ENERGY: 1500000 1.9609 6.6563 4.0921 0.0000 -10773.1392 1446.4013 0.0000 0.0000 1783.6478 -7530.3808 302.9269 -9314.0286 -7498.8730 302.0114 87.5081 143.8840 30217.5792 -139.3028 -75.5466
TCL: Running FEP window   2: Lambda1 0.05   Lambda2 0.1    [dLambda 0.05  ]
TCL: Setting parameter firsttimestep to 0
TCL: Setting parameter alchLambda to 0.05
Info: NONBONDED TABLE R-SQUARED SPACING: 0.0625
Info: NONBONDED TABLE SIZE: 705 POINTS
TCL: Setting parameter alchLambda2 to 0.1
Info: NONBONDED TABLE R-SQUARED SPACING: 0.0625
Info: NONBONDED TABLE SIZE: 705 POINTS
TCL: Running for 1500000 steps
ETITLE: TS BOND ANGLE DIHED IMPRP ELECT VDW BOUNDARY MISC KINETIC TOTAL TEMP POTENTIAL TOTALAVG TEMPAVG PRESSURE GPRESSURE VOLUME PRESSAVG GPRESSAVG
ENERGY: 0 1.9609 6.6563 4.0921 0.0000 -10773.1390 1447.3244 0.0000 0.0000 1782.8056 -7530.2997 302.7839 -9313.1053 -7530.2997 302.7839 59.6353 150.8439 30217.5792 59.6353 150.8439
ENERGY: 300000 2.9783 3.5515 4.4247 0.0000 -10636.9211 1377.1998 0.0000 0.0000 1762.1397 -7486.6270 299.2741 -9248.7668 -7516.1840 300.4612 -883.3894 -780.8300 30949.3006 -41.7578 64.0716
ENERGY: 600000 3.0239 3.7007 1.9799 0.0000 -10728.7834 1504.3811 0.0000 0.0000 1810.3994 -7405.2984 307.4703 -9215.6978 -7474.0139 302.9392 721.5306 824.7554 30287.5023 167.3422 265.9700
ENERGY: 900000 1.0536 4.6527 3.6326 0.0000 -10737.9972 1406.3876 0.0000 0.0000 1754.5979 -7567.6728 297.9932 -9322.2707 -7496.8920 301.9128 -572.3904 -538.7756 30466.5297 178.1768 265.9184
ENERGY: 1200000 0.4830 6.6114 5.6642 0.0000 -10738.2663 1440.3110 0.0000 0.0000 1788.9409 -7496.2559 303.8259 -9285.1967 -7498.4457 301.6214 264.7847 258.8004 29646.5866 160.0220 242.3020
ENERGY: 1500000 2.4307 5.9823 4.9262 0.0000 -10753.7633 1483.9614 0.0000 0.0000 1763.0007 -7493.4620 299.4203 -9256.4627 -7494.2975 301.4938 687.2239 776.0192 29718.5943 227.7546 308.8197
TCL: Running FEP window   3: Lambda1 0.1    Lambda2 0.15000000000000002 [dLambda 0.05000000000000002]
TCL: Setting parameter firsttimestep to 0
TCL: Setting parameter alchLambda to 0.1
Info: NONBONDED TABLE R-SQUARED SPACING: 0.0625
Info: NONBONDED TABLE SIZE: 705 POINTS
TCL: Setting parameter alchLambda2 to 0.15000000000000002
Info: NONBONDED TABLE R-SQUARED SPACING: 0.0625
Info: NONBONDED TABLE SIZE: 705 POINTS
TCL: Running for 1500000 steps
ETITLE: TS BOND ANGLE DIHED IMPRP ELECT VDW BOUNDARY MISC KINETIC TOTAL TEMP POTENTIAL TOTALAVG TEMPAVG PRESSURE GPRESSURE VOLUME PRESSAVG GPRESSAVG
ENERGY: 0 2.4307 5.9823 4.9262 0.0000 -10753.7629 1486.6257 0.0000 0.0000 1762.1647 -7491.6332 299.2783 -9253.7979 -7491.6332 299.2783 699.0331 785.8488 29718.5943 699.0331 785.8488
ENERGY: 300000 1.1625 7.7778 2.9066 0.0000 -10883.2872 1535.3937 0.0000 0.0000 1753.3436 -7582.7030 297.7802 -9336.0466 -7490.2009 300.5093 550.6538 609.2047 30107.9388 48.5738 106.8419
ENERGY: 600000 2.3351 3.8851 3.8352 0.0000 -10637.8147 1327.1213 0.0000 0.0000 1759.5081 -7541.1299 298.8271 -9300.6380 -7483.6262 302.3279 -1273.7151 -1167.8277 30524.6104 -151.2600 -76.7331
ENERGY: 900000 4.5266 3.9379 4.0181 0.0000 -10676.3546 1378.4727 0.0000 0.0000 1758.0309 -7527.3685 298.5762 -9285.3994 -7489.0819 301.7259 -618.1001 -553.9957 30541.0878 -158.7717 -90.6282
ENERGY: 1200000 1.5397 5.3735 2.1436 0.0000 -10709.6688 1381.4034 0.0000 0.0000 1800.1958 -7519.0129 305.7373 -9319.2086 -7489.7189 301.4140 -399.1188 -308.5950 30036.1736 -126.5237 -57.9924
ENERGY: 1500000 2.9549 5.1196 4.6882 0.0000 -10715.4487 1424.3395 0.0000 0.0000 1790.4444 -7487.9021 304.0812 -9278.3465 -7493.2146 301.5945 -176.4444 -143.3051 30364.1200 -65.2423 -2.4232
TCL: Running FEP window   4: Lambda1 0.15000000000000002 Lambda2 0.2    [dLambda 0.04999999999999999]
TCL: Setting parameter firsttimestep to 0
TCL: Setting parameter alchLambda to 0.15000000000000002
Info: NONBONDED TABLE R-SQUARED SPACING: 0.0625
Info: NONBONDED TABLE SIZE: 705 POINTS
TCL: Setting parameter alchLambda2 to 0.2
Info: NONBONDED TABLE R-SQUARED SPACING: 0.0625
Info: NONBONDED TABLE SIZE: 705 POINTS
TCL: Running for 1500000 steps
ETITLE: TS BOND ANGLE DIHED IMPRP ELECT VDW BOUNDARY MISC KINETIC TOTAL TEMP POTENTIAL TOTALAVG TEMPAVG PRESSURE GPRESSURE VOLUME PRESSAVG GPRESSAVG
ENERGY: 0 2.9549 5.1196 4.6882 0.0000 -10715.4480 1426.5780 0.0000 0.0000 1789.5300 -7486.5773 303.9259 -9276.1073 -7486.5773 303.9259 -215.4353 -132.6585 30364.1200 -215.4353 -132.6585
ENERGY: 300000 1.5149 5.0425 4.1892 0.0000 -10720.2555 1428.5039 0.0000 0.0000 1770.6226 -7510.3823 300.7148 -9281.0050 -7503.0981 301.0596 -384.4283 -285.0883 30529.8280 -259.5909 -197.8025
ENERGY: 600000 3.5048 3.3981 3.3288 0.0000 -10621.8952 1352.0235 0.0000 0.0000 1752.8392 -7506.8008 297.6945 -9259.6400 -7490.3357 301.4395 -701.7231 -605.9907 30243.6742 -230.8285 -163.1689
ENERGY: 900000 4.1043 4.5604 2.1287 0.0000 -10807.5465 1535.7918 0.0000 0.0000 1796.4079 -7464.5536 305.0940 -9260.9614 -7484.3025 300.6422 665.2658 717.4136 30275.6546 -84.3387 -16.5033
ENERGY: 1200000 1.7967 2.6585 3.2266 0.0000 -10687.6372 1462.5208 0.0000 0.0000 1703.6745 -7513.7600 289.3446 -9217.4345 -7486.5987 300.3312 203.0148 156.1823 30716.5595 21.0753 80.7961
ENERGY: 1500000 2.2124 6.3267 0.5005 0.0000 -10808.6311 1442.7682 0.0000 0.0000 1771.2325 -7585.5907 300.8183 -9356.8232 -7489.3256 300.4587 -250.3772 -169.0739 30260.3450 0.3062 61.5753
TCL: Running FEP window   5: Lambda1 0.2    Lambda2 0.25   [dLambda 0.04999999999999999]
TCL: Setting parameter firsttimestep to 0
TCL: Setting parameter alchLambda to 0.2
Info: NONBONDED TABLE R-SQUARED SPACING: 0.0625
Info: NONBONDED TABLE SIZE: 705 POINTS
TCL: Setting parameter alchLambda2 to 0.25
Info: NONBONDED TABLE R-SQUARED SPACING: 0.0625
Info: NONBONDED TABLE SIZE: 705 POINTS
TCL: Running for 1500000 steps
ETITLE: TS BOND ANGLE DIHED IMPRP ELECT VDW BOUNDARY MISC KINETIC TOTAL TEMP POTENTIAL TOTALAVG TEMPAVG PRESSURE GPRESSURE VOLUME PRESSAVG GPRESSAVG
ENERGY: 0 2.2124 6.3267 0.5005 0.0000 -10808.6320 1442.6004 0.0000 0.0000 1770.4160 -7586.5760 300.6797 -9356.9919 -7586.5760 300.6797 -250.2765 -166.0847 30260.3450 -250.2765 -166.0847
ENERGY: 300000 2.9748 7.5409 1.2331 0.0000 -10706.8835 1407.1417 0.0000 0.0000 1802.0409 -7485.9521 306.0507 -9287.9930 -7534.9644 301.8716 -538.1302 -464.0914 30344.2809 -337.5052 -282.4675
ENERGY: 600000 0.5675 6.0222 4.9134 0.0000 -10668.0225 1435.9689 0.0000 0.0000 1756.2429 -7464.3076 298.2726 -9220.5504 -7510.3806 301.2548 207.7456 229.5104 30248.9598 -168.0238 -127.5414
ENERGY: 900000 2.6703 7.3524 3.1863 0.0000 -10630.1561 1362.7708 0.0000 0.0000 1722.7766 -7531.3996 292.5888 -9254.1762 -7508.7622 299.2596 -484.9385 -430.3521 30126.7495 -48.0078 -3.9878
ENERGY: 1200000 3.7981 9.4016 1.5848 0.0000 -10786.9129 1480.7495 0.0000 0.0000 1744.7368 -7546.6421 296.3184 -9291.3789 -7507.4487 299.4380 95.7361 124.0930 30341.8805 30.6432 74.6416
ENERGY: 1500000 2.0923 4.3610 3.7722 0.0000 -10914.2827 1540.7548 0.0000 0.0000 1788.8016 -7574.5007 303.8022 -9363.3024 -7512.6838 299.5322 373.4243 451.9590 30218.4961 0.5680 47.8126
TCL: Running FEP window   6: Lambda1 0.25   Lambda2 0.3    [dLambda 0.04999999999999999]
TCL: Setting parameter firsttimestep to 0
TCL: Setting parameter alchLambda to 0.25
Info: NONBONDED TABLE R-SQUARED SPACING: 0.0625
Info: NONBONDED TABLE SIZE: 705 POINTS
TCL: Setting parameter alchLambda2 to 0.3
Info: NONBONDED TABLE R-SQUARED SPACING: 0.0625
Info: NONBONDED TABLE SIZE: 705 POINTS
TCL: Running for 1500000 steps
ETITLE: TS BOND ANGLE DIHED IMPRP ELECT VDW BOUNDARY MISC KINETIC TOTAL TEMP POTENTIAL TOTALAVG TEMPAVG PRESSURE GPRESSURE VOLUME PRESSAVG GPRESSAVG
ENERGY: 0 2.0923 4.3610 3.7722 0.0000 -10914.2824 1541.0351 0.0000 0.0000 1787.9653 -7575.0566 303.6602 -9363.0218 -7575.0566 303.6602 373.2907 455.1285 30218.4961 373.2907 455.1285
ENERGY: 300000 2.8890 2.9154 2.9841 0.0000 -10708.8109 1387.6339 0.0000 0.0000 1752.2408 -7560.1477 297.5929 -9312.3884 -7545.6290 298.2648 -759.9537 -712.0025 30521.7298 -508.7543 -421.1930
ENERGY: 600000 1.4270 5.7676 2.3484 0.0000 -10673.6616 1451.4262 0.0000 0.0000 1807.2110 -7405.4814 306.9288 -9212.6924 -7491.9248 302.8199 5.0869 114.8778 30649.5508 -382.8807 -304.5370
ENERGY: 900000 4.2671 6.2111 4.5694 0.0000 -10660.3555 1499.6418 0.0000 0.0000 1758.5693 -7387.0969 298.6677 -9145.6661 -7473.7767 301.6374 695.4709 686.5195 30620.2094 -156.0817 -88.4815
ENERGY: 1200000 4.2396 4.7856 7.0164 0.0000 -10728.3575 1469.1633 0.0000 0.0000 1714.2728 -7528.8799 291.1445 -9243.1527 -7487.0781 300.9466 353.2809 379.3003 30375.5710 -17.1328 51.9638
ENERGY: 1500000 3.3561 4.9089 3.4226 0.0000 -10844.6982 1545.9211 0.0000 0.0000 1774.0780 -7513.0115 301.3016 -9287.0894 -7494.3684 300.3674 800.4379 831.0664 30352.0796 107.0048 171.7258
TCL: Running FEP window   7: Lambda1 0.3    Lambda2 0.35   [dLambda 0.04999999999999999]
TCL: Setting parameter firsttimestep to 0
TCL: Setting parameter alchLambda to 0.3
Info: NONBONDED TABLE R-SQUARED SPACING: 0.0625
Info: NONBONDED TABLE SIZE: 705 POINTS
TCL: Setting parameter alchLambda2 to 0.35
Info: NONBONDED TABLE R-SQUARED SPACING: 0.0625
Info: NONBONDED TABLE SIZE: 705 POINTS
TCL: Running for 1500000 steps
ETITLE: TS BOND ANGLE DIHED IMPRP ELECT VDW BOUNDARY MISC KINETIC TOTAL TEMP POTENTIAL TOTALAVG TEMPAVG PRESSURE GPRESSURE VOLUME PRESSAVG GPRESSAVG
ENERGY: 0 3.3561 4.9089 3.4226 0.0000 -10844.6986 1545.7086 0.0000 0.0000 1773.2106 -7514.0918 301.1543 -9287.3024 -7514.0918 301.1543 752.7016 833.3591 30352.0796 752.7016 833.3591
ENERGY: 300000 1.4149 4.4074 3.5263 0.0000 -10744.9827 1494.1431 0.0000 0.0000 1780.0227 -7461.4683 302.3112 -9241.4910 -7477.7292 301.3005 435.0150 477.9300 30415.9160 275.7461 358.2467
ENERGY: 600000 2.7361 2.9757 3.0497 0.0000 -10721.1887 1418.0963 0.0000 0.0000 1816.9666 -7477.3642 308.5856 -9294.3308 -7468.5093 302.7094 -503.0855 -452.0762 30699.1405 210.1167 280.9248
ENERGY: 900000 1.6365 8.1067 4.5861 0.0000 -10695.9294 1399.4936 0.0000 0.0000 1778.6137 -7503.4928 302.0719 -9282.1065 -7491.3996 300.4721 -410.0775 -364.2795 30289.6286 1.5118 70.2963
ENERGY: 1200000 2.9488 5.5006 2.9173 0.0000 -10647.7419 1406.2981 0.0000 0.0000 1764.8093 -7465.2679 299.7274 -9230.0772 -7493.0252 300.5946 -313.5795 -303.5357 30623.3531 0.1661 66.2686
ENERGY: 1500000 1.9485 4.1433 2.9433 0.0000 -10604.1408 1344.1074 0.0000 0.0000 1832.8746 -7418.1237 311.2874 -9250.9982 -7487.9540 300.7098 -968.7478 -871.5202 30813.0184 -63.5301 5.9797
TCL: Running FEP window   8: Lambda1 0.35   Lambda2 0.39999999999999997 [dLambda 0.04999999999999999]
TCL: Setting parameter firsttimestep to 0
TCL: Setting parameter alchLambda to 0.35
Info: NONBONDED TABLE R-SQUARED SPACING: 0.0625
Info: NONBONDED TABLE SIZE: 705 POINTS
TCL: Setting parameter alchLambda2 to 0.39999999999999997
Info: NONBONDED TABLE R-SQUARED SPACING: 0.0625
Info: NONBONDED TABLE SIZE: 705 POINTS
TCL: Running for 1500000 steps
ETITLE: TS BOND ANGLE DIHED IMPRP ELECT VDW BOUNDARY MISC KINETIC TOTAL TEMP POTENTIAL TOTALAVG TEMPAVG PRESSURE GPRESSURE VOLUME PRESSAVG GPRESSAVG
ENERGY: 0 1.9485 4.1433 2.9434 0.0000 -10604.1400 1344.5355 0.0000 0.0000 1832.0024 -7418.5669 311.1392 -9250.5693 -7418.5669 311.1392 -959.2382 -864.5040 30813.0184 -959.2382 -864.5040
ENERGY: 300000 1.8612 5.2588 4.3853 0.0000 -10776.0076 1483.0625 0.0000 0.0000 1741.0161 -7540.4236 295.6865 -9281.4398 -7465.4110 303.5052 283.8989 316.9413 29956.5424 -219.7725 -168.6441
ENERGY: 600000 1.3627 9.2146 1.2003 0.0000 -10669.3399 1393.3418 0.0000 0.0000 1817.1549 -7447.0657 308.6176 -9264.2206 -7472.4530 303.5318 -511.8847 -423.0725 30448.3755 -274.4961 -220.5793
ENERGY: 900000 5.4128 6.0725 2.5408 0.0000 -10638.1863 1412.1776 0.0000 0.0000 1772.1867 -7439.7958 300.9804 -9211.9825 -7477.9245 302.3673 -510.9165 -520.4139 30944.7409 -180.3402 -129.6993
ENERGY: 1200000 3.1337 4.4107 1.6286 0.0000 -10789.3795 1503.4358 0.0000 0.0000 1831.4766 -7445.2941 311.0499 -9276.7707 -7480.1321 302.2578 549.8977 683.6579 30141.8749 -119.6770 -60.7994
ENERGY: 1500000 1.5970 3.8724 1.6811 0.0000 -10820.1177 1441.8918 0.0000 0.0000 1740.8335 -7630.2419 295.6555 -9371.0754 -7490.3951 301.0857 -366.3528 -310.3197 30301.2395 -156.2832 -97.5568
TCL: Running FEP window   9: Lambda1 0.39999999999999997 Lambda2 0.44999999999999996 [dLambda 0.04999999999999999]
TCL: Setting parameter firsttimestep to 0
TCL: Setting parameter alchLambda to 0.39999999999999997
Info: NONBONDED TABLE R-SQUARED SPACING: 0.0625
Info: NONBONDED TABLE SIZE: 705 POINTS
TCL: Setting parameter alchLambda2 to 0.44999999999999996
Info: NONBONDED TABLE R-SQUARED SPACING: 0.0625
Info: NONBONDED TABLE SIZE: 705 POINTS
TCL: Running for 1500000 steps
ETITLE: TS BOND ANGLE DIHED IMPRP ELECT VDW BOUNDARY MISC KINETIC TOTAL TEMP POTENTIAL TOTALAVG TEMPAVG PRESSURE GPRESSURE VOLUME PRESSAVG GPRESSAVG
ENERGY: 0 1.5970 3.8724 1.6811 0.0000 -10820.1176 1442.0181 0.0000 0.0000 1739.9491 -7630.9999 295.5053 -9370.9489 -7630.9999 295.5053 -392.9544 -304.0045 30301.2395 -392.9544 -304.0045
ENERGY: 300000 1.2467 4.0463 4.4619 0.0000 -10577.8484 1338.7007 0.0000 0.0000 1781.1429 -7448.2498 302.5015 -9229.3928 -7535.2247 298.4147 -647.1123 -621.1210 30403.3557 -378.6709 -325.7682
ENERGY: 600000 4.4024 4.4324 2.8271 0.0000 -10616.8238 1391.5468 0.0000 0.0000 1817.1633 -7396.4517 308.6190 -9213.6150 -7499.0183 298.5751 -183.5733 -157.2077 30275.4154 -405.7405 -348.1945
ENERGY: 900000 1.2310 2.5959 2.3002 0.0000 -10575.6621 1349.2999 0.0000 0.0000 1775.5650 -7444.6701 301.5542 -9220.2351 -7506.5954 298.3337 -608.1586 -483.6186 30508.3225 -309.8097 -235.9663
ENERGY: 1200000 3.8211 4.9839 1.6133 0.0000 -10719.7104 1441.6329 0.0000 0.0000 1755.2848 -7512.3743 298.1099 -9267.6591 -7501.6935 298.9836 96.2846 152.8654 30492.1004 -172.3385 -103.4529
ENERGY: 1500000 4.5492 6.5613 3.9109 0.0000 -10584.4993 1318.9344 0.0000 0.0000 1813.1192 -7437.4242 307.9322 -9250.5435 -7499.1509 300.6932 -1034.7479 -982.2243 30640.4663 -288.5524 -223.7140
TCL: Running FEP window  10: Lambda1 0.44999999999999996 Lambda2 0.49999999999999994 [dLambda 0.04999999999999999]
TCL: Setting parameter firsttimestep to 0
TCL: Setting parameter alchLambda to 0.44999999999999996
Info: NONBONDED TABLE R-SQUARED SPACING: 0.0625
Info: NONBONDED TABLE SIZE: 705 POINTS
TCL: Setting parameter alchLambda2 to 0.49999999999999994
Info: NONBONDED TABLE R-SQUARED SPACING: 0.0625
Info: NONBONDED TABLE SIZE: 705 POINTS
TCL: Running for 1500000 steps
ETITLE: TS BOND ANGLE DIHED IMPRP ELECT VDW BOUNDARY MISC KINETIC TOTAL TEMP POTENTIAL TOTALAVG TEMPAVG PRESSURE GPRESSURE VOLUME PRESSAVG GPRESSAVG
ENERGY: 0 4.5492 6.5613 3.9109 0.0000 -10584.4992 1319.6385 0.0000 0.0000 1812.1909 -7437.6484 307.7745 -9249.8393 -7437.6484 307.7745 -1055.8172 -971.9691 30640.4663 -1055.8172 -971.9691
ENERGY: 300000 4.7646 5.1062 3.3675 0.0000 -10739.0414 1448.7900 0.0000 0.0000 1745.8597 -7531.1534 296.5091 -9277.0131 -7526.8628 295.0773 38.7184 86.5352 30339.0759 -357.0695 -307.4426
ENERGY: 600000 1.1768 5.5357 3.4951 0.0000 -10867.5504 1523.3991 0.0000 0.0000 1761.3388 -7572.6050 299.1380 -9333.9438 -7525.9038 295.9406 435.8392 495.7006 30245.7957 -68.0949 -15.1012
ENERGY: 900000 1.7636 11.0776 1.3934 0.0000 -10643.4379 1337.1638 0.0000 0.0000 1779.5356 -7512.5039 302.2285 -9292.0395 -7519.0939 297.4088 -843.4829 -760.2648 30325.9059 -185.6362 -129.6101
ENERGY: 1200000 3.2698 6.0527 8.2435 0.0000 -10706.4861 1428.2774 0.0000 0.0000 1706.2211 -7554.4215 289.7771 -9260.6426 -7509.7298 297.7377 -132.4161 -71.5593 30549.5599 -206.3830 -152.2946
ENERGY: 1500000 0.9838 4.1036 4.0921 0.0000 -10721.7587 1406.3532 0.0000 0.0000 1738.7330 -7567.4929 295.2988 -9306.2259 -7505.2825 298.3411 -371.4393 -315.4992 30234.9061 -201.7522 -146.2336
TCL: Running FEP window  11: Lambda1 0.49999999999999994 Lambda2 0.5499999999999999 [dLambda 0.04999999999999999]
TCL: Setting parameter firsttimestep to 0
TCL: Setting parameter alchLambda to 0.49999999999999994
Info: NONBONDED TABLE R-SQUARED SPACING: 0.0625
Info: NONBONDED TABLE SIZE: 705 POINTS
TCL: Setting parameter alchLambda2 to 0.5499999999999999
Info: NONBONDED TABLE R-SQUARED SPACING: 0.0625
Info: NONBONDED TABLE SIZE: 705 POINTS
TCL: Running for 1500000 steps
ETITLE: TS BOND ANGLE DIHED IMPRP ELECT VDW BOUNDARY MISC KINETIC TOTAL TEMP POTENTIAL TOTALAVG TEMPAVG PRESSURE GPRESSURE VOLUME PRESSAVG GPRESSAVG
ENERGY: 0 0.9838 4.1036 4.0921 0.0000 -10721.7576 1406.1832 0.0000 0.0000 1737.8485 -7568.5462 295.1485 -9306.3947 -7568.5462 295.1485 -402.9031 -313.6371 30234.9061 -402.9031 -313.6371
ENERGY: 300000 1.6555 3.8392 2.6438 0.0000 -10916.3521 1552.9502 0.0000 0.0000 1744.3028 -7610.9605 296.2447 -9355.2634 -7563.9857 297.5236 460.4909 514.8086 30539.8560 -64.2663 -13.3489
ENERGY: 600000 2.5995 2.9534 2.3217 0.0000 -10703.2628 1433.6528 0.0000 0.0000 1817.6353 -7444.1002 308.6992 -9261.7355 -7541.3964 298.9581 -47.5710 -4.2793 30493.5765 -28.2269 16.6865
ENERGY: 900000 3.2112 4.1008 2.2443 0.0000 -10748.3665 1437.3339 0.0000 0.0000 1738.1878 -7563.2886 295.2062 -9301.4764 -7534.9316 297.7878 -57.1621 22.7710 30093.3890 -10.8326 41.1849
ENERGY: 1200000 1.6168 3.2476 2.6837 0.0000 -10823.0593 1484.5328 0.0000 0.0000 1709.3933 -7621.5850 290.3158 -9330.9783 -7537.1503 297.9680 274.4711 304.0313 30189.0981 108.3250 164.1437
ENERGY: 1500000 3.3582 6.0412 3.6801 0.0000 -10690.2211 1448.8531 0.0000 0.0000 1875.9634 -7352.3252 318.6054 -9228.2886 -7520.5769 299.8206 386.9137 380.7825 29973.7759 26.5332 75.0671
TCL: Running FEP window  12: Lambda1 0.5499999999999999 Lambda2 0.6    [dLambda 0.050000000000000044]
TCL: Setting parameter firsttimestep to 0
TCL: Setting parameter alchLambda to 0.5499999999999999
Info: NONBONDED TABLE R-SQUARED SPACING: 0.0625
Info: NONBONDED TABLE SIZE: 705 POINTS
TCL: Setting parameter alchLambda2 to 0.6
Info: NONBONDED TABLE R-SQUARED SPACING: 0.0625
Info: NONBONDED TABLE SIZE: 705 POINTS
TCL: Running for 1500000 steps
ETITLE: TS BOND ANGLE DIHED IMPRP ELECT VDW BOUNDARY MISC KINETIC TOTAL TEMP POTENTIAL TOTALAVG TEMPAVG PRESSURE GPRESSURE VOLUME PRESSAVG GPRESSAVG
ENERGY: 0 3.3582 6.0412 3.6801 0.0000 -10690.5757 1448.7433 0.0000 0.0000 1875.1088 -7353.6441 318.4602 -9228.7529 -7353.6441 318.4602 306.5969 387.1951 29973.7759 306.5969 387.1951
ENERGY: 300000 3.5284 5.6741 1.7201 0.0000 -10797.4553 1451.4235 0.0000 0.0000 1718.0159 -7617.0933 291.7803 -9335.1092 -7477.4108 302.9684 6.5166 81.1101 30024.7253 257.2066 321.3383
ENERGY: 600000 3.4451 5.0211 3.2401 0.0000 -10859.3748 1434.1238 0.0000 0.0000 1789.4379 -7624.1068 303.9103 -9413.5447 -7519.4125 301.5044 -521.4136 -463.3918 30214.2915 24.6161 81.7935
ENERGY: 900000 4.2687 4.8799 1.5082 0.0000 -10687.9540 1429.0790 0.0000 0.0000 1815.4083 -7432.8101 308.3210 -9248.2183 -7508.1146 302.3872 -111.0971 -26.9233 30382.9814 -35.6957 17.3488
ENERGY: 1200000 2.8781 5.1538 5.1429 0.0000 -10681.3178 1418.0499 0.0000 0.0000 1740.3614 -7509.7317 295.5753 -9250.0931 -7512.6177 300.8786 -251.0663 -125.6793 30590.1477 -47.9814 19.8494
ENERGY: 1500000 4.0621 2.6397 3.0028 0.0000 -10691.1481 1401.6639 0.0000 0.0000 1747.2630 -7532.5165 296.7475 -9279.7795 -7513.2230 300.5770 -538.9461 -448.1155 30603.6001 -18.0779 52.1283
TCL: Running FEP window  13: Lambda1 0.6    Lambda2 0.65   [dLambda 0.050000000000000044]
TCL: Setting parameter firsttimestep to 0
TCL: Setting parameter alchLambda to 0.6
Info: NONBONDED TABLE R-SQUARED SPACING: 0.0625
Info: NONBONDED TABLE SIZE: 705 POINTS
TCL: Setting parameter alchLambda2 to 0.65
Info: NONBONDED TABLE R-SQUARED SPACING: 0.0625
Info: NONBONDED TABLE SIZE: 705 POINTS
TCL: Running for 1500000 steps
ETITLE: TS BOND ANGLE DIHED IMPRP ELECT VDW BOUNDARY MISC KINETIC TOTAL TEMP POTENTIAL TOTALAVG TEMPAVG PRESSURE GPRESSURE VOLUME PRESSAVG GPRESSAVG
ENERGY: 0 4.0621 2.6397 3.0028 0.0000 -10690.9699 1402.0881 0.0000 0.0000 1746.3701 -7532.8070 296.5958 -9279.1772 -7532.8070 296.5958 -508.4916 -436.9979 30603.6001 -508.4916 -436.9979
ENERGY: 300000 2.9701 4.3550 3.1124 0.0000 -10606.3698 1407.9517 0.0000 0.0000 1810.8471 -7377.1336 307.5463 -9187.9807 -7447.6922 301.5254 -7.9969 1.6231 30834.7584 -136.9124 -89.4984
ENERGY: 600000 3.1459 3.2779 4.4837 0.0000 -10819.0801 1524.3276 0.0000 0.0000 1742.0152 -7541.8297 295.8562 -9283.8449 -7494.7219 299.3224 405.7753 443.0474 30524.0594 151.0705 207.6850
ENERGY: 900000 1.1181 2.0678 4.6096 0.0000 -10791.6674 1455.0881 0.0000 0.0000 1794.6514 -7534.1323 304.7957 -9328.7837 -7505.4757 300.1323 -10.3530 51.2078 30269.0324 101.3884 161.7346
ENERGY: 1200000 2.5184 4.2966 1.5243 0.0000 -10560.8507 1302.6763 0.0000 0.0000 1741.4879 -7508.3472 295.7666 -9249.8351 -7512.3991 299.8580 -1153.4224 -1083.3745 30525.4384 -101.0679 -39.3646
ENERGY: 1500000 2.8968 5.4141 5.5903 0.0000 -10889.7320 1511.1142 0.0000 0.0000 1757.7922 -7606.9244 298.5357 -9364.7166 -7525.1908 298.4645 107.4958 212.3639 30443.3715 -196.5679 -126.7129
TCL: Running FEP window  14: Lambda1 0.65   Lambda2 0.7000000000000001 [dLambda 0.050000000000000044]
TCL: Setting parameter firsttimestep to 0
TCL: Setting parameter alchLambda to 0.65
Info: NONBONDED TABLE R-SQUARED SPACING: 0.0625
Info: NONBONDED TABLE SIZE: 705 POINTS
TCL: Setting parameter alchLambda2 to 0.7000000000000001
Info: NONBONDED TABLE R-SQUARED SPACING: 0.0625
Info: NONBONDED TABLE SIZE: 705 POINTS
TCL: Running for 1500000 steps
ETITLE: TS BOND ANGLE DIHED IMPRP ELECT VDW BOUNDARY MISC KINETIC TOTAL TEMP POTENTIAL TOTALAVG TEMPAVG PRESSURE GPRESSURE VOLUME PRESSAVG GPRESSAVG
ENERGY: 0 2.8968 5.4141 5.5903 0.0000 -10890.4193 1511.2025 0.0000 0.0000 1756.9459 -7608.3697 298.3920 -9365.3156 -7608.3697 298.3920 127.7706 215.0006 30443.3715 127.7706 215.0006
ENERGY: 300000 2.7617 3.6740 3.5511 0.0000 -10651.0150 1398.6886 0.0000 0.0000 1807.8030 -7434.5367 307.0293 -9242.3397 -7523.2220 302.2609 -215.6137 -164.5281 30418.6603 -49.0144 14.9739
ENERGY: 600000 2.8395 6.0924 4.4306 0.0000 -10667.5936 1383.3461 0.0000 0.0000 1786.8093 -7484.0757 303.4638 -9270.8850 -7504.8393 303.2835 -598.8275 -592.6615 30670.7506 -52.5634 0.2634
ENERGY: 900000 2.8964 4.7405 3.4433 0.0000 -10891.6461 1529.3911 0.0000 0.0000 1795.9769 -7555.1979 305.0208 -9351.1748 -7486.1068 304.2949 417.8292 476.2894 30055.7137 -12.4702 37.2567
ENERGY: 1200000 1.4750 4.2149 5.0724 0.0000 -10933.4915 1599.7154 0.0000 0.0000 1766.4512 -7556.5625 300.0063 -9323.0137 -7497.8135 303.9804 1072.5586 1059.0868 30408.1552 44.6284 87.8827
ENERGY: 1500000 2.8395 2.9339 1.3055 0.0000 -10773.9911 1450.9671 0.0000 0.0000 1738.5224 -7577.4228 295.2630 -9315.9452 -7509.3469 302.4176 -108.1790 12.0512 30260.3584 33.3957 86.9123
TCL: Running FEP window  15: Lambda1 0.7000000000000001 Lambda2 0.7500000000000001 [dLambda 0.050000000000000044]
TCL: Setting parameter firsttimestep to 0
TCL: Setting parameter alchLambda to 0.7000000000000001
Info: NONBONDED TABLE R-SQUARED SPACING: 0.0625
Info: NONBONDED TABLE SIZE: 705 POINTS
TCL: Setting parameter alchLambda2 to 0.7500000000000001
Info: NONBONDED TABLE R-SQUARED SPACING: 0.0625
Info: NONBONDED TABLE SIZE: 705 POINTS
TCL: Running for 1500000 steps
ETITLE: TS BOND ANGLE DIHED IMPRP ELECT VDW BOUNDARY MISC KINETIC TOTAL TEMP POTENTIAL TOTALAVG TEMPAVG PRESSURE GPRESSURE VOLUME PRESSAVG GPRESSAVG
ENERGY: 0 2.8395 2.9339 1.3055 0.0000 -10774.7155 1451.1854 0.0000 0.0000 1737.6472 -7578.8040 295.1144 -9316.4512 -7578.8040 295.1144 -58.2322 19.3446 30260.3584 -58.2322 19.3446
ENERGY: 300000 3.6870 5.8408 1.6616 0.0000 -10714.6883 1369.6476 0.0000 0.0000 1732.1517 -7601.6997 294.1810 -9333.8514 -7557.9792 297.7015 -855.0993 -821.4034 30617.3494 -409.5085 -365.2333
ENERGY: 600000 1.7441 6.1657 4.0819 0.0000 -10824.9588 1446.1854 0.0000 0.0000 1686.8582 -7679.9237 286.4886 -9366.7818 -7566.7824 297.2159 -411.4546 -324.3549 30712.4601 -313.6221 -255.9033
ENERGY: 900000 3.6466 2.8296 2.9679 0.0000 -10723.0802 1413.7234 0.0000 0.0000 1733.4166 -7566.4961 294.3958 -9299.9127 -7555.7989 297.1802 -230.8241 -154.2634 30266.8506 -337.1616 -274.4891
ENERGY: 1200000 1.0308 4.6879 6.7030 0.0000 -10734.3576 1444.8616 0.0000 0.0000 1774.4633 -7502.6110 301.3670 -9277.0743 -7543.0408 298.3218 70.5704 170.2847 30315.4254 -242.4784 -176.7405
ENERGY: 1500000 1.6613 4.9137 3.6699 0.0000 -10823.2259 1478.9078 0.0000 0.0000 1790.8245 -7543.2486 304.1458 -9334.0732 -7543.3315 298.8663 246.3519 305.2923 30112.9812 -186.7132 -122.1570
TCL: Running FEP window  16: Lambda1 0.7500000000000001 Lambda2 0.8000000000000002 [dLambda 0.050000000000000044]
TCL: Setting parameter firsttimestep to 0
TCL: Setting parameter alchLambda to 0.7500000000000001
Info: NONBONDED TABLE R-SQUARED SPACING: 0.0625
Info: NONBONDED TABLE SIZE: 705 POINTS
TCL: Setting parameter alchLambda2 to 0.8000000000000002
Info: NONBONDED TABLE R-SQUARED SPACING: 0.0625
Info: NONBONDED TABLE SIZE: 705 POINTS
TCL: Running for 1500000 steps
ETITLE: TS BOND ANGLE DIHED IMPRP ELECT VDW BOUNDARY MISC KINETIC TOTAL TEMP POTENTIAL TOTALAVG TEMPAVG PRESSURE GPRESSURE VOLUME PRESSAVG GPRESSAVG
ENERGY: 0 1.6613 4.9137 3.6699 0.0000 -10825.5927 1480.8753 0.0000 0.0000 1789.9740 -7544.4985 304.0013 -9334.4725 -7544.4985 304.0013 242.3158 327.3288 30112.9812 242.3158 327.3288
ENERGY: 300000 5.5939 9.1081 4.4680 0.0000 -10694.2228 1367.7589 0.0000 0.0000 1779.4587 -7527.8353 302.2154 -9307.2939 -7532.8140 303.5409 -707.9707 -684.7779 30519.3177 -353.2694 -316.8463
ENERGY: 600000 2.7349 4.2395 2.3653 0.0000 -10678.0657 1390.9077 0.0000 0.0000 1777.9921 -7499.8261 301.9664 -9277.8182 -7522.5259 303.9317 -536.7359 -444.2100 30913.9261 -49.6833 8.5823
ENERGY: 900000 2.2435 2.9897 2.7793 0.0000 -10793.0439 1519.8663 0.0000 0.0000 1769.3818 -7495.7833 300.5040 -9265.1651 -7524.2256 302.0162 601.1928 706.2521 30282.7731 85.4644 143.0372
ENERGY: 1200000 3.0552 2.2625 3.2520 0.0000 -10676.2398 1358.2571 0.0000 0.0000 1788.2976 -7521.1154 303.7166 -9309.4131 -7524.0341 301.8780 -843.9906 -827.0762 30565.0707 17.2575 76.6273
ENERGY: 1500000 3.3579 5.4925 5.2232 0.0000 -10636.8462 1365.6423 0.0000 0.0000 1749.0785 -7508.0518 297.0558 -9257.1303 -7521.8647 300.9322 -520.0188 -444.2431 30418.6335 -57.2852 2.6756
TCL: Running FEP window  17: Lambda1 0.8000000000000002 Lambda2 0.8500000000000002 [dLambda 0.050000000000000044]
TCL: Setting parameter firsttimestep to 0
TCL: Setting parameter alchLambda to 0.8000000000000002
Info: NONBONDED TABLE R-SQUARED SPACING: 0.0625
Info: NONBONDED TABLE SIZE: 705 POINTS
TCL: Setting parameter alchLambda2 to 0.8500000000000002
Info: NONBONDED TABLE R-SQUARED SPACING: 0.0625
Info: NONBONDED TABLE SIZE: 705 POINTS
TCL: Running for 1500000 steps
ETITLE: TS BOND ANGLE DIHED IMPRP ELECT VDW BOUNDARY MISC KINETIC TOTAL TEMP POTENTIAL TOTALAVG TEMPAVG PRESSURE GPRESSURE VOLUME PRESSAVG GPRESSAVG
ENERGY: 0 3.3579 5.4925 5.2232 0.0000 -10637.0485 1366.0902 0.0000 0.0000 1748.2466 -7508.6381 296.9145 -9256.8847 -7508.6381 296.9145 -502.0449 -429.9930 30418.6335 -502.0449 -429.9930
ENERGY: 300000 4.0447 3.3067 3.7806 0.0000 -10637.6952 1352.6490 0.0000 0.0000 1754.5450 -7519.3692 297.9842 -9273.9142 -7517.2374 299.8342 -895.5008 -854.6025 30560.9083 -692.9419 -636.1843
ENERGY: 600000 0.8025 6.5196 4.4581 0.0000 -10554.9741 1327.2857 0.0000 0.0000 1845.2903 -7370.6179 313.3960 -9215.9082 -7492.7260 302.5169 -662.9213 -691.0650 30560.3721 -362.1287 -315.0264
ENERGY: 900000 3.6713 7.6303 2.1404 0.0000 -10723.8610 1435.2899 0.0000 0.0000 1828.2181 -7446.9110 310.4965 -9275.1292 -7491.4122 302.4793 -140.9329 -104.3741 30817.4978 -152.7420 -104.9322
ENERGY: 1200000 3.5656 6.8085 1.4674 0.0000 -10673.8291 1391.0208 0.0000 0.0000 1836.1308 -7434.8360 311.8404 -9270.9669 -7484.1216 302.8419 -346.9558 -280.0644 30643.1865 -121.2933 -65.3375
ENERGY: 1500000 4.9652 4.1112 2.6890 0.0000 -10747.3583 1453.4263 0.0000 0.0000 1732.8666 -7549.2999 294.3025 -9282.1666 -7501.7808 301.3139 -56.9783 32.5111 30518.3117 -68.5413 -11.3982
TCL: Running FEP window  18: Lambda1 0.8500000000000002 Lambda2 0.9000000000000002 [dLambda 0.050000000000000044]
TCL: Setting parameter firsttimestep to 0
TCL: Setting parameter alchLambda to 0.8500000000000002
Info: NONBONDED TABLE R-SQUARED SPACING: 0.0625
Info: NONBONDED TABLE SIZE: 705 POINTS
TCL: Setting parameter alchLambda2 to 0.9000000000000002
Info: NONBONDED TABLE R-SQUARED SPACING: 0.0625
Info: NONBONDED TABLE SIZE: 705 POINTS
TCL: Running for 1500000 steps
ETITLE: TS BOND ANGLE DIHED IMPRP ELECT VDW BOUNDARY MISC KINETIC TOTAL TEMP POTENTIAL TOTALAVG TEMPAVG PRESSURE GPRESSURE VOLUME PRESSAVG GPRESSAVG
ENERGY: 0 4.9652 4.1112 2.6890 0.0000 -10749.0672 1455.1982 0.0000 0.0000 1732.0068 -7550.0969 294.1564 -9282.1036 -7550.0969 294.1564 -31.7493 59.7765 30518.3117 -31.7493 59.7765
ENERGY: 300000 3.4884 3.9974 5.3680 0.0000 -10745.9328 1486.2801 0.0000 0.0000 1731.7114 -7515.0875 294.1062 -9246.7989 -7523.3389 294.9734 302.9242 372.3895 30618.8090 90.1740 163.0493
ENERGY: 600000 2.0507 3.7115 6.4389 0.0000 -10585.1849 1393.2401 0.0000 0.0000 1752.8804 -7426.8634 297.7015 -9179.7438 -7506.5258 297.4495 -342.6922 -209.7614 30635.7215 70.0164 149.4124
ENERGY: 900000 3.2237 4.2396 2.5672 0.0000 -10963.2062 1573.4814 0.0000 0.0000 1760.2654 -7619.4289 298.9557 -9379.6943 -7501.7832 298.8777 907.6318 937.7010 30062.4359 83.6730 156.1080
ENERGY: 1200000 2.7680 4.2754 2.3274 0.0000 -10863.3190 1560.9358 0.0000 0.0000 1753.8056 -7539.2068 297.8586 -9293.0123 -7509.5630 298.4093 847.0715 966.7963 30246.2968 179.1309 247.8532
ENERGY: 1500000 1.0379 5.6764 2.4054 0.0000 -10753.9136 1456.5387 0.0000 0.0000 1741.5436 -7546.7116 295.7761 -9288.2552 -7517.3472 298.2046 26.3637 -3.1957 30508.4772 144.8724 212.7751
TCL: Running FEP window  19: Lambda1 0.9000000000000002 Lambda2 0.9500000000000003 [dLambda 0.050000000000000044]
TCL: Setting parameter firsttimestep to 0
TCL: Setting parameter alchLambda to 0.9000000000000002
Info: NONBONDED TABLE R-SQUARED SPACING: 0.0625
Info: NONBONDED TABLE SIZE: 705 POINTS
TCL: Setting parameter alchLambda2 to 0.9500000000000003
Info: NONBONDED TABLE R-SQUARED SPACING: 0.0625
Info: NONBONDED TABLE SIZE: 705 POINTS
TCL: Running for 1500000 steps
ETITLE: TS BOND ANGLE DIHED IMPRP ELECT VDW BOUNDARY MISC KINETIC TOTAL TEMP POTENTIAL TOTALAVG TEMPAVG PRESSURE GPRESSURE VOLUME PRESSAVG GPRESSAVG
ENERGY: 0 1.0379 5.6764 2.4054 0.0000 -10754.9658 1456.4566 0.0000 0.0000 1740.6737 -7548.7159 295.6284 -9289.3896 -7548.7159 295.6284 -69.3903 7.3498 30508.4772 -69.3903 7.3498
ENERGY: 300000 2.1630 3.0297 5.8364 0.0000 -10697.8504 1436.3438 0.0000 0.0000 1769.4702 -7481.0074 300.5190 -9250.4776 -7514.1584 298.1250 -205.5012 -88.5850 30794.0050 -105.3612 -23.8553
ENERGY: 600000 2.8518 4.9536 3.6825 0.0000 -10629.2759 1422.1080 0.0000 0.0000 1812.3732 -7383.3069 307.8055 -9195.6801 -7486.9748 301.7282 -42.4853 13.5151 30590.4417 0.3575 74.1051
ENERGY: 900000 3.3654 4.3974 3.5394 0.0000 -10687.2285 1367.8716 0.0000 0.0000 1756.0632 -7551.9916 298.2420 -9308.0547 -7510.0609 301.3227 -721.8465 -637.7599 30349.4931 -32.1044 36.2468
ENERGY: 1200000 1.1736 1.9309 3.4927 0.0000 -10757.4845 1449.9753 0.0000 0.0000 1737.7914 -7563.1206 295.1388 -9300.9119 -7508.5797 300.9934 70.1941 180.0155 30348.0475 -55.3195 14.7963
ENERGY: 1500000 2.7211 6.2061 2.4600 0.0000 -10782.5772 1473.7472 0.0000 0.0000 1774.9868 -7522.4561 301.4560 -9297.4428 -7508.9307 301.0082 51.5926 58.5328 30698.6551 -30.2334 34.2353
TCL: Running FEP window  20: Lambda1 0.9500000000000003 Lambda2 1.0    [dLambda 0.04999999999999971]
TCL: Setting parameter firsttimestep to 0
TCL: Setting parameter alchLambda to 0.9500000000000003
Info: NONBONDED TABLE R-SQUARED SPACING: 0.0625
Info: NONBONDED TABLE SIZE: 705 POINTS
TCL: Setting parameter alchLambda2 to 1.0
Info: NONBONDED TABLE R-SQUARED SPACING: 0.0625
Info: NONBONDED TABLE SIZE: 705 POINTS
TCL: Running for 1500000 steps
ETITLE: TS BOND ANGLE DIHED IMPRP ELECT VDW BOUNDARY MISC KINETIC TOTAL TEMP POTENTIAL TOTALAVG TEMPAVG PRESSURE GPRESSURE VOLUME PRESSAVG GPRESSAVG
ENERGY: 0 2.7211 6.2061 2.4600 0.0000 -10784.2390 1474.1727 0.0000 0.0000 1774.1535 -7524.5257 301.3144 -9298.6792 -7524.5257 301.3144 -7.9396 69.3944 30698.6551 -7.9396 69.3944
ENERGY: 300000 1.9089 4.4264 0.7294 0.0000 -10747.0701 1484.2009 0.0000 0.0000 1742.0413 -7513.7632 295.8606 -9255.8045 -7533.4638 301.2086 380.4832 434.0056 30450.3461 243.5165 292.3685
ENERGY: 600000 2.7712 8.2325 3.0322 0.0000 -10771.3745 1442.2578 0.0000 0.0000 1831.0360 -7484.0448 310.9751 -9315.0808 -7526.5128 302.2798 21.2066 91.7878 30309.7424 165.2601 206.3367
ENERGY: 900000 2.5227 9.6578 3.1561 0.0000 -10621.1744 1364.4081 0.0000 0.0000 1791.8342 -7449.5953 304.3172 -9241.4296 -7526.4041 300.6962 -459.4817 -412.1244 30698.1018 -9.7587 32.0121
ENERGY: 1200000 2.6279 3.7911 2.4977 0.0000 -10901.0950 1568.2571 0.0000 0.0000 1789.7533 -7534.1680 303.9638 -9323.9212 -7522.8561 301.5259 853.3763 902.5921 30405.4612 84.2133 122.6670
ENERGY: 1500000 1.8023 3.1411 1.1811 0.0000 -10867.0272 1469.6224 0.0000 0.0000 1780.5556 -7610.7248 302.4017 -9391.2804 -7530.5497 301.1010 43.5614 94.8573 30222.0197 42.8412 82.7216
TCL: Exiting due to exit command.
