Info: SIMULATION PARAMETERS:
Info: TIMESTEP               2
Info: NUMBER OF STEPS        0
Info: STEPS PER CYCLE        10
Info: PERIODIC CELL BASIS 1  32.5142 0 0
Info: PERIODIC CELL BASIS 2  0 31.3286 0
Info: PERIODIC CELL BASIS 3  0 0 29.1317
Info: PERIODIC CELL CENTER   0 0 0
Info: WRAPPING WATERS AROUND PERIODIC BOUNDARIES ON OUTPUT.
Info: WRAPPING ALL CLUSTERS AROUND PERIODIC BOUNDARIES ON OUTPUT.
Info: FIRST LDB TIMESTEP     50
Info: LAST LDB TIMESTEP     -1
Info: HOM BACKGROUND SCALING 1
Info: PME BACKGROUND SCALING 1
Info: MIN ATOMS PER PATCH    40
Info: EMPTY PATCH LOAD       40 ATOMS
Info: VELOCITY FILE          mobley_2261979_equil.vel
Info: CENTER OF MASS MOVING INITIALLY? NO
Info: DIELECTRIC             1
Info: EXCLUDE                SCALED ONE-FOUR
Info: 1-4 ELECTROSTATICS SCALED BY 0.833333
Info: MODIFIED 1-4 VDW PARAMETERS WILL BE USED
Info: DCD FILENAME           mobley_2261979_prod.dcd
Info: DCD FREQUENCY          100000
Info: DCD FIRST STEP         100000
Info: DCD FILE WILL CONTAIN UNIT CELL DATA
Info: XST FILENAME           mobley_2261979_prod.xst
Info: XST FREQUENCY          100000
Info: NO VELOCITY DCD OUTPUT
Info: NO FORCE DCD OUTPUT
Info: OUTPUT FILENAME        mobley_2261979_prod
Info: BINARY OUTPUT FILES WILL BE USED
Info: RESTART FILENAME       mobley_2261979_prod.restart
Info: RESTART FREQUENCY      100000
Info: BINARY RESTART FILES WILL BE USED
Info: CUTOFF                 9
Info: PAIRLIST DISTANCE      11
Info: PAIRLIST SHRINK RATE   0.01
Info: PAIRLIST GROW RATE     0.01
Info: PAIRLIST TRIGGER       0.3
Info: PAIRLISTS PER CYCLE    2
Info: PAIRLISTS ENABLED
Info: MARGIN                 2
Info: HYDROGEN GROUP CUTOFF  2.5
Info: PATCH DIMENSION        15.5
Info: ENERGY OUTPUT STEPS    100000
Info: ENERGY EVALUATION STEPS    100000
Info: OUTPUT ENERGY PRECISION 4
Info: CROSSTERM ENERGY INCLUDED IN DIHEDRAL
Info: TIMING OUTPUT STEPS    1000000
Info: PRESSURE OUTPUT STEPS  100000
Info: ALCHEMICAL FEP ON
Info: FEP CURRENT LAMBDA VALUE     0
Info: FEP COMPARISON LAMBDA VALUE  0.05
Info: FEP INTRA-ALCHEMICAL NON-BONDED INTERACTIONS WILL BE RETAINED
Info: FEP INTRA-ALCHEMICAL BONDED INTERACTIONS WILL BE RETAINED
Info: FEP VDW SHIFTING COEFFICIENT 5
Info: FEP ELEC. ACTIVE FOR ANNIHILATED PARTICLES BETWEEN LAMBDA = 0 AND LAMBDA = 0.5
Info: FEP ELEC. ACTIVE FOR EXNIHILATED PARTICLES BETWEEN LAMBDA = 0.5 AND LAMBDA = 1
Info: FEP VDW ACTIVE FOR ANNIHILATED PARTICLES BETWEEN LAMBDA = 0 AND LAMBDA = 1
Info: FEP VDW ACTIVE FOR EXNIHILATED PARTICLES BETWEEN LAMBDA = 0 AND LAMBDA = 1
Info: FEP BOND ACTIVE FOR ANNIHILATED PARTICLES BETWEEN LAMBDA = 1 AND LAMBDA = 1
Info: FEP BOND ACTIVE FOR EXNIHILATED PARTICLES BETWEEN LAMBDA = 0 AND LAMBDA = 0
Info: LANGEVIN DYNAMICS ACTIVE
Info: LANGEVIN TEMPERATURE   300
Info: LANGEVIN USING BBK INTEGRATOR
Info: LANGEVIN DAMPING COEFFICIENT IS 1 INVERSE PS
Info: LANGEVIN DYNAMICS APPLIED TO HYDROGENS
Info: LANGEVIN PISTON PRESSURE CONTROL ACTIVE
Info:        TARGET PRESSURE IS 1.01325 BAR
Info:     OSCILLATION PERIOD IS 50 FS
Info:             DECAY TIME IS 25 FS
Info:     PISTON TEMPERATURE IS 300 K
Info:       PRESSURE CONTROL IS GROUP-BASED
Info:    INITIAL STRAIN RATE IS 0.000146326 0.000146326 0.000146326
Info:       CELL FLUCTUATION IS ISOTROPIC
Info: PARTICLE MESH EWALD (PME) ACTIVE
Info: PME TOLERANCE               1e-06
Info: PME EWALD COEFFICIENT       0.348832
Info: PME INTERPOLATION ORDER     4
Info: PME GRID DIMENSIONS         36 32 32
Info: PME MAXIMUM GRID SPACING    1
Info: PME CALCULATION WILL BE PERFORMED ON GPU
Info: FULL ELECTROSTATIC EVALUATION FREQUENCY      2
Info: USING VERLET I (r-RESPA) MTS SCHEME.
Info: C1 SPLITTING OF LONG RANGE ELECTROSTATICS
Info: PLACING ATOMS IN PATCHES BY HYDROGEN GROUPS
Info: RIGID BONDS TO HYDROGEN : ALL
Info:         ERROR TOLERANCE : 1e-08
Info:          MAX ITERATIONS : 100
Info: RIGID WATER USING SETTLE ALGORITHM
Info: RANDOM NUMBER SEED     1743629487
Info: USE HYDROGEN BONDS?    NO
Info: Using AMBER format force field!
Info: AMBER PARM FILE        mobley_2261979.prmtop
Info: COORDINATE PDB         mobley_2261979.pdb
Info: Exclusions will be read from PARM file!
Info: SCNB (VDW SCALING)     2
Info: USING ARITHMETIC MEAN TO COMBINE L-J SIGMA PARAMETERS
Info: BINARY COORDINATES     mobley_2261979_equil.coor
Info: SUMMARY OF PARAMETERS:
Info: 7 BONDS
Info: 7 ANGLES
Info:   7 HARMONIC
Info:   0 COSINE-BASED
Info: 5 DIHEDRAL
Info: 0 IMPROPER
Info: 0 CROSSTERM
Info: 0 VDW
Info: 21 VDW_PAIRS
Info: 0 NBTHOLE_PAIRS
Info: To read alchdata from file: mobley_2261979.pdb
Info: To read alchflag data from column: 5
Info: STRUCTURE SUMMARY:
Info: 2932 ATOMS
Info: 2934 BONDS
Info: 42 ANGLES
Info: 75 DIHEDRALS
Info: 0 IMPROPERS
Info: 0 CROSSTERMS
Info: 3030 EXCLUSIONS
Info: 2920 RIGID BONDS
Info: ALCH: 0 ATOMS TO DISAPPEAR IN FINAL STATE
Info: ALCH: 22 ATOMS TO APPEAR IN FINAL STATE
Info: 5876 DEGREES OF FREEDOM
Info: 982 HYDROGEN GROUPS
Info: 3 ATOMS IN LARGEST HYDROGEN GROUP
Info: 982 MIGRATION GROUPS
Info: 3 ATOMS IN LARGEST MIGRATION GROUP
Info: TOTAL MASS = 17629.7 amu
Info: TOTAL CHARGE = 0.000399977 e
Info: MASS DENSITY = 0.986562 g/cm^3
Info: ATOM DENSITY = 0.0988061 atoms/A^3
Info: ADDED 0 IMPLICIT EXCLUSIONS
Info: NONBONDED TABLE R-SQUARED SPACING: 0.0625
Info: NONBONDED TABLE SIZE: 705 POINTS
Info: REDUCING NUMBER OF PATCHES TO IMPROVE LOAD BALANCE
Info: REMOVING COM VELOCITY 0.0044185 -0.24281 0.00129195
Info: Use 3D box decompostion in PME FFT.
Info: Updated CUDA force table with 4096 elements.
Info: Updated CUDA LJ table with 6 x 6 elements.
Info: Found 23 unique exclusion lists needing 68 bytes
TCL: Running for 1500000 steps
ETITLE: TS BOND ANGLE DIHED IMPRP ELECT VDW BOUNDARY MISC KINETIC TOTAL TEMP POTENTIAL TOTALAVG TEMPAVG PRESSURE GPRESSURE VOLUME PRESSAVG GPRESSAVG
ENERGY: 0 3.9169 23.7405 5.3470 0.0000 -10538.6500 1382.6808 0.0000 0.0000 1730.1402 -7392.8245 296.3397 -9122.9647 -7392.8245 296.3397 -131.6267 -38.7567 29674.2843 -131.6267 -38.7567
ENERGY: 300000 3.9482 22.6226 7.9263 0.0000 -10666.9889 1491.9982 0.0000 0.0000 1747.7801 -7392.7135 299.3611 -9140.4936 -7392.9435 297.8114 361.3912 465.6580 29770.8025 282.8011 362.9743
ENERGY: 600000 5.1528 19.2756 7.8259 0.0000 -10684.9435 1416.1140 0.0000 0.0000 1818.4261 -7418.1492 311.4614 -9236.5752 -7379.8208 301.8531 -218.2269 -190.5862 29625.0410 36.3734 108.9106
ENERGY: 900000 4.7888 19.5258 9.1637 0.0000 -10573.4171 1441.1090 0.0000 0.0000 1738.8303 -7359.9995 297.8282 -9098.8298 -7378.7359 300.7618 190.6286 248.5225 30339.9095 111.4631 180.6489
ENERGY: 1200000 10.2676 18.4917 6.1401 0.0000 -10413.8113 1317.4798 0.0000 0.0000 1740.6592 -7320.7729 298.1414 -9061.4320 -7371.5397 299.9324 -1034.1832 -912.9972 30014.5103 57.2173 128.4677
ENERGY: 1500000 3.0010 20.3523 6.2605 0.0000 -10528.7728 1389.2556 0.0000 0.0000 1748.7463 -7361.1572 299.5266 -9109.9035 -7369.4495 300.2522 -150.2642 -103.3551 29873.3057 7.6805 77.3774
TCL: Running FEP window   2: Lambda1 0.05   Lambda2 0.1    [dLambda 0.05  ]
TCL: Setting parameter firsttimestep to 0
TCL: Setting parameter alchLambda to 0.05
Info: NONBONDED TABLE R-SQUARED SPACING: 0.0625
Info: NONBONDED TABLE SIZE: 705 POINTS
TCL: Setting parameter alchLambda2 to 0.1
Info: NONBONDED TABLE R-SQUARED SPACING: 0.0625
Info: NONBONDED TABLE SIZE: 705 POINTS
TCL: Running for 1500000 steps
ETITLE: TS BOND ANGLE DIHED IMPRP ELECT VDW BOUNDARY MISC KINETIC TOTAL TEMP POTENTIAL TOTALAVG TEMPAVG PRESSURE GPRESSURE VOLUME PRESSAVG GPRESSAVG
ENERGY: 0 3.0010 20.3523 6.2605 0.0000 -10528.7723 1392.2791 0.0000 0.0000 1747.8731 -7359.0064 299.3770 -9106.8795 -7359.0064 299.3770 -182.3274 -91.3326 29873.3057 -182.3274 -91.3326
ENERGY: 300000 5.6145 19.9823 5.9048 0.0000 -10518.6841 1387.2788 0.0000 0.0000 1745.9983 -7353.9055 299.0559 -9099.9038 -7348.6147 300.5378 -764.0862 -647.2849 30745.6685 -377.5346 -280.3003
ENERGY: 600000 5.0870 20.9573 7.1154 0.0000 -10535.5015 1401.8649 0.0000 0.0000 1797.4832 -7302.9937 307.8743 -9100.4770 -7349.8451 300.3156 26.2983 123.2818 29663.5242 -177.3381 -88.7721
ENERGY: 900000 7.9514 19.4501 6.3308 0.0000 -10705.7308 1506.9607 0.0000 0.0000 1751.7163 -7413.3216 300.0353 -9165.0379 -7359.5785 299.5747 531.9478 578.8747 30035.4023 -91.4668 -8.7477
ENERGY: 1200000 7.3901 19.0168 5.8711 0.0000 -10551.5667 1366.3309 0.0000 0.0000 1710.3433 -7442.6145 292.9489 -9152.9578 -7379.8325 297.6220 -790.5629 -681.8868 29880.9478 -56.4421 20.6832
ENERGY: 1500000 5.4828 21.5427 7.9623 0.0000 -10696.8167 1489.1551 0.0000 0.0000 1757.5769 -7415.0968 301.0391 -9172.6738 -7378.4624 298.4035 562.1039 678.8687 29769.3863 -15.1633 67.4416
TCL: Running FEP window   3: Lambda1 0.1    Lambda2 0.15000000000000002 [dLambda 0.05000000000000002]
TCL: Setting parameter firsttimestep to 0
TCL: Setting parameter alchLambda to 0.1
Info: NONBONDED TABLE R-SQUARED SPACING: 0.0625
Info: NONBONDED TABLE SIZE: 705 POINTS
TCL: Setting parameter alchLambda2 to 0.15000000000000002
Info: NONBONDED TABLE R-SQUARED SPACING: 0.0625
Info: NONBONDED TABLE SIZE: 705 POINTS
TCL: Running for 1500000 steps
ETITLE: TS BOND ANGLE DIHED IMPRP ELECT VDW BOUNDARY MISC KINETIC TOTAL TEMP POTENTIAL TOTALAVG TEMPAVG PRESSURE GPRESSURE VOLUME PRESSAVG GPRESSAVG
ENERGY: 0 5.4828 21.5427 7.9623 0.0000 -10696.8158 1491.8751 0.0000 0.0000 1756.7069 -7413.2460 300.8901 -9169.9529 -7413.2460 300.8901 603.7879 688.4912 29769.3863 603.7879 688.4912
ENERGY: 300000 5.4359 18.5992 9.9673 0.0000 -10801.8498 1573.7959 0.0000 0.0000 1776.7514 -7417.3000 304.3233 -9194.0515 -7402.6669 299.2721 1055.2856 1076.1404 29785.5107 203.3096 255.3901
ENERGY: 600000 4.5495 20.8353 6.4628 0.0000 -10595.2440 1375.4536 0.0000 0.0000 1800.5742 -7387.3687 308.4037 -9187.9429 -7386.1136 301.3621 -777.5170 -680.4540 30320.1072 -119.2806 -62.2656
ENERGY: 900000 7.0020 21.3978 5.2365 0.0000 -10670.4907 1468.2814 0.0000 0.0000 1758.8600 -7409.7130 301.2589 -9168.5730 -7387.3835 300.5175 3.0911 160.6403 30079.3311 -202.0925 -122.6263
ENERGY: 1200000 5.3328 20.6806 7.0285 0.0000 -10600.6027 1374.6256 0.0000 0.0000 1799.2655 -7393.6697 308.1796 -9192.9351 -7393.1706 300.0681 -679.5685 -619.5569 30048.2492 -234.2390 -162.3746
ENERGY: 1500000 2.6878 21.2118 8.4176 0.0000 -10733.7975 1498.6709 0.0000 0.0000 1747.4426 -7455.3667 299.3033 -9202.8093 -7402.8360 299.2661 197.2541 278.2923 29880.4629 -172.4023 -95.4802
TCL: Running FEP window   4: Lambda1 0.15000000000000002 Lambda2 0.2    [dLambda 0.04999999999999999]
TCL: Setting parameter firsttimestep to 0
TCL: Setting parameter alchLambda to 0.15000000000000002
Info: NONBONDED TABLE R-SQUARED SPACING: 0.0625
Info: NONBONDED TABLE SIZE: 705 POINTS
TCL: Setting parameter alchLambda2 to 0.2
Info: NONBONDED TABLE R-SQUARED SPACING: 0.0625
Info: NONBONDED TABLE SIZE: 705 POINTS
TCL: Running for 1500000 steps
ETITLE: TS BOND ANGLE DIHED IMPRP ELECT VDW BOUNDARY MISC KINETIC TOTAL TEMP POTENTIAL TOTALAVG TEMPAVG PRESSURE GPRESSURE VOLUME PRESSAVG GPRESSAVG
ENERGY: 0 2.6878 21.2118 8.4176 0.0000 -10733.7991 1500.1249 0.0000 0.0000 1746.5589 -7454.7980 299.1519 -9201.3569 -7454.7980 299.1519 202.3452 287.1252 29880.4629 202.3452 287.1252
ENERGY: 300000 4.8583 17.1046 7.8137 0.0000 -10526.9501 1376.8816 0.0000 0.0000 1751.5466 -7368.7453 300.0062 -9120.2919 -7438.7662 294.1132 -513.2095 -457.1357 30188.7451 -324.3842 -270.9728
ENERGY: 600000 6.2737 18.9609 4.8737 0.0000 -10595.6285 1445.1674 0.0000 0.0000 1788.0898 -7332.2631 306.2654 -9120.3529 -7414.4843 296.8449 127.1349 146.9718 30311.9863 -214.9410 -165.7609
ENERGY: 900000 6.0126 23.9786 8.3143 0.0000 -10686.8540 1452.7942 0.0000 0.0000 1704.2786 -7491.4757 291.9101 -9195.7543 -7423.3340 297.3470 -54.8381 -21.9091 29857.1975 -154.7497 -107.2428
ENERGY: 1200000 6.9518 18.3445 9.4555 0.0000 -10550.8888 1384.2025 0.0000 0.0000 1758.5167 -7373.4179 301.2001 -9131.9346 -7418.9088 297.7621 -481.6296 -414.7750 30468.0841 -73.4647 -27.3629
ENERGY: 1500000 3.3866 19.7650 7.1158 0.0000 -10505.4189 1363.2623 0.0000 0.0000 1732.1931 -7379.6961 296.6914 -9111.8891 -7410.9254 297.8647 -612.3499 -557.6302 30398.6036 -90.9863 -46.5624
TCL: Running FEP window   5: Lambda1 0.2    Lambda2 0.25   [dLambda 0.04999999999999999]
TCL: Setting parameter firsttimestep to 0
TCL: Setting parameter alchLambda to 0.2
Info: NONBONDED TABLE R-SQUARED SPACING: 0.0625
Info: NONBONDED TABLE SIZE: 705 POINTS
TCL: Setting parameter alchLambda2 to 0.25
Info: NONBONDED TABLE R-SQUARED SPACING: 0.0625
Info: NONBONDED TABLE SIZE: 705 POINTS
TCL: Running for 1500000 steps
ETITLE: TS BOND ANGLE DIHED IMPRP ELECT VDW BOUNDARY MISC KINETIC TOTAL TEMP POTENTIAL TOTALAVG TEMPAVG PRESSURE GPRESSURE VOLUME PRESSAVG GPRESSAVG
ENERGY: 0 3.3866 19.7650 7.1158 0.0000 -10505.4189 1364.8046 0.0000 0.0000 1731.3165 -7379.0304 296.5412 -9110.3469 -7379.0304 296.5412 -636.1978 -544.3819 30398.6036 -636.1978 -544.3819
ENERGY: 300000 8.1474 21.5045 5.0181 0.0000 -10630.5584 1479.3907 0.0000 0.0000 1781.0550 -7335.4427 305.0605 -9116.4977 -7353.8305 301.2549 629.0751 639.1878 29379.5869 -37.1791 20.1322
ENERGY: 600000 5.5773 21.0977 4.8983 0.0000 -10521.9828 1396.5635 0.0000 0.0000 1749.5789 -7344.2671 299.6692 -9093.8460 -7352.2239 300.6710 -428.7268 -378.2144 30510.5427 -159.9479 -107.5262
ENERGY: 900000 5.7685 17.1842 7.0550 0.0000 -10580.5608 1380.2752 0.0000 0.0000 1761.5971 -7408.6808 301.7277 -9170.2779 -7376.7634 299.2848 -403.1589 -363.3246 29697.0572 -265.4303 -202.4812
ENERGY: 1200000 6.4459 17.6470 4.6212 0.0000 -10639.6569 1465.7061 0.0000 0.0000 1709.8956 -7435.3411 292.8722 -9145.2366 -7386.9796 299.0454 156.9836 192.4304 29993.9328 -278.1496 -209.6478
ENERGY: 1500000 5.6314 21.1192 6.7206 0.0000 -10531.0154 1452.8196 0.0000 0.0000 1762.2760 -7282.4485 301.8440 -9044.7245 -7374.1632 299.4030 297.0325 382.5422 30171.2608 -324.2290 -253.2440
TCL: Running FEP window   6: Lambda1 0.25   Lambda2 0.3    [dLambda 0.04999999999999999]
TCL: Setting parameter firsttimestep to 0
TCL: Setting parameter alchLambda to 0.25
Info: NONBONDED TABLE R-SQUARED SPACING: 0.0625
Info: NONBONDED TABLE SIZE: 705 POINTS
TCL: Setting parameter alchLambda2 to 0.3
Info: NONBONDED TABLE R-SQUARED SPACING: 0.0625
Info: NONBONDED TABLE SIZE: 705 POINTS
TCL: Running for 1500000 steps
ETITLE: TS BOND ANGLE DIHED IMPRP ELECT VDW BOUNDARY MISC KINETIC TOTAL TEMP POTENTIAL TOTALAVG TEMPAVG PRESSURE GPRESSURE VOLUME PRESSAVG GPRESSAVG
ENERGY: 0 5.6314 21.1192 6.7206 0.0000 -10531.0143 1453.0493 0.0000 0.0000 1761.4142 -7283.0796 301.6964 -9044.4938 -7283.0796 301.6964 306.8306 387.8509 30171.2608 306.8306 387.8509
ENERGY: 300000 3.2982 18.1561 6.6601 0.0000 -10682.5492 1475.6265 0.0000 0.0000 1710.0020 -7468.8063 292.8905 -9178.8083 -7337.2038 298.7088 296.5449 325.4728 29789.3245 204.5351 256.0027
ENERGY: 600000 7.9643 23.9959 6.8924 0.0000 -10499.8582 1346.4853 0.0000 0.0000 1810.1115 -7304.4088 310.0373 -9114.5202 -7328.5354 302.2291 -798.8019 -721.4418 30831.8665 130.9790 181.0342
ENERGY: 900000 4.4299 21.4560 10.7923 0.0000 -10488.6488 1380.8597 0.0000 0.0000 1769.3162 -7301.7948 303.0498 -9071.1110 -7345.0289 300.7209 62.6302 125.5787 29503.1116 51.0563 95.3297
ENERGY: 1200000 4.1453 22.1241 5.3118 0.0000 -10774.0631 1507.8823 0.0000 0.0000 1755.8346 -7478.7650 300.7407 -9234.5996 -7356.4459 300.7712 364.7445 481.2823 29745.4435 46.3683 104.1791
ENERGY: 1500000 8.1313 20.8844 5.8010 0.0000 -10604.5683 1426.8019 0.0000 0.0000 1762.8786 -7380.0711 301.9472 -9142.9497 -7357.4131 300.3998 -228.5320 -100.5285 30117.3652 37.2452 94.6855
TCL: Running FEP window   7: Lambda1 0.3    Lambda2 0.35   [dLambda 0.04999999999999999]
TCL: Setting parameter firsttimestep to 0
TCL: Setting parameter alchLambda to 0.3
Info: NONBONDED TABLE R-SQUARED SPACING: 0.0625
Info: NONBONDED TABLE SIZE: 705 POINTS
TCL: Setting parameter alchLambda2 to 0.35
Info: NONBONDED TABLE R-SQUARED SPACING: 0.0625
Info: NONBONDED TABLE SIZE: 705 POINTS
TCL: Running for 1500000 steps
ETITLE: TS BOND ANGLE DIHED IMPRP ELECT VDW BOUNDARY MISC KINETIC TOTAL TEMP POTENTIAL TOTALAVG TEMPAVG PRESSURE GPRESSURE VOLUME PRESSAVG GPRESSAVG
ENERGY: 0 8.1313 20.8844 5.8010 0.0000 -10604.5680 1427.1948 0.0000 0.0000 1762.0155 -7380.5410 301.7994 -9142.5565 -7380.5410 301.7994 -178.0693 -92.0423 30117.3652 -178.0693 -92.0423
ENERGY: 300000 4.6808 18.9242 4.1632 0.0000 -10629.6139 1513.9268 0.0000 0.0000 1832.4522 -7255.4666 313.8638 -9087.9188 -7367.8204 304.3817 835.6691 955.2236 30201.0036 23.0928 139.7593
ENERGY: 600000 7.6994 17.2690 6.1583 0.0000 -10614.8623 1366.6433 0.0000 0.0000 1733.1115 -7483.9808 296.8487 -9217.0923 -7367.1076 304.8595 -1144.4107 -1142.5711 30424.7264 -325.5665 -231.9188
ENERGY: 900000 4.7984 22.4056 4.6969 0.0000 -10639.0231 1472.6695 0.0000 0.0000 1722.1816 -7412.2711 294.9766 -9134.4527 -7380.9939 302.0056 197.6471 300.9521 30046.6725 -187.1345 -103.1012
ENERGY: 1200000 4.4909 19.6571 7.6769 0.0000 -10523.6730 1431.3973 0.0000 0.0000 1734.3334 -7326.1174 297.0580 -9060.4508 -7368.0667 302.1393 -35.1584 79.2560 30380.3366 -116.5467 -31.2037
ENERGY: 1500000 12.8366 16.4910 9.9560 0.0000 -10539.4285 1413.4812 0.0000 0.0000 1823.3495 -7263.3142 312.3047 -9086.6637 -7360.3337 302.0642 -222.5158 -188.2522 30360.4043 -81.0099 -0.2168
TCL: Running FEP window   8: Lambda1 0.35   Lambda2 0.39999999999999997 [dLambda 0.04999999999999999]
TCL: Setting parameter firsttimestep to 0
TCL: Setting parameter alchLambda to 0.35
Info: NONBONDED TABLE R-SQUARED SPACING: 0.0625
Info: NONBONDED TABLE SIZE: 705 POINTS
TCL: Setting parameter alchLambda2 to 0.39999999999999997
Info: NONBONDED TABLE R-SQUARED SPACING: 0.0625
Info: NONBONDED TABLE SIZE: 705 POINTS
TCL: Running for 1500000 steps
ETITLE: TS BOND ANGLE DIHED IMPRP ELECT VDW BOUNDARY MISC KINETIC TOTAL TEMP POTENTIAL TOTALAVG TEMPAVG PRESSURE GPRESSURE VOLUME PRESSAVG GPRESSAVG
ENERGY: 0 12.8366 16.4910 9.9561 0.0000 -10539.4286 1413.3153 0.0000 0.0000 1822.4856 -7264.3440 312.1567 -9086.8296 -7264.3440 312.1567 -271.9284 -184.7041 30360.4043 -271.9284 -184.7041
ENERGY: 300000 5.6589 22.7348 7.6470 0.0000 -10663.5328 1518.4819 0.0000 0.0000 1747.3594 -7361.6507 299.2891 -9109.0101 -7317.8405 304.3987 677.1963 845.5583 30146.9471 258.2714 356.8023
ENERGY: 600000 7.7778 18.9117 4.6229 0.0000 -10542.9839 1411.1349 0.0000 0.0000 1754.4456 -7346.0910 300.5028 -9100.5366 -7346.2748 302.3893 -220.6175 -164.5278 30182.0439 163.9331 250.4943
ENERGY: 900000 3.7609 21.3863 7.0799 0.0000 -10607.4609 1439.9778 0.0000 0.0000 1731.1995 -7404.0565 296.5212 -9135.2560 -7353.9815 302.1373 -7.3132 115.2488 30048.8038 99.9169 193.5074
ENERGY: 1200000 6.6756 21.7229 5.2102 0.0000 -10557.9826 1352.0348 0.0000 0.0000 1755.0560 -7417.2830 300.6073 -9172.3390 -7358.8928 302.0791 -885.7641 -823.5454 30378.1096 -71.6608 19.6675
ENERGY: 1500000 3.3675 17.8583 7.7269 0.0000 -10585.2705 1426.7423 0.0000 0.0000 1761.9815 -7367.5939 301.7935 -9129.5754 -7364.3908 301.0020 58.0721 131.2650 29976.2755 -56.1920 30.9588
TCL: Running FEP window   9: Lambda1 0.39999999999999997 Lambda2 0.44999999999999996 [dLambda 0.04999999999999999]
TCL: Setting parameter firsttimestep to 0
TCL: Setting parameter alchLambda to 0.39999999999999997
Info: NONBONDED TABLE R-SQUARED SPACING: 0.0625
Info: NONBONDED TABLE SIZE: 705 POINTS
TCL: Setting parameter alchLambda2 to 0.44999999999999996
Info: NONBONDED TABLE R-SQUARED SPACING: 0.0625
Info: NONBONDED TABLE SIZE: 705 POINTS
TCL: Running for 1500000 steps
ETITLE: TS BOND ANGLE DIHED IMPRP ELECT VDW BOUNDARY MISC KINETIC TOTAL TEMP POTENTIAL TOTALAVG TEMPAVG PRESSURE GPRESSURE VOLUME PRESSAVG GPRESSAVG
ENERGY: 0 3.3675 17.8583 7.7269 0.0000 -10585.2693 1427.8061 0.0000 0.0000 1761.1088 -7367.4017 301.6441 -9128.5105 -7367.4017 301.6441 52.9378 146.7721 29976.2755 52.9378 146.7721
ENERGY: 300000 4.8842 21.3664 9.5118 0.0000 -10592.3626 1442.8459 0.0000 0.0000 1728.9366 -7384.8178 296.1336 -9113.7543 -7373.0525 302.0572 160.6716 264.3561 30061.0038 315.5814 395.0726
ENERGY: 600000 4.5114 18.6682 9.3466 0.0000 -10436.2433 1374.0752 0.0000 0.0000 1770.5839 -7259.0579 303.2670 -9029.6419 -7355.9796 302.0170 -144.4963 -119.7110 30316.4270 -74.3217 7.2198
ENERGY: 900000 3.8737 20.0462 7.5170 0.0000 -10647.6935 1484.8076 0.0000 0.0000 1743.8451 -7387.6040 298.6871 -9131.4491 -7373.4837 301.0602 787.6350 764.6069 29871.4144 40.2514 115.0450
ENERGY: 1200000 1.7061 21.8389 8.3942 0.0000 -10611.6289 1433.5187 0.0000 0.0000 1757.5851 -7388.5859 301.0405 -9146.1710 -7376.0555 300.5842 -212.9572 -132.2698 30439.1720 -1.1123 83.8073
ENERGY: 1500000 3.4230 18.1044 6.0896 0.0000 -10699.7227 1480.8625 0.0000 0.0000 1788.0997 -7403.1436 306.2671 -9191.2433 -7383.3913 300.5754 722.7279 796.9993 29568.0603 101.6061 180.9897
TCL: Running FEP window  10: Lambda1 0.44999999999999996 Lambda2 0.49999999999999994 [dLambda 0.04999999999999999]
TCL: Setting parameter firsttimestep to 0
TCL: Setting parameter alchLambda to 0.44999999999999996
Info: NONBONDED TABLE R-SQUARED SPACING: 0.0625
Info: NONBONDED TABLE SIZE: 705 POINTS
TCL: Setting parameter alchLambda2 to 0.49999999999999994
Info: NONBONDED TABLE R-SQUARED SPACING: 0.0625
Info: NONBONDED TABLE SIZE: 705 POINTS
TCL: Running for 1500000 steps
ETITLE: TS BOND ANGLE DIHED IMPRP ELECT VDW BOUNDARY MISC KINETIC TOTAL TEMP POTENTIAL TOTALAVG TEMPAVG PRESSURE GPRESSURE VOLUME PRESSAVG GPRESSAVG
ENERGY: 0 3.4230 18.1044 6.0896 0.0000 -10699.7234 1480.4646 0.0000 0.0000 1787.2047 -7404.4372 306.1138 -9191.6419 -7404.4372 306.1138 727.6642 799.0897 29568.0603 727.6642 799.0897
ENERGY: 300000 5.6541 22.7507 11.7785 0.0000 -10614.8020 1453.0780 0.0000 0.0000 1721.0931 -7400.4476 294.7902 -9121.5407 -7413.9970 298.3577 170.6146 289.2072 29906.2817 211.2550 280.1721
ENERGY: 600000 8.3050 19.2054 5.4336 0.0000 -10632.3998 1471.8525 0.0000 0.0000 1746.9297 -7380.6737 299.2155 -9127.6034 -7393.4462 298.9541 251.9422 303.6171 29703.6917 101.0641 160.6626
ENERGY: 900000 4.3263 17.5234 8.1957 0.0000 -10724.6483 1485.7233 0.0000 0.0000 1758.2221 -7450.6574 301.1496 -9208.8796 -7400.1551 299.4970 199.1557 293.2023 29922.9671 -8.1317 58.0784
ENERGY: 1200000 6.7232 20.9645 9.5410 0.0000 -10533.2824 1376.5837 0.0000 0.0000 1771.9710 -7347.4990 303.5045 -9119.4700 -7393.1279 300.0302 -598.1653 -488.1375 30376.6377 -13.0181 60.0694
ENERGY: 1500000 3.7342 21.3126 6.4254 0.0000 -10476.2736 1390.9376 0.0000 0.0000 1720.1124 -7333.7513 294.6222 -9053.8638 -7379.4888 299.6062 -233.7205 -182.1620 30388.6069 -18.2996 52.5617
TCL: Running FEP window  11: Lambda1 0.49999999999999994 Lambda2 0.5499999999999999 [dLambda 0.04999999999999999]
TCL: Setting parameter firsttimestep to 0
TCL: Setting parameter alchLambda to 0.49999999999999994
Info: NONBONDED TABLE R-SQUARED SPACING: 0.0625
Info: NONBONDED TABLE SIZE: 705 POINTS
TCL: Setting parameter alchLambda2 to 0.5499999999999999
Info: NONBONDED TABLE R-SQUARED SPACING: 0.0625
Info: NONBONDED TABLE SIZE: 705 POINTS
TCL: Running for 1500000 steps
ETITLE: TS BOND ANGLE DIHED IMPRP ELECT VDW BOUNDARY MISC KINETIC TOTAL TEMP POTENTIAL TOTALAVG TEMPAVG PRESSURE GPRESSURE VOLUME PRESSAVG GPRESSAVG
ENERGY: 0 3.7342 21.3126 6.4254 0.0000 -10476.2710 1390.8040 0.0000 0.0000 1719.2578 -7334.7369 294.4758 -9053.9947 -7334.7369 294.4758 -269.8317 -177.5380 30388.6069 -269.8317 -177.5380
ENERGY: 300000 7.0326 18.0087 4.6876 0.0000 -10586.7041 1412.5707 0.0000 0.0000 1727.2357 -7417.1689 295.8423 -9144.4046 -7359.5708 299.6884 -160.3624 -98.3539 29869.1725 102.8754 167.6007
ENERGY: 600000 3.2746 21.3522 11.6004 0.0000 -10553.4628 1416.3092 0.0000 0.0000 1759.8704 -7341.0560 301.4320 -9100.9264 -7336.7706 301.3590 -253.5875 -132.3190 30569.6637 80.5410 138.6328
ENERGY: 900000 7.0994 19.0023 7.1185 0.0000 -10472.2792 1389.8318 0.0000 0.0000 1751.2917 -7297.9355 299.9626 -9049.2272 -7338.7482 300.6555 -147.6595 -63.3643 30366.5372 93.6809 154.9220
ENERGY: 1200000 4.1900 19.9235 7.4626 0.0000 -10654.4278 1461.6614 0.0000 0.0000 1763.5165 -7397.6738 302.0565 -9161.1903 -7354.1250 300.2941 254.1008 250.7796 30315.9515 42.5996 102.2770
ENERGY: 1500000 7.7209 19.1044 9.2531 0.0000 -10674.6629 1454.7550 0.0000 0.0000 1714.1644 -7469.6651 293.6034 -9183.8295 -7359.7611 300.7645 -281.7714 -223.9287 30269.7255 94.4535 158.0430
TCL: Running FEP window  12: Lambda1 0.5499999999999999 Lambda2 0.6    [dLambda 0.050000000000000044]
TCL: Setting parameter firsttimestep to 0
TCL: Setting parameter alchLambda to 0.5499999999999999
Info: NONBONDED TABLE R-SQUARED SPACING: 0.0625
Info: NONBONDED TABLE SIZE: 705 POINTS
TCL: Setting parameter alchLambda2 to 0.6
Info: NONBONDED TABLE R-SQUARED SPACING: 0.0625
Info: NONBONDED TABLE SIZE: 705 POINTS
TCL: Running for 1500000 steps
ETITLE: TS BOND ANGLE DIHED IMPRP ELECT VDW BOUNDARY MISC KINETIC TOTAL TEMP POTENTIAL TOTALAVG TEMPAVG PRESSURE GPRESSURE VOLUME PRESSAVG GPRESSAVG
ENERGY: 0 7.7209 19.1043 9.2531 0.0000 -10674.1940 1454.8356 0.0000 0.0000 1713.2556 -7470.0244 293.4477 -9183.2800 -7470.0244 293.4477 -294.8196 -213.2932 30269.7255 -294.8196 -213.2932
ENERGY: 300000 3.5194 20.4747 8.9572 0.0000 -10555.3097 1434.9902 0.0000 0.0000 1754.9762 -7332.3920 300.5937 -9087.3682 -7406.5002 295.3405 425.1365 478.9393 30222.4250 -283.9878 -210.6367
ENERGY: 600000 5.4542 19.0047 6.6633 0.0000 -10563.4279 1408.0147 0.0000 0.0000 1725.6870 -7398.6039 295.5770 -9124.2909 -7387.1659 297.6100 37.5163 53.9600 30401.2952 -292.7229 -219.5097
ENERGY: 900000 6.9770 18.0012 5.3342 0.0000 -10454.3513 1318.1075 0.0000 0.0000 1701.7648 -7404.1666 291.4796 -9105.9315 -7384.6278 298.4707 -839.4833 -787.3651 30293.1496 -290.8005 -217.9675
ENERGY: 1200000 5.1760 25.0815 7.3873 0.0000 -10557.4893 1350.2422 0.0000 0.0000 1757.2977 -7412.3046 300.9913 -9169.6024 -7376.6801 299.8818 -980.9875 -885.0586 30693.8901 -266.3195 -193.2601
ENERGY: 1500000 5.9071 18.8064 8.5205 0.0000 -10643.5860 1487.0018 0.0000 0.0000 1730.9334 -7392.4167 296.4756 -9123.3501 -7379.5908 299.6738 539.9395 559.3733 30000.7798 -200.7768 -126.7021
TCL: Running FEP window  13: Lambda1 0.6    Lambda2 0.65   [dLambda 0.050000000000000044]
TCL: Setting parameter firsttimestep to 0
TCL: Setting parameter alchLambda to 0.6
Info: NONBONDED TABLE R-SQUARED SPACING: 0.0625
Info: NONBONDED TABLE SIZE: 705 POINTS
TCL: Setting parameter alchLambda2 to 0.65
Info: NONBONDED TABLE R-SQUARED SPACING: 0.0625
Info: NONBONDED TABLE SIZE: 705 POINTS
TCL: Running for 1500000 steps
ETITLE: TS BOND ANGLE DIHED IMPRP ELECT VDW BOUNDARY MISC KINETIC TOTAL TEMP POTENTIAL TOTALAVG TEMPAVG PRESSURE GPRESSURE VOLUME PRESSAVG GPRESSAVG
ENERGY: 0 5.9071 18.8064 8.5205 0.0000 -10643.7598 1486.7298 0.0000 0.0000 1730.0795 -7393.7165 296.3293 -9123.7960 -7393.7165 296.3293 477.8837 566.3614 30000.7798 477.8837 566.3614
ENERGY: 300000 7.8399 16.0401 7.1323 0.0000 -10553.8375 1425.8903 0.0000 0.0000 1757.5833 -7339.3517 301.0402 -9096.9349 -7367.1623 301.9592 -207.4560 -115.1395 30499.6987 -19.3574 69.4479
ENERGY: 600000 4.1138 21.5916 5.8064 0.0000 -10521.8016 1484.1357 0.0000 0.0000 1762.3582 -7243.7959 301.8581 -9006.1541 -7344.4911 301.1099 667.3384 718.7294 30691.7302 -40.0588 36.6491
ENERGY: 900000 7.9957 19.0697 6.9224 0.0000 -10553.1236 1378.7045 0.0000 0.0000 1768.5912 -7371.8401 302.9256 -9140.4312 -7361.9891 301.1324 -677.8098 -614.2225 30340.9988 -154.1209 -75.6223
ENERGY: 1200000 8.3820 19.4853 7.4821 0.0000 -10611.8523 1419.6044 0.0000 0.0000 1759.6484 -7397.2502 301.3939 -9156.8985 -7367.8379 301.3925 -346.6222 -333.6327 30471.4014 -203.4926 -126.4578
ENERGY: 1500000 10.5992 15.9156 6.7374 0.0000 -10625.5130 1390.6895 0.0000 0.0000 1764.6220 -7436.9492 302.2458 -9201.5712 -7376.5643 301.1948 -468.0865 -465.0988 29764.1918 -174.2364 -107.7699
TCL: Running FEP window  14: Lambda1 0.65   Lambda2 0.7000000000000001 [dLambda 0.050000000000000044]
TCL: Setting parameter firsttimestep to 0
TCL: Setting parameter alchLambda to 0.65
Info: NONBONDED TABLE R-SQUARED SPACING: 0.0625
Info: NONBONDED TABLE SIZE: 705 POINTS
TCL: Setting parameter alchLambda2 to 0.7000000000000001
Info: NONBONDED TABLE R-SQUARED SPACING: 0.0625
Info: NONBONDED TABLE SIZE: 705 POINTS
TCL: Running for 1500000 steps
ETITLE: TS BOND ANGLE DIHED IMPRP ELECT VDW BOUNDARY MISC KINETIC TOTAL TEMP POTENTIAL TOTALAVG TEMPAVG PRESSURE GPRESSURE VOLUME PRESSAVG GPRESSAVG
ENERGY: 0 10.5992 15.9156 6.7374 0.0000 -10626.0058 1390.9582 0.0000 0.0000 1763.7295 -7438.0659 302.0929 -9201.7954 -7438.0659 302.0929 -534.1121 -448.8738 29764.1918 -534.1121 -448.8738
ENERGY: 300000 6.9484 18.7386 7.7884 0.0000 -10657.9799 1451.5457 0.0000 0.0000 1735.0793 -7437.8795 297.1857 -9172.9588 -7415.5896 298.7187 300.3429 428.6112 29762.8352 -384.3755 -292.5891
ENERGY: 600000 5.5206 21.0376 8.1642 0.0000 -10506.9350 1358.4847 0.0000 0.0000 1750.1853 -7363.5426 299.7731 -9113.7280 -7381.1893 299.9736 -352.6225 -328.4311 29968.8941 -378.1732 -305.0718
ENERGY: 900000 4.7536 17.5579 7.4546 0.0000 -10558.0372 1406.8557 0.0000 0.0000 1765.5679 -7355.8474 302.4078 -9121.4153 -7389.2485 299.3245 27.6603 46.4558 30036.6012 -303.4561 -232.2142
ENERGY: 1200000 6.0214 18.5147 5.9086 0.0000 -10623.7885 1413.8087 0.0000 0.0000 1770.2943 -7409.2407 303.2174 -9179.5350 -7394.7642 299.2967 -95.3936 -50.8618 29796.5759 -246.2596 -187.1257
ENERGY: 1500000 3.2484 21.9679 5.5272 0.0000 -10663.5525 1443.0481 0.0000 0.0000 1739.0472 -7450.7137 297.8653 -9189.7609 -7393.8718 298.8043 159.1067 215.3136 29785.6311 -170.9492 -108.3929
TCL: Running FEP window  15: Lambda1 0.7000000000000001 Lambda2 0.7500000000000001 [dLambda 0.050000000000000044]
TCL: Setting parameter firsttimestep to 0
TCL: Setting parameter alchLambda to 0.7000000000000001
Info: NONBONDED TABLE R-SQUARED SPACING: 0.0625
Info: NONBONDED TABLE SIZE: 705 POINTS
TCL: Setting parameter alchLambda2 to 0.7500000000000001
Info: NONBONDED TABLE R-SQUARED SPACING: 0.0625
Info: NONBONDED TABLE SIZE: 705 POINTS
TCL: Running for 1500000 steps
ETITLE: TS BOND ANGLE DIHED IMPRP ELECT VDW BOUNDARY MISC KINETIC TOTAL TEMP POTENTIAL TOTALAVG TEMPAVG PRESSURE GPRESSURE VOLUME PRESSAVG GPRESSAVG
ENERGY: 0 3.2484 21.9679 5.5272 0.0000 -10664.0927 1443.3936 0.0000 0.0000 1738.1976 -7451.7580 297.7198 -9189.9556 -7451.7580 297.7198 157.6233 227.1901 29785.6311 157.6233 227.1901
ENERGY: 300000 6.8273 18.2189 9.1706 0.0000 -10749.1237 1482.3250 0.0000 0.0000 1772.1849 -7460.3971 303.5412 -9232.5820 -7436.9428 302.1629 436.1543 512.6402 29769.6662 216.8954 292.5919
ENERGY: 600000 5.5297 19.5446 4.9818 0.0000 -10533.2919 1418.6218 0.0000 0.0000 1762.2008 -7322.4133 301.8311 -9084.6141 -7409.1386 300.6565 -25.8506 68.6569 30495.6746 247.6363 337.9968
ENERGY: 900000 3.3449 21.6045 6.7081 0.0000 -10726.8428 1525.0150 0.0000 0.0000 1749.8092 -7420.3610 299.7087 -9170.1703 -7402.5274 300.4024 574.2942 664.1724 30234.8768 314.6473 389.4734
ENERGY: 1200000 2.4704 19.2323 5.7781 0.0000 -10488.9022 1333.6735 0.0000 0.0000 1780.1428 -7347.6051 304.9042 -9127.7480 -7385.0632 301.8003 -733.7152 -667.6557 30303.2650 122.3474 188.1583
ENERGY: 1500000 7.7979 19.5827 7.1095 0.0000 -10522.7258 1362.8802 0.0000 0.0000 1739.4681 -7385.8875 297.9374 -9125.3556 -7394.1470 300.6336 -375.6750 -331.1869 30404.9614 112.8343 175.2751
TCL: Running FEP window  16: Lambda1 0.7500000000000001 Lambda2 0.8000000000000002 [dLambda 0.050000000000000044]
TCL: Setting parameter firsttimestep to 0
TCL: Setting parameter alchLambda to 0.7500000000000001
Info: NONBONDED TABLE R-SQUARED SPACING: 0.0625
Info: NONBONDED TABLE SIZE: 705 POINTS
TCL: Setting parameter alchLambda2 to 0.8000000000000002
Info: NONBONDED TABLE R-SQUARED SPACING: 0.0625
Info: NONBONDED TABLE SIZE: 705 POINTS
TCL: Running for 1500000 steps
ETITLE: TS BOND ANGLE DIHED IMPRP ELECT VDW BOUNDARY MISC KINETIC TOTAL TEMP POTENTIAL TOTALAVG TEMPAVG PRESSURE GPRESSURE VOLUME PRESSAVG GPRESSAVG
ENERGY: 0 7.7979 19.5827 7.1095 0.0000 -10523.3560 1364.8422 0.0000 0.0000 1738.6415 -7385.3821 297.7958 -9124.0236 -7385.3821 297.7958 -383.4419 -294.6822 30404.9614 -383.4419 -294.6822
ENERGY: 300000 4.0686 20.5763 5.4211 0.0000 -10697.6023 1471.0203 0.0000 0.0000 1740.7862 -7455.7298 298.1632 -9196.5160 -7454.6732 295.3271 412.6203 463.5514 29624.4218 -10.0550 48.5640
ENERGY: 600000 6.5275 19.8047 9.8132 0.0000 -10684.4993 1553.3695 0.0000 0.0000 1734.4863 -7360.4981 297.0841 -9094.9844 -7413.8342 296.1457 1275.9121 1288.1156 29873.7103 150.1584 195.5141
ENERGY: 900000 6.6009 22.1596 9.1015 0.0000 -10363.6969 1272.4074 0.0000 0.0000 1711.2801 -7342.1476 293.1094 -9053.4276 -7409.3645 295.5765 -1344.0774 -1292.9476 30896.8873 32.2043 83.6026
ENERGY: 1200000 9.9514 20.3719 4.7645 0.0000 -10622.7219 1479.4349 0.0000 0.0000 1788.6974 -7319.5019 306.3695 -9108.1993 -7394.9572 297.5346 322.8990 397.2091 30066.2947 27.9062 83.8191
ENERGY: 1500000 5.7821 19.1722 6.2543 0.0000 -10586.8189 1403.8618 0.0000 0.0000 1805.8680 -7345.8805 309.3104 -9151.7485 -7394.4773 297.9939 -263.6519 -255.6442 30474.0453 -50.0373 -4.7869
TCL: Running FEP window  17: Lambda1 0.8000000000000002 Lambda2 0.8500000000000002 [dLambda 0.050000000000000044]
TCL: Setting parameter firsttimestep to 0
TCL: Setting parameter alchLambda to 0.8000000000000002
Info: NONBONDED TABLE R-SQUARED SPACING: 0.0625
Info: NONBONDED TABLE SIZE: 705 POINTS
TCL: Setting parameter alchLambda2 to 0.8500000000000002
Info: NONBONDED TABLE R-SQUARED SPACING: 0.0625
Info: NONBONDED TABLE SIZE: 705 POINTS
TCL: Running for 1500000 steps
ETITLE: TS BOND ANGLE DIHED IMPRP ELECT VDW BOUNDARY MISC KINETIC TOTAL TEMP POTENTIAL TOTALAVG TEMPAVG PRESSURE GPRESSURE VOLUME PRESSAVG GPRESSAVG
ENERGY: 0 5.7821 19.1722 6.2543 0.0000 -10587.9741 1403.7723 0.0000 0.0000 1804.9746 -7348.0187 309.1574 -9152.9933 -7348.0187 309.1574 -328.5821 -251.1987 30474.0453 -328.5821 -251.1987
ENERGY: 300000 4.0301 19.4871 5.8823 0.0000 -10515.6692 1355.1942 0.0000 0.0000 1793.4837 -7337.5919 307.1893 -9131.0756 -7376.8691 302.4981 -516.0756 -490.5170 30373.2588 -281.2685 -207.3582
ENERGY: 600000 8.2623 21.0680 7.2616 0.0000 -10595.9008 1406.0299 0.0000 0.0000 1725.1425 -7428.1365 295.4837 -9153.2790 -7400.4784 299.0953 -133.9706 -74.6285 30225.8304 -93.3430 -24.4744
ENERGY: 900000 4.8624 17.4686 12.2902 0.0000 -10601.1556 1433.8104 0.0000 0.0000 1715.8634 -7416.8606 293.8944 -9132.7240 -7389.4988 300.6079 -62.3210 43.6554 30226.7904 -33.1470 26.7631
ENERGY: 1200000 5.8487 18.6217 7.1676 0.0000 -10714.3838 1502.0291 0.0000 0.0000 1720.6702 -7460.0466 294.7177 -9180.7167 -7394.7280 300.1736 461.8278 569.3062 30121.8543 92.1461 154.7149
ENERGY: 1500000 3.4855 17.6683 6.7687 0.0000 -10495.1121 1404.7045 0.0000 0.0000 1837.8828 -7224.6022 314.7940 -9062.4850 -7383.8399 301.0348 214.9383 292.1051 30421.3585 8.3399 70.1007
TCL: Running FEP window  18: Lambda1 0.8500000000000002 Lambda2 0.9000000000000002 [dLambda 0.050000000000000044]
TCL: Setting parameter firsttimestep to 0
TCL: Setting parameter alchLambda to 0.8500000000000002
Info: NONBONDED TABLE R-SQUARED SPACING: 0.0625
Info: NONBONDED TABLE SIZE: 705 POINTS
TCL: Setting parameter alchLambda2 to 0.9000000000000002
Info: NONBONDED TABLE R-SQUARED SPACING: 0.0625
Info: NONBONDED TABLE SIZE: 705 POINTS
TCL: Running for 1500000 steps
ETITLE: TS BOND ANGLE DIHED IMPRP ELECT VDW BOUNDARY MISC KINETIC TOTAL TEMP POTENTIAL TOTALAVG TEMPAVG PRESSURE GPRESSURE VOLUME PRESSAVG GPRESSAVG
ENERGY: 0 3.4855 17.6683 6.7687 0.0000 -10495.5866 1405.6391 0.0000 0.0000 1837.0365 -7224.9885 314.6490 -9062.0249 -7224.9885 314.6490 226.0193 315.1100 30421.3585 226.0193 315.1100
ENERGY: 300000 4.7574 24.2806 4.7120 0.0000 -10630.1093 1477.3241 0.0000 0.0000 1716.3590 -7402.6762 293.9793 -9119.0352 -7383.5735 301.9547 520.9092 611.4611 30094.4783 392.4890 459.6055
ENERGY: 600000 6.6244 19.8667 7.0623 0.0000 -10568.3888 1407.0783 0.0000 0.0000 1764.1968 -7363.5604 302.1730 -9127.7572 -7382.8461 301.4326 -140.7274 -37.2188 30099.4144 130.8379 217.3036
ENERGY: 900000 4.9226 20.2021 8.0288 0.0000 -10630.3253 1461.9129 0.0000 0.0000 1782.8844 -7352.3746 305.3738 -9135.2590 -7386.7889 301.6385 412.6717 466.7725 30028.7545 188.5385 259.2750
ENERGY: 1200000 4.0797 20.5587 9.5996 0.0000 -10755.2883 1485.7701 0.0000 0.0000 1790.0890 -7445.1912 306.6078 -9235.2802 -7385.6943 301.9365 515.9118 600.5417 29735.2841 205.3107 271.6426
ENERGY: 1500000 6.1794 19.1860 11.4211 0.0000 -10636.3352 1450.7279 0.0000 0.0000 1729.4346 -7419.3861 296.2189 -9148.8207 -7392.4922 300.8379 -169.4461 -88.3208 30417.0007 207.6487 273.8919
TCL: Running FEP window  19: Lambda1 0.9000000000000002 Lambda2 0.9500000000000003 [dLambda 0.050000000000000044]
TCL: Setting parameter firsttimestep to 0
TCL: Setting parameter alchLambda to 0.9000000000000002
Info: NONBONDED TABLE R-SQUARED SPACING: 0.0625
Info: NONBONDED TABLE SIZE: 705 POINTS
TCL: Setting parameter alchLambda2 to 0.9500000000000003
Info: NONBONDED TABLE R-SQUARED SPACING: 0.0625
Info: NONBONDED TABLE SIZE: 705 POINTS
TCL: Running for 1500000 steps
ETITLE: TS BOND ANGLE DIHED IMPRP ELECT VDW BOUNDARY MISC KINETIC TOTAL TEMP POTENTIAL TOTALAVG TEMPAVG PRESSURE GPRESSURE VOLUME PRESSAVG GPRESSAVG
ENERGY: 0 6.1794 19.1860 11.4211 0.0000 -10637.2620 1451.3308 0.0000 0.0000 1728.5811 -7420.5635 296.0727 -9149.1447 -7420.5635 296.0727 -136.4021 -67.2255 30417.0007 -136.4021 -67.2255
ENERGY: 300000 5.4232 21.6319 5.5311 0.0000 -10620.5761 1441.9728 0.0000 0.0000 1761.2770 -7384.7402 301.6729 -9146.0172 -7372.2843 301.2464 93.1345 104.3785 30157.4803 -15.0053 33.1312
ENERGY: 600000 9.5664 18.2021 8.0778 0.0000 -10645.4635 1427.6570 0.0000 0.0000 1749.5676 -7432.3925 299.6673 -9181.9601 -7398.3191 300.3313 -224.4600 -198.0836 30593.7633 -132.1612 -77.0346
ENERGY: 900000 7.0332 20.2951 6.3627 0.0000 -10791.3228 1506.8979 0.0000 0.0000 1791.4927 -7459.2412 306.8482 -9250.7339 -7402.5918 301.3882 683.2809 713.6970 29908.0688 -75.3526 -24.7593
ENERGY: 1200000 3.3378 21.1685 6.6987 0.0000 -10482.4964 1376.1688 0.0000 0.0000 1760.8629 -7314.2596 301.6019 -9075.1225 -7409.3041 300.9764 -244.6888 -218.0860 30376.0996 -111.9032 -63.3543
ENERGY: 1500000 4.1719 20.7643 6.8732 0.0000 -10548.4464 1395.7372 0.0000 0.0000 1744.1314 -7376.7683 298.7362 -9120.8997 -7398.5025 301.0540 -269.1106 -167.7622 30286.6479 -98.0200 -49.5123
TCL: Running FEP window  20: Lambda1 0.9500000000000003 Lambda2 1.0    [dLambda 0.04999999999999971]
TCL: Setting parameter firsttimestep to 0
TCL: Setting parameter alchLambda to 0.9500000000000003
Info: NONBONDED TABLE R-SQUARED SPACING: 0.0625
Info: NONBONDED TABLE SIZE: 705 POINTS
TCL: Setting parameter alchLambda2 to 1.0
Info: NONBONDED TABLE R-SQUARED SPACING: 0.0625
Info: NONBONDED TABLE SIZE: 705 POINTS
TCL: Running for 1500000 steps
ETITLE: TS BOND ANGLE DIHED IMPRP ELECT VDW BOUNDARY MISC KINETIC TOTAL TEMP POTENTIAL TOTALAVG TEMPAVG PRESSURE GPRESSURE VOLUME PRESSAVG GPRESSAVG
ENERGY: 0 4.1719 20.7643 6.8732 0.0000 -10549.1931 1395.3571 0.0000 0.0000 1743.2801 -7378.7463 298.5904 -9122.0265 -7378.7463 298.5904 -235.4127 -160.8162 30286.6479 -235.4127 -160.8162
ENERGY: 300000 6.4673 18.0844 7.9675 0.0000 -10531.3576 1439.0465 0.0000 0.0000 1791.9429 -7267.8489 306.9254 -9059.7918 -7362.0887 300.2081 436.3607 439.8492 30343.2402 145.9392 181.0482
ENERGY: 600000 3.8656 23.0449 4.6441 0.0000 -10687.0766 1477.2715 0.0000 0.0000 1763.4125 -7414.8380 302.0386 -9178.2505 -7380.0617 301.6144 380.5921 422.4908 30165.8377 188.4329 223.8482
ENERGY: 900000 5.6990 20.8369 7.6405 0.0000 -10534.7526 1356.0739 0.0000 0.0000 1768.1241 -7376.3783 302.8457 -9144.5024 -7392.5992 301.2753 -515.3931 -507.9307 30128.2477 0.1063 28.7380
ENERGY: 1200000 3.6909 19.8078 9.2126 0.0000 -10559.4446 1406.5930 0.0000 0.0000 1719.6721 -7400.4683 294.5468 -9120.1404 -7400.0817 300.0191 -199.9354 -119.9819 30401.4550 25.6508 63.6445
ENERGY: 1500000 7.0050 26.3974 8.0427 0.0000 -10623.3944 1482.5783 0.0000 0.0000 1797.4555 -7301.9155 307.8696 -9099.3710 -7394.2413 300.5765 499.9067 580.6142 30328.6646 48.4438 102.8564
TCL: Exiting due to exit command.
