Info: SIMULATION PARAMETERS:
Info: TIMESTEP               2
Info: NUMBER OF STEPS        0
Info: STEPS PER CYCLE        10
Info: PERIODIC CELL BASIS 1  31.1356 0 0
Info: PERIODIC CELL BASIS 2  0 30.4895 0
Info: PERIODIC CELL BASIS 3  0 0 32.2152
Info: PERIODIC CELL CENTER   0 0 0
Info: WRAPPING WATERS AROUND PERIODIC BOUNDARIES ON OUTPUT.
Info: WRAPPING ALL CLUSTERS AROUND PERIODIC BOUNDARIES ON OUTPUT.
Info: FIRST LDB TIMESTEP     50
Info: LAST LDB TIMESTEP     -1
Info: HOM BACKGROUND SCALING 1
Info: PME BACKGROUND SCALING 1
Info: MIN ATOMS PER PATCH    40
Info: EMPTY PATCH LOAD       40 ATOMS
Info: VELOCITY FILE          mobley_4291494_equil.vel
Info: CENTER OF MASS MOVING INITIALLY? NO
Info: DIELECTRIC             1
Info: EXCLUDE                SCALED ONE-FOUR
Info: 1-4 ELECTROSTATICS SCALED BY 0.833333
Info: MODIFIED 1-4 VDW PARAMETERS WILL BE USED
Info: DCD FILENAME           mobley_4291494_prod.dcd
Info: DCD FREQUENCY          100000
Info: DCD FIRST STEP         100000
Info: DCD FILE WILL CONTAIN UNIT CELL DATA
Info: XST FILENAME           mobley_4291494_prod.xst
Info: XST FREQUENCY          100000
Info: NO VELOCITY DCD OUTPUT
Info: NO FORCE DCD OUTPUT
Info: OUTPUT FILENAME        mobley_4291494_prod
Info: BINARY OUTPUT FILES WILL BE USED
Info: RESTART FILENAME       mobley_4291494_prod.restart
Info: RESTART FREQUENCY      100000
Info: BINARY RESTART FILES WILL BE USED
Info: CUTOFF                 9
Info: PAIRLIST DISTANCE      11
Info: PAIRLIST SHRINK RATE   0.01
Info: PAIRLIST GROW RATE     0.01
Info: PAIRLIST TRIGGER       0.3
Info: PAIRLISTS PER CYCLE    2
Info: PAIRLISTS ENABLED
Info: MARGIN                 2
Info: HYDROGEN GROUP CUTOFF  2.5
Info: PATCH DIMENSION        15.5
Info: ENERGY OUTPUT STEPS    100000
Info: ENERGY EVALUATION STEPS    100000
Info: OUTPUT ENERGY PRECISION 4
Info: CROSSTERM ENERGY INCLUDED IN DIHEDRAL
Info: TIMING OUTPUT STEPS    1000000
Info: PRESSURE OUTPUT STEPS  100000
Info: ALCHEMICAL FEP ON
Info: FEP CURRENT LAMBDA VALUE     0
Info: FEP COMPARISON LAMBDA VALUE  0.05
Info: FEP INTRA-ALCHEMICAL NON-BONDED INTERACTIONS WILL BE RETAINED
Info: FEP INTRA-ALCHEMICAL BONDED INTERACTIONS WILL BE RETAINED
Info: FEP VDW SHIFTING COEFFICIENT 5
Info: FEP ELEC. ACTIVE FOR ANNIHILATED PARTICLES BETWEEN LAMBDA = 0 AND LAMBDA = 0.5
Info: FEP ELEC. ACTIVE FOR EXNIHILATED PARTICLES BETWEEN LAMBDA = 0.5 AND LAMBDA = 1
Info: FEP VDW ACTIVE FOR ANNIHILATED PARTICLES BETWEEN LAMBDA = 0 AND LAMBDA = 1
Info: FEP VDW ACTIVE FOR EXNIHILATED PARTICLES BETWEEN LAMBDA = 0 AND LAMBDA = 1
Info: FEP BOND ACTIVE FOR ANNIHILATED PARTICLES BETWEEN LAMBDA = 1 AND LAMBDA = 1
Info: FEP BOND ACTIVE FOR EXNIHILATED PARTICLES BETWEEN LAMBDA = 0 AND LAMBDA = 0
Info: LANGEVIN DYNAMICS ACTIVE
Info: LANGEVIN TEMPERATURE   300
Info: LANGEVIN USING BBK INTEGRATOR
Info: LANGEVIN DAMPING COEFFICIENT IS 1 INVERSE PS
Info: LANGEVIN DYNAMICS APPLIED TO HYDROGENS
Info: LANGEVIN PISTON PRESSURE CONTROL ACTIVE
Info:        TARGET PRESSURE IS 1.01325 BAR
Info:     OSCILLATION PERIOD IS 50 FS
Info:             DECAY TIME IS 25 FS
Info:     PISTON TEMPERATURE IS 300 K
Info:       PRESSURE CONTROL IS GROUP-BASED
Info:    INITIAL STRAIN RATE IS -0.000415968 -0.000415968 -0.000415968
Info:       CELL FLUCTUATION IS ISOTROPIC
Info: PARTICLE MESH EWALD (PME) ACTIVE
Info: PME TOLERANCE               1e-06
Info: PME EWALD COEFFICIENT       0.348832
Info: PME INTERPOLATION ORDER     4
Info: PME GRID DIMENSIONS         32 32 36
Info: PME MAXIMUM GRID SPACING    1
Info: PME CALCULATION WILL BE PERFORMED ON GPU
Info: FULL ELECTROSTATIC EVALUATION FREQUENCY      2
Info: USING VERLET I (r-RESPA) MTS SCHEME.
Info: C1 SPLITTING OF LONG RANGE ELECTROSTATICS
Info: PLACING ATOMS IN PATCHES BY HYDROGEN GROUPS
Info: RIGID BONDS TO HYDROGEN : ALL
Info:         ERROR TOLERANCE : 1e-08
Info:          MAX ITERATIONS : 100
Info: RIGID WATER USING SETTLE ALGORITHM
Info: RANDOM NUMBER SEED     1743514920
Info: USE HYDROGEN BONDS?    NO
Info: Using AMBER format force field!
Info: AMBER PARM FILE        mobley_4291494.prmtop
Info: COORDINATE PDB         mobley_4291494.pdb
Info: Exclusions will be read from PARM file!
Info: SCNB (VDW SCALING)     2
Info: USING ARITHMETIC MEAN TO COMBINE L-J SIGMA PARAMETERS
Info: BINARY COORDINATES     mobley_4291494_equil.coor
Info: SUMMARY OF PARAMETERS:
Info: 7 BONDS
Info: 8 ANGLES
Info:   8 HARMONIC
Info:   0 COSINE-BASED
Info: 3 DIHEDRAL
Info: 0 IMPROPER
Info: 0 CROSSTERM
Info: 0 VDW
Info: 28 VDW_PAIRS
Info: 0 NBTHOLE_PAIRS
Info: To read alchdata from file: mobley_4291494.pdb
Info: To read alchflag data from column: 5
Info: STRUCTURE SUMMARY:
Info: 2960 ATOMS
Info: 2960 BONDS
Info: 16 ANGLES
Info: 25 DIHEDRALS
Info: 0 IMPROPERS
Info: 0 CROSSTERMS
Info: 2993 EXCLUSIONS
Info: 2953 RIGID BONDS
Info: ALCH: 0 ATOMS TO DISAPPEAR IN FINAL STATE
Info: ALCH: 11 ATOMS TO APPEAR IN FINAL STATE
Info: 5927 DEGREES OF FREEDOM
Info: 990 HYDROGEN GROUPS
Info: 3 ATOMS IN LARGEST HYDROGEN GROUP
Info: 990 MIGRATION GROUPS
Info: 3 ATOMS IN LARGEST MIGRATION GROUP
Info: TOTAL MASS = 17823.3 amu
Info: TOTAL CHARGE = 9.99942e-05 e
Info: MASS DENSITY = 0.967782 g/cm^3
Info: ATOM DENSITY = 0.0967883 atoms/A^3
Info: ADDED 0 IMPLICIT EXCLUSIONS
Info: NONBONDED TABLE R-SQUARED SPACING: 0.0625
Info: NONBONDED TABLE SIZE: 705 POINTS
Info: REMOVING COM VELOCITY -0.00610557 0.00451697 -0.11845
Info: Use 3D box decompostion in PME FFT.
Info: Updated CUDA force table with 4096 elements.
Info: Updated CUDA LJ table with 7 x 7 elements.
Info: Found 13 unique exclusion lists needing 24 bytes
TCL: Running for 1500000 steps
ETITLE: TS BOND ANGLE DIHED IMPRP ELECT VDW BOUNDARY MISC KINETIC TOTAL TEMP POTENTIAL TOTALAVG TEMPAVG PRESSURE GPRESSURE VOLUME PRESSAVG GPRESSAVG
ENERGY: 0 2.7232 2.6224 0.8268 0.0000 -10733.1578 1460.2466 0.0000 0.0000 1809.8108 -7456.9279 307.3185 -9266.7388 -7456.9279 307.3185 17.1760 94.3885 30582.2230 17.1760 94.3885
ENERGY: 300000 1.7607 2.2871 1.3777 0.0000 -10831.2031 1436.9327 0.0000 0.0000 1800.8713 -7587.9735 305.8005 -9388.8448 -7533.9630 304.1473 -578.4115 -447.2580 30689.0307 74.8826 125.3246
ENERGY: 600000 1.3397 3.2947 1.3690 0.0000 -10952.0631 1563.9590 0.0000 0.0000 1741.8232 -7640.2777 295.7737 -9382.1008 -7544.9272 302.0623 828.0797 924.5514 30021.7817 48.0522 117.4606
ENERGY: 900000 2.0707 1.7700 2.5455 0.0000 -10770.3739 1410.3933 0.0000 0.0000 1785.5318 -7568.0625 303.1957 -9353.5943 -7553.3397 301.0282 -332.6828 -290.7059 30271.2493 -144.8432 -81.3298
ENERGY: 1200000 2.1403 3.1865 0.5453 0.0000 -10800.2922 1448.1259 0.0000 0.0000 1743.9913 -7602.3029 296.1418 -9346.2942 -7551.3636 301.2346 362.9332 432.7411 29666.8383 -142.6690 -74.3411
ENERGY: 1500000 0.8280 1.6288 1.9397 0.0000 -10703.6911 1427.5835 0.0000 0.0000 1761.5264 -7510.1847 299.1194 -9271.7111 -7553.0865 300.6564 64.3230 154.3405 30188.8425 -130.0894 -68.1917
TCL: Running FEP window   2: Lambda1 0.05   Lambda2 0.1    [dLambda 0.05  ]
TCL: Setting parameter firsttimestep to 0
TCL: Setting parameter alchLambda to 0.05
Info: NONBONDED TABLE R-SQUARED SPACING: 0.0625
Info: NONBONDED TABLE SIZE: 705 POINTS
TCL: Setting parameter alchLambda2 to 0.1
Info: NONBONDED TABLE R-SQUARED SPACING: 0.0625
Info: NONBONDED TABLE SIZE: 705 POINTS
TCL: Running for 1500000 steps
ETITLE: TS BOND ANGLE DIHED IMPRP ELECT VDW BOUNDARY MISC KINETIC TOTAL TEMP POTENTIAL TOTALAVG TEMPAVG PRESSURE GPRESSURE VOLUME PRESSAVG GPRESSAVG
ENERGY: 0 0.8280 1.6288 1.9397 0.0000 -10703.6923 1430.9716 0.0000 0.0000 1760.6393 -7507.6850 298.9688 -9268.3243 -7507.6850 298.9688 74.3175 159.5650 30188.8425 74.3175 159.5650
ENERGY: 300000 3.1660 2.1245 5.0967 0.0000 -10716.8697 1423.8963 0.0000 0.0000 1787.6052 -7494.9810 303.5478 -9282.5863 -7561.1530 298.3950 -196.3217 -185.4053 30418.7031 -19.9877 56.0894
ENERGY: 600000 1.1246 1.7863 3.6109 0.0000 -10921.8411 1543.3161 0.0000 0.0000 1856.2507 -7515.7526 315.2043 -9372.0033 -7542.1171 300.9365 837.2516 861.8110 29901.8627 81.5531 141.5382
ENERGY: 900000 2.5467 2.7683 3.1644 0.0000 -10712.4377 1388.9179 0.0000 0.0000 1747.3895 -7567.6508 296.7189 -9315.0403 -7557.5239 299.2095 -620.0162 -590.3011 30211.3997 60.9377 121.3536
ENERGY: 1200000 2.4691 2.0613 2.7548 0.0000 -10776.4602 1431.3050 0.0000 0.0000 1718.4834 -7619.3867 291.8104 -9337.8700 -7566.7010 299.0514 -87.2635 -63.0034 30163.7655 33.1732 82.4774
ENERGY: 1500000 4.8377 4.9525 2.3331 0.0000 -10718.7847 1435.6212 0.0000 0.0000 1769.7198 -7501.3204 300.5107 -9271.0402 -7561.9336 298.5115 -299.9770 -238.8627 30548.6900 -51.0438 3.1716
TCL: Running FEP window   3: Lambda1 0.1    Lambda2 0.15000000000000002 [dLambda 0.05000000000000002]
TCL: Setting parameter firsttimestep to 0
TCL: Setting parameter alchLambda to 0.1
Info: NONBONDED TABLE R-SQUARED SPACING: 0.0625
Info: NONBONDED TABLE SIZE: 705 POINTS
TCL: Setting parameter alchLambda2 to 0.15000000000000002
Info: NONBONDED TABLE R-SQUARED SPACING: 0.0625
Info: NONBONDED TABLE SIZE: 705 POINTS
TCL: Running for 1500000 steps
ETITLE: TS BOND ANGLE DIHED IMPRP ELECT VDW BOUNDARY MISC KINETIC TOTAL TEMP POTENTIAL TOTALAVG TEMPAVG PRESSURE GPRESSURE VOLUME PRESSAVG GPRESSAVG
ENERGY: 0 4.8377 4.9525 2.3331 0.0000 -10718.7861 1437.7423 0.0000 0.0000 1768.8266 -7500.0939 300.3591 -9268.9206 -7500.0939 300.3591 -316.3134 -230.8424 30548.6900 -316.3134 -230.8424
ENERGY: 300000 1.3902 1.0544 1.5048 0.0000 -10808.3960 1520.8016 0.0000 0.0000 1800.7219 -7482.9231 305.7751 -9283.6450 -7502.6864 303.0096 487.2687 536.6967 30621.4483 -355.1164 -291.0123
ENERGY: 600000 2.9768 2.7583 4.0023 0.0000 -10897.0400 1503.8868 0.0000 0.0000 1728.0494 -7655.3665 293.4348 -9383.4159 -7539.2991 300.7108 163.4867 229.4085 30244.4736 -390.2247 -324.0488
ENERGY: 900000 2.1266 2.1628 3.5442 0.0000 -10712.7816 1424.1188 0.0000 0.0000 1777.0707 -7503.7585 301.7590 -9280.8292 -7535.7442 300.5344 -35.0565 19.3581 30038.8207 -299.0334 -236.2847
ENERGY: 1200000 1.2790 4.4278 1.1825 0.0000 -10731.2719 1394.5429 0.0000 0.0000 1755.5478 -7574.2918 298.1042 -9329.8396 -7528.6436 301.0606 -502.8635 -470.6197 30478.1892 -351.6757 -292.5720
ENERGY: 1500000 2.9524 3.6127 0.8451 0.0000 -10896.3983 1527.4365 0.0000 0.0000 1791.3519 -7570.1997 304.1840 -9361.5517 -7534.6480 301.7628 525.6641 518.8415 30377.8399 -193.2516 -138.5906
TCL: Running FEP window   4: Lambda1 0.15000000000000002 Lambda2 0.2    [dLambda 0.04999999999999999]
TCL: Setting parameter firsttimestep to 0
TCL: Setting parameter alchLambda to 0.15000000000000002
Info: NONBONDED TABLE R-SQUARED SPACING: 0.0625
Info: NONBONDED TABLE SIZE: 705 POINTS
TCL: Setting parameter alchLambda2 to 0.2
Info: NONBONDED TABLE R-SQUARED SPACING: 0.0625
Info: NONBONDED TABLE SIZE: 705 POINTS
TCL: Running for 1500000 steps
ETITLE: TS BOND ANGLE DIHED IMPRP ELECT VDW BOUNDARY MISC KINETIC TOTAL TEMP POTENTIAL TOTALAVG TEMPAVG PRESSURE GPRESSURE VOLUME PRESSAVG GPRESSAVG
ENERGY: 0 2.9524 3.6127 0.8450 0.0000 -10896.3981 1527.5793 0.0000 0.0000 1790.4822 -7570.9264 304.0363 -9361.4086 -7570.9264 304.0363 436.6646 522.2598 30377.8399 436.6646 522.2598
ENERGY: 300000 5.8969 1.4880 2.4190 0.0000 -10736.6158 1404.6758 0.0000 0.0000 1797.4662 -7524.6699 305.2222 -9322.1361 -7584.5877 301.3911 -607.7066 -584.5368 30466.8439 61.3660 113.1150
ENERGY: 600000 2.5742 1.9464 3.2129 0.0000 -10662.2566 1399.0120 0.0000 0.0000 1788.2056 -7467.3056 303.6497 -9255.5112 -7561.8075 300.1827 -482.6548 -436.0528 30663.7412 -115.2339 -61.0496
ENERGY: 900000 4.6391 1.4640 1.1510 0.0000 -10750.0955 1421.3036 0.0000 0.0000 1749.0768 -7572.4609 297.0054 -9321.5377 -7549.3486 299.5007 -399.0121 -291.9203 30657.3256 -178.8667 -117.9638
ENERGY: 1200000 3.1178 4.7975 1.1982 0.0000 -10751.6986 1422.5767 0.0000 0.0000 1694.3302 -7625.6781 287.7090 -9320.0083 -7557.6118 298.6966 -501.5122 -459.0449 30584.3127 -188.2516 -137.7741
ENERGY: 1500000 1.4513 2.1134 3.9051 0.0000 -10848.0582 1501.2547 0.0000 0.0000 1739.5313 -7599.8024 295.3845 -9339.3337 -7551.8442 298.5195 338.6289 396.6368 30142.7911 -90.0281 -30.5666
TCL: Running FEP window   5: Lambda1 0.2    Lambda2 0.25   [dLambda 0.04999999999999999]
TCL: Setting parameter firsttimestep to 0
TCL: Setting parameter alchLambda to 0.2
Info: NONBONDED TABLE R-SQUARED SPACING: 0.0625
Info: NONBONDED TABLE SIZE: 705 POINTS
TCL: Setting parameter alchLambda2 to 0.25
Info: NONBONDED TABLE R-SQUARED SPACING: 0.0625
Info: NONBONDED TABLE SIZE: 705 POINTS
TCL: Running for 1500000 steps
ETITLE: TS BOND ANGLE DIHED IMPRP ELECT VDW BOUNDARY MISC KINETIC TOTAL TEMP POTENTIAL TOTALAVG TEMPAVG PRESSURE GPRESSURE VOLUME PRESSAVG GPRESSAVG
ENERGY: 0 1.4513 2.1134 3.9051 0.0000 -10848.0571 1501.6816 0.0000 0.0000 1738.6972 -7600.2084 295.2429 -9338.9056 -7600.2084 295.2429 328.5350 401.8373 30142.7911 328.5350 401.8373
ENERGY: 300000 1.0571 1.3550 2.5593 0.0000 -10744.3386 1463.5029 0.0000 0.0000 1797.1659 -7478.6984 305.1713 -9275.8643 -7551.4310 300.5669 162.6502 304.2320 30454.1381 142.8114 239.7833
ENERGY: 600000 0.3138 2.5088 2.8163 0.0000 -10768.4049 1427.7195 0.0000 0.0000 1791.2116 -7543.8349 304.1602 -9335.0465 -7537.5034 302.2784 30.2146 8.1757 29985.4359 -26.0891 52.6685
ENERGY: 900000 3.2225 5.1289 1.5181 0.0000 -10898.1582 1524.6370 0.0000 0.0000 1765.1879 -7598.4637 299.7412 -9363.6516 -7550.6725 301.3150 282.9369 383.4700 30256.3814 35.4533 127.9362
ENERGY: 1200000 2.0982 2.8136 3.0683 0.0000 -10681.1966 1388.5441 0.0000 0.0000 1772.8846 -7511.7879 301.0481 -9284.6725 -7544.3407 301.4903 -510.4849 -467.4981 30822.4931 -91.1722 -3.3510
ENERGY: 1500000 1.6101 1.9268 3.1578 0.0000 -10652.5495 1418.6533 0.0000 0.0000 1757.6365 -7469.5650 298.4589 -9227.2015 -7534.2621 302.0312 -234.0804 -169.5118 30848.1724 -71.3374 14.6609
TCL: Running FEP window   6: Lambda1 0.25   Lambda2 0.3    [dLambda 0.04999999999999999]
TCL: Setting parameter firsttimestep to 0
TCL: Setting parameter alchLambda to 0.25
Info: NONBONDED TABLE R-SQUARED SPACING: 0.0625
Info: NONBONDED TABLE SIZE: 705 POINTS
TCL: Setting parameter alchLambda2 to 0.3
Info: NONBONDED TABLE R-SQUARED SPACING: 0.0625
Info: NONBONDED TABLE SIZE: 705 POINTS
TCL: Running for 1500000 steps
ETITLE: TS BOND ANGLE DIHED IMPRP ELECT VDW BOUNDARY MISC KINETIC TOTAL TEMP POTENTIAL TOTALAVG TEMPAVG PRESSURE GPRESSURE VOLUME PRESSAVG GPRESSAVG
ENERGY: 0 1.6101 1.9268 3.1578 0.0000 -10652.5497 1418.9265 0.0000 0.0000 1756.7821 -7470.1465 298.3138 -9226.9285 -7470.1465 298.3138 -249.0612 -165.7476 30848.1724 -249.0612 -165.7476
ENERGY: 300000 2.0039 2.5515 3.5387 0.0000 -10806.4926 1486.8988 0.0000 0.0000 1806.1976 -7505.3020 306.7049 -9311.4996 -7534.7975 301.2531 319.6736 407.9921 30393.3040 -566.0472 -484.0378
ENERGY: 600000 1.4671 3.2744 1.1854 0.0000 -10726.7884 1349.1613 0.0000 0.0000 1823.9243 -7547.7758 309.7150 -9371.7002 -7545.5008 301.5723 -732.3211 -687.2790 30274.1339 -345.5142 -270.7000
ENERGY: 900000 6.7740 3.4888 2.8967 0.0000 -10691.3019 1413.0375 0.0000 0.0000 1752.9330 -7512.1719 297.6602 -9265.1049 -7540.8755 300.9415 -480.9306 -494.3823 30976.7530 -330.1733 -261.1010
ENERGY: 1200000 1.3212 2.5096 0.9349 0.0000 -10647.4518 1420.5034 0.0000 0.0000 1747.2850 -7474.8978 296.7011 -9222.1827 -7531.1869 301.0553 -143.0559 -60.4241 30841.2934 -284.1918 -217.6633
ENERGY: 1500000 1.1933 1.8945 4.2820 0.0000 -10843.7087 1465.5092 0.0000 0.0000 1763.8374 -7606.9924 299.5118 -9370.8297 -7541.6360 300.8421 -2.8033 49.1020 30105.3345 -243.9097 -178.8912
TCL: Running FEP window   7: Lambda1 0.3    Lambda2 0.35   [dLambda 0.04999999999999999]
TCL: Setting parameter firsttimestep to 0
TCL: Setting parameter alchLambda to 0.3
Info: NONBONDED TABLE R-SQUARED SPACING: 0.0625
Info: NONBONDED TABLE SIZE: 705 POINTS
TCL: Setting parameter alchLambda2 to 0.35
Info: NONBONDED TABLE R-SQUARED SPACING: 0.0625
Info: NONBONDED TABLE SIZE: 705 POINTS
TCL: Running for 1500000 steps
ETITLE: TS BOND ANGLE DIHED IMPRP ELECT VDW BOUNDARY MISC KINETIC TOTAL TEMP POTENTIAL TOTALAVG TEMPAVG PRESSURE GPRESSURE VOLUME PRESSAVG GPRESSAVG
ENERGY: 0 1.1933 1.8945 4.2820 0.0000 -10843.7097 1466.8803 0.0000 0.0000 1762.9704 -7606.4892 299.3646 -9369.4596 -7606.4892 299.3646 -9.8320 60.3478 30105.3345 -9.8320 60.3478
ENERGY: 300000 4.6556 1.7831 1.3520 0.0000 -10831.8843 1463.5539 0.0000 0.0000 1790.8092 -7569.7305 304.0918 -9360.5396 -7567.9553 300.6082 17.0022 66.9129 30376.1723 126.6245 199.9008
ENERGY: 600000 1.5561 3.5373 3.0213 0.0000 -10663.9575 1393.6561 0.0000 0.0000 1793.2533 -7468.9334 304.5069 -9262.1868 -7533.6103 301.6329 -485.9423 -388.4434 30714.8964 -82.5556 3.3408
ENERGY: 900000 5.0600 2.7853 3.2012 0.0000 -10633.2574 1358.8018 0.0000 0.0000 1743.0658 -7520.3434 295.9847 -9263.4092 -7523.1503 302.7960 -482.9973 -429.8671 30210.9628 60.3090 132.1903
ENERGY: 1200000 2.5686 3.1286 4.3223 0.0000 -10805.5381 1464.1823 0.0000 0.0000 1727.0154 -7604.3209 293.2592 -9331.3363 -7532.1619 301.4495 -79.0045 -56.8405 30139.0734 -46.3987 19.5723
ENERGY: 1500000 1.2505 2.9985 1.8569 0.0000 -10753.5690 1406.0484 0.0000 0.0000 1762.6970 -7578.7177 299.3182 -9341.4147 -7536.4914 300.7837 -593.5330 -594.7387 30590.0840 -132.3202 -70.0045
TCL: Running FEP window   8: Lambda1 0.35   Lambda2 0.39999999999999997 [dLambda 0.04999999999999999]
TCL: Setting parameter firsttimestep to 0
TCL: Setting parameter alchLambda to 0.35
Info: NONBONDED TABLE R-SQUARED SPACING: 0.0625
Info: NONBONDED TABLE SIZE: 705 POINTS
TCL: Setting parameter alchLambda2 to 0.39999999999999997
Info: NONBONDED TABLE R-SQUARED SPACING: 0.0625
Info: NONBONDED TABLE SIZE: 705 POINTS
TCL: Running for 1500000 steps
ETITLE: TS BOND ANGLE DIHED IMPRP ELECT VDW BOUNDARY MISC KINETIC TOTAL TEMP POTENTIAL TOTALAVG TEMPAVG PRESSURE GPRESSURE VOLUME PRESSAVG GPRESSAVG
ENERGY: 0 1.2505 2.9985 1.8569 0.0000 -10753.5678 1406.1348 0.0000 0.0000 1761.8466 -7579.4806 299.1738 -9341.3272 -7579.4806 299.1738 -673.8043 -588.7587 30590.0840 -673.8043 -588.7587
ENERGY: 300000 1.6604 2.5902 5.1556 0.0000 -10727.2845 1402.8570 0.0000 0.0000 1771.0517 -7543.9697 300.7369 -9315.0214 -7557.5210 298.4880 -391.8710 -304.1828 30444.2663 -335.0011 -255.0689
ENERGY: 600000 1.8787 1.4917 2.2695 0.0000 -10740.2569 1445.2375 0.0000 0.0000 1795.5517 -7493.8278 304.8972 -9289.3795 -7529.9989 300.8855 -148.4968 -42.6398 30583.0480 -329.8783 -254.9231
ENERGY: 900000 3.0160 2.6602 2.0099 0.0000 -10652.0840 1412.6357 0.0000 0.0000 1727.2412 -7504.5209 293.2976 -9231.7622 -7519.8614 300.0845 -230.4985 -198.5685 30601.7158 -286.6831 -211.5838
ENERGY: 1200000 2.1394 4.3972 4.1852 0.0000 -10711.1950 1371.2035 0.0000 0.0000 1807.6819 -7521.5878 306.9569 -9329.2696 -7507.4212 301.6340 -774.3299 -679.0290 30432.2010 -240.5610 -154.4965
ENERGY: 1500000 1.3791 4.4865 4.9431 0.0000 -10706.8884 1423.2126 0.0000 0.0000 1789.3904 -7483.4768 303.8509 -9272.8672 -7503.4245 302.7473 -180.6230 -90.9523 30543.0977 -262.8025 -181.5586
TCL: Running FEP window   9: Lambda1 0.39999999999999997 Lambda2 0.44999999999999996 [dLambda 0.04999999999999999]
TCL: Setting parameter firsttimestep to 0
TCL: Setting parameter alchLambda to 0.39999999999999997
Info: NONBONDED TABLE R-SQUARED SPACING: 0.0625
Info: NONBONDED TABLE SIZE: 705 POINTS
TCL: Setting parameter alchLambda2 to 0.44999999999999996
Info: NONBONDED TABLE R-SQUARED SPACING: 0.0625
Info: NONBONDED TABLE SIZE: 705 POINTS
TCL: Running for 1500000 steps
ETITLE: TS BOND ANGLE DIHED IMPRP ELECT VDW BOUNDARY MISC KINETIC TOTAL TEMP POTENTIAL TOTALAVG TEMPAVG PRESSURE GPRESSURE VOLUME PRESSAVG GPRESSAVG
ENERGY: 0 1.3791 4.4865 4.9431 0.0000 -10706.8873 1422.9942 0.0000 0.0000 1788.5103 -7484.5740 303.7015 -9273.0843 -7484.5740 303.7015 -174.3853 -89.7912 30543.0977 -174.3853 -89.7912
ENERGY: 300000 1.1183 0.9089 1.1062 0.0000 -10818.8706 1446.6584 0.0000 0.0000 1769.3357 -7599.7431 300.4455 -9369.0788 -7564.5928 300.5341 67.6512 133.2594 29948.3037 -115.5859 -48.4590
ENERGY: 600000 1.1835 5.5314 2.7607 0.0000 -10640.5731 1405.2933 0.0000 0.0000 1784.9759 -7440.8284 303.1013 -9225.8043 -7536.2814 298.1772 -217.6194 -171.7525 30630.8557 -110.7892 -53.1480
ENERGY: 900000 1.7250 4.6416 3.6025 0.0000 -10795.6945 1506.3415 0.0000 0.0000 1738.1021 -7541.2817 295.1418 -9279.3839 -7542.4195 297.7913 341.9872 483.8323 30508.1144 -88.4619 -23.8866
ENERGY: 1200000 2.9804 2.3742 4.4886 0.0000 -10756.7212 1364.4675 0.0000 0.0000 1744.9223 -7637.4883 296.2999 -9382.4105 -7551.9638 298.8211 -650.6466 -659.6437 30165.6568 -126.3043 -65.1922
ENERGY: 1500000 0.8998 3.5451 3.4769 0.0000 -10677.9726 1357.8138 0.0000 0.0000 1801.4103 -7510.8267 305.8920 -9312.2370 -7539.4093 300.1192 -972.3803 -894.4684 30921.7370 -164.2827 -98.9829
TCL: Running FEP window  10: Lambda1 0.44999999999999996 Lambda2 0.49999999999999994 [dLambda 0.04999999999999999]
TCL: Setting parameter firsttimestep to 0
TCL: Setting parameter alchLambda to 0.44999999999999996
Info: NONBONDED TABLE R-SQUARED SPACING: 0.0625
Info: NONBONDED TABLE SIZE: 705 POINTS
TCL: Setting parameter alchLambda2 to 0.49999999999999994
Info: NONBONDED TABLE R-SQUARED SPACING: 0.0625
Info: NONBONDED TABLE SIZE: 705 POINTS
TCL: Running for 1500000 steps
ETITLE: TS BOND ANGLE DIHED IMPRP ELECT VDW BOUNDARY MISC KINETIC TOTAL TEMP POTENTIAL TOTALAVG TEMPAVG PRESSURE GPRESSURE VOLUME PRESSAVG GPRESSAVG
ENERGY: 0 0.8998 3.5451 3.4769 0.0000 -10677.9719 1357.4323 0.0000 0.0000 1800.4979 -7512.1200 305.7370 -9312.6178 -7512.1200 305.7370 -972.5974 -889.6575 30921.7370 -972.5974 -889.6575
ENERGY: 300000 3.9676 2.1587 2.0897 0.0000 -10890.1809 1514.0809 0.0000 0.0000 1739.7344 -7628.1496 295.4190 -9367.8840 -7538.7202 299.2344 470.1286 514.4978 30025.4321 -94.5815 -20.9190
ENERGY: 600000 4.8026 4.5657 2.4606 0.0000 -10617.8264 1350.6991 0.0000 0.0000 1759.1833 -7496.1150 298.7215 -9255.2983 -7531.6574 299.9585 -715.0621 -614.9665 30379.6807 4.9324 72.9621
ENERGY: 900000 1.5899 2.6068 2.0550 0.0000 -10912.4441 1532.5091 0.0000 0.0000 1754.4906 -7619.1926 297.9247 -9373.6832 -7543.7180 299.9732 267.7766 255.9780 30600.5966 -35.3071 29.5232
ENERGY: 1200000 0.8654 2.7717 3.2423 0.0000 -10787.4958 1477.4944 0.0000 0.0000 1756.4728 -7546.6491 298.2613 -9303.1219 -7540.8359 299.7917 -48.4630 9.3801 30832.8327 -47.8706 13.2438
ENERGY: 1500000 1.7698 3.2781 0.3584 0.0000 -10722.5883 1445.3595 0.0000 0.0000 1728.6978 -7543.1248 293.5449 -9271.8225 -7537.4404 299.0150 307.8439 396.4949 30033.3338 -49.7975 16.0170
TCL: Running FEP window  11: Lambda1 0.49999999999999994 Lambda2 0.5499999999999999 [dLambda 0.04999999999999999]
TCL: Setting parameter firsttimestep to 0
TCL: Setting parameter alchLambda to 0.49999999999999994
Info: NONBONDED TABLE R-SQUARED SPACING: 0.0625
Info: NONBONDED TABLE SIZE: 705 POINTS
TCL: Setting parameter alchLambda2 to 0.5499999999999999
Info: NONBONDED TABLE R-SQUARED SPACING: 0.0625
Info: NONBONDED TABLE SIZE: 705 POINTS
TCL: Running for 1500000 steps
ETITLE: TS BOND ANGLE DIHED IMPRP ELECT VDW BOUNDARY MISC KINETIC TOTAL TEMP POTENTIAL TOTALAVG TEMPAVG PRESSURE GPRESSURE VOLUME PRESSAVG GPRESSAVG
ENERGY: 0 1.7698 3.2781 0.3584 0.0000 -10722.5871 1445.0904 0.0000 0.0000 1727.8089 -7544.2815 293.3940 -9272.0905 -7544.2815 293.3940 316.2475 400.1884 30033.3338 316.2475 400.1884
ENERGY: 300000 1.6830 1.7606 3.9501 0.0000 -10720.8128 1402.1953 0.0000 0.0000 1792.9150 -7518.3087 304.4494 -9311.2237 -7543.6216 299.2006 -389.5702 -330.8396 30390.0925 66.7888 98.8646
ENERGY: 600000 0.5383 1.7387 2.0480 0.0000 -10729.5139 1422.9272 0.0000 0.0000 1718.7311 -7583.5306 291.8525 -9302.2617 -7550.0144 298.3991 -89.7987 -24.8205 30274.3587 26.5943 77.3584
ENERGY: 900000 2.6841 4.7059 3.4332 0.0000 -10737.1894 1401.0984 0.0000 0.0000 1848.8546 -7476.4132 313.9484 -9325.2678 -7544.4227 299.8313 -747.0083 -623.3507 30881.9861 -77.2836 -19.4789
ENERGY: 1200000 2.9190 2.1927 1.6031 0.0000 -10864.2625 1511.7484 0.0000 0.0000 1758.4278 -7587.3715 298.5933 -9345.7993 -7539.8958 298.8413 284.2731 368.4347 30405.2583 -47.4413 11.5674
ENERGY: 1500000 2.1858 1.4126 1.0987 0.0000 -10812.9666 1562.6574 0.0000 0.0000 1748.4141 -7497.1979 296.8929 -9245.6120 -7535.1942 298.9848 1003.8985 1080.1496 30565.2444 4.2097 61.3726
TCL: Running FEP window  12: Lambda1 0.5499999999999999 Lambda2 0.6    [dLambda 0.050000000000000044]
TCL: Setting parameter firsttimestep to 0
TCL: Setting parameter alchLambda to 0.5499999999999999
Info: NONBONDED TABLE R-SQUARED SPACING: 0.0625
Info: NONBONDED TABLE SIZE: 705 POINTS
TCL: Setting parameter alchLambda2 to 0.6
Info: NONBONDED TABLE R-SQUARED SPACING: 0.0625
Info: NONBONDED TABLE SIZE: 705 POINTS
TCL: Running for 1500000 steps
ETITLE: TS BOND ANGLE DIHED IMPRP ELECT VDW BOUNDARY MISC KINETIC TOTAL TEMP POTENTIAL TOTALAVG TEMPAVG PRESSURE GPRESSURE VOLUME PRESSAVG GPRESSAVG
ENERGY: 0 2.1858 1.4126 1.0987 0.0000 -10812.7439 1562.8129 0.0000 0.0000 1747.5505 -7497.6832 296.7462 -9245.2338 -7497.6832 296.7462 1011.1718 1089.2278 30565.2444 1011.1718 1089.2278
ENERGY: 300000 2.4666 3.4173 2.7128 0.0000 -10733.6253 1466.5917 0.0000 0.0000 1789.8129 -7468.6240 303.9227 -9258.4369 -7499.7406 298.8217 374.3988 435.0587 30290.7539 157.4867 224.2564
ENERGY: 600000 3.0719 2.8801 3.7251 0.0000 -10715.8979 1403.4438 0.0000 0.0000 1751.9295 -7550.8475 297.4898 -9302.7770 -7519.8010 297.9259 -427.8955 -442.0828 30665.1636 97.3101 141.9309
ENERGY: 900000 3.3368 3.6946 1.1218 0.0000 -10726.8424 1392.0916 0.0000 0.0000 1827.6860 -7498.9116 310.3538 -9326.5976 -7515.3393 299.7775 -492.6184 -450.6491 30445.0581 33.1334 80.7822
ENERGY: 1200000 1.4791 5.3758 3.5005 0.0000 -10732.3780 1452.0709 0.0000 0.0000 1786.3698 -7483.5819 303.3380 -9269.9517 -7519.3892 299.6705 173.0606 267.7452 30531.4254 69.1672 123.1218
ENERGY: 1500000 2.6427 1.9536 1.4378 0.0000 -10699.4380 1394.9885 0.0000 0.0000 1741.1168 -7557.2986 295.6537 -9298.4155 -7519.2007 298.9079 -749.1188 -719.7688 31070.7870 -55.9261 -1.9481
TCL: Running FEP window  13: Lambda1 0.6    Lambda2 0.65   [dLambda 0.050000000000000044]
TCL: Setting parameter firsttimestep to 0
TCL: Setting parameter alchLambda to 0.6
Info: NONBONDED TABLE R-SQUARED SPACING: 0.0625
Info: NONBONDED TABLE SIZE: 705 POINTS
TCL: Setting parameter alchLambda2 to 0.65
Info: NONBONDED TABLE R-SQUARED SPACING: 0.0625
Info: NONBONDED TABLE SIZE: 705 POINTS
TCL: Running for 1500000 steps
ETITLE: TS BOND ANGLE DIHED IMPRP ELECT VDW BOUNDARY MISC KINETIC TOTAL TEMP POTENTIAL TOTALAVG TEMPAVG PRESSURE GPRESSURE VOLUME PRESSAVG GPRESSAVG
ENERGY: 0 2.6427 1.9536 1.4378 0.0000 -10699.2647 1395.1884 0.0000 0.0000 1740.2616 -7557.7807 295.5085 -9298.0423 -7557.7807 295.5085 -790.7702 -710.6903 31070.7870 -790.7702 -710.6903
ENERGY: 300000 3.0540 3.7910 1.4028 0.0000 -10757.3567 1409.1863 0.0000 0.0000 1787.8723 -7552.0504 303.5931 -9339.9226 -7554.1140 299.4269 -505.1659 -427.7035 30507.2098 -333.4855 -267.2536
ENERGY: 600000 0.7813 2.0857 0.5161 0.0000 -10900.6560 1557.6273 0.0000 0.0000 1817.3150 -7522.3306 308.5927 -9339.6455 -7528.9931 302.6141 787.4635 857.7288 30336.9420 -261.9945 -204.5895
ENERGY: 900000 2.5922 1.3795 1.3856 0.0000 -10959.6676 1550.9761 0.0000 0.0000 1763.4989 -7639.8354 299.4544 -9403.3343 -7536.0389 301.0940 808.4718 889.8465 30288.0550 -92.3257 -44.4246
ENERGY: 1200000 1.1319 2.0599 3.8904 0.0000 -10755.0241 1454.9974 0.0000 0.0000 1815.8250 -7477.1196 308.3397 -9292.9445 -7528.1114 302.1093 195.4499 244.7799 30365.9302 -13.0527 25.2869
ENERGY: 1500000 3.1811 2.0087 2.5312 0.0000 -10637.2741 1338.5048 0.0000 0.0000 1765.9714 -7525.0769 299.8742 -9291.0483 -7528.8018 301.6568 -693.1683 -661.6311 30544.5504 -75.3126 -36.1832
TCL: Running FEP window  14: Lambda1 0.65   Lambda2 0.7000000000000001 [dLambda 0.050000000000000044]
TCL: Setting parameter firsttimestep to 0
TCL: Setting parameter alchLambda to 0.65
Info: NONBONDED TABLE R-SQUARED SPACING: 0.0625
Info: NONBONDED TABLE SIZE: 705 POINTS
TCL: Setting parameter alchLambda2 to 0.7000000000000001
Info: NONBONDED TABLE R-SQUARED SPACING: 0.0625
Info: NONBONDED TABLE SIZE: 705 POINTS
TCL: Running for 1500000 steps
ETITLE: TS BOND ANGLE DIHED IMPRP ELECT VDW BOUNDARY MISC KINETIC TOTAL TEMP POTENTIAL TOTALAVG TEMPAVG PRESSURE GPRESSURE VOLUME PRESSAVG GPRESSAVG
ENERGY: 0 3.1811 2.0087 2.5312 0.0000 -10637.7436 1338.3050 0.0000 0.0000 1765.0864 -7526.6310 299.7239 -9291.7174 -7526.6310 299.7239 -737.7690 -657.8433 30544.5504 -737.7690 -657.8433
ENERGY: 300000 1.5518 1.2721 3.1230 0.0000 -10656.8691 1403.0630 0.0000 0.0000 1742.8717 -7504.9875 295.9517 -9247.8592 -7502.6795 302.7191 -306.7287 -223.6686 30467.9971 29.5159 116.1040
ENERGY: 600000 1.2040 1.0592 2.8961 0.0000 -10788.0924 1440.2096 0.0000 0.0000 1793.3188 -7549.4047 304.5180 -9342.7235 -7502.9720 302.4900 -192.4200 -101.2026 30435.1093 -121.7044 -47.5365
ENERGY: 900000 0.5533 2.6534 2.2699 0.0000 -10756.6346 1422.3393 0.0000 0.0000 1755.2097 -7573.6090 298.0468 -9328.8187 -7514.7803 302.4365 -34.5805 -7.1116 30079.0507 53.7943 116.8359
ENERGY: 1200000 3.8711 3.9954 3.5973 0.0000 -10801.3550 1470.8911 0.0000 0.0000 1779.1538 -7539.8463 302.1127 -9319.0001 -7523.6999 303.0272 18.6842 32.6192 30712.6576 57.3872 114.1677
ENERGY: 1500000 4.0951 1.3565 3.0473 0.0000 -10730.0919 1426.2564 0.0000 0.0000 1743.7462 -7551.5905 296.1002 -9295.3367 -7525.0018 302.4049 -226.8644 -258.9121 30805.3948 7.4784 57.1685
TCL: Running FEP window  15: Lambda1 0.7000000000000001 Lambda2 0.7500000000000001 [dLambda 0.050000000000000044]
TCL: Setting parameter firsttimestep to 0
TCL: Setting parameter alchLambda to 0.7000000000000001
Info: NONBONDED TABLE R-SQUARED SPACING: 0.0625
Info: NONBONDED TABLE SIZE: 705 POINTS
TCL: Setting parameter alchLambda2 to 0.7500000000000001
Info: NONBONDED TABLE R-SQUARED SPACING: 0.0625
Info: NONBONDED TABLE SIZE: 705 POINTS
TCL: Running for 1500000 steps
ETITLE: TS BOND ANGLE DIHED IMPRP ELECT VDW BOUNDARY MISC KINETIC TOTAL TEMP POTENTIAL TOTALAVG TEMPAVG PRESSURE GPRESSURE VOLUME PRESSAVG GPRESSAVG
ENERGY: 0 4.0951 1.3565 3.0473 0.0000 -10730.9548 1425.9069 0.0000 0.0000 1742.7896 -7553.7594 295.9378 -9296.5490 -7553.7594 295.9378 -342.0703 -256.8679 30805.3948 -342.0703 -256.8679
ENERGY: 300000 4.7590 3.7647 2.3170 0.0000 -10682.4504 1376.4598 0.0000 0.0000 1776.5681 -7518.5818 301.6736 -9295.1499 -7534.2886 301.1647 -650.3566 -646.6329 30706.8482 -217.5891 -164.5114
ENERGY: 600000 1.5816 3.3696 2.0260 0.0000 -10827.8257 1449.9425 0.0000 0.0000 1788.7375 -7582.1684 303.7400 -9370.9059 -7543.0590 301.6911 -361.0735 -296.8680 30735.5449 -117.1997 -68.7889
ENERGY: 900000 1.9327 1.7732 3.9810 0.0000 -10740.3974 1409.2028 0.0000 0.0000 1748.6383 -7574.8694 296.9309 -9323.5077 -7543.0169 301.2801 -306.1447 -268.1005 30638.3491 -85.5376 -39.8165
ENERGY: 1200000 2.1485 3.6063 1.6075 0.0000 -10682.2431 1415.7382 0.0000 0.0000 1820.6704 -7438.4721 309.1625 -9259.1425 -7536.4130 300.9857 -66.6782 -54.6586 30677.0065 -18.2418 24.8270
ENERGY: 1500000 2.8286 2.7334 3.5254 0.0000 -10840.6874 1502.4084 0.0000 0.0000 1719.2502 -7609.9412 291.9406 -9329.1914 -7543.9016 299.6396 339.2247 374.8642 30336.0209 12.8695 58.5952
TCL: Running FEP window  16: Lambda1 0.7500000000000001 Lambda2 0.8000000000000002 [dLambda 0.050000000000000044]
TCL: Setting parameter firsttimestep to 0
TCL: Setting parameter alchLambda to 0.7500000000000001
Info: NONBONDED TABLE R-SQUARED SPACING: 0.0625
Info: NONBONDED TABLE SIZE: 705 POINTS
TCL: Setting parameter alchLambda2 to 0.8000000000000002
Info: NONBONDED TABLE R-SQUARED SPACING: 0.0625
Info: NONBONDED TABLE SIZE: 705 POINTS
TCL: Running for 1500000 steps
ETITLE: TS BOND ANGLE DIHED IMPRP ELECT VDW BOUNDARY MISC KINETIC TOTAL TEMP POTENTIAL TOTALAVG TEMPAVG PRESSURE GPRESSURE VOLUME PRESSAVG GPRESSAVG
ENERGY: 0 2.8287 2.7334 3.5254 0.0000 -10841.4462 1502.0772 0.0000 0.0000 1718.3479 -7611.9336 291.7874 -9330.2815 -7611.9336 291.7874 295.3191 377.6152 30336.0209 295.3191 377.6152
ENERGY: 300000 2.2053 1.9929 2.1564 0.0000 -10707.5901 1397.1891 0.0000 0.0000 1748.1578 -7555.8887 296.8493 -9304.0464 -7573.1284 295.2051 -1.1446 76.2365 30040.5458 421.2163 476.4472
ENERGY: 600000 2.0510 5.0740 0.8835 0.0000 -10727.0742 1472.1593 0.0000 0.0000 1747.1716 -7499.7348 296.6819 -9246.9064 -7552.8471 296.6440 395.7177 460.3612 30322.3661 261.0516 311.5082
ENERGY: 900000 7.1059 2.8168 2.5404 0.0000 -10682.4994 1388.3854 0.0000 0.0000 1824.2392 -7457.4117 309.7685 -9281.6509 -7534.9695 298.8148 -270.6535 -227.9405 30518.7848 114.0559 159.5362
ENERGY: 1200000 5.0171 2.1104 2.8438 0.0000 -10722.9953 1448.4811 0.0000 0.0000 1817.4485 -7447.0945 308.6154 -9264.5429 -7527.3431 300.2969 115.7826 135.3421 30909.2161 68.3531 116.1938
ENERGY: 1500000 1.9756 1.3883 1.7406 0.0000 -10790.4801 1438.8794 0.0000 0.0000 1784.2635 -7562.2328 302.9803 -9346.4962 -7523.8202 301.3342 192.5413 237.7571 29935.9268 61.5182 112.2615
TCL: Running FEP window  17: Lambda1 0.8000000000000002 Lambda2 0.8500000000000002 [dLambda 0.050000000000000044]
TCL: Setting parameter firsttimestep to 0
TCL: Setting parameter alchLambda to 0.8000000000000002
Info: NONBONDED TABLE R-SQUARED SPACING: 0.0625
Info: NONBONDED TABLE SIZE: 705 POINTS
TCL: Setting parameter alchLambda2 to 0.8500000000000002
Info: NONBONDED TABLE R-SQUARED SPACING: 0.0625
Info: NONBONDED TABLE SIZE: 705 POINTS
TCL: Running for 1500000 steps
ETITLE: TS BOND ANGLE DIHED IMPRP ELECT VDW BOUNDARY MISC KINETIC TOTAL TEMP POTENTIAL TOTALAVG TEMPAVG PRESSURE GPRESSURE VOLUME PRESSAVG GPRESSAVG
ENERGY: 0 1.9756 1.3883 1.7406 0.0000 -10791.0952 1439.7977 0.0000 0.0000 1783.4189 -7562.7741 302.8369 -9346.1930 -7562.7741 302.8369 177.4598 260.1463 29935.9268 177.4598 260.1463
ENERGY: 300000 5.2337 2.5241 1.9248 0.0000 -10801.0348 1484.1794 0.0000 0.0000 1782.2245 -7524.9482 302.6341 -9307.1727 -7514.5440 302.4484 419.7384 467.1253 30641.6218 223.8705 295.9103
ENERGY: 600000 0.5425 1.9125 1.5865 0.0000 -10690.5947 1439.2583 0.0000 0.0000 1799.7890 -7447.5060 305.6167 -9247.2950 -7509.4961 301.6945 179.1439 219.1744 30798.0806 161.4891 225.4828
ENERGY: 900000 1.6673 2.7304 1.5670 0.0000 -10833.6047 1527.9065 0.0000 0.0000 1683.2829 -7616.4506 285.8331 -9299.7335 -7530.5228 299.5091 689.1999 691.1344 30320.8766 223.3887 277.7156
ENERGY: 1200000 0.2627 1.3680 2.9010 0.0000 -10825.4645 1510.6404 0.0000 0.0000 1746.1718 -7564.1207 296.5121 -9310.2925 -7524.9966 299.9681 717.6565 799.6937 30001.3413 207.2434 261.1160
ENERGY: 1500000 1.9104 4.7489 2.8603 0.0000 -10867.7916 1500.5191 0.0000 0.0000 1773.6381 -7584.1147 301.1761 -9357.7529 -7533.3590 300.6757 195.2399 248.6532 30653.0498 104.0303 158.6439
TCL: Running FEP window  18: Lambda1 0.8500000000000002 Lambda2 0.9000000000000002 [dLambda 0.050000000000000044]
TCL: Setting parameter firsttimestep to 0
TCL: Setting parameter alchLambda to 0.8500000000000002
Info: NONBONDED TABLE R-SQUARED SPACING: 0.0625
Info: NONBONDED TABLE SIZE: 705 POINTS
TCL: Setting parameter alchLambda2 to 0.9000000000000002
Info: NONBONDED TABLE R-SQUARED SPACING: 0.0625
Info: NONBONDED TABLE SIZE: 705 POINTS
TCL: Running for 1500000 steps
ETITLE: TS BOND ANGLE DIHED IMPRP ELECT VDW BOUNDARY MISC KINETIC TOTAL TEMP POTENTIAL TOTALAVG TEMPAVG PRESSURE GPRESSURE VOLUME PRESSAVG GPRESSAVG
ENERGY: 0 1.9104 4.7489 2.8603 0.0000 -10869.5397 1501.2688 0.0000 0.0000 1772.7732 -7585.9779 301.0292 -9358.7512 -7585.9779 301.0292 178.1638 261.3281 30653.0498 178.1638 261.3281
ENERGY: 300000 4.0943 2.4141 3.1432 0.0000 -10735.8889 1406.1329 0.0000 0.0000 1721.1418 -7598.9628 292.2618 -9320.1046 -7548.2486 300.4157 -436.5562 -389.1936 30625.7133 107.3049 152.1136
ENERGY: 600000 0.7860 2.4019 3.2418 0.0000 -10919.4609 1525.1231 0.0000 0.0000 1786.4414 -7601.4667 303.3502 -9387.9081 -7546.2556 301.1378 700.7855 691.4553 30087.6694 255.8554 291.5650
ENERGY: 900000 1.8914 0.8014 6.4928 0.0000 -10785.7099 1514.5704 0.0000 0.0000 1787.8814 -7474.0724 303.5947 -9261.9538 -7545.9891 301.0915 941.0697 982.3384 30082.6321 269.9087 317.2442
ENERGY: 1200000 3.0053 2.7129 2.3348 0.0000 -10788.4647 1423.4473 0.0000 0.0000 1765.4313 -7591.5330 299.7825 -9356.9643 -7542.9728 300.6102 -357.2704 -305.9963 30409.7623 190.3162 243.9666
ENERGY: 1500000 0.4170 3.0051 1.0590 0.0000 -10717.1371 1420.6877 0.0000 0.0000 1775.2600 -7516.7082 301.4515 -9291.9683 -7531.4330 302.2836 -24.6581 14.3377 30307.3299 239.3343 294.7658
TCL: Running FEP window  19: Lambda1 0.9000000000000002 Lambda2 0.9500000000000003 [dLambda 0.050000000000000044]
TCL: Setting parameter firsttimestep to 0
TCL: Setting parameter alchLambda to 0.9000000000000002
Info: NONBONDED TABLE R-SQUARED SPACING: 0.0625
Info: NONBONDED TABLE SIZE: 705 POINTS
TCL: Setting parameter alchLambda2 to 0.9500000000000003
Info: NONBONDED TABLE R-SQUARED SPACING: 0.0625
Info: NONBONDED TABLE SIZE: 705 POINTS
TCL: Running for 1500000 steps
ETITLE: TS BOND ANGLE DIHED IMPRP ELECT VDW BOUNDARY MISC KINETIC TOTAL TEMP POTENTIAL TOTALAVG TEMPAVG PRESSURE GPRESSURE VOLUME PRESSAVG GPRESSAVG
ENERGY: 0 0.4170 3.0051 1.0590 0.0000 -10718.0243 1422.5309 0.0000 0.0000 1774.3853 -7516.6269 301.3030 -9291.0123 -7516.6269 301.3030 -44.6754 47.0983 30307.3299 -44.6754 47.0983
ENERGY: 300000 1.4391 3.5063 4.4026 0.0000 -10768.5979 1434.6175 0.0000 0.0000 1818.0297 -7506.6028 308.7141 -9324.6325 -7517.5431 303.2844 157.5426 170.9951 30177.7555 -239.1715 -176.7415
ENERGY: 600000 3.1201 3.5694 1.2717 0.0000 -10679.1747 1373.3133 0.0000 0.0000 1767.3484 -7530.5517 300.1080 -9297.9001 -7515.1058 302.2987 -782.2749 -706.1330 30796.6248 -88.2881 -17.8709
ENERGY: 900000 2.1590 1.6388 1.6265 0.0000 -10764.1637 1448.1127 0.0000 0.0000 1740.4769 -7570.1498 295.5451 -9310.6266 -7539.2624 299.9792 -90.2739 17.9624 30539.5126 -50.9554 22.9561
ENERGY: 1200000 2.0502 3.9487 2.5832 0.0000 -10811.8455 1392.6640 0.0000 0.0000 1810.9297 -7599.6696 307.5084 -9410.5993 -7543.1861 300.3123 -725.8730 -677.0126 30442.9818 -169.3932 -107.9521
ENERGY: 1500000 2.6665 2.0865 0.6928 0.0000 -10710.6463 1375.5280 0.0000 0.0000 1768.7562 -7560.9163 300.3471 -9329.6724 -7547.9700 299.9768 -477.3074 -438.4828 30353.7491 -228.6031 -164.9643
TCL: Running FEP window  20: Lambda1 0.9500000000000003 Lambda2 1.0    [dLambda 0.04999999999999971]
TCL: Setting parameter firsttimestep to 0
TCL: Setting parameter alchLambda to 0.9500000000000003
Info: NONBONDED TABLE R-SQUARED SPACING: 0.0625
Info: NONBONDED TABLE SIZE: 705 POINTS
TCL: Setting parameter alchLambda2 to 1.0
Info: NONBONDED TABLE R-SQUARED SPACING: 0.0625
Info: NONBONDED TABLE SIZE: 705 POINTS
TCL: Running for 1500000 steps
ETITLE: TS BOND ANGLE DIHED IMPRP ELECT VDW BOUNDARY MISC KINETIC TOTAL TEMP POTENTIAL TOTALAVG TEMPAVG PRESSURE GPRESSURE VOLUME PRESSAVG GPRESSAVG
ENERGY: 0 2.6665 2.0865 0.6928 0.0000 -10711.4602 1375.1333 0.0000 0.0000 1767.8560 -7563.0250 300.1942 -9330.8810 -7563.0250 300.1942 -517.2922 -433.0255 30353.7491 -517.2922 -433.0255
ENERGY: 300000 0.8254 3.7935 1.5987 0.0000 -10766.9941 1521.9850 0.0000 0.0000 1798.3543 -7440.4373 305.3730 -9238.7915 -7538.0379 301.4011 970.5754 990.6379 30220.9593 -36.2668 16.8924
ENERGY: 600000 3.2248 2.4646 1.4755 0.0000 -10768.9895 1420.4823 0.0000 0.0000 1801.1329 -7540.2095 305.8449 -9341.3424 -7547.4931 302.6758 -72.3168 -66.9004 30874.6685 -236.1854 -193.5331
ENERGY: 900000 3.9781 2.8862 2.5412 0.0000 -10668.6781 1390.0565 0.0000 0.0000 1801.2654 -7467.9508 305.8674 -9269.2162 -7541.9288 303.2236 -183.6529 -144.8259 30499.6306 -244.4964 -193.2238
ENERGY: 1200000 0.8556 1.6467 2.2653 0.0000 -10716.5384 1403.6328 0.0000 0.0000 1736.7337 -7571.4044 294.9094 -9308.1381 -7541.0346 301.7287 -292.2621 -264.1506 30419.9322 -201.9095 -153.8665
ENERGY: 1500000 0.5103 3.0685 2.4243 0.0000 -10753.8506 1400.8334 0.0000 0.0000 1738.7835 -7608.2307 295.2575 -9347.0142 -7551.8168 300.5988 -358.6451 -292.7816 30278.5678 -192.9555 -143.3330
TCL: Exiting due to exit command.
