Info: SIMULATION PARAMETERS:
Info: TIMESTEP               2
Info: NUMBER OF STEPS        0
Info: STEPS PER CYCLE        10
Info: PERIODIC CELL BASIS 1  31.2961 0 0
Info: PERIODIC CELL BASIS 2  0 29.8809 0
Info: PERIODIC CELL BASIS 3  0 0 33.2721
Info: PERIODIC CELL CENTER   0 0 0
Info: WRAPPING WATERS AROUND PERIODIC BOUNDARIES ON OUTPUT.
Info: WRAPPING ALL CLUSTERS AROUND PERIODIC BOUNDARIES ON OUTPUT.
Info: FIRST LDB TIMESTEP     50
Info: LAST LDB TIMESTEP     -1
Info: HOM BACKGROUND SCALING 1
Info: PME BACKGROUND SCALING 1
Info: MIN ATOMS PER PATCH    40
Info: EMPTY PATCH LOAD       40 ATOMS
Info: VELOCITY FILE          mobley_1873346_equil.vel
Info: CENTER OF MASS MOVING INITIALLY? NO
Info: DIELECTRIC             1
Info: EXCLUDE                SCALED ONE-FOUR
Info: 1-4 ELECTROSTATICS SCALED BY 0.833333
Info: MODIFIED 1-4 VDW PARAMETERS WILL BE USED
Info: DCD FILENAME           mobley_1873346_prod.dcd
Info: DCD FREQUENCY          100000
Info: DCD FIRST STEP         100000
Info: DCD FILE WILL CONTAIN UNIT CELL DATA
Info: XST FILENAME           mobley_1873346_prod.xst
Info: XST FREQUENCY          100000
Info: NO VELOCITY DCD OUTPUT
Info: NO FORCE DCD OUTPUT
Info: OUTPUT FILENAME        mobley_1873346_prod
Info: BINARY OUTPUT FILES WILL BE USED
Info: RESTART FILENAME       mobley_1873346_prod.restart
Info: RESTART FREQUENCY      100000
Info: BINARY RESTART FILES WILL BE USED
Info: CUTOFF                 9
Info: PAIRLIST DISTANCE      11
Info: PAIRLIST SHRINK RATE   0.01
Info: PAIRLIST GROW RATE     0.01
Info: PAIRLIST TRIGGER       0.3
Info: PAIRLISTS PER CYCLE    2
Info: PAIRLISTS ENABLED
Info: MARGIN                 2
Info: HYDROGEN GROUP CUTOFF  2.5
Info: PATCH DIMENSION        15.5
Info: ENERGY OUTPUT STEPS    100000
Info: ENERGY EVALUATION STEPS    100000
Info: OUTPUT ENERGY PRECISION 4
Info: CROSSTERM ENERGY INCLUDED IN DIHEDRAL
Info: TIMING OUTPUT STEPS    1000000
Info: PRESSURE OUTPUT STEPS  100000
Info: ALCHEMICAL FEP ON
Info: FEP CURRENT LAMBDA VALUE     0
Info: FEP COMPARISON LAMBDA VALUE  0.05
Info: FEP INTRA-ALCHEMICAL NON-BONDED INTERACTIONS WILL BE RETAINED
Info: FEP INTRA-ALCHEMICAL BONDED INTERACTIONS WILL BE RETAINED
Info: FEP VDW SHIFTING COEFFICIENT 5
Info: FEP ELEC. ACTIVE FOR ANNIHILATED PARTICLES BETWEEN LAMBDA = 0 AND LAMBDA = 0.5
Info: FEP ELEC. ACTIVE FOR EXNIHILATED PARTICLES BETWEEN LAMBDA = 0.5 AND LAMBDA = 1
Info: FEP VDW ACTIVE FOR ANNIHILATED PARTICLES BETWEEN LAMBDA = 0 AND LAMBDA = 1
Info: FEP VDW ACTIVE FOR EXNIHILATED PARTICLES BETWEEN LAMBDA = 0 AND LAMBDA = 1
Info: FEP BOND ACTIVE FOR ANNIHILATED PARTICLES BETWEEN LAMBDA = 1 AND LAMBDA = 1
Info: FEP BOND ACTIVE FOR EXNIHILATED PARTICLES BETWEEN LAMBDA = 0 AND LAMBDA = 0
Info: LANGEVIN DYNAMICS ACTIVE
Info: LANGEVIN TEMPERATURE   300
Info: LANGEVIN USING BBK INTEGRATOR
Info: LANGEVIN DAMPING COEFFICIENT IS 1 INVERSE PS
Info: LANGEVIN DYNAMICS APPLIED TO HYDROGENS
Info: LANGEVIN PISTON PRESSURE CONTROL ACTIVE
Info:        TARGET PRESSURE IS 1.01325 BAR
Info:     OSCILLATION PERIOD IS 50 FS
Info:             DECAY TIME IS 25 FS
Info:     PISTON TEMPERATURE IS 300 K
Info:       PRESSURE CONTROL IS GROUP-BASED
Info:    INITIAL STRAIN RATE IS 0.000305633 0.000305633 0.000305633
Info:       CELL FLUCTUATION IS ISOTROPIC
Info: PARTICLE MESH EWALD (PME) ACTIVE
Info: PME TOLERANCE               1e-06
Info: PME EWALD COEFFICIENT       0.348832
Info: PME INTERPOLATION ORDER     4
Info: PME GRID DIMENSIONS         32 32 36
Info: PME MAXIMUM GRID SPACING    1
Info: PME CALCULATION WILL BE PERFORMED ON GPU
Info: FULL ELECTROSTATIC EVALUATION FREQUENCY      2
Info: USING VERLET I (r-RESPA) MTS SCHEME.
Info: C1 SPLITTING OF LONG RANGE ELECTROSTATICS
Info: PLACING ATOMS IN PATCHES BY HYDROGEN GROUPS
Info: RIGID BONDS TO HYDROGEN : ALL
Info:         ERROR TOLERANCE : 1e-08
Info:          MAX ITERATIONS : 100
Info: RIGID WATER USING SETTLE ALGORITHM
Info: RANDOM NUMBER SEED     1743572775
Info: USE HYDROGEN BONDS?    NO
Info: Using AMBER format force field!
Info: AMBER PARM FILE        mobley_1873346.prmtop
Info: COORDINATE PDB         mobley_1873346.pdb
Info: Exclusions will be read from PARM file!
Info: SCNB (VDW SCALING)     2
Info: USING ARITHMETIC MEAN TO COMBINE L-J SIGMA PARAMETERS
Info: BINARY COORDINATES     mobley_1873346_equil.coor
Info: SUMMARY OF PARAMETERS:
Info: 6 BONDS
Info: 5 ANGLES
Info:   5 HARMONIC
Info:   0 COSINE-BASED
Info: 3 DIHEDRAL
Info: 0 IMPROPER
Info: 0 CROSSTERM
Info: 0 VDW
Info: 21 VDW_PAIRS
Info: 0 NBTHOLE_PAIRS
Info: To read alchdata from file: mobley_1873346.pdb
Info: To read alchflag data from column: 5
Info: STRUCTURE SUMMARY:
Info: 2964 ATOMS
Info: 2964 BONDS
Info: 24 ANGLES
Info: 36 DIHEDRALS
Info: 0 IMPROPERS
Info: 0 CROSSTERMS
Info: 3015 EXCLUSIONS
Info: 2957 RIGID BONDS
Info: ALCH: 0 ATOMS TO DISAPPEAR IN FINAL STATE
Info: ALCH: 15 ATOMS TO APPEAR IN FINAL STATE
Info: 5935 DEGREES OF FREEDOM
Info: 990 HYDROGEN GROUPS
Info: 4 ATOMS IN LARGEST HYDROGEN GROUP
Info: 990 MIGRATION GROUPS
Info: 4 ATOMS IN LARGEST MIGRATION GROUP
Info: TOTAL MASS = 17801.9 amu
Info: TOTAL CHARGE = 6.33299e-08 e
Info: MASS DENSITY = 0.950081 g/cm^3
Info: ATOM DENSITY = 0.0952608 atoms/A^3
Info: ADDED 0 IMPLICIT EXCLUSIONS
Info: NONBONDED TABLE R-SQUARED SPACING: 0.0625
Info: NONBONDED TABLE SIZE: 705 POINTS
Info: REMOVING COM VELOCITY 0.255918 0.0813084 0.276296
Info: Use 3D box decompostion in PME FFT.
Info: Updated CUDA force table with 4096 elements.
Info: Updated CUDA LJ table with 6 x 6 elements.
Info: Found 14 unique exclusion lists needing 32 bytes
TCL: Running for 1500000 steps
ETITLE: TS BOND ANGLE DIHED IMPRP ELECT VDW BOUNDARY MISC KINETIC TOTAL TEMP POTENTIAL TOTALAVG TEMPAVG PRESSURE GPRESSURE VOLUME PRESSAVG GPRESSAVG
ENERGY: 0 3.2539 2.8472 2.9589 0.0000 -10681.0257 1441.4667 0.0000 0.0000 1769.2614 -7461.2376 300.0279 -9230.4990 -7461.2376 300.0279 -330.1705 -249.7354 31114.5769 -330.1705 -249.7354
ENERGY: 300000 3.1087 4.4003 5.7192 0.0000 -10909.4398 1553.0361 0.0000 0.0000 1825.1161 -7518.0595 309.4996 -9343.1756 -7529.2364 297.8194 666.0296 781.3335 29981.4141 286.4082 378.4388
ENERGY: 600000 1.0716 4.4120 2.4080 0.0000 -10795.8791 1491.7549 0.0000 0.0000 1760.5912 -7535.6413 298.5576 -9296.2325 -7526.6747 298.7492 344.2756 414.2006 30494.2486 132.8906 201.2650
ENERGY: 900000 2.8958 6.8082 4.1716 0.0000 -10628.5448 1362.5973 0.0000 0.0000 1751.4869 -7500.5850 297.0138 -9252.0719 -7523.4949 298.0579 -691.7962 -652.2885 30365.0024 27.1060 88.2636
ENERGY: 1200000 0.5212 4.3098 2.3015 0.0000 -10610.5769 1365.5701 0.0000 0.0000 1754.7807 -7483.0936 297.5723 -9237.8743 -7514.0886 298.6976 -496.0470 -478.0804 30242.6316 -44.7690 8.0690
ENERGY: 1500000 1.2663 2.9349 2.4052 0.0000 -10732.8116 1398.5751 0.0000 0.0000 1763.7884 -7563.8417 299.0998 -9327.6301 -7520.0106 299.1316 -544.0659 -485.5366 30497.1207 -111.3146 -60.6757
TCL: Running FEP window   2: Lambda1 0.05   Lambda2 0.1    [dLambda 0.05  ]
TCL: Setting parameter firsttimestep to 0
TCL: Setting parameter alchLambda to 0.05
Info: NONBONDED TABLE R-SQUARED SPACING: 0.0625
Info: NONBONDED TABLE SIZE: 705 POINTS
TCL: Setting parameter alchLambda2 to 0.1
Info: NONBONDED TABLE R-SQUARED SPACING: 0.0625
Info: NONBONDED TABLE SIZE: 705 POINTS
TCL: Running for 1500000 steps
ETITLE: TS BOND ANGLE DIHED IMPRP ELECT VDW BOUNDARY MISC KINETIC TOTAL TEMP POTENTIAL TOTALAVG TEMPAVG PRESSURE GPRESSURE VOLUME PRESSAVG GPRESSAVG
ENERGY: 0 1.2663 2.9349 2.4052 0.0000 -10732.8124 1402.5436 0.0000 0.0000 1762.9182 -7560.7441 298.9522 -9323.6623 -7560.7441 298.9522 -542.5253 -478.0798 30497.1207 -542.5253 -478.0798
ENERGY: 300000 1.8012 4.9629 2.6374 0.0000 -10703.7456 1449.5330 0.0000 0.0000 1779.8326 -7464.9784 301.8206 -9244.8110 -7522.4990 297.4419 48.9475 81.0379 30531.3229 -170.0972 -90.5808
ENERGY: 600000 2.1369 4.7878 2.6595 0.0000 -10760.8834 1467.4161 0.0000 0.0000 1778.6992 -7505.1839 301.6284 -9283.8831 -7522.1924 298.1659 304.1818 376.2485 29757.3487 15.8853 95.9253
ENERGY: 900000 1.7849 3.5817 2.5424 0.0000 -10568.9451 1286.0563 0.0000 0.0000 1780.0353 -7494.9446 301.8549 -9274.9799 -7525.6252 298.6750 -1371.8613 -1229.4783 30543.9058 -175.6015 -97.5951
ENERGY: 1200000 1.8896 6.9349 6.7645 0.0000 -10826.5546 1503.0665 0.0000 0.0000 1809.0322 -7498.8669 306.7722 -9307.8991 -7532.9905 298.5865 436.0272 548.0243 30022.1070 -113.4531 -31.3810
ENERGY: 1500000 0.9957 3.6757 1.9222 0.0000 -10629.5077 1390.1429 0.0000 0.0000 1764.5591 -7468.2120 299.2305 -9232.7712 -7525.1381 298.2923 -634.4224 -523.5070 30967.4422 -136.1033 -47.7785
TCL: Running FEP window   3: Lambda1 0.1    Lambda2 0.15000000000000002 [dLambda 0.05000000000000002]
TCL: Setting parameter firsttimestep to 0
TCL: Setting parameter alchLambda to 0.1
Info: NONBONDED TABLE R-SQUARED SPACING: 0.0625
Info: NONBONDED TABLE SIZE: 705 POINTS
TCL: Setting parameter alchLambda2 to 0.15000000000000002
Info: NONBONDED TABLE R-SQUARED SPACING: 0.0625
Info: NONBONDED TABLE SIZE: 705 POINTS
TCL: Running for 1500000 steps
ETITLE: TS BOND ANGLE DIHED IMPRP ELECT VDW BOUNDARY MISC KINETIC TOTAL TEMP POTENTIAL TOTALAVG TEMPAVG PRESSURE GPRESSURE VOLUME PRESSAVG GPRESSAVG
ENERGY: 0 0.9958 3.6757 1.9222 0.0000 -10629.5074 1393.6292 0.0000 0.0000 1763.7170 -7465.5675 299.0877 -9229.2845 -7465.5675 299.0877 -611.8220 -514.2865 30967.4422 -611.8220 -514.2865
ENERGY: 300000 1.3674 3.7889 2.2196 0.0000 -10693.1685 1451.8745 0.0000 0.0000 1765.0368 -7468.8813 299.3115 -9233.9181 -7504.2133 299.1863 -299.8764 -205.2152 31000.4374 -157.8552 -65.8359
ENERGY: 600000 3.0383 5.0910 4.5941 0.0000 -10662.4623 1461.8858 0.0000 0.0000 1724.0682 -7463.7849 292.3641 -9187.8531 -7504.6444 299.3657 312.9304 440.2076 30320.8229 21.5103 99.9337
ENERGY: 900000 5.4186 3.0814 2.6373 0.0000 -10771.9608 1451.5331 0.0000 0.0000 1773.5268 -7535.7635 300.7512 -9309.2902 -7505.1396 299.9552 -243.9243 -116.5689 30319.0930 -46.7580 22.9890
ENERGY: 1200000 2.4395 2.6765 3.3180 0.0000 -10680.3295 1422.1034 0.0000 0.0000 1748.9891 -7500.8030 296.5902 -9249.7921 -7505.7672 300.3324 -316.2058 -241.5472 30601.5831 -34.9756 26.3222
ENERGY: 1500000 1.6574 5.3796 2.3404 0.0000 -10657.9647 1381.7446 0.0000 0.0000 1809.1765 -7457.6662 306.7966 -9266.8427 -7505.4339 300.4889 -578.9439 -515.5696 30544.9241 -95.9635 -32.2471
TCL: Running FEP window   4: Lambda1 0.15000000000000002 Lambda2 0.2    [dLambda 0.04999999999999999]
TCL: Setting parameter firsttimestep to 0
TCL: Setting parameter alchLambda to 0.15000000000000002
Info: NONBONDED TABLE R-SQUARED SPACING: 0.0625
Info: NONBONDED TABLE SIZE: 705 POINTS
TCL: Setting parameter alchLambda2 to 0.2
Info: NONBONDED TABLE R-SQUARED SPACING: 0.0625
Info: NONBONDED TABLE SIZE: 705 POINTS
TCL: Running for 1500000 steps
ETITLE: TS BOND ANGLE DIHED IMPRP ELECT VDW BOUNDARY MISC KINETIC TOTAL TEMP POTENTIAL TOTALAVG TEMPAVG PRESSURE GPRESSURE VOLUME PRESSAVG GPRESSAVG
ENERGY: 0 1.6573 5.3796 2.3404 0.0000 -10657.9648 1382.9196 0.0000 0.0000 1808.2932 -7457.3746 306.6468 -9265.6678 -7457.3746 306.6468 -598.5483 -508.8062 30544.9241 -598.5483 -508.8062
ENERGY: 300000 2.3918 2.5072 3.8986 0.0000 -10758.6887 1453.4645 0.0000 0.0000 1712.8591 -7583.5676 290.4633 -9296.4266 -7530.9307 297.6680 -125.3224 -116.1942 30288.1348 -368.6957 -341.0597
ENERGY: 600000 3.4150 2.3368 1.1130 0.0000 -10693.8484 1409.7134 0.0000 0.0000 1767.6317 -7509.6385 299.7516 -9277.2702 -7521.1241 298.1969 -48.6874 65.5526 29850.4472 -197.1100 -162.3531
ENERGY: 900000 2.6466 5.8304 1.9709 0.0000 -10710.4235 1423.0765 0.0000 0.0000 1778.2157 -7498.6834 301.5464 -9276.8991 -7513.4374 299.3930 -287.3223 -237.9795 30343.8119 -130.4886 -92.7829
ENERGY: 1200000 1.4777 4.8966 0.9514 0.0000 -10588.5079 1413.5588 0.0000 0.0000 1797.7346 -7369.8888 304.8564 -9167.6234 -7497.2111 300.2859 153.2921 155.9561 30458.7236 -137.4795 -113.4162
ENERGY: 1500000 1.7812 5.1049 1.9116 0.0000 -10761.5550 1500.0121 0.0000 0.0000 1764.7053 -7488.0399 299.2553 -9252.7453 -7493.6500 300.4335 630.8573 669.1422 29849.9050 -44.7323 -12.6526
TCL: Running FEP window   5: Lambda1 0.2    Lambda2 0.25   [dLambda 0.04999999999999999]
TCL: Setting parameter firsttimestep to 0
TCL: Setting parameter alchLambda to 0.2
Info: NONBONDED TABLE R-SQUARED SPACING: 0.0625
Info: NONBONDED TABLE SIZE: 705 POINTS
TCL: Setting parameter alchLambda2 to 0.25
Info: NONBONDED TABLE R-SQUARED SPACING: 0.0625
Info: NONBONDED TABLE SIZE: 705 POINTS
TCL: Running for 1500000 steps
ETITLE: TS BOND ANGLE DIHED IMPRP ELECT VDW BOUNDARY MISC KINETIC TOTAL TEMP POTENTIAL TOTALAVG TEMPAVG PRESSURE GPRESSURE VOLUME PRESSAVG GPRESSAVG
ENERGY: 0 1.7812 5.1049 1.9116 0.0000 -10761.5544 1501.8923 0.0000 0.0000 1763.8730 -7486.9915 299.1142 -9250.8644 -7486.9915 299.1142 601.0654 681.5614 29849.9050 601.0654 681.5614
ENERGY: 300000 0.9590 5.6463 4.0709 0.0000 -10777.3661 1472.3735 0.0000 0.0000 1810.7004 -7483.6161 307.0551 -9294.3165 -7492.6116 301.3224 200.2716 292.3425 29909.9499 327.7675 417.0638
ENERGY: 600000 0.6405 3.4869 2.1658 0.0000 -10815.9277 1507.1167 0.0000 0.0000 1720.1943 -7582.3234 291.7072 -9302.5177 -7521.3940 298.2800 312.6029 427.6412 30204.8032 267.6003 345.4991
ENERGY: 900000 3.5104 5.4112 2.1773 0.0000 -10729.9476 1460.5357 0.0000 0.0000 1776.2475 -7482.0655 301.2126 -9258.3130 -7517.1163 298.7400 254.5660 277.3111 30381.2922 142.3640 210.9702
ENERGY: 1200000 4.2820 1.2964 1.9639 0.0000 -10880.4892 1547.4911 0.0000 0.0000 1844.6216 -7480.8343 312.8073 -9325.4558 -7518.2077 299.7161 794.2469 872.9446 29878.4130 204.8930 277.9859
ENERGY: 1500000 0.5981 1.8059 2.4615 0.0000 -10650.1066 1406.1743 0.0000 0.0000 1829.0941 -7409.9726 310.1742 -9239.0667 -7523.4288 299.4934 -365.3423 -270.4758 30813.3414 98.0224 170.0781
TCL: Running FEP window   6: Lambda1 0.25   Lambda2 0.3    [dLambda 0.04999999999999999]
TCL: Setting parameter firsttimestep to 0
TCL: Setting parameter alchLambda to 0.25
Info: NONBONDED TABLE R-SQUARED SPACING: 0.0625
Info: NONBONDED TABLE SIZE: 705 POINTS
TCL: Setting parameter alchLambda2 to 0.3
Info: NONBONDED TABLE R-SQUARED SPACING: 0.0625
Info: NONBONDED TABLE SIZE: 705 POINTS
TCL: Running for 1500000 steps
ETITLE: TS BOND ANGLE DIHED IMPRP ELECT VDW BOUNDARY MISC KINETIC TOTAL TEMP POTENTIAL TOTALAVG TEMPAVG PRESSURE GPRESSURE VOLUME PRESSAVG GPRESSAVG
ENERGY: 0 0.5981 1.8059 2.4615 0.0000 -10650.1070 1406.5500 0.0000 0.0000 1828.1622 -7410.5292 310.0162 -9238.6914 -7410.5292 310.0162 -354.3552 -267.6705 30813.3414 -354.3552 -267.6705
ENERGY: 300000 4.2022 3.5479 1.2079 0.0000 -10682.2734 1420.3159 0.0000 0.0000 1773.8296 -7479.1699 300.8026 -9252.9995 -7477.0501 305.6912 -311.7503 -263.1170 30455.7961 109.4647 197.3553
ENERGY: 600000 1.7840 5.6501 2.2649 0.0000 -10767.7235 1459.1220 0.0000 0.0000 1772.8991 -7526.0034 300.6448 -9298.9025 -7514.1746 301.0385 -17.2831 19.3158 30249.4468 -31.3055 55.0469
ENERGY: 900000 1.3453 3.0039 2.6605 0.0000 -10682.2032 1386.1665 0.0000 0.0000 1739.0569 -7549.9701 294.9059 -9289.0270 -7517.5938 300.2667 -565.3143 -507.5894 30659.5271 -161.2809 -88.8927
ENERGY: 1200000 3.2357 2.2838 3.7450 0.0000 -10741.0420 1468.5262 0.0000 0.0000 1732.0511 -7531.2000 293.7179 -9263.2511 -7508.8439 300.6734 -11.1346 62.1359 30665.7637 -55.2398 17.2252
ENERGY: 1500000 0.5247 7.7886 1.7157 0.0000 -10683.9694 1469.5255 0.0000 0.0000 1825.7022 -7378.7127 309.5990 -9204.4148 -7499.4083 301.7009 491.7251 589.4777 30325.9030 -1.9989 73.6087
TCL: Running FEP window   7: Lambda1 0.3    Lambda2 0.35   [dLambda 0.04999999999999999]
TCL: Setting parameter firsttimestep to 0
TCL: Setting parameter alchLambda to 0.3
Info: NONBONDED TABLE R-SQUARED SPACING: 0.0625
Info: NONBONDED TABLE SIZE: 705 POINTS
TCL: Setting parameter alchLambda2 to 0.35
Info: NONBONDED TABLE R-SQUARED SPACING: 0.0625
Info: NONBONDED TABLE SIZE: 705 POINTS
TCL: Running for 1500000 steps
ETITLE: TS BOND ANGLE DIHED IMPRP ELECT VDW BOUNDARY MISC KINETIC TOTAL TEMP POTENTIAL TOTALAVG TEMPAVG PRESSURE GPRESSURE VOLUME PRESSAVG GPRESSAVG
ENERGY: 0 0.5247 7.7886 1.7157 0.0000 -10683.9696 1469.4888 0.0000 0.0000 1824.8006 -7379.6512 309.4461 -9204.4518 -7379.6512 309.4461 516.4103 592.0666 30325.9030 516.4103 592.0666
ENERGY: 300000 2.1899 4.1665 2.5117 0.0000 -10686.0288 1435.8738 0.0000 0.0000 1826.7798 -7414.5070 309.7818 -9241.2868 -7440.2012 305.1296 209.2304 226.8728 30302.7705 176.1652 226.2552
ENERGY: 600000 1.3908 8.7536 2.0994 0.0000 -10664.4962 1382.6645 0.0000 0.0000 1760.2510 -7509.3369 298.5000 -9269.5879 -7471.8058 303.0532 -460.5850 -416.6702 30389.1081 121.9376 166.7512
ENERGY: 900000 2.8165 3.7497 2.1338 0.0000 -10728.4437 1436.9892 0.0000 0.0000 1784.6209 -7498.1336 302.6325 -9282.7545 -7477.4175 303.2880 -49.4326 41.4725 30539.5722 46.1884 107.9224
ENERGY: 1200000 3.6511 3.3393 0.7100 0.0000 -10820.2269 1496.1388 0.0000 0.0000 1716.7876 -7599.6001 291.1295 -9316.3877 -7477.5702 301.9481 70.9260 217.3503 30392.0941 -29.8771 33.8013
ENERGY: 1500000 1.3971 3.5583 3.2037 0.0000 -10792.1119 1469.5771 0.0000 0.0000 1741.8058 -7572.5699 295.3721 -9314.3757 -7497.5124 301.3521 -21.3819 8.3145 30561.7883 -20.4053 38.5821
TCL: Running FEP window   8: Lambda1 0.35   Lambda2 0.39999999999999997 [dLambda 0.04999999999999999]
TCL: Setting parameter firsttimestep to 0
TCL: Setting parameter alchLambda to 0.35
Info: NONBONDED TABLE R-SQUARED SPACING: 0.0625
Info: NONBONDED TABLE SIZE: 705 POINTS
TCL: Setting parameter alchLambda2 to 0.39999999999999997
Info: NONBONDED TABLE R-SQUARED SPACING: 0.0625
Info: NONBONDED TABLE SIZE: 705 POINTS
TCL: Running for 1500000 steps
ETITLE: TS BOND ANGLE DIHED IMPRP ELECT VDW BOUNDARY MISC KINETIC TOTAL TEMP POTENTIAL TOTALAVG TEMPAVG PRESSURE GPRESSURE VOLUME PRESSAVG GPRESSAVG
ENERGY: 0 1.3971 3.5583 3.2037 0.0000 -10792.1122 1470.1358 0.0000 0.0000 1740.9151 -7572.9021 295.2210 -9313.8173 -7572.9021 295.2210 -65.3735 16.5882 30561.7883 -65.3735 16.5882
ENERGY: 300000 0.7123 3.0221 2.3865 0.0000 -10784.2558 1445.7549 0.0000 0.0000 1761.9015 -7570.4785 298.7798 -9332.3799 -7513.0760 301.9541 -38.0198 24.7307 30298.0512 153.9802 225.6833
ENERGY: 600000 4.5285 2.5601 1.4516 0.0000 -10550.3907 1320.9698 0.0000 0.0000 1801.1813 -7419.6995 305.4408 -9220.8807 -7517.6402 299.2876 -500.9783 -437.5304 30346.2546 7.8247 79.1106
ENERGY: 900000 1.8858 8.3513 2.7029 0.0000 -10750.7002 1456.9420 0.0000 0.0000 1830.8762 -7449.9421 310.4764 -9280.8183 -7515.6528 300.2303 -96.2001 45.0947 30528.2024 101.1204 183.2742
ENERGY: 1200000 0.4401 6.5138 2.3572 0.0000 -10719.4924 1440.2162 0.0000 0.0000 1809.2935 -7460.6715 306.8165 -9269.9651 -7517.0322 299.8713 -88.5631 -28.2691 30879.8415 43.7061 126.4322
ENERGY: 1500000 1.3042 5.0512 2.2523 0.0000 -10728.2907 1443.1845 0.0000 0.0000 1751.0188 -7525.4797 296.9344 -9276.4985 -7524.9309 300.1006 13.9210 44.3340 30348.6224 17.3732 98.1031
TCL: Running FEP window   9: Lambda1 0.39999999999999997 Lambda2 0.44999999999999996 [dLambda 0.04999999999999999]
TCL: Setting parameter firsttimestep to 0
TCL: Setting parameter alchLambda to 0.39999999999999997
Info: NONBONDED TABLE R-SQUARED SPACING: 0.0625
Info: NONBONDED TABLE SIZE: 705 POINTS
TCL: Setting parameter alchLambda2 to 0.44999999999999996
Info: NONBONDED TABLE R-SQUARED SPACING: 0.0625
Info: NONBONDED TABLE SIZE: 705 POINTS
TCL: Running for 1500000 steps
ETITLE: TS BOND ANGLE DIHED IMPRP ELECT VDW BOUNDARY MISC KINETIC TOTAL TEMP POTENTIAL TOTALAVG TEMPAVG PRESSURE GPRESSURE VOLUME PRESSAVG GPRESSAVG
ENERGY: 0 1.3042 5.0512 2.2523 0.0000 -10728.2908 1443.2369 0.0000 0.0000 1750.1272 -7526.3189 296.7832 -9276.4461 -7526.3189 296.7832 -44.3533 48.9644 30348.6224 -44.3533 48.9644
ENERGY: 300000 1.7178 3.9271 2.6423 0.0000 -10579.5873 1295.2070 0.0000 0.0000 1750.0775 -7526.0157 296.7747 -9276.0932 -7527.6163 295.2785 -1244.1353 -1195.8939 30576.7727 -240.3665 -153.3902
ENERGY: 600000 1.7438 3.5436 2.9412 0.0000 -10839.1158 1503.8674 0.0000 0.0000 1741.4811 -7585.5386 295.3170 -9327.0197 -7508.7039 296.1576 133.4716 220.2784 30401.4689 -310.6102 -232.6409
ENERGY: 900000 1.9568 3.3508 3.0965 0.0000 -10882.0487 1511.1440 0.0000 0.0000 1771.0717 -7591.4290 300.3349 -9362.5006 -7525.9023 298.3660 419.1006 523.7872 29754.8639 -155.0460 -76.2916
ENERGY: 1200000 1.9818 6.1436 2.1078 0.0000 -10567.6209 1330.4256 0.0000 0.0000 1762.9267 -7464.0352 298.9537 -9226.9620 -7515.3824 298.9661 -743.6410 -697.8115 30515.9042 -217.2521 -141.5230
ENERGY: 1500000 1.9697 1.7527 0.8486 0.0000 -10594.7079 1326.4934 0.0000 0.0000 1802.4570 -7461.1867 305.6572 -9263.6436 -7511.0999 299.5298 -563.4620 -507.0046 30115.3899 -228.0142 -155.1558
TCL: Running FEP window  10: Lambda1 0.44999999999999996 Lambda2 0.49999999999999994 [dLambda 0.04999999999999999]
TCL: Setting parameter firsttimestep to 0
TCL: Setting parameter alchLambda to 0.44999999999999996
Info: NONBONDED TABLE R-SQUARED SPACING: 0.0625
Info: NONBONDED TABLE SIZE: 705 POINTS
TCL: Setting parameter alchLambda2 to 0.49999999999999994
Info: NONBONDED TABLE R-SQUARED SPACING: 0.0625
Info: NONBONDED TABLE SIZE: 705 POINTS
TCL: Running for 1500000 steps
ETITLE: TS BOND ANGLE DIHED IMPRP ELECT VDW BOUNDARY MISC KINETIC TOTAL TEMP POTENTIAL TOTALAVG TEMPAVG PRESSURE GPRESSURE VOLUME PRESSAVG GPRESSAVG
ENERGY: 0 1.9697 1.7527 0.8486 0.0000 -10594.7083 1326.1939 0.0000 0.0000 1801.5797 -7462.3638 305.5084 -9263.9435 -7462.3638 305.5084 -585.5706 -503.5460 30115.3899 -585.5706 -503.5460
ENERGY: 300000 5.7486 4.1855 2.3348 0.0000 -10799.9442 1480.1238 0.0000 0.0000 1782.7424 -7524.8091 302.3140 -9307.5515 -7482.9868 304.2107 325.3407 373.9258 30270.1935 15.2893 64.3459
ENERGY: 600000 1.7272 3.2618 1.5907 0.0000 -10742.3060 1478.1983 0.0000 0.0000 1758.5446 -7498.9834 298.2106 -9257.5281 -7493.3041 302.9344 97.8158 162.7631 30710.5542 72.7892 115.5413
ENERGY: 900000 1.3455 2.4842 2.5053 0.0000 -10746.5742 1481.0487 0.0000 0.0000 1772.5747 -7486.6158 300.5898 -9259.1905 -7506.0414 301.3938 363.2868 460.6227 30259.1389 -65.2601 -17.5474
ENERGY: 1200000 3.0928 2.2962 3.3031 0.0000 -10770.5734 1434.1056 0.0000 0.0000 1783.2327 -7544.5430 302.3971 -9327.7757 -7515.2161 300.5807 -549.8244 -415.7158 30844.4761 -156.5487 -99.6702
ENERGY: 1500000 1.2489 1.6239 3.0135 0.0000 -10819.4162 1578.6028 0.0000 0.0000 1776.8943 -7458.0327 301.3223 -9234.9270 -7506.2770 300.5355 1070.6636 1150.9017 30626.9644 -85.5178 -31.3224
TCL: Running FEP window  11: Lambda1 0.49999999999999994 Lambda2 0.5499999999999999 [dLambda 0.04999999999999999]
TCL: Setting parameter firsttimestep to 0
TCL: Setting parameter alchLambda to 0.49999999999999994
Info: NONBONDED TABLE R-SQUARED SPACING: 0.0625
Info: NONBONDED TABLE SIZE: 705 POINTS
TCL: Setting parameter alchLambda2 to 0.5499999999999999
Info: NONBONDED TABLE R-SQUARED SPACING: 0.0625
Info: NONBONDED TABLE SIZE: 705 POINTS
TCL: Running for 1500000 steps
ETITLE: TS BOND ANGLE DIHED IMPRP ELECT VDW BOUNDARY MISC KINETIC TOTAL TEMP POTENTIAL TOTALAVG TEMPAVG PRESSURE GPRESSURE VOLUME PRESSAVG GPRESSAVG
ENERGY: 0 1.2489 1.6239 3.0135 0.0000 -10819.4160 1578.7268 0.0000 0.0000 1776.0148 -7458.7879 301.1731 -9234.8028 -7458.7879 301.1731 1075.4357 1157.2026 30626.9644 1075.4357 1157.2026
ENERGY: 300000 3.7128 4.4922 1.3821 0.0000 -10793.4179 1410.4174 0.0000 0.0000 1801.2349 -7572.1785 305.4499 -9373.4134 -7513.0853 303.0804 -746.5224 -739.0484 30821.3739 -121.0511 -55.5308
ENERGY: 600000 2.6272 2.4365 6.6075 0.0000 -10889.1309 1547.3843 0.0000 0.0000 1836.3540 -7493.7216 311.4053 -9330.0755 -7517.8750 303.7057 746.1521 920.5865 30197.4028 258.0929 333.0544
ENERGY: 900000 2.9837 4.4859 1.9806 0.0000 -10823.0118 1492.5140 0.0000 0.0000 1673.8023 -7647.2453 283.8402 -9321.0476 -7534.8194 301.0223 50.1218 105.4129 30411.7824 268.5207 342.0393
ENERGY: 1200000 0.6625 2.6402 3.2597 0.0000 -10589.7559 1411.1421 0.0000 0.0000 1796.5772 -7375.4742 304.6601 -9172.0514 -7517.2662 301.2011 261.9105 301.2156 30175.5616 276.9414 341.0938
ENERGY: 1500000 4.2869 4.2356 3.6158 0.0000 -10751.0936 1470.0776 0.0000 0.0000 1756.0438 -7512.8340 297.7865 -9268.8778 -7524.1920 299.6912 117.7883 140.2324 30331.3443 118.6914 183.2456
TCL: Running FEP window  12: Lambda1 0.5499999999999999 Lambda2 0.6    [dLambda 0.050000000000000044]
TCL: Setting parameter firsttimestep to 0
TCL: Setting parameter alchLambda to 0.5499999999999999
Info: NONBONDED TABLE R-SQUARED SPACING: 0.0625
Info: NONBONDED TABLE SIZE: 705 POINTS
TCL: Setting parameter alchLambda2 to 0.6
Info: NONBONDED TABLE R-SQUARED SPACING: 0.0625
Info: NONBONDED TABLE SIZE: 705 POINTS
TCL: Running for 1500000 steps
ETITLE: TS BOND ANGLE DIHED IMPRP ELECT VDW BOUNDARY MISC KINETIC TOTAL TEMP POTENTIAL TOTALAVG TEMPAVG PRESSURE GPRESSURE VOLUME PRESSAVG GPRESSAVG
ENERGY: 0 4.2869 4.2356 3.6158 0.0000 -10750.9323 1471.0866 0.0000 0.0000 1755.1377 -7512.5698 297.6328 -9267.7075 -7512.5698 297.6328 76.0271 154.5833 30331.3443 76.0271 154.5833
ENERGY: 300000 2.0528 2.5444 1.1384 0.0000 -10742.3104 1463.9668 0.0000 0.0000 1776.5634 -7496.0447 301.2662 -9272.6081 -7521.0830 302.3780 274.8572 270.9895 30110.5687 322.5354 362.8983
ENERGY: 600000 0.9564 3.9561 3.2290 0.0000 -10843.4151 1424.9275 0.0000 0.0000 1789.0104 -7621.3357 303.3769 -9410.3461 -7537.0522 301.1880 -441.5218 -404.8597 30328.2549 155.3278 181.0111
ENERGY: 900000 2.4411 2.9385 1.5652 0.0000 -10650.6536 1413.8142 0.0000 0.0000 1756.5257 -7473.3688 297.8682 -9229.8945 -7531.4709 298.6090 -185.4121 -73.7508 30745.1590 172.6793 219.7699
ENERGY: 1200000 2.4629 5.3360 1.2836 0.0000 -10729.0019 1457.5442 0.0000 0.0000 1821.5258 -7440.8494 308.8908 -9262.3752 -7526.6826 299.0569 37.1004 121.3848 30511.6336 65.0950 118.0655
ENERGY: 1500000 2.4892 4.8371 1.8977 0.0000 -10758.0095 1474.8785 0.0000 0.0000 1754.5244 -7519.3827 297.5288 -9273.9071 -7526.0876 299.5752 190.1320 288.8673 30434.5487 11.3495 71.4464
TCL: Running FEP window  13: Lambda1 0.6    Lambda2 0.65   [dLambda 0.050000000000000044]
TCL: Setting parameter firsttimestep to 0
TCL: Setting parameter alchLambda to 0.6
Info: NONBONDED TABLE R-SQUARED SPACING: 0.0625
Info: NONBONDED TABLE SIZE: 705 POINTS
TCL: Setting parameter alchLambda2 to 0.65
Info: NONBONDED TABLE R-SQUARED SPACING: 0.0625
Info: NONBONDED TABLE SIZE: 705 POINTS
TCL: Running for 1500000 steps
ETITLE: TS BOND ANGLE DIHED IMPRP ELECT VDW BOUNDARY MISC KINETIC TOTAL TEMP POTENTIAL TOTALAVG TEMPAVG PRESSURE GPRESSURE VOLUME PRESSAVG GPRESSAVG
ENERGY: 0 2.4892 4.8371 1.8977 0.0000 -10757.8289 1475.9793 0.0000 0.0000 1753.6642 -7518.9615 297.3830 -9272.6257 -7518.9615 297.3830 223.4633 307.6378 30434.5487 223.4633 307.6378
ENERGY: 300000 2.9931 3.1385 3.6342 0.0000 -10734.6260 1466.7696 0.0000 0.0000 1764.4226 -7493.6681 299.2074 -9258.0907 -7492.5145 300.4292 307.6282 406.6796 30223.3244 61.8599 124.7531
ENERGY: 600000 2.5293 2.5260 1.4241 0.0000 -10808.9435 1438.8605 0.0000 0.0000 1722.9851 -7640.6185 292.1805 -9363.6036 -7520.3864 298.9805 -150.2112 -80.8897 30015.6824 -121.0615 -53.5780
ENERGY: 900000 1.6299 2.0008 1.4657 0.0000 -10781.4112 1467.6242 0.0000 0.0000 1733.5548 -7575.1358 293.9729 -9308.6906 -7528.0959 298.1141 306.2261 313.1700 30236.6120 40.8849 105.9970
ENERGY: 1200000 2.3783 5.0198 1.7701 0.0000 -10678.1720 1379.5380 0.0000 0.0000 1743.5975 -7545.8684 295.6759 -9289.4658 -7518.1939 298.2319 -725.5242 -726.1509 30859.5130 -7.8271 61.4792
ENERGY: 1500000 1.4034 6.2159 1.9605 0.0000 -10796.7001 1446.2012 0.0000 0.0000 1743.2426 -7597.6765 295.6157 -9340.9191 -7522.3109 298.0277 -191.2415 -88.3632 30261.7183 -23.1615 43.6683
TCL: Running FEP window  14: Lambda1 0.65   Lambda2 0.7000000000000001 [dLambda 0.050000000000000044]
TCL: Setting parameter firsttimestep to 0
TCL: Setting parameter alchLambda to 0.65
Info: NONBONDED TABLE R-SQUARED SPACING: 0.0625
Info: NONBONDED TABLE SIZE: 705 POINTS
TCL: Setting parameter alchLambda2 to 0.7000000000000001
Info: NONBONDED TABLE R-SQUARED SPACING: 0.0625
Info: NONBONDED TABLE SIZE: 705 POINTS
TCL: Running for 1500000 steps
ETITLE: TS BOND ANGLE DIHED IMPRP ELECT VDW BOUNDARY MISC KINETIC TOTAL TEMP POTENTIAL TOTALAVG TEMPAVG PRESSURE GPRESSURE VOLUME PRESSAVG GPRESSAVG
ENERGY: 0 1.4033 6.2159 1.9605 0.0000 -10796.8684 1445.7598 0.0000 0.0000 1742.3794 -7599.1495 295.4693 -9341.5289 -7599.1495 295.4693 -164.8915 -83.3802 30261.7183 -164.8915 -83.3802
ENERGY: 300000 1.3659 6.2372 3.5571 0.0000 -10773.4206 1512.2742 0.0000 0.0000 1756.6726 -7493.3136 297.8931 -9249.9863 -7516.0958 299.6059 687.2692 791.0113 30186.8413 37.9916 97.1938
ENERGY: 600000 2.9124 6.3416 1.6204 0.0000 -10600.0126 1431.5359 0.0000 0.0000 1706.9176 -7450.6847 289.4558 -9157.6023 -7494.7651 298.9819 -49.7380 27.8249 30815.1075 -217.1831 -161.0310
ENERGY: 900000 2.5424 3.1455 3.0302 0.0000 -10578.3608 1332.6282 0.0000 0.0000 1756.7562 -7480.2585 297.9073 -9237.0146 -7481.0141 300.6101 -925.2465 -771.8251 30787.5027 -337.9809 -262.6574
ENERGY: 1200000 1.4179 4.4231 0.9644 0.0000 -10765.4364 1450.6849 0.0000 0.0000 1775.4418 -7532.5043 301.0760 -9307.9460 -7493.7668 300.9213 147.6473 131.0024 30438.1582 -239.6371 -171.7953
ENERGY: 1500000 0.4430 3.6750 0.6192 0.0000 -10557.1803 1369.1810 0.0000 0.0000 1813.5810 -7369.6812 307.5436 -9183.2622 -7481.5170 302.0375 -420.6965 -361.3464 30872.0187 -255.7945 -186.2515
TCL: Running FEP window  15: Lambda1 0.7000000000000001 Lambda2 0.7500000000000001 [dLambda 0.050000000000000044]
TCL: Setting parameter firsttimestep to 0
TCL: Setting parameter alchLambda to 0.7000000000000001
Info: NONBONDED TABLE R-SQUARED SPACING: 0.0625
Info: NONBONDED TABLE SIZE: 705 POINTS
TCL: Setting parameter alchLambda2 to 0.7500000000000001
Info: NONBONDED TABLE R-SQUARED SPACING: 0.0625
Info: NONBONDED TABLE SIZE: 705 POINTS
TCL: Running for 1500000 steps
ETITLE: TS BOND ANGLE DIHED IMPRP ELECT VDW BOUNDARY MISC KINETIC TOTAL TEMP POTENTIAL TOTALAVG TEMPAVG PRESSURE GPRESSURE VOLUME PRESSAVG GPRESSAVG
ENERGY: 0 0.4430 3.6750 0.6192 0.0000 -10557.0300 1368.6107 0.0000 0.0000 1812.7136 -7370.9686 307.3965 -9183.6822 -7370.9686 307.3965 -463.9524 -363.2299 30872.0187 -463.9524 -363.2299
ENERGY: 300000 2.2785 2.4960 2.7864 0.0000 -10742.6122 1416.3047 0.0000 0.0000 1740.4609 -7578.2856 295.1440 -9318.7465 -7509.0759 296.4525 -643.6896 -618.1182 30889.0839 -176.4017 -113.7811
ENERGY: 600000 2.3437 5.1472 2.4034 0.0000 -10849.9519 1514.1059 0.0000 0.0000 1797.6021 -7528.3497 304.8339 -9325.9518 -7491.8708 298.1067 470.7164 602.8863 30203.8793 79.0964 126.5331
ENERGY: 900000 1.5777 3.5934 2.0907 0.0000 -10696.0979 1464.7369 0.0000 0.0000 1746.0442 -7478.0550 296.0908 -9224.0993 -7492.4075 299.0626 175.1377 246.6759 30549.0025 116.8140 161.7679
ENERGY: 1200000 2.1913 6.9217 1.6973 0.0000 -10839.8532 1481.1379 0.0000 0.0000 1765.0610 -7582.8438 299.3156 -9347.9048 -7496.4768 299.9784 82.6587 150.9555 30286.2928 114.7994 165.0724
ENERGY: 1500000 1.9603 5.5046 1.9147 0.0000 -10657.9104 1403.8062 0.0000 0.0000 1782.5357 -7462.1888 302.2790 -9244.7246 -7502.4907 300.4819 -231.2417 -133.7788 30499.0717 69.8681 134.0561
TCL: Running FEP window  16: Lambda1 0.7500000000000001 Lambda2 0.8000000000000002 [dLambda 0.050000000000000044]
TCL: Setting parameter firsttimestep to 0
TCL: Setting parameter alchLambda to 0.7500000000000001
Info: NONBONDED TABLE R-SQUARED SPACING: 0.0625
Info: NONBONDED TABLE SIZE: 705 POINTS
TCL: Setting parameter alchLambda2 to 0.8000000000000002
Info: NONBONDED TABLE R-SQUARED SPACING: 0.0625
Info: NONBONDED TABLE SIZE: 705 POINTS
TCL: Running for 1500000 steps
ETITLE: TS BOND ANGLE DIHED IMPRP ELECT VDW BOUNDARY MISC KINETIC TOTAL TEMP POTENTIAL TOTALAVG TEMPAVG PRESSURE GPRESSURE VOLUME PRESSAVG GPRESSAVG
ENERGY: 0 1.9603 5.5046 1.9147 0.0000 -10657.9639 1404.2234 0.0000 0.0000 1781.6256 -7462.7353 302.1246 -9244.3609 -7462.7353 302.1246 -217.3735 -123.5083 30499.0717 -217.3735 -123.5083
ENERGY: 300000 3.0818 3.8533 4.1123 0.0000 -10832.0808 1503.4930 0.0000 0.0000 1740.7961 -7576.7442 295.2008 -9317.5403 -7519.5751 297.6053 297.2203 379.5126 30313.5206 -21.5081 28.9879
ENERGY: 600000 1.7383 5.4842 5.8818 0.0000 -10718.7543 1449.6499 0.0000 0.0000 1766.6409 -7489.3593 299.5835 -9256.0002 -7518.0972 298.0429 121.1898 203.0507 30258.8447 27.9678 78.5412
ENERGY: 900000 2.2047 5.2409 2.8631 0.0000 -10766.4573 1477.9245 0.0000 0.0000 1793.3536 -7484.8705 304.1134 -9278.2241 -7521.3075 299.4484 128.4709 178.4217 30728.1890 22.8442 64.1351
ENERGY: 1200000 1.0906 7.6831 2.4096 0.0000 -10737.6364 1447.0692 0.0000 0.0000 1767.8899 -7511.4940 299.7953 -9279.3839 -7507.4494 301.2499 -8.3499 43.6673 30854.5348 72.9385 120.6801
ENERGY: 1500000 3.0497 6.4571 1.8302 0.0000 -10763.4656 1429.4649 0.0000 0.0000 1808.4278 -7514.2358 306.6697 -9322.6637 -7515.2549 300.8229 -61.7916 -5.3740 29963.1315 86.9396 135.6766
TCL: Running FEP window  17: Lambda1 0.8000000000000002 Lambda2 0.8500000000000002 [dLambda 0.050000000000000044]
TCL: Setting parameter firsttimestep to 0
TCL: Setting parameter alchLambda to 0.8000000000000002
Info: NONBONDED TABLE R-SQUARED SPACING: 0.0625
Info: NONBONDED TABLE SIZE: 705 POINTS
TCL: Setting parameter alchLambda2 to 0.8500000000000002
Info: NONBONDED TABLE R-SQUARED SPACING: 0.0625
Info: NONBONDED TABLE SIZE: 705 POINTS
TCL: Running for 1500000 steps
ETITLE: TS BOND ANGLE DIHED IMPRP ELECT VDW BOUNDARY MISC KINETIC TOTAL TEMP POTENTIAL TOTALAVG TEMPAVG PRESSURE GPRESSURE VOLUME PRESSAVG GPRESSAVG
ENERGY: 0 3.0497 6.4571 1.8302 0.0000 -10763.9440 1429.1939 0.0000 0.0000 1807.5387 -7515.8744 306.5189 -9323.4132 -7515.8744 306.5189 -74.9632 0.9001 29963.1315 -74.9632 0.9001
ENERGY: 300000 2.0645 4.5533 3.0096 0.0000 -10643.2078 1365.2475 0.0000 0.0000 1799.0216 -7469.3112 305.0746 -9268.3328 -7464.7878 305.6431 -672.7155 -643.5778 30919.0696 -268.4592 -197.8679
ENERGY: 600000 1.8068 2.9992 2.1354 0.0000 -10621.7456 1303.7966 0.0000 0.0000 1776.5181 -7534.4895 301.2585 -9311.0076 -7501.6471 302.0172 -1102.3454 -1023.8224 30504.2898 -340.8322 -287.2001
ENERGY: 900000 2.8945 2.3108 2.8735 0.0000 -10703.4562 1419.3589 0.0000 0.0000 1733.7599 -7542.2585 294.0076 -9276.0184 -7499.6662 301.3784 -329.5843 -307.9726 30649.7507 -339.5163 -291.5197
ENERGY: 1200000 1.8731 3.5544 1.6401 0.0000 -10727.8578 1418.0897 0.0000 0.0000 1783.1877 -7519.5129 302.3895 -9302.7006 -7500.3069 301.2937 -304.8192 -236.8114 30631.2160 -273.1609 -224.3704
ENERGY: 1500000 0.6907 3.4359 1.6662 0.0000 -10872.6458 1525.6351 0.0000 0.0000 1730.6528 -7610.5650 293.4807 -9341.2179 -7508.7916 299.7740 409.5126 534.8696 30528.9936 -189.3435 -130.6086
TCL: Running FEP window  18: Lambda1 0.8500000000000002 Lambda2 0.9000000000000002 [dLambda 0.050000000000000044]
TCL: Setting parameter firsttimestep to 0
TCL: Setting parameter alchLambda to 0.8500000000000002
Info: NONBONDED TABLE R-SQUARED SPACING: 0.0625
Info: NONBONDED TABLE SIZE: 705 POINTS
TCL: Setting parameter alchLambda2 to 0.9000000000000002
Info: NONBONDED TABLE R-SQUARED SPACING: 0.0625
Info: NONBONDED TABLE SIZE: 705 POINTS
TCL: Running for 1500000 steps
ETITLE: TS BOND ANGLE DIHED IMPRP ELECT VDW BOUNDARY MISC KINETIC TOTAL TEMP POTENTIAL TOTALAVG TEMPAVG PRESSURE GPRESSURE VOLUME PRESSAVG GPRESSAVG
ENERGY: 0 0.6907 3.4359 1.6662 0.0000 -10872.9791 1525.3637 0.0000 0.0000 1729.8030 -7612.0196 293.3366 -9341.8226 -7612.0196 293.3366 454.9931 538.8467 30528.9936 454.9931 538.8467
ENERGY: 300000 1.2567 4.2410 2.3878 0.0000 -10786.7378 1433.3810 0.0000 0.0000 1756.9372 -7588.5341 297.9380 -9345.4713 -7580.0805 295.0301 35.7218 61.8927 30164.6789 119.7526 181.9030
ENERGY: 600000 2.9930 1.4943 2.9070 0.0000 -10807.0248 1520.6722 0.0000 0.0000 1780.9331 -7498.0253 302.0072 -9278.9584 -7548.3062 298.6516 533.4507 592.8142 30687.6738 97.8261 155.5894
ENERGY: 900000 4.4407 4.9604 4.7797 0.0000 -10721.1696 1423.1397 0.0000 0.0000 1724.3275 -7559.5217 292.4081 -9283.8492 -7546.6380 298.5925 -337.8523 -249.6572 30596.2112 -34.5834 28.7745
ENERGY: 1200000 3.3878 4.2214 3.0903 0.0000 -10751.3801 1518.1244 0.0000 0.0000 1761.7671 -7460.7891 298.7570 -9222.5562 -7530.1979 298.6243 529.7251 605.2020 30489.0914 110.4952 171.5175
ENERGY: 1500000 1.3050 4.0496 2.6638 0.0000 -10800.7832 1482.8697 0.0000 0.0000 1727.5906 -7582.3046 292.9615 -9309.8952 -7530.6747 298.7956 253.2940 330.7108 30306.0974 154.4010 212.6859
TCL: Running FEP window  19: Lambda1 0.9000000000000002 Lambda2 0.9500000000000003 [dLambda 0.050000000000000044]
TCL: Setting parameter firsttimestep to 0
TCL: Setting parameter alchLambda to 0.9000000000000002
Info: NONBONDED TABLE R-SQUARED SPACING: 0.0625
Info: NONBONDED TABLE SIZE: 705 POINTS
TCL: Setting parameter alchLambda2 to 0.9500000000000003
Info: NONBONDED TABLE R-SQUARED SPACING: 0.0625
Info: NONBONDED TABLE SIZE: 705 POINTS
TCL: Running for 1500000 steps
ETITLE: TS BOND ANGLE DIHED IMPRP ELECT VDW BOUNDARY MISC KINETIC TOTAL TEMP POTENTIAL TOTALAVG TEMPAVG PRESSURE GPRESSURE VOLUME PRESSAVG GPRESSAVG
ENERGY: 0 1.3050 4.0496 2.6638 0.0000 -10801.4066 1482.7831 0.0000 0.0000 1726.6665 -7583.9387 292.8048 -9310.6052 -7583.9387 292.8048 248.3288 339.9897 30306.0974 248.3288 339.9897
ENERGY: 300000 2.6677 4.7560 2.2366 0.0000 -10789.9514 1476.8715 0.0000 0.0000 1754.7667 -7548.6529 297.5699 -9303.4195 -7542.9170 295.3921 299.4226 419.9489 30475.0015 104.4516 185.2150
ENERGY: 600000 3.9751 6.1222 2.1166 0.0000 -10802.3967 1477.6727 0.0000 0.0000 1729.4238 -7583.0864 293.2723 -9312.5101 -7519.7952 297.7211 -116.8762 -157.0579 30736.6168 -26.2877 27.9620
ENERGY: 900000 2.5033 6.7059 2.0783 0.0000 -10729.1587 1419.7540 0.0000 0.0000 1716.5603 -7581.5570 291.0910 -9298.1173 -7521.5006 297.7220 -620.7369 -511.9922 31103.2341 -178.3172 -117.6874
ENERGY: 1200000 4.6556 4.8862 3.9704 0.0000 -10694.6759 1418.1345 0.0000 0.0000 1829.6663 -7433.3629 310.2713 -9263.0292 -7511.1506 299.4407 -258.3386 -199.7963 30535.4973 -133.5569 -75.0473
ENERGY: 1500000 2.6338 2.6212 1.6759 0.0000 -10639.7326 1445.0067 0.0000 0.0000 1726.4781 -7461.3169 292.7728 -9187.7950 -7507.7443 298.9425 319.6959 332.2680 30427.5857 -91.0838 -31.9095
TCL: Running FEP window  20: Lambda1 0.9500000000000003 Lambda2 1.0    [dLambda 0.04999999999999971]
TCL: Setting parameter firsttimestep to 0
TCL: Setting parameter alchLambda to 0.9500000000000003
Info: NONBONDED TABLE R-SQUARED SPACING: 0.0625
Info: NONBONDED TABLE SIZE: 705 POINTS
TCL: Setting parameter alchLambda2 to 1.0
Info: NONBONDED TABLE R-SQUARED SPACING: 0.0625
Info: NONBONDED TABLE SIZE: 705 POINTS
TCL: Running for 1500000 steps
ETITLE: TS BOND ANGLE DIHED IMPRP ELECT VDW BOUNDARY MISC KINETIC TOTAL TEMP POTENTIAL TOTALAVG TEMPAVG PRESSURE GPRESSURE VOLUME PRESSAVG GPRESSAVG
ENERGY: 0 2.6338 2.6212 1.6759 0.0000 -10640.3982 1445.6492 0.0000 0.0000 1725.5844 -7462.2337 292.6213 -9187.8181 -7462.2337 292.6213 278.6439 354.2086 30427.5857 278.6439 354.2086
ENERGY: 300000 1.9184 6.6421 2.2056 0.0000 -10660.8507 1455.2830 0.0000 0.0000 1762.2912 -7432.5105 298.8459 -9194.8016 -7513.0718 296.7952 -1.9701 74.6292 31071.0042 74.7668 128.8338
ENERGY: 600000 2.0204 2.4162 5.4122 0.0000 -10777.9696 1450.9336 0.0000 0.0000 1806.2824 -7510.9048 306.3059 -9317.1872 -7509.3825 299.1167 -274.0833 -218.4692 30854.4054 50.1738 92.6176
ENERGY: 900000 1.2254 6.0582 4.1819 0.0000 -10669.2905 1401.1262 0.0000 0.0000 1781.5120 -7475.1867 302.1053 -9256.6987 -7509.2568 299.6672 -410.9200 -333.1672 30661.4307 67.1970 126.9726
ENERGY: 1200000 2.6958 2.8904 2.2637 0.0000 -10732.4652 1432.5988 0.0000 0.0000 1747.3317 -7544.6849 296.3091 -9292.0166 -7515.4140 299.6063 -178.5723 -135.3172 30541.5491 97.2384 154.7512
ENERGY: 1500000 0.9322 3.9667 4.0903 0.0000 -10697.3679 1443.7786 0.0000 0.0000 1755.6841 -7488.9160 297.7255 -9244.6001 -7510.9942 299.3905 -68.6564 -28.0735 30783.4444 70.2169 127.3745
TCL: Exiting due to exit command.
