Info: SIMULATION PARAMETERS:
Info: TIMESTEP               2
Info: NUMBER OF STEPS        0
Info: STEPS PER CYCLE        10
Info: PERIODIC CELL BASIS 1  31.2987 0 0
Info: PERIODIC CELL BASIS 2  0 31.2019 0
Info: PERIODIC CELL BASIS 3  0 0 30.2435
Info: PERIODIC CELL CENTER   0 0 0
Info: WRAPPING WATERS AROUND PERIODIC BOUNDARIES ON OUTPUT.
Info: WRAPPING ALL CLUSTERS AROUND PERIODIC BOUNDARIES ON OUTPUT.
Info: FIRST LDB TIMESTEP     50
Info: LAST LDB TIMESTEP     -1
Info: HOM BACKGROUND SCALING 1
Info: PME BACKGROUND SCALING 1
Info: MIN ATOMS PER PATCH    40
Info: EMPTY PATCH LOAD       40 ATOMS
Info: VELOCITY FILE          mobley_8118832_equil.vel
Info: CENTER OF MASS MOVING INITIALLY? NO
Info: DIELECTRIC             1
Info: EXCLUDE                SCALED ONE-FOUR
Info: 1-4 ELECTROSTATICS SCALED BY 0.833333
Info: MODIFIED 1-4 VDW PARAMETERS WILL BE USED
Info: DCD FILENAME           mobley_8118832_prod.dcd
Info: DCD FREQUENCY          100000
Info: DCD FIRST STEP         100000
Info: DCD FILE WILL CONTAIN UNIT CELL DATA
Info: XST FILENAME           mobley_8118832_prod.xst
Info: XST FREQUENCY          100000
Info: NO VELOCITY DCD OUTPUT
Info: NO FORCE DCD OUTPUT
Info: OUTPUT FILENAME        mobley_8118832_prod
Info: BINARY OUTPUT FILES WILL BE USED
Info: RESTART FILENAME       mobley_8118832_prod.restart
Info: RESTART FREQUENCY      100000
Info: BINARY RESTART FILES WILL BE USED
Info: CUTOFF                 9
Info: PAIRLIST DISTANCE      11
Info: PAIRLIST SHRINK RATE   0.01
Info: PAIRLIST GROW RATE     0.01
Info: PAIRLIST TRIGGER       0.3
Info: PAIRLISTS PER CYCLE    2
Info: PAIRLISTS ENABLED
Info: MARGIN                 2
Info: HYDROGEN GROUP CUTOFF  2.5
Info: PATCH DIMENSION        15.5
Info: ENERGY OUTPUT STEPS    100000
Info: ENERGY EVALUATION STEPS    100000
Info: OUTPUT ENERGY PRECISION 4
Info: CROSSTERM ENERGY INCLUDED IN DIHEDRAL
Info: TIMING OUTPUT STEPS    1000000
Info: PRESSURE OUTPUT STEPS  100000
Info: ALCHEMICAL FEP ON
Info: FEP CURRENT LAMBDA VALUE     0
Info: FEP COMPARISON LAMBDA VALUE  0.05
Info: FEP INTRA-ALCHEMICAL NON-BONDED INTERACTIONS WILL BE RETAINED
Info: FEP INTRA-ALCHEMICAL BONDED INTERACTIONS WILL BE RETAINED
Info: FEP VDW SHIFTING COEFFICIENT 5
Info: FEP ELEC. ACTIVE FOR ANNIHILATED PARTICLES BETWEEN LAMBDA = 0 AND LAMBDA = 0.5
Info: FEP ELEC. ACTIVE FOR EXNIHILATED PARTICLES BETWEEN LAMBDA = 0.5 AND LAMBDA = 1
Info: FEP VDW ACTIVE FOR ANNIHILATED PARTICLES BETWEEN LAMBDA = 0 AND LAMBDA = 1
Info: FEP VDW ACTIVE FOR EXNIHILATED PARTICLES BETWEEN LAMBDA = 0 AND LAMBDA = 1
Info: FEP BOND ACTIVE FOR ANNIHILATED PARTICLES BETWEEN LAMBDA = 1 AND LAMBDA = 1
Info: FEP BOND ACTIVE FOR EXNIHILATED PARTICLES BETWEEN LAMBDA = 0 AND LAMBDA = 0
Info: LANGEVIN DYNAMICS ACTIVE
Info: LANGEVIN TEMPERATURE   300
Info: LANGEVIN USING BBK INTEGRATOR
Info: LANGEVIN DAMPING COEFFICIENT IS 1 INVERSE PS
Info: LANGEVIN DYNAMICS APPLIED TO HYDROGENS
Info: LANGEVIN PISTON PRESSURE CONTROL ACTIVE
Info:        TARGET PRESSURE IS 1.01325 BAR
Info:     OSCILLATION PERIOD IS 50 FS
Info:             DECAY TIME IS 25 FS
Info:     PISTON TEMPERATURE IS 300 K
Info:       PRESSURE CONTROL IS GROUP-BASED
Info:    INITIAL STRAIN RATE IS -0.000108554 -0.000108554 -0.000108554
Info:       CELL FLUCTUATION IS ISOTROPIC
Info: PARTICLE MESH EWALD (PME) ACTIVE
Info: PME TOLERANCE               1e-06
Info: PME EWALD COEFFICIENT       0.348832
Info: PME INTERPOLATION ORDER     4
Info: PME GRID DIMENSIONS         32 32 32
Info: PME MAXIMUM GRID SPACING    1
Info: PME CALCULATION WILL BE PERFORMED ON GPU
Info: FULL ELECTROSTATIC EVALUATION FREQUENCY      2
Info: USING VERLET I (r-RESPA) MTS SCHEME.
Info: C1 SPLITTING OF LONG RANGE ELECTROSTATICS
Info: PLACING ATOMS IN PATCHES BY HYDROGEN GROUPS
Info: RIGID BONDS TO HYDROGEN : ALL
Info:         ERROR TOLERANCE : 1e-08
Info:          MAX ITERATIONS : 100
Info: RIGID WATER USING SETTLE ALGORITHM
Info: RANDOM NUMBER SEED     1743678640
Info: USE HYDROGEN BONDS?    NO
Info: Using AMBER format force field!
Info: AMBER PARM FILE        mobley_8118832.prmtop
Info: COORDINATE PDB         mobley_8118832.pdb
Info: Exclusions will be read from PARM file!
Info: SCNB (VDW SCALING)     2
Info: USING ARITHMETIC MEAN TO COMBINE L-J SIGMA PARAMETERS
Info: BINARY COORDINATES     mobley_8118832_equil.coor
Info: SUMMARY OF PARAMETERS:
Info: 8 BONDS
Info: 9 ANGLES
Info:   9 HARMONIC
Info:   0 COSINE-BASED
Info: 4 DIHEDRAL
Info: 0 IMPROPER
Info: 0 CROSSTERM
Info: 0 VDW
Info: 28 VDW_PAIRS
Info: 0 NBTHOLE_PAIRS
Info: To read alchdata from file: mobley_8118832.pdb
Info: To read alchflag data from column: 5
Info: STRUCTURE SUMMARY:
Info: 2902 ATOMS
Info: 2901 BONDS
Info: 13 ANGLES
Info: 15 DIHEDRALS
Info: 0 IMPROPERS
Info: 0 CROSSTERMS
Info: 2927 EXCLUSIONS
Info: 2898 RIGID BONDS
Info: ALCH: 0 ATOMS TO DISAPPEAR IN FINAL STATE
Info: ALCH: 10 ATOMS TO APPEAR IN FINAL STATE
Info: 5808 DEGREES OF FREEDOM
Info: 968 HYDROGEN GROUPS
Info: 3 ATOMS IN LARGEST HYDROGEN GROUP
Info: 968 MIGRATION GROUPS
Info: 3 ATOMS IN LARGEST MIGRATION GROUP
Info: TOTAL MASS = 17425.5 amu
Info: TOTAL CHARGE = -0.000200007 e
Info: MASS DENSITY = 0.979723 g/cm^3
Info: ATOM DENSITY = 0.0982553 atoms/A^3
Info: ADDED 0 IMPLICIT EXCLUSIONS
Info: NONBONDED TABLE R-SQUARED SPACING: 0.0625
Info: NONBONDED TABLE SIZE: 705 POINTS
Info: REDUCING NUMBER OF PATCHES TO IMPROVE LOAD BALANCE
Info: REMOVING COM VELOCITY 0.201846 -0.036452 0.0702211
Info: Use 3D box decompostion in PME FFT.
Info: Updated CUDA force table with 4096 elements.
Info: Updated CUDA LJ table with 7 x 7 elements.
Info: Found 13 unique exclusion lists needing 20 bytes
TCL: Running for 1500000 steps
ETITLE: TS BOND ANGLE DIHED IMPRP ELECT VDW BOUNDARY MISC KINETIC TOTAL TEMP POTENTIAL TOTALAVG TEMPAVG PRESSURE GPRESSURE VOLUME PRESSAVG GPRESSAVG
ENERGY: 0 0.9782 6.1640 0.5971 0.0000 -10531.6984 1422.1050 0.0000 0.0000 1791.3726 -7310.4815 310.4200 -9101.8541 -7310.4815 310.4200 128.9197 238.2406 29535.2905 128.9197 238.2406
ENERGY: 300000 1.7237 1.1246 0.2769 0.0000 -10486.1860 1382.3250 0.0000 0.0000 1781.2127 -7319.5231 308.6594 -9100.7358 -7364.1127 302.8135 -209.6174 -159.3642 29811.3622 -112.1764 -55.0686
ENERGY: 600000 0.1277 2.6283 0.5547 0.0000 -10474.2129 1345.7047 0.0000 0.0000 1787.5778 -7337.6196 309.7624 -9125.1974 -7355.8254 304.8020 -637.3362 -565.0429 29959.2108 -4.6614 68.8190
ENERGY: 900000 0.1894 2.2373 1.3793 0.0000 -10318.9695 1322.9573 0.0000 0.0000 1691.3332 -7300.8730 293.0846 -8992.2062 -7343.3727 302.4218 -563.5858 -495.2475 30009.0283 3.3464 76.3838
ENERGY: 1200000 0.7166 3.2849 0.9696 0.0000 -10446.9308 1378.0031 0.0000 0.0000 1788.0781 -7275.8786 309.8491 -9063.9567 -7347.1493 302.7385 -165.6261 -62.5037 29895.0355 -45.7789 36.4102
ENERGY: 1500000 1.0595 4.4135 1.0701 0.0000 -10575.2845 1437.7609 0.0000 0.0000 1732.8044 -7398.1762 300.2709 -9130.9806 -7359.8348 302.0302 192.5692 227.1797 29541.7755 -17.4830 60.0761
TCL: Running FEP window   2: Lambda1 0.05   Lambda2 0.1    [dLambda 0.05  ]
TCL: Setting parameter firsttimestep to 0
TCL: Setting parameter alchLambda to 0.05
Info: NONBONDED TABLE R-SQUARED SPACING: 0.0625
Info: NONBONDED TABLE SIZE: 705 POINTS
TCL: Setting parameter alchLambda2 to 0.1
Info: NONBONDED TABLE R-SQUARED SPACING: 0.0625
Info: NONBONDED TABLE SIZE: 705 POINTS
TCL: Running for 1500000 steps
ETITLE: TS BOND ANGLE DIHED IMPRP ELECT VDW BOUNDARY MISC KINETIC TOTAL TEMP POTENTIAL TOTALAVG TEMPAVG PRESSURE GPRESSURE VOLUME PRESSAVG GPRESSAVG
ENERGY: 0 1.0595 4.4135 1.0701 0.0000 -10575.2822 1439.0988 0.0000 0.0000 1731.8948 -7397.7456 300.1133 -9129.6404 -7397.7456 300.1133 166.2892 230.4899 29541.7755 166.2892 230.4899
ENERGY: 300000 0.7190 1.9044 0.3641 0.0000 -10418.8244 1376.3845 0.0000 0.0000 1677.9004 -7361.5521 290.7568 -9039.4525 -7383.6139 299.9372 -321.3319 -251.6292 30063.6785 94.1410 150.3270
ENERGY: 600000 3.2192 2.1095 0.1519 0.0000 -10513.5919 1401.4477 0.0000 0.0000 1744.8486 -7361.8150 302.3580 -9106.6636 -7371.2982 300.0420 -9.8855 60.5032 29818.0197 119.5008 187.9040
ENERGY: 900000 1.5664 2.3366 0.4577 0.0000 -10697.7308 1526.6589 0.0000 0.0000 1720.7710 -7445.9401 298.1857 -9166.7111 -7378.0893 300.5179 625.3515 688.0394 29637.5432 162.1667 230.4994
ENERGY: 1200000 0.2501 2.8565 1.2645 0.0000 -10482.7303 1367.7750 0.0000 0.0000 1762.4995 -7348.0847 305.4167 -9110.5842 -7380.2964 301.2741 -377.5524 -313.0218 29809.7433 93.4506 156.0201
ENERGY: 1500000 0.3927 2.4116 1.1321 0.0000 -10348.9360 1312.4119 0.0000 0.0000 1748.4611 -7284.1265 302.9840 -9032.5876 -7380.5235 300.6710 -759.5906 -669.7630 30096.9694 -8.4583 54.5510
TCL: Running FEP window   3: Lambda1 0.1    Lambda2 0.15000000000000002 [dLambda 0.05000000000000002]
TCL: Setting parameter firsttimestep to 0
TCL: Setting parameter alchLambda to 0.1
Info: NONBONDED TABLE R-SQUARED SPACING: 0.0625
Info: NONBONDED TABLE SIZE: 705 POINTS
TCL: Setting parameter alchLambda2 to 0.15000000000000002
Info: NONBONDED TABLE R-SQUARED SPACING: 0.0625
Info: NONBONDED TABLE SIZE: 705 POINTS
TCL: Running for 1500000 steps
ETITLE: TS BOND ANGLE DIHED IMPRP ELECT VDW BOUNDARY MISC KINETIC TOTAL TEMP POTENTIAL TOTALAVG TEMPAVG PRESSURE GPRESSURE VOLUME PRESSAVG GPRESSAVG
ENERGY: 0 0.3927 2.4116 1.1321 0.0000 -10348.9372 1316.4339 0.0000 0.0000 1747.6038 -7280.9631 302.8355 -9028.5669 -7280.9631 302.8355 -748.0217 -661.9501 30096.9694 -748.0217 -661.9501
ENERGY: 300000 0.4580 3.4667 2.2417 0.0000 -10612.2928 1515.7210 0.0000 0.0000 1758.5085 -7331.8970 304.7251 -9090.4054 -7302.9915 303.6974 789.2973 880.3679 29552.2122 48.5092 122.3491
ENERGY: 600000 0.9326 3.4831 0.8166 0.0000 -10488.8065 1316.2034 0.0000 0.0000 1757.9969 -7409.3737 304.6365 -9167.3707 -7329.7234 303.3660 -872.6020 -782.9882 29500.8367 -159.3406 -78.7685
ENERGY: 900000 1.6236 2.5620 0.6503 0.0000 -10539.4481 1443.6409 0.0000 0.0000 1751.7717 -7339.1997 303.5577 -9090.9714 -7342.0323 303.5988 628.9463 689.8062 29256.7940 -50.0665 24.0364
ENERGY: 1200000 1.0911 2.0950 1.4441 0.0000 -10547.7395 1354.8433 0.0000 0.0000 1742.7183 -7445.5476 301.9889 -9188.2660 -7352.8736 302.4285 -498.0591 -496.1371 29727.0285 -80.1223 -17.0025
ENERGY: 1500000 1.7285 2.7669 1.7606 0.0000 -10463.0176 1369.7048 0.0000 0.0000 1789.2540 -7297.8028 310.0529 -9087.0567 -7356.3023 303.0469 -632.1646 -547.5146 30032.9179 -84.1981 -29.0943
TCL: Running FEP window   4: Lambda1 0.15000000000000002 Lambda2 0.2    [dLambda 0.04999999999999999]
TCL: Setting parameter firsttimestep to 0
TCL: Setting parameter alchLambda to 0.15000000000000002
Info: NONBONDED TABLE R-SQUARED SPACING: 0.0625
Info: NONBONDED TABLE SIZE: 705 POINTS
TCL: Setting parameter alchLambda2 to 0.2
Info: NONBONDED TABLE R-SQUARED SPACING: 0.0625
Info: NONBONDED TABLE SIZE: 705 POINTS
TCL: Running for 1500000 steps
ETITLE: TS BOND ANGLE DIHED IMPRP ELECT VDW BOUNDARY MISC KINETIC TOTAL TEMP POTENTIAL TOTALAVG TEMPAVG PRESSURE GPRESSURE VOLUME PRESSAVG GPRESSAVG
ENERGY: 0 1.7285 2.7669 1.7606 0.0000 -10463.0188 1370.3395 0.0000 0.0000 1788.4456 -7297.9776 309.9128 -9086.4232 -7297.9776 309.9128 -632.3822 -541.4339 30032.9179 -632.3822 -541.4339
ENERGY: 300000 0.9795 4.6135 1.1416 0.0000 -10476.0097 1343.2810 0.0000 0.0000 1737.5125 -7388.4817 301.0868 -9125.9941 -7345.2570 304.1324 -624.9373 -541.0624 29699.7027 -288.5291 -189.3800
ENERGY: 600000 0.7170 2.6460 1.2602 0.0000 -10480.6316 1388.4146 0.0000 0.0000 1740.7821 -7346.8117 301.6534 -9087.5938 -7354.6265 302.4595 -162.4170 -142.4541 30025.1073 -225.1424 -147.9849
ENERGY: 900000 0.5015 1.9403 0.3138 0.0000 -10575.7540 1497.6306 0.0000 0.0000 1783.0276 -7292.3404 308.9739 -9075.3679 -7359.5410 302.9593 957.1829 955.9686 29427.9519 -141.0104 -69.9353
ENERGY: 1200000 1.0324 2.9683 0.1960 0.0000 -10569.1476 1488.3525 0.0000 0.0000 1759.6271 -7316.9714 304.9189 -9076.5984 -7359.3129 302.0213 503.4018 562.9155 29964.2519 -67.1132 3.2643
ENERGY: 1500000 0.4646 4.6055 1.9217 0.0000 -10459.4376 1353.4432 0.0000 0.0000 1812.9089 -7286.0938 314.1520 -9099.0027 -7365.0049 302.7587 -307.6630 -262.7088 29626.5772 -60.8677 7.3936
TCL: Running FEP window   5: Lambda1 0.2    Lambda2 0.25   [dLambda 0.04999999999999999]
TCL: Setting parameter firsttimestep to 0
TCL: Setting parameter alchLambda to 0.2
Info: NONBONDED TABLE R-SQUARED SPACING: 0.0625
Info: NONBONDED TABLE SIZE: 705 POINTS
TCL: Setting parameter alchLambda2 to 0.25
Info: NONBONDED TABLE R-SQUARED SPACING: 0.0625
Info: NONBONDED TABLE SIZE: 705 POINTS
TCL: Running for 1500000 steps
ETITLE: TS BOND ANGLE DIHED IMPRP ELECT VDW BOUNDARY MISC KINETIC TOTAL TEMP POTENTIAL TOTALAVG TEMPAVG PRESSURE GPRESSURE VOLUME PRESSAVG GPRESSAVG
ENERGY: 0 0.4646 4.6055 1.9217 0.0000 -10459.4371 1354.7974 0.0000 0.0000 1812.0616 -7285.5863 314.0051 -9097.6479 -7285.5863 314.0051 -310.7234 -254.5315 29626.5772 -310.7234 -254.5315
ENERGY: 300000 1.7366 1.9341 1.0437 0.0000 -10615.1933 1501.9241 0.0000 0.0000 1759.8370 -7348.7178 304.9553 -9108.5548 -7296.3416 307.5694 773.9253 812.7085 29674.2891 164.0603 227.6294
ENERGY: 600000 1.7803 2.9387 1.3974 0.0000 -10568.0110 1458.5505 0.0000 0.0000 1704.0853 -7399.2588 295.2943 -9103.3441 -7314.4832 304.1169 456.1889 520.7658 29479.8751 90.9901 158.1670
ENERGY: 900000 0.5545 1.0391 1.6015 0.0000 -10578.4686 1429.3003 0.0000 0.0000 1788.7309 -7357.2422 309.9622 -9145.9731 -7329.5056 303.8460 -159.9207 -138.1063 30359.6640 164.9929 220.4357
ENERGY: 1200000 1.1092 1.7768 1.9546 0.0000 -10485.0995 1364.6274 0.0000 0.0000 1830.0712 -7285.5604 317.1259 -9115.6316 -7320.2672 304.6600 -131.7801 -92.7537 29409.5113 172.5828 226.5041
ENERGY: 1500000 0.0746 1.9496 0.1967 0.0000 -10322.6244 1286.4593 0.0000 0.0000 1707.4343 -7326.5099 295.8747 -9033.9442 -7333.2490 303.7820 -778.0513 -784.1621 29837.1265 81.3274 127.4611
TCL: Running FEP window   6: Lambda1 0.25   Lambda2 0.3    [dLambda 0.04999999999999999]
TCL: Setting parameter firsttimestep to 0
TCL: Setting parameter alchLambda to 0.25
Info: NONBONDED TABLE R-SQUARED SPACING: 0.0625
Info: NONBONDED TABLE SIZE: 705 POINTS
TCL: Setting parameter alchLambda2 to 0.3
Info: NONBONDED TABLE R-SQUARED SPACING: 0.0625
Info: NONBONDED TABLE SIZE: 705 POINTS
TCL: Running for 1500000 steps
ETITLE: TS BOND ANGLE DIHED IMPRP ELECT VDW BOUNDARY MISC KINETIC TOTAL TEMP POTENTIAL TOTALAVG TEMPAVG PRESSURE GPRESSURE VOLUME PRESSAVG GPRESSAVG
ENERGY: 0 0.0746 1.9496 0.1967 0.0000 -10322.6237 1286.7707 0.0000 0.0000 1706.5241 -7327.1080 295.7169 -9033.6321 -7327.1080 295.7169 -857.9850 -780.8651 29837.1265 -857.9850 -780.8651
ENERGY: 300000 0.2301 3.4819 0.1016 0.0000 -10484.4668 1402.8853 0.0000 0.0000 1717.6459 -7360.1221 297.6442 -9077.7680 -7339.3790 300.3444 -36.2932 16.8470 29814.3028 -506.3218 -455.6001
ENERGY: 600000 1.0332 3.4088 0.2023 0.0000 -10470.7082 1367.9652 0.0000 0.0000 1733.7685 -7364.3302 300.4380 -9098.0986 -7364.2249 299.8829 -257.0771 -237.4630 29801.4867 -364.4405 -314.5293
ENERGY: 900000 1.0053 4.8926 1.7705 0.0000 -10616.1543 1441.0806 0.0000 0.0000 1719.5485 -7447.8568 297.9739 -9167.4053 -7366.2573 301.1677 -203.8003 -175.2097 30023.7874 -275.1361 -230.5277
ENERGY: 1200000 0.8559 2.3467 1.2595 0.0000 -10620.6948 1468.3400 0.0000 0.0000 1723.3195 -7424.5731 298.6274 -9147.8926 -7375.8010 300.2588 465.3363 516.5693 29714.0460 -190.9261 -144.7316
ENERGY: 1500000 0.3582 4.3771 1.1543 0.0000 -10445.9697 1351.6991 0.0000 0.0000 1740.9118 -7347.4693 301.6759 -9088.3812 -7375.2844 299.7920 -216.1525 -217.6730 29594.2308 -210.8257 -168.5084
TCL: Running FEP window   7: Lambda1 0.3    Lambda2 0.35   [dLambda 0.04999999999999999]
TCL: Setting parameter firsttimestep to 0
TCL: Setting parameter alchLambda to 0.3
Info: NONBONDED TABLE R-SQUARED SPACING: 0.0625
Info: NONBONDED TABLE SIZE: 705 POINTS
TCL: Setting parameter alchLambda2 to 0.35
Info: NONBONDED TABLE R-SQUARED SPACING: 0.0625
Info: NONBONDED TABLE SIZE: 705 POINTS
TCL: Running for 1500000 steps
ETITLE: TS BOND ANGLE DIHED IMPRP ELECT VDW BOUNDARY MISC KINETIC TOTAL TEMP POTENTIAL TOTALAVG TEMPAVG PRESSURE GPRESSURE VOLUME PRESSAVG GPRESSAVG
ENERGY: 0 0.3582 4.3771 1.1543 0.0000 -10445.9708 1353.0660 0.0000 0.0000 1740.0209 -7346.9944 301.5215 -9087.0153 -7346.9944 301.5215 -277.1530 -204.8979 29594.2308 -277.1530 -204.8979
ENERGY: 300000 0.1132 3.5883 1.2815 0.0000 -10530.1727 1521.7528 0.0000 0.0000 1779.0438 -7224.3930 308.2836 -9003.4368 -7324.3083 301.9997 1160.0811 1273.2548 29956.4247 308.6812 419.6196
ENERGY: 600000 0.0930 7.5427 0.7951 0.0000 -10419.5594 1324.2027 0.0000 0.0000 1719.6019 -7367.3241 297.9831 -9086.9259 -7337.9156 300.3314 -813.0080 -713.5015 30046.5961 237.1308 333.8071
ENERGY: 900000 0.6696 4.2998 2.7642 0.0000 -10569.7527 1391.2815 0.0000 0.0000 1744.2840 -7426.4536 302.2602 -9170.7376 -7365.0778 300.3555 -341.6519 -279.1869 29729.8407 213.4249 296.2630
ENERGY: 1200000 0.3176 1.8510 0.9926 0.0000 -10462.2809 1371.7784 0.0000 0.0000 1751.8631 -7335.4780 303.5736 -9087.3411 -7370.2594 299.6661 -437.9758 -417.4770 30110.8011 161.8109 236.0671
ENERGY: 1500000 0.8337 2.3940 0.1983 0.0000 -10504.3110 1440.6951 0.0000 0.0000 1718.8114 -7341.3785 297.8462 -9060.1899 -7370.4331 300.0982 275.5181 314.2581 30081.0001 128.0165 195.6763
TCL: Running FEP window   8: Lambda1 0.35   Lambda2 0.39999999999999997 [dLambda 0.04999999999999999]
TCL: Setting parameter firsttimestep to 0
TCL: Setting parameter alchLambda to 0.35
Info: NONBONDED TABLE R-SQUARED SPACING: 0.0625
Info: NONBONDED TABLE SIZE: 705 POINTS
TCL: Setting parameter alchLambda2 to 0.39999999999999997
Info: NONBONDED TABLE R-SQUARED SPACING: 0.0625
Info: NONBONDED TABLE SIZE: 705 POINTS
TCL: Running for 1500000 steps
ETITLE: TS BOND ANGLE DIHED IMPRP ELECT VDW BOUNDARY MISC KINETIC TOTAL TEMP POTENTIAL TOTALAVG TEMPAVG PRESSURE GPRESSURE VOLUME PRESSAVG GPRESSAVG
ENERGY: 0 0.8337 2.3940 0.1983 0.0000 -10504.3087 1440.3122 0.0000 0.0000 1717.8985 -7342.6719 297.6880 -9060.5704 -7342.6719 297.6880 243.0266 316.4576 30081.0001 243.0266 316.4576
ENERGY: 300000 1.5767 1.3632 0.9049 0.0000 -10492.2540 1384.6524 0.0000 0.0000 1718.3786 -7385.3782 297.7712 -9103.7569 -7390.3237 298.7611 -387.5537 -294.6014 29838.8217 -10.5423 62.7599
ENERGY: 600000 1.1727 2.1779 0.1837 0.0000 -10555.9261 1397.4838 0.0000 0.0000 1744.3796 -7410.5285 302.2768 -9154.9081 -7394.3284 298.8892 -369.2731 -299.4725 29769.3336 -119.8268 -42.8039
ENERGY: 900000 0.1590 2.4914 1.9869 0.0000 -10556.2075 1391.5963 0.0000 0.0000 1739.2788 -7420.6951 301.3929 -9159.9739 -7393.3018 298.5730 -402.0086 -282.2875 29736.6093 -151.6597 -73.1853
ENERGY: 1200000 0.2936 3.6747 0.4678 0.0000 -10630.6273 1475.1701 0.0000 0.0000 1765.5296 -7385.4914 305.9418 -9151.0210 -7381.7109 299.9878 371.6705 431.8753 29830.6178 -154.5405 -78.5266
ENERGY: 1500000 2.0177 2.0070 1.0811 0.0000 -10620.6496 1493.4789 0.0000 0.0000 1755.1087 -7366.9563 304.1360 -9122.0649 -7382.1391 299.6188 377.1938 453.5680 30194.9661 -93.2453 -18.6758
TCL: Running FEP window   9: Lambda1 0.39999999999999997 Lambda2 0.44999999999999996 [dLambda 0.04999999999999999]
TCL: Setting parameter firsttimestep to 0
TCL: Setting parameter alchLambda to 0.39999999999999997
Info: NONBONDED TABLE R-SQUARED SPACING: 0.0625
Info: NONBONDED TABLE SIZE: 705 POINTS
TCL: Setting parameter alchLambda2 to 0.44999999999999996
Info: NONBONDED TABLE R-SQUARED SPACING: 0.0625
Info: NONBONDED TABLE SIZE: 705 POINTS
TCL: Running for 1500000 steps
ETITLE: TS BOND ANGLE DIHED IMPRP ELECT VDW BOUNDARY MISC KINETIC TOTAL TEMP POTENTIAL TOTALAVG TEMPAVG PRESSURE GPRESSURE VOLUME PRESSAVG GPRESSAVG
ENERGY: 0 2.0177 2.0070 1.0811 0.0000 -10620.6489 1493.3140 0.0000 0.0000 1754.2467 -7367.9824 303.9866 -9122.2290 -7367.9824 303.9866 380.2983 456.6034 30194.9661 380.2983 456.6034
ENERGY: 300000 0.3202 2.7101 1.2532 0.0000 -10572.5792 1409.9450 0.0000 0.0000 1707.0735 -7451.2773 295.8121 -9158.3508 -7401.5235 300.3929 -340.9337 -217.4796 29671.9535 -267.1234 -197.7180
ENERGY: 600000 1.4949 3.0767 1.2204 0.0000 -10520.4441 1374.3222 0.0000 0.0000 1667.6555 -7472.6744 288.9815 -9140.3299 -7415.5974 298.4073 -124.2147 -92.6515 29460.3750 -112.3873 -58.5048
ENERGY: 900000 0.9388 4.2764 1.2056 0.0000 -10499.9600 1421.9595 0.0000 0.0000 1787.2165 -7284.3632 309.6998 -9071.5797 -7398.2095 299.3699 106.5655 146.8405 30206.7539 -32.6925 27.7993
ENERGY: 1200000 1.1654 7.5203 0.6503 0.0000 -10464.2989 1360.9693 0.0000 0.0000 1709.1642 -7384.8294 296.1744 -9093.9936 -7398.5622 298.5176 -363.6249 -309.3580 29587.9632 -48.2067 17.9822
ENERGY: 1500000 0.5895 3.8338 0.6681 0.0000 -10375.4769 1307.1536 0.0000 0.0000 1697.8645 -7365.3674 294.2164 -9063.2319 -7388.9427 299.1489 -734.2534 -710.6423 29995.3099 -106.6685 -43.7915
TCL: Running FEP window  10: Lambda1 0.44999999999999996 Lambda2 0.49999999999999994 [dLambda 0.04999999999999999]
TCL: Setting parameter firsttimestep to 0
TCL: Setting parameter alchLambda to 0.44999999999999996
Info: NONBONDED TABLE R-SQUARED SPACING: 0.0625
Info: NONBONDED TABLE SIZE: 705 POINTS
TCL: Setting parameter alchLambda2 to 0.49999999999999994
Info: NONBONDED TABLE R-SQUARED SPACING: 0.0625
Info: NONBONDED TABLE SIZE: 705 POINTS
TCL: Running for 1500000 steps
ETITLE: TS BOND ANGLE DIHED IMPRP ELECT VDW BOUNDARY MISC KINETIC TOTAL TEMP POTENTIAL TOTALAVG TEMPAVG PRESSURE GPRESSURE VOLUME PRESSAVG GPRESSAVG
ENERGY: 0 0.5895 3.8338 0.6681 0.0000 -10375.4760 1306.7769 0.0000 0.0000 1696.9992 -7366.6085 294.0664 -9063.6077 -7366.6085 294.0664 -763.9061 -706.1218 29995.3099 -763.9061 -706.1218
ENERGY: 300000 0.6706 2.3151 0.6994 0.0000 -10478.4647 1351.7725 0.0000 0.0000 1721.7694 -7401.2377 298.3587 -9123.0072 -7420.3501 294.3175 -602.4264 -490.0847 29920.9719 -359.4542 -290.8529
ENERGY: 600000 0.5080 4.6070 0.8436 0.0000 -10502.7811 1447.9310 0.0000 0.0000 1725.9018 -7322.9896 299.0748 -9048.8914 -7402.0607 296.4268 702.2004 757.1802 29309.1329 22.9839 95.7736
ENERGY: 900000 0.3651 7.0791 0.5098 0.0000 -10603.1688 1456.1441 0.0000 0.0000 1733.2367 -7405.8339 300.3459 -9139.0706 -7415.1859 297.5137 290.1915 317.3510 29816.4267 67.2962 125.0204
ENERGY: 1200000 1.0882 2.7225 0.8996 0.0000 -10449.6632 1399.3198 0.0000 0.0000 1750.5708 -7295.0623 303.3496 -9045.6331 -7404.5774 298.8578 -96.9182 -11.0535 30058.3025 34.7419 93.9012
ENERGY: 1500000 0.7945 4.3736 1.4034 0.0000 -10522.7493 1390.9497 0.0000 0.0000 1749.0225 -7376.2056 303.0813 -9125.2282 -7389.7205 299.9888 -171.6147 -120.2764 29875.3187 44.9864 109.9964
TCL: Running FEP window  11: Lambda1 0.49999999999999994 Lambda2 0.5499999999999999 [dLambda 0.04999999999999999]
TCL: Setting parameter firsttimestep to 0
TCL: Setting parameter alchLambda to 0.49999999999999994
Info: NONBONDED TABLE R-SQUARED SPACING: 0.0625
Info: NONBONDED TABLE SIZE: 705 POINTS
TCL: Setting parameter alchLambda2 to 0.5499999999999999
Info: NONBONDED TABLE R-SQUARED SPACING: 0.0625
Info: NONBONDED TABLE SIZE: 705 POINTS
TCL: Running for 1500000 steps
ETITLE: TS BOND ANGLE DIHED IMPRP ELECT VDW BOUNDARY MISC KINETIC TOTAL TEMP POTENTIAL TOTALAVG TEMPAVG PRESSURE GPRESSURE VOLUME PRESSAVG GPRESSAVG
ENERGY: 0 0.7945 4.3736 1.4034 0.0000 -10522.7518 1391.1683 0.0000 0.0000 1748.1461 -7376.8660 302.9294 -9125.0120 -7376.8660 302.9294 -195.6720 -115.3281 29875.3187 -195.6720 -115.3281
ENERGY: 300000 0.3711 4.4968 1.8049 0.0000 -10563.6891 1391.6108 0.0000 0.0000 1779.0642 -7386.3412 308.2871 -9165.4054 -7390.2627 301.0985 -270.5533 -153.5315 29420.4183 13.3460 108.0334
ENERGY: 600000 0.6198 1.2887 0.4354 0.0000 -10604.1883 1466.0010 0.0000 0.0000 1728.1661 -7407.6773 299.4672 -9135.8434 -7404.1815 301.2472 144.2547 188.5554 29882.1458 22.2180 106.2316
ENERGY: 900000 0.4264 2.2689 1.0933 0.0000 -10472.4320 1343.1292 0.0000 0.0000 1723.4622 -7402.0520 298.6521 -9125.5143 -7386.2580 300.7869 -787.2381 -698.0480 30078.5309 -57.9608 23.1881
ENERGY: 1200000 0.5693 2.3064 0.2474 0.0000 -10494.9609 1361.0955 0.0000 0.0000 1750.4022 -7380.3402 303.3204 -9130.7423 -7379.4348 300.4567 -327.4556 -287.1394 29469.2719 -116.5643 -38.5754
ENERGY: 1500000 2.2499 3.2193 1.4210 0.0000 -10544.4133 1421.8971 0.0000 0.0000 1716.9031 -7398.7230 297.5155 -9115.6261 -7378.9427 299.8466 71.9528 151.3107 29539.2619 -110.4200 -37.9314
TCL: Running FEP window  12: Lambda1 0.5499999999999999 Lambda2 0.6    [dLambda 0.050000000000000044]
TCL: Setting parameter firsttimestep to 0
TCL: Setting parameter alchLambda to 0.5499999999999999
Info: NONBONDED TABLE R-SQUARED SPACING: 0.0625
Info: NONBONDED TABLE SIZE: 705 POINTS
TCL: Setting parameter alchLambda2 to 0.6
Info: NONBONDED TABLE R-SQUARED SPACING: 0.0625
Info: NONBONDED TABLE SIZE: 705 POINTS
TCL: Running for 1500000 steps
ETITLE: TS BOND ANGLE DIHED IMPRP ELECT VDW BOUNDARY MISC KINETIC TOTAL TEMP POTENTIAL TOTALAVG TEMPAVG PRESSURE GPRESSURE VOLUME PRESSAVG GPRESSAVG
ENERGY: 0 2.2499 3.2193 1.4210 0.0000 -10544.3326 1421.7929 0.0000 0.0000 1716.0487 -7399.6009 297.3674 -9115.6496 -7399.6009 297.3674 71.3211 153.7352 29539.2619 71.3211 153.7352
ENERGY: 300000 1.5659 3.0464 1.5678 0.0000 -10437.0786 1389.3279 0.0000 0.0000 1729.2995 -7312.2712 299.6636 -9041.5706 -7370.5854 301.1594 -9.1878 52.4672 29666.6493 195.9905 279.2782
ENERGY: 600000 0.0463 1.1072 1.5306 0.0000 -10528.0860 1397.3193 0.0000 0.0000 1790.3483 -7337.7343 310.2425 -9128.0826 -7373.2943 303.3082 -64.3950 -62.0901 29705.8074 194.6967 264.3977
ENERGY: 900000 0.7368 1.6811 0.6010 0.0000 -10619.5061 1482.7925 0.0000 0.0000 1763.8740 -7369.8206 305.6549 -9133.6946 -7376.0861 302.4613 524.0605 561.8609 29937.9851 187.4141 254.5251
ENERGY: 1200000 0.1954 3.2931 0.8029 0.0000 -10471.3005 1343.1061 0.0000 0.0000 1686.6367 -7437.2664 292.2707 -9123.9031 -7374.7786 300.7334 -632.9464 -558.5451 29946.9318 90.3145 153.4041
ENERGY: 1500000 0.6121 2.0151 1.1166 0.0000 -10484.4297 1379.6950 0.0000 0.0000 1715.2162 -7385.7746 297.2232 -9100.9908 -7379.0014 300.0207 103.5423 143.8455 29468.8085 106.0084 163.9750
TCL: Running FEP window  13: Lambda1 0.6    Lambda2 0.65   [dLambda 0.050000000000000044]
TCL: Setting parameter firsttimestep to 0
TCL: Setting parameter alchLambda to 0.6
Info: NONBONDED TABLE R-SQUARED SPACING: 0.0625
Info: NONBONDED TABLE SIZE: 705 POINTS
TCL: Setting parameter alchLambda2 to 0.65
Info: NONBONDED TABLE R-SQUARED SPACING: 0.0625
Info: NONBONDED TABLE SIZE: 705 POINTS
TCL: Running for 1500000 steps
ETITLE: TS BOND ANGLE DIHED IMPRP ELECT VDW BOUNDARY MISC KINETIC TOTAL TEMP POTENTIAL TOTALAVG TEMPAVG PRESSURE GPRESSURE VOLUME PRESSAVG GPRESSAVG
ENERGY: 0 0.6121 2.0151 1.1166 0.0000 -10484.5372 1379.3908 0.0000 0.0000 1714.3559 -7387.0467 297.0741 -9101.4026 -7387.0467 297.0741 63.8845 145.0506 29468.8085 63.8845 145.0506
ENERGY: 300000 0.1560 1.1470 1.5893 0.0000 -10322.6558 1243.8162 0.0000 0.0000 1719.4982 -7356.4490 297.9652 -9075.9472 -7364.6266 299.0236 -1291.9914 -1182.0068 29875.8912 46.0573 123.8718
ENERGY: 600000 0.1007 0.9092 1.5573 0.0000 -10737.7923 1558.3204 0.0000 0.0000 1704.7971 -7472.1075 295.4177 -9176.9047 -7370.4523 299.5654 1012.1920 1032.8899 29487.4665 10.2525 84.5825
ENERGY: 900000 0.0577 2.9471 0.6827 0.0000 -10459.7646 1390.8237 0.0000 0.0000 1697.0615 -7368.1919 294.0772 -9065.2534 -7360.9461 299.3908 -300.3046 -156.1938 30224.3864 -149.8271 -66.0564
ENERGY: 1200000 0.4770 4.9304 1.0210 0.0000 -10723.7417 1498.0434 0.0000 0.0000 1708.4254 -7510.8445 296.0464 -9219.2699 -7372.6206 298.7280 615.8118 675.4196 29110.3827 -117.5818 -36.8632
ENERGY: 1500000 0.2294 2.9168 0.3325 0.0000 -10530.5288 1435.5972 0.0000 0.0000 1758.5169 -7332.9360 304.7266 -9091.4530 -7358.8138 300.3871 215.3537 257.8012 30034.7919 -89.1208 -12.5825
TCL: Running FEP window  14: Lambda1 0.65   Lambda2 0.7000000000000001 [dLambda 0.050000000000000044]
TCL: Setting parameter firsttimestep to 0
TCL: Setting parameter alchLambda to 0.65
Info: NONBONDED TABLE R-SQUARED SPACING: 0.0625
Info: NONBONDED TABLE SIZE: 705 POINTS
TCL: Setting parameter alchLambda2 to 0.7000000000000001
Info: NONBONDED TABLE R-SQUARED SPACING: 0.0625
Info: NONBONDED TABLE SIZE: 705 POINTS
TCL: Running for 1500000 steps
ETITLE: TS BOND ANGLE DIHED IMPRP ELECT VDW BOUNDARY MISC KINETIC TOTAL TEMP POTENTIAL TOTALAVG TEMPAVG PRESSURE GPRESSURE VOLUME PRESSAVG GPRESSAVG
ENERGY: 0 0.2294 2.9168 0.3325 0.0000 -10530.8423 1435.6001 0.0000 0.0000 1757.6441 -7334.1194 304.5753 -9091.7635 -7334.1194 304.5753 173.7919 262.9587 30034.7919 173.7919 262.9587
ENERGY: 300000 1.9214 1.7473 0.1315 0.0000 -10537.0412 1384.1371 0.0000 0.0000 1709.9773 -7439.1266 296.3153 -9149.1039 -7378.6584 299.6080 -367.7871 -286.9656 29736.0285 237.4965 299.8682
ENERGY: 600000 1.1631 1.5630 0.3772 0.0000 -10441.6665 1393.7402 0.0000 0.0000 1777.8505 -7266.9725 308.0768 -9044.8230 -7372.0467 300.6006 52.2725 158.8174 29860.5531 120.7918 197.3898
ENERGY: 900000 0.0830 2.2691 0.8557 0.0000 -10404.0750 1282.8575 0.0000 0.0000 1711.9501 -7406.0597 296.6572 -9118.0098 -7378.1808 299.0217 -1226.0144 -1199.8689 30407.4474 -109.5502 -37.6304
ENERGY: 1200000 0.2916 4.7291 1.6497 0.0000 -10521.2796 1424.3486 0.0000 0.0000 1722.4645 -7367.7962 298.4792 -9090.2606 -7379.8215 298.7916 -90.2658 -13.0107 30082.5778 -132.2854 -61.9217
ENERGY: 1500000 0.6752 1.6417 0.7331 0.0000 -10675.6907 1444.2349 0.0000 0.0000 1739.4692 -7488.9365 301.4259 -9228.4057 -7380.3797 299.2502 3.3614 41.6727 29355.4163 -81.2367 -13.1400
TCL: Running FEP window  15: Lambda1 0.7000000000000001 Lambda2 0.7500000000000001 [dLambda 0.050000000000000044]
TCL: Setting parameter firsttimestep to 0
TCL: Setting parameter alchLambda to 0.7000000000000001
Info: NONBONDED TABLE R-SQUARED SPACING: 0.0625
Info: NONBONDED TABLE SIZE: 705 POINTS
TCL: Setting parameter alchLambda2 to 0.7500000000000001
Info: NONBONDED TABLE R-SQUARED SPACING: 0.0625
Info: NONBONDED TABLE SIZE: 705 POINTS
TCL: Running for 1500000 steps
ETITLE: TS BOND ANGLE DIHED IMPRP ELECT VDW BOUNDARY MISC KINETIC TOTAL TEMP POTENTIAL TOTALAVG TEMPAVG PRESSURE GPRESSURE VOLUME PRESSAVG GPRESSAVG
ENERGY: 0 0.6752 1.6417 0.7331 0.0000 -10677.5502 1444.7826 0.0000 0.0000 1738.6054 -7491.1122 301.2762 -9229.7175 -7491.1122 301.2762 -37.8689 47.8294 29355.4163 -37.8689 47.8294
ENERGY: 300000 0.1971 2.4093 1.0469 0.0000 -10642.4768 1430.2044 0.0000 0.0000 1713.3968 -7495.2223 296.9079 -9208.6191 -7407.4147 302.0568 -361.8832 -267.6083 29878.1829 -216.8364 -139.1555
ENERGY: 600000 0.7651 6.4872 1.9053 0.0000 -10639.6903 1452.1099 0.0000 0.0000 1722.7019 -7455.7208 298.5203 -9178.4227 -7412.8763 299.9201 -20.6335 19.2029 29728.5085 -132.8540 -63.7432
ENERGY: 900000 2.4849 3.0540 0.5322 0.0000 -10556.9541 1397.6295 0.0000 0.0000 1756.3650 -7396.8886 304.3537 -9153.2536 -7403.5149 300.3901 -430.1920 -302.9403 29972.6545 -188.2604 -110.4975
ENERGY: 1200000 0.7713 2.4580 1.7627 0.0000 -10474.1583 1338.1500 0.0000 0.0000 1766.6496 -7364.3667 306.1359 -9131.0163 -7393.7014 300.0817 -637.5032 -578.0080 29876.3832 -205.4088 -130.6371
ENERGY: 1500000 1.8238 3.3761 0.6574 0.0000 -10434.7114 1339.7289 0.0000 0.0000 1690.2159 -7398.9092 292.8910 -9089.1252 -7396.2154 299.1806 -690.1901 -574.8245 30120.1432 -205.4972 -135.3979
TCL: Running FEP window  16: Lambda1 0.7500000000000001 Lambda2 0.8000000000000002 [dLambda 0.050000000000000044]
TCL: Setting parameter firsttimestep to 0
TCL: Setting parameter alchLambda to 0.7500000000000001
Info: NONBONDED TABLE R-SQUARED SPACING: 0.0625
Info: NONBONDED TABLE SIZE: 705 POINTS
TCL: Setting parameter alchLambda2 to 0.8000000000000002
Info: NONBONDED TABLE R-SQUARED SPACING: 0.0625
Info: NONBONDED TABLE SIZE: 705 POINTS
TCL: Running for 1500000 steps
ETITLE: TS BOND ANGLE DIHED IMPRP ELECT VDW BOUNDARY MISC KINETIC TOTAL TEMP POTENTIAL TOTALAVG TEMPAVG PRESSURE GPRESSURE VOLUME PRESSAVG GPRESSAVG
ENERGY: 0 1.8238 3.3761 0.6574 0.0000 -10435.4946 1340.3939 0.0000 0.0000 1689.3260 -7399.9174 292.7367 -9089.2434 -7399.9174 292.7367 -649.8734 -564.2347 30120.1432 -649.8734 -564.2347
ENERGY: 300000 1.1683 3.6315 1.4315 0.0000 -10518.8104 1449.8673 0.0000 0.0000 1680.5018 -7382.2100 291.2076 -9062.7118 -7382.4116 294.8624 467.0395 505.8241 29654.9563 72.4297 130.8556
ENERGY: 600000 1.5348 1.5795 1.6593 0.0000 -10558.0662 1433.9827 0.0000 0.0000 1745.2703 -7374.0397 302.4311 -9119.3100 -7391.5410 296.2045 114.2450 199.8673 29772.6219 -126.9436 -57.8975
ENERGY: 900000 1.7323 3.0744 0.1407 0.0000 -10511.7521 1374.0582 0.0000 0.0000 1697.3170 -7435.4295 294.1215 -9132.7465 -7397.3171 296.9758 -658.1779 -593.3995 30130.7218 -231.6771 -170.2528
ENERGY: 1200000 1.1096 3.2031 1.4197 0.0000 -10521.9674 1389.5971 0.0000 0.0000 1758.0178 -7368.6202 304.6401 -9126.6380 -7390.5144 297.4922 -152.7134 -66.4333 29653.1620 -226.7940 -168.3088
ENERGY: 1500000 0.1893 1.8088 1.2101 0.0000 -10533.1973 1384.9385 0.0000 0.0000 1680.0398 -7465.0107 291.1276 -9145.0505 -7401.0326 297.3690 -371.3754 -336.4559 29900.3891 -296.7892 -234.9816
TCL: Running FEP window  17: Lambda1 0.8000000000000002 Lambda2 0.8500000000000002 [dLambda 0.050000000000000044]
TCL: Setting parameter firsttimestep to 0
TCL: Setting parameter alchLambda to 0.8000000000000002
Info: NONBONDED TABLE R-SQUARED SPACING: 0.0625
Info: NONBONDED TABLE SIZE: 705 POINTS
TCL: Setting parameter alchLambda2 to 0.8500000000000002
Info: NONBONDED TABLE R-SQUARED SPACING: 0.0625
Info: NONBONDED TABLE SIZE: 705 POINTS
TCL: Running for 1500000 steps
ETITLE: TS BOND ANGLE DIHED IMPRP ELECT VDW BOUNDARY MISC KINETIC TOTAL TEMP POTENTIAL TOTALAVG TEMPAVG PRESSURE GPRESSURE VOLUME PRESSAVG GPRESSAVG
ENERGY: 0 0.1893 1.8088 1.2101 0.0000 -10535.1927 1386.5090 0.0000 0.0000 1679.1694 -7466.3061 290.9768 -9145.4755 -7466.3061 290.9768 -419.4091 -321.8007 29900.3891 -419.4091 -321.8007
ENERGY: 300000 0.8562 3.1206 0.9665 0.0000 -10429.2914 1374.4168 0.0000 0.0000 1746.2823 -7303.6489 302.6065 -9049.9312 -7393.5397 296.9463 -117.4080 -37.3712 29969.2537 -209.3323 -133.9712
ENERGY: 600000 0.2776 5.2562 0.2488 0.0000 -10498.0580 1475.5773 0.0000 0.0000 1746.5832 -7270.1148 302.6586 -9016.6980 -7358.6999 299.0413 285.1200 413.8278 30433.9206 -137.8671 -58.0969
ENERGY: 900000 0.3900 1.6174 0.6997 0.0000 -10505.5680 1385.4387 0.0000 0.0000 1760.6886 -7356.7336 305.1029 -9117.4222 -7364.8921 300.0802 -428.7600 -364.0684 30242.0489 24.5635 104.9360
ENERGY: 1200000 3.0186 2.4747 3.5712 0.0000 -10483.4824 1429.0854 0.0000 0.0000 1739.2457 -7306.0868 301.3871 -9045.3325 -7359.1560 300.2548 349.3591 419.2839 29576.3726 146.8448 213.3453
ENERGY: 1500000 1.0755 2.3771 1.2824 0.0000 -10524.9802 1419.6399 0.0000 0.0000 1727.3164 -7373.2889 299.3200 -9100.6053 -7369.4700 299.5247 165.2036 221.6443 29744.7263 155.7889 219.9402
TCL: Running FEP window  18: Lambda1 0.8500000000000002 Lambda2 0.9000000000000002 [dLambda 0.050000000000000044]
TCL: Setting parameter firsttimestep to 0
TCL: Setting parameter alchLambda to 0.8500000000000002
Info: NONBONDED TABLE R-SQUARED SPACING: 0.0625
Info: NONBONDED TABLE SIZE: 705 POINTS
TCL: Setting parameter alchLambda2 to 0.9000000000000002
Info: NONBONDED TABLE R-SQUARED SPACING: 0.0625
Info: NONBONDED TABLE SIZE: 705 POINTS
TCL: Running for 1500000 steps
ETITLE: TS BOND ANGLE DIHED IMPRP ELECT VDW BOUNDARY MISC KINETIC TOTAL TEMP POTENTIAL TOTALAVG TEMPAVG PRESSURE GPRESSURE VOLUME PRESSAVG GPRESSAVG
ENERGY: 0 1.0755 2.3771 1.2824 0.0000 -10525.9799 1420.4273 0.0000 0.0000 1726.4458 -7374.3719 299.1691 -9100.8177 -7374.3719 299.1691 149.4357 235.6565 29744.7263 149.4357 235.6565
ENERGY: 300000 0.6455 2.8204 2.0663 0.0000 -10578.0156 1412.5430 0.0000 0.0000 1694.5091 -7465.4313 293.6349 -9159.9404 -7391.0128 296.0761 -254.3136 -223.0554 30127.7042 -135.6614 -82.8499
ENERGY: 600000 0.1632 2.4049 1.4368 0.0000 -10678.7342 1497.6658 0.0000 0.0000 1683.8076 -7493.2559 291.7805 -9177.0635 -7412.8898 296.6168 420.5192 466.0896 29649.3602 -192.3415 -141.7158
ENERGY: 900000 0.5680 2.2945 1.5594 0.0000 -10556.5094 1441.2596 0.0000 0.0000 1746.6087 -7364.2192 302.6630 -9110.8280 -7402.0619 297.6927 335.3364 334.1907 29954.9335 37.2189 88.8994
ENERGY: 1200000 1.1704 3.0066 1.6239 0.0000 -10454.0258 1447.1648 0.0000 0.0000 1661.9917 -7339.0685 288.0001 -9001.0602 -7399.5710 296.7112 484.0351 515.9230 29962.0045 134.4803 188.3131
ENERGY: 1500000 0.8244 4.0479 1.5674 0.0000 -10657.1751 1623.8820 0.0000 0.0000 1773.3561 -7253.4972 307.2980 -9026.8533 -7396.0097 297.4648 1812.4462 1833.5271 30126.3597 180.2525 234.3443
TCL: Running FEP window  19: Lambda1 0.9000000000000002 Lambda2 0.9500000000000003 [dLambda 0.050000000000000044]
TCL: Setting parameter firsttimestep to 0
TCL: Setting parameter alchLambda to 0.9000000000000002
Info: NONBONDED TABLE R-SQUARED SPACING: 0.0625
Info: NONBONDED TABLE SIZE: 705 POINTS
TCL: Setting parameter alchLambda2 to 0.9500000000000003
Info: NONBONDED TABLE R-SQUARED SPACING: 0.0625
Info: NONBONDED TABLE SIZE: 705 POINTS
TCL: Running for 1500000 steps
ETITLE: TS BOND ANGLE DIHED IMPRP ELECT VDW BOUNDARY MISC KINETIC TOTAL TEMP POTENTIAL TOTALAVG TEMPAVG PRESSURE GPRESSURE VOLUME PRESSAVG GPRESSAVG
ENERGY: 0 0.8244 4.0479 1.5674 0.0000 -10659.0522 1625.4564 0.0000 0.0000 1772.5109 -7254.6451 307.1515 -9027.1559 -7254.6451 307.1515 1777.2460 1855.8457 30126.3597 1777.2460 1855.8457
ENERGY: 300000 0.5474 3.0991 0.5262 0.0000 -10464.2528 1418.5112 0.0000 0.0000 1782.6285 -7258.9404 308.9048 -9041.5689 -7304.8605 304.5416 75.2760 191.5857 30009.3251 584.0626 621.5978
ENERGY: 600000 0.5105 3.1386 1.5360 0.0000 -10636.5914 1448.9049 0.0000 0.0000 1741.1296 -7441.3718 301.7136 -9182.5014 -7371.7555 303.0305 435.9844 457.5164 29025.2253 389.7604 443.6771
ENERGY: 900000 2.5881 2.0155 0.5550 0.0000 -10551.0352 1449.9381 0.0000 0.0000 1734.7791 -7361.1592 300.6131 -9095.9384 -7360.5019 303.4687 414.5866 426.7167 29824.4943 239.8118 289.6771
ENERGY: 1200000 1.3911 4.0919 0.4766 0.0000 -10569.1206 1438.7154 0.0000 0.0000 1698.1377 -7426.3079 294.2637 -9124.4456 -7367.9359 302.3648 -132.1599 0.7469 30267.7184 127.3673 185.1983
ENERGY: 1500000 0.8631 4.2929 0.5835 0.0000 -10644.7719 1453.5663 0.0000 0.0000 1720.0941 -7465.3721 298.0684 -9185.4662 -7382.3653 301.1344 191.2182 299.4378 29522.1290 51.6830 111.5072
TCL: Running FEP window  20: Lambda1 0.9500000000000003 Lambda2 1.0    [dLambda 0.04999999999999971]
TCL: Setting parameter firsttimestep to 0
TCL: Setting parameter alchLambda to 0.9500000000000003
Info: NONBONDED TABLE R-SQUARED SPACING: 0.0625
Info: NONBONDED TABLE SIZE: 705 POINTS
TCL: Setting parameter alchLambda2 to 1.0
Info: NONBONDED TABLE R-SQUARED SPACING: 0.0625
Info: NONBONDED TABLE SIZE: 705 POINTS
TCL: Running for 1500000 steps
ETITLE: TS BOND ANGLE DIHED IMPRP ELECT VDW BOUNDARY MISC KINETIC TOTAL TEMP POTENTIAL TOTALAVG TEMPAVG PRESSURE GPRESSURE VOLUME PRESSAVG GPRESSAVG
ENERGY: 0 0.8631 4.2929 0.5835 0.0000 -10646.2871 1455.1634 0.0000 0.0000 1719.2491 -7466.1351 297.9220 -9185.3842 -7466.1351 297.9220 230.3291 319.7728 29522.1290 230.3291 319.7728
ENERGY: 300000 2.5175 3.5523 0.5341 0.0000 -10579.7604 1445.2788 0.0000 0.0000 1756.4873 -7371.3904 304.3749 -9127.8777 -7368.2587 303.1725 138.1160 136.7415 29879.9294 299.9700 343.6662
ENERGY: 600000 1.0586 2.3818 0.6882 0.0000 -10594.9525 1449.4674 0.0000 0.0000 1665.4287 -7475.9278 288.5957 -9141.3565 -7408.1818 300.5730 -19.5732 51.6724 29950.1425 184.4020 224.3812
ENERGY: 900000 0.7661 3.0570 0.9253 0.0000 -10569.8085 1414.0562 0.0000 0.0000 1734.1242 -7416.8797 300.4997 -9151.0039 -7408.7102 301.3977 -351.8267 -248.3996 30144.2181 238.2719 290.8846
ENERGY: 1200000 2.4458 3.2350 1.7435 0.0000 -10554.0078 1364.2035 0.0000 0.0000 1714.6453 -7467.7347 297.1242 -9182.3800 -7401.7475 300.9075 -566.7832 -530.8592 29978.5163 124.6055 178.9583
ENERGY: 1500000 0.3943 2.0017 0.7446 0.0000 -10470.1564 1355.3147 0.0000 0.0000 1728.4632 -7383.2378 299.5187 -9111.7011 -7394.0660 300.9140 -514.3807 -507.4302 30256.3836 72.3311 122.9252
TCL: Exiting due to exit command.
