Info: SIMULATION PARAMETERS:
Info: TIMESTEP               2
Info: NUMBER OF STEPS        0
Info: STEPS PER CYCLE        10
Info: PERIODIC CELL BASIS 1  30.4738 0 0
Info: PERIODIC CELL BASIS 2  0 31.5464 0
Info: PERIODIC CELL BASIS 3  0 0 32.2484
Info: PERIODIC CELL CENTER   0 0 0
Info: WRAPPING WATERS AROUND PERIODIC BOUNDARIES ON OUTPUT.
Info: WRAPPING ALL CLUSTERS AROUND PERIODIC BOUNDARIES ON OUTPUT.
Info: FIRST LDB TIMESTEP     50
Info: LAST LDB TIMESTEP     -1
Info: HOM BACKGROUND SCALING 1
Info: PME BACKGROUND SCALING 1
Info: MIN ATOMS PER PATCH    40
Info: EMPTY PATCH LOAD       40 ATOMS
Info: VELOCITY FILE          mobley_2771569_equil.vel
Info: CENTER OF MASS MOVING INITIALLY? NO
Info: DIELECTRIC             1
Info: EXCLUDE                SCALED ONE-FOUR
Info: 1-4 ELECTROSTATICS SCALED BY 0.833333
Info: MODIFIED 1-4 VDW PARAMETERS WILL BE USED
Info: DCD FILENAME           mobley_2771569_prod.dcd
Info: DCD FREQUENCY          100000
Info: DCD FIRST STEP         100000
Info: DCD FILE WILL CONTAIN UNIT CELL DATA
Info: XST FILENAME           mobley_2771569_prod.xst
Info: XST FREQUENCY          100000
Info: NO VELOCITY DCD OUTPUT
Info: NO FORCE DCD OUTPUT
Info: OUTPUT FILENAME        mobley_2771569_prod
Info: BINARY OUTPUT FILES WILL BE USED
Info: RESTART FILENAME       mobley_2771569_prod.restart
Info: RESTART FREQUENCY      100000
Info: BINARY RESTART FILES WILL BE USED
Info: CUTOFF                 9
Info: PAIRLIST DISTANCE      11
Info: PAIRLIST SHRINK RATE   0.01
Info: PAIRLIST GROW RATE     0.01
Info: PAIRLIST TRIGGER       0.3
Info: PAIRLISTS PER CYCLE    2
Info: PAIRLISTS ENABLED
Info: MARGIN                 2
Info: HYDROGEN GROUP CUTOFF  2.5
Info: PATCH DIMENSION        15.5
Info: ENERGY OUTPUT STEPS    100000
Info: ENERGY EVALUATION STEPS    100000
Info: OUTPUT ENERGY PRECISION 4
Info: CROSSTERM ENERGY INCLUDED IN DIHEDRAL
Info: TIMING OUTPUT STEPS    1000000
Info: PRESSURE OUTPUT STEPS  100000
Info: ALCHEMICAL FEP ON
Info: FEP CURRENT LAMBDA VALUE     1
Info: FEP COMPARISON LAMBDA VALUE  0.95
Info: FEP INTRA-ALCHEMICAL NON-BONDED INTERACTIONS WILL BE RETAINED
Info: FEP INTRA-ALCHEMICAL BONDED INTERACTIONS WILL BE RETAINED
Info: FEP VDW SHIFTING COEFFICIENT 5
Info: FEP ELEC. ACTIVE FOR ANNIHILATED PARTICLES BETWEEN LAMBDA = 0 AND LAMBDA = 0.5
Info: FEP ELEC. ACTIVE FOR EXNIHILATED PARTICLES BETWEEN LAMBDA = 0.5 AND LAMBDA = 1
Info: FEP VDW ACTIVE FOR ANNIHILATED PARTICLES BETWEEN LAMBDA = 0 AND LAMBDA = 1
Info: FEP VDW ACTIVE FOR EXNIHILATED PARTICLES BETWEEN LAMBDA = 0 AND LAMBDA = 1
Info: FEP BOND ACTIVE FOR ANNIHILATED PARTICLES BETWEEN LAMBDA = 1 AND LAMBDA = 1
Info: FEP BOND ACTIVE FOR EXNIHILATED PARTICLES BETWEEN LAMBDA = 0 AND LAMBDA = 0
Info: LANGEVIN DYNAMICS ACTIVE
Info: LANGEVIN TEMPERATURE   300
Info: LANGEVIN USING BBK INTEGRATOR
Info: LANGEVIN DAMPING COEFFICIENT IS 1 INVERSE PS
Info: LANGEVIN DYNAMICS APPLIED TO HYDROGENS
Info: LANGEVIN PISTON PRESSURE CONTROL ACTIVE
Info:        TARGET PRESSURE IS 1.01325 BAR
Info:     OSCILLATION PERIOD IS 50 FS
Info:             DECAY TIME IS 25 FS
Info:     PISTON TEMPERATURE IS 300 K
Info:       PRESSURE CONTROL IS GROUP-BASED
Info:    INITIAL STRAIN RATE IS 0.000162776 0.000162776 0.000162776
Info:       CELL FLUCTUATION IS ISOTROPIC
Info: PARTICLE MESH EWALD (PME) ACTIVE
Info: PME TOLERANCE               1e-06
Info: PME EWALD COEFFICIENT       0.348832
Info: PME INTERPOLATION ORDER     4
Info: PME GRID DIMENSIONS         32 32 36
Info: PME MAXIMUM GRID SPACING    1
Info: PME CALCULATION WILL BE PERFORMED ON GPU
Info: FULL ELECTROSTATIC EVALUATION FREQUENCY      2
Info: USING VERLET I (r-RESPA) MTS SCHEME.
Info: C1 SPLITTING OF LONG RANGE ELECTROSTATICS
Info: PLACING ATOMS IN PATCHES BY HYDROGEN GROUPS
Info: RIGID BONDS TO HYDROGEN : ALL
Info:         ERROR TOLERANCE : 1e-08
Info:          MAX ITERATIONS : 100
Info: RIGID WATER USING SETTLE ALGORITHM
Info: RANDOM NUMBER SEED     1743621554
Info: USE HYDROGEN BONDS?    NO
Info: Using AMBER format force field!
Info: AMBER PARM FILE        mobley_2771569.prmtop
Info: COORDINATE PDB         mobley_2771569.pdb
Info: Exclusions will be read from PARM file!
Info: SCNB (VDW SCALING)     2
Info: USING ARITHMETIC MEAN TO COMBINE L-J SIGMA PARAMETERS
Info: BINARY COORDINATES     mobley_2771569_equil.coor
Info: SUMMARY OF PARAMETERS:
Info: 6 BONDS
Info: 6 ANGLES
Info:   6 HARMONIC
Info:   0 COSINE-BASED
Info: 3 DIHEDRAL
Info: 0 IMPROPER
Info: 0 CROSSTERM
Info: 0 VDW
Info: 21 VDW_PAIRS
Info: 0 NBTHOLE_PAIRS
Info: To read alchdata from file: mobley_2771569.pdb
Info: To read alchflag data from column: 5
Info: STRUCTURE SUMMARY:
Info: 2968 ATOMS
Info: 2968 BONDS
Info: 36 ANGLES
Info: 54 DIHEDRALS
Info: 0 IMPROPERS
Info: 0 CROSSTERMS
Info: 3049 EXCLUSIONS
Info: 2961 RIGID BONDS
Info: ALCH: 0 ATOMS TO DISAPPEAR IN FINAL STATE
Info: ALCH: 19 ATOMS TO APPEAR IN FINAL STATE
Info: 5943 DEGREES OF FREEDOM
Info: 990 HYDROGEN GROUPS
Info: 4 ATOMS IN LARGEST HYDROGEN GROUP
Info: 990 MIGRATION GROUPS
Info: 4 ATOMS IN LARGEST MIGRATION GROUP
Info: TOTAL MASS = 17809.9 amu
Info: TOTAL CHARGE = 9.99197e-05 e
Info: MASS DENSITY = 0.953973 g/cm^3
Info: ATOM DENSITY = 0.0957369 atoms/A^3
Info: ADDED 0 IMPLICIT EXCLUSIONS
Info: NONBONDED TABLE R-SQUARED SPACING: 0.0625
Info: NONBONDED TABLE SIZE: 705 POINTS
Info: REMOVING COM VELOCITY 0.0754663 0.0663058 0.0987912
Info: Use 3D box decompostion in PME FFT.
Info: Updated CUDA force table with 4096 elements.
Info: Updated CUDA LJ table with 6 x 6 elements.
Info: Found 22 unique exclusion lists needing 60 bytes
TCL: Running for 1500000 steps
ETITLE: TS BOND ANGLE DIHED IMPRP ELECT VDW BOUNDARY MISC KINETIC TOTAL TEMP POTENTIAL TOTALAVG TEMPAVG PRESSURE GPRESSURE VOLUME PRESSAVG GPRESSAVG
ENERGY: 0 5.1837 6.9541 4.1003 0.0000 -10637.3650 1437.8392 0.0000 0.0000 1721.8675 -7461.4201 291.5979 -9183.2876 -7461.4201 291.5979 -453.5544 -356.2637 31001.6377 -453.5544 -356.2637
ENERGY: 300000 1.6415 6.0370 3.8873 0.0000 -10703.3422 1469.4128 0.0000 0.0000 1782.0747 -7440.2890 301.7940 -9222.3636 -7440.9847 298.7809 412.0320 479.2980 30298.8657 7.2899 77.8378
ENERGY: 600000 4.2773 8.6212 4.2905 0.0000 -10660.1701 1431.3439 0.0000 0.0000 1774.3885 -7437.2486 300.4923 -9211.6372 -7436.2739 301.2796 -146.3820 -36.6480 30528.5993 -34.0146 34.7337
ENERGY: 900000 1.2482 11.4496 5.6367 0.0000 -10732.8905 1475.3539 0.0000 0.0000 1789.0270 -7450.1750 302.9713 -9239.2021 -7440.0081 302.9076 185.6604 277.7334 30624.4907 -9.1441 61.9089
ENERGY: 1200000 1.4441 7.9751 3.2167 0.0000 -10844.2542 1569.8563 0.0000 0.0000 1759.0178 -7502.7443 297.8893 -9261.7621 -7447.0106 301.9133 1101.3118 1172.1090 30306.3715 50.3455 120.1192
ENERGY: 1500000 1.3768 12.7038 3.7485 0.0000 -10658.4146 1434.1125 0.0000 0.0000 1819.3656 -7387.1074 308.1092 -9206.4730 -7446.9583 302.5642 -99.8112 -27.0500 30916.6070 -53.5540 13.3260
TCL: Running FEP window   2: Lambda1 0.95   Lambda2 0.8999999999999999 [dLambda -0.050000000000000044]
TCL: Setting parameter firsttimestep to 0
TCL: Setting parameter alchLambda to 0.95
Info: NONBONDED TABLE R-SQUARED SPACING: 0.0625
Info: NONBONDED TABLE SIZE: 705 POINTS
TCL: Setting parameter alchLambda2 to 0.8999999999999999
Info: NONBONDED TABLE R-SQUARED SPACING: 0.0625
Info: NONBONDED TABLE SIZE: 705 POINTS
TCL: Running for 1500000 steps
ETITLE: TS BOND ANGLE DIHED IMPRP ELECT VDW BOUNDARY MISC KINETIC TOTAL TEMP POTENTIAL TOTALAVG TEMPAVG PRESSURE GPRESSURE VOLUME PRESSAVG GPRESSAVG
ENERGY: 0 1.3768 12.7038 3.7485 0.0000 -10656.3177 1433.2908 0.0000 0.0000 1818.4704 -7386.7274 307.9576 -9205.1978 -7386.7274 307.9576 -120.1357 -48.5694 30916.6070 -120.1357 -48.5694
ENERGY: 300000 4.3804 9.2214 4.0385 0.0000 -10646.9372 1396.9672 0.0000 0.0000 1768.4064 -7463.9232 299.4793 -9232.3296 -7433.6251 303.9031 -505.8518 -402.6386 30950.2972 -55.4474 29.0142
ENERGY: 600000 1.3778 8.6978 3.7767 0.0000 -10622.8313 1329.2525 0.0000 0.0000 1713.5257 -7566.2009 290.1852 -9279.7266 -7442.2635 303.1875 -1106.6205 -1083.9441 30672.7492 -329.2401 -252.9098
ENERGY: 900000 5.6319 8.1348 4.6582 0.0000 -10788.3025 1424.8216 0.0000 0.0000 1720.0667 -7624.9893 291.2929 -9345.0560 -7459.8968 300.3077 -146.0578 -99.0828 29841.7143 -433.8089 -363.0308
ENERGY: 1200000 4.4652 8.1378 3.7344 0.0000 -10651.8330 1450.4850 0.0000 0.0000 1778.2225 -7406.7882 301.1416 -9185.0107 -7454.8462 300.5392 187.4693 224.5507 30786.1679 -394.2821 -319.6054
ENERGY: 1500000 3.5531 9.7724 3.5040 0.0000 -10749.5955 1491.9722 0.0000 0.0000 1756.0116 -7484.7822 297.3802 -9240.7938 -7451.8617 300.1908 436.1103 407.4216 30613.3704 -294.6430 -230.0091
TCL: Running FEP window   3: Lambda1 0.8999999999999999 Lambda2 0.8499999999999999 [dLambda -0.050000000000000044]
TCL: Setting parameter firsttimestep to 0
TCL: Setting parameter alchLambda to 0.8999999999999999
Info: NONBONDED TABLE R-SQUARED SPACING: 0.0625
Info: NONBONDED TABLE SIZE: 705 POINTS
TCL: Setting parameter alchLambda2 to 0.8499999999999999
Info: NONBONDED TABLE R-SQUARED SPACING: 0.0625
Info: NONBONDED TABLE SIZE: 705 POINTS
TCL: Running for 1500000 steps
ETITLE: TS BOND ANGLE DIHED IMPRP ELECT VDW BOUNDARY MISC KINETIC TOTAL TEMP POTENTIAL TOTALAVG TEMPAVG PRESSURE GPRESSURE VOLUME PRESSAVG GPRESSAVG
ENERGY: 0 3.5531 9.7724 3.5040 0.0000 -10746.9645 1489.5763 0.0000 0.0000 1755.0989 -7485.4598 297.2256 -9240.5588 -7485.4598 297.2256 304.5266 369.6952 30613.3704 304.5266 369.6952
ENERGY: 300000 5.7315 9.2190 5.7373 0.0000 -10697.3182 1411.5386 0.0000 0.0000 1793.7966 -7471.2950 303.7791 -9265.0916 -7477.1559 298.1190 -443.8616 -365.4159 30608.0624 174.2422 220.1381
ENERGY: 600000 2.2137 6.7991 4.0386 0.0000 -10694.7928 1474.1447 0.0000 0.0000 1765.2856 -7442.3111 298.9507 -9207.5967 -7481.2686 299.4636 96.4242 140.7688 30611.5482 123.3390 161.7530
ENERGY: 900000 3.0118 8.6740 3.2913 0.0000 -10702.1971 1385.5612 0.0000 0.0000 1781.4476 -7520.2112 301.6878 -9301.6588 -7479.8510 300.6979 -701.3524 -637.2172 30667.9677 -36.8206 14.1914
ENERGY: 1200000 3.8951 10.7958 3.7017 0.0000 -10562.9381 1357.6103 0.0000 0.0000 1750.4338 -7436.5014 296.4356 -9186.9352 -7467.8628 300.0899 -723.4716 -681.1881 30791.5975 -145.4979 -92.9833
ENERGY: 1500000 1.8743 11.1722 3.7373 0.0000 -10591.2431 1381.1099 0.0000 0.0000 1766.8419 -7426.5076 299.2143 -9193.3495 -7469.3860 299.5149 -167.0026 -123.8224 30343.2220 -99.7336 -43.4067
TCL: Running FEP window   4: Lambda1 0.8499999999999999 Lambda2 0.7999999999999998 [dLambda -0.050000000000000044]
TCL: Setting parameter firsttimestep to 0
TCL: Setting parameter alchLambda to 0.8499999999999999
Info: NONBONDED TABLE R-SQUARED SPACING: 0.0625
Info: NONBONDED TABLE SIZE: 705 POINTS
TCL: Setting parameter alchLambda2 to 0.7999999999999998
Info: NONBONDED TABLE R-SQUARED SPACING: 0.0625
Info: NONBONDED TABLE SIZE: 705 POINTS
TCL: Running for 1500000 steps
ETITLE: TS BOND ANGLE DIHED IMPRP ELECT VDW BOUNDARY MISC KINETIC TOTAL TEMP POTENTIAL TOTALAVG TEMPAVG PRESSURE GPRESSURE VOLUME PRESSAVG GPRESSAVG
ENERGY: 0 1.8743 11.1722 3.7373 0.0000 -10589.1504 1380.5434 0.0000 0.0000 1765.9660 -7425.8572 299.0660 -9191.8232 -7425.8572 299.0660 -211.6106 -139.7743 30343.2220 -211.6106 -139.7743
ENERGY: 300000 1.7110 13.3690 3.8354 0.0000 -10482.8023 1314.3902 0.0000 0.0000 1749.4587 -7400.0380 296.2705 -9149.4967 -7430.6334 299.4306 -790.4595 -707.4364 30550.7968 -174.6395 -98.6471
ENERGY: 600000 3.6064 10.7587 4.5660 0.0000 -10723.0634 1462.1686 0.0000 0.0000 1772.3072 -7469.6565 300.1398 -9241.9637 -7435.4910 300.2449 -84.5729 5.6042 30661.4904 29.6775 110.5091
ENERGY: 900000 1.6439 9.9387 3.1158 0.0000 -10643.7538 1411.4808 0.0000 0.0000 1775.7701 -7441.8045 300.7263 -9217.5746 -7436.0008 300.5886 -105.7652 -38.3428 30572.3087 54.7281 126.7838
ENERGY: 1200000 2.8927 10.5902 3.0907 0.0000 -10747.2973 1503.5065 0.0000 0.0000 1825.6479 -7401.5692 309.1731 -9227.2171 -7439.4878 300.8488 576.0201 559.0603 30380.9398 129.5395 190.3993
ENERGY: 1500000 1.5675 6.3258 3.2247 0.0000 -10688.8702 1490.8725 0.0000 0.0000 1763.5703 -7423.3094 298.6603 -9186.8797 -7437.8858 300.4385 452.5645 517.7824 30517.6451 120.1309 177.7626
TCL: Running FEP window   5: Lambda1 0.7999999999999998 Lambda2 0.7499999999999998 [dLambda -0.050000000000000044]
TCL: Setting parameter firsttimestep to 0
TCL: Setting parameter alchLambda to 0.7999999999999998
Info: NONBONDED TABLE R-SQUARED SPACING: 0.0625
Info: NONBONDED TABLE SIZE: 705 POINTS
TCL: Setting parameter alchLambda2 to 0.7499999999999998
Info: NONBONDED TABLE R-SQUARED SPACING: 0.0625
Info: NONBONDED TABLE SIZE: 705 POINTS
TCL: Running for 1500000 steps
ETITLE: TS BOND ANGLE DIHED IMPRP ELECT VDW BOUNDARY MISC KINETIC TOTAL TEMP POTENTIAL TOTALAVG TEMPAVG PRESSURE GPRESSURE VOLUME PRESSAVG GPRESSAVG
ENERGY: 0 1.5675 6.3258 3.2247 0.0000 -10686.6496 1489.5272 0.0000 0.0000 1762.6844 -7423.3200 298.5102 -9186.0044 -7423.3200 298.5102 411.4660 495.0302 30517.6451 411.4660 495.0302
ENERGY: 300000 4.3884 6.0480 3.8109 0.0000 -10677.2327 1486.1572 0.0000 0.0000 1843.0290 -7333.7992 312.1166 -9176.8283 -7397.0434 304.9934 459.3834 553.4747 30691.8422 285.8923 376.3336
ENERGY: 600000 2.3455 9.5540 3.7368 0.0000 -10606.1666 1377.1262 0.0000 0.0000 1752.2521 -7461.1520 296.7435 -9213.4041 -7426.9869 302.2647 -501.2113 -425.5493 30424.0220 93.7009 172.4098
ENERGY: 900000 3.9922 6.9371 3.8251 0.0000 -10633.1914 1367.4844 0.0000 0.0000 1783.6120 -7467.3405 302.0543 -9250.9525 -7432.4754 301.6250 -802.1105 -748.2115 30607.9486 -100.7571 -27.0122
ENERGY: 1200000 1.5729 5.5995 4.0590 0.0000 -10732.9007 1470.4835 0.0000 0.0000 1808.4297 -7442.7561 306.2572 -9251.1858 -7438.3956 300.6757 185.4709 274.1397 30586.2934 -89.9497 -17.7569
ENERGY: 1500000 4.3169 7.6128 3.5763 0.0000 -10785.2277 1472.1807 0.0000 0.0000 1766.2254 -7531.3156 299.1099 -9297.5410 -7441.5237 300.8922 -15.3038 -19.2717 30506.0127 -90.1120 -22.8117
TCL: Running FEP window   6: Lambda1 0.7499999999999998 Lambda2 0.6999999999999997 [dLambda -0.050000000000000044]
TCL: Setting parameter firsttimestep to 0
TCL: Setting parameter alchLambda to 0.7499999999999998
Info: NONBONDED TABLE R-SQUARED SPACING: 0.0625
Info: NONBONDED TABLE SIZE: 705 POINTS
TCL: Setting parameter alchLambda2 to 0.6999999999999997
Info: NONBONDED TABLE R-SQUARED SPACING: 0.0625
Info: NONBONDED TABLE SIZE: 705 POINTS
TCL: Running for 1500000 steps
ETITLE: TS BOND ANGLE DIHED IMPRP ELECT VDW BOUNDARY MISC KINETIC TOTAL TEMP POTENTIAL TOTALAVG TEMPAVG PRESSURE GPRESSURE VOLUME PRESSAVG GPRESSAVG
ENERGY: 0 4.3169 7.6128 3.5763 0.0000 -10783.2679 1471.2858 0.0000 0.0000 1765.3390 -7531.1372 298.9598 -9296.4762 -7531.1372 298.9598 -116.1601 -34.6210 30506.0127 -116.1601 -34.6210
ENERGY: 300000 3.0353 12.8370 4.9254 0.0000 -10838.3243 1604.8215 0.0000 0.0000 1726.7279 -7485.9771 292.4210 -9212.7051 -7480.3559 296.9854 751.9719 788.8637 31098.5484 207.1445 278.8981
ENERGY: 600000 1.8566 6.8895 3.5574 0.0000 -10754.6823 1515.2003 0.0000 0.0000 1746.2209 -7480.9577 295.7221 -9227.1786 -7466.7612 300.0787 728.2207 778.8631 30099.6739 123.8507 176.3952
ENERGY: 900000 1.6692 8.8994 3.3089 0.0000 -10764.4804 1428.8706 0.0000 0.0000 1705.5794 -7616.1529 288.8395 -9321.7323 -7480.7190 298.9996 -333.0908 -335.5458 30478.5178 87.5957 134.8035
ENERGY: 1200000 0.7412 8.4988 4.2332 0.0000 -10748.9677 1499.4768 0.0000 0.0000 1728.8858 -7507.1318 292.7864 -9236.0176 -7486.6247 298.0257 155.3921 252.3387 30716.3930 41.4878 96.5143
ENERGY: 1500000 0.9596 8.7493 3.0805 0.0000 -10635.6037 1369.3330 0.0000 0.0000 1730.9918 -7522.4894 293.1431 -9253.4812 -7481.4198 298.5614 -626.6071 -533.3751 30480.5266 -30.0514 30.6115
TCL: Running FEP window   7: Lambda1 0.6999999999999997 Lambda2 0.6499999999999997 [dLambda -0.050000000000000044]
TCL: Setting parameter firsttimestep to 0
TCL: Setting parameter alchLambda to 0.6999999999999997
Info: NONBONDED TABLE R-SQUARED SPACING: 0.0625
Info: NONBONDED TABLE SIZE: 705 POINTS
TCL: Setting parameter alchLambda2 to 0.6499999999999997
Info: NONBONDED TABLE R-SQUARED SPACING: 0.0625
Info: NONBONDED TABLE SIZE: 705 POINTS
TCL: Running for 1500000 steps
ETITLE: TS BOND ANGLE DIHED IMPRP ELECT VDW BOUNDARY MISC KINETIC TOTAL TEMP POTENTIAL TOTALAVG TEMPAVG PRESSURE GPRESSURE VOLUME PRESSAVG GPRESSAVG
ENERGY: 0 0.9596 8.7493 3.0805 0.0000 -10634.4829 1369.1756 0.0000 0.0000 1730.1252 -7522.3926 292.9963 -9252.5178 -7522.3926 292.9963 -623.6694 -539.8186 30480.5266 -623.6694 -539.8186
ENERGY: 300000 2.0937 8.4724 3.1929 0.0000 -10621.1666 1307.2855 0.0000 0.0000 1748.3517 -7551.7705 296.0830 -9300.1222 -7481.7592 296.7476 -1349.8376 -1238.5201 30542.8905 -261.5731 -173.7974
ENERGY: 600000 2.8023 8.4580 3.7416 0.0000 -10500.5815 1281.5123 0.0000 0.0000 1748.8669 -7455.2004 296.1702 -9204.0673 -7484.7335 296.8061 -1368.5823 -1293.8254 30779.4357 -382.4256 -307.4490
ENERGY: 900000 2.6336 9.6272 4.8244 0.0000 -10582.2062 1371.3380 0.0000 0.0000 1775.0327 -7418.7505 300.6014 -9193.7831 -7471.6388 296.8481 -535.3738 -524.0024 30953.1515 -195.2012 -126.4538
ENERGY: 1200000 5.0336 10.0745 3.5561 0.0000 -10841.7923 1506.9465 0.0000 0.0000 1771.4325 -7544.7492 299.9917 -9316.1817 -7466.6177 298.7045 63.4321 124.9704 30468.1101 -43.5420 21.2046
ENERGY: 1500000 3.7315 8.1979 4.5244 0.0000 -10654.1110 1419.5932 0.0000 0.0000 1733.4955 -7484.5685 293.5671 -9218.0639 -7468.6307 298.8455 -125.6325 -99.3814 30372.2060 -85.6556 -18.2074
TCL: Running FEP window   8: Lambda1 0.6499999999999997 Lambda2 0.5999999999999996 [dLambda -0.050000000000000044]
TCL: Setting parameter firsttimestep to 0
TCL: Setting parameter alchLambda to 0.6499999999999997
Info: NONBONDED TABLE R-SQUARED SPACING: 0.0625
Info: NONBONDED TABLE SIZE: 705 POINTS
TCL: Setting parameter alchLambda2 to 0.5999999999999996
Info: NONBONDED TABLE R-SQUARED SPACING: 0.0625
Info: NONBONDED TABLE SIZE: 705 POINTS
TCL: Running for 1500000 steps
ETITLE: TS BOND ANGLE DIHED IMPRP ELECT VDW BOUNDARY MISC KINETIC TOTAL TEMP POTENTIAL TOTALAVG TEMPAVG PRESSURE GPRESSURE VOLUME PRESSAVG GPRESSAVG
ENERGY: 0 3.7315 8.1979 4.5244 0.0000 -10652.2723 1420.2260 0.0000 0.0000 1732.6085 -7482.9839 293.4169 -9215.5924 -7482.9839 293.4169 -181.6034 -98.3041 30372.2060 -181.6034 -98.3041
ENERGY: 300000 5.0278 3.8552 3.7978 0.0000 -10608.6484 1389.3605 0.0000 0.0000 1775.7321 -7430.8751 300.7199 -9206.6072 -7447.0674 301.7313 -526.7920 -428.5691 30716.5663 -250.1632 -182.1578
ENERGY: 600000 2.8112 6.8108 3.9978 0.0000 -10719.9528 1500.3062 0.0000 0.0000 1742.5407 -7463.4861 295.0989 -9206.0269 -7452.9282 299.8970 456.8571 422.6094 30545.7696 -78.8429 -30.7966
ENERGY: 900000 3.4375 7.7198 3.7546 0.0000 -10763.3924 1484.2634 0.0000 0.0000 1802.1965 -7462.0206 305.2016 -9264.2171 -7459.1629 300.7683 128.3751 205.4877 30493.2550 54.6723 99.7311
ENERGY: 1200000 1.7415 12.9367 3.9711 0.0000 -10698.9252 1419.8267 0.0000 0.0000 1833.2173 -7427.2320 310.4550 -9260.4493 -7457.7750 301.4238 -301.8672 -293.3644 30489.5021 74.1817 111.0640
ENERGY: 1500000 2.4806 11.7383 4.1958 0.0000 -10837.1858 1544.0218 0.0000 0.0000 1747.6431 -7527.1063 295.9630 -9274.7493 -7466.9388 300.7800 614.7524 716.7827 30174.7560 164.8235 207.4512
TCL: Running FEP window   9: Lambda1 0.5999999999999996 Lambda2 0.5499999999999996 [dLambda -0.050000000000000044]
TCL: Setting parameter firsttimestep to 0
TCL: Setting parameter alchLambda to 0.5999999999999996
Info: NONBONDED TABLE R-SQUARED SPACING: 0.0625
Info: NONBONDED TABLE SIZE: 705 POINTS
TCL: Setting parameter alchLambda2 to 0.5499999999999996
Info: NONBONDED TABLE R-SQUARED SPACING: 0.0625
Info: NONBONDED TABLE SIZE: 705 POINTS
TCL: Running for 1500000 steps
ETITLE: TS BOND ANGLE DIHED IMPRP ELECT VDW BOUNDARY MISC KINETIC TOTAL TEMP POTENTIAL TOTALAVG TEMPAVG PRESSURE GPRESSURE VOLUME PRESSAVG GPRESSAVG
ENERGY: 0 2.4806 11.7383 4.1958 0.0000 -10835.3559 1543.1259 0.0000 0.0000 1746.7707 -7527.0446 295.8152 -9273.8153 -7527.0446 295.8152 630.4061 708.2170 30174.7560 630.4061 708.2170
ENERGY: 300000 2.1169 9.9437 4.0115 0.0000 -10713.0079 1473.4450 0.0000 0.0000 1762.6374 -7460.8534 298.5023 -9223.4907 -7484.0294 298.0936 192.3627 288.7644 30595.6180 87.3632 159.1308
ENERGY: 600000 3.1659 9.7251 4.4886 0.0000 -10650.9740 1412.8939 0.0000 0.0000 1746.1748 -7474.5257 295.7143 -9220.7004 -7456.0622 299.8602 -234.8581 -194.1830 30385.3318 75.3868 144.9514
ENERGY: 900000 1.4740 9.0227 3.2833 0.0000 -10773.7000 1560.5199 0.0000 0.0000 1772.1381 -7427.2620 300.1112 -9199.4001 -7449.4828 300.8805 772.7271 910.5487 30613.8135 144.3537 222.7538
ENERGY: 1200000 0.9782 6.5166 3.5859 0.0000 -10684.0322 1485.5493 0.0000 0.0000 1731.6651 -7455.7371 293.2571 -9187.4022 -7450.3684 300.3519 319.3293 388.5995 30449.4166 230.3235 310.1532
ENERGY: 1500000 2.4362 8.8660 4.5148 0.0000 -10689.0189 1425.9281 0.0000 0.0000 1798.8721 -7448.4018 304.6386 -9247.2739 -7447.8407 300.2262 -157.7505 -145.9187 30592.4324 134.4984 205.2713
TCL: Running FEP window  10: Lambda1 0.5499999999999996 Lambda2 0.4999999999999996 [dLambda -0.04999999999999999]
TCL: Setting parameter firsttimestep to 0
TCL: Setting parameter alchLambda to 0.5499999999999996
Info: NONBONDED TABLE R-SQUARED SPACING: 0.0625
Info: NONBONDED TABLE SIZE: 705 POINTS
TCL: Setting parameter alchLambda2 to 0.4999999999999996
Info: NONBONDED TABLE R-SQUARED SPACING: 0.0625
Info: NONBONDED TABLE SIZE: 705 POINTS
TCL: Running for 1500000 steps
ETITLE: TS BOND ANGLE DIHED IMPRP ELECT VDW BOUNDARY MISC KINETIC TOTAL TEMP POTENTIAL TOTALAVG TEMPAVG PRESSURE GPRESSURE VOLUME PRESSAVG GPRESSAVG
ENERGY: 0 2.4362 8.8660 4.5148 0.0000 -10689.2512 1426.2214 0.0000 0.0000 1798.0236 -7449.1892 304.4949 -9247.2129 -7449.1892 304.4949 -222.2351 -151.1500 30592.4324 -222.2351 -151.1500
ENERGY: 300000 1.1292 11.8362 4.0121 0.0000 -10652.1838 1431.7266 0.0000 0.0000 1709.3453 -7494.1343 289.4773 -9203.4796 -7450.3437 295.5322 -27.7973 9.3703 30378.0414 -15.5743 21.4283
ENERGY: 600000 3.9964 7.1044 5.0290 0.0000 -10601.7877 1377.4397 0.0000 0.0000 1783.2808 -7424.9374 301.9982 -9208.2182 -7435.1580 297.0653 -556.9035 -528.9704 30659.7818 -61.5562 -20.9021
ENERGY: 900000 0.6693 7.5352 4.6395 0.0000 -10674.4025 1459.9987 0.0000 0.0000 1756.0893 -7445.4705 297.3934 -9201.5598 -7431.2637 298.8714 250.6402 344.3410 30384.9675 54.7918 106.7919
ENERGY: 1200000 2.5327 11.2057 3.6817 0.0000 -10700.1998 1499.8238 0.0000 0.0000 1801.9569 -7380.9991 305.1610 -9182.9560 -7425.3490 300.0218 778.9776 903.7520 29864.0477 62.1091 116.6894
ENERGY: 1500000 2.9788 10.4683 3.1671 0.0000 -10630.2222 1436.7748 0.0000 0.0000 1760.8585 -7415.9747 298.2010 -9176.8332 -7436.7194 299.1662 35.4591 87.4811 30465.8661 0.9582 53.5044
TCL: Running FEP window  11: Lambda1 0.4999999999999996 Lambda2 0.4499999999999996 [dLambda -0.04999999999999999]
TCL: Setting parameter firsttimestep to 0
TCL: Setting parameter alchLambda to 0.4999999999999996
Info: NONBONDED TABLE R-SQUARED SPACING: 0.0625
Info: NONBONDED TABLE SIZE: 705 POINTS
TCL: Setting parameter alchLambda2 to 0.4499999999999996
Info: NONBONDED TABLE R-SQUARED SPACING: 0.0625
Info: NONBONDED TABLE SIZE: 705 POINTS
TCL: Running for 1500000 steps
ETITLE: TS BOND ANGLE DIHED IMPRP ELECT VDW BOUNDARY MISC KINETIC TOTAL TEMP POTENTIAL TOTALAVG TEMPAVG PRESSURE GPRESSURE VOLUME PRESSAVG GPRESSAVG
ENERGY: 0 2.9789 10.4683 3.1671 0.0000 -10630.3954 1437.1059 0.0000 0.0000 1759.9659 -7416.7094 298.0498 -9176.6752 -7416.7094 298.0498 -9.7392 79.9174 30465.8661 -9.7392 79.9174
ENERGY: 300000 3.1977 7.2865 4.0704 0.0000 -10602.8944 1404.2062 0.0000 0.0000 1817.0386 -7367.0950 307.7151 -9184.1336 -7400.4548 303.2757 -307.5386 -233.6435 30847.3534 -208.1105 -136.4832
ENERGY: 600000 3.0818 10.6414 4.3380 0.0000 -10649.2848 1421.5609 0.0000 0.0000 1780.9536 -7428.7091 301.6041 -9209.6627 -7408.9100 302.4688 -235.9975 -203.3869 30686.3797 -104.4961 -35.4938
ENERGY: 900000 3.6203 10.7893 4.0996 0.0000 -10752.0083 1462.3703 0.0000 0.0000 1707.0332 -7564.0956 289.0857 -9271.1288 -7440.1889 299.7501 2.7933 113.4365 30409.8491 -86.0910 -12.1769
ENERGY: 1200000 1.0025 8.2384 3.5549 0.0000 -10877.8281 1545.0409 0.0000 0.0000 1765.4393 -7554.5521 298.9768 -9319.9914 -7454.4964 298.6793 731.1631 749.1657 30174.1250 -11.9144 52.2356
ENERGY: 1500000 1.2917 11.9194 5.9481 0.0000 -10581.7779 1371.6358 0.0000 0.0000 1753.8332 -7437.1497 297.0113 -9190.9829 -7455.3837 298.2789 -567.8823 -472.5774 30630.0415 -48.0509 21.5101
TCL: Running FEP window  12: Lambda1 0.4499999999999996 Lambda2 0.39999999999999963 [dLambda -0.04999999999999999]
TCL: Setting parameter firsttimestep to 0
TCL: Setting parameter alchLambda to 0.4499999999999996
Info: NONBONDED TABLE R-SQUARED SPACING: 0.0625
Info: NONBONDED TABLE SIZE: 705 POINTS
TCL: Setting parameter alchLambda2 to 0.39999999999999963
Info: NONBONDED TABLE R-SQUARED SPACING: 0.0625
Info: NONBONDED TABLE SIZE: 705 POINTS
TCL: Running for 1500000 steps
ETITLE: TS BOND ANGLE DIHED IMPRP ELECT VDW BOUNDARY MISC KINETIC TOTAL TEMP POTENTIAL TOTALAVG TEMPAVG PRESSURE GPRESSURE VOLUME PRESSAVG GPRESSAVG
ENERGY: 0 1.2917 11.9194 5.9481 0.0000 -10581.7771 1372.0661 0.0000 0.0000 1752.9486 -7437.6032 296.8615 -9190.5518 -7437.6032 296.8615 -566.1592 -474.3464 30630.0415 -566.1592 -474.3464
ENERGY: 300000 2.6317 6.9381 5.1384 0.0000 -10735.2403 1500.0303 0.0000 0.0000 1770.1155 -7450.3863 299.7687 -9220.5018 -7454.5199 300.6773 264.9716 322.2478 30556.8343 207.1152 300.3950
ENERGY: 600000 2.0249 9.1979 4.9602 0.0000 -10650.9896 1364.1715 0.0000 0.0000 1769.5324 -7501.1027 299.6699 -9270.6352 -7453.3018 300.8341 -542.8524 -482.9035 29914.3733 -41.4099 35.3090
ENERGY: 900000 3.9477 10.3092 3.3946 0.0000 -10555.2578 1389.1259 0.0000 0.0000 1806.9899 -7341.4905 306.0133 -9148.4804 -7433.6548 300.1549 -174.3619 -146.4267 30298.8901 -213.8458 -139.7655
ENERGY: 1200000 1.4013 10.0655 4.6256 0.0000 -10783.0406 1501.7806 0.0000 0.0000 1799.4262 -7465.7415 304.7324 -9265.1676 -7441.9161 299.7559 655.5732 719.1451 29877.0616 -178.6718 -99.7639
ENERGY: 1500000 4.0522 7.7835 3.9270 0.0000 -10620.7236 1394.7892 0.0000 0.0000 1824.5093 -7385.6623 308.9803 -9210.1717 -7428.5844 301.2102 -238.2067 -138.9689 30244.9232 -183.4945 -105.6638
TCL: Running FEP window  13: Lambda1 0.39999999999999963 Lambda2 0.34999999999999964 [dLambda -0.04999999999999999]
TCL: Setting parameter firsttimestep to 0
TCL: Setting parameter alchLambda to 0.39999999999999963
Info: NONBONDED TABLE R-SQUARED SPACING: 0.0625
Info: NONBONDED TABLE SIZE: 705 POINTS
TCL: Setting parameter alchLambda2 to 0.34999999999999964
Info: NONBONDED TABLE R-SQUARED SPACING: 0.0625
Info: NONBONDED TABLE SIZE: 705 POINTS
TCL: Running for 1500000 steps
ETITLE: TS BOND ANGLE DIHED IMPRP ELECT VDW BOUNDARY MISC KINETIC TOTAL TEMP POTENTIAL TOTALAVG TEMPAVG PRESSURE GPRESSURE VOLUME PRESSAVG GPRESSAVG
ENERGY: 0 4.0522 7.7835 3.9270 0.0000 -10620.7229 1394.5434 0.0000 0.0000 1823.6375 -7386.7793 308.8326 -9210.4168 -7386.7793 308.8326 -239.3382 -147.4074 30244.9232 -239.3382 -147.4074
ENERGY: 300000 1.8428 8.0603 3.5895 0.0000 -10851.2168 1489.8260 0.0000 0.0000 1746.9529 -7600.9453 295.8461 -9347.8982 -7451.9587 302.6648 -100.3182 -41.0938 30431.5751 -227.4683 -158.5906
ENERGY: 600000 2.6192 9.7566 3.7042 0.0000 -10663.5068 1430.6470 0.0000 0.0000 1795.6510 -7421.1288 304.0931 -9216.7798 -7457.9279 300.5206 55.8958 131.0503 30224.2004 37.6463 104.3650
ENERGY: 900000 6.6358 8.4663 4.0502 0.0000 -10675.2219 1403.2823 0.0000 0.0000 1821.8481 -7430.9392 308.5296 -9252.7873 -7461.9216 300.7984 -584.3618 -600.5646 30680.7286 -121.0077 -54.1368
ENERGY: 1200000 2.5193 8.5975 3.4485 0.0000 -10538.3710 1318.7393 0.0000 0.0000 1763.6280 -7441.4384 298.6700 -9205.0664 -7450.5317 300.5792 -1163.0303 -1117.9458 30853.6817 -181.9572 -116.5958
ENERGY: 1500000 1.7641 8.3802 3.6044 0.0000 -10689.1578 1465.2476 0.0000 0.0000 1735.6234 -7474.5380 293.9275 -9210.1615 -7458.1123 300.2784 385.8712 439.0560 30170.3283 -77.7410 -15.4682
TCL: Running FEP window  14: Lambda1 0.34999999999999964 Lambda2 0.29999999999999966 [dLambda -0.04999999999999999]
TCL: Setting parameter firsttimestep to 0
TCL: Setting parameter alchLambda to 0.34999999999999964
Info: NONBONDED TABLE R-SQUARED SPACING: 0.0625
Info: NONBONDED TABLE SIZE: 705 POINTS
TCL: Setting parameter alchLambda2 to 0.29999999999999966
Info: NONBONDED TABLE R-SQUARED SPACING: 0.0625
Info: NONBONDED TABLE SIZE: 705 POINTS
TCL: Running for 1500000 steps
ETITLE: TS BOND ANGLE DIHED IMPRP ELECT VDW BOUNDARY MISC KINETIC TOTAL TEMP POTENTIAL TOTALAVG TEMPAVG PRESSURE GPRESSURE VOLUME PRESSAVG GPRESSAVG
ENERGY: 0 1.7641 8.3802 3.6044 0.0000 -10689.1585 1465.1026 0.0000 0.0000 1734.7179 -7475.5894 293.7741 -9210.3073 -7475.5894 293.7741 342.0163 428.9662 30170.3283 342.0163 428.9662
ENERGY: 300000 3.2108 7.0774 3.6220 0.0000 -10682.2867 1488.6478 0.0000 0.0000 1761.6562 -7418.0724 298.3361 -9179.7287 -7448.8223 299.9441 540.1366 640.9346 30188.4366 86.6729 156.1295
ENERGY: 600000 2.3579 9.8971 6.4750 0.0000 -10683.1170 1460.7952 0.0000 0.0000 1735.9423 -7467.6495 293.9815 -9203.5918 -7434.6425 301.3361 -64.8342 2.4430 30596.7224 237.3117 293.1649
ENERGY: 900000 1.6567 7.5973 3.2788 0.0000 -10581.9580 1437.2648 0.0000 0.0000 1744.0054 -7388.1551 295.3469 -9132.1604 -7442.0190 300.3829 -20.4103 77.2116 30652.8699 187.1437 249.8850
ENERGY: 1200000 1.6106 7.4834 4.1522 0.0000 -10636.4966 1424.1077 0.0000 0.0000 1821.3550 -7377.7878 308.4461 -9199.1428 -7446.8908 300.5030 20.2065 73.0869 30163.3001 127.7037 190.9890
ENERGY: 1500000 0.8830 8.9371 4.1586 0.0000 -10457.6608 1379.7548 0.0000 0.0000 1791.7143 -7272.2129 303.4264 -9063.9272 -7439.5938 300.2474 -126.1246 -63.4853 30660.8104 115.3652 173.4674
TCL: Running FEP window  15: Lambda1 0.29999999999999966 Lambda2 0.24999999999999967 [dLambda -0.04999999999999999]
TCL: Setting parameter firsttimestep to 0
TCL: Setting parameter alchLambda to 0.29999999999999966
Info: NONBONDED TABLE R-SQUARED SPACING: 0.0625
Info: NONBONDED TABLE SIZE: 705 POINTS
TCL: Setting parameter alchLambda2 to 0.24999999999999967
Info: NONBONDED TABLE R-SQUARED SPACING: 0.0625
Info: NONBONDED TABLE SIZE: 705 POINTS
TCL: Running for 1500000 steps
ETITLE: TS BOND ANGLE DIHED IMPRP ELECT VDW BOUNDARY MISC KINETIC TOTAL TEMP POTENTIAL TOTALAVG TEMPAVG PRESSURE GPRESSURE VOLUME PRESSAVG GPRESSAVG
ENERGY: 0 0.8830 8.9371 4.1586 0.0000 -10457.6612 1380.1098 0.0000 0.0000 1790.8421 -7272.7306 303.2787 -9063.5726 -7272.7306 303.2787 -152.8135 -63.6515 30660.8104 -152.8135 -63.6515
ENERGY: 300000 2.3657 8.3919 3.4092 0.0000 -10716.6430 1481.4531 0.0000 0.0000 1780.2267 -7440.7965 301.4810 -9221.0232 -7388.0493 299.1256 192.9550 243.1826 30465.5944 -93.1654 -26.4066
ENERGY: 600000 1.7690 9.8836 6.0183 0.0000 -10635.1391 1413.1682 0.0000 0.0000 1749.6113 -7454.6887 296.2963 -9204.3001 -7382.4851 300.5339 -203.3996 -125.2971 30395.3561 -43.6819 25.8154
ENERGY: 900000 1.5367 8.5279 4.1825 0.0000 -10744.8028 1491.1851 0.0000 0.0000 1752.6014 -7486.7691 296.8027 -9239.3705 -7408.5749 300.3707 127.6611 194.3132 30773.9552 -97.1060 -31.4473
ENERGY: 1200000 4.1757 6.9058 3.8659 0.0000 -10605.7057 1352.9543 0.0000 0.0000 1767.4561 -7470.3479 299.3183 -9237.8040 -7422.7907 300.0001 -920.5442 -863.6320 30641.9685 -135.8386 -73.1369
ENERGY: 1500000 1.5976 18.0065 4.4411 0.0000 -10699.3332 1417.4482 0.0000 0.0000 1813.9281 -7443.9116 307.1883 -9257.8397 -7425.9234 300.2782 -538.9677 -445.6193 30718.6586 -193.1884 -129.7570
TCL: Running FEP window  16: Lambda1 0.24999999999999967 Lambda2 0.19999999999999968 [dLambda -0.04999999999999999]
TCL: Setting parameter firsttimestep to 0
TCL: Setting parameter alchLambda to 0.24999999999999967
Info: NONBONDED TABLE R-SQUARED SPACING: 0.0625
Info: NONBONDED TABLE SIZE: 705 POINTS
TCL: Setting parameter alchLambda2 to 0.19999999999999968
Info: NONBONDED TABLE R-SQUARED SPACING: 0.0625
Info: NONBONDED TABLE SIZE: 705 POINTS
TCL: Running for 1500000 steps
ETITLE: TS BOND ANGLE DIHED IMPRP ELECT VDW BOUNDARY MISC KINETIC TOTAL TEMP POTENTIAL TOTALAVG TEMPAVG PRESSURE GPRESSURE VOLUME PRESSAVG GPRESSAVG
ENERGY: 0 1.5976 18.0065 4.4411 0.0000 -10699.3329 1417.8975 0.0000 0.0000 1813.0719 -7444.3183 307.0433 -9257.3902 -7444.3183 307.0433 -503.9032 -444.6121 30718.6586 -503.9032 -444.6121
ENERGY: 300000 2.6039 9.3294 4.3397 0.0000 -10804.5250 1523.7874 0.0000 0.0000 1795.7395 -7468.7251 304.1081 -9264.4646 -7438.0322 305.1930 792.2220 801.3390 29856.1079 -53.5557 0.9444
ENERGY: 600000 4.0676 7.4839 2.9847 0.0000 -10633.4974 1429.4625 0.0000 0.0000 1773.9592 -7415.5395 300.4196 -9189.4987 -7415.9414 304.3831 -113.2756 -48.7728 30385.1206 -176.7026 -100.7986
ENERGY: 900000 2.2304 10.3901 3.8502 0.0000 -10794.0737 1502.4085 0.0000 0.0000 1756.5427 -7518.6518 297.4701 -9275.1945 -7433.5407 301.4807 115.1344 173.0943 30451.0166 -170.4478 -94.3727
ENERGY: 1200000 3.5236 8.9517 3.9873 0.0000 -10753.4921 1524.3357 0.0000 0.0000 1698.4491 -7514.2445 287.6320 -9212.6937 -7449.8825 298.8745 429.4994 446.4772 30504.4350 -171.3143 -93.2000
ENERGY: 1500000 3.8371 7.1866 3.9511 0.0000 -10587.8962 1357.6569 0.0000 0.0000 1758.1959 -7457.0685 297.7501 -9215.2644 -7444.5548 299.4467 -633.5501 -575.0375 30621.3077 -169.3547 -93.8197
TCL: Running FEP window  17: Lambda1 0.19999999999999968 Lambda2 0.1499999999999997 [dLambda -0.04999999999999999]
TCL: Setting parameter firsttimestep to 0
TCL: Setting parameter alchLambda to 0.19999999999999968
Info: NONBONDED TABLE R-SQUARED SPACING: 0.0625
Info: NONBONDED TABLE SIZE: 705 POINTS
TCL: Setting parameter alchLambda2 to 0.1499999999999997
Info: NONBONDED TABLE R-SQUARED SPACING: 0.0625
Info: NONBONDED TABLE SIZE: 705 POINTS
TCL: Running for 1500000 steps
ETITLE: TS BOND ANGLE DIHED IMPRP ELECT VDW BOUNDARY MISC KINETIC TOTAL TEMP POTENTIAL TOTALAVG TEMPAVG PRESSURE GPRESSURE VOLUME PRESSAVG GPRESSAVG
ENERGY: 0 3.8371 7.1866 3.9511 0.0000 -10587.8957 1357.7720 0.0000 0.0000 1757.3067 -7457.8422 297.5995 -9215.1489 -7457.8422 297.5995 -658.8268 -576.3882 30621.3077 -658.8268 -576.3882
ENERGY: 300000 3.7742 4.7586 3.3476 0.0000 -10462.4423 1315.8329 0.0000 0.0000 1755.0005 -7379.7285 297.2090 -9134.7290 -7388.9266 300.3749 -1085.5596 -1067.6480 31404.0326 -565.5028 -503.1707
ENERGY: 600000 3.7729 8.5967 3.5040 0.0000 -10618.6189 1394.8873 0.0000 0.0000 1735.6018 -7472.2562 293.9238 -9207.8580 -7417.9235 299.4927 -603.8051 -489.5023 30493.9450 -494.0582 -442.9663
ENERGY: 900000 2.8073 7.1655 3.8192 0.0000 -10537.2979 1342.3385 0.0000 0.0000 1778.9499 -7402.2175 301.2648 -9181.1674 -7420.9890 299.7021 -1069.4804 -990.3475 31067.3096 -541.3057 -481.6926
ENERGY: 1200000 3.6760 5.6464 3.1912 0.0000 -10714.7102 1466.0936 0.0000 0.0000 1770.6662 -7465.4367 299.8619 -9236.1029 -7430.4870 299.9435 136.1802 161.0463 29962.5192 -418.4772 -352.9884
ENERGY: 1500000 2.7823 7.0177 3.7876 0.0000 -10684.7527 1443.1735 0.0000 0.0000 1800.1094 -7427.8822 304.8481 -9227.9916 -7441.2120 299.4450 -63.6076 36.0956 30456.4435 -354.5394 -288.0494
TCL: Running FEP window  18: Lambda1 0.1499999999999997 Lambda2 0.09999999999999969 [dLambda -0.05 ]
TCL: Setting parameter firsttimestep to 0
TCL: Setting parameter alchLambda to 0.1499999999999997
Info: NONBONDED TABLE R-SQUARED SPACING: 0.0625
Info: NONBONDED TABLE SIZE: 705 POINTS
TCL: Setting parameter alchLambda2 to 0.09999999999999969
Info: NONBONDED TABLE R-SQUARED SPACING: 0.0625
Info: NONBONDED TABLE SIZE: 705 POINTS
TCL: Running for 1500000 steps
ETITLE: TS BOND ANGLE DIHED IMPRP ELECT VDW BOUNDARY MISC KINETIC TOTAL TEMP POTENTIAL TOTALAVG TEMPAVG PRESSURE GPRESSURE VOLUME PRESSAVG GPRESSAVG
ENERGY: 0 2.7823 7.0177 3.7876 0.0000 -10684.7522 1443.2234 0.0000 0.0000 1799.2566 -7428.6846 304.7037 -9227.9412 -7428.6846 304.7037 -48.7365 33.9468 30456.4435 -48.7365 33.9468
ENERGY: 300000 2.8269 11.0505 3.9376 0.0000 -10717.8282 1446.0546 0.0000 0.0000 1808.1718 -7445.7868 306.2135 -9253.9586 -7421.2286 303.7259 240.1188 308.1572 29683.5490 -159.8049 -67.1958
ENERGY: 600000 1.4522 6.0961 4.1895 0.0000 -10542.6747 1328.6868 0.0000 0.0000 1855.2128 -7347.0373 314.1799 -9202.2501 -7442.6310 303.0175 -902.0482 -871.6185 30999.3069 -307.6941 -239.4204
ENERGY: 900000 3.7886 8.5767 4.2494 0.0000 -10700.3178 1465.3317 0.0000 0.0000 1796.5864 -7421.7851 304.2515 -9218.3714 -7433.8757 302.7208 177.1355 189.3969 30342.5310 -82.4272 -20.9495
ENERGY: 1200000 2.0462 7.1344 3.7805 0.0000 -10692.7666 1441.7582 0.0000 0.0000 1809.7337 -7428.3136 306.4780 -9238.0473 -7444.8467 301.6110 -96.7567 -1.8931 30439.9438 -75.7135 -18.2393
ENERGY: 1500000 3.0394 8.5059 7.2977 0.0000 -10528.5680 1370.0867 0.0000 0.0000 1800.9766 -7338.6617 304.9950 -9139.6383 -7444.2078 301.7595 -425.3417 -397.4670 30470.5928 -90.1676 -32.0853
TCL: Running FEP window  19: Lambda1 0.09999999999999969 Lambda2 0.049999999999999684 [dLambda -0.05 ]
TCL: Setting parameter firsttimestep to 0
TCL: Setting parameter alchLambda to 0.09999999999999969
Info: NONBONDED TABLE R-SQUARED SPACING: 0.0625
Info: NONBONDED TABLE SIZE: 705 POINTS
TCL: Setting parameter alchLambda2 to 0.049999999999999684
Info: NONBONDED TABLE R-SQUARED SPACING: 0.0625
Info: NONBONDED TABLE SIZE: 705 POINTS
TCL: Running for 1500000 steps
ETITLE: TS BOND ANGLE DIHED IMPRP ELECT VDW BOUNDARY MISC KINETIC TOTAL TEMP POTENTIAL TOTALAVG TEMPAVG PRESSURE GPRESSURE VOLUME PRESSAVG GPRESSAVG
ENERGY: 0 3.0394 8.5059 7.2977 0.0000 -10528.5692 1369.9464 0.0000 0.0000 1800.1059 -7339.6738 304.8476 -9139.7798 -7339.6738 304.8476 -481.4795 -401.3836 30470.5928 -481.4795 -401.3836
ENERGY: 300000 2.9474 10.8657 4.4824 0.0000 -10820.0227 1529.0998 0.0000 0.0000 1831.2619 -7441.3655 310.1238 -9272.6274 -7445.6720 301.7220 791.9915 838.7848 29581.7956 113.5479 172.8309
ENERGY: 600000 2.1707 9.0322 4.6432 0.0000 -10728.0572 1489.1201 0.0000 0.0000 1816.0160 -7407.0750 307.5419 -9223.0911 -7424.4189 304.1402 177.0117 254.1990 30676.0512 -24.5129 46.6714
ENERGY: 900000 1.4442 7.6063 5.0290 0.0000 -10727.1063 1432.3733 0.0000 0.0000 1797.2740 -7483.3794 304.3680 -9280.6534 -7455.1198 302.7347 -196.5805 -140.4007 30200.6091 -180.9392 -110.9449
ENERGY: 1200000 5.1311 8.1295 4.5202 0.0000 -10617.5847 1410.7131 0.0000 0.0000 1757.2706 -7431.8203 297.5934 -9189.0908 -7447.8850 302.7061 -409.6815 -394.7922 30541.6936 -213.2384 -147.3323
ENERGY: 1500000 3.1231 6.8811 4.7444 0.0000 -10686.6906 1395.0869 0.0000 0.0000 1742.0830 -7534.7721 295.0214 -9276.8552 -7454.6457 301.5954 -948.7813 -819.0904 30948.4240 -264.1392 -199.5541
TCL: Running FEP window  20: Lambda1 0.049999999999999684 Lambda2 0.0    [dLambda -0.049999999999999684]
TCL: Setting parameter firsttimestep to 0
TCL: Setting parameter alchLambda to 0.049999999999999684
Info: NONBONDED TABLE R-SQUARED SPACING: 0.0625
Info: NONBONDED TABLE SIZE: 705 POINTS
TCL: Setting parameter alchLambda2 to 0.0
Info: NONBONDED TABLE R-SQUARED SPACING: 0.0625
Info: NONBONDED TABLE SIZE: 705 POINTS
TCL: Running for 1500000 steps
ETITLE: TS BOND ANGLE DIHED IMPRP ELECT VDW BOUNDARY MISC KINETIC TOTAL TEMP POTENTIAL TOTALAVG TEMPAVG PRESSURE GPRESSURE VOLUME PRESSAVG GPRESSAVG
ENERGY: 0 3.1231 6.8810 4.7444 0.0000 -10686.6911 1395.1333 0.0000 0.0000 1741.2308 -7535.5784 294.8771 -9276.8092 -7535.5784 294.8771 -913.9916 -820.2290 30948.4240 -913.9916 -820.2290
ENERGY: 300000 1.4387 10.1842 3.9394 0.0000 -10661.0757 1427.8056 0.0000 0.0000 1761.5905 -7456.1173 298.3250 -9217.7078 -7474.4076 300.4635 44.5096 53.2038 30107.5427 -233.1966 -180.2628
ENERGY: 600000 1.5098 8.1993 4.5964 0.0000 -10958.0286 1618.4684 0.0000 0.0000 1754.5601 -7570.6946 297.1344 -9325.2547 -7487.9262 300.4584 1469.4834 1487.6947 29726.1667 127.2937 183.3743
ENERGY: 900000 2.0386 12.8424 4.8423 0.0000 -10658.9281 1456.9764 0.0000 0.0000 1807.9269 -7374.3015 306.1720 -9182.2284 -7463.7675 300.6275 118.1893 213.2446 30417.4668 122.6385 181.6968
ENERGY: 1200000 1.9328 7.1335 3.7637 0.0000 -10741.1155 1469.9505 0.0000 0.0000 1741.0805 -7517.2544 294.8516 -9258.3349 -7465.2360 300.4399 -317.2339 -216.7556 30828.3014 109.7843 169.9012
ENERGY: 1500000 2.3869 8.5546 3.2339 0.0000 -10698.8129 1446.7865 0.0000 0.0000 1794.6487 -7443.2022 303.9234 -9237.8510 -7467.5291 300.3256 68.6448 125.1488 30064.1406 121.8499 183.6075
TCL: Exiting due to exit command.
