Info: SIMULATION PARAMETERS:
Info: TIMESTEP               2
Info: NUMBER OF STEPS        0
Info: STEPS PER CYCLE        10
Info: PERIODIC CELL BASIS 1  30.8282 0 0
Info: PERIODIC CELL BASIS 2  0 29.355 0
Info: PERIODIC CELL BASIS 3  0 0 33.0003
Info: PERIODIC CELL CENTER   0 0 0
Info: WRAPPING WATERS AROUND PERIODIC BOUNDARIES ON OUTPUT.
Info: WRAPPING ALL CLUSTERS AROUND PERIODIC BOUNDARIES ON OUTPUT.
Info: FIRST LDB TIMESTEP     50
Info: LAST LDB TIMESTEP     -1
Info: HOM BACKGROUND SCALING 1
Info: PME BACKGROUND SCALING 1
Info: MIN ATOMS PER PATCH    40
Info: EMPTY PATCH LOAD       40 ATOMS
Info: VELOCITY FILE          mobley_3144334_equil.vel
Info: CENTER OF MASS MOVING INITIALLY? NO
Info: DIELECTRIC             1
Info: EXCLUDE                SCALED ONE-FOUR
Info: 1-4 ELECTROSTATICS SCALED BY 0.833333
Info: MODIFIED 1-4 VDW PARAMETERS WILL BE USED
Info: DCD FILENAME           mobley_3144334_prod.dcd
Info: DCD FREQUENCY          100000
Info: DCD FIRST STEP         100000
Info: DCD FILE WILL CONTAIN UNIT CELL DATA
Info: XST FILENAME           mobley_3144334_prod.xst
Info: XST FREQUENCY          100000
Info: NO VELOCITY DCD OUTPUT
Info: NO FORCE DCD OUTPUT
Info: OUTPUT FILENAME        mobley_3144334_prod
Info: BINARY OUTPUT FILES WILL BE USED
Info: RESTART FILENAME       mobley_3144334_prod.restart
Info: RESTART FREQUENCY      100000
Info: BINARY RESTART FILES WILL BE USED
Info: CUTOFF                 9
Info: PAIRLIST DISTANCE      11
Info: PAIRLIST SHRINK RATE   0.01
Info: PAIRLIST GROW RATE     0.01
Info: PAIRLIST TRIGGER       0.3
Info: PAIRLISTS PER CYCLE    2
Info: PAIRLISTS ENABLED
Info: MARGIN                 2
Info: HYDROGEN GROUP CUTOFF  2.5
Info: PATCH DIMENSION        15.5
Info: ENERGY OUTPUT STEPS    100000
Info: ENERGY EVALUATION STEPS    100000
Info: OUTPUT ENERGY PRECISION 4
Info: CROSSTERM ENERGY INCLUDED IN DIHEDRAL
Info: TIMING OUTPUT STEPS    1000000
Info: PRESSURE OUTPUT STEPS  100000
Info: ALCHEMICAL FEP ON
Info: FEP CURRENT LAMBDA VALUE     1
Info: FEP COMPARISON LAMBDA VALUE  0.95
Info: FEP INTRA-ALCHEMICAL NON-BONDED INTERACTIONS WILL BE RETAINED
Info: FEP INTRA-ALCHEMICAL BONDED INTERACTIONS WILL BE RETAINED
Info: FEP VDW SHIFTING COEFFICIENT 5
Info: FEP ELEC. ACTIVE FOR ANNIHILATED PARTICLES BETWEEN LAMBDA = 0 AND LAMBDA = 0.5
Info: FEP ELEC. ACTIVE FOR EXNIHILATED PARTICLES BETWEEN LAMBDA = 0.5 AND LAMBDA = 1
Info: FEP VDW ACTIVE FOR ANNIHILATED PARTICLES BETWEEN LAMBDA = 0 AND LAMBDA = 1
Info: FEP VDW ACTIVE FOR EXNIHILATED PARTICLES BETWEEN LAMBDA = 0 AND LAMBDA = 1
Info: FEP BOND ACTIVE FOR ANNIHILATED PARTICLES BETWEEN LAMBDA = 1 AND LAMBDA = 1
Info: FEP BOND ACTIVE FOR EXNIHILATED PARTICLES BETWEEN LAMBDA = 0 AND LAMBDA = 0
Info: LANGEVIN DYNAMICS ACTIVE
Info: LANGEVIN TEMPERATURE   300
Info: LANGEVIN USING BBK INTEGRATOR
Info: LANGEVIN DAMPING COEFFICIENT IS 1 INVERSE PS
Info: LANGEVIN DYNAMICS APPLIED TO HYDROGENS
Info: LANGEVIN PISTON PRESSURE CONTROL ACTIVE
Info:        TARGET PRESSURE IS 1.01325 BAR
Info:     OSCILLATION PERIOD IS 50 FS
Info:             DECAY TIME IS 25 FS
Info:     PISTON TEMPERATURE IS 300 K
Info:       PRESSURE CONTROL IS GROUP-BASED
Info:    INITIAL STRAIN RATE IS -0.000366108 -0.000366108 -0.000366108
Info:       CELL FLUCTUATION IS ISOTROPIC
Info: PARTICLE MESH EWALD (PME) ACTIVE
Info: PME TOLERANCE               1e-06
Info: PME EWALD COEFFICIENT       0.348832
Info: PME INTERPOLATION ORDER     4
Info: PME GRID DIMENSIONS         32 32 36
Info: PME MAXIMUM GRID SPACING    1
Info: PME CALCULATION WILL BE PERFORMED ON GPU
Info: FULL ELECTROSTATIC EVALUATION FREQUENCY      2
Info: USING VERLET I (r-RESPA) MTS SCHEME.
Info: C1 SPLITTING OF LONG RANGE ELECTROSTATICS
Info: PLACING ATOMS IN PATCHES BY HYDROGEN GROUPS
Info: RIGID BONDS TO HYDROGEN : ALL
Info:         ERROR TOLERANCE : 1e-08
Info:          MAX ITERATIONS : 100
Info: RIGID WATER USING SETTLE ALGORITHM
Info: RANDOM NUMBER SEED     1743622921
Info: USE HYDROGEN BONDS?    NO
Info: Using AMBER format force field!
Info: AMBER PARM FILE        mobley_3144334.prmtop
Info: COORDINATE PDB         mobley_3144334.pdb
Info: Exclusions will be read from PARM file!
Info: SCNB (VDW SCALING)     2
Info: USING ARITHMETIC MEAN TO COMBINE L-J SIGMA PARAMETERS
Info: BINARY COORDINATES     mobley_3144334_equil.coor
Info: SUMMARY OF PARAMETERS:
Info: 8 BONDS
Info: 7 ANGLES
Info:   7 HARMONIC
Info:   0 COSINE-BASED
Info: 4 DIHEDRAL
Info: 0 IMPROPER
Info: 0 CROSSTERM
Info: 0 VDW
Info: 28 VDW_PAIRS
Info: 0 NBTHOLE_PAIRS
Info: To read alchdata from file: mobley_3144334.pdb
Info: To read alchflag data from column: 5
Info: STRUCTURE SUMMARY:
Info: 2935 ATOMS
Info: 2935 BONDS
Info: 31 ANGLES
Info: 44 DIHEDRALS
Info: 0 IMPROPERS
Info: 0 CROSSTERMS
Info: 3001 EXCLUSIONS
Info: 2926 RIGID BONDS
Info: ALCH: 0 ATOMS TO DISAPPEAR IN FINAL STATE
Info: ALCH: 19 ATOMS TO APPEAR IN FINAL STATE
Info: 5879 DEGREES OF FREEDOM
Info: 981 HYDROGEN GROUPS
Info: 4 ATOMS IN LARGEST HYDROGEN GROUP
Info: 981 MIGRATION GROUPS
Info: 4 ATOMS IN LARGEST MIGRATION GROUP
Info: TOTAL MASS = 17633.7 amu
Info: TOTAL CHARGE = 0.000200007 e
Info: MASS DENSITY = 0.980516 g/cm^3
Info: ATOM DENSITY = 0.0982788 atoms/A^3
Info: ADDED 0 IMPLICIT EXCLUSIONS
Info: NONBONDED TABLE R-SQUARED SPACING: 0.0625
Info: NONBONDED TABLE SIZE: 705 POINTS
Info: REMOVING COM VELOCITY 0.0521171 0.045941 0.0501659
Info: Use 3D box decompostion in PME FFT.
Info: Updated CUDA force table with 4096 elements.
Info: Updated CUDA LJ table with 7 x 7 elements.
Info: Found 21 unique exclusion lists needing 56 bytes
TCL: Running for 1500000 steps
ETITLE: TS BOND ANGLE DIHED IMPRP ELECT VDW BOUNDARY MISC KINETIC TOTAL TEMP POTENTIAL TOTALAVG TEMPAVG PRESSURE GPRESSURE VOLUME PRESSAVG GPRESSAVG
ENERGY: 0 1.0550 5.7697 2.3453 0.0000 -10695.5513 1431.9633 0.0000 0.0000 1730.4029 -7524.0150 296.2335 -9254.4180 -7524.0150 296.2335 147.9531 229.0290 29864.0171 147.9531 229.0290
ENERGY: 300000 5.3779 6.4701 2.3499 0.0000 -10582.6984 1442.3784 0.0000 0.0000 1719.0623 -7407.0598 294.2921 -9126.1221 -7452.0986 297.6638 723.0254 765.7963 29913.3233 586.4382 666.9880
ENERGY: 600000 2.2984 6.5372 7.1084 0.0000 -10554.2614 1390.5501 0.0000 0.0000 1809.2396 -7338.5277 309.7298 -9147.7673 -7416.7975 302.4136 -61.3982 93.8465 30181.6546 235.5431 315.0603
ENERGY: 900000 2.5382 4.3330 7.8933 0.0000 -10640.8638 1454.2335 0.0000 0.0000 1775.4125 -7396.4532 303.9388 -9171.8657 -7417.3813 302.1250 470.5920 517.7657 30023.4502 136.9003 213.7883
ENERGY: 1200000 3.1209 9.6328 1.9267 0.0000 -10577.5108 1348.2398 0.0000 0.0000 1732.9135 -7481.6771 296.6633 -9214.5906 -7426.6413 301.6687 -740.5522 -707.9690 30384.2475 41.7701 109.4456
ENERGY: 1500000 1.1285 8.8892 4.9472 0.0000 -10423.1740 1295.4209 0.0000 0.0000 1755.2024 -7357.5859 300.4790 -9112.7883 -7410.2609 302.2170 -568.3306 -489.7278 30280.0054 -16.5478 50.6055
TCL: Running FEP window   2: Lambda1 0.95   Lambda2 0.8999999999999999 [dLambda -0.050000000000000044]
TCL: Setting parameter firsttimestep to 0
TCL: Setting parameter alchLambda to 0.95
Info: NONBONDED TABLE R-SQUARED SPACING: 0.0625
Info: NONBONDED TABLE SIZE: 705 POINTS
TCL: Setting parameter alchLambda2 to 0.8999999999999999
Info: NONBONDED TABLE R-SQUARED SPACING: 0.0625
Info: NONBONDED TABLE SIZE: 705 POINTS
TCL: Running for 1500000 steps
ETITLE: TS BOND ANGLE DIHED IMPRP ELECT VDW BOUNDARY MISC KINETIC TOTAL TEMP POTENTIAL TOTALAVG TEMPAVG PRESSURE GPRESSURE VOLUME PRESSAVG GPRESSAVG
ENERGY: 0 1.1285 8.8892 4.9472 0.0000 -10420.7980 1294.8410 0.0000 0.0000 1754.3658 -7356.6263 300.3358 -9110.9921 -7356.6263 300.3358 -599.2146 -506.5664 30280.0054 -599.2146 -506.5664
ENERGY: 300000 3.7479 8.5749 3.6479 0.0000 -10655.0992 1410.8305 0.0000 0.0000 1769.9378 -7458.3602 303.0016 -9228.2980 -7422.5130 300.6675 -410.7706 -345.7327 30446.2527 -292.3540 -216.4255
ENERGY: 600000 2.5057 6.2247 1.5051 0.0000 -10619.8921 1423.0348 0.0000 0.0000 1748.2975 -7438.3241 299.2969 -9186.6217 -7432.8880 299.6176 55.7838 102.0822 30263.5462 -134.7765 -69.2809
ENERGY: 900000 1.7306 11.2975 3.8197 0.0000 -10709.3962 1507.0921 0.0000 0.0000 1763.1643 -7422.2919 301.8420 -9185.4562 -7439.8265 298.8428 500.5501 542.8992 30596.5865 14.4202 72.8654
ENERGY: 1200000 3.2785 6.2088 4.4156 0.0000 -10635.9741 1380.7208 0.0000 0.0000 1710.0602 -7531.2903 292.7510 -9241.3505 -7457.2127 298.2100 -576.3138 -597.2231 30264.8748 -152.1780 -102.7792
ENERGY: 1500000 5.6757 8.1706 2.3417 0.0000 -10715.9995 1486.6131 0.0000 0.0000 1774.9059 -7438.2924 303.8521 -9213.1984 -7456.9595 298.9727 621.3349 649.7873 30167.6286 -120.6399 -71.0145
TCL: Running FEP window   3: Lambda1 0.8999999999999999 Lambda2 0.8499999999999999 [dLambda -0.050000000000000044]
TCL: Setting parameter firsttimestep to 0
TCL: Setting parameter alchLambda to 0.8999999999999999
Info: NONBONDED TABLE R-SQUARED SPACING: 0.0625
Info: NONBONDED TABLE SIZE: 705 POINTS
TCL: Setting parameter alchLambda2 to 0.8499999999999999
Info: NONBONDED TABLE R-SQUARED SPACING: 0.0625
Info: NONBONDED TABLE SIZE: 705 POINTS
TCL: Running for 1500000 steps
ETITLE: TS BOND ANGLE DIHED IMPRP ELECT VDW BOUNDARY MISC KINETIC TOTAL TEMP POTENTIAL TOTALAVG TEMPAVG PRESSURE GPRESSURE VOLUME PRESSAVG GPRESSAVG
ENERGY: 0 5.6757 8.1707 2.3417 0.0000 -10714.3946 1485.5521 0.0000 0.0000 1774.0019 -7438.6525 303.6973 -9212.6544 -7438.6525 303.6973 541.9239 629.3671 30167.6286 541.9239 629.3671
ENERGY: 300000 2.2373 3.8218 3.8244 0.0000 -10444.2947 1340.9320 0.0000 0.0000 1716.9817 -7376.4975 293.9359 -9093.4792 -7429.6930 299.9040 -415.7122 -334.2667 30318.7711 -44.7696 18.0698
ENERGY: 600000 1.6751 6.3728 2.9657 0.0000 -10601.2387 1421.5004 0.0000 0.0000 1765.6381 -7403.0865 302.2655 -9168.7246 -7428.5726 300.1066 235.5053 257.5511 30026.9085 -58.0032 -6.3455
ENERGY: 900000 3.8604 6.9104 2.9457 0.0000 -10626.0013 1448.4028 0.0000 0.0000 1756.2142 -7407.6679 300.6522 -9163.8821 -7429.0038 300.0612 193.2288 255.2281 30029.8623 93.4589 152.7033
ENERGY: 1200000 2.3880 5.0192 3.9698 0.0000 -10625.3292 1410.5658 0.0000 0.0000 1640.5289 -7562.8575 280.8477 -9203.3864 -7433.4323 299.2070 74.3381 103.3731 30006.1897 50.6155 105.8727
ENERGY: 1500000 1.5259 3.8806 0.9807 0.0000 -10664.3375 1433.7884 0.0000 0.0000 1739.8089 -7484.3529 297.8437 -9224.1618 -7442.6254 299.0985 416.4082 412.2902 29801.8199 117.1641 165.2807
TCL: Running FEP window   4: Lambda1 0.8499999999999999 Lambda2 0.7999999999999998 [dLambda -0.050000000000000044]
TCL: Setting parameter firsttimestep to 0
TCL: Setting parameter alchLambda to 0.8499999999999999
Info: NONBONDED TABLE R-SQUARED SPACING: 0.0625
Info: NONBONDED TABLE SIZE: 705 POINTS
TCL: Setting parameter alchLambda2 to 0.7999999999999998
Info: NONBONDED TABLE R-SQUARED SPACING: 0.0625
Info: NONBONDED TABLE SIZE: 705 POINTS
TCL: Running for 1500000 steps
ETITLE: TS BOND ANGLE DIHED IMPRP ELECT VDW BOUNDARY MISC KINETIC TOTAL TEMP POTENTIAL TOTALAVG TEMPAVG PRESSURE GPRESSURE VOLUME PRESSAVG GPRESSAVG
ENERGY: 0 1.5259 3.8806 0.9807 0.0000 -10663.3199 1434.0245 0.0000 0.0000 1738.9559 -7483.9523 297.6977 -9222.9082 -7483.9523 297.6977 330.5884 406.9011 29801.8199 330.5884 406.9011
ENERGY: 300000 1.1584 4.5823 2.9277 0.0000 -10591.0980 1378.3642 0.0000 0.0000 1762.2572 -7441.8082 301.6867 -9204.0654 -7431.9495 297.9876 -460.5049 -412.5664 30389.6792 -270.1312 -219.4207
ENERGY: 600000 3.8402 9.1416 5.9605 0.0000 -10755.9235 1473.0564 0.0000 0.0000 1758.1084 -7505.8163 300.9765 -9263.9247 -7459.3655 299.2810 -193.3171 -142.8179 30386.2002 -307.9366 -258.2468
ENERGY: 900000 1.2367 3.5025 2.0486 0.0000 -10614.3216 1427.5525 0.0000 0.0000 1785.3753 -7394.6059 305.6444 -9179.9813 -7437.1913 300.8833 250.1300 252.5432 29990.0065 -156.9395 -102.0525
ENERGY: 1200000 3.5171 4.7795 2.8322 0.0000 -10565.2375 1300.5322 0.0000 0.0000 1775.0460 -7478.5306 303.8761 -9253.5765 -7443.7584 301.4198 -1241.9201 -1115.6652 30475.8176 -226.2283 -169.6960
ENERGY: 1500000 6.1744 8.7859 2.8542 0.0000 -10570.5635 1340.0119 0.0000 0.0000 1788.0012 -7424.7358 306.0939 -9212.7370 -7439.9459 301.3219 -932.2324 -813.5228 30207.9161 -258.3129 -199.1275
TCL: Running FEP window   5: Lambda1 0.7999999999999998 Lambda2 0.7499999999999998 [dLambda -0.050000000000000044]
TCL: Setting parameter firsttimestep to 0
TCL: Setting parameter alchLambda to 0.7999999999999998
Info: NONBONDED TABLE R-SQUARED SPACING: 0.0625
Info: NONBONDED TABLE SIZE: 705 POINTS
TCL: Setting parameter alchLambda2 to 0.7499999999999998
Info: NONBONDED TABLE R-SQUARED SPACING: 0.0625
Info: NONBONDED TABLE SIZE: 705 POINTS
TCL: Running for 1500000 steps
ETITLE: TS BOND ANGLE DIHED IMPRP ELECT VDW BOUNDARY MISC KINETIC TOTAL TEMP POTENTIAL TOTALAVG TEMPAVG PRESSURE GPRESSURE VOLUME PRESSAVG GPRESSAVG
ENERGY: 0 6.1744 8.7859 2.8542 0.0000 -10568.7167 1338.4902 0.0000 0.0000 1787.1434 -7425.2685 305.9471 -9212.4119 -7425.2685 305.9471 -911.2323 -835.9835 30207.9161 -911.2323 -835.9835
ENERGY: 300000 2.1789 3.3462 1.7716 0.0000 -10533.3995 1412.0020 0.0000 0.0000 1702.5417 -7411.5592 291.4638 -9114.1009 -7432.3230 298.8599 361.8373 432.1203 29775.9116 73.1550 136.4723
ENERGY: 600000 1.0016 5.4976 2.5081 0.0000 -10601.6716 1392.3604 0.0000 0.0000 1704.5007 -7495.8033 291.7992 -9200.3040 -7439.7289 298.3071 -447.7276 -377.2371 30480.8397 -55.6117 10.2284
ENERGY: 900000 2.0274 7.6687 1.3145 0.0000 -10675.6020 1403.9766 0.0000 0.0000 1732.4988 -7528.1161 296.5923 -9260.6149 -7460.3733 298.3040 -361.5831 -314.1850 30028.2638 -103.5443 -53.4150
ENERGY: 1200000 3.6223 6.0749 1.4579 0.0000 -10616.0803 1454.9879 0.0000 0.0000 1715.4229 -7434.5144 293.6690 -9149.9373 -7460.7535 298.5508 434.5940 394.2729 30240.0114 -95.3912 -54.6524
ENERGY: 1500000 2.9417 8.8572 1.1571 0.0000 -10665.9799 1473.2385 0.0000 0.0000 1798.3651 -7381.4201 307.8682 -9179.7853 -7449.1750 299.5721 298.5560 357.0840 30172.8334 -97.4863 -48.5153
TCL: Running FEP window   6: Lambda1 0.7499999999999998 Lambda2 0.6999999999999997 [dLambda -0.050000000000000044]
TCL: Setting parameter firsttimestep to 0
TCL: Setting parameter alchLambda to 0.7499999999999998
Info: NONBONDED TABLE R-SQUARED SPACING: 0.0625
Info: NONBONDED TABLE SIZE: 705 POINTS
TCL: Setting parameter alchLambda2 to 0.6999999999999997
Info: NONBONDED TABLE R-SQUARED SPACING: 0.0625
Info: NONBONDED TABLE SIZE: 705 POINTS
TCL: Running for 1500000 steps
ETITLE: TS BOND ANGLE DIHED IMPRP ELECT VDW BOUNDARY MISC KINETIC TOTAL TEMP POTENTIAL TOTALAVG TEMPAVG PRESSURE GPRESSURE VOLUME PRESSAVG GPRESSAVG
ENERGY: 0 2.9417 8.8572 1.1571 0.0000 -10664.3664 1472.4615 0.0000 0.0000 1797.4882 -7381.4606 307.7181 -9178.9488 -7381.4606 307.7181 261.4416 341.4491 30172.8334 261.4416 341.4491
ENERGY: 300000 3.0075 4.8128 3.1215 0.0000 -10707.0140 1477.7148 0.0000 0.0000 1781.3142 -7437.0432 304.9492 -9218.3574 -7404.4226 306.0327 201.7604 255.2473 30258.5722 71.9281 151.8549
ENERGY: 600000 2.6475 6.7017 3.5359 0.0000 -10697.7123 1522.5894 0.0000 0.0000 1776.8267 -7385.4111 304.1809 -9162.2378 -7413.0879 303.9660 969.7561 1115.0558 29787.6162 265.9489 341.9152
ENERGY: 900000 2.2502 7.6840 5.3418 0.0000 -10605.1073 1365.5260 0.0000 0.0000 1753.5298 -7470.7754 300.1927 -9224.3052 -7434.9848 300.6967 -635.0370 -556.6602 30182.4853 84.8006 164.9498
ENERGY: 1200000 2.0132 6.7141 1.1916 0.0000 -10638.2584 1470.6382 0.0000 0.0000 1775.0522 -7382.6491 303.8772 -9157.7013 -7426.4400 301.9409 686.1094 712.7105 29956.0804 79.5623 144.1601
ENERGY: 1500000 5.3941 4.1688 4.5747 0.0000 -10531.8806 1404.7308 0.0000 0.0000 1722.4485 -7390.5637 294.8718 -9113.0122 -7418.4644 300.9322 -246.1147 -267.8347 30521.3171 3.3232 51.2515
TCL: Running FEP window   7: Lambda1 0.6999999999999997 Lambda2 0.6499999999999997 [dLambda -0.050000000000000044]
TCL: Setting parameter firsttimestep to 0
TCL: Setting parameter alchLambda to 0.6999999999999997
Info: NONBONDED TABLE R-SQUARED SPACING: 0.0625
Info: NONBONDED TABLE SIZE: 705 POINTS
TCL: Setting parameter alchLambda2 to 0.6499999999999997
Info: NONBONDED TABLE R-SQUARED SPACING: 0.0625
Info: NONBONDED TABLE SIZE: 705 POINTS
TCL: Running for 1500000 steps
ETITLE: TS BOND ANGLE DIHED IMPRP ELECT VDW BOUNDARY MISC KINETIC TOTAL TEMP POTENTIAL TOTALAVG TEMPAVG PRESSURE GPRESSURE VOLUME PRESSAVG GPRESSAVG
ENERGY: 0 5.3941 4.1688 4.5747 0.0000 -10530.4306 1404.6043 0.0000 0.0000 1721.5621 -7390.1267 294.7200 -9111.6888 -7390.1267 294.7200 -353.9130 -274.6645 30521.3171 -353.9130 -274.6645
ENERGY: 300000 2.7029 3.6604 3.2012 0.0000 -10799.5097 1498.8199 0.0000 0.0000 1739.1955 -7551.9298 297.7387 -9291.1252 -7468.3557 295.5160 185.2089 309.7296 30057.5018 -16.4964 75.3191
ENERGY: 600000 3.2018 8.1246 2.4133 0.0000 -10446.7427 1306.5572 0.0000 0.0000 1716.3768 -7410.0688 293.8323 -9126.4457 -7450.7646 297.3578 -1069.9983 -994.3006 30660.7833 -207.0626 -122.8808
ENERGY: 900000 2.9427 5.7870 5.6174 0.0000 -10701.6220 1452.7785 0.0000 0.0000 1785.9778 -7448.5185 305.7476 -9234.4963 -7444.4607 299.4944 55.6535 150.5140 29979.0592 -41.7466 45.0122
ENERGY: 1200000 1.0280 7.5941 1.8093 0.0000 -10626.1466 1401.3776 0.0000 0.0000 1714.0089 -7500.3288 293.4269 -9214.3377 -7442.7726 299.9542 -162.5169 -143.0096 30350.3313 38.1683 115.9049
ENERGY: 1500000 1.5348 3.7518 2.8296 0.0000 -10555.9110 1356.4379 0.0000 0.0000 1738.0947 -7453.2622 297.5503 -9191.3569 -7444.0607 299.5876 -290.5565 -282.0778 29851.8623 28.5603 104.1165
TCL: Running FEP window   8: Lambda1 0.6499999999999997 Lambda2 0.5999999999999996 [dLambda -0.050000000000000044]
TCL: Setting parameter firsttimestep to 0
TCL: Setting parameter alchLambda to 0.6499999999999997
Info: NONBONDED TABLE R-SQUARED SPACING: 0.0625
Info: NONBONDED TABLE SIZE: 705 POINTS
TCL: Setting parameter alchLambda2 to 0.5999999999999996
Info: NONBONDED TABLE R-SQUARED SPACING: 0.0625
Info: NONBONDED TABLE SIZE: 705 POINTS
TCL: Running for 1500000 steps
ETITLE: TS BOND ANGLE DIHED IMPRP ELECT VDW BOUNDARY MISC KINETIC TOTAL TEMP POTENTIAL TOTALAVG TEMPAVG PRESSURE GPRESSURE VOLUME PRESSAVG GPRESSAVG
ENERGY: 0 1.5348 3.7518 2.8296 0.0000 -10554.4584 1355.8112 0.0000 0.0000 1737.2321 -7453.2989 297.4026 -9190.5310 -7453.2989 297.4026 -373.8978 -295.9799 29851.8623 -373.8978 -295.9799
ENERGY: 300000 3.6081 8.3851 2.3838 0.0000 -10742.1839 1487.0521 0.0000 0.0000 1791.3183 -7449.4365 306.6618 -9240.7548 -7439.3227 301.1520 406.8937 450.7897 30173.1740 321.9878 356.1065
ENERGY: 600000 3.1151 6.0211 3.8587 0.0000 -10719.6257 1475.2865 0.0000 0.0000 1739.1777 -7492.1665 297.7357 -9231.3443 -7456.5281 300.0868 224.8271 268.3626 30091.4321 251.0141 299.6937
ENERGY: 900000 3.2567 8.1539 1.4032 0.0000 -10742.3465 1440.6207 0.0000 0.0000 1752.5519 -7536.3600 300.0253 -9288.9120 -7450.6194 300.4696 -1.9104 97.5811 29814.1640 147.6846 204.0185
ENERGY: 1200000 1.4952 5.8796 3.9462 0.0000 -10791.6413 1508.5335 0.0000 0.0000 1742.2447 -7529.5421 298.2607 -9271.7868 -7463.4223 299.4129 494.8799 528.7987 29955.4327 178.8350 233.3786
ENERGY: 1500000 2.2233 6.4864 2.6602 0.0000 -10664.3185 1432.7907 0.0000 0.0000 1721.3008 -7498.8570 294.6753 -9220.1578 -7457.5588 299.5463 -262.4625 -244.6774 30352.8696 121.9095 174.0217
TCL: Running FEP window   9: Lambda1 0.5999999999999996 Lambda2 0.5499999999999996 [dLambda -0.050000000000000044]
TCL: Setting parameter firsttimestep to 0
TCL: Setting parameter alchLambda to 0.5999999999999996
Info: NONBONDED TABLE R-SQUARED SPACING: 0.0625
Info: NONBONDED TABLE SIZE: 705 POINTS
TCL: Setting parameter alchLambda2 to 0.5499999999999996
Info: NONBONDED TABLE R-SQUARED SPACING: 0.0625
Info: NONBONDED TABLE SIZE: 705 POINTS
TCL: Running for 1500000 steps
ETITLE: TS BOND ANGLE DIHED IMPRP ELECT VDW BOUNDARY MISC KINETIC TOTAL TEMP POTENTIAL TOTALAVG TEMPAVG PRESSURE GPRESSURE VOLUME PRESSAVG GPRESSAVG
ENERGY: 0 2.2233 6.4864 2.6602 0.0000 -10663.4127 1432.5105 0.0000 0.0000 1720.4229 -7499.1094 294.5250 -9219.5323 -7499.1094 294.5250 -336.1405 -253.7597 30352.8696 -336.1405 -253.7597
ENERGY: 300000 1.6341 3.3743 1.5681 0.0000 -10545.2626 1359.1388 0.0000 0.0000 1751.2350 -7428.3123 299.7998 -9179.5473 -7449.4324 296.3264 -559.6484 -478.8290 30442.6589 -285.4643 -237.3181
ENERGY: 600000 2.0818 7.9883 3.0160 0.0000 -10614.7722 1402.6855 0.0000 0.0000 1721.8582 -7477.1424 294.7707 -9199.0006 -7450.2123 297.9463 -216.2267 -181.0363 30072.8046 -88.6841 -37.7610
ENERGY: 900000 1.7120 7.1096 3.7761 0.0000 -10473.6569 1345.5137 0.0000 0.0000 1791.3862 -7324.1594 306.6734 -9115.5456 -7446.5130 298.6189 -283.4276 -242.1807 30094.7746 -132.1327 -81.6447
ENERGY: 1200000 3.1755 6.0029 4.1336 0.0000 -10468.3965 1335.5178 0.0000 0.0000 1803.9585 -7315.6081 308.8257 -9119.5666 -7432.8356 299.0147 -669.7658 -558.8932 30640.4445 -175.5329 -116.2238
ENERGY: 1500000 2.6506 5.9559 2.6738 0.0000 -10531.6485 1347.3232 0.0000 0.0000 1702.3613 -7470.6837 291.4330 -9173.0450 -7433.5530 298.4752 -997.7586 -898.6142 30491.2376 -231.0682 -165.8726
TCL: Running FEP window  10: Lambda1 0.5499999999999996 Lambda2 0.4999999999999996 [dLambda -0.04999999999999999]
TCL: Setting parameter firsttimestep to 0
TCL: Setting parameter alchLambda to 0.5499999999999996
Info: NONBONDED TABLE R-SQUARED SPACING: 0.0625
Info: NONBONDED TABLE SIZE: 705 POINTS
TCL: Setting parameter alchLambda2 to 0.4999999999999996
Info: NONBONDED TABLE R-SQUARED SPACING: 0.0625
Info: NONBONDED TABLE SIZE: 705 POINTS
TCL: Running for 1500000 steps
ETITLE: TS BOND ANGLE DIHED IMPRP ELECT VDW BOUNDARY MISC KINETIC TOTAL TEMP POTENTIAL TOTALAVG TEMPAVG PRESSURE GPRESSURE VOLUME PRESSAVG GPRESSAVG
ENERGY: 0 2.6506 5.9559 2.6738 0.0000 -10531.6073 1347.9799 0.0000 0.0000 1701.5225 -7470.8247 291.2894 -9172.3471 -7470.8247 291.2894 -977.8820 -900.2761 30491.2376 -977.8820 -900.2761
ENERGY: 300000 2.0924 7.4895 3.8943 0.0000 -10680.8022 1445.2634 0.0000 0.0000 1754.6547 -7467.4079 300.3852 -9222.0625 -7425.1108 299.2999 119.6785 177.8684 29812.2301 -303.2433 -245.4468
ENERGY: 600000 5.4321 4.8626 4.7916 0.0000 -10489.9077 1316.1814 0.0000 0.0000 1728.3630 -7430.2769 295.8843 -9158.6400 -7417.2539 301.0265 -1081.9373 -1004.0460 30561.2385 -367.3876 -298.8155
ENERGY: 900000 2.1845 4.5731 3.1337 0.0000 -10562.8017 1349.3986 0.0000 0.0000 1711.3358 -7492.1759 292.9693 -9203.5117 -7422.9334 300.4810 -1029.6232 -943.5819 30741.6790 -412.9208 -345.4767
ENERGY: 1200000 3.7571 3.2506 2.3424 0.0000 -10615.0839 1387.0177 0.0000 0.0000 1719.1460 -7499.5700 294.3064 -9218.7160 -7436.9917 298.8410 -534.9814 -463.1377 29793.4456 -332.4636 -272.2332
ENERGY: 1500000 1.4983 2.9721 1.3088 0.0000 -10573.6144 1428.7325 0.0000 0.0000 1781.6466 -7357.4561 305.0061 -9139.1027 -7426.3370 299.2472 104.7547 161.0033 30445.9260 -236.2236 -173.7889
TCL: Running FEP window  11: Lambda1 0.4999999999999996 Lambda2 0.4499999999999996 [dLambda -0.04999999999999999]
TCL: Setting parameter firsttimestep to 0
TCL: Setting parameter alchLambda to 0.4999999999999996
Info: NONBONDED TABLE R-SQUARED SPACING: 0.0625
Info: NONBONDED TABLE SIZE: 705 POINTS
TCL: Setting parameter alchLambda2 to 0.4499999999999996
Info: NONBONDED TABLE R-SQUARED SPACING: 0.0625
Info: NONBONDED TABLE SIZE: 705 POINTS
TCL: Running for 1500000 steps
ETITLE: TS BOND ANGLE DIHED IMPRP ELECT VDW BOUNDARY MISC KINETIC TOTAL TEMP POTENTIAL TOTALAVG TEMPAVG PRESSURE GPRESSURE VOLUME PRESSAVG GPRESSAVG
ENERGY: 0 1.4983 2.9721 1.3088 0.0000 -10573.0644 1428.8822 0.0000 0.0000 1780.7808 -7357.6222 304.8579 -9138.4030 -7357.6222 304.8579 78.0379 154.8294 30445.9260 78.0379 154.8294
ENERGY: 300000 1.8767 6.6787 2.2773 0.0000 -10547.1455 1368.2637 0.0000 0.0000 1731.9906 -7436.0585 296.5053 -9168.0491 -7394.9471 301.2976 -355.5617 -321.1381 30187.7640 -130.4050 -72.6911
ENERGY: 600000 2.6390 7.9586 2.6332 0.0000 -10674.0063 1438.3841 0.0000 0.0000 1815.7988 -7406.5927 310.8527 -9222.3915 -7400.7124 302.9508 32.8527 155.2630 29783.4620 -36.7855 27.1297
ENERGY: 900000 2.2876 7.4095 3.2725 0.0000 -10616.3726 1402.1804 0.0000 0.0000 1751.6088 -7449.6138 299.8638 -9201.2226 -7408.4340 302.2637 -406.1777 -337.0888 30617.7088 62.2015 125.0703
ENERGY: 1200000 2.8792 8.2673 5.2995 0.0000 -10688.6022 1475.0918 0.0000 0.0000 1749.0688 -7447.9957 299.4290 -9197.0644 -7431.4260 300.2684 337.7063 403.5250 29973.8197 4.6793 63.3637
ENERGY: 1500000 2.5368 6.2769 3.1393 0.0000 -10589.9538 1394.8736 0.0000 0.0000 1751.4402 -7431.6869 299.8349 -9183.1271 -7438.2388 299.6178 -288.6094 -277.8715 30422.8532 -105.5622 -44.9623
TCL: Running FEP window  12: Lambda1 0.4499999999999996 Lambda2 0.39999999999999963 [dLambda -0.04999999999999999]
TCL: Setting parameter firsttimestep to 0
TCL: Setting parameter alchLambda to 0.4499999999999996
Info: NONBONDED TABLE R-SQUARED SPACING: 0.0625
Info: NONBONDED TABLE SIZE: 705 POINTS
TCL: Setting parameter alchLambda2 to 0.39999999999999963
Info: NONBONDED TABLE R-SQUARED SPACING: 0.0625
Info: NONBONDED TABLE SIZE: 705 POINTS
TCL: Running for 1500000 steps
ETITLE: TS BOND ANGLE DIHED IMPRP ELECT VDW BOUNDARY MISC KINETIC TOTAL TEMP POTENTIAL TOTALAVG TEMPAVG PRESSURE GPRESSURE VOLUME PRESSAVG GPRESSAVG
ENERGY: 0 2.5368 6.2769 3.1393 0.0000 -10589.9524 1395.0384 0.0000 0.0000 1750.5688 -7432.3921 299.6858 -9182.9609 -7432.3921 299.6858 -358.4119 -282.1863 30422.8532 -358.4119 -282.1863
ENERGY: 300000 1.1919 5.3495 3.7071 0.0000 -10619.4518 1413.2259 0.0000 0.0000 1762.2997 -7433.6777 301.6940 -9195.9773 -7442.2961 303.4147 -370.3369 -289.9078 30422.2695 -242.7295 -193.8656
ENERGY: 600000 5.0402 5.3931 2.5306 0.0000 -10629.9460 1396.5535 0.0000 0.0000 1785.8157 -7434.6130 305.7198 -9220.4287 -7446.3494 303.7930 -323.7244 -270.9333 30256.4106 -195.5495 -133.9439
ENERGY: 900000 4.5354 5.5451 3.0716 0.0000 -10616.3770 1372.7497 0.0000 0.0000 1774.2433 -7456.2318 303.7387 -9230.4751 -7442.3153 303.8658 -758.6294 -680.3970 30357.5523 -211.2874 -144.1209
ENERGY: 1200000 4.2874 8.2058 2.8591 0.0000 -10590.9538 1355.7214 0.0000 0.0000 1740.5575 -7479.3226 297.9719 -9219.8802 -7440.6812 302.8640 -759.9616 -753.0606 30167.8880 -248.7104 -188.0523
ENERGY: 1500000 1.2127 5.0405 1.6500 0.0000 -10629.3306 1419.0061 0.0000 0.0000 1738.7612 -7463.6600 297.6644 -9202.4213 -7447.0373 301.6397 -115.5276 -44.1964 30089.2595 -248.8840 -185.7398
TCL: Running FEP window  13: Lambda1 0.39999999999999963 Lambda2 0.34999999999999964 [dLambda -0.04999999999999999]
TCL: Setting parameter firsttimestep to 0
TCL: Setting parameter alchLambda to 0.39999999999999963
Info: NONBONDED TABLE R-SQUARED SPACING: 0.0625
Info: NONBONDED TABLE SIZE: 705 POINTS
TCL: Setting parameter alchLambda2 to 0.34999999999999964
Info: NONBONDED TABLE R-SQUARED SPACING: 0.0625
Info: NONBONDED TABLE SIZE: 705 POINTS
TCL: Running for 1500000 steps
ETITLE: TS BOND ANGLE DIHED IMPRP ELECT VDW BOUNDARY MISC KINETIC TOTAL TEMP POTENTIAL TOTALAVG TEMPAVG PRESSURE GPRESSURE VOLUME PRESSAVG GPRESSAVG
ENERGY: 0 1.2127 5.0405 1.6500 0.0000 -10629.3310 1418.5579 0.0000 0.0000 1737.8790 -7464.9908 297.5134 -9202.8699 -7464.9908 297.5134 -149.6881 -53.5085 30089.2595 -149.6881 -53.5085
ENERGY: 300000 1.6746 7.2567 2.9550 0.0000 -10475.1356 1330.6235 0.0000 0.0000 1737.6160 -7395.0097 297.4683 -9132.6257 -7448.7485 299.1516 -825.5809 -767.8050 30370.5523 -196.6462 -146.8076
ENERGY: 600000 0.8130 5.2186 2.4355 0.0000 -10537.2689 1409.6586 0.0000 0.0000 1764.6278 -7354.5155 302.0926 -9119.1433 -7430.1795 300.1226 77.6056 114.3639 30392.0761 -88.1420 -35.4109
ENERGY: 900000 3.8742 9.0856 3.5519 0.0000 -10619.7350 1420.3180 0.0000 0.0000 1761.5281 -7421.3772 301.5619 -9182.9053 -7437.0553 300.2072 -216.6604 -175.9098 30236.1349 -168.9903 -108.7322
ENERGY: 1200000 3.2248 7.8351 7.5994 0.0000 -10516.6717 1361.5079 0.0000 0.0000 1785.9835 -7350.5209 305.7485 -9136.5044 -7428.1305 299.8711 -283.9148 -269.8958 29926.9834 -200.0795 -151.6260
ENERGY: 1500000 1.1598 8.0456 1.2121 0.0000 -10599.2642 1371.3856 0.0000 0.0000 1742.5360 -7474.9252 298.3106 -9217.4611 -7431.9095 299.8480 -475.0579 -420.9770 30141.2900 -173.8815 -129.3852
TCL: Running FEP window  14: Lambda1 0.34999999999999964 Lambda2 0.29999999999999966 [dLambda -0.04999999999999999]
TCL: Setting parameter firsttimestep to 0
TCL: Setting parameter alchLambda to 0.34999999999999964
Info: NONBONDED TABLE R-SQUARED SPACING: 0.0625
Info: NONBONDED TABLE SIZE: 705 POINTS
TCL: Setting parameter alchLambda2 to 0.29999999999999966
Info: NONBONDED TABLE R-SQUARED SPACING: 0.0625
Info: NONBONDED TABLE SIZE: 705 POINTS
TCL: Running for 1500000 steps
ETITLE: TS BOND ANGLE DIHED IMPRP ELECT VDW BOUNDARY MISC KINETIC TOTAL TEMP POTENTIAL TOTALAVG TEMPAVG PRESSURE GPRESSURE VOLUME PRESSAVG GPRESSAVG
ENERGY: 0 1.1598 8.0456 1.2121 0.0000 -10599.2618 1371.8245 0.0000 0.0000 1741.6503 -7475.3695 298.1590 -9217.0198 -7475.3695 298.1590 -507.2967 -423.4361 30141.2900 -507.2967 -423.4361
ENERGY: 300000 4.4881 6.2407 3.1784 0.0000 -10605.7446 1465.3735 0.0000 0.0000 1741.2492 -7385.2147 298.0903 -9126.4639 -7409.3151 299.2287 458.8739 485.5321 30109.1907 -190.8403 -126.0690
ENERGY: 600000 2.8342 2.8997 2.7490 0.0000 -10613.6280 1409.0850 0.0000 0.0000 1762.0908 -7433.9692 301.6583 -9196.0601 -7422.0632 299.3585 -471.8414 -394.3759 30525.4911 -99.2521 -40.9614
ENERGY: 900000 4.2606 3.3319 1.3885 0.0000 -10729.6477 1450.5635 0.0000 0.0000 1725.8929 -7544.2104 295.4614 -9270.1032 -7443.0571 298.9673 -403.3467 -360.8218 30369.3327 -85.0112 -29.8215
ENERGY: 1200000 2.6112 5.9867 6.1065 0.0000 -10466.1608 1320.3530 0.0000 0.0000 1794.1857 -7336.9177 307.1527 -9131.1034 -7423.7360 300.7991 -629.7182 -627.3471 30032.7480 -201.2174 -150.0034
ENERGY: 1500000 4.3928 2.7129 5.0915 0.0000 -10585.5877 1404.2024 0.0000 0.0000 1748.8219 -7420.3662 299.3867 -9169.1881 -7431.1680 299.8561 -137.2324 -95.1305 30247.8310 -161.4592 -100.8840
TCL: Running FEP window  15: Lambda1 0.29999999999999966 Lambda2 0.24999999999999967 [dLambda -0.04999999999999999]
TCL: Setting parameter firsttimestep to 0
TCL: Setting parameter alchLambda to 0.29999999999999966
Info: NONBONDED TABLE R-SQUARED SPACING: 0.0625
Info: NONBONDED TABLE SIZE: 705 POINTS
TCL: Setting parameter alchLambda2 to 0.24999999999999967
Info: NONBONDED TABLE R-SQUARED SPACING: 0.0625
Info: NONBONDED TABLE SIZE: 705 POINTS
TCL: Running for 1500000 steps
ETITLE: TS BOND ANGLE DIHED IMPRP ELECT VDW BOUNDARY MISC KINETIC TOTAL TEMP POTENTIAL TOTALAVG TEMPAVG PRESSURE GPRESSURE VOLUME PRESSAVG GPRESSAVG
ENERGY: 0 4.3928 2.7129 5.0915 0.0000 -10585.5877 1404.3314 0.0000 0.0000 1747.9757 -7421.0833 299.2418 -9169.0590 -7421.0833 299.2418 -176.5506 -98.5156 30247.8310 -176.5506 -98.5156
ENERGY: 300000 3.9750 6.2796 2.2761 0.0000 -10687.8746 1481.5728 0.0000 0.0000 1744.8010 -7448.9701 298.6984 -9193.7711 -7430.9979 302.0776 952.2734 914.1923 29706.7851 231.7851 290.9012
ENERGY: 600000 2.8125 5.4744 2.3900 0.0000 -10559.5212 1385.9128 0.0000 0.0000 1794.3271 -7368.6043 307.1769 -9162.9314 -7413.5873 302.9069 -459.9745 -369.8523 30415.6119 -196.3888 -132.8382
ENERGY: 900000 1.9803 6.1114 5.1688 0.0000 -10618.0441 1426.4737 0.0000 0.0000 1760.6869 -7417.6228 301.4179 -9178.3098 -7414.5373 302.8153 469.7506 535.6672 29545.8943 -113.2957 -52.7115
ENERGY: 1200000 4.2063 6.8559 2.2059 0.0000 -10554.9403 1403.1141 0.0000 0.0000 1830.8684 -7307.6897 313.4325 -9138.5581 -7420.7081 302.4001 -299.4464 -197.3282 30368.7045 -114.7422 -59.5741
ENERGY: 1500000 2.9471 9.2443 2.8709 0.0000 -10539.0386 1415.4746 0.0000 0.0000 1755.0765 -7353.4251 300.4574 -9108.5016 -7413.1921 302.3655 158.9571 281.2027 29849.3131 -33.9531 24.9413
TCL: Running FEP window  16: Lambda1 0.24999999999999967 Lambda2 0.19999999999999968 [dLambda -0.04999999999999999]
TCL: Setting parameter firsttimestep to 0
TCL: Setting parameter alchLambda to 0.24999999999999967
Info: NONBONDED TABLE R-SQUARED SPACING: 0.0625
Info: NONBONDED TABLE SIZE: 705 POINTS
TCL: Setting parameter alchLambda2 to 0.19999999999999968
Info: NONBONDED TABLE R-SQUARED SPACING: 0.0625
Info: NONBONDED TABLE SIZE: 705 POINTS
TCL: Running for 1500000 steps
ETITLE: TS BOND ANGLE DIHED IMPRP ELECT VDW BOUNDARY MISC KINETIC TOTAL TEMP POTENTIAL TOTALAVG TEMPAVG PRESSURE GPRESSURE VOLUME PRESSAVG GPRESSAVG
ENERGY: 0 2.9471 9.2443 2.8709 0.0000 -10539.0389 1415.6944 0.0000 0.0000 1754.2075 -7354.0746 300.3087 -9108.2822 -7354.0746 300.3087 188.4275 276.2463 29849.3131 188.4275 276.2463
ENERGY: 300000 0.7823 2.6114 4.8742 0.0000 -10717.6459 1545.7966 0.0000 0.0000 1707.1955 -7456.3859 292.2605 -9163.5814 -7396.3302 297.0636 924.9129 934.0960 30418.3691 28.2492 89.4510
ENERGY: 600000 4.1580 3.9381 3.1149 0.0000 -10603.3212 1410.9435 0.0000 0.0000 1750.3084 -7430.8584 299.6412 -9181.1668 -7433.0299 297.6709 -311.4058 -285.7442 30268.9951 -233.1878 -168.6715
ENERGY: 900000 5.4241 10.9609 4.9044 0.0000 -10775.7705 1530.8938 0.0000 0.0000 1774.4011 -7449.1862 303.7657 -9223.5873 -7430.3526 299.4907 896.5716 892.9594 29546.2914 -114.1715 -60.9821
ENERGY: 1200000 3.6612 5.8441 4.1025 0.0000 -10529.8821 1372.0678 0.0000 0.0000 1724.4007 -7419.8059 295.2060 -9144.2066 -7420.9799 299.9686 -422.6151 -373.6024 30236.2909 -139.2940 -82.6274
ENERGY: 1500000 2.8836 7.2831 2.3616 0.0000 -10651.3469 1428.6939 0.0000 0.0000 1755.5041 -7454.6206 300.5306 -9210.1247 -7423.3417 300.0452 -260.6543 -162.5996 30496.9941 -135.8735 -76.4832
TCL: Running FEP window  17: Lambda1 0.19999999999999968 Lambda2 0.1499999999999997 [dLambda -0.04999999999999999]
TCL: Setting parameter firsttimestep to 0
TCL: Setting parameter alchLambda to 0.19999999999999968
Info: NONBONDED TABLE R-SQUARED SPACING: 0.0625
Info: NONBONDED TABLE SIZE: 705 POINTS
TCL: Setting parameter alchLambda2 to 0.1499999999999997
Info: NONBONDED TABLE R-SQUARED SPACING: 0.0625
Info: NONBONDED TABLE SIZE: 705 POINTS
TCL: Running for 1500000 steps
ETITLE: TS BOND ANGLE DIHED IMPRP ELECT VDW BOUNDARY MISC KINETIC TOTAL TEMP POTENTIAL TOTALAVG TEMPAVG PRESSURE GPRESSURE VOLUME PRESSAVG GPRESSAVG
ENERGY: 0 2.8836 7.2831 2.3616 0.0000 -10651.3457 1428.3553 0.0000 0.0000 1754.6249 -7455.8372 300.3801 -9210.4621 -7455.8372 300.3801 -252.3403 -169.9545 30496.9941 -252.3403 -169.9545
ENERGY: 300000 5.0581 5.2826 2.2600 0.0000 -10615.6264 1454.0625 0.0000 0.0000 1798.1786 -7350.7846 307.8362 -9148.9632 -7388.3580 302.6248 307.5403 381.2906 29987.8079 -98.7136 -14.0835
ENERGY: 600000 1.5099 4.0046 5.4485 0.0000 -10634.6692 1464.6620 0.0000 0.0000 1768.6170 -7390.4272 302.7755 -9159.0442 -7418.0676 302.4600 325.0987 416.2055 29849.1543 -35.3998 39.9071
ENERGY: 900000 1.9780 5.3863 1.4296 0.0000 -10526.7123 1367.2114 0.0000 0.0000 1741.2421 -7409.4649 298.0891 -9150.7070 -7425.6353 300.6548 -173.9587 -145.7743 29946.7378 -111.2887 -51.0839
ENERGY: 1200000 5.0836 5.9493 2.8366 0.0000 -10545.8735 1354.7514 0.0000 0.0000 1843.2518 -7334.0010 315.5525 -9177.2528 -7412.2704 301.4460 -892.5337 -831.2447 30794.8901 -178.3088 -113.8655
ENERGY: 1500000 2.1050 11.9735 5.0279 0.0000 -10496.4048 1391.8627 0.0000 0.0000 1763.5016 -7321.9342 301.8998 -9085.4357 -7407.1398 301.0724 -364.2288 -286.5474 30908.0574 -253.5879 -185.3657
TCL: Running FEP window  18: Lambda1 0.1499999999999997 Lambda2 0.09999999999999969 [dLambda -0.05 ]
TCL: Setting parameter firsttimestep to 0
TCL: Setting parameter alchLambda to 0.1499999999999997
Info: NONBONDED TABLE R-SQUARED SPACING: 0.0625
Info: NONBONDED TABLE SIZE: 705 POINTS
TCL: Setting parameter alchLambda2 to 0.09999999999999969
Info: NONBONDED TABLE R-SQUARED SPACING: 0.0625
Info: NONBONDED TABLE SIZE: 705 POINTS
TCL: Running for 1500000 steps
ETITLE: TS BOND ANGLE DIHED IMPRP ELECT VDW BOUNDARY MISC KINETIC TOTAL TEMP POTENTIAL TOTALAVG TEMPAVG PRESSURE GPRESSURE VOLUME PRESSAVG GPRESSAVG
ENERGY: 0 2.1050 11.9735 5.0279 0.0000 -10496.4043 1392.4010 0.0000 0.0000 1762.6721 -7322.2250 301.7578 -9084.8970 -7322.2250 301.7578 -355.6452 -282.8434 30908.0574 -355.6452 -282.8434
ENERGY: 300000 2.3082 5.8411 5.6720 0.0000 -10521.2788 1379.7418 0.0000 0.0000 1730.8603 -7396.8553 296.3118 -9127.7156 -7381.4168 299.3727 -421.9277 -454.8380 30332.4012 -294.3706 -249.7702
ENERGY: 600000 3.6585 7.3783 3.7760 0.0000 -10757.5682 1478.7770 0.0000 0.0000 1762.0279 -7501.9505 301.6475 -9263.9784 -7433.3863 299.2090 289.1169 350.3135 29789.5876 -330.4669 -279.2315
ENERGY: 900000 4.0472 7.2098 1.9886 0.0000 -10580.5241 1445.2082 0.0000 0.0000 1702.2402 -7419.8300 291.4122 -9122.0702 -7426.0415 299.0141 125.1701 238.4885 29895.9460 -240.2851 -179.0022
ENERGY: 1200000 2.3559 7.3261 1.6118 0.0000 -10743.8941 1465.2626 0.0000 0.0000 1780.5644 -7486.7733 304.8208 -9267.3376 -7440.2663 298.7645 -11.8224 40.6193 30030.0005 -245.0534 -185.3011
ENERGY: 1500000 6.2973 9.2712 2.5734 0.0000 -10634.1776 1455.9606 0.0000 0.0000 1755.0386 -7405.0366 300.4510 -9160.0752 -7430.4793 300.5257 -81.3373 -44.6252 30485.2679 -233.3029 -171.6685
TCL: Running FEP window  19: Lambda1 0.09999999999999969 Lambda2 0.049999999999999684 [dLambda -0.05 ]
TCL: Setting parameter firsttimestep to 0
TCL: Setting parameter alchLambda to 0.09999999999999969
Info: NONBONDED TABLE R-SQUARED SPACING: 0.0625
Info: NONBONDED TABLE SIZE: 705 POINTS
TCL: Setting parameter alchLambda2 to 0.049999999999999684
Info: NONBONDED TABLE R-SQUARED SPACING: 0.0625
Info: NONBONDED TABLE SIZE: 705 POINTS
TCL: Running for 1500000 steps
ETITLE: TS BOND ANGLE DIHED IMPRP ELECT VDW BOUNDARY MISC KINETIC TOTAL TEMP POTENTIAL TOTALAVG TEMPAVG PRESSURE GPRESSURE VOLUME PRESSAVG GPRESSAVG
ENERGY: 0 6.2973 9.2712 2.5734 0.0000 -10634.1765 1455.4234 0.0000 0.0000 1754.1567 -7406.4546 300.3000 -9160.6113 -7406.4546 300.3000 -134.1301 -48.1187 30485.2679 -134.1301 -48.1187
ENERGY: 300000 4.0928 7.8137 3.9608 0.0000 -10566.1486 1384.5077 0.0000 0.0000 1726.2582 -7439.5155 295.5239 -9165.7737 -7423.7470 300.5123 -385.7259 -308.0179 30065.1300 -237.9923 -162.5002
ENERGY: 600000 4.2939 8.1890 2.2571 0.0000 -10684.7746 1409.6188 0.0000 0.0000 1729.3699 -7531.0460 296.0566 -9260.4159 -7433.5510 300.6503 -415.9965 -361.0764 30008.8307 -211.0473 -139.1445
ENERGY: 900000 2.3948 5.6038 3.1766 0.0000 -10697.1640 1461.5838 0.0000 0.0000 1818.7229 -7405.6822 311.3533 -9224.4051 -7425.2309 300.8391 22.7714 73.5594 30300.1646 -121.4286 -57.2517
ENERGY: 1200000 1.4816 5.6765 2.5229 0.0000 -10496.9351 1348.8182 0.0000 0.0000 1813.6917 -7324.7442 310.4920 -9138.4359 -7414.5192 301.5874 -653.9896 -537.9966 30297.1324 -234.3811 -174.2836
ENERGY: 1500000 2.6749 6.4566 1.8161 0.0000 -10869.1458 1609.8630 0.0000 0.0000 1770.1402 -7478.1949 303.0363 -9248.3351 -7424.8348 301.6994 1353.2523 1423.9240 29644.9728 -86.8526 -20.4778
TCL: Running FEP window  20: Lambda1 0.049999999999999684 Lambda2 0.0    [dLambda -0.049999999999999684]
TCL: Setting parameter firsttimestep to 0
TCL: Setting parameter alchLambda to 0.049999999999999684
Info: NONBONDED TABLE R-SQUARED SPACING: 0.0625
Info: NONBONDED TABLE SIZE: 705 POINTS
TCL: Setting parameter alchLambda2 to 0.0
Info: NONBONDED TABLE R-SQUARED SPACING: 0.0625
Info: NONBONDED TABLE SIZE: 705 POINTS
TCL: Running for 1500000 steps
ETITLE: TS BOND ANGLE DIHED IMPRP ELECT VDW BOUNDARY MISC KINETIC TOTAL TEMP POTENTIAL TOTALAVG TEMPAVG PRESSURE GPRESSURE VOLUME PRESSAVG GPRESSAVG
ENERGY: 0 2.6749 6.4566 1.8161 0.0000 -10869.1458 1609.7257 0.0000 0.0000 1769.2371 -7479.2352 302.8817 -9248.4724 -7479.2352 302.8817 1326.1944 1421.9239 29644.9728 1326.1944 1421.9239
ENERGY: 300000 1.6072 5.9348 1.7226 0.0000 -10753.1642 1551.6575 0.0000 0.0000 1735.0068 -7457.2354 297.0216 -9192.2422 -7480.4466 297.2938 1131.6118 1178.3426 29789.5995 685.2253 724.1529
ENERGY: 600000 4.7277 8.3842 4.4945 0.0000 -10620.6552 1460.8817 0.0000 0.0000 1734.6675 -7407.4996 296.9636 -9142.1671 -7463.4428 298.2034 -38.9246 52.7362 30455.2488 269.6177 317.2489
ENERGY: 900000 1.1445 4.3154 2.4999 0.0000 -10527.0683 1415.2571 0.0000 0.0000 1702.9024 -7400.9489 291.5256 -9103.8514 -7445.3673 297.9238 -89.3743 -67.4485 30392.6097 166.7335 212.6786
ENERGY: 1200000 2.8985 4.7299 3.2256 0.0000 -10666.3186 1484.5247 0.0000 0.0000 1792.6807 -7378.2592 306.8950 -9170.9399 -7434.4604 298.7592 468.4236 520.8513 30157.0441 95.3431 144.2083
ENERGY: 1500000 4.0043 3.4560 3.0390 0.0000 -10501.6341 1325.4442 0.0000 0.0000 1723.6399 -7442.0508 295.0757 -9165.6907 -7431.4225 299.1920 -769.2165 -725.9244 30066.1956 30.3046 87.2870
TCL: Exiting due to exit command.
