Info: SIMULATION PARAMETERS:
Info: TIMESTEP               2
Info: NUMBER OF STEPS        0
Info: STEPS PER CYCLE        10
Info: PERIODIC CELL BASIS 1  32.8243 0 0
Info: PERIODIC CELL BASIS 2  0 30.7324 0
Info: PERIODIC CELL BASIS 3  0 0 31.3549
Info: PERIODIC CELL CENTER   0 0 0
Info: WRAPPING WATERS AROUND PERIODIC BOUNDARIES ON OUTPUT.
Info: WRAPPING ALL CLUSTERS AROUND PERIODIC BOUNDARIES ON OUTPUT.
Info: FIRST LDB TIMESTEP     50
Info: LAST LDB TIMESTEP     -1
Info: HOM BACKGROUND SCALING 1
Info: PME BACKGROUND SCALING 1
Info: MIN ATOMS PER PATCH    40
Info: EMPTY PATCH LOAD       40 ATOMS
Info: VELOCITY FILE          mobley_994483_equil.vel
Info: CENTER OF MASS MOVING INITIALLY? NO
Info: DIELECTRIC             1
Info: EXCLUDE                SCALED ONE-FOUR
Info: 1-4 ELECTROSTATICS SCALED BY 0.833333
Info: MODIFIED 1-4 VDW PARAMETERS WILL BE USED
Info: DCD FILENAME           mobley_994483_prod.dcd
Info: DCD FREQUENCY          100000
Info: DCD FIRST STEP         100000
Info: DCD FILE WILL CONTAIN UNIT CELL DATA
Info: XST FILENAME           mobley_994483_prod.xst
Info: XST FREQUENCY          100000
Info: NO VELOCITY DCD OUTPUT
Info: NO FORCE DCD OUTPUT
Info: OUTPUT FILENAME        mobley_994483_prod
Info: BINARY OUTPUT FILES WILL BE USED
Info: RESTART FILENAME       mobley_994483_prod.restart
Info: RESTART FREQUENCY      100000
Info: BINARY RESTART FILES WILL BE USED
Info: CUTOFF                 9
Info: PAIRLIST DISTANCE      11
Info: PAIRLIST SHRINK RATE   0.01
Info: PAIRLIST GROW RATE     0.01
Info: PAIRLIST TRIGGER       0.3
Info: PAIRLISTS PER CYCLE    2
Info: PAIRLISTS ENABLED
Info: MARGIN                 2
Info: HYDROGEN GROUP CUTOFF  2.5
Info: PATCH DIMENSION        15.5
Info: ENERGY OUTPUT STEPS    100000
Info: ENERGY EVALUATION STEPS    100000
Info: OUTPUT ENERGY PRECISION 4
Info: CROSSTERM ENERGY INCLUDED IN DIHEDRAL
Info: TIMING OUTPUT STEPS    1000000
Info: PRESSURE OUTPUT STEPS  100000
Info: ALCHEMICAL FEP ON
Info: FEP CURRENT LAMBDA VALUE     0
Info: FEP COMPARISON LAMBDA VALUE  0.05
Info: FEP INTRA-ALCHEMICAL NON-BONDED INTERACTIONS WILL BE RETAINED
Info: FEP INTRA-ALCHEMICAL BONDED INTERACTIONS WILL BE RETAINED
Info: FEP VDW SHIFTING COEFFICIENT 5
Info: FEP ELEC. ACTIVE FOR ANNIHILATED PARTICLES BETWEEN LAMBDA = 0 AND LAMBDA = 0.5
Info: FEP ELEC. ACTIVE FOR EXNIHILATED PARTICLES BETWEEN LAMBDA = 0.5 AND LAMBDA = 1
Info: FEP VDW ACTIVE FOR ANNIHILATED PARTICLES BETWEEN LAMBDA = 0 AND LAMBDA = 1
Info: FEP VDW ACTIVE FOR EXNIHILATED PARTICLES BETWEEN LAMBDA = 0 AND LAMBDA = 1
Info: FEP BOND ACTIVE FOR ANNIHILATED PARTICLES BETWEEN LAMBDA = 1 AND LAMBDA = 1
Info: FEP BOND ACTIVE FOR EXNIHILATED PARTICLES BETWEEN LAMBDA = 0 AND LAMBDA = 0
Info: LANGEVIN DYNAMICS ACTIVE
Info: LANGEVIN TEMPERATURE   300
Info: LANGEVIN USING BBK INTEGRATOR
Info: LANGEVIN DAMPING COEFFICIENT IS 1 INVERSE PS
Info: LANGEVIN DYNAMICS APPLIED TO HYDROGENS
Info: LANGEVIN PISTON PRESSURE CONTROL ACTIVE
Info:        TARGET PRESSURE IS 1.01325 BAR
Info:     OSCILLATION PERIOD IS 50 FS
Info:             DECAY TIME IS 25 FS
Info:     PISTON TEMPERATURE IS 300 K
Info:       PRESSURE CONTROL IS GROUP-BASED
Info:    INITIAL STRAIN RATE IS 0.000315497 0.000315497 0.000315497
Info:       CELL FLUCTUATION IS ISOTROPIC
Info: PARTICLE MESH EWALD (PME) ACTIVE
Info: PME TOLERANCE               1e-06
Info: PME EWALD COEFFICIENT       0.348832
Info: PME INTERPOLATION ORDER     4
Info: PME GRID DIMENSIONS         36 32 32
Info: PME MAXIMUM GRID SPACING    1
Info: PME CALCULATION WILL BE PERFORMED ON GPU
Info: FULL ELECTROSTATIC EVALUATION FREQUENCY      2
Info: USING VERLET I (r-RESPA) MTS SCHEME.
Info: C1 SPLITTING OF LONG RANGE ELECTROSTATICS
Info: PLACING ATOMS IN PATCHES BY HYDROGEN GROUPS
Info: RIGID BONDS TO HYDROGEN : ALL
Info:         ERROR TOLERANCE : 1e-08
Info:          MAX ITERATIONS : 100
Info: RIGID WATER USING SETTLE ALGORITHM
Info: RANDOM NUMBER SEED     1743492954
Info: USE HYDROGEN BONDS?    NO
Info: Using AMBER format force field!
Info: AMBER PARM FILE        mobley_994483.prmtop
Info: COORDINATE PDB         mobley_994483.pdb
Info: Exclusions will be read from PARM file!
Info: SCNB (VDW SCALING)     2
Info: USING ARITHMETIC MEAN TO COMBINE L-J SIGMA PARAMETERS
Info: BINARY COORDINATES     mobley_994483_equil.coor
Info: SUMMARY OF PARAMETERS:
Info: 6 BONDS
Info: 6 ANGLES
Info:   6 HARMONIC
Info:   0 COSINE-BASED
Info: 3 DIHEDRAL
Info: 0 IMPROPER
Info: 0 CROSSTERM
Info: 0 VDW
Info: 21 VDW_PAIRS
Info: 0 NBTHOLE_PAIRS
Info: To read alchdata from file: mobley_994483.pdb
Info: To read alchflag data from column: 5
Info: STRUCTURE SUMMARY:
Info: 2993 ATOMS
Info: 2992 BONDS
Info: 12 ANGLES
Info: 12 DIHEDRALS
Info: 0 IMPROPERS
Info: 0 CROSSTERMS
Info: 3013 EXCLUSIONS
Info: 2990 RIGID BONDS
Info: ALCH: 0 ATOMS TO DISAPPEAR IN FINAL STATE
Info: ALCH: 8 ATOMS TO APPEAR IN FINAL STATE
Info: 5989 DEGREES OF FREEDOM
Info: 998 HYDROGEN GROUPS
Info: 4 ATOMS IN LARGEST HYDROGEN GROUP
Info: 998 MIGRATION GROUPS
Info: 4 ATOMS IN LARGEST MIGRATION GROUP
Info: TOTAL MASS = 18034.9 amu
Info: TOTAL CHARGE = 4.19095e-09 e
Info: MASS DENSITY = 0.946837 g/cm^3
Info: ATOM DENSITY = 0.0946258 atoms/A^3
Info: ADDED 0 IMPLICIT EXCLUSIONS
Info: NONBONDED TABLE R-SQUARED SPACING: 0.0625
Info: NONBONDED TABLE SIZE: 705 POINTS
Info: REMOVING COM VELOCITY -0.0405462 0.232961 -0.206211
Info: Use 3D box decompostion in PME FFT.
Info: Updated CUDA force table with 4096 elements.
Info: Updated CUDA LJ table with 6 x 6 elements.
Info: Found 11 unique exclusion lists needing 16 bytes
TCL: Running for 1500000 steps
ETITLE: TS BOND ANGLE DIHED IMPRP ELECT VDW BOUNDARY MISC KINETIC TOTAL TEMP POTENTIAL TOTALAVG TEMPAVG PRESSURE GPRESSURE VOLUME PRESSAVG GPRESSAVG
ENERGY: 0 0.1905 2.0033 1.7718 0.0000 -10775.4215 1496.9366 0.0000 0.0000 1767.2997 -7507.2195 296.9930 -9274.5193 -7507.2195 296.9930 169.3145 246.0323 31629.8544 169.3145 246.0323
ENERGY: 300000 0.8593 1.6356 2.2774 0.0000 -10798.8062 1427.1765 0.0000 0.0000 1770.9387 -7595.9188 297.6046 -9366.8574 -7545.1917 300.2672 -361.2640 -344.0375 31231.4262 -381.8015 -336.6908
ENERGY: 600000 0.2306 3.1159 1.7299 0.0000 -10933.0524 1468.4542 0.0000 0.0000 1826.9907 -7632.5312 307.0241 -9459.5219 -7584.1314 301.0459 -197.7116 -169.0401 30930.4278 -395.5014 -338.5483
ENERGY: 900000 0.5093 5.7416 1.7597 0.0000 -10868.1368 1471.6998 0.0000 0.0000 1771.1542 -7617.2723 297.6408 -9388.4265 -7597.9005 299.9958 -91.3339 -7.8721 30865.4305 -309.1847 -252.4328
ENERGY: 1200000 0.1562 4.3569 1.9932 0.0000 -10722.0374 1422.9801 0.0000 0.0000 1794.5562 -7497.9947 301.5735 -9292.5509 -7600.1377 300.5246 30.0728 94.5748 30909.3630 -310.0773 -245.5814
ENERGY: 1500000 0.0286 2.9504 1.6340 0.0000 -10932.2705 1456.0707 0.0000 0.0000 1810.9462 -7660.6406 304.3278 -9471.5868 -7608.6800 299.9417 -112.1159 -98.1714 30429.0545 -275.2972 -213.0778
TCL: Running FEP window   2: Lambda1 0.05   Lambda2 0.1    [dLambda 0.05  ]
TCL: Setting parameter firsttimestep to 0
TCL: Setting parameter alchLambda to 0.05
Info: NONBONDED TABLE R-SQUARED SPACING: 0.0625
Info: NONBONDED TABLE SIZE: 705 POINTS
TCL: Setting parameter alchLambda2 to 0.1
Info: NONBONDED TABLE R-SQUARED SPACING: 0.0625
Info: NONBONDED TABLE SIZE: 705 POINTS
TCL: Running for 1500000 steps
ETITLE: TS BOND ANGLE DIHED IMPRP ELECT VDW BOUNDARY MISC KINETIC TOTAL TEMP POTENTIAL TOTALAVG TEMPAVG PRESSURE GPRESSURE VOLUME PRESSAVG GPRESSAVG
ENERGY: 0 0.0286 2.9504 1.6340 0.0000 -10932.2707 1456.3534 0.0000 0.0000 1810.0230 -7661.2813 304.1727 -9471.3043 -7661.2813 304.1727 -170.3279 -95.5549 30429.0545 -170.3279 -95.5549
ENERGY: 300000 0.0547 0.9183 1.8584 0.0000 -10950.6801 1482.4341 0.0000 0.0000 1789.8906 -7675.5241 300.7894 -9465.4146 -7636.2088 300.8869 -27.6939 68.8809 30728.3131 -78.9359 -16.4043
ENERGY: 600000 0.0077 3.6594 1.8371 0.0000 -10844.8931 1419.5909 0.0000 0.0000 1721.3034 -7698.4947 289.2634 -9419.7981 -7622.7533 299.2197 -489.5499 -412.0482 30717.4900 -385.8657 -307.5888
ENERGY: 900000 1.4180 3.1032 1.7372 0.0000 -10768.3890 1352.3361 0.0000 0.0000 1771.7651 -7638.0294 297.7434 -9409.7945 -7617.0418 299.5700 -1104.8138 -1046.2264 31185.2107 -386.5083 -314.5631
ENERGY: 1200000 0.8347 5.7235 3.3839 0.0000 -10828.6834 1389.1093 0.0000 0.0000 1778.5590 -7651.0729 298.8852 -9429.6319 -7615.2053 300.1580 -442.8775 -403.5388 30375.0992 -352.7240 -285.6250
ENERGY: 1500000 0.2241 2.7013 1.7201 0.0000 -10882.5383 1443.4094 0.0000 0.0000 1797.9977 -7636.4857 302.1518 -9434.4834 -7614.4290 300.4513 50.9880 1.3726 30350.1548 -274.4278 -224.6852
TCL: Running FEP window   3: Lambda1 0.1    Lambda2 0.15000000000000002 [dLambda 0.05000000000000002]
TCL: Setting parameter firsttimestep to 0
TCL: Setting parameter alchLambda to 0.1
Info: NONBONDED TABLE R-SQUARED SPACING: 0.0625
Info: NONBONDED TABLE SIZE: 705 POINTS
TCL: Setting parameter alchLambda2 to 0.15000000000000002
Info: NONBONDED TABLE R-SQUARED SPACING: 0.0625
Info: NONBONDED TABLE SIZE: 705 POINTS
TCL: Running for 1500000 steps
ETITLE: TS BOND ANGLE DIHED IMPRP ELECT VDW BOUNDARY MISC KINETIC TOTAL TEMP POTENTIAL TOTALAVG TEMPAVG PRESSURE GPRESSURE VOLUME PRESSAVG GPRESSAVG
ENERGY: 0 0.2241 2.7013 1.7201 0.0000 -10882.5388 1444.7752 0.0000 0.0000 1797.0499 -7636.0681 301.9925 -9433.1181 -7636.0681 301.9925 -69.9754 8.9298 30350.1548 -69.9754 8.9298
ENERGY: 300000 0.3524 4.2155 1.7700 0.0000 -10848.7299 1471.3720 0.0000 0.0000 1776.5208 -7594.4991 298.5426 -9371.0199 -7654.0029 298.1936 -14.8024 81.4617 31105.8490 10.5887 66.5987
ENERGY: 600000 1.3399 3.1933 1.7431 0.0000 -10884.0688 1450.2924 0.0000 0.0000 1821.4376 -7606.0625 306.0909 -9427.5001 -7642.2114 300.2410 18.7586 45.1371 30395.4171 -60.3686 -10.9247
ENERGY: 900000 1.1095 2.5812 1.6014 0.0000 -10816.9511 1478.3475 0.0000 0.0000 1796.5335 -7536.7781 301.9057 -9333.3115 -7634.7320 300.1294 83.4504 167.9904 30808.2757 -62.5087 -7.0173
ENERGY: 1200000 1.2120 2.0118 1.7991 0.0000 -10894.0888 1446.5762 0.0000 0.0000 1813.6112 -7628.8785 304.7756 -9442.4897 -7634.2606 300.0169 -230.1214 -139.0768 30581.6755 -71.5184 -16.3852
ENERGY: 1500000 0.5390 3.1175 2.6887 0.0000 -10907.4552 1486.4993 0.0000 0.0000 1831.3160 -7583.2947 307.7509 -9414.6107 -7626.5324 300.2103 -98.5557 29.3140 30973.0664 -38.9211 24.8138
TCL: Running FEP window   4: Lambda1 0.15000000000000002 Lambda2 0.2    [dLambda 0.04999999999999999]
TCL: Setting parameter firsttimestep to 0
TCL: Setting parameter alchLambda to 0.15000000000000002
Info: NONBONDED TABLE R-SQUARED SPACING: 0.0625
Info: NONBONDED TABLE SIZE: 705 POINTS
TCL: Setting parameter alchLambda2 to 0.2
Info: NONBONDED TABLE R-SQUARED SPACING: 0.0625
Info: NONBONDED TABLE SIZE: 705 POINTS
TCL: Running for 1500000 steps
ETITLE: TS BOND ANGLE DIHED IMPRP ELECT VDW BOUNDARY MISC KINETIC TOTAL TEMP POTENTIAL TOTALAVG TEMPAVG PRESSURE GPRESSURE VOLUME PRESSAVG GPRESSAVG
ENERGY: 0 0.5390 3.1175 2.6887 0.0000 -10907.4560 1487.2606 0.0000 0.0000 1830.4129 -7583.4374 307.5992 -9413.8502 -7583.4374 307.5992 -60.5769 33.7692 30973.0664 -60.5769 33.7692
ENERGY: 300000 0.0819 3.6836 1.5907 0.0000 -10820.1014 1435.2196 0.0000 0.0000 1799.3280 -7580.1977 302.3754 -9379.5257 -7567.9991 303.0277 -313.4665 -262.9661 30983.4959 -149.1383 -95.8521
ENERGY: 600000 0.7511 1.8726 1.7834 0.0000 -10639.1965 1307.5887 0.0000 0.0000 1795.1779 -7532.0228 301.6779 -9327.2007 -7551.7759 302.4170 -921.6555 -851.5296 30825.8948 -290.9318 -231.1376
ENERGY: 900000 0.0362 3.1812 1.9429 0.0000 -10750.2013 1389.9807 0.0000 0.0000 1797.2847 -7557.7756 302.0320 -9355.0603 -7569.0485 302.2083 -333.6456 -284.0998 30728.7785 -260.6952 -201.6118
ENERGY: 1200000 1.1382 5.6203 1.9071 0.0000 -10910.5399 1450.8478 0.0000 0.0000 1746.4739 -7704.5527 293.4933 -9451.0266 -7579.0851 301.7276 -235.0815 -222.5268 30735.1378 -167.1595 -106.3642
ENERGY: 1500000 1.6499 4.6490 1.8874 0.0000 -10880.8199 1484.4455 0.0000 0.0000 1784.2614 -7603.9266 299.8434 -9388.1881 -7582.5693 301.2731 -152.8866 -44.7735 31168.0110 -190.4696 -132.5203
TCL: Running FEP window   5: Lambda1 0.2    Lambda2 0.25   [dLambda 0.04999999999999999]
TCL: Setting parameter firsttimestep to 0
TCL: Setting parameter alchLambda to 0.2
Info: NONBONDED TABLE R-SQUARED SPACING: 0.0625
Info: NONBONDED TABLE SIZE: 705 POINTS
TCL: Setting parameter alchLambda2 to 0.25
Info: NONBONDED TABLE R-SQUARED SPACING: 0.0625
Info: NONBONDED TABLE SIZE: 705 POINTS
TCL: Running for 1500000 steps
ETITLE: TS BOND ANGLE DIHED IMPRP ELECT VDW BOUNDARY MISC KINETIC TOTAL TEMP POTENTIAL TOTALAVG TEMPAVG PRESSURE GPRESSURE VOLUME PRESSAVG GPRESSAVG
ENERGY: 0 1.6499 4.6490 1.8874 0.0000 -10880.8209 1485.7724 0.0000 0.0000 1783.3570 -7603.5051 299.6915 -9386.8621 -7603.5051 299.6915 -120.4647 -34.1611 31168.0110 -120.4647 -34.1611
ENERGY: 300000 1.0750 3.9132 1.8040 0.0000 -10916.9354 1486.1072 0.0000 0.0000 1802.3501 -7621.6859 302.8832 -9424.0359 -7613.6239 299.9696 213.2203 317.1815 30666.0539 288.6444 377.3037
ENERGY: 600000 0.3730 3.8426 1.8218 0.0000 -10927.6796 1551.8482 0.0000 0.0000 1762.8166 -7606.9773 296.2397 -9369.7939 -7630.3009 296.5308 865.4995 980.1544 30531.1447 326.8420 411.1322
ENERGY: 900000 0.4204 2.8098 1.9926 0.0000 -10836.4380 1418.0988 0.0000 0.0000 1744.2691 -7668.8473 293.1228 -9413.1164 -7633.9654 297.2768 -543.0292 -495.1427 31066.7466 154.5542 235.5168
ENERGY: 1200000 0.9605 2.8064 3.0459 0.0000 -10828.9125 1443.9191 0.0000 0.0000 1796.7696 -7581.4111 301.9454 -9378.1807 -7614.9032 298.2783 11.0231 32.5097 30780.3961 67.7430 139.2562
ENERGY: 1500000 0.3557 4.4016 2.5028 0.0000 -10787.0003 1359.0279 0.0000 0.0000 1776.9660 -7643.7463 298.6175 -9420.7123 -7614.1384 298.6160 -892.0303 -845.0512 30650.7905 -14.5412 52.9720
TCL: Running FEP window   6: Lambda1 0.25   Lambda2 0.3    [dLambda 0.04999999999999999]
TCL: Setting parameter firsttimestep to 0
TCL: Setting parameter alchLambda to 0.25
Info: NONBONDED TABLE R-SQUARED SPACING: 0.0625
Info: NONBONDED TABLE SIZE: 705 POINTS
TCL: Setting parameter alchLambda2 to 0.3
Info: NONBONDED TABLE R-SQUARED SPACING: 0.0625
Info: NONBONDED TABLE SIZE: 705 POINTS
TCL: Running for 1500000 steps
ETITLE: TS BOND ANGLE DIHED IMPRP ELECT VDW BOUNDARY MISC KINETIC TOTAL TEMP POTENTIAL TOTALAVG TEMPAVG PRESSURE GPRESSURE VOLUME PRESSAVG GPRESSAVG
ENERGY: 0 0.3557 4.4016 2.5028 0.0000 -10787.0007 1358.7006 0.0000 0.0000 1776.0958 -7644.9441 298.4712 -9421.0399 -7644.9441 298.4712 -933.5950 -845.9235 30650.7905 -933.5950 -845.9235
ENERGY: 300000 0.0715 6.9024 1.6760 0.0000 -10777.2778 1423.7125 0.0000 0.0000 1842.6653 -7502.2500 309.6582 -9344.9154 -7569.7476 303.3225 -123.6366 -66.8297 30826.9608 -306.1113 -243.6387
ENERGY: 600000 0.3270 2.3222 2.0612 0.0000 -10862.8255 1516.7704 0.0000 0.0000 1815.3427 -7526.0020 305.0666 -9341.3447 -7593.4585 301.4587 436.4384 480.0008 30962.8536 -280.5842 -223.4883
ENERGY: 900000 0.1651 3.4161 2.2266 0.0000 -10735.8902 1343.3429 0.0000 0.0000 1789.1768 -7597.5627 300.6695 -9386.7395 -7592.9829 300.1684 -1023.2845 -987.9995 30986.5874 -345.8640 -289.6004
ENERGY: 1200000 2.0454 5.1925 1.9573 0.0000 -10874.1871 1456.7265 0.0000 0.0000 1766.1794 -7642.0858 296.8048 -9408.2652 -7597.1860 299.7555 -79.4523 28.0634 30756.4046 -248.3119 -187.0102
ENERGY: 1500000 1.1242 2.0937 2.0875 0.0000 -10890.3349 1467.4499 0.0000 0.0000 1789.4240 -7628.1556 300.7110 -9417.5796 -7602.1776 300.0372 -90.5237 28.8721 30812.8137 -228.6163 -166.8029
TCL: Running FEP window   7: Lambda1 0.3    Lambda2 0.35   [dLambda 0.04999999999999999]
TCL: Setting parameter firsttimestep to 0
TCL: Setting parameter alchLambda to 0.3
Info: NONBONDED TABLE R-SQUARED SPACING: 0.0625
Info: NONBONDED TABLE SIZE: 705 POINTS
TCL: Setting parameter alchLambda2 to 0.35
Info: NONBONDED TABLE R-SQUARED SPACING: 0.0625
Info: NONBONDED TABLE SIZE: 705 POINTS
TCL: Running for 1500000 steps
ETITLE: TS BOND ANGLE DIHED IMPRP ELECT VDW BOUNDARY MISC KINETIC TOTAL TEMP POTENTIAL TOTALAVG TEMPAVG PRESSURE GPRESSURE VOLUME PRESSAVG GPRESSAVG
ENERGY: 0 1.1242 2.0937 2.0875 0.0000 -10890.3340 1467.7617 0.0000 0.0000 1788.5511 -7628.7157 300.5643 -9417.2668 -7628.7157 300.5643 -63.8069 33.1020 30812.8137 -63.8069 33.1020
ENERGY: 300000 0.9202 5.6787 3.3969 0.0000 -10722.7161 1431.4876 0.0000 0.0000 1833.5069 -7447.7258 308.1191 -9281.2328 -7598.3336 302.1338 90.8323 192.6816 30974.2906 -144.1413 -49.5834
ENERGY: 600000 0.1357 1.0714 1.9840 0.0000 -11023.1183 1545.0198 0.0000 0.0000 1807.5142 -7667.3933 303.7510 -9474.9074 -7600.0058 304.6896 460.8653 548.9850 30421.4129 -44.2120 46.3550
ENERGY: 900000 0.0404 1.5971 2.0046 0.0000 -10922.2627 1472.3291 0.0000 0.0000 1747.1876 -7699.1037 293.6132 -9446.2914 -7613.0996 303.7299 9.2336 48.8943 30610.9847 -87.2177 3.0060
ENERGY: 1200000 0.8773 2.6526 1.7278 0.0000 -10906.2527 1444.9240 0.0000 0.0000 1774.2180 -7681.8530 298.1557 -9456.0710 -7609.9016 303.5867 -175.6416 -189.7318 30507.2868 -122.5077 -47.5405
ENERGY: 1500000 0.9987 3.5292 1.7716 0.0000 -10792.0740 1408.9862 0.0000 0.0000 1794.7708 -7582.0176 301.6095 -9376.7883 -7609.1031 302.7783 -361.7550 -288.7101 30693.9783 -79.0545 -13.4975
TCL: Running FEP window   8: Lambda1 0.35   Lambda2 0.39999999999999997 [dLambda 0.04999999999999999]
TCL: Setting parameter firsttimestep to 0
TCL: Setting parameter alchLambda to 0.35
Info: NONBONDED TABLE R-SQUARED SPACING: 0.0625
Info: NONBONDED TABLE SIZE: 705 POINTS
TCL: Setting parameter alchLambda2 to 0.39999999999999997
Info: NONBONDED TABLE R-SQUARED SPACING: 0.0625
Info: NONBONDED TABLE SIZE: 705 POINTS
TCL: Running for 1500000 steps
ETITLE: TS BOND ANGLE DIHED IMPRP ELECT VDW BOUNDARY MISC KINETIC TOTAL TEMP POTENTIAL TOTALAVG TEMPAVG PRESSURE GPRESSURE VOLUME PRESSAVG GPRESSAVG
ENERGY: 0 0.9987 3.5292 1.7716 0.0000 -10792.0741 1409.3494 0.0000 0.0000 1793.8658 -7582.5593 301.4575 -9376.4252 -7582.5593 301.4575 -367.1286 -282.9742 30693.9783 -367.1286 -282.9742
ENERGY: 300000 1.2776 2.6659 1.7120 0.0000 -10903.7956 1507.4137 0.0000 0.0000 1846.6432 -7544.0832 310.3266 -9390.7264 -7597.2870 302.9331 118.1377 163.7271 31656.6848 -108.6458 -32.4262
ENERGY: 600000 1.3126 2.1798 1.7843 0.0000 -10865.5384 1400.3108 0.0000 0.0000 1807.1916 -7652.7594 303.6968 -9459.9510 -7622.6647 300.7570 -906.4667 -809.0976 31209.3318 -254.5181 -169.9932
ENERGY: 900000 0.2418 2.5571 1.9285 0.0000 -10834.5359 1417.4476 0.0000 0.0000 1774.3426 -7638.0183 298.1766 -9412.3609 -7618.3872 301.5121 -278.7012 -189.5136 30531.4349 -262.8983 -182.7686
ENERGY: 1200000 0.0949 3.8669 1.8287 0.0000 -10856.0263 1498.4609 0.0000 0.0000 1791.7305 -7560.0445 301.0986 -9351.7750 -7609.1955 301.0878 143.5562 218.9686 31142.0120 -185.5629 -105.2763
ENERGY: 1500000 0.8358 2.0788 2.3200 0.0000 -10796.2500 1390.8196 0.0000 0.0000 1787.4586 -7612.7373 300.3807 -9400.1959 -7613.3351 301.2842 -507.2881 -390.3552 30696.5702 -124.3394 -46.8851
TCL: Running FEP window   9: Lambda1 0.39999999999999997 Lambda2 0.44999999999999996 [dLambda 0.04999999999999999]
TCL: Setting parameter firsttimestep to 0
TCL: Setting parameter alchLambda to 0.39999999999999997
Info: NONBONDED TABLE R-SQUARED SPACING: 0.0625
Info: NONBONDED TABLE SIZE: 705 POINTS
TCL: Setting parameter alchLambda2 to 0.44999999999999996
Info: NONBONDED TABLE R-SQUARED SPACING: 0.0625
Info: NONBONDED TABLE SIZE: 705 POINTS
TCL: Running for 1500000 steps
ETITLE: TS BOND ANGLE DIHED IMPRP ELECT VDW BOUNDARY MISC KINETIC TOTAL TEMP POTENTIAL TOTALAVG TEMPAVG PRESSURE GPRESSURE VOLUME PRESSAVG GPRESSAVG
ENERGY: 0 0.8358 2.0788 2.3200 0.0000 -10796.2499 1390.6864 0.0000 0.0000 1786.5856 -7613.7433 300.2340 -9400.3290 -7613.7433 300.2340 -468.8222 -385.6794 30696.5702 -468.8222 -385.6794
ENERGY: 300000 0.0863 4.8172 1.6061 0.0000 -10830.4067 1444.7813 0.0000 0.0000 1751.1921 -7627.9237 294.2862 -9379.1158 -7640.2897 293.9565 -341.6980 -317.5726 31210.6395 -674.6631 -611.0723
ENERGY: 600000 0.2420 2.0821 1.6602 0.0000 -10846.0178 1454.7313 0.0000 0.0000 1847.3159 -7539.9863 310.4397 -9387.3022 -7610.4195 299.9180 10.7759 90.3916 31007.1292 -473.2111 -418.6788
ENERGY: 900000 0.0410 1.7204 1.7824 0.0000 -10775.8639 1394.5145 0.0000 0.0000 1746.0814 -7631.7242 293.4273 -9377.8056 -7620.6886 297.8497 -769.7830 -704.3482 31185.1425 -443.4605 -391.9103
ENERGY: 1200000 1.5354 3.9982 2.4142 0.0000 -10742.5891 1437.0502 0.0000 0.0000 1807.0688 -7490.5224 303.6762 -9297.5912 -7604.3663 298.6024 160.1978 167.9077 30987.1696 -316.2158 -260.3340
ENERGY: 1500000 0.1615 1.3042 1.6941 0.0000 -10970.2305 1478.4866 0.0000 0.0000 1751.5368 -7737.0473 294.3441 -9488.5841 -7621.9536 298.6070 -33.4142 12.2621 30384.0109 -243.6134 -188.8308
TCL: Running FEP window  10: Lambda1 0.44999999999999996 Lambda2 0.49999999999999994 [dLambda 0.04999999999999999]
TCL: Setting parameter firsttimestep to 0
TCL: Setting parameter alchLambda to 0.44999999999999996
Info: NONBONDED TABLE R-SQUARED SPACING: 0.0625
Info: NONBONDED TABLE SIZE: 705 POINTS
TCL: Setting parameter alchLambda2 to 0.49999999999999994
Info: NONBONDED TABLE R-SQUARED SPACING: 0.0625
Info: NONBONDED TABLE SIZE: 705 POINTS
TCL: Running for 1500000 steps
ETITLE: TS BOND ANGLE DIHED IMPRP ELECT VDW BOUNDARY MISC KINETIC TOTAL TEMP POTENTIAL TOTALAVG TEMPAVG PRESSURE GPRESSURE VOLUME PRESSAVG GPRESSAVG
ENERGY: 0 0.1615 1.3042 1.6941 0.0000 -10970.2307 1478.3700 0.0000 0.0000 1750.6567 -7738.0442 294.1962 -9488.7009 -7738.0442 294.1962 -71.9481 14.0374 30384.0109 -71.9481 14.0374
ENERGY: 300000 1.0522 3.0267 3.2593 0.0000 -10858.5869 1476.9698 0.0000 0.0000 1737.8997 -7636.3792 292.0524 -9374.2789 -7637.6732 298.7228 143.9288 204.5760 30773.3787 22.1927 94.5218
ENERGY: 600000 0.0115 2.7068 1.6351 0.0000 -10924.8987 1434.7049 0.0000 0.0000 1776.2072 -7709.6333 298.4899 -9485.8405 -7635.2969 300.3154 -393.9958 -245.9238 30513.8260 12.7036 111.0537
ENERGY: 900000 0.0992 1.9421 1.6882 0.0000 -10790.4354 1430.8194 0.0000 0.0000 1783.1145 -7572.7721 299.6507 -9355.8865 -7625.7786 299.7024 -101.6530 -34.0086 30759.8191 -45.0559 41.9659
ENERGY: 1200000 1.0471 3.8632 1.8097 0.0000 -10724.6895 1400.1798 0.0000 0.0000 1745.1647 -7572.6249 293.2733 -9317.7896 -7625.4472 298.9182 -435.9768 -377.3377 31221.4800 2.3434 88.0928
ENERGY: 1500000 0.0360 2.8954 1.8743 0.0000 -10886.3670 1417.8039 0.0000 0.0000 1809.1807 -7654.5766 304.0311 -9463.7573 -7623.8420 299.5327 -449.7569 -342.9244 30746.9125 -23.2791 65.1789
TCL: Running FEP window  11: Lambda1 0.49999999999999994 Lambda2 0.5499999999999999 [dLambda 0.04999999999999999]
TCL: Setting parameter firsttimestep to 0
TCL: Setting parameter alchLambda to 0.49999999999999994
Info: NONBONDED TABLE R-SQUARED SPACING: 0.0625
Info: NONBONDED TABLE SIZE: 705 POINTS
TCL: Setting parameter alchLambda2 to 0.5499999999999999
Info: NONBONDED TABLE R-SQUARED SPACING: 0.0625
Info: NONBONDED TABLE SIZE: 705 POINTS
TCL: Running for 1500000 steps
ETITLE: TS BOND ANGLE DIHED IMPRP ELECT VDW BOUNDARY MISC KINETIC TOTAL TEMP POTENTIAL TOTALAVG TEMPAVG PRESSURE GPRESSURE VOLUME PRESSAVG GPRESSAVG
ENERGY: 0 0.0360 2.8954 1.8743 0.0000 -10886.3650 1418.0278 0.0000 0.0000 1808.2766 -7655.2549 303.8792 -9463.5315 -7655.2549 303.8792 -437.0247 -336.1931 30746.9125 -437.0247 -336.1931
ENERGY: 300000 0.5430 3.8117 1.7103 0.0000 -10825.1072 1413.2530 0.0000 0.0000 1774.1872 -7631.6019 298.1505 -9405.7891 -7634.4975 300.8316 -600.6520 -552.9934 31233.8792 -416.6265 -369.6975
ENERGY: 600000 0.1420 3.0728 2.3104 0.0000 -10826.9919 1441.3609 0.0000 0.0000 1773.0545 -7607.0514 297.9601 -9380.1058 -7606.0203 300.1568 -73.8291 -57.1358 30845.6465 -145.7697 -88.4588
ENERGY: 900000 0.0992 2.8092 1.8448 0.0000 -10863.3652 1433.6508 0.0000 0.0000 1766.2178 -7658.7434 296.8112 -9424.9613 -7623.1362 298.4845 -494.7603 -388.4752 31160.6695 -162.1886 -85.4645
ENERGY: 1200000 0.0727 5.5684 1.8240 0.0000 -10841.5181 1442.5155 0.0000 0.0000 1814.2248 -7577.3128 304.8788 -9391.5376 -7619.5252 299.0686 -144.4853 -120.8530 30974.2332 -168.6082 -98.7797
ENERGY: 1500000 0.4757 5.3152 2.9042 0.0000 -10790.5974 1444.1061 0.0000 0.0000 1771.3477 -7566.4486 297.6733 -9337.7963 -7620.7539 299.5045 -16.7006 -1.9203 30609.2837 -154.7335 -90.5317
TCL: Running FEP window  12: Lambda1 0.5499999999999999 Lambda2 0.6    [dLambda 0.050000000000000044]
TCL: Setting parameter firsttimestep to 0
TCL: Setting parameter alchLambda to 0.5499999999999999
Info: NONBONDED TABLE R-SQUARED SPACING: 0.0625
Info: NONBONDED TABLE SIZE: 705 POINTS
TCL: Setting parameter alchLambda2 to 0.6
Info: NONBONDED TABLE R-SQUARED SPACING: 0.0625
Info: NONBONDED TABLE SIZE: 705 POINTS
TCL: Running for 1500000 steps
ETITLE: TS BOND ANGLE DIHED IMPRP ELECT VDW BOUNDARY MISC KINETIC TOTAL TEMP POTENTIAL TOTALAVG TEMPAVG PRESSURE GPRESSURE VOLUME PRESSAVG GPRESSAVG
ENERGY: 0 0.4757 5.3152 2.9042 0.0000 -10790.5730 1443.8856 0.0000 0.0000 1770.4621 -7567.5302 297.5245 -9337.9923 -7567.5302 297.5245 -77.7988 1.5179 30609.2837 -77.7988 1.5179
ENERGY: 300000 0.7024 2.9630 1.7345 0.0000 -10722.3068 1417.0907 0.0000 0.0000 1798.8064 -7501.0098 302.2877 -9299.8162 -7560.0035 299.5314 -184.7618 -162.7425 30982.3862 -340.8535 -287.1818
ENERGY: 600000 0.0025 2.7916 2.9721 0.0000 -10788.7422 1387.3160 0.0000 0.0000 1783.0724 -7612.5876 299.6436 -9395.6600 -7577.3878 300.7698 -382.4326 -359.8364 30574.1478 -343.1774 -290.6456
ENERGY: 900000 0.3403 2.6584 1.8041 0.0000 -10743.8129 1425.8314 0.0000 0.0000 1808.2761 -7504.9025 303.8791 -9313.1786 -7577.2021 300.5561 -303.1554 -181.7745 31217.7972 -333.8353 -272.0142
ENERGY: 1200000 0.0713 3.5333 1.7817 0.0000 -10911.9594 1513.0315 0.0000 0.0000 1750.3495 -7643.1921 294.1446 -9393.5416 -7582.1142 300.1765 570.6156 664.9395 30417.5650 -231.8596 -160.6134
ENERGY: 1500000 0.2264 4.1419 1.7352 0.0000 -10890.1995 1444.2161 0.0000 0.0000 1748.8534 -7691.0265 293.8932 -9439.8799 -7593.9824 299.9901 -331.3311 -279.2213 30922.4493 -208.7923 -141.1059
TCL: Running FEP window  13: Lambda1 0.6    Lambda2 0.65   [dLambda 0.050000000000000044]
TCL: Setting parameter firsttimestep to 0
TCL: Setting parameter alchLambda to 0.6
Info: NONBONDED TABLE R-SQUARED SPACING: 0.0625
Info: NONBONDED TABLE SIZE: 705 POINTS
TCL: Setting parameter alchLambda2 to 0.65
Info: NONBONDED TABLE R-SQUARED SPACING: 0.0625
Info: NONBONDED TABLE SIZE: 705 POINTS
TCL: Running for 1500000 steps
ETITLE: TS BOND ANGLE DIHED IMPRP ELECT VDW BOUNDARY MISC KINETIC TOTAL TEMP POTENTIAL TOTALAVG TEMPAVG PRESSURE GPRESSURE VOLUME PRESSAVG GPRESSAVG
ENERGY: 0 0.2264 4.1419 1.7352 0.0000 -10890.3394 1444.4749 0.0000 0.0000 1747.9922 -7691.7688 293.7484 -9439.7610 -7691.7688 293.7484 -355.6743 -273.7526 30922.4493 -355.6743 -273.7526
ENERGY: 300000 0.3932 2.8035 1.9660 0.0000 -11010.9219 1560.2852 0.0000 0.0000 1767.9040 -7677.5700 297.0946 -9445.4741 -7629.0282 299.0839 690.2380 687.3617 30807.0070 16.1607 45.7410
ENERGY: 600000 0.3579 3.1191 1.9257 0.0000 -10708.1012 1417.0495 0.0000 0.0000 1817.5196 -7468.1293 305.4324 -9285.6489 -7600.7232 301.0038 74.1121 94.3313 30650.6541 -104.7204 -66.4086
ENERGY: 900000 0.7182 3.0882 1.7306 0.0000 -10859.1074 1439.2337 0.0000 0.0000 1803.7480 -7610.5886 303.1182 -9414.3367 -7603.4352 300.6300 -411.8750 -346.4622 31138.5083 -194.8854 -142.3172
ENERGY: 1200000 0.3545 2.0009 1.6972 0.0000 -10790.2160 1418.1039 0.0000 0.0000 1790.0071 -7578.0524 300.8090 -9368.0595 -7613.6678 299.6128 -307.1174 -294.8258 31066.7083 -177.2587 -129.1420
ENERGY: 1500000 0.2232 2.4605 1.7891 0.0000 -10840.3794 1453.6378 0.0000 0.0000 1817.9490 -7564.3198 305.5046 -9382.2688 -7616.4577 300.4229 -76.0677 -31.9552 31009.2023 -169.2439 -122.2987
TCL: Running FEP window  14: Lambda1 0.65   Lambda2 0.7000000000000001 [dLambda 0.050000000000000044]
TCL: Setting parameter firsttimestep to 0
TCL: Setting parameter alchLambda to 0.65
Info: NONBONDED TABLE R-SQUARED SPACING: 0.0625
Info: NONBONDED TABLE SIZE: 705 POINTS
TCL: Setting parameter alchLambda2 to 0.7000000000000001
Info: NONBONDED TABLE R-SQUARED SPACING: 0.0625
Info: NONBONDED TABLE SIZE: 705 POINTS
TCL: Running for 1500000 steps
ETITLE: TS BOND ANGLE DIHED IMPRP ELECT VDW BOUNDARY MISC KINETIC TOTAL TEMP POTENTIAL TOTALAVG TEMPAVG PRESSURE GPRESSURE VOLUME PRESSAVG GPRESSAVG
ENERGY: 0 0.2232 2.4605 1.7891 0.0000 -10840.3161 1453.7963 0.0000 0.0000 1817.0490 -7564.9980 305.3534 -9382.0470 -7564.9980 305.3534 -123.3466 -26.7630 31009.2023 -123.3466 -26.7630
ENERGY: 300000 0.8828 5.3616 1.6746 0.0000 -10752.7673 1327.1464 0.0000 0.0000 1794.5187 -7623.1831 301.5672 -9417.7018 -7597.4004 299.9792 -1104.6033 -1120.4577 30989.5602 -182.4057 -134.7958
ENERGY: 600000 0.0059 4.5260 1.9332 0.0000 -10724.7122 1399.2673 0.0000 0.0000 1805.1734 -7513.8064 303.3577 -9318.9798 -7577.9083 301.4656 -317.4128 -330.4960 31348.1526 -207.2978 -174.2621
ENERGY: 900000 0.1600 3.4136 2.4611 0.0000 -10837.5805 1430.5057 0.0000 0.0000 1822.1902 -7578.8499 306.2173 -9401.0401 -7578.5729 300.5769 -301.9479 -285.3422 31019.1974 -122.5706 -89.3545
ENERGY: 1200000 1.5135 3.3627 1.7276 0.0000 -10932.9547 1514.3237 0.0000 0.0000 1754.6868 -7657.3403 294.8735 -9412.0271 -7579.6920 301.3158 422.6852 520.0521 30550.0026 -39.5846 11.1510
ENERGY: 1500000 1.2843 4.2896 1.9513 0.0000 -10880.9263 1442.4632 0.0000 0.0000 1799.7682 -7631.1695 302.4493 -9430.9378 -7584.6344 301.6326 -111.4302 10.1895 30842.4662 38.7290 99.2326
TCL: Running FEP window  15: Lambda1 0.7000000000000001 Lambda2 0.7500000000000001 [dLambda 0.050000000000000044]
TCL: Setting parameter firsttimestep to 0
TCL: Setting parameter alchLambda to 0.7000000000000001
Info: NONBONDED TABLE R-SQUARED SPACING: 0.0625
Info: NONBONDED TABLE SIZE: 705 POINTS
TCL: Setting parameter alchLambda2 to 0.7500000000000001
Info: NONBONDED TABLE R-SQUARED SPACING: 0.0625
Info: NONBONDED TABLE SIZE: 705 POINTS
TCL: Running for 1500000 steps
ETITLE: TS BOND ANGLE DIHED IMPRP ELECT VDW BOUNDARY MISC KINETIC TOTAL TEMP POTENTIAL TOTALAVG TEMPAVG PRESSURE GPRESSURE VOLUME PRESSAVG GPRESSAVG
ENERGY: 0 1.2843 4.2896 1.9513 0.0000 -10881.0658 1442.2305 0.0000 0.0000 1798.8884 -7632.4216 302.3015 -9431.3100 -7632.4216 302.3015 -57.0144 12.5727 30842.4662 -57.0144 12.5727
ENERGY: 300000 0.0687 2.2856 1.6282 0.0000 -10939.9059 1524.1639 0.0000 0.0000 1765.7604 -7645.9991 296.7344 -9411.7595 -7594.9368 302.5677 517.0696 581.1489 30656.6005 39.7291 110.0790
ENERGY: 600000 0.4880 3.4808 2.8155 0.0000 -10886.3739 1473.4725 0.0000 0.0000 1756.3154 -7649.8017 295.1471 -9406.1172 -7628.7423 300.2691 164.5181 180.7906 30708.9286 22.2094 96.2758
ENERGY: 900000 1.2581 3.1723 3.2816 0.0000 -10721.2924 1433.9917 0.0000 0.0000 1813.2370 -7466.3519 304.7128 -9279.5888 -7629.0237 299.9725 340.9802 403.4425 30667.8364 29.0690 92.2886
ENERGY: 1200000 0.2393 4.9420 2.2839 0.0000 -10955.5765 1452.7637 0.0000 0.0000 1767.5463 -7727.8013 297.0345 -9495.3476 -7634.2168 300.0522 -389.3823 -373.6966 30799.0308 26.1478 81.6510
ENERGY: 1500000 1.2932 4.3653 1.7259 0.0000 -10921.0828 1494.3922 0.0000 0.0000 1772.6172 -7646.6891 297.8866 -9419.3063 -7633.8994 299.4022 303.4885 388.1734 30487.7204 59.2763 111.7982
TCL: Running FEP window  16: Lambda1 0.7500000000000001 Lambda2 0.8000000000000002 [dLambda 0.050000000000000044]
TCL: Setting parameter firsttimestep to 0
TCL: Setting parameter alchLambda to 0.7500000000000001
Info: NONBONDED TABLE R-SQUARED SPACING: 0.0625
Info: NONBONDED TABLE SIZE: 705 POINTS
TCL: Setting parameter alchLambda2 to 0.8000000000000002
Info: NONBONDED TABLE R-SQUARED SPACING: 0.0625
Info: NONBONDED TABLE SIZE: 705 POINTS
TCL: Running for 1500000 steps
ETITLE: TS BOND ANGLE DIHED IMPRP ELECT VDW BOUNDARY MISC KINETIC TOTAL TEMP POTENTIAL TOTALAVG TEMPAVG PRESSURE GPRESSURE VOLUME PRESSAVG GPRESSAVG
ENERGY: 0 1.2932 4.3653 1.7259 0.0000 -10921.1853 1494.4036 0.0000 0.0000 1771.7312 -7647.6662 297.7377 -9419.3974 -7647.6662 297.7377 295.8633 391.4733 30487.7204 295.8633 391.4733
ENERGY: 300000 0.1091 3.2308 1.6752 0.0000 -10999.5476 1548.7815 0.0000 0.0000 1786.1300 -7659.6210 300.1575 -9445.7510 -7622.0926 301.8173 913.0972 985.0339 29856.1885 190.1846 244.5196
ENERGY: 600000 1.3944 3.1621 2.2418 0.0000 -10886.3280 1435.8869 0.0000 0.0000 1789.1438 -7654.4990 300.6639 -9443.6428 -7621.2307 300.6578 -206.7967 -99.2853 30489.4974 137.0182 197.3304
ENERGY: 900000 0.1320 3.7528 2.1911 0.0000 -10700.5154 1382.4885 0.0000 0.0000 1797.2871 -7514.6638 302.0324 -9311.9509 -7604.1402 300.7213 -332.4631 -269.6467 31055.1624 -38.5265 25.7499
ENERGY: 1200000 0.2516 2.2007 2.1183 0.0000 -10943.0412 1441.6133 0.0000 0.0000 1766.6353 -7730.2220 296.8814 -9496.8574 -7599.0944 300.8834 -318.7916 -190.4600 30331.1286 73.0077 136.4348
ENERGY: 1500000 0.3732 2.7736 1.6608 0.0000 -10862.7755 1458.8123 0.0000 0.0000 1731.8517 -7667.3038 291.0360 -9399.1555 -7607.3235 299.8775 -395.5608 -294.8814 31431.5964 5.4454 71.4390
TCL: Running FEP window  17: Lambda1 0.8000000000000002 Lambda2 0.8500000000000002 [dLambda 0.050000000000000044]
TCL: Setting parameter firsttimestep to 0
TCL: Setting parameter alchLambda to 0.8000000000000002
Info: NONBONDED TABLE R-SQUARED SPACING: 0.0625
Info: NONBONDED TABLE SIZE: 705 POINTS
TCL: Setting parameter alchLambda2 to 0.8500000000000002
Info: NONBONDED TABLE R-SQUARED SPACING: 0.0625
Info: NONBONDED TABLE SIZE: 705 POINTS
TCL: Running for 1500000 steps
ETITLE: TS BOND ANGLE DIHED IMPRP ELECT VDW BOUNDARY MISC KINETIC TOTAL TEMP POTENTIAL TOTALAVG TEMPAVG PRESSURE GPRESSURE VOLUME PRESSAVG GPRESSAVG
ENERGY: 0 0.3732 2.7736 1.6608 0.0000 -10862.9401 1458.7549 0.0000 0.0000 1730.9440 -7668.4336 290.8835 -9399.3776 -7668.4336 290.8835 -367.5379 -289.8452 31431.5964 -367.5379 -289.8452
ENERGY: 300000 0.0592 1.2959 2.0216 0.0000 -10857.4783 1451.0402 0.0000 0.0000 1797.2424 -7605.8191 302.0249 -9403.0614 -7606.7172 300.6284 -78.5790 -52.5139 30846.2822 -57.6001 -10.6770
ENERGY: 600000 0.0938 2.2400 1.8019 0.0000 -10929.5813 1437.4816 0.0000 0.0000 1772.0183 -7715.9458 297.7860 -9487.9641 -7630.0576 299.2362 -581.2950 -490.4946 31107.5642 -144.3934 -80.3679
ENERGY: 900000 0.2799 4.7480 1.8095 0.0000 -10937.2776 1486.9466 0.0000 0.0000 1759.7112 -7683.7824 295.7178 -9443.4936 -7630.4469 298.3541 155.4505 205.5387 30550.2220 -92.8443 -27.6382
ENERGY: 1200000 0.1512 1.9355 1.7863 0.0000 -11119.8073 1573.4633 0.0000 0.0000 1807.6663 -7734.8046 303.7766 -9542.4710 -7635.4215 299.8836 700.0118 692.4425 30548.1815 25.8332 83.9292
ENERGY: 1500000 0.0513 4.4119 1.8122 0.0000 -10825.1158 1417.1698 0.0000 0.0000 1816.3884 -7585.2822 305.2423 -9401.6706 -7639.9109 299.6852 -320.8978 -262.4720 31102.2503 29.2413 86.8170
TCL: Running FEP window  18: Lambda1 0.8500000000000002 Lambda2 0.9000000000000002 [dLambda 0.050000000000000044]
TCL: Setting parameter firsttimestep to 0
TCL: Setting parameter alchLambda to 0.8500000000000002
Info: NONBONDED TABLE R-SQUARED SPACING: 0.0625
Info: NONBONDED TABLE SIZE: 705 POINTS
TCL: Setting parameter alchLambda2 to 0.9000000000000002
Info: NONBONDED TABLE R-SQUARED SPACING: 0.0625
Info: NONBONDED TABLE SIZE: 705 POINTS
TCL: Running for 1500000 steps
ETITLE: TS BOND ANGLE DIHED IMPRP ELECT VDW BOUNDARY MISC KINETIC TOTAL TEMP POTENTIAL TOTALAVG TEMPAVG PRESSURE GPRESSURE VOLUME PRESSAVG GPRESSAVG
ENERGY: 0 0.0513 4.4119 1.8122 0.0000 -10825.2599 1417.5194 0.0000 0.0000 1815.4874 -7585.9777 305.0909 -9401.4651 -7585.9777 305.0909 -330.4385 -250.2419 31102.2503 -330.4385 -250.2419
ENERGY: 300000 0.5013 2.0304 1.7534 0.0000 -10694.1648 1362.1124 0.0000 0.0000 1825.0560 -7502.7113 306.6989 -9327.7673 -7576.8365 303.3816 -720.0794 -580.7827 31158.7979 -294.4733 -238.7837
ENERGY: 600000 0.0520 2.7102 1.6182 0.0000 -10858.4014 1474.5213 0.0000 0.0000 1808.3058 -7571.1939 303.8841 -9379.4997 -7589.6580 302.3893 194.7007 297.3526 30765.9869 -72.5457 -9.9970
ENERGY: 900000 2.1826 2.4802 3.0985 0.0000 -10931.7752 1482.4289 0.0000 0.0000 1776.8001 -7664.7850 298.5896 -9441.5850 -7603.3587 301.9482 123.1483 180.2856 30701.6849 -109.9255 -47.7525
ENERGY: 1200000 0.0262 2.0472 1.6399 0.0000 -10994.8901 1534.7039 0.0000 0.0000 1829.8701 -7626.6029 307.5079 -9456.4729 -7594.3835 301.5064 333.8556 358.3015 30971.9900 -39.3107 17.5717
ENERGY: 1500000 0.2526 2.2408 2.0702 0.0000 -10824.2098 1446.6516 0.0000 0.0000 1779.6288 -7593.3658 299.0649 -9372.9946 -7599.0934 301.3678 131.7098 207.6437 30905.0133 -10.2382 49.0371
TCL: Running FEP window  19: Lambda1 0.9000000000000002 Lambda2 0.9500000000000003 [dLambda 0.050000000000000044]
TCL: Setting parameter firsttimestep to 0
TCL: Setting parameter alchLambda to 0.9000000000000002
Info: NONBONDED TABLE R-SQUARED SPACING: 0.0625
Info: NONBONDED TABLE SIZE: 705 POINTS
TCL: Setting parameter alchLambda2 to 0.9500000000000003
Info: NONBONDED TABLE R-SQUARED SPACING: 0.0625
Info: NONBONDED TABLE SIZE: 705 POINTS
TCL: Running for 1500000 steps
ETITLE: TS BOND ANGLE DIHED IMPRP ELECT VDW BOUNDARY MISC KINETIC TOTAL TEMP POTENTIAL TOTALAVG TEMPAVG PRESSURE GPRESSURE VOLUME PRESSAVG GPRESSAVG
ENERGY: 0 0.2526 2.2408 2.0702 0.0000 -10824.4518 1446.4827 0.0000 0.0000 1778.7416 -7594.6640 298.9158 -9373.4056 -7594.6640 298.9158 135.9975 212.5220 30905.0133 135.9975 212.5220
ENERGY: 300000 0.4026 4.2286 1.9879 0.0000 -10832.8057 1447.6117 0.0000 0.0000 1780.5463 -7598.0286 299.2191 -9378.5749 -7606.7458 298.1321 110.6217 159.2940 30549.0786 -0.5152 81.2360
ENERGY: 600000 1.7715 4.6570 1.8406 0.0000 -10831.9142 1373.6194 0.0000 0.0000 1786.3945 -7663.6312 300.2019 -9450.0257 -7605.8263 299.7712 -1112.4422 -1035.1449 31374.1712 -360.7888 -294.1841
ENERGY: 900000 0.0299 4.3967 1.5739 0.0000 -10763.9584 1409.7729 0.0000 0.0000 1733.1742 -7615.0107 291.2583 -9348.1849 -7626.6584 297.6036 -292.6782 -193.1168 31068.6545 -318.6452 -247.4620
ENERGY: 1200000 0.0255 2.8445 1.8544 0.0000 -10811.7103 1468.4319 0.0000 0.0000 1779.7391 -7558.8149 299.0835 -9338.5540 -7610.7835 299.0809 39.2368 108.9613 31071.1809 -232.3014 -162.1006
ENERGY: 1500000 0.3895 3.1540 1.9181 0.0000 -10847.8998 1479.4482 0.0000 0.0000 1808.3856 -7554.6045 303.8975 -9362.9901 -7604.1318 299.3104 227.5207 224.2961 31318.5234 -235.8161 -169.2504
TCL: Running FEP window  20: Lambda1 0.9500000000000003 Lambda2 1.0    [dLambda 0.04999999999999971]
TCL: Setting parameter firsttimestep to 0
TCL: Setting parameter alchLambda to 0.9500000000000003
Info: NONBONDED TABLE R-SQUARED SPACING: 0.0625
Info: NONBONDED TABLE SIZE: 705 POINTS
TCL: Setting parameter alchLambda2 to 1.0
Info: NONBONDED TABLE R-SQUARED SPACING: 0.0625
Info: NONBONDED TABLE SIZE: 705 POINTS
TCL: Running for 1500000 steps
ETITLE: TS BOND ANGLE DIHED IMPRP ELECT VDW BOUNDARY MISC KINETIC TOTAL TEMP POTENTIAL TOTALAVG TEMPAVG PRESSURE GPRESSURE VOLUME PRESSAVG GPRESSAVG
ENERGY: 0 0.3895 3.1540 1.9181 0.0000 -10848.2767 1480.0758 0.0000 0.0000 1807.4979 -7555.2413 303.7483 -9362.7392 -7555.2413 303.7483 167.7499 240.9049 31318.5234 167.7499 240.9049
ENERGY: 300000 0.5332 2.6528 3.1003 0.0000 -10790.1835 1423.3567 0.0000 0.0000 1753.4570 -7607.0835 294.6668 -9360.5405 -7593.8040 302.5732 -266.7314 -188.4569 30995.2349 -111.7398 -15.7413
ENERGY: 600000 0.3004 1.5911 2.1424 0.0000 -10698.5200 1355.4265 0.0000 0.0000 1767.7243 -7571.3354 297.0644 -9339.0597 -7612.6940 300.3278 -831.8721 -734.2349 31223.6215 -303.9237 -226.5450
ENERGY: 900000 0.0734 2.6431 2.4130 0.0000 -10898.7660 1478.3392 0.0000 0.0000 1792.5256 -7622.7717 301.2322 -9415.2973 -7626.1591 300.0811 255.6318 297.0434 30554.4227 -139.9451 -70.7915
ENERGY: 1200000 0.2562 5.3704 2.1329 0.0000 -10859.8018 1438.2296 0.0000 0.0000 1767.5416 -7646.2711 297.0337 -9413.8127 -7621.4980 299.6987 -119.6162 -34.8964 30515.0766 -217.1717 -152.6140
ENERGY: 1500000 0.2052 3.5970 1.6538 0.0000 -10750.0261 1440.8930 0.0000 0.0000 1826.6904 -7476.9868 306.9736 -9303.6771 -7608.8724 300.7118 -5.1224 48.5519 31424.6122 -224.3430 -165.0564
TCL: Exiting due to exit command.
