Info: SIMULATION PARAMETERS:
Info: TIMESTEP               2
Info: NUMBER OF STEPS        0
Info: STEPS PER CYCLE        10
Info: PERIODIC CELL BASIS 1  31.9458 0 0
Info: PERIODIC CELL BASIS 2  0 30.3976 0
Info: PERIODIC CELL BASIS 3  0 0 31.85
Info: PERIODIC CELL CENTER   0 0 0
Info: WRAPPING WATERS AROUND PERIODIC BOUNDARIES ON OUTPUT.
Info: WRAPPING ALL CLUSTERS AROUND PERIODIC BOUNDARIES ON OUTPUT.
Info: FIRST LDB TIMESTEP     50
Info: LAST LDB TIMESTEP     -1
Info: HOM BACKGROUND SCALING 1
Info: PME BACKGROUND SCALING 1
Info: MIN ATOMS PER PATCH    40
Info: EMPTY PATCH LOAD       40 ATOMS
Info: VELOCITY FILE          mobley_778352_equil.vel
Info: CENTER OF MASS MOVING INITIALLY? NO
Info: DIELECTRIC             1
Info: EXCLUDE                SCALED ONE-FOUR
Info: 1-4 ELECTROSTATICS SCALED BY 0.833333
Info: MODIFIED 1-4 VDW PARAMETERS WILL BE USED
Info: DCD FILENAME           mobley_778352_prod.dcd
Info: DCD FREQUENCY          100000
Info: DCD FIRST STEP         100000
Info: DCD FILE WILL CONTAIN UNIT CELL DATA
Info: XST FILENAME           mobley_778352_prod.xst
Info: XST FREQUENCY          100000
Info: NO VELOCITY DCD OUTPUT
Info: NO FORCE DCD OUTPUT
Info: OUTPUT FILENAME        mobley_778352_prod
Info: BINARY OUTPUT FILES WILL BE USED
Info: RESTART FILENAME       mobley_778352_prod.restart
Info: RESTART FREQUENCY      100000
Info: BINARY RESTART FILES WILL BE USED
Info: CUTOFF                 9
Info: PAIRLIST DISTANCE      11
Info: PAIRLIST SHRINK RATE   0.01
Info: PAIRLIST GROW RATE     0.01
Info: PAIRLIST TRIGGER       0.3
Info: PAIRLISTS PER CYCLE    2
Info: PAIRLISTS ENABLED
Info: MARGIN                 2
Info: HYDROGEN GROUP CUTOFF  2.5
Info: PATCH DIMENSION        15.5
Info: ENERGY OUTPUT STEPS    100000
Info: ENERGY EVALUATION STEPS    100000
Info: OUTPUT ENERGY PRECISION 4
Info: CROSSTERM ENERGY INCLUDED IN DIHEDRAL
Info: TIMING OUTPUT STEPS    1000000
Info: PRESSURE OUTPUT STEPS  100000
Info: ALCHEMICAL FEP ON
Info: FEP CURRENT LAMBDA VALUE     1
Info: FEP COMPARISON LAMBDA VALUE  0.95
Info: FEP INTRA-ALCHEMICAL NON-BONDED INTERACTIONS WILL BE RETAINED
Info: FEP INTRA-ALCHEMICAL BONDED INTERACTIONS WILL BE RETAINED
Info: FEP VDW SHIFTING COEFFICIENT 5
Info: FEP ELEC. ACTIVE FOR ANNIHILATED PARTICLES BETWEEN LAMBDA = 0 AND LAMBDA = 0.5
Info: FEP ELEC. ACTIVE FOR EXNIHILATED PARTICLES BETWEEN LAMBDA = 0.5 AND LAMBDA = 1
Info: FEP VDW ACTIVE FOR ANNIHILATED PARTICLES BETWEEN LAMBDA = 0 AND LAMBDA = 1
Info: FEP VDW ACTIVE FOR EXNIHILATED PARTICLES BETWEEN LAMBDA = 0 AND LAMBDA = 1
Info: FEP BOND ACTIVE FOR ANNIHILATED PARTICLES BETWEEN LAMBDA = 1 AND LAMBDA = 1
Info: FEP BOND ACTIVE FOR EXNIHILATED PARTICLES BETWEEN LAMBDA = 0 AND LAMBDA = 0
Info: LANGEVIN DYNAMICS ACTIVE
Info: LANGEVIN TEMPERATURE   300
Info: LANGEVIN USING BBK INTEGRATOR
Info: LANGEVIN DAMPING COEFFICIENT IS 1 INVERSE PS
Info: LANGEVIN DYNAMICS APPLIED TO HYDROGENS
Info: LANGEVIN PISTON PRESSURE CONTROL ACTIVE
Info:        TARGET PRESSURE IS 1.01325 BAR
Info:     OSCILLATION PERIOD IS 50 FS
Info:             DECAY TIME IS 25 FS
Info:     PISTON TEMPERATURE IS 300 K
Info:       PRESSURE CONTROL IS GROUP-BASED
Info:    INITIAL STRAIN RATE IS 0.000469333 0.000469333 0.000469333
Info:       CELL FLUCTUATION IS ISOTROPIC
Info: PARTICLE MESH EWALD (PME) ACTIVE
Info: PME TOLERANCE               1e-06
Info: PME EWALD COEFFICIENT       0.348832
Info: PME INTERPOLATION ORDER     4
Info: PME GRID DIMENSIONS         32 32 32
Info: PME MAXIMUM GRID SPACING    1
Info: PME CALCULATION WILL BE PERFORMED ON GPU
Info: FULL ELECTROSTATIC EVALUATION FREQUENCY      2
Info: USING VERLET I (r-RESPA) MTS SCHEME.
Info: C1 SPLITTING OF LONG RANGE ELECTROSTATICS
Info: PLACING ATOMS IN PATCHES BY HYDROGEN GROUPS
Info: RIGID BONDS TO HYDROGEN : ALL
Info:         ERROR TOLERANCE : 1e-08
Info:          MAX ITERATIONS : 100
Info: RIGID WATER USING SETTLE ALGORITHM
Info: RANDOM NUMBER SEED     1743588773
Info: USE HYDROGEN BONDS?    NO
Info: Using AMBER format force field!
Info: AMBER PARM FILE        mobley_778352.prmtop
Info: COORDINATE PDB         mobley_778352.pdb
Info: Exclusions will be read from PARM file!
Info: SCNB (VDW SCALING)     2
Info: USING ARITHMETIC MEAN TO COMBINE L-J SIGMA PARAMETERS
Info: BINARY COORDINATES     mobley_778352_equil.coor
Info: SUMMARY OF PARAMETERS:
Info: 6 BONDS
Info: 6 ANGLES
Info:   6 HARMONIC
Info:   0 COSINE-BASED
Info: 6 DIHEDRAL
Info: 0 IMPROPER
Info: 0 CROSSTERM
Info: 0 VDW
Info: 21 VDW_PAIRS
Info: 0 NBTHOLE_PAIRS
Info: To read alchdata from file: mobley_778352.pdb
Info: To read alchflag data from column: 5
Info: STRUCTURE SUMMARY:
Info: 2979 ATOMS
Info: 2978 BONDS
Info: 24 ANGLES
Info: 44 DIHEDRALS
Info: 0 IMPROPERS
Info: 0 CROSSTERMS
Info: 3024 EXCLUSIONS
Info: 2974 RIGID BONDS
Info: ALCH: 0 ATOMS TO DISAPPEAR IN FINAL STATE
Info: ALCH: 15 ATOMS TO APPEAR IN FINAL STATE
Info: 5963 DEGREES OF FREEDOM
Info: 993 HYDROGEN GROUPS
Info: 4 ATOMS IN LARGEST HYDROGEN GROUP
Info: 993 MIGRATION GROUPS
Info: 4 ATOMS IN LARGEST MIGRATION GROUP
Info: TOTAL MASS = 17869.9 amu
Info: TOTAL CHARGE = 9.99793e-05 e
Info: MASS DENSITY = 0.959443 g/cm^3
Info: ATOM DENSITY = 0.096318 atoms/A^3
Info: ADDED 0 IMPLICIT EXCLUSIONS
Info: NONBONDED TABLE R-SQUARED SPACING: 0.0625
Info: NONBONDED TABLE SIZE: 705 POINTS
Info: REMOVING COM VELOCITY -0.156974 0.166005 -0.00226613
Info: Use 3D box decompostion in PME FFT.
Info: Updated CUDA force table with 4096 elements.
Info: Updated CUDA LJ table with 6 x 6 elements.
Info: Found 18 unique exclusion lists needing 36 bytes
TCL: Running for 1500000 steps
ETITLE: TS BOND ANGLE DIHED IMPRP ELECT VDW BOUNDARY MISC KINETIC TOTAL TEMP POTENTIAL TOTALAVG TEMPAVG PRESSURE GPRESSURE VOLUME PRESSAVG GPRESSAVG
ENERGY: 0 2.9625 6.6163 15.9374 0.0000 -10821.1346 1456.8886 0.0000 0.0000 1739.1850 -7599.5447 293.5428 -9338.7298 -7599.5447 293.5428 -209.1856 -121.9274 30928.8036 -209.1856 -121.9274
ENERGY: 300000 2.2423 5.3790 17.4636 0.0000 -10740.6689 1477.1716 0.0000 0.0000 1832.8432 -7405.5692 309.3506 -9238.4124 -7549.2776 298.7954 371.8680 421.2393 30930.8730 134.9350 201.9861
ENERGY: 600000 1.0087 5.4161 17.1217 0.0000 -10933.9123 1514.9225 0.0000 0.0000 1847.7388 -7547.7044 311.8647 -9395.4432 -7556.0709 301.5071 353.5388 446.3851 30396.4721 218.8987 292.7875
ENERGY: 900000 2.2735 7.7542 14.6628 0.0000 -10586.9665 1324.5097 0.0000 0.0000 1757.1430 -7480.6234 296.5737 -9237.7663 -7563.2685 300.3265 -882.7606 -807.9371 30948.3429 100.7171 180.6195
ENERGY: 1200000 3.4654 8.2905 14.7858 0.0000 -10641.5490 1338.7567 0.0000 0.0000 1791.6877 -7484.5628 302.4043 -9276.2505 -7545.6590 301.2733 -648.9796 -555.1318 30341.8191 2.4266 82.0492
ENERGY: 1500000 0.2583 9.2042 16.0075 0.0000 -10693.8219 1374.0303 0.0000 0.0000 1807.5543 -7486.7673 305.0822 -9294.3217 -7544.0660 300.7191 -861.2564 -740.0747 31356.5187 -40.2930 40.0209
TCL: Running FEP window   2: Lambda1 0.95   Lambda2 0.8999999999999999 [dLambda -0.050000000000000044]
TCL: Setting parameter firsttimestep to 0
TCL: Setting parameter alchLambda to 0.95
Info: NONBONDED TABLE R-SQUARED SPACING: 0.0625
Info: NONBONDED TABLE SIZE: 705 POINTS
TCL: Setting parameter alchLambda2 to 0.8999999999999999
Info: NONBONDED TABLE R-SQUARED SPACING: 0.0625
Info: NONBONDED TABLE SIZE: 705 POINTS
TCL: Running for 1500000 steps
ETITLE: TS BOND ANGLE DIHED IMPRP ELECT VDW BOUNDARY MISC KINETIC TOTAL TEMP POTENTIAL TOTALAVG TEMPAVG PRESSURE GPRESSURE VOLUME PRESSAVG GPRESSAVG
ENERGY: 0 0.2583 9.2042 16.0075 0.0000 -10693.6310 1373.8960 0.0000 0.0000 1806.6847 -7487.5803 304.9355 -9294.2651 -7487.5803 304.9355 -835.4585 -751.2837 31356.5187 -835.4585 -751.2837
ENERGY: 300000 1.5603 9.0392 19.4506 0.0000 -10931.5008 1492.9061 0.0000 0.0000 1732.6431 -7675.9014 292.4386 -9408.5445 -7567.3827 300.2459 -73.7166 37.6999 30797.3802 -205.2169 -110.7922
ENERGY: 600000 1.0908 6.6414 15.4527 0.0000 -10834.9433 1513.1832 0.0000 0.0000 1819.3299 -7479.2453 307.0697 -9298.5752 -7543.1716 301.2604 596.0593 617.4828 30517.6205 -45.7063 22.9514
ENERGY: 900000 0.4410 4.2867 18.2194 0.0000 -10677.2137 1396.9258 0.0000 0.0000 1772.7430 -7484.5978 299.2067 -9257.3408 -7532.4549 301.4905 -135.3413 -75.4580 30429.8144 -18.5818 49.6968
ENERGY: 1200000 0.5359 6.3223 16.7744 0.0000 -10830.5215 1396.3307 0.0000 0.0000 1739.4101 -7671.1481 293.5807 -9410.5582 -7546.2248 300.8354 -696.3860 -666.5387 30574.5998 -110.1999 -42.8546
ENERGY: 1500000 0.3247 10.1269 17.1808 0.0000 -10760.6621 1451.5116 0.0000 0.0000 1817.9128 -7463.6053 306.8306 -9281.5181 -7544.1789 301.0224 194.4466 202.9259 30975.1155 -135.3601 -75.2847
TCL: Running FEP window   3: Lambda1 0.8999999999999999 Lambda2 0.8499999999999999 [dLambda -0.050000000000000044]
TCL: Setting parameter firsttimestep to 0
TCL: Setting parameter alchLambda to 0.8999999999999999
Info: NONBONDED TABLE R-SQUARED SPACING: 0.0625
Info: NONBONDED TABLE SIZE: 705 POINTS
TCL: Setting parameter alchLambda2 to 0.8499999999999999
Info: NONBONDED TABLE R-SQUARED SPACING: 0.0625
Info: NONBONDED TABLE SIZE: 705 POINTS
TCL: Running for 1500000 steps
ETITLE: TS BOND ANGLE DIHED IMPRP ELECT VDW BOUNDARY MISC KINETIC TOTAL TEMP POTENTIAL TOTALAVG TEMPAVG PRESSURE GPRESSURE VOLUME PRESSAVG GPRESSAVG
ENERGY: 0 0.3247 10.1269 17.1808 0.0000 -10760.4908 1451.2843 0.0000 0.0000 1816.9985 -7464.5756 306.6763 -9281.5741 -7464.5756 306.6763 121.7495 191.8367 30975.1155 121.7495 191.8367
ENERGY: 300000 0.7197 8.6160 16.8932 0.0000 -10780.5420 1436.8625 0.0000 0.0000 1822.2799 -7495.1707 307.5677 -9317.4506 -7454.9409 306.2668 -279.3691 -205.3275 31099.4834 -25.2766 41.4243
ENERGY: 600000 3.0637 8.2646 16.6648 0.0000 -10862.7692 1423.0597 0.0000 0.0000 1783.9424 -7627.7741 301.0970 -9411.7165 -7504.4884 303.7252 -255.3893 -246.3793 30213.0151 -46.7781 12.0329
ENERGY: 900000 0.4384 9.8245 15.6209 0.0000 -10715.6581 1426.7564 0.0000 0.0000 1867.7886 -7395.2293 315.2487 -9263.0179 -7498.2766 305.5546 -155.2819 -115.2534 31172.6160 -8.0605 53.3564
ENERGY: 1200000 2.4861 5.6746 17.7883 0.0000 -10866.7468 1477.1184 0.0000 0.0000 1783.6346 -7580.0448 301.0450 -9363.6794 -7513.9142 304.2595 150.7135 152.5092 30393.3754 -10.8705 49.5010
ENERGY: 1500000 0.2919 7.5261 18.7975 0.0000 -10763.7658 1390.0287 0.0000 0.0000 1745.1708 -7601.9508 294.5530 -9347.1216 -7517.6600 303.4534 -521.9102 -448.1003 30602.8812 -77.4064 -14.3386
TCL: Running FEP window   4: Lambda1 0.8499999999999999 Lambda2 0.7999999999999998 [dLambda -0.050000000000000044]
TCL: Setting parameter firsttimestep to 0
TCL: Setting parameter alchLambda to 0.8499999999999999
Info: NONBONDED TABLE R-SQUARED SPACING: 0.0625
Info: NONBONDED TABLE SIZE: 705 POINTS
TCL: Setting parameter alchLambda2 to 0.7999999999999998
Info: NONBONDED TABLE R-SQUARED SPACING: 0.0625
Info: NONBONDED TABLE SIZE: 705 POINTS
TCL: Running for 1500000 steps
ETITLE: TS BOND ANGLE DIHED IMPRP ELECT VDW BOUNDARY MISC KINETIC TOTAL TEMP POTENTIAL TOTALAVG TEMPAVG PRESSURE GPRESSURE VOLUME PRESSAVG GPRESSAVG
ENERGY: 0 0.2919 7.5261 18.7975 0.0000 -10763.5906 1389.9862 0.0000 0.0000 1744.2606 -7602.7282 294.3994 -9346.9888 -7602.7282 294.3994 -553.1826 -456.8059 30602.8812 -553.1826 -456.8059
ENERGY: 300000 0.4174 9.9066 16.0678 0.0000 -10806.2257 1446.0903 0.0000 0.0000 1782.1071 -7551.6365 300.7872 -9333.7436 -7554.8474 299.5730 -198.3495 -150.9817 30790.4852 -181.7819 -146.4810
ENERGY: 600000 2.4776 8.7253 15.5531 0.0000 -10759.3178 1383.5224 0.0000 0.0000 1826.4587 -7522.5807 308.2730 -9349.0393 -7564.1801 298.8428 -337.9499 -314.0960 30519.8734 -143.9104 -104.8066
ENERGY: 900000 0.9678 5.9085 14.7296 0.0000 -10872.7132 1459.1335 0.0000 0.0000 1817.7586 -7574.2152 306.8045 -9391.9737 -7564.2846 299.4112 -150.2568 -64.5523 30522.5963 -196.8947 -139.2203
ENERGY: 1200000 1.5952 4.2829 17.7658 0.0000 -10811.8974 1488.3649 0.0000 0.0000 1801.0352 -7498.8534 303.9819 -9299.8886 -7565.1899 300.0963 397.5455 433.4410 30617.6872 -86.5169 -30.1196
ENERGY: 1500000 0.7160 7.4648 16.9493 0.0000 -10834.9924 1456.3153 0.0000 0.0000 1755.8709 -7597.6762 296.3590 -9353.5471 -7561.6154 300.4107 -115.7562 -80.5706 30747.5624 -167.7531 -112.3404
TCL: Running FEP window   5: Lambda1 0.7999999999999998 Lambda2 0.7499999999999998 [dLambda -0.050000000000000044]
TCL: Setting parameter firsttimestep to 0
TCL: Setting parameter alchLambda to 0.7999999999999998
Info: NONBONDED TABLE R-SQUARED SPACING: 0.0625
Info: NONBONDED TABLE SIZE: 705 POINTS
TCL: Setting parameter alchLambda2 to 0.7499999999999998
Info: NONBONDED TABLE R-SQUARED SPACING: 0.0625
Info: NONBONDED TABLE SIZE: 705 POINTS
TCL: Running for 1500000 steps
ETITLE: TS BOND ANGLE DIHED IMPRP ELECT VDW BOUNDARY MISC KINETIC TOTAL TEMP POTENTIAL TOTALAVG TEMPAVG PRESSURE GPRESSURE VOLUME PRESSAVG GPRESSAVG
ENERGY: 0 0.7160 7.4648 16.9493 0.0000 -10835.0546 1455.6914 0.0000 0.0000 1754.9554 -7599.2777 296.2045 -9354.2331 -7599.2777 296.2045 -178.9097 -95.4939 30747.5624 -178.9097 -95.4939
ENERGY: 300000 1.2939 6.9536 16.5591 0.0000 -10750.4351 1395.1550 0.0000 0.0000 1767.2675 -7563.2060 298.2826 -9330.4735 -7583.3377 294.8467 -714.5137 -644.6889 30743.7742 -432.3013 -388.6315
ENERGY: 600000 0.4057 7.3425 15.1224 0.0000 -10950.2968 1583.9525 0.0000 0.0000 1791.4118 -7552.0619 302.3577 -9343.4737 -7572.4137 298.9615 1175.1902 1244.1364 30525.8421 -157.5390 -105.5377
ENERGY: 900000 0.7400 4.3918 15.6510 0.0000 -10755.1757 1428.1064 0.0000 0.0000 1785.5304 -7520.7562 301.3650 -9306.2866 -7572.1698 299.0661 -181.8200 -99.3011 30797.2831 -209.1706 -157.6344
ENERGY: 1200000 1.5010 5.0935 15.6463 0.0000 -10750.7424 1433.3456 0.0000 0.0000 1725.8387 -7569.3174 291.2901 -9295.1561 -7564.5125 298.1326 -29.0050 25.8889 30598.8985 -174.6411 -117.7614
ENERGY: 1500000 1.2074 5.1202 17.8571 0.0000 -10700.1287 1394.3585 0.0000 0.0000 1770.0290 -7511.5565 298.7487 -9281.5855 -7568.9492 297.3005 -217.5749 -156.0461 30599.3743 -145.5319 -93.1396
TCL: Running FEP window   6: Lambda1 0.7499999999999998 Lambda2 0.6999999999999997 [dLambda -0.050000000000000044]
TCL: Setting parameter firsttimestep to 0
TCL: Setting parameter alchLambda to 0.7499999999999998
Info: NONBONDED TABLE R-SQUARED SPACING: 0.0625
Info: NONBONDED TABLE SIZE: 705 POINTS
TCL: Setting parameter alchLambda2 to 0.6999999999999997
Info: NONBONDED TABLE R-SQUARED SPACING: 0.0625
Info: NONBONDED TABLE SIZE: 705 POINTS
TCL: Running for 1500000 steps
ETITLE: TS BOND ANGLE DIHED IMPRP ELECT VDW BOUNDARY MISC KINETIC TOTAL TEMP POTENTIAL TOTALAVG TEMPAVG PRESSURE GPRESSURE VOLUME PRESSAVG GPRESSAVG
ENERGY: 0 1.2074 5.1202 17.8571 0.0000 -10700.1463 1394.4910 0.0000 0.0000 1769.1172 -7512.3534 298.5948 -9281.4706 -7512.3534 298.5948 -256.3020 -162.4665 30599.3743 -256.3020 -162.4665
ENERGY: 300000 0.4126 4.5662 17.0375 0.0000 -10733.2269 1397.2983 0.0000 0.0000 1754.5052 -7559.4070 296.1285 -9313.9122 -7547.1653 300.1211 -484.6085 -398.6973 30893.4055 -132.1731 -61.3968
ENERGY: 600000 1.2996 3.8411 17.5538 0.0000 -10582.6169 1314.3430 0.0000 0.0000 1741.7298 -7503.8497 293.9723 -9245.5795 -7524.6260 299.4727 -996.2019 -962.0968 30952.2092 -170.0422 -96.3928
ENERGY: 900000 2.3149 5.6373 17.7496 0.0000 -10795.2699 1473.9447 0.0000 0.0000 1751.8710 -7543.7524 295.6839 -9295.6234 -7518.6509 300.4110 309.4801 390.8297 30406.1687 -134.5541 -64.5409
ENERGY: 1200000 0.2816 7.0823 14.6052 0.0000 -10766.2857 1382.1773 0.0000 0.0000 1805.8178 -7556.3215 304.7891 -9362.1393 -7516.3300 300.5696 -798.2410 -725.4441 30984.6055 -190.8295 -130.3101
ENERGY: 1500000 0.7912 5.8787 20.8163 0.0000 -10897.8711 1557.8282 0.0000 0.0000 1758.2179 -7554.3389 296.7551 -9312.5568 -7518.6801 300.8691 614.1083 698.2899 31009.2016 -146.1005 -86.9263
TCL: Running FEP window   7: Lambda1 0.6999999999999997 Lambda2 0.6499999999999997 [dLambda -0.050000000000000044]
TCL: Setting parameter firsttimestep to 0
TCL: Setting parameter alchLambda to 0.6999999999999997
Info: NONBONDED TABLE R-SQUARED SPACING: 0.0625
Info: NONBONDED TABLE SIZE: 705 POINTS
TCL: Setting parameter alchLambda2 to 0.6499999999999997
Info: NONBONDED TABLE R-SQUARED SPACING: 0.0625
Info: NONBONDED TABLE SIZE: 705 POINTS
TCL: Running for 1500000 steps
ETITLE: TS BOND ANGLE DIHED IMPRP ELECT VDW BOUNDARY MISC KINETIC TOTAL TEMP POTENTIAL TOTALAVG TEMPAVG PRESSURE GPRESSURE VOLUME PRESSAVG GPRESSAVG
ENERGY: 0 0.7912 5.8787 20.8163 0.0000 -10897.8223 1558.2864 0.0000 0.0000 1757.3238 -7554.7259 296.6042 -9312.0497 -7554.7259 296.6042 611.9236 699.3444 31009.2016 611.9236 699.3444
ENERGY: 300000 1.1300 3.2778 16.0104 0.0000 -10691.4674 1391.6789 0.0000 0.0000 1808.4101 -7470.9602 305.2267 -9279.3703 -7547.7558 299.4384 -405.1891 -365.1146 30790.5583 -197.0045 -122.4255
ENERGY: 600000 2.9441 5.1592 16.0252 0.0000 -10830.9137 1441.0177 0.0000 0.0000 1810.2380 -7555.5297 305.5352 -9365.7677 -7580.7858 298.3983 -181.7554 -181.6448 30327.2273 -95.5782 -34.3126
ENERGY: 900000 1.0945 4.0789 17.7575 0.0000 -10756.8592 1472.8529 0.0000 0.0000 1793.6588 -7467.4166 302.7369 -9261.0755 -7550.4307 299.3633 341.7063 390.0114 30669.1747 -147.8840 -82.1800
ENERGY: 1200000 0.6525 5.4099 15.6852 0.0000 -10934.2506 1516.2235 0.0000 0.0000 1794.0459 -7602.2334 302.8023 -9396.2793 -7550.2252 300.3315 500.8173 572.5873 29991.2558 -56.7372 5.9947
ENERGY: 1500000 0.5039 5.5139 16.7459 0.0000 -10700.2741 1377.7060 0.0000 0.0000 1730.2630 -7569.5415 292.0369 -9299.8044 -7552.4259 299.4803 -413.2871 -298.6495 30536.3581 -95.1864 -29.0965
TCL: Running FEP window   8: Lambda1 0.6499999999999997 Lambda2 0.5999999999999996 [dLambda -0.050000000000000044]
TCL: Setting parameter firsttimestep to 0
TCL: Setting parameter alchLambda to 0.6499999999999997
Info: NONBONDED TABLE R-SQUARED SPACING: 0.0625
Info: NONBONDED TABLE SIZE: 705 POINTS
TCL: Setting parameter alchLambda2 to 0.5999999999999996
Info: NONBONDED TABLE R-SQUARED SPACING: 0.0625
Info: NONBONDED TABLE SIZE: 705 POINTS
TCL: Running for 1500000 steps
ETITLE: TS BOND ANGLE DIHED IMPRP ELECT VDW BOUNDARY MISC KINETIC TOTAL TEMP POTENTIAL TOTALAVG TEMPAVG PRESSURE GPRESSURE VOLUME PRESSAVG GPRESSAVG
ENERGY: 0 0.5038 5.5139 16.7459 0.0000 -10700.0145 1378.1886 0.0000 0.0000 1729.3783 -7569.6839 291.8876 -9299.0622 -7569.6839 291.8876 -380.6494 -298.7632 30536.3581 -380.6494 -298.7632
ENERGY: 300000 3.3065 5.4172 16.5012 0.0000 -10751.7811 1416.0817 0.0000 0.0000 1833.9507 -7476.5240 309.5375 -9310.4747 -7543.9511 301.3455 26.0488 63.1587 30337.8743 -45.9881 17.3088
ENERGY: 600000 0.6497 6.2751 16.4275 0.0000 -10814.1330 1453.3960 0.0000 0.0000 1817.9184 -7519.4663 306.8315 -9337.3848 -7526.6673 300.9211 104.4905 193.3260 30413.6745 -48.3173 16.5529
ENERGY: 900000 1.9076 3.9055 18.5856 0.0000 -10897.7567 1453.0320 0.0000 0.0000 1782.0175 -7638.3086 300.7721 -9420.3261 -7537.4722 300.8460 -230.2627 -221.4407 30397.6344 -29.8198 36.5309
ENERGY: 1200000 0.8908 6.5593 15.3903 0.0000 -10727.9023 1442.2493 0.0000 0.0000 1781.2474 -7481.5652 300.6421 -9262.8126 -7536.3984 300.6032 70.4417 146.1976 30502.0424 87.3624 149.8303
ENERGY: 1500000 0.5298 6.0335 15.8738 0.0000 -10872.1886 1539.8266 0.0000 0.0000 1774.2232 -7535.7016 299.4566 -9309.9249 -7531.3150 299.7689 654.5779 688.8316 30653.2260 133.8711 194.9673
TCL: Running FEP window   9: Lambda1 0.5999999999999996 Lambda2 0.5499999999999996 [dLambda -0.050000000000000044]
TCL: Setting parameter firsttimestep to 0
TCL: Setting parameter alchLambda to 0.5999999999999996
Info: NONBONDED TABLE R-SQUARED SPACING: 0.0625
Info: NONBONDED TABLE SIZE: 705 POINTS
TCL: Setting parameter alchLambda2 to 0.5499999999999996
Info: NONBONDED TABLE R-SQUARED SPACING: 0.0625
Info: NONBONDED TABLE SIZE: 705 POINTS
TCL: Running for 1500000 steps
ETITLE: TS BOND ANGLE DIHED IMPRP ELECT VDW BOUNDARY MISC KINETIC TOTAL TEMP POTENTIAL TOTALAVG TEMPAVG PRESSURE GPRESSURE VOLUME PRESSAVG GPRESSAVG
ENERGY: 0 0.5298 6.0335 15.8738 0.0000 -10872.1934 1539.9672 0.0000 0.0000 1773.3583 -7536.4307 299.3106 -9309.7890 -7536.4307 299.3106 609.9773 682.9682 30653.2260 609.9773 682.9682
ENERGY: 300000 0.4088 5.6607 17.8137 0.0000 -10815.9760 1516.0584 0.0000 0.0000 1839.8894 -7436.1451 310.5398 -9276.0344 -7492.7210 304.8833 595.8005 707.4325 30564.4070 181.0482 266.6881
ENERGY: 600000 2.2877 5.5281 16.3305 0.0000 -10783.5466 1409.5596 0.0000 0.0000 1810.9646 -7538.8761 305.6578 -9349.8407 -7516.5290 302.9379 -474.9488 -436.7699 30659.1617 -109.4579 -39.1033
ENERGY: 900000 0.7441 5.2683 17.2716 0.0000 -10831.3918 1511.5788 0.0000 0.0000 1822.4211 -7474.1079 307.5915 -9296.5290 -7534.0968 301.4108 446.4479 527.4563 30747.4540 -67.1948 3.8675
ENERGY: 1200000 1.2545 6.8147 15.4442 0.0000 -10961.7053 1581.7438 0.0000 0.0000 1741.2648 -7615.1832 293.8938 -9356.4480 -7538.0421 301.4035 696.5106 706.8396 30756.0622 50.7876 118.7200
ENERGY: 1500000 1.3119 3.6286 16.8245 0.0000 -10861.9349 1491.6828 0.0000 0.0000 1711.8720 -7636.6150 288.9328 -9348.4870 -7545.4817 300.1993 -92.7243 46.9036 30584.6338 21.3248 92.4290
TCL: Running FEP window  10: Lambda1 0.5499999999999996 Lambda2 0.4999999999999996 [dLambda -0.04999999999999999]
TCL: Setting parameter firsttimestep to 0
TCL: Setting parameter alchLambda to 0.5499999999999996
Info: NONBONDED TABLE R-SQUARED SPACING: 0.0625
Info: NONBONDED TABLE SIZE: 705 POINTS
TCL: Setting parameter alchLambda2 to 0.4999999999999996
Info: NONBONDED TABLE R-SQUARED SPACING: 0.0625
Info: NONBONDED TABLE SIZE: 705 POINTS
TCL: Running for 1500000 steps
ETITLE: TS BOND ANGLE DIHED IMPRP ELECT VDW BOUNDARY MISC KINETIC TOTAL TEMP POTENTIAL TOTALAVG TEMPAVG PRESSURE GPRESSURE VOLUME PRESSAVG GPRESSAVG
ENERGY: 0 1.3119 3.6286 16.8245 0.0000 -10861.9320 1491.6090 0.0000 0.0000 1710.9723 -7637.5856 288.7810 -9348.5579 -7637.5856 288.7810 -50.7020 41.2999 30584.6338 -50.7020 41.2999
ENERGY: 300000 0.2587 9.8293 16.9294 0.0000 -10763.3020 1483.5157 0.0000 0.0000 1752.5912 -7500.1777 295.8055 -9252.7689 -7541.3109 297.0334 257.4520 346.9171 30966.8980 -347.5617 -266.3627
ENERGY: 600000 4.3167 11.3916 14.3750 0.0000 -10689.6620 1403.1625 0.0000 0.0000 1827.2520 -7429.1642 308.4068 -9256.4162 -7514.4322 299.0283 -313.2338 -256.4326 30778.1653 -292.3456 -228.7041
ENERGY: 900000 1.4171 4.6851 17.2773 0.0000 -10653.7325 1372.2494 0.0000 0.0000 1781.6628 -7476.4408 300.7122 -9258.1036 -7522.1415 298.5820 -692.5670 -627.4781 31178.5264 -203.8949 -147.1047
ENERGY: 1200000 0.6980 5.0209 17.5285 0.0000 -10767.3078 1401.9742 0.0000 0.0000 1715.3338 -7626.7524 289.5171 -9342.0862 -7526.3914 298.7602 -464.1168 -406.3467 30354.5923 -152.6072 -93.4102
ENERGY: 1500000 0.1848 6.9282 17.1781 0.0000 -10877.6850 1522.6884 0.0000 0.0000 1830.8192 -7499.8863 309.0089 -9330.7055 -7532.4988 298.7898 423.9696 477.1591 30692.2809 -61.6463 0.3475
TCL: Running FEP window  11: Lambda1 0.4999999999999996 Lambda2 0.4499999999999996 [dLambda -0.04999999999999999]
TCL: Setting parameter firsttimestep to 0
TCL: Setting parameter alchLambda to 0.4999999999999996
Info: NONBONDED TABLE R-SQUARED SPACING: 0.0625
Info: NONBONDED TABLE SIZE: 705 POINTS
TCL: Setting parameter alchLambda2 to 0.4499999999999996
Info: NONBONDED TABLE R-SQUARED SPACING: 0.0625
Info: NONBONDED TABLE SIZE: 705 POINTS
TCL: Running for 1500000 steps
ETITLE: TS BOND ANGLE DIHED IMPRP ELECT VDW BOUNDARY MISC KINETIC TOTAL TEMP POTENTIAL TOTALAVG TEMPAVG PRESSURE GPRESSURE VOLUME PRESSAVG GPRESSAVG
ENERGY: 0 0.1848 6.9282 17.1781 0.0000 -10877.5751 1522.3760 0.0000 0.0000 1829.9680 -7500.9401 308.8653 -9330.9080 -7500.9401 308.8653 388.5920 473.4954 30692.2809 388.5920 473.4954
ENERGY: 300000 2.3656 5.9024 16.4463 0.0000 -10901.5117 1526.0176 0.0000 0.0000 1827.7853 -7522.9946 308.4969 -9350.7799 -7540.3458 304.3554 474.1718 499.2914 30661.0428 5.7634 62.8096
ENERGY: 600000 0.8157 2.9564 16.6526 0.0000 -10730.6379 1421.1271 0.0000 0.0000 1824.0423 -7465.0439 307.8651 -9289.0862 -7538.3956 303.8102 -148.4183 -50.2229 30652.6688 -75.0054 -16.8200
ENERGY: 900000 1.0345 6.2995 16.6259 0.0000 -10718.4536 1455.7797 0.0000 0.0000 1793.0186 -7445.6955 302.6289 -9238.7140 -7514.1122 303.3128 -232.6745 -114.4751 31462.2516 -111.4539 -54.8883
ENERGY: 1200000 1.8033 5.4236 15.3851 0.0000 -10794.2055 1410.3769 0.0000 0.0000 1769.7225 -7591.4941 298.6969 -9361.2167 -7527.4318 302.4705 -406.6577 -263.4479 30568.9077 -86.9880 -18.5426
ENERGY: 1500000 2.9409 7.5424 17.5592 0.0000 -10792.6860 1436.6509 0.0000 0.0000 1759.3046 -7568.6879 296.9386 -9327.9926 -7536.4250 300.9587 -245.4778 -136.0422 30544.5432 -99.4314 -29.7996
TCL: Running FEP window  12: Lambda1 0.4499999999999996 Lambda2 0.39999999999999963 [dLambda -0.04999999999999999]
TCL: Setting parameter firsttimestep to 0
TCL: Setting parameter alchLambda to 0.4499999999999996
Info: NONBONDED TABLE R-SQUARED SPACING: 0.0625
Info: NONBONDED TABLE SIZE: 705 POINTS
TCL: Setting parameter alchLambda2 to 0.39999999999999963
Info: NONBONDED TABLE R-SQUARED SPACING: 0.0625
Info: NONBONDED TABLE SIZE: 705 POINTS
TCL: Running for 1500000 steps
ETITLE: TS BOND ANGLE DIHED IMPRP ELECT VDW BOUNDARY MISC KINETIC TOTAL TEMP POTENTIAL TOTALAVG TEMPAVG PRESSURE GPRESSURE VOLUME PRESSAVG GPRESSAVG
ENERGY: 0 2.9409 7.5424 17.5592 0.0000 -10792.6854 1436.5235 0.0000 0.0000 1758.4321 -7569.6872 296.7913 -9328.1194 -7569.6872 296.7913 -228.5884 -140.9951 30544.5432 -228.5884 -140.9951
ENERGY: 300000 1.2039 6.1769 15.7004 0.0000 -10791.7826 1414.1192 0.0000 0.0000 1805.3082 -7549.2739 304.7031 -9354.5821 -7514.4013 300.7765 -366.4074 -328.0405 30436.1583 -86.4964 -46.8215
ENERGY: 600000 2.8543 10.9691 14.9721 0.0000 -10645.0647 1343.7976 0.0000 0.0000 1712.9385 -7559.5329 289.1128 -9272.4714 -7508.9572 300.5903 -904.7738 -865.2148 30847.2312 -278.0345 -226.7878
ENERGY: 900000 1.2651 4.2530 19.0970 0.0000 -10929.3916 1560.8939 0.0000 0.0000 1742.0584 -7601.8242 294.0277 -9343.8826 -7516.1238 299.8014 710.4908 762.0316 30660.0082 -9.1382 48.1718
ENERGY: 1200000 1.1185 5.9831 16.9587 0.0000 -10618.6020 1303.4368 0.0000 0.0000 1767.0465 -7524.0585 298.2453 -9291.1050 -7516.6170 300.6612 -1207.5870 -1161.6881 31073.5233 -130.9566 -72.0161
ENERGY: 1500000 1.1383 5.1439 18.8068 0.0000 -10806.2264 1506.9012 0.0000 0.0000 1723.6289 -7550.6074 290.9172 -9274.2363 -7513.0751 300.9663 751.1142 758.4705 30383.6497 -50.5640 -0.8014
TCL: Running FEP window  13: Lambda1 0.39999999999999963 Lambda2 0.34999999999999964 [dLambda -0.04999999999999999]
TCL: Setting parameter firsttimestep to 0
TCL: Setting parameter alchLambda to 0.39999999999999963
Info: NONBONDED TABLE R-SQUARED SPACING: 0.0625
Info: NONBONDED TABLE SIZE: 705 POINTS
TCL: Setting parameter alchLambda2 to 0.34999999999999964
Info: NONBONDED TABLE R-SQUARED SPACING: 0.0625
Info: NONBONDED TABLE SIZE: 705 POINTS
TCL: Running for 1500000 steps
ETITLE: TS BOND ANGLE DIHED IMPRP ELECT VDW BOUNDARY MISC KINETIC TOTAL TEMP POTENTIAL TOTALAVG TEMPAVG PRESSURE GPRESSURE VOLUME PRESSAVG GPRESSAVG
ENERGY: 0 1.1383 5.1439 18.8068 0.0000 -10806.2253 1506.6779 0.0000 0.0000 1722.7314 -7551.7271 290.7657 -9274.4584 -7551.7271 290.7657 673.6943 752.9682 30383.6497 673.6943 752.9682
ENERGY: 300000 1.7582 5.0663 17.0606 0.0000 -10808.5179 1462.6791 0.0000 0.0000 1797.8191 -7524.1346 303.4391 -9321.9537 -7516.4105 300.6549 -126.3578 -1.7100 30775.5638 401.8501 453.4316
ENERGY: 600000 1.0064 5.4217 19.4368 0.0000 -10704.4144 1377.1955 0.0000 0.0000 1766.0208 -7535.3332 298.0721 -9301.3540 -7515.7857 301.0878 -506.3218 -371.2643 30540.5314 222.6600 275.7466
ENERGY: 900000 0.3997 4.6484 17.1941 0.0000 -10832.8739 1525.6962 0.0000 0.0000 1768.2275 -7516.7080 298.4446 -9284.9355 -7523.2920 300.3747 828.3582 834.7808 30382.8231 131.8526 182.8568
ENERGY: 1200000 1.1581 6.4512 20.0568 0.0000 -10797.4699 1434.5539 0.0000 0.0000 1811.5362 -7523.7136 305.7543 -9335.2499 -7527.6206 301.1711 -275.5611 -224.8330 30552.6238 94.3140 148.4253
ENERGY: 1500000 3.0918 7.0598 17.2094 0.0000 -10874.7866 1433.3357 0.0000 0.0000 1769.6018 -7644.4881 298.6766 -9414.0899 -7533.5390 301.3049 -560.5895 -512.3758 30665.5795 11.6721 66.1882
TCL: Running FEP window  14: Lambda1 0.34999999999999964 Lambda2 0.29999999999999966 [dLambda -0.04999999999999999]
TCL: Setting parameter firsttimestep to 0
TCL: Setting parameter alchLambda to 0.34999999999999964
Info: NONBONDED TABLE R-SQUARED SPACING: 0.0625
Info: NONBONDED TABLE SIZE: 705 POINTS
TCL: Setting parameter alchLambda2 to 0.29999999999999966
Info: NONBONDED TABLE R-SQUARED SPACING: 0.0625
Info: NONBONDED TABLE SIZE: 705 POINTS
TCL: Running for 1500000 steps
ETITLE: TS BOND ANGLE DIHED IMPRP ELECT VDW BOUNDARY MISC KINETIC TOTAL TEMP POTENTIAL TOTALAVG TEMPAVG PRESSURE GPRESSURE VOLUME PRESSAVG GPRESSAVG
ENERGY: 0 3.0918 7.0598 17.2094 0.0000 -10874.7860 1433.7243 0.0000 0.0000 1768.7193 -7644.9815 298.5276 -9413.7008 -7644.9815 298.5276 -593.0958 -516.7646 30665.5795 -593.0958 -516.7646
ENERGY: 300000 3.4024 2.8034 17.9498 0.0000 -10716.0633 1376.0320 0.0000 0.0000 1777.0121 -7538.8636 299.9273 -9315.8757 -7527.8739 301.5788 -753.1548 -651.7347 30427.3352 -416.2874 -329.4532
ENERGY: 600000 0.7868 7.7622 15.4373 0.0000 -10773.4775 1397.0835 0.0000 0.0000 1830.9767 -7521.4310 309.0355 -9352.4077 -7537.9056 302.6098 -590.6121 -515.1741 30740.4999 -445.3197 -357.4921
ENERGY: 900000 0.9237 8.7401 17.3481 0.0000 -10876.8124 1536.2485 0.0000 0.0000 1768.6494 -7544.9025 298.5158 -9313.5519 -7544.3821 300.8795 778.5674 818.7592 30530.2925 -238.9113 -165.5762
ENERGY: 1200000 1.7084 8.6918 17.5240 0.0000 -10887.6335 1551.4183 0.0000 0.0000 1748.6876 -7559.6033 295.1466 -9308.2910 -7549.7404 300.3894 530.0067 524.0353 31028.7754 -106.5210 -45.5389
ENERGY: 1500000 1.6720 5.0853 16.5828 0.0000 -10775.9200 1382.5528 0.0000 0.0000 1755.2090 -7614.8180 296.2473 -9370.0271 -7554.3564 299.4035 -813.4875 -743.4958 30918.8922 -134.9921 -75.3443
TCL: Running FEP window  15: Lambda1 0.29999999999999966 Lambda2 0.24999999999999967 [dLambda -0.04999999999999999]
TCL: Setting parameter firsttimestep to 0
TCL: Setting parameter alchLambda to 0.29999999999999966
Info: NONBONDED TABLE R-SQUARED SPACING: 0.0625
Info: NONBONDED TABLE SIZE: 705 POINTS
TCL: Setting parameter alchLambda2 to 0.24999999999999967
Info: NONBONDED TABLE R-SQUARED SPACING: 0.0625
Info: NONBONDED TABLE SIZE: 705 POINTS
TCL: Running for 1500000 steps
ETITLE: TS BOND ANGLE DIHED IMPRP ELECT VDW BOUNDARY MISC KINETIC TOTAL TEMP POTENTIAL TOTALAVG TEMPAVG PRESSURE GPRESSURE VOLUME PRESSAVG GPRESSAVG
ENERGY: 0 1.6720 5.0853 16.5828 0.0000 -10775.9202 1382.7157 0.0000 0.0000 1754.3323 -7615.5321 296.0993 -9369.8644 -7615.5321 296.0993 -845.8283 -746.7497 30918.8922 -845.8283 -746.7497
ENERGY: 300000 0.7587 5.7521 15.7826 0.0000 -10691.9713 1398.7094 0.0000 0.0000 1763.4091 -7507.5595 297.6313 -9270.9686 -7520.4995 299.8924 -287.0854 -172.4268 30435.7830 -409.0905 -324.8940
ENERGY: 600000 0.0750 5.3514 18.6710 0.0000 -10952.7749 1568.4827 0.0000 0.0000 1760.7715 -7599.4232 297.1862 -9360.1948 -7527.7425 299.9013 711.3781 808.4934 30633.2451 -164.8143 -88.4956
ENERGY: 900000 0.5979 5.2321 14.6866 0.0000 -10660.9804 1339.7625 0.0000 0.0000 1754.7996 -7545.9017 296.1782 -9300.7013 -7520.1626 300.7469 -1026.8997 -1029.5799 31119.1777 -198.0560 -135.9127
ENERGY: 1200000 0.5865 6.1917 17.6075 0.0000 -10720.3725 1384.3562 0.0000 0.0000 1762.8198 -7548.8107 297.5319 -9311.6305 -7519.2673 301.3057 -717.5448 -595.9028 30766.6144 -188.2524 -119.3687
ENERGY: 1500000 2.9754 4.9986 14.6829 0.0000 -10704.5057 1453.5054 0.0000 0.0000 1797.0398 -7431.3037 303.3076 -9228.3435 -7508.3366 300.6699 -61.1595 24.2737 30828.5216 -232.1060 -160.9390
TCL: Running FEP window  16: Lambda1 0.24999999999999967 Lambda2 0.19999999999999968 [dLambda -0.04999999999999999]
TCL: Setting parameter firsttimestep to 0
TCL: Setting parameter alchLambda to 0.24999999999999967
Info: NONBONDED TABLE R-SQUARED SPACING: 0.0625
Info: NONBONDED TABLE SIZE: 705 POINTS
TCL: Setting parameter alchLambda2 to 0.19999999999999968
Info: NONBONDED TABLE R-SQUARED SPACING: 0.0625
Info: NONBONDED TABLE SIZE: 705 POINTS
TCL: Running for 1500000 steps
ETITLE: TS BOND ANGLE DIHED IMPRP ELECT VDW BOUNDARY MISC KINETIC TOTAL TEMP POTENTIAL TOTALAVG TEMPAVG PRESSURE GPRESSURE VOLUME PRESSAVG GPRESSAVG
ENERGY: 0 2.9754 4.9986 14.6829 0.0000 -10704.5055 1453.4701 0.0000 0.0000 1796.1673 -7432.2112 303.1603 -9228.3785 -7432.2112 303.1603 -71.2183 17.6709 30828.5216 -71.2183 17.6709
ENERGY: 300000 2.4902 5.9665 16.0055 0.0000 -10861.7698 1479.0898 0.0000 0.0000 1802.9639 -7555.2539 304.3075 -9358.2178 -7504.2717 299.4950 19.9892 110.7853 30189.8594 184.4314 281.8295
ENERGY: 600000 0.9251 8.5448 18.6473 0.0000 -10804.1025 1500.9738 0.0000 0.0000 1764.9227 -7510.0888 297.8868 -9275.0115 -7510.9165 299.7681 366.6400 405.9767 30817.5809 63.5034 132.0513
ENERGY: 900000 1.3722 2.1758 18.3768 0.0000 -10883.3356 1462.1445 0.0000 0.0000 1804.3870 -7594.8793 304.5477 -9399.2664 -7514.8653 300.8729 -253.6164 -165.0189 30624.8493 -48.7300 23.9431
ENERGY: 1200000 0.2579 6.9678 19.6441 0.0000 -10742.3088 1379.5846 0.0000 0.0000 1702.4910 -7633.3634 287.3495 -9335.8544 -7522.8372 300.4784 -486.6858 -452.8133 30294.7110 -115.9083 -55.1431
ENERGY: 1500000 1.7820 6.5771 14.6814 0.0000 -10686.8019 1392.8025 0.0000 0.0000 1784.2988 -7486.6601 301.1571 -9270.9589 -7514.4612 301.1644 -756.5930 -689.1857 31354.8149 -106.1204 -41.0960
TCL: Running FEP window  17: Lambda1 0.19999999999999968 Lambda2 0.1499999999999997 [dLambda -0.04999999999999999]
TCL: Setting parameter firsttimestep to 0
TCL: Setting parameter alchLambda to 0.19999999999999968
Info: NONBONDED TABLE R-SQUARED SPACING: 0.0625
Info: NONBONDED TABLE SIZE: 705 POINTS
TCL: Setting parameter alchLambda2 to 0.1499999999999997
Info: NONBONDED TABLE R-SQUARED SPACING: 0.0625
Info: NONBONDED TABLE SIZE: 705 POINTS
TCL: Running for 1500000 steps
ETITLE: TS BOND ANGLE DIHED IMPRP ELECT VDW BOUNDARY MISC KINETIC TOTAL TEMP POTENTIAL TOTALAVG TEMPAVG PRESSURE GPRESSURE VOLUME PRESSAVG GPRESSAVG
ENERGY: 0 1.7820 6.5771 14.6814 0.0000 -10686.8016 1392.9170 0.0000 0.0000 1783.3805 -7487.4636 301.0021 -9270.8441 -7487.4636 301.0021 -760.6838 -689.5434 31354.8149 -760.6838 -689.5434
ENERGY: 300000 2.1920 4.7836 16.4299 0.0000 -10820.8555 1479.7515 0.0000 0.0000 1794.0446 -7523.6539 302.8021 -9317.6985 -7531.8883 303.7439 412.7242 456.0925 30273.6416 48.0974 102.6938
ENERGY: 600000 0.8821 5.9754 16.8662 0.0000 -10920.7985 1460.6156 0.0000 0.0000 1785.5402 -7650.9190 301.3667 -9436.4592 -7533.5196 304.2791 -133.4477 -114.7910 30398.5781 18.4717 67.1100
ENERGY: 900000 1.3685 5.1137 16.9656 0.0000 -10668.2394 1393.1037 0.0000 0.0000 1763.3546 -7488.3333 297.6221 -9251.6878 -7529.3832 302.9927 -439.1014 -384.9605 30865.4965 21.5722 74.7740
ENERGY: 1200000 1.6549 2.8924 17.0371 0.0000 -10654.0454 1401.4145 0.0000 0.0000 1803.1812 -7427.8654 304.3441 -9231.0466 -7522.6945 302.6246 -552.4110 -518.0804 31310.6347 -33.1854 12.7013
ENERGY: 1500000 2.1825 3.4037 14.9661 0.0000 -10819.8041 1513.2655 0.0000 0.0000 1745.2328 -7540.7535 294.5635 -9285.9863 -7525.9666 301.8233 646.6162 727.1290 30263.1062 28.1044 81.5861
TCL: Running FEP window  18: Lambda1 0.1499999999999997 Lambda2 0.09999999999999969 [dLambda -0.05 ]
TCL: Setting parameter firsttimestep to 0
TCL: Setting parameter alchLambda to 0.1499999999999997
Info: NONBONDED TABLE R-SQUARED SPACING: 0.0625
Info: NONBONDED TABLE SIZE: 705 POINTS
TCL: Setting parameter alchLambda2 to 0.09999999999999969
Info: NONBONDED TABLE R-SQUARED SPACING: 0.0625
Info: NONBONDED TABLE SIZE: 705 POINTS
TCL: Running for 1500000 steps
ETITLE: TS BOND ANGLE DIHED IMPRP ELECT VDW BOUNDARY MISC KINETIC TOTAL TEMP POTENTIAL TOTALAVG TEMPAVG PRESSURE GPRESSURE VOLUME PRESSAVG GPRESSAVG
ENERGY: 0 2.1825 3.4037 14.9661 0.0000 -10819.8046 1513.2193 0.0000 0.0000 1744.3559 -7541.6771 294.4155 -9286.0329 -7541.6771 294.4155 630.4681 721.8075 30263.1062 630.4681 721.8075
ENERGY: 300000 3.6898 8.3893 16.6201 0.0000 -10743.5669 1433.1080 0.0000 0.0000 1754.1923 -7527.5675 296.0757 -9281.7598 -7552.0741 295.7157 -18.1386 2.3198 30475.0704 235.9200 292.4372
ENERGY: 600000 0.1578 4.3201 16.6363 0.0000 -10780.3869 1479.6532 0.0000 0.0000 1757.4959 -7522.1237 296.6333 -9279.6196 -7551.6661 296.6601 324.0296 369.5401 30660.1209 120.2420 173.8640
ENERGY: 900000 0.4288 5.2628 16.5450 0.0000 -10779.0833 1426.2241 0.0000 0.0000 1709.0399 -7621.5826 288.4548 -9330.6225 -7553.0331 296.0693 -407.3188 -362.2338 30866.7702 93.5382 145.3885
ENERGY: 1200000 0.7603 7.6344 15.0256 0.0000 -10760.8115 1414.6949 0.0000 0.0000 1770.3633 -7552.3330 298.8051 -9322.6963 -7552.1695 296.9600 -279.9118 -275.9480 30718.9785 1.5641 46.2784
ENERGY: 1500000 0.4514 5.2966 15.6520 0.0000 -10765.6280 1433.6406 0.0000 0.0000 1754.2347 -7556.3526 296.0829 -9310.5873 -7551.4677 297.1078 -53.7926 7.5439 30323.1567 -107.2473 -56.7856
TCL: Running FEP window  19: Lambda1 0.09999999999999969 Lambda2 0.049999999999999684 [dLambda -0.05 ]
TCL: Setting parameter firsttimestep to 0
TCL: Setting parameter alchLambda to 0.09999999999999969
Info: NONBONDED TABLE R-SQUARED SPACING: 0.0625
Info: NONBONDED TABLE SIZE: 705 POINTS
TCL: Setting parameter alchLambda2 to 0.049999999999999684
Info: NONBONDED TABLE R-SQUARED SPACING: 0.0625
Info: NONBONDED TABLE SIZE: 705 POINTS
TCL: Running for 1500000 steps
ETITLE: TS BOND ANGLE DIHED IMPRP ELECT VDW BOUNDARY MISC KINETIC TOTAL TEMP POTENTIAL TOTALAVG TEMPAVG PRESSURE GPRESSURE VOLUME PRESSAVG GPRESSAVG
ENERGY: 0 0.4514 5.2966 15.6520 0.0000 -10765.6282 1433.5603 0.0000 0.0000 1753.3259 -7557.3419 295.9295 -9310.6678 -7557.3419 295.9295 -83.4306 5.8169 30323.1567 -83.4306 5.8169
ENERGY: 300000 0.2778 3.5183 17.6121 0.0000 -10696.6622 1376.5364 0.0000 0.0000 1767.2753 -7531.4422 298.2839 -9298.7176 -7548.7771 299.7230 -662.1037 -558.6519 30882.8451 -483.0531 -411.3415
ENERGY: 600000 0.7186 7.3044 19.3677 0.0000 -10809.3396 1513.0928 0.0000 0.0000 1798.0973 -7470.7589 303.4861 -9268.8562 -7526.1859 300.0998 631.3855 637.1634 30408.9079 -178.4324 -114.1776
ENERGY: 900000 0.7895 5.1122 15.0206 0.0000 -10798.0223 1448.6121 0.0000 0.0000 1790.1350 -7538.3528 302.1422 -9328.4878 -7520.1506 300.8516 -74.6230 45.8942 30321.4154 -63.1802 15.5121
ENERGY: 1200000 3.3654 6.8728 16.0120 0.0000 -10730.8820 1463.6282 0.0000 0.0000 1723.1005 -7517.9033 290.8280 -9241.0038 -7518.9372 300.3376 39.6102 117.7839 30480.0028 -85.2926 -7.1651
ENERGY: 1500000 1.2760 5.5872 18.6373 0.0000 -10746.3924 1444.3762 0.0000 0.0000 1820.0483 -7456.4675 307.1910 -9276.5158 -7522.4099 300.2555 202.9847 260.5926 30369.5704 -36.4071 40.7175
TCL: Running FEP window  20: Lambda1 0.049999999999999684 Lambda2 0.0    [dLambda -0.049999999999999684]
TCL: Setting parameter firsttimestep to 0
TCL: Setting parameter alchLambda to 0.049999999999999684
Info: NONBONDED TABLE R-SQUARED SPACING: 0.0625
Info: NONBONDED TABLE SIZE: 705 POINTS
TCL: Setting parameter alchLambda2 to 0.0
Info: NONBONDED TABLE R-SQUARED SPACING: 0.0625
Info: NONBONDED TABLE SIZE: 705 POINTS
TCL: Running for 1500000 steps
ETITLE: TS BOND ANGLE DIHED IMPRP ELECT VDW BOUNDARY MISC KINETIC TOTAL TEMP POTENTIAL TOTALAVG TEMPAVG PRESSURE GPRESSURE VOLUME PRESSAVG GPRESSAVG
ENERGY: 0 1.2760 5.5872 18.6373 0.0000 -10746.3917 1442.2748 0.0000 0.0000 1819.1708 -7459.4457 307.0429 -9278.6164 -7459.4457 307.0429 167.0253 250.0425 30369.5704 167.0253 250.0425
ENERGY: 300000 1.3174 6.2770 17.0301 0.0000 -10913.4566 1486.6211 0.0000 0.0000 1752.8430 -7649.3680 295.8480 -9402.2110 -7557.2918 301.2918 64.7647 125.0158 30332.0142 -236.7199 -149.8331
ENERGY: 600000 2.1154 5.3630 16.0429 0.0000 -10710.3293 1446.1574 0.0000 0.0000 1765.4307 -7475.2199 297.9725 -9240.6506 -7561.3324 298.0266 159.8204 258.8065 30298.7235 -191.8425 -118.0743
ENERGY: 900000 1.3151 7.6348 15.5996 0.0000 -10846.7440 1463.7724 0.0000 0.0000 1716.5745 -7641.8475 289.7265 -9358.4221 -7566.6988 298.3849 -333.4261 -293.7250 30806.1087 -174.6377 -105.6865
ENERGY: 1200000 1.4925 3.8316 16.6295 0.0000 -10771.9027 1421.7874 0.0000 0.0000 1769.9515 -7558.2103 298.7356 -9328.1618 -7561.1190 299.0179 -315.5643 -230.5267 30524.0197 -175.3383 -97.6291
ENERGY: 1500000 0.6068 5.5654 14.7955 0.0000 -10741.5357 1394.0154 0.0000 0.0000 1754.1663 -7572.3862 296.0713 -9326.5525 -7565.8459 298.4764 -504.0437 -422.2913 30500.8559 -149.1673 -75.9516
TCL: Exiting due to exit command.
