Info: SIMULATION PARAMETERS:
Info: TIMESTEP               2
Info: NUMBER OF STEPS        0
Info: STEPS PER CYCLE        10
Info: PERIODIC CELL BASIS 1  30.8747 0 0
Info: PERIODIC CELL BASIS 2  0 31.2283 0
Info: PERIODIC CELL BASIS 3  0 0 31.5034
Info: PERIODIC CELL CENTER   0 0 0
Info: WRAPPING WATERS AROUND PERIODIC BOUNDARIES ON OUTPUT.
Info: WRAPPING ALL CLUSTERS AROUND PERIODIC BOUNDARIES ON OUTPUT.
Info: FIRST LDB TIMESTEP     50
Info: LAST LDB TIMESTEP     -1
Info: HOM BACKGROUND SCALING 1
Info: PME BACKGROUND SCALING 1
Info: MIN ATOMS PER PATCH    40
Info: EMPTY PATCH LOAD       40 ATOMS
Info: VELOCITY FILE          mobley_3867265_equil.vel
Info: CENTER OF MASS MOVING INITIALLY? NO
Info: DIELECTRIC             1
Info: EXCLUDE                SCALED ONE-FOUR
Info: 1-4 ELECTROSTATICS SCALED BY 0.833333
Info: MODIFIED 1-4 VDW PARAMETERS WILL BE USED
Info: DCD FILENAME           mobley_3867265_prod.dcd
Info: DCD FREQUENCY          100000
Info: DCD FIRST STEP         100000
Info: DCD FILE WILL CONTAIN UNIT CELL DATA
Info: XST FILENAME           mobley_3867265_prod.xst
Info: XST FREQUENCY          100000
Info: NO VELOCITY DCD OUTPUT
Info: NO FORCE DCD OUTPUT
Info: OUTPUT FILENAME        mobley_3867265_prod
Info: BINARY OUTPUT FILES WILL BE USED
Info: RESTART FILENAME       mobley_3867265_prod.restart
Info: RESTART FREQUENCY      100000
Info: BINARY RESTART FILES WILL BE USED
Info: CUTOFF                 9
Info: PAIRLIST DISTANCE      11
Info: PAIRLIST SHRINK RATE   0.01
Info: PAIRLIST GROW RATE     0.01
Info: PAIRLIST TRIGGER       0.3
Info: PAIRLISTS PER CYCLE    2
Info: PAIRLISTS ENABLED
Info: MARGIN                 2
Info: HYDROGEN GROUP CUTOFF  2.5
Info: PATCH DIMENSION        15.5
Info: ENERGY OUTPUT STEPS    100000
Info: ENERGY EVALUATION STEPS    100000
Info: OUTPUT ENERGY PRECISION 4
Info: CROSSTERM ENERGY INCLUDED IN DIHEDRAL
Info: TIMING OUTPUT STEPS    1000000
Info: PRESSURE OUTPUT STEPS  100000
Info: ALCHEMICAL FEP ON
Info: FEP CURRENT LAMBDA VALUE     0
Info: FEP COMPARISON LAMBDA VALUE  0.05
Info: FEP INTRA-ALCHEMICAL NON-BONDED INTERACTIONS WILL BE RETAINED
Info: FEP INTRA-ALCHEMICAL BONDED INTERACTIONS WILL BE RETAINED
Info: FEP VDW SHIFTING COEFFICIENT 5
Info: FEP ELEC. ACTIVE FOR ANNIHILATED PARTICLES BETWEEN LAMBDA = 0 AND LAMBDA = 0.5
Info: FEP ELEC. ACTIVE FOR EXNIHILATED PARTICLES BETWEEN LAMBDA = 0.5 AND LAMBDA = 1
Info: FEP VDW ACTIVE FOR ANNIHILATED PARTICLES BETWEEN LAMBDA = 0 AND LAMBDA = 1
Info: FEP VDW ACTIVE FOR EXNIHILATED PARTICLES BETWEEN LAMBDA = 0 AND LAMBDA = 1
Info: FEP BOND ACTIVE FOR ANNIHILATED PARTICLES BETWEEN LAMBDA = 1 AND LAMBDA = 1
Info: FEP BOND ACTIVE FOR EXNIHILATED PARTICLES BETWEEN LAMBDA = 0 AND LAMBDA = 0
Info: LANGEVIN DYNAMICS ACTIVE
Info: LANGEVIN TEMPERATURE   300
Info: LANGEVIN USING BBK INTEGRATOR
Info: LANGEVIN DAMPING COEFFICIENT IS 1 INVERSE PS
Info: LANGEVIN DYNAMICS APPLIED TO HYDROGENS
Info: LANGEVIN PISTON PRESSURE CONTROL ACTIVE
Info:        TARGET PRESSURE IS 1.01325 BAR
Info:     OSCILLATION PERIOD IS 50 FS
Info:             DECAY TIME IS 25 FS
Info:     PISTON TEMPERATURE IS 300 K
Info:       PRESSURE CONTROL IS GROUP-BASED
Info:    INITIAL STRAIN RATE IS -0.000244365 -0.000244365 -0.000244365
Info:       CELL FLUCTUATION IS ISOTROPIC
Info: PARTICLE MESH EWALD (PME) ACTIVE
Info: PME TOLERANCE               1e-06
Info: PME EWALD COEFFICIENT       0.348832
Info: PME INTERPOLATION ORDER     4
Info: PME GRID DIMENSIONS         32 32 32
Info: PME MAXIMUM GRID SPACING    1
Info: PME CALCULATION WILL BE PERFORMED ON GPU
Info: FULL ELECTROSTATIC EVALUATION FREQUENCY      2
Info: USING VERLET I (r-RESPA) MTS SCHEME.
Info: C1 SPLITTING OF LONG RANGE ELECTROSTATICS
Info: PLACING ATOMS IN PATCHES BY HYDROGEN GROUPS
Info: RIGID BONDS TO HYDROGEN : ALL
Info:         ERROR TOLERANCE : 1e-08
Info:          MAX ITERATIONS : 100
Info: RIGID WATER USING SETTLE ALGORITHM
Info: RANDOM NUMBER SEED     1743507026
Info: USE HYDROGEN BONDS?    NO
Info: Using AMBER format force field!
Info: AMBER PARM FILE        mobley_3867265.prmtop
Info: COORDINATE PDB         mobley_3867265.pdb
Info: Exclusions will be read from PARM file!
Info: SCNB (VDW SCALING)     2
Info: USING ARITHMETIC MEAN TO COMBINE L-J SIGMA PARAMETERS
Info: BINARY COORDINATES     mobley_3867265_equil.coor
Info: SUMMARY OF PARAMETERS:
Info: 5 BONDS
Info: 4 ANGLES
Info:   4 HARMONIC
Info:   0 COSINE-BASED
Info: 5 DIHEDRAL
Info: 0 IMPROPER
Info: 0 CROSSTERM
Info: 0 VDW
Info: 21 VDW_PAIRS
Info: 0 NBTHOLE_PAIRS
Info: To read alchdata from file: mobley_3867265.pdb
Info: To read alchflag data from column: 5
Info: STRUCTURE SUMMARY:
Info: 2989 ATOMS
Info: 2988 BONDS
Info: 15 ANGLES
Info: 25 DIHEDRALS
Info: 0 IMPROPERS
Info: 0 CROSSTERMS
Info: 3015 EXCLUSIONS
Info: 2985 RIGID BONDS
Info: ALCH: 0 ATOMS TO DISAPPEAR IN FINAL STATE
Info: ALCH: 10 ATOMS TO APPEAR IN FINAL STATE
Info: 5982 DEGREES OF FREEDOM
Info: 997 HYDROGEN GROUPS
Info: 4 ATOMS IN LARGEST HYDROGEN GROUP
Info: 997 MIGRATION GROUPS
Info: 4 ATOMS IN LARGEST MIGRATION GROUP
Info: TOTAL MASS = 17948 amu
Info: TOTAL CHARGE = 0.000199959 e
Info: MASS DENSITY = 0.981219 g/cm^3
Info: ATOM DENSITY = 0.0984051 atoms/A^3
Info: ADDED 0 IMPLICIT EXCLUSIONS
Info: NONBONDED TABLE R-SQUARED SPACING: 0.0625
Info: NONBONDED TABLE SIZE: 705 POINTS
Info: REMOVING COM VELOCITY 0.0685966 -0.109082 0.0332007
Info: Use 3D box decompostion in PME FFT.
Info: Updated CUDA force table with 4096 elements.
Info: Updated CUDA LJ table with 6 x 6 elements.
Info: Found 13 unique exclusion lists needing 20 bytes
TCL: Running for 1500000 steps
ETITLE: TS BOND ANGLE DIHED IMPRP ELECT VDW BOUNDARY MISC KINETIC TOTAL TEMP POTENTIAL TOTALAVG TEMPAVG PRESSURE GPRESSURE VOLUME PRESSAVG GPRESSAVG
ENERGY: 0 1.4951 4.2012 5.4580 0.0000 -10842.6708 1472.3617 0.0000 0.0000 1823.7104 -7535.4444 306.8314 -9359.1548 -7535.4444 306.8314 380.7613 479.6659 30374.4503 380.7613 479.6659
ENERGY: 300000 0.6883 4.5105 6.4798 0.0000 -10742.6441 1414.6866 0.0000 0.0000 1749.1696 -7567.1093 294.2903 -9316.2789 -7530.3255 302.2175 -334.8305 -215.8898 30944.9051 43.1684 142.1918
ENERGY: 600000 1.5956 4.1002 5.2578 0.0000 -10825.2522 1436.6716 0.0000 0.0000 1796.3117 -7581.3153 302.2217 -9377.6270 -7553.8478 304.6067 -180.2522 -97.3664 30627.7197 59.2299 145.7002
ENERGY: 900000 2.6281 4.5782 4.7825 0.0000 -11020.8481 1538.7671 0.0000 0.0000 1754.3218 -7715.7703 295.1571 -9470.0921 -7564.8212 303.6956 164.5679 256.9523 30779.7797 38.2822 115.5406
ENERGY: 1200000 1.4610 6.1199 5.2945 0.0000 -10929.0749 1547.3824 0.0000 0.0000 1801.5664 -7567.2507 303.1058 -9368.8171 -7577.0959 302.0983 751.8613 833.7788 30703.2474 56.1027 124.8620
ENERGY: 1500000 1.2868 3.3361 5.1688 0.0000 -10653.8046 1346.3970 0.0000 0.0000 1801.2332 -7496.3827 303.0497 -9297.6159 -7572.7529 301.7479 -509.9384 -432.7633 30592.8849 23.5692 92.1427
TCL: Running FEP window   2: Lambda1 0.05   Lambda2 0.1    [dLambda 0.05  ]
TCL: Setting parameter firsttimestep to 0
TCL: Setting parameter alchLambda to 0.05
Info: NONBONDED TABLE R-SQUARED SPACING: 0.0625
Info: NONBONDED TABLE SIZE: 705 POINTS
TCL: Setting parameter alchLambda2 to 0.1
Info: NONBONDED TABLE R-SQUARED SPACING: 0.0625
Info: NONBONDED TABLE SIZE: 705 POINTS
TCL: Running for 1500000 steps
ETITLE: TS BOND ANGLE DIHED IMPRP ELECT VDW BOUNDARY MISC KINETIC TOTAL TEMP POTENTIAL TOTALAVG TEMPAVG PRESSURE GPRESSURE VOLUME PRESSAVG GPRESSAVG
ENERGY: 0 1.2868 3.3361 5.1688 0.0000 -10653.8038 1346.7700 0.0000 0.0000 1800.3399 -7496.9022 302.8994 -9297.2421 -7496.9022 302.8994 -496.0215 -430.0845 30592.8849 -496.0215 -430.0845
ENERGY: 300000 0.7653 3.0607 5.3752 0.0000 -10801.9013 1367.9811 0.0000 0.0000 1783.0948 -7641.6241 299.9980 -9424.7189 -7603.5777 301.7752 -888.9217 -863.6471 31110.8353 -605.9914 -542.4973
ENERGY: 600000 0.0282 7.0529 5.6166 0.0000 -10763.7372 1380.7708 0.0000 0.0000 1758.4387 -7611.8301 295.8497 -9370.2688 -7594.2879 302.4710 -582.9162 -479.9133 30702.1710 -330.6777 -267.2336
ENERGY: 900000 1.7915 4.2001 5.5449 0.0000 -10882.5826 1471.3880 0.0000 0.0000 1762.9654 -7636.6927 296.6113 -9399.6581 -7615.0864 300.4138 -242.0159 -128.7258 30802.9706 -311.9371 -252.4647
ENERGY: 1200000 0.5689 7.0503 5.4814 0.0000 -10894.7315 1486.9950 0.0000 0.0000 1800.6679 -7593.9680 302.9546 -9394.6359 -7615.8011 300.8320 219.4927 292.6788 30884.7884 -202.0700 -144.0796
ENERGY: 1500000 1.2539 2.6871 5.6961 0.0000 -10987.2125 1530.7052 0.0000 0.0000 1782.3851 -7664.4851 299.8786 -9446.8702 -7621.6937 300.7441 467.3342 489.7836 30482.4815 -158.7727 -100.2037
TCL: Running FEP window   3: Lambda1 0.1    Lambda2 0.15000000000000002 [dLambda 0.05000000000000002]
TCL: Setting parameter firsttimestep to 0
TCL: Setting parameter alchLambda to 0.1
Info: NONBONDED TABLE R-SQUARED SPACING: 0.0625
Info: NONBONDED TABLE SIZE: 705 POINTS
TCL: Setting parameter alchLambda2 to 0.15000000000000002
Info: NONBONDED TABLE R-SQUARED SPACING: 0.0625
Info: NONBONDED TABLE SIZE: 705 POINTS
TCL: Running for 1500000 steps
ETITLE: TS BOND ANGLE DIHED IMPRP ELECT VDW BOUNDARY MISC KINETIC TOTAL TEMP POTENTIAL TOTALAVG TEMPAVG PRESSURE GPRESSURE VOLUME PRESSAVG GPRESSAVG
ENERGY: 0 1.2539 2.6871 5.6961 0.0000 -10987.2122 1531.3731 0.0000 0.0000 1781.4974 -7664.7045 299.7293 -9446.2020 -7664.7045 299.7293 416.6821 494.1234 30482.4815 416.6821 494.1234
ENERGY: 300000 0.5717 3.6606 4.9738 0.0000 -10970.4062 1508.2976 0.0000 0.0000 1781.6787 -7671.2237 299.7598 -9452.9024 -7626.7789 301.8525 -15.8180 16.7184 31180.6586 13.6269 79.1042
ENERGY: 600000 1.2389 5.6165 4.6990 0.0000 -11000.7899 1538.9567 0.0000 0.0000 1756.3050 -7693.9737 295.4908 -9450.2787 -7612.1329 300.9197 433.8114 495.4406 30413.9807 -206.4983 -144.1890
ENERGY: 900000 1.6050 3.5563 4.8304 0.0000 -10891.7923 1442.5939 0.0000 0.0000 1757.2325 -7681.9743 295.6468 -9439.2068 -7611.9422 300.6937 -340.0360 -320.1781 30583.4848 -219.7621 -163.6228
ENERGY: 1200000 1.4390 5.1776 4.8729 0.0000 -10721.8744 1324.2681 0.0000 0.0000 1772.9643 -7613.1525 298.2936 -9386.1168 -7608.2581 300.9204 -1293.5191 -1224.0241 31286.9650 -320.4669 -257.9147
ENERGY: 1500000 0.9542 4.2706 4.9999 0.0000 -10954.3848 1527.7562 0.0000 0.0000 1792.2498 -7624.1540 301.5383 -9416.4038 -7609.2530 300.8622 489.7449 571.2985 30634.1096 -206.5795 -138.2667
TCL: Running FEP window   4: Lambda1 0.15000000000000002 Lambda2 0.2    [dLambda 0.04999999999999999]
TCL: Setting parameter firsttimestep to 0
TCL: Setting parameter alchLambda to 0.15000000000000002
Info: NONBONDED TABLE R-SQUARED SPACING: 0.0625
Info: NONBONDED TABLE SIZE: 705 POINTS
TCL: Setting parameter alchLambda2 to 0.2
Info: NONBONDED TABLE R-SQUARED SPACING: 0.0625
Info: NONBONDED TABLE SIZE: 705 POINTS
TCL: Running for 1500000 steps
ETITLE: TS BOND ANGLE DIHED IMPRP ELECT VDW BOUNDARY MISC KINETIC TOTAL TEMP POTENTIAL TOTALAVG TEMPAVG PRESSURE GPRESSURE VOLUME PRESSAVG GPRESSAVG
ENERGY: 0 0.9542 4.2706 4.9999 0.0000 -10954.3840 1530.1364 0.0000 0.0000 1791.3481 -7622.6747 301.3866 -9414.0228 -7622.6747 301.3866 493.6479 579.3464 30634.1096 493.6479 579.3464
ENERGY: 300000 0.8555 5.3237 5.5301 0.0000 -10989.2933 1516.4624 0.0000 0.0000 1802.4766 -7658.6450 303.2589 -9461.1216 -7613.1509 302.8585 351.9319 364.7793 30395.7201 175.7968 238.6419
ENERGY: 600000 1.7017 3.4044 5.3340 0.0000 -10923.4818 1485.8071 0.0000 0.0000 1751.5308 -7675.7037 294.6875 -9427.2346 -7619.3737 299.5057 249.0994 374.1167 30329.4156 32.0191 101.5181
ENERGY: 900000 0.5589 2.2197 5.2166 0.0000 -10942.3743 1521.6919 0.0000 0.0000 1774.0606 -7638.6264 298.4781 -9412.6871 -7622.4154 299.1046 318.0371 407.9456 30790.3160 49.9792 135.3290
ENERGY: 1200000 0.9794 3.5138 5.3469 0.0000 -10883.6844 1454.1576 0.0000 0.0000 1732.4538 -7687.2329 291.4779 -9419.6867 -7628.7881 298.9879 -462.9402 -411.6572 31222.0733 2.2366 85.5739
ENERGY: 1500000 0.8453 6.5954 5.7024 0.0000 -10799.2554 1395.8779 0.0000 0.0000 1834.7875 -7555.4468 308.6951 -9390.2343 -7619.5638 299.8523 -870.7834 -755.2023 31145.3063 -152.3759 -69.9226
TCL: Running FEP window   5: Lambda1 0.2    Lambda2 0.25   [dLambda 0.04999999999999999]
TCL: Setting parameter firsttimestep to 0
TCL: Setting parameter alchLambda to 0.2
Info: NONBONDED TABLE R-SQUARED SPACING: 0.0625
Info: NONBONDED TABLE SIZE: 705 POINTS
TCL: Setting parameter alchLambda2 to 0.25
Info: NONBONDED TABLE R-SQUARED SPACING: 0.0625
Info: NONBONDED TABLE SIZE: 705 POINTS
TCL: Running for 1500000 steps
ETITLE: TS BOND ANGLE DIHED IMPRP ELECT VDW BOUNDARY MISC KINETIC TOTAL TEMP POTENTIAL TOTALAVG TEMPAVG PRESSURE GPRESSURE VOLUME PRESSAVG GPRESSAVG
ENERGY: 0 0.8453 6.5954 5.7024 0.0000 -10799.2550 1395.8579 0.0000 0.0000 1833.8893 -7556.3645 308.5440 -9390.2539 -7556.3645 308.5440 -834.5087 -751.7835 31145.3063 -834.5087 -751.7835
ENERGY: 300000 0.3658 6.1822 4.9178 0.0000 -10620.5829 1301.3784 0.0000 0.0000 1774.4753 -7533.2634 298.5478 -9307.7388 -7550.6542 301.1437 -1092.0972 -1042.7394 31115.1745 -505.4582 -430.6364
ENERGY: 600000 1.4527 2.8322 5.8815 0.0000 -11018.7566 1485.0520 0.0000 0.0000 1770.9112 -7752.6270 297.9482 -9523.5381 -7604.5311 299.8415 -4.3208 47.7642 30412.5514 -108.1013 -36.0823
ENERGY: 900000 1.6276 3.4721 5.5153 0.0000 -10707.9244 1382.8645 0.0000 0.0000 1789.0221 -7525.4227 300.9953 -9314.4448 -7588.0201 300.4399 -450.2670 -336.7223 31270.6070 -50.3338 26.4552
ENERGY: 1200000 2.3057 2.8517 5.4762 0.0000 -10795.3071 1437.8143 0.0000 0.0000 1774.1287 -7572.7306 298.4895 -9346.8592 -7594.0120 299.3212 -137.8116 -138.5240 30797.6986 -4.7746 62.2131
ENERGY: 1500000 0.6279 3.9631 5.0675 0.0000 -10864.8350 1495.8043 0.0000 0.0000 1768.3069 -7591.0654 297.5100 -9359.3723 -7596.4176 299.5967 478.0569 508.2973 30556.7919 -54.4125 6.2138
TCL: Running FEP window   6: Lambda1 0.25   Lambda2 0.3    [dLambda 0.04999999999999999]
TCL: Setting parameter firsttimestep to 0
TCL: Setting parameter alchLambda to 0.25
Info: NONBONDED TABLE R-SQUARED SPACING: 0.0625
Info: NONBONDED TABLE SIZE: 705 POINTS
TCL: Setting parameter alchLambda2 to 0.3
Info: NONBONDED TABLE R-SQUARED SPACING: 0.0625
Info: NONBONDED TABLE SIZE: 705 POINTS
TCL: Running for 1500000 steps
ETITLE: TS BOND ANGLE DIHED IMPRP ELECT VDW BOUNDARY MISC KINETIC TOTAL TEMP POTENTIAL TOTALAVG TEMPAVG PRESSURE GPRESSURE VOLUME PRESSAVG GPRESSAVG
ENERGY: 0 0.6279 3.9631 5.0675 0.0000 -10864.8371 1495.6705 0.0000 0.0000 1767.4260 -7592.0821 297.3618 -9359.5081 -7592.0821 297.3618 440.6862 511.6841 30556.7919 440.6862 511.6841
ENERGY: 300000 0.7064 3.1553 5.2694 0.0000 -10856.9562 1443.8207 0.0000 0.0000 1752.9977 -7651.0066 294.9343 -9404.0043 -7606.4979 299.0909 -449.8523 -400.0541 30964.4461 -218.4139 -170.8725
ENERGY: 600000 0.7926 4.7014 5.6341 0.0000 -10811.2848 1429.7016 0.0000 0.0000 1831.3943 -7539.0608 308.1242 -9370.4551 -7597.5274 301.0932 -357.9330 -289.3965 30979.0378 -232.8032 -181.1715
ENERGY: 900000 1.2820 4.0246 5.8045 0.0000 -10772.3163 1433.1710 0.0000 0.0000 1788.8392 -7539.1951 300.9645 -9328.0342 -7584.1678 300.5573 -39.6257 -6.0430 30762.9920 -94.6107 -53.3227
ENERGY: 1200000 0.8367 6.3313 5.3954 0.0000 -10954.7649 1531.0489 0.0000 0.0000 1758.9216 -7652.2311 295.9310 -9411.1526 -7588.4893 299.9136 475.1615 508.0143 30603.0327 -63.6790 -30.1603
ENERGY: 1500000 0.1905 3.4454 5.5733 0.0000 -10928.1060 1507.9842 0.0000 0.0000 1771.2798 -7639.6328 298.0102 -9410.9126 -7594.6379 299.8286 214.6403 234.4759 30798.8594 -46.6775 -9.6556
TCL: Running FEP window   7: Lambda1 0.3    Lambda2 0.35   [dLambda 0.04999999999999999]
TCL: Setting parameter firsttimestep to 0
TCL: Setting parameter alchLambda to 0.3
Info: NONBONDED TABLE R-SQUARED SPACING: 0.0625
Info: NONBONDED TABLE SIZE: 705 POINTS
TCL: Setting parameter alchLambda2 to 0.35
Info: NONBONDED TABLE R-SQUARED SPACING: 0.0625
Info: NONBONDED TABLE SIZE: 705 POINTS
TCL: Running for 1500000 steps
ETITLE: TS BOND ANGLE DIHED IMPRP ELECT VDW BOUNDARY MISC KINETIC TOTAL TEMP POTENTIAL TOTALAVG TEMPAVG PRESSURE GPRESSURE VOLUME PRESSAVG GPRESSAVG
ENERGY: 0 0.1905 3.4454 5.5733 0.0000 -10928.1082 1508.3162 0.0000 0.0000 1770.3876 -7640.1951 297.8601 -9410.5828 -7640.1951 297.8601 151.6103 240.5423 30798.8594 151.6103 240.5423
ENERGY: 300000 1.4133 3.6780 5.2684 0.0000 -10826.4505 1400.6932 0.0000 0.0000 1818.7846 -7596.6130 306.0027 -9415.3976 -7631.2251 302.0405 -426.5958 -349.6755 30782.6914 -411.9805 -321.7689
ENERGY: 600000 1.3799 4.4077 5.5100 0.0000 -10803.1618 1482.6153 0.0000 0.0000 1801.3879 -7507.8610 303.0758 -9309.2489 -7632.4044 302.5481 70.7306 97.1219 31568.3406 -259.6732 -197.3331
ENERGY: 900000 1.1592 3.7062 5.3394 0.0000 -10840.3096 1464.1773 0.0000 0.0000 1787.9948 -7577.9327 300.8224 -9365.9276 -7617.2996 302.4580 226.0752 269.9252 30605.4355 -125.8405 -64.1492
ENERGY: 1200000 1.6011 4.2089 4.9292 0.0000 -10770.7645 1352.5066 0.0000 0.0000 1816.6649 -7590.8538 305.6461 -9407.5187 -7616.1829 302.1381 -753.6954 -723.7017 30759.9557 -238.6038 -177.4153
ENERGY: 1500000 1.4448 6.7620 5.1971 0.0000 -10833.0592 1410.6941 0.0000 0.0000 1718.9377 -7690.0235 289.2039 -9408.9612 -7627.3851 300.2273 -435.4534 -435.9233 30814.7485 -261.9801 -207.2392
TCL: Running FEP window   8: Lambda1 0.35   Lambda2 0.39999999999999997 [dLambda 0.04999999999999999]
TCL: Setting parameter firsttimestep to 0
TCL: Setting parameter alchLambda to 0.35
Info: NONBONDED TABLE R-SQUARED SPACING: 0.0625
Info: NONBONDED TABLE SIZE: 705 POINTS
TCL: Setting parameter alchLambda2 to 0.39999999999999997
Info: NONBONDED TABLE R-SQUARED SPACING: 0.0625
Info: NONBONDED TABLE SIZE: 705 POINTS
TCL: Running for 1500000 steps
ETITLE: TS BOND ANGLE DIHED IMPRP ELECT VDW BOUNDARY MISC KINETIC TOTAL TEMP POTENTIAL TOTALAVG TEMPAVG PRESSURE GPRESSURE VOLUME PRESSAVG GPRESSAVG
ENERGY: 0 1.4448 6.7620 5.1971 0.0000 -10833.0595 1411.2554 0.0000 0.0000 1718.0267 -7690.3735 289.0506 -9408.4002 -7690.3735 289.0506 -505.7594 -428.3941 30814.7485 -505.7594 -428.3941
ENERGY: 300000 0.2357 2.2705 5.0674 0.0000 -10873.5484 1457.1901 0.0000 0.0000 1711.6286 -7697.1561 287.9742 -9408.7847 -7682.7594 294.9944 -241.1979 -178.9425 30981.2750 -249.5267 -197.0506
ENERGY: 600000 0.4904 2.5394 4.9635 0.0000 -10792.2457 1426.0603 0.0000 0.0000 1773.8042 -7584.3879 298.4349 -9358.1921 -7641.7683 296.8832 -103.5384 -1.2642 30569.7500 -125.1015 -56.1703
ENERGY: 900000 3.3286 3.0944 4.9153 0.0000 -10853.1948 1438.2665 0.0000 0.0000 1763.2152 -7640.3748 296.6534 -9403.5900 -7637.7390 298.0345 56.8718 74.5060 30213.7353 -62.9365 -1.5818
ENERGY: 1200000 0.2960 4.1445 5.9188 0.0000 -10935.8962 1501.4773 0.0000 0.0000 1755.2675 -7668.7921 295.3162 -9424.0596 -7635.5410 298.8270 300.4190 347.0986 30468.2326 26.2471 82.6416
ENERGY: 1500000 0.1691 6.0321 5.3986 0.0000 -10947.9032 1463.2763 0.0000 0.0000 1858.3128 -7614.7143 312.6531 -9473.0271 -7636.2627 299.2777 38.3845 53.9130 30564.2248 60.3817 115.6472
TCL: Running FEP window   9: Lambda1 0.39999999999999997 Lambda2 0.44999999999999996 [dLambda 0.04999999999999999]
TCL: Setting parameter firsttimestep to 0
TCL: Setting parameter alchLambda to 0.39999999999999997
Info: NONBONDED TABLE R-SQUARED SPACING: 0.0625
Info: NONBONDED TABLE SIZE: 705 POINTS
TCL: Setting parameter alchLambda2 to 0.44999999999999996
Info: NONBONDED TABLE R-SQUARED SPACING: 0.0625
Info: NONBONDED TABLE SIZE: 705 POINTS
TCL: Running for 1500000 steps
ETITLE: TS BOND ANGLE DIHED IMPRP ELECT VDW BOUNDARY MISC KINETIC TOTAL TEMP POTENTIAL TOTALAVG TEMPAVG PRESSURE GPRESSURE VOLUME PRESSAVG GPRESSAVG
ENERGY: 0 0.1691 6.0321 5.3986 0.0000 -10947.9032 1463.8300 0.0000 0.0000 1857.4184 -7615.0550 312.5027 -9472.4735 -7615.0550 312.5027 -7.4315 63.6136 30564.2248 -7.4315 63.6136
ENERGY: 300000 0.4825 6.5363 4.8038 0.0000 -10891.1656 1431.3060 0.0000 0.0000 1815.5747 -7632.4623 305.4626 -9448.0371 -7598.7799 304.7911 -621.9010 -552.0374 31010.6392 -247.6589 -191.3687
ENERGY: 600000 0.0419 5.5473 5.4801 0.0000 -10868.4934 1463.6612 0.0000 0.0000 1806.1675 -7587.5954 303.8799 -9393.7629 -7597.6859 303.0333 72.0472 124.2364 30659.5399 -75.6101 -23.0953
ENERGY: 900000 0.2849 5.1937 5.2264 0.0000 -10770.7985 1476.4539 0.0000 0.0000 1780.3688 -7503.2707 299.5394 -9283.6395 -7587.2985 302.4476 330.3195 442.8965 30947.8292 -20.8177 39.1888
ENERGY: 1200000 0.0556 5.0216 4.9300 0.0000 -10796.0954 1437.6606 0.0000 0.0000 1781.7815 -7566.6461 299.7771 -9348.4275 -7577.9554 301.8028 -34.4458 8.8334 30551.0741 -103.9705 -48.6547
ENERGY: 1500000 0.2715 6.1304 5.3654 0.0000 -10861.3473 1450.5360 0.0000 0.0000 1764.3369 -7634.7071 296.8421 -9399.0440 -7585.0306 301.4410 -378.9640 -277.5565 31260.0516 -175.2525 -110.4110
TCL: Running FEP window  10: Lambda1 0.44999999999999996 Lambda2 0.49999999999999994 [dLambda 0.04999999999999999]
TCL: Setting parameter firsttimestep to 0
TCL: Setting parameter alchLambda to 0.44999999999999996
Info: NONBONDED TABLE R-SQUARED SPACING: 0.0625
Info: NONBONDED TABLE SIZE: 705 POINTS
TCL: Setting parameter alchLambda2 to 0.49999999999999994
Info: NONBONDED TABLE R-SQUARED SPACING: 0.0625
Info: NONBONDED TABLE SIZE: 705 POINTS
TCL: Running for 1500000 steps
ETITLE: TS BOND ANGLE DIHED IMPRP ELECT VDW BOUNDARY MISC KINETIC TOTAL TEMP POTENTIAL TOTALAVG TEMPAVG PRESSURE GPRESSURE VOLUME PRESSAVG GPRESSAVG
ENERGY: 0 0.2715 6.1304 5.3654 0.0000 -10861.3477 1450.0899 0.0000 0.0000 1763.4463 -7636.0443 296.6923 -9399.4906 -7636.0443 296.6923 -364.3719 -277.3687 31260.0516 -364.3719 -277.3687
ENERGY: 300000 0.9608 3.9600 5.0566 0.0000 -10995.6305 1483.6600 0.0000 0.0000 1789.6163 -7712.3769 301.0952 -9501.9932 -7660.2556 299.8283 -368.6959 -292.4495 31101.7500 -338.0812 -257.4349
ENERGY: 600000 0.0274 3.8709 5.2197 0.0000 -10766.2218 1415.5468 0.0000 0.0000 1766.8282 -7574.7290 297.2612 -9341.5571 -7622.9184 300.5145 -286.4480 -250.5274 31113.3645 -337.3025 -263.7331
ENERGY: 900000 0.4070 4.4098 5.4753 0.0000 -10771.0623 1432.5932 0.0000 0.0000 1806.0993 -7522.0777 303.8684 -9328.1769 -7609.3709 301.7739 -221.4757 -265.9952 31064.3474 -281.5525 -224.7058
ENERGY: 1200000 0.4213 2.9256 5.3426 0.0000 -10895.8573 1467.9683 0.0000 0.0000 1782.8781 -7636.3213 299.9616 -9419.1995 -7624.8956 300.7278 152.4368 235.2006 30359.6669 -179.4951 -115.1786
ENERGY: 1500000 1.0448 3.6187 4.9871 0.0000 -10942.6136 1477.1147 0.0000 0.0000 1780.0681 -7675.7802 299.4888 -9455.8483 -7624.0486 300.0056 -44.2314 53.4506 30485.2177 -179.2261 -117.4428
TCL: Running FEP window  11: Lambda1 0.49999999999999994 Lambda2 0.5499999999999999 [dLambda 0.04999999999999999]
TCL: Setting parameter firsttimestep to 0
TCL: Setting parameter alchLambda to 0.49999999999999994
Info: NONBONDED TABLE R-SQUARED SPACING: 0.0625
Info: NONBONDED TABLE SIZE: 705 POINTS
TCL: Setting parameter alchLambda2 to 0.5499999999999999
Info: NONBONDED TABLE R-SQUARED SPACING: 0.0625
Info: NONBONDED TABLE SIZE: 705 POINTS
TCL: Running for 1500000 steps
ETITLE: TS BOND ANGLE DIHED IMPRP ELECT VDW BOUNDARY MISC KINETIC TOTAL TEMP POTENTIAL TOTALAVG TEMPAVG PRESSURE GPRESSURE VOLUME PRESSAVG GPRESSAVG
ENERGY: 0 1.0448 3.6187 4.9871 0.0000 -10942.6137 1477.1414 0.0000 0.0000 1779.1912 -7676.6305 299.3413 -9455.8217 -7676.6305 299.3413 -28.5158 57.5190 30485.2177 -28.5158 57.5190
ENERGY: 300000 0.6706 6.1391 5.7359 0.0000 -10947.1860 1447.9529 0.0000 0.0000 1757.2875 -7729.4000 295.6561 -9486.6875 -7664.0471 297.6349 -342.1217 -242.3558 30480.4920 -171.5347 -88.6648
ENERGY: 600000 1.0061 4.0068 5.8154 0.0000 -10890.6034 1449.1958 0.0000 0.0000 1782.3669 -7648.2125 299.8756 -9430.5794 -7662.3210 298.0351 -209.5372 -144.3285 30678.9528 -212.3743 -133.0760
ENERGY: 900000 0.3638 4.7676 5.0202 0.0000 -10917.4345 1482.6800 0.0000 0.0000 1768.2646 -7656.3383 297.5029 -9424.6029 -7645.7728 298.6770 404.7845 478.5792 30130.2163 -50.2870 22.3739
ENERGY: 1200000 1.0613 6.0148 5.6557 0.0000 -10759.9138 1355.2658 0.0000 0.0000 1813.7392 -7578.1769 305.1538 -9391.9162 -7637.6150 299.9003 -755.2510 -766.4622 30806.8472 -131.3801 -69.5850
ENERGY: 1500000 0.5157 6.0708 5.8670 0.0000 -10852.1764 1415.7674 0.0000 0.0000 1775.4437 -7648.5117 298.7108 -9423.9554 -7636.3530 299.9610 -520.9532 -535.6922 31001.8074 -135.8607 -82.3494
TCL: Running FEP window  12: Lambda1 0.5499999999999999 Lambda2 0.6    [dLambda 0.050000000000000044]
TCL: Setting parameter firsttimestep to 0
TCL: Setting parameter alchLambda to 0.5499999999999999
Info: NONBONDED TABLE R-SQUARED SPACING: 0.0625
Info: NONBONDED TABLE SIZE: 705 POINTS
TCL: Setting parameter alchLambda2 to 0.6
Info: NONBONDED TABLE R-SQUARED SPACING: 0.0625
Info: NONBONDED TABLE SIZE: 705 POINTS
TCL: Running for 1500000 steps
ETITLE: TS BOND ANGLE DIHED IMPRP ELECT VDW BOUNDARY MISC KINETIC TOTAL TEMP POTENTIAL TOTALAVG TEMPAVG PRESSURE GPRESSURE VOLUME PRESSAVG GPRESSAVG
ENERGY: 0 0.5157 6.0708 5.8670 0.0000 -10851.5328 1415.6273 0.0000 0.0000 1774.5414 -7648.9105 298.5590 -9423.4520 -7648.9105 298.5590 -611.2101 -533.5064 31001.8074 -611.2101 -533.5064
ENERGY: 300000 0.6195 7.2669 5.6249 0.0000 -10777.7118 1406.7936 0.0000 0.0000 1742.4866 -7614.9202 293.1659 -9357.4068 -7604.7442 300.0967 -452.5956 -460.8803 31213.1345 -486.5797 -416.7871
ENERGY: 600000 1.0221 2.9122 5.6548 0.0000 -10990.3045 1529.1980 0.0000 0.0000 1739.8303 -7711.6871 292.7190 -9451.5174 -7636.4920 299.2146 434.5575 482.8317 30696.7155 -212.4467 -157.9219
ENERGY: 900000 0.7181 1.7954 5.3450 0.0000 -10781.1144 1423.5488 0.0000 0.0000 1820.7657 -7528.9415 306.3360 -9349.7071 -7612.7943 301.4305 -55.3429 -13.9877 30840.6252 -216.6004 -163.9749
ENERGY: 1200000 1.5157 7.7739 5.0296 0.0000 -10638.6898 1334.1514 0.0000 0.0000 1784.0680 -7506.1512 300.1618 -9290.2192 -7599.0532 301.7515 -1006.7665 -932.6208 31176.0077 -250.3680 -197.5132
ENERGY: 1500000 0.9922 6.6039 5.7141 0.0000 -10790.9483 1436.6038 0.0000 0.0000 1766.6556 -7574.3787 297.2322 -9341.0343 -7599.7178 301.3947 -117.2255 -28.1993 30903.2853 -250.1739 -194.5403
TCL: Running FEP window  13: Lambda1 0.6    Lambda2 0.65   [dLambda 0.050000000000000044]
TCL: Setting parameter firsttimestep to 0
TCL: Setting parameter alchLambda to 0.6
Info: NONBONDED TABLE R-SQUARED SPACING: 0.0625
Info: NONBONDED TABLE SIZE: 705 POINTS
TCL: Setting parameter alchLambda2 to 0.65
Info: NONBONDED TABLE R-SQUARED SPACING: 0.0625
Info: NONBONDED TABLE SIZE: 705 POINTS
TCL: Running for 1500000 steps
ETITLE: TS BOND ANGLE DIHED IMPRP ELECT VDW BOUNDARY MISC KINETIC TOTAL TEMP POTENTIAL TOTALAVG TEMPAVG PRESSURE GPRESSURE VOLUME PRESSAVG GPRESSAVG
ENERGY: 0 0.9922 6.6039 5.7141 0.0000 -10791.0859 1436.4679 0.0000 0.0000 1765.7420 -7575.5658 297.0785 -9341.3079 -7575.5658 297.0785 -115.9401 -21.4651 30903.2853 -115.9401 -21.4651
ENERGY: 300000 0.8145 2.5700 5.0879 0.0000 -10626.5964 1306.0227 0.0000 0.0000 1812.3579 -7499.7433 304.9214 -9312.1013 -7563.0641 299.8659 -1225.8450 -1180.3611 31571.6308 -559.2041 -528.1966
ENERGY: 600000 1.2068 2.2650 5.2650 0.0000 -10858.8750 1439.5175 0.0000 0.0000 1770.7903 -7639.8303 297.9279 -9410.6207 -7587.6506 298.8933 -89.2288 45.4987 30296.1598 -213.4956 -151.7125
ENERGY: 900000 2.8760 2.7188 5.0192 0.0000 -10639.6181 1290.0777 0.0000 0.0000 1791.9740 -7546.9524 301.4919 -9338.9263 -7574.5533 299.6557 -1436.7038 -1351.6223 31208.6793 -301.2037 -229.7931
ENERGY: 1200000 0.6666 4.7551 4.9965 0.0000 -10890.7031 1469.7359 0.0000 0.0000 1811.8757 -7598.6733 304.8403 -9410.5490 -7579.1343 301.8629 1.5565 63.2936 30683.3099 -242.2056 -171.8360
ENERGY: 1500000 0.2885 1.7850 5.0705 0.0000 -10895.1974 1486.5127 0.0000 0.0000 1793.0841 -7608.4565 301.6787 -9401.5406 -7588.0396 301.3819 164.5690 268.8106 30854.2844 -267.8783 -194.6127
TCL: Running FEP window  14: Lambda1 0.65   Lambda2 0.7000000000000001 [dLambda 0.050000000000000044]
TCL: Setting parameter firsttimestep to 0
TCL: Setting parameter alchLambda to 0.65
Info: NONBONDED TABLE R-SQUARED SPACING: 0.0625
Info: NONBONDED TABLE SIZE: 705 POINTS
TCL: Setting parameter alchLambda2 to 0.7000000000000001
Info: NONBONDED TABLE R-SQUARED SPACING: 0.0625
Info: NONBONDED TABLE SIZE: 705 POINTS
TCL: Running for 1500000 steps
ETITLE: TS BOND ANGLE DIHED IMPRP ELECT VDW BOUNDARY MISC KINETIC TOTAL TEMP POTENTIAL TOTALAVG TEMPAVG PRESSURE GPRESSURE VOLUME PRESSAVG GPRESSAVG
ENERGY: 0 0.2885 1.7850 5.0705 0.0000 -10895.4496 1486.4404 0.0000 0.0000 1792.2329 -7609.6323 301.5355 -9401.8652 -7609.6323 301.5355 183.7745 269.5208 30854.2844 183.7745 269.5208
ENERGY: 300000 0.9839 1.5311 5.1457 0.0000 -10992.6005 1538.9921 0.0000 0.0000 1784.1957 -7661.7520 300.1833 -9445.9478 -7603.2706 302.6320 343.4538 419.5620 30907.3743 126.9883 205.9771
ENERGY: 600000 0.4443 2.6579 5.5232 0.0000 -10924.6901 1499.8428 0.0000 0.0000 1802.0949 -7614.1271 303.1947 -9416.2220 -7592.9654 302.4315 333.2452 382.2491 30532.6541 155.2943 212.8292
ENERGY: 900000 0.7704 5.5589 5.4002 0.0000 -11038.0551 1564.9575 0.0000 0.0000 1805.4658 -7655.9023 303.7619 -9461.3680 -7609.1305 303.2164 698.2261 720.9195 30375.9503 111.8541 158.6855
ENERGY: 1200000 0.5713 1.7697 4.7748 0.0000 -10958.4663 1508.3016 0.0000 0.0000 1804.8324 -7638.2165 303.6553 -9443.0489 -7617.3018 302.9562 291.4606 337.2369 30582.4257 122.2499 175.2773
ENERGY: 1500000 0.6807 2.7916 4.7618 0.0000 -10768.3218 1392.2375 0.0000 0.0000 1791.1898 -7576.6603 301.3600 -9367.8501 -7615.4637 302.4294 -656.5443 -553.5462 31257.7595 -18.6797 36.6806
TCL: Running FEP window  15: Lambda1 0.7000000000000001 Lambda2 0.7500000000000001 [dLambda 0.050000000000000044]
TCL: Setting parameter firsttimestep to 0
TCL: Setting parameter alchLambda to 0.7000000000000001
Info: NONBONDED TABLE R-SQUARED SPACING: 0.0625
Info: NONBONDED TABLE SIZE: 705 POINTS
TCL: Setting parameter alchLambda2 to 0.7500000000000001
Info: NONBONDED TABLE R-SQUARED SPACING: 0.0625
Info: NONBONDED TABLE SIZE: 705 POINTS
TCL: Running for 1500000 steps
ETITLE: TS BOND ANGLE DIHED IMPRP ELECT VDW BOUNDARY MISC KINETIC TOTAL TEMP POTENTIAL TOTALAVG TEMPAVG PRESSURE GPRESSURE VOLUME PRESSAVG GPRESSAVG
ENERGY: 0 0.6807 2.7916 4.7618 0.0000 -10768.3659 1392.2422 0.0000 0.0000 1790.2800 -7577.6096 301.2069 -9367.8895 -7577.6096 301.2069 -633.8499 -548.9474 31257.7595 -633.8499 -548.9474
ENERGY: 300000 0.1264 4.2320 5.5728 0.0000 -10913.3149 1501.5984 0.0000 0.0000 1864.1144 -7537.6709 313.6292 -9401.7853 -7613.8579 302.8714 222.2862 297.8370 30895.0883 -208.5447 -138.2844
ENERGY: 600000 2.4079 1.6615 5.6626 0.0000 -10792.4161 1391.2028 0.0000 0.0000 1811.5333 -7579.9479 304.7827 -9391.4812 -7605.7278 302.5052 -325.0247 -201.2309 30644.6292 -130.4272 -61.6884
ENERGY: 900000 2.4003 3.1452 5.1363 0.0000 -10868.3319 1493.0751 0.0000 0.0000 1779.0658 -7585.5092 299.3202 -9364.5750 -7612.9517 301.5070 185.7702 276.6032 31071.0210 -217.6396 -144.3498
ENERGY: 1200000 2.4639 2.6811 5.0231 0.0000 -10881.6516 1452.3302 0.0000 0.0000 1753.0922 -7666.0612 294.9502 -9419.1534 -7630.0624 299.8405 -226.9049 -146.1187 30928.2185 -254.4426 -174.5144
ENERGY: 1500000 2.5187 5.7256 4.9644 0.0000 -10848.9256 1492.0795 0.0000 0.0000 1775.4424 -7568.1950 298.7105 -9343.6373 -7623.1937 300.1341 520.4683 500.9372 30855.8709 -151.4379 -74.7663
TCL: Running FEP window  16: Lambda1 0.7500000000000001 Lambda2 0.8000000000000002 [dLambda 0.050000000000000044]
TCL: Setting parameter firsttimestep to 0
TCL: Setting parameter alchLambda to 0.7500000000000001
Info: NONBONDED TABLE R-SQUARED SPACING: 0.0625
Info: NONBONDED TABLE SIZE: 705 POINTS
TCL: Setting parameter alchLambda2 to 0.8000000000000002
Info: NONBONDED TABLE R-SQUARED SPACING: 0.0625
Info: NONBONDED TABLE SIZE: 705 POINTS
TCL: Running for 1500000 steps
ETITLE: TS BOND ANGLE DIHED IMPRP ELECT VDW BOUNDARY MISC KINETIC TOTAL TEMP POTENTIAL TOTALAVG TEMPAVG PRESSURE GPRESSURE VOLUME PRESSAVG GPRESSAVG
ENERGY: 0 2.5187 5.7256 4.9644 0.0000 -10849.4284 1492.5713 0.0000 0.0000 1774.5403 -7569.1081 298.5588 -9343.6484 -7569.1081 298.5588 446.8140 513.7869 30855.8709 446.8140 513.7869
ENERGY: 300000 0.5225 2.1944 5.0747 0.0000 -10719.2330 1349.2928 0.0000 0.0000 1785.3838 -7576.7649 300.3831 -9362.1486 -7579.6662 302.6145 -862.0265 -757.0559 30885.1626 -232.1635 -156.2526
ENERGY: 600000 0.0070 6.5105 4.6606 0.0000 -10891.4728 1477.9834 0.0000 0.0000 1761.9807 -7640.3306 296.4457 -9402.3113 -7605.8648 300.8239 29.8432 78.6224 30903.3734 90.3522 160.0420
ENERGY: 900000 2.5559 2.5624 5.3594 0.0000 -10824.5973 1404.3113 0.0000 0.0000 1724.7317 -7685.0767 290.1787 -9409.8084 -7621.6091 299.7203 -691.3375 -601.3999 30881.4419 -58.2440 14.7250
ENERGY: 1200000 0.5391 5.4120 5.2786 0.0000 -10778.6701 1394.6899 0.0000 0.0000 1771.8724 -7600.8782 298.1099 -9372.7506 -7617.8503 299.4837 -518.1268 -489.0589 31039.4611 -107.1728 -39.9416
ENERGY: 1500000 0.6679 4.5522 4.8200 0.0000 -10937.4234 1470.8617 0.0000 0.0000 1779.0547 -7677.4669 299.3183 -9456.5217 -7615.9525 299.5938 197.7829 258.6539 30385.8948 -139.5841 -67.7604
TCL: Running FEP window  17: Lambda1 0.8000000000000002 Lambda2 0.8500000000000002 [dLambda 0.050000000000000044]
TCL: Setting parameter firsttimestep to 0
TCL: Setting parameter alchLambda to 0.8000000000000002
Info: NONBONDED TABLE R-SQUARED SPACING: 0.0625
Info: NONBONDED TABLE SIZE: 705 POINTS
TCL: Setting parameter alchLambda2 to 0.8500000000000002
Info: NONBONDED TABLE R-SQUARED SPACING: 0.0625
Info: NONBONDED TABLE SIZE: 705 POINTS
TCL: Running for 1500000 steps
ETITLE: TS BOND ANGLE DIHED IMPRP ELECT VDW BOUNDARY MISC KINETIC TOTAL TEMP POTENTIAL TOTALAVG TEMPAVG PRESSURE GPRESSURE VOLUME PRESSAVG GPRESSAVG
ENERGY: 0 0.6679 4.5522 4.8200 0.0000 -10938.6436 1471.2358 0.0000 0.0000 1778.1823 -7679.1855 299.1715 -9457.3678 -7679.1855 299.1715 181.6259 267.9933 30385.8948 181.6259 267.9933
ENERGY: 300000 0.3463 4.5376 5.4385 0.0000 -10802.8943 1472.7197 0.0000 0.0000 1842.1270 -7477.7251 309.9300 -9319.8521 -7573.6295 303.6499 55.5241 125.6569 31372.4082 102.1565 152.1599
ENERGY: 600000 2.0042 6.8624 5.4938 0.0000 -10891.9745 1512.4795 0.0000 0.0000 1723.1330 -7642.0017 289.9097 -9365.1346 -7612.9101 299.2899 621.8734 688.0209 30408.8983 193.6278 256.4338
ENERGY: 900000 1.9072 2.6820 5.4256 0.0000 -10962.6964 1583.5013 0.0000 0.0000 1768.9426 -7600.2377 297.6170 -9369.1803 -7614.5041 299.7515 698.9912 804.7069 31289.5853 138.1920 199.8472
ENERGY: 1200000 0.1211 3.6189 5.3031 0.0000 -10759.7897 1450.1691 0.0000 0.0000 1828.0530 -7472.5244 307.5621 -9300.5774 -7592.8141 302.2588 4.6405 73.0888 31319.8541 141.8806 205.9420
ENERGY: 1500000 0.1171 3.6389 5.3511 0.0000 -10717.0811 1392.6358 0.0000 0.0000 1751.8333 -7563.5049 294.7384 -9315.3382 -7588.6395 302.0334 -427.8858 -384.2509 31278.8489 114.3296 174.5990
TCL: Running FEP window  18: Lambda1 0.8500000000000002 Lambda2 0.9000000000000002 [dLambda 0.050000000000000044]
TCL: Setting parameter firsttimestep to 0
TCL: Setting parameter alchLambda to 0.8500000000000002
Info: NONBONDED TABLE R-SQUARED SPACING: 0.0625
Info: NONBONDED TABLE SIZE: 705 POINTS
TCL: Setting parameter alchLambda2 to 0.9000000000000002
Info: NONBONDED TABLE R-SQUARED SPACING: 0.0625
Info: NONBONDED TABLE SIZE: 705 POINTS
TCL: Running for 1500000 steps
ETITLE: TS BOND ANGLE DIHED IMPRP ELECT VDW BOUNDARY MISC KINETIC TOTAL TEMP POTENTIAL TOTALAVG TEMPAVG PRESSURE GPRESSURE VOLUME PRESSAVG GPRESSAVG
ENERGY: 0 0.1171 3.6389 5.3511 0.0000 -10718.2042 1392.6976 0.0000 0.0000 1750.9352 -7565.4644 294.5873 -9316.3996 -7565.4644 294.5873 -452.5230 -379.4222 31278.8489 -452.5230 -379.4222
ENERGY: 300000 1.0932 4.6650 5.6989 0.0000 -11119.8499 1603.0844 0.0000 0.0000 1839.5195 -7665.7889 309.4913 -9505.3085 -7639.8251 296.7630 1062.1172 1070.0594 30444.5778 13.9640 44.8912
ENERGY: 600000 0.9231 7.4025 5.4096 0.0000 -10890.5501 1447.4381 0.0000 0.0000 1786.4792 -7642.8977 300.5674 -9429.3769 -7624.4438 297.9410 39.7804 58.4329 30429.8637 137.4731 171.7460
ENERGY: 900000 2.7709 3.6728 5.2280 0.0000 -10887.6243 1436.1964 0.0000 0.0000 1770.9268 -7668.8294 297.9508 -9439.7562 -7629.2378 297.8154 -219.7980 -240.2372 30590.2944 65.4943 91.0675
ENERGY: 1200000 1.0650 1.6051 5.6108 0.0000 -10697.9112 1314.6787 0.0000 0.0000 1803.9538 -7570.9978 303.5075 -9374.9517 -7618.7838 299.3474 -1106.1697 -1022.4180 31016.5104 -20.2587 13.0225
ENERGY: 1500000 0.3521 3.0265 4.9836 0.0000 -10930.7848 1522.0336 0.0000 0.0000 1773.4815 -7626.9075 298.3806 -9400.3890 -7614.6782 299.4406 549.6652 563.7579 30757.0714 -72.1129 -36.7515
TCL: Running FEP window  19: Lambda1 0.9000000000000002 Lambda2 0.9500000000000003 [dLambda 0.050000000000000044]
TCL: Setting parameter firsttimestep to 0
TCL: Setting parameter alchLambda to 0.9000000000000002
Info: NONBONDED TABLE R-SQUARED SPACING: 0.0625
Info: NONBONDED TABLE SIZE: 705 POINTS
TCL: Setting parameter alchLambda2 to 0.9500000000000003
Info: NONBONDED TABLE R-SQUARED SPACING: 0.0625
Info: NONBONDED TABLE SIZE: 705 POINTS
TCL: Running for 1500000 steps
ETITLE: TS BOND ANGLE DIHED IMPRP ELECT VDW BOUNDARY MISC KINETIC TOTAL TEMP POTENTIAL TOTALAVG TEMPAVG PRESSURE GPRESSURE VOLUME PRESSAVG GPRESSAVG
ENERGY: 0 0.3521 3.0265 4.9836 0.0000 -10931.9570 1522.5082 0.0000 0.0000 1772.5718 -7628.5149 298.2276 -9401.0866 -7628.5149 298.2276 486.2081 576.6008 30757.0714 486.2081 576.6008
ENERGY: 300000 1.4699 3.8064 5.4023 0.0000 -10930.6630 1499.3633 0.0000 0.0000 1764.2056 -7656.4156 296.8200 -9420.6212 -7605.2502 301.5058 540.8048 542.5996 30552.1587 224.8452 285.7337
ENERGY: 600000 0.3551 2.4025 5.2274 0.0000 -10932.8824 1539.1575 0.0000 0.0000 1778.6397 -7607.1002 299.2485 -9385.7399 -7588.2704 302.6046 575.2478 670.9996 30806.7086 215.2800 291.3209
ENERGY: 900000 0.3918 3.4107 5.3301 0.0000 -11126.8005 1603.6162 0.0000 0.0000 1763.8087 -7750.2431 296.7532 -9514.0518 -7621.4170 300.6900 747.0420 826.5673 30641.1808 312.0325 386.7876
ENERGY: 1200000 1.8989 2.6433 5.6696 0.0000 -10876.3683 1477.5493 0.0000 0.0000 1793.3746 -7595.2325 301.7276 -9388.6071 -7621.6002 300.0007 11.2760 45.7366 30988.3992 143.8569 209.9474
ENERGY: 1500000 0.5486 1.5634 4.7121 0.0000 -10921.6761 1416.8826 0.0000 0.0000 1762.4745 -7735.4950 296.5288 -9497.9694 -7628.9804 299.4742 -650.8952 -627.6555 30772.5204 65.1635 131.6330
TCL: Running FEP window  20: Lambda1 0.9500000000000003 Lambda2 1.0    [dLambda 0.04999999999999971]
TCL: Setting parameter firsttimestep to 0
TCL: Setting parameter alchLambda to 0.9500000000000003
Info: NONBONDED TABLE R-SQUARED SPACING: 0.0625
Info: NONBONDED TABLE SIZE: 705 POINTS
TCL: Setting parameter alchLambda2 to 1.0
Info: NONBONDED TABLE R-SQUARED SPACING: 0.0625
Info: NONBONDED TABLE SIZE: 705 POINTS
TCL: Running for 1500000 steps
ETITLE: TS BOND ANGLE DIHED IMPRP ELECT VDW BOUNDARY MISC KINETIC TOTAL TEMP POTENTIAL TOTALAVG TEMPAVG PRESSURE GPRESSURE VOLUME PRESSAVG GPRESSAVG
ENERGY: 0 0.5486 1.5634 4.7121 0.0000 -10922.6264 1417.4881 0.0000 0.0000 1761.5748 -7736.7395 296.3774 -9498.3142 -7736.7395 296.3774 -697.7102 -615.3939 30772.5204 -697.7102 -615.3939
ENERGY: 300000 0.9088 2.2335 5.3658 0.0000 -10875.0150 1463.6721 0.0000 0.0000 1805.2195 -7597.6152 303.7204 -9402.8348 -7648.3448 301.6061 466.7950 519.6393 30054.6166 -163.3504 -76.0685
ENERGY: 600000 0.9554 2.7893 5.2089 0.0000 -10842.2582 1413.5154 0.0000 0.0000 1742.8011 -7676.9882 293.2188 -9419.7892 -7642.9676 300.8344 -304.6538 -248.9906 30658.6663 -284.0154 -216.5257
ENERGY: 900000 0.3764 3.8096 5.3842 0.0000 -10907.7185 1484.2932 0.0000 0.0000 1797.1779 -7616.6773 302.3675 -9413.8552 -7621.9802 301.7516 131.0641 196.4738 30806.4656 -232.9794 -173.7473
ENERGY: 1200000 0.9573 2.9750 4.9929 0.0000 -10863.2854 1482.7862 0.0000 0.0000 1811.4043 -7560.1697 304.7610 -9371.5740 -7614.8587 301.4135 271.9039 316.0781 30786.1180 -206.2325 -147.8080
ENERGY: 1500000 0.4745 3.9827 4.8059 0.0000 -10821.2939 1417.2691 0.0000 0.0000 1773.0678 -7621.6938 298.3110 -9394.7617 -7618.6623 300.9211 -433.2848 -367.1938 31071.2185 -187.5643 -127.7117
TCL: Exiting due to exit command.
