Info: SIMULATION PARAMETERS:
Info: TIMESTEP               2
Info: NUMBER OF STEPS        0
Info: STEPS PER CYCLE        10
Info: PERIODIC CELL BASIS 1  30.9875 0 0
Info: PERIODIC CELL BASIS 2  0 30.3445 0
Info: PERIODIC CELL BASIS 3  0 0 32.0619
Info: PERIODIC CELL CENTER   0 0 0
Info: WRAPPING WATERS AROUND PERIODIC BOUNDARIES ON OUTPUT.
Info: WRAPPING ALL CLUSTERS AROUND PERIODIC BOUNDARIES ON OUTPUT.
Info: FIRST LDB TIMESTEP     50
Info: LAST LDB TIMESTEP     -1
Info: HOM BACKGROUND SCALING 1
Info: PME BACKGROUND SCALING 1
Info: MIN ATOMS PER PATCH    40
Info: EMPTY PATCH LOAD       40 ATOMS
Info: VELOCITY FILE          mobley_4287564_equil.vel
Info: CENTER OF MASS MOVING INITIALLY? NO
Info: DIELECTRIC             1
Info: EXCLUDE                SCALED ONE-FOUR
Info: 1-4 ELECTROSTATICS SCALED BY 0.833333
Info: MODIFIED 1-4 VDW PARAMETERS WILL BE USED
Info: DCD FILENAME           mobley_4287564_prod.dcd
Info: DCD FREQUENCY          100000
Info: DCD FIRST STEP         100000
Info: DCD FILE WILL CONTAIN UNIT CELL DATA
Info: XST FILENAME           mobley_4287564_prod.xst
Info: XST FREQUENCY          100000
Info: NO VELOCITY DCD OUTPUT
Info: NO FORCE DCD OUTPUT
Info: OUTPUT FILENAME        mobley_4287564_prod
Info: BINARY OUTPUT FILES WILL BE USED
Info: RESTART FILENAME       mobley_4287564_prod.restart
Info: RESTART FREQUENCY      100000
Info: BINARY RESTART FILES WILL BE USED
Info: CUTOFF                 9
Info: PAIRLIST DISTANCE      11
Info: PAIRLIST SHRINK RATE   0.01
Info: PAIRLIST GROW RATE     0.01
Info: PAIRLIST TRIGGER       0.3
Info: PAIRLISTS PER CYCLE    2
Info: PAIRLISTS ENABLED
Info: MARGIN                 2
Info: HYDROGEN GROUP CUTOFF  2.5
Info: PATCH DIMENSION        15.5
Info: ENERGY OUTPUT STEPS    100000
Info: ENERGY EVALUATION STEPS    100000
Info: OUTPUT ENERGY PRECISION 4
Info: CROSSTERM ENERGY INCLUDED IN DIHEDRAL
Info: TIMING OUTPUT STEPS    1000000
Info: PRESSURE OUTPUT STEPS  100000
Info: ALCHEMICAL FEP ON
Info: FEP CURRENT LAMBDA VALUE     1
Info: FEP COMPARISON LAMBDA VALUE  0.95
Info: FEP INTRA-ALCHEMICAL NON-BONDED INTERACTIONS WILL BE RETAINED
Info: FEP INTRA-ALCHEMICAL BONDED INTERACTIONS WILL BE RETAINED
Info: FEP VDW SHIFTING COEFFICIENT 5
Info: FEP ELEC. ACTIVE FOR ANNIHILATED PARTICLES BETWEEN LAMBDA = 0 AND LAMBDA = 0.5
Info: FEP ELEC. ACTIVE FOR EXNIHILATED PARTICLES BETWEEN LAMBDA = 0.5 AND LAMBDA = 1
Info: FEP VDW ACTIVE FOR ANNIHILATED PARTICLES BETWEEN LAMBDA = 0 AND LAMBDA = 1
Info: FEP VDW ACTIVE FOR EXNIHILATED PARTICLES BETWEEN LAMBDA = 0 AND LAMBDA = 1
Info: FEP BOND ACTIVE FOR ANNIHILATED PARTICLES BETWEEN LAMBDA = 1 AND LAMBDA = 1
Info: FEP BOND ACTIVE FOR EXNIHILATED PARTICLES BETWEEN LAMBDA = 0 AND LAMBDA = 0
Info: LANGEVIN DYNAMICS ACTIVE
Info: LANGEVIN TEMPERATURE   300
Info: LANGEVIN USING BBK INTEGRATOR
Info: LANGEVIN DAMPING COEFFICIENT IS 1 INVERSE PS
Info: LANGEVIN DYNAMICS APPLIED TO HYDROGENS
Info: LANGEVIN PISTON PRESSURE CONTROL ACTIVE
Info:        TARGET PRESSURE IS 1.01325 BAR
Info:     OSCILLATION PERIOD IS 50 FS
Info:             DECAY TIME IS 25 FS
Info:     PISTON TEMPERATURE IS 300 K
Info:       PRESSURE CONTROL IS GROUP-BASED
Info:    INITIAL STRAIN RATE IS 6.62391e-06 6.62391e-06 6.62391e-06
Info:       CELL FLUCTUATION IS ISOTROPIC
Info: PARTICLE MESH EWALD (PME) ACTIVE
Info: PME TOLERANCE               1e-06
Info: PME EWALD COEFFICIENT       0.348832
Info: PME INTERPOLATION ORDER     4
Info: PME GRID DIMENSIONS         32 32 36
Info: PME MAXIMUM GRID SPACING    1
Info: PME CALCULATION WILL BE PERFORMED ON GPU
Info: FULL ELECTROSTATIC EVALUATION FREQUENCY      2
Info: USING VERLET I (r-RESPA) MTS SCHEME.
Info: C1 SPLITTING OF LONG RANGE ELECTROSTATICS
Info: PLACING ATOMS IN PATCHES BY HYDROGEN GROUPS
Info: RIGID BONDS TO HYDROGEN : ALL
Info:         ERROR TOLERANCE : 1e-08
Info:          MAX ITERATIONS : 100
Info: RIGID WATER USING SETTLE ALGORITHM
Info: RANDOM NUMBER SEED     1743577025
Info: USE HYDROGEN BONDS?    NO
Info: Using AMBER format force field!
Info: AMBER PARM FILE        mobley_4287564.prmtop
Info: COORDINATE PDB         mobley_4287564.pdb
Info: Exclusions will be read from PARM file!
Info: SCNB (VDW SCALING)     2
Info: USING ARITHMETIC MEAN TO COMBINE L-J SIGMA PARAMETERS
Info: BINARY COORDINATES     mobley_4287564_equil.coor
Info: SUMMARY OF PARAMETERS:
Info: 8 BONDS
Info: 10 ANGLES
Info:   10 HARMONIC
Info:   0 COSINE-BASED
Info: 4 DIHEDRAL
Info: 0 IMPROPER
Info: 0 CROSSTERM
Info: 0 VDW
Info: 36 VDW_PAIRS
Info: 0 NBTHOLE_PAIRS
Info: To read alchdata from file: mobley_4287564.pdb
Info: To read alchflag data from column: 5
Info: STRUCTURE SUMMARY:
Info: 2972 ATOMS
Info: 2972 BONDS
Info: 22 ANGLES
Info: 31 DIHEDRALS
Info: 0 IMPROPERS
Info: 0 CROSSTERMS
Info: 3017 EXCLUSIONS
Info: 2965 RIGID BONDS
Info: ALCH: 0 ATOMS TO DISAPPEAR IN FINAL STATE
Info: ALCH: 14 ATOMS TO APPEAR IN FINAL STATE
Info: 5951 DEGREES OF FREEDOM
Info: 993 HYDROGEN GROUPS
Info: 4 ATOMS IN LARGEST HYDROGEN GROUP
Info: 993 MIGRATION GROUPS
Info: 4 ATOMS IN LARGEST MIGRATION GROUP
Info: TOTAL MASS = 17856.9 amu
Info: TOTAL CHARGE = 0.000100024 e
Info: MASS DENSITY = 0.983581 g/cm^3
Info: ATOM DENSITY = 0.0985811 atoms/A^3
Info: ADDED 0 IMPLICIT EXCLUSIONS
Info: NONBONDED TABLE R-SQUARED SPACING: 0.0625
Info: NONBONDED TABLE SIZE: 705 POINTS
Info: REMOVING COM VELOCITY 0.12158 0.0356091 0.0365329
Info: Use 3D box decompostion in PME FFT.
Info: Updated CUDA force table with 4096 elements.
Info: Updated CUDA LJ table with 8 x 8 elements.
Info: Found 13 unique exclusion lists needing 24 bytes
TCL: Running for 1500000 steps
ETITLE: TS BOND ANGLE DIHED IMPRP ELECT VDW BOUNDARY MISC KINETIC TOTAL TEMP POTENTIAL TOTALAVG TEMPAVG PRESSURE GPRESSURE VOLUME PRESSAVG GPRESSAVG
ENERGY: 0 0.7562 3.1449 2.6089 0.0000 -10919.0539 1517.1989 0.0000 0.0000 1781.6113 -7613.7337 301.3099 -9395.3450 -7613.7337 301.3099 612.7376 693.0822 30147.7678 612.7376 693.0822
ENERGY: 300000 0.9041 4.6488 3.1575 0.0000 -10832.7437 1418.4238 0.0000 0.0000 1815.8002 -7589.8094 307.0920 -9405.6096 -7559.9604 303.7990 -384.7978 -356.0907 30667.1603 -371.9770 -305.1644
ENERGY: 600000 0.7980 4.4211 2.4732 0.0000 -10845.4528 1467.1339 0.0000 0.0000 1758.6292 -7611.9974 297.4231 -9370.6266 -7573.5509 301.6216 191.0871 271.8882 30386.6661 -61.5711 11.3734
ENERGY: 900000 1.6844 4.6454 0.5187 0.0000 -10819.2979 1426.3354 0.0000 0.0000 1758.0388 -7628.0751 297.3233 -9386.1139 -7590.4181 300.2876 -309.6521 -229.2232 30686.8677 -182.3583 -100.7277
ENERGY: 1200000 3.2205 6.8398 5.3234 0.0000 -10821.9605 1425.7050 0.0000 0.0000 1821.8504 -7559.0214 308.1152 -9380.8718 -7587.4337 300.2219 -349.3723 -258.1330 30210.8085 -187.5407 -109.6272
ENERGY: 1500000 2.3366 7.6405 2.6309 0.0000 -10800.3020 1445.8674 0.0000 0.0000 1762.7651 -7579.0615 298.1226 -9341.8266 -7583.1859 299.8548 27.1884 30.3281 30465.6960 -153.2617 -84.2028
TCL: Running FEP window   2: Lambda1 0.95   Lambda2 0.8999999999999999 [dLambda -0.050000000000000044]
TCL: Setting parameter firsttimestep to 0
TCL: Setting parameter alchLambda to 0.95
Info: NONBONDED TABLE R-SQUARED SPACING: 0.0625
Info: NONBONDED TABLE SIZE: 705 POINTS
TCL: Setting parameter alchLambda2 to 0.8999999999999999
Info: NONBONDED TABLE R-SQUARED SPACING: 0.0625
Info: NONBONDED TABLE SIZE: 705 POINTS
TCL: Running for 1500000 steps
ETITLE: TS BOND ANGLE DIHED IMPRP ELECT VDW BOUNDARY MISC KINETIC TOTAL TEMP POTENTIAL TOTALAVG TEMPAVG PRESSURE GPRESSURE VOLUME PRESSAVG GPRESSAVG
ENERGY: 0 2.3366 7.6405 2.6309 0.0000 -10799.0952 1444.7623 0.0000 0.0000 1761.8794 -7579.8455 297.9728 -9341.7248 -7579.8455 297.9728 -57.4478 13.3641 30465.6960 -57.4478 13.3641
ENERGY: 300000 1.6401 3.4053 4.5094 0.0000 -10784.1810 1459.2265 0.0000 0.0000 1801.9626 -7513.4370 304.7518 -9315.3997 -7552.2030 299.3055 107.6727 140.4494 30919.1163 -126.8678 -50.7453
ENERGY: 600000 5.7655 5.5920 1.3236 0.0000 -10790.3524 1466.6597 0.0000 0.0000 1780.8903 -7530.1213 301.1880 -9311.0117 -7562.4623 297.6674 174.4063 292.0734 30229.4868 58.2661 139.5426
ENERGY: 900000 2.0627 3.1608 5.3312 0.0000 -10887.9398 1487.4219 0.0000 0.0000 1746.6327 -7643.3305 295.3942 -9389.9632 -7569.0369 297.6237 406.7793 432.8658 30519.8211 17.1045 93.8499
ENERGY: 1200000 3.3269 8.5212 2.1254 0.0000 -10739.1518 1390.6138 0.0000 0.0000 1849.9773 -7484.5873 312.8721 -9334.5646 -7564.7312 299.7334 -296.4715 -242.4824 30521.7294 -25.9387 42.3142
ENERGY: 1500000 1.8709 2.2195 3.3369 0.0000 -10830.5516 1492.3323 0.0000 0.0000 1792.8731 -7537.9189 303.2145 -9330.7920 -7560.2942 300.3000 245.3495 309.8879 30895.9909 -39.6541 29.1000
TCL: Running FEP window   3: Lambda1 0.8999999999999999 Lambda2 0.8499999999999999 [dLambda -0.050000000000000044]
TCL: Setting parameter firsttimestep to 0
TCL: Setting parameter alchLambda to 0.8999999999999999
Info: NONBONDED TABLE R-SQUARED SPACING: 0.0625
Info: NONBONDED TABLE SIZE: 705 POINTS
TCL: Setting parameter alchLambda2 to 0.8499999999999999
Info: NONBONDED TABLE R-SQUARED SPACING: 0.0625
Info: NONBONDED TABLE SIZE: 705 POINTS
TCL: Running for 1500000 steps
ETITLE: TS BOND ANGLE DIHED IMPRP ELECT VDW BOUNDARY MISC KINETIC TOTAL TEMP POTENTIAL TOTALAVG TEMPAVG PRESSURE GPRESSURE VOLUME PRESSAVG GPRESSAVG
ENERGY: 0 1.8709 2.2195 3.3369 0.0000 -10829.0761 1491.9828 0.0000 0.0000 1792.0122 -7537.6538 303.0689 -9329.6660 -7537.6538 303.0689 225.0375 298.3833 30895.9909 225.0375 298.3833
ENERGY: 300000 3.9968 4.5075 2.3998 0.0000 -10795.1712 1472.1317 0.0000 0.0000 1751.3793 -7560.7562 296.1970 -9312.1355 -7543.0133 299.0433 379.6741 451.7084 30341.1074 60.6585 108.1449
ENERGY: 600000 2.0161 1.8175 1.3967 0.0000 -10740.6388 1398.1067 0.0000 0.0000 1722.7159 -7614.5859 291.3494 -9337.3019 -7550.9868 298.8452 -429.5804 -410.2974 30726.0878 -96.2620 -50.2520
ENERGY: 900000 2.4086 5.0437 1.8190 0.0000 -10708.0250 1328.5283 0.0000 0.0000 1769.5244 -7600.7009 299.2657 -9370.2253 -7564.3332 298.7211 -1017.5038 -929.3985 30534.3459 -99.8187 -49.2779
ENERGY: 1200000 2.4770 6.6666 5.1677 0.0000 -10841.5483 1456.5856 0.0000 0.0000 1778.2429 -7592.4084 300.7402 -9370.6513 -7569.7016 299.2101 239.5919 221.5668 29981.0622 -86.1708 -36.8358
ENERGY: 1500000 1.1433 6.5936 2.7456 0.0000 -10810.4815 1482.8472 0.0000 0.0000 1788.8845 -7528.2674 302.5400 -9317.1519 -7567.2344 299.0083 622.0614 705.3083 29991.7023 -13.4094 46.8806
TCL: Running FEP window   4: Lambda1 0.8499999999999999 Lambda2 0.7999999999999998 [dLambda -0.050000000000000044]
TCL: Setting parameter firsttimestep to 0
TCL: Setting parameter alchLambda to 0.8499999999999999
Info: NONBONDED TABLE R-SQUARED SPACING: 0.0625
Info: NONBONDED TABLE SIZE: 705 POINTS
TCL: Setting parameter alchLambda2 to 0.7999999999999998
Info: NONBONDED TABLE R-SQUARED SPACING: 0.0625
Info: NONBONDED TABLE SIZE: 705 POINTS
TCL: Running for 1500000 steps
ETITLE: TS BOND ANGLE DIHED IMPRP ELECT VDW BOUNDARY MISC KINETIC TOTAL TEMP POTENTIAL TOTALAVG TEMPAVG PRESSURE GPRESSURE VOLUME PRESSAVG GPRESSAVG
ENERGY: 0 1.1433 6.5936 2.7456 0.0000 -10809.4994 1482.5664 0.0000 0.0000 1787.9860 -7528.4646 302.3880 -9316.4506 -7528.4646 302.3880 615.0193 694.3074 29991.7023 615.0193 694.3074
ENERGY: 300000 1.1581 2.2165 1.5388 0.0000 -10890.9576 1457.3139 0.0000 0.0000 1761.9624 -7666.7679 297.9868 -9428.7303 -7581.6198 300.0319 -138.9532 -98.6640 30314.4898 259.7262 315.4260
ENERGY: 600000 2.0743 3.5434 1.4879 0.0000 -10774.3087 1446.1820 0.0000 0.0000 1761.1476 -7559.8735 297.8490 -9321.0211 -7576.2647 297.9467 -91.5531 -38.7603 30507.7257 107.8924 147.8767
ENERGY: 900000 0.6409 5.8038 2.4557 0.0000 -10790.3460 1438.3577 0.0000 0.0000 1808.7057 -7534.3821 305.8922 -9343.0878 -7578.4996 300.4815 -136.2070 -85.7657 30852.5602 118.9624 161.5383
ENERGY: 1200000 0.4077 6.4601 0.8092 0.0000 -10857.6406 1457.5185 0.0000 0.0000 1755.9072 -7636.5379 296.9628 -9392.4451 -7575.4494 299.4008 -84.7410 -34.6604 30677.6562 199.3846 239.7661
ENERGY: 1500000 1.6424 4.7280 0.8175 0.0000 -10773.2323 1416.4895 0.0000 0.0000 1780.0072 -7569.5478 301.0386 -9349.5550 -7577.6090 300.3667 -417.7194 -367.9110 30660.5242 42.8032 93.9037
TCL: Running FEP window   5: Lambda1 0.7999999999999998 Lambda2 0.7499999999999998 [dLambda -0.050000000000000044]
TCL: Setting parameter firsttimestep to 0
TCL: Setting parameter alchLambda to 0.7999999999999998
Info: NONBONDED TABLE R-SQUARED SPACING: 0.0625
Info: NONBONDED TABLE SIZE: 705 POINTS
TCL: Setting parameter alchLambda2 to 0.7499999999999998
Info: NONBONDED TABLE R-SQUARED SPACING: 0.0625
Info: NONBONDED TABLE SIZE: 705 POINTS
TCL: Running for 1500000 steps
ETITLE: TS BOND ANGLE DIHED IMPRP ELECT VDW BOUNDARY MISC KINETIC TOTAL TEMP POTENTIAL TOTALAVG TEMPAVG PRESSURE GPRESSURE VOLUME PRESSAVG GPRESSAVG
ENERGY: 0 1.6424 4.7280 0.8175 0.0000 -10772.1705 1416.8564 0.0000 0.0000 1779.1487 -7568.9776 300.8934 -9348.1263 -7568.9776 300.8934 -454.1906 -370.4439 30660.5242 -454.1906 -370.4439
ENERGY: 300000 0.7958 2.5240 1.6551 0.0000 -10834.3241 1419.0698 0.0000 0.0000 1796.8384 -7613.4410 303.8851 -9410.2794 -7603.3789 301.9592 -197.8720 -173.8878 30319.0833 -603.6185 -540.8001
ENERGY: 600000 0.6817 2.5536 1.7532 0.0000 -10771.3221 1385.9877 0.0000 0.0000 1783.8119 -7596.5339 301.6821 -9380.3458 -7590.7044 300.3134 -452.0373 -391.8348 30417.3572 -340.3785 -264.5755
ENERGY: 900000 1.3701 3.3612 3.4845 0.0000 -10793.3285 1417.3159 0.0000 0.0000 1746.0878 -7621.7091 295.3021 -9367.7969 -7586.8012 300.1040 -394.6090 -320.7030 30508.5110 -306.8050 -229.5984
ENERGY: 1200000 1.8995 3.7433 2.9271 0.0000 -10856.8658 1432.3747 0.0000 0.0000 1736.8781 -7679.0432 293.7445 -9415.9212 -7592.6421 300.0301 -140.9513 -239.3700 30405.5016 -193.2684 -132.4689
ENERGY: 1500000 2.0984 3.9880 0.7618 0.0000 -10760.1024 1420.9122 0.0000 0.0000 1820.8762 -7511.4658 307.9505 -9332.3420 -7574.1205 300.9260 -92.0900 -54.9062 30580.5226 -150.1338 -89.0576
TCL: Running FEP window   6: Lambda1 0.7499999999999998 Lambda2 0.6999999999999997 [dLambda -0.050000000000000044]
TCL: Setting parameter firsttimestep to 0
TCL: Setting parameter alchLambda to 0.7499999999999998
Info: NONBONDED TABLE R-SQUARED SPACING: 0.0625
Info: NONBONDED TABLE SIZE: 705 POINTS
TCL: Setting parameter alchLambda2 to 0.6999999999999997
Info: NONBONDED TABLE R-SQUARED SPACING: 0.0625
Info: NONBONDED TABLE SIZE: 705 POINTS
TCL: Running for 1500000 steps
ETITLE: TS BOND ANGLE DIHED IMPRP ELECT VDW BOUNDARY MISC KINETIC TOTAL TEMP POTENTIAL TOTALAVG TEMPAVG PRESSURE GPRESSURE VOLUME PRESSAVG GPRESSAVG
ENERGY: 0 2.0984 3.9880 0.7618 0.0000 -10758.6022 1420.7523 0.0000 0.0000 1820.0114 -7510.9904 307.8042 -9331.0017 -7510.9904 307.8042 -145.1684 -59.2725 30580.5226 -145.1684 -59.2725
ENERGY: 300000 4.4494 3.8420 1.7835 0.0000 -10769.9032 1405.4175 0.0000 0.0000 1728.0498 -7626.3610 292.2515 -9354.4108 -7541.6535 301.5610 -434.7379 -436.2349 30784.7597 -157.8531 -124.6379
ENERGY: 600000 1.9460 4.2810 0.8971 0.0000 -10783.9270 1438.0949 0.0000 0.0000 1753.4431 -7585.2649 296.5460 -9338.7079 -7592.9045 298.5244 -217.8435 -131.0679 30576.8032 -231.0221 -175.7931
ENERGY: 900000 1.7536 2.3405 1.2094 0.0000 -10916.1458 1507.6595 0.0000 0.0000 1782.2173 -7620.9655 301.4124 -9403.1828 -7577.1903 299.3537 209.1018 279.1746 30648.2740 -68.9058 -14.9490
ENERGY: 1200000 2.4352 5.2101 2.3818 0.0000 -10838.5475 1418.4999 0.0000 0.0000 1752.4917 -7657.5288 296.3851 -9410.0204 -7576.7249 299.9880 -856.7427 -800.1512 31242.2297 -165.4408 -114.9471
ENERGY: 1500000 3.2235 3.7886 1.3426 0.0000 -10862.9390 1500.5583 0.0000 0.0000 1752.9986 -7601.0273 296.4709 -9354.0259 -7580.8009 299.8137 424.9393 533.8619 30157.7851 -118.7044 -62.4741
TCL: Running FEP window   7: Lambda1 0.6999999999999997 Lambda2 0.6499999999999997 [dLambda -0.050000000000000044]
TCL: Setting parameter firsttimestep to 0
TCL: Setting parameter alchLambda to 0.6999999999999997
Info: NONBONDED TABLE R-SQUARED SPACING: 0.0625
Info: NONBONDED TABLE SIZE: 705 POINTS
TCL: Setting parameter alchLambda2 to 0.6499999999999997
Info: NONBONDED TABLE R-SQUARED SPACING: 0.0625
Info: NONBONDED TABLE SIZE: 705 POINTS
TCL: Running for 1500000 steps
ETITLE: TS BOND ANGLE DIHED IMPRP ELECT VDW BOUNDARY MISC KINETIC TOTAL TEMP POTENTIAL TOTALAVG TEMPAVG PRESSURE GPRESSURE VOLUME PRESSAVG GPRESSAVG
ENERGY: 0 3.2235 3.7886 1.3426 0.0000 -10862.5993 1500.1329 0.0000 0.0000 1752.0958 -7602.0158 296.3182 -9354.1116 -7602.0158 296.3182 426.2824 523.2055 30157.7851 426.2824 523.2055
ENERGY: 300000 1.6630 4.1589 1.0037 0.0000 -10809.9801 1463.9249 0.0000 0.0000 1757.7015 -7581.5282 297.2662 -9339.2297 -7584.2263 298.2354 -80.8074 3.0204 30775.2030 353.0507 433.4358
ENERGY: 600000 2.6023 2.1355 4.1429 0.0000 -10850.7327 1478.6216 0.0000 0.0000 1777.0121 -7586.2183 300.5321 -9363.2304 -7576.1671 298.9528 -111.7266 -92.3440 30807.6691 186.8095 269.7557
ENERGY: 900000 1.5777 3.1145 4.3806 0.0000 -10909.2203 1495.2427 0.0000 0.0000 1727.6650 -7677.2397 292.1864 -9404.9047 -7577.0969 298.9068 242.3984 317.5077 30492.2174 104.6966 178.7515
ENERGY: 1200000 3.3458 4.9176 2.4520 0.0000 -10806.5695 1457.6049 0.0000 0.0000 1742.6686 -7595.5804 294.7238 -9338.2491 -7572.5499 299.1893 87.6932 179.0444 30258.2639 73.7915 148.2483
ENERGY: 1500000 2.1738 2.6785 0.6303 0.0000 -10785.5777 1466.7732 0.0000 0.0000 1775.3706 -7537.9513 300.2545 -9313.3219 -7573.6657 299.4132 412.3624 448.9594 30323.9624 75.7146 152.6398
TCL: Running FEP window   8: Lambda1 0.6499999999999997 Lambda2 0.5999999999999996 [dLambda -0.050000000000000044]
TCL: Setting parameter firsttimestep to 0
TCL: Setting parameter alchLambda to 0.6499999999999997
Info: NONBONDED TABLE R-SQUARED SPACING: 0.0625
Info: NONBONDED TABLE SIZE: 705 POINTS
TCL: Setting parameter alchLambda2 to 0.5999999999999996
Info: NONBONDED TABLE R-SQUARED SPACING: 0.0625
Info: NONBONDED TABLE SIZE: 705 POINTS
TCL: Running for 1500000 steps
ETITLE: TS BOND ANGLE DIHED IMPRP ELECT VDW BOUNDARY MISC KINETIC TOTAL TEMP POTENTIAL TOTALAVG TEMPAVG PRESSURE GPRESSURE VOLUME PRESSAVG GPRESSAVG
ENERGY: 0 2.1738 2.6785 0.6303 0.0000 -10784.1711 1466.0396 0.0000 0.0000 1774.5036 -7538.1453 300.1078 -9312.6489 -7538.1453 300.1078 369.0320 435.4470 30323.9624 369.0320 435.4470
ENERGY: 300000 7.9028 3.2655 4.0883 0.0000 -10787.3042 1465.0699 0.0000 0.0000 1800.9643 -7506.0134 304.5829 -9306.9777 -7523.0011 304.7066 119.5908 130.3153 30396.2500 -2.2349 72.7135
ENERGY: 600000 1.6384 4.8258 2.1897 0.0000 -10827.1937 1490.5225 0.0000 0.0000 1720.9663 -7607.0510 291.0535 -9328.0173 -7570.9263 300.4718 38.6018 131.0228 30881.6895 43.3188 114.8988
ENERGY: 900000 4.7047 3.5577 0.4936 0.0000 -10783.4184 1449.7295 0.0000 0.0000 1727.8457 -7597.0872 292.2169 -9324.9329 -7568.0816 300.3416 -10.9887 95.7052 30507.5186 25.8572 93.3636
ENERGY: 1200000 1.6156 3.8008 4.1606 0.0000 -10871.9226 1525.1030 0.0000 0.0000 1772.2161 -7565.0265 299.7210 -9337.2426 -7559.6225 300.6771 836.4795 888.4562 30008.1774 61.6775 127.9130
ENERGY: 1500000 1.3636 5.8826 4.9730 0.0000 -10803.6012 1418.9234 0.0000 0.0000 1776.4444 -7596.0142 300.4361 -9372.4586 -7569.3196 300.2607 -445.1426 -349.8410 30901.3341 -2.9388 60.7345
TCL: Running FEP window   9: Lambda1 0.5999999999999996 Lambda2 0.5499999999999996 [dLambda -0.050000000000000044]
TCL: Setting parameter firsttimestep to 0
TCL: Setting parameter alchLambda to 0.5999999999999996
Info: NONBONDED TABLE R-SQUARED SPACING: 0.0625
Info: NONBONDED TABLE SIZE: 705 POINTS
TCL: Setting parameter alchLambda2 to 0.5499999999999996
Info: NONBONDED TABLE R-SQUARED SPACING: 0.0625
Info: NONBONDED TABLE SIZE: 705 POINTS
TCL: Running for 1500000 steps
ETITLE: TS BOND ANGLE DIHED IMPRP ELECT VDW BOUNDARY MISC KINETIC TOTAL TEMP POTENTIAL TOTALAVG TEMPAVG PRESSURE GPRESSURE VOLUME PRESSAVG GPRESSAVG
ENERGY: 0 1.3636 5.8826 4.9730 0.0000 -10803.0200 1419.1334 0.0000 0.0000 1775.5579 -7596.1095 300.2861 -9371.6673 -7596.1095 300.2861 -446.5533 -352.1600 30901.3341 -446.5533 -352.1600
ENERGY: 300000 1.2402 4.8412 0.7000 0.0000 -11002.0937 1583.9237 0.0000 0.0000 1768.7335 -7642.6550 299.1320 -9411.3885 -7602.3724 297.6906 894.5939 890.0391 30433.1439 279.9296 350.5166
ENERGY: 600000 2.6905 3.3633 2.5607 0.0000 -10812.6167 1435.8596 0.0000 0.0000 1780.6448 -7587.4978 301.1464 -9368.1426 -7590.5561 298.0170 -281.5256 -211.3947 30675.7986 96.9184 165.3966
ENERGY: 900000 1.6030 2.3003 1.7754 0.0000 -10746.7794 1414.6076 0.0000 0.0000 1802.3489 -7524.1442 304.8171 -9326.4931 -7568.9777 299.0609 -209.9209 -234.6614 30643.1250 -41.7395 13.9228
ENERGY: 1200000 2.2371 3.5509 1.4883 0.0000 -10727.7652 1395.7057 0.0000 0.0000 1805.3533 -7519.4299 305.3252 -9324.7832 -7573.9549 298.6130 -127.2217 -115.2805 30321.3056 -125.3344 -74.2411
ENERGY: 1500000 2.8176 5.9141 2.4729 0.0000 -10956.2466 1595.6020 0.0000 0.0000 1770.3334 -7579.1067 299.4026 -9349.4401 -7581.8311 299.2235 1015.1700 1060.8483 30530.2215 -76.0395 -18.0851
TCL: Running FEP window  10: Lambda1 0.5499999999999996 Lambda2 0.4999999999999996 [dLambda -0.04999999999999999]
TCL: Setting parameter firsttimestep to 0
TCL: Setting parameter alchLambda to 0.5499999999999996
Info: NONBONDED TABLE R-SQUARED SPACING: 0.0625
Info: NONBONDED TABLE SIZE: 705 POINTS
TCL: Setting parameter alchLambda2 to 0.4999999999999996
Info: NONBONDED TABLE R-SQUARED SPACING: 0.0625
Info: NONBONDED TABLE SIZE: 705 POINTS
TCL: Running for 1500000 steps
ETITLE: TS BOND ANGLE DIHED IMPRP ELECT VDW BOUNDARY MISC KINETIC TOTAL TEMP POTENTIAL TOTALAVG TEMPAVG PRESSURE GPRESSURE VOLUME PRESSAVG GPRESSAVG
ENERGY: 0 2.8176 5.9141 2.4729 0.0000 -10955.8920 1596.1705 0.0000 0.0000 1769.4498 -7579.0672 299.2531 -9348.5170 -7579.0672 299.2531 980.9864 1063.2150 30530.2215 980.9864 1063.2150
ENERGY: 300000 3.8732 4.8164 1.9062 0.0000 -10624.4934 1387.0802 0.0000 0.0000 1805.2576 -7421.5597 305.3090 -9226.8172 -7535.3522 299.5710 -323.8039 -218.7078 31162.4870 210.9591 289.7275
ENERGY: 600000 1.8565 3.6765 0.9468 0.0000 -10724.7975 1426.0850 0.0000 0.0000 1750.5916 -7541.6411 296.0638 -9292.2327 -7554.3769 299.6902 -348.4694 -283.5071 30954.4424 104.9452 178.9709
ENERGY: 900000 2.3308 5.5546 3.7329 0.0000 -10742.9693 1365.9524 0.0000 0.0000 1789.5918 -7575.8067 302.6596 -9365.3985 -7563.6842 300.4193 -890.7095 -821.2672 30801.8050 -2.5738 67.7513
ENERGY: 1200000 1.6413 3.3943 1.2660 0.0000 -10780.8052 1483.2970 0.0000 0.0000 1785.8404 -7505.3662 302.0251 -9291.2065 -7558.1145 300.3090 364.1943 449.0320 30602.0354 44.9870 115.9252
ENERGY: 1500000 3.6580 5.6930 2.9319 0.0000 -10869.0570 1508.3819 0.0000 0.0000 1770.2341 -7578.1581 299.3858 -9348.3921 -7561.9576 300.4972 358.2176 434.8391 30229.8732 41.2137 111.4689
TCL: Running FEP window  11: Lambda1 0.4999999999999996 Lambda2 0.4499999999999996 [dLambda -0.04999999999999999]
TCL: Setting parameter firsttimestep to 0
TCL: Setting parameter alchLambda to 0.4999999999999996
Info: NONBONDED TABLE R-SQUARED SPACING: 0.0625
Info: NONBONDED TABLE SIZE: 705 POINTS
TCL: Setting parameter alchLambda2 to 0.4499999999999996
Info: NONBONDED TABLE R-SQUARED SPACING: 0.0625
Info: NONBONDED TABLE SIZE: 705 POINTS
TCL: Running for 1500000 steps
ETITLE: TS BOND ANGLE DIHED IMPRP ELECT VDW BOUNDARY MISC KINETIC TOTAL TEMP POTENTIAL TOTALAVG TEMPAVG PRESSURE GPRESSURE VOLUME PRESSAVG GPRESSAVG
ENERGY: 0 3.6580 5.6930 2.9319 0.0000 -10868.8677 1508.4313 0.0000 0.0000 1769.3351 -7578.8182 299.2337 -9348.1534 -7578.8182 299.2337 348.1641 432.4040 30229.8732 348.1641 432.4040
ENERGY: 300000 4.3845 3.9248 2.5649 0.0000 -10772.9139 1472.2791 0.0000 0.0000 1799.0547 -7490.7059 304.2600 -9289.7606 -7515.9815 300.6959 128.2215 192.8781 30573.4604 -101.4162 -38.9682
ENERGY: 600000 2.1828 6.6774 3.5448 0.0000 -10673.9539 1406.2263 0.0000 0.0000 1748.7672 -7506.5554 295.7552 -9255.3225 -7515.4445 299.6426 -101.4919 -36.6319 30703.9371 -117.6264 -40.4135
ENERGY: 900000 2.2065 3.2152 3.9695 0.0000 -10841.5549 1456.3099 0.0000 0.0000 1726.3545 -7649.4993 291.9647 -9375.8538 -7544.4291 300.6444 -80.3726 -47.0508 30562.0758 -155.0479 -86.0363
ENERGY: 1200000 1.7075 3.2821 1.4760 0.0000 -10885.9881 1472.2778 0.0000 0.0000 1738.0148 -7669.2299 293.9368 -9407.2447 -7567.3840 299.9779 -191.5523 -153.8679 30579.5810 -107.3228 -38.6600
ENERGY: 1500000 1.7749 2.3517 3.7990 0.0000 -10821.8137 1476.4456 0.0000 0.0000 1722.3356 -7615.1070 291.2851 -9337.4426 -7574.6010 299.5661 34.8022 115.4982 30753.1825 -117.7727 -56.6896
TCL: Running FEP window  12: Lambda1 0.4499999999999996 Lambda2 0.39999999999999963 [dLambda -0.04999999999999999]
TCL: Setting parameter firsttimestep to 0
TCL: Setting parameter alchLambda to 0.4499999999999996
Info: NONBONDED TABLE R-SQUARED SPACING: 0.0625
Info: NONBONDED TABLE SIZE: 705 POINTS
TCL: Setting parameter alchLambda2 to 0.39999999999999963
Info: NONBONDED TABLE R-SQUARED SPACING: 0.0625
Info: NONBONDED TABLE SIZE: 705 POINTS
TCL: Running for 1500000 steps
ETITLE: TS BOND ANGLE DIHED IMPRP ELECT VDW BOUNDARY MISC KINETIC TOTAL TEMP POTENTIAL TOTALAVG TEMPAVG PRESSURE GPRESSURE VOLUME PRESSAVG GPRESSAVG
ENERGY: 0 1.7749 2.3517 3.7990 0.0000 -10821.8140 1476.9903 0.0000 0.0000 1721.4688 -7615.4293 291.1385 -9336.8981 -7615.4293 291.1385 26.7722 113.9250 30753.1825 26.7722 113.9250
ENERGY: 300000 1.9527 2.7515 1.0869 0.0000 -10825.2476 1511.6439 0.0000 0.0000 1701.1243 -7606.6884 287.6978 -9307.8127 -7614.2213 294.1267 710.5381 731.0449 30073.4552 -7.3718 66.6055
ENERGY: 600000 1.1302 6.2240 3.1665 0.0000 -10735.3423 1496.1652 0.0000 0.0000 1709.9633 -7518.6931 289.1926 -9228.6564 -7576.1307 294.7359 781.1124 819.0706 30415.0680 -17.4732 51.9693
ENERGY: 900000 2.1297 3.0367 1.9474 0.0000 -10958.9805 1539.1423 0.0000 0.0000 1776.9184 -7635.8060 300.5162 -9412.7244 -7575.0136 297.2846 605.0380 684.0258 30252.8310 108.6512 181.2720
ENERGY: 1200000 3.3869 3.0789 2.6498 0.0000 -10774.3660 1407.7038 0.0000 0.0000 1805.3059 -7552.2408 305.3172 -9357.5467 -7567.3287 299.3220 -379.5685 -324.3411 30481.8141 61.6257 133.6139
ENERGY: 1500000 2.2533 2.4434 3.4556 0.0000 -10795.5658 1450.9535 0.0000 0.0000 1700.7936 -7635.6664 287.6418 -9336.4600 -7569.3690 299.1818 -94.1758 -50.9823 30607.5422 44.7726 114.2015
TCL: Running FEP window  13: Lambda1 0.39999999999999963 Lambda2 0.34999999999999964 [dLambda -0.04999999999999999]
TCL: Setting parameter firsttimestep to 0
TCL: Setting parameter alchLambda to 0.39999999999999963
Info: NONBONDED TABLE R-SQUARED SPACING: 0.0625
Info: NONBONDED TABLE SIZE: 705 POINTS
TCL: Setting parameter alchLambda2 to 0.34999999999999964
Info: NONBONDED TABLE R-SQUARED SPACING: 0.0625
Info: NONBONDED TABLE SIZE: 705 POINTS
TCL: Running for 1500000 steps
ETITLE: TS BOND ANGLE DIHED IMPRP ELECT VDW BOUNDARY MISC KINETIC TOTAL TEMP POTENTIAL TOTALAVG TEMPAVG PRESSURE GPRESSURE VOLUME PRESSAVG GPRESSAVG
ENERGY: 0 2.2533 2.4434 3.4556 0.0000 -10795.5655 1450.2223 0.0000 0.0000 1699.9001 -7637.2908 287.4907 -9337.1909 -7637.2908 287.4907 -160.1636 -62.9852 30607.5422 -160.1636 -62.9852
ENERGY: 300000 2.2972 1.4518 1.7619 0.0000 -10763.8330 1372.5266 0.0000 0.0000 1807.4406 -7578.3550 305.6782 -9385.7955 -7571.8428 300.6870 -860.1133 -822.6275 30799.9797 -293.7177 -221.5251
ENERGY: 600000 3.8194 4.9861 1.6092 0.0000 -10916.4110 1564.4073 0.0000 0.0000 1699.2316 -7642.3574 287.3777 -9341.5890 -7597.8946 297.5324 897.5292 964.6267 30231.6052 -19.3184 43.4307
ENERGY: 900000 1.7106 5.2548 3.0452 0.0000 -10957.5495 1621.8642 0.0000 0.0000 1758.4424 -7567.2323 297.3915 -9325.6747 -7570.1991 299.0619 1421.2063 1456.6470 30364.9479 192.5314 273.7394
ENERGY: 1200000 1.8916 5.2832 1.4612 0.0000 -10802.3223 1466.4995 0.0000 0.0000 1731.0580 -7596.1287 292.7602 -9327.1867 -7567.4041 298.8044 125.0979 199.2871 30453.3876 152.0980 227.6499
ENERGY: 1500000 2.2672 3.7447 2.2524 0.0000 -10765.0701 1401.3178 0.0000 0.0000 1778.1528 -7577.3352 300.7250 -9355.4880 -7562.7976 299.2807 -430.7851 -382.4375 30619.4218 22.6589 95.5815
TCL: Running FEP window  14: Lambda1 0.34999999999999964 Lambda2 0.29999999999999966 [dLambda -0.04999999999999999]
TCL: Setting parameter firsttimestep to 0
TCL: Setting parameter alchLambda to 0.34999999999999964
Info: NONBONDED TABLE R-SQUARED SPACING: 0.0625
Info: NONBONDED TABLE SIZE: 705 POINTS
TCL: Setting parameter alchLambda2 to 0.29999999999999966
Info: NONBONDED TABLE R-SQUARED SPACING: 0.0625
Info: NONBONDED TABLE SIZE: 705 POINTS
TCL: Running for 1500000 steps
ETITLE: TS BOND ANGLE DIHED IMPRP ELECT VDW BOUNDARY MISC KINETIC TOTAL TEMP POTENTIAL TOTALAVG TEMPAVG PRESSURE GPRESSURE VOLUME PRESSAVG GPRESSAVG
ENERGY: 0 2.2672 3.7447 2.2524 0.0000 -10765.0694 1401.4178 0.0000 0.0000 1777.2646 -7578.1228 300.5748 -9355.3874 -7578.1228 300.5748 -471.2009 -385.6669 30619.4218 -471.2009 -385.6669
ENERGY: 300000 1.1993 3.3968 3.3175 0.0000 -10814.0886 1484.0096 0.0000 0.0000 1759.7303 -7562.4351 297.6093 -9322.1655 -7569.6753 299.4173 436.9775 531.6434 30301.4913 17.1154 110.4325
ENERGY: 600000 2.7331 5.5311 1.4952 0.0000 -10718.4096 1394.8691 0.0000 0.0000 1774.1095 -7539.6716 300.0412 -9313.7811 -7547.6325 300.9372 -400.9180 -350.8170 30761.8724 63.2286 142.3813
ENERGY: 900000 2.3315 4.1586 1.5240 0.0000 -10864.5786 1476.5179 0.0000 0.0000 1784.1489 -7595.8977 301.7391 -9380.0466 -7568.7365 299.8797 16.7839 112.0645 30465.2282 51.7307 118.9086
ENERGY: 1200000 1.7705 6.3061 2.4761 0.0000 -10778.6751 1440.1476 0.0000 0.0000 1721.0142 -7606.9606 291.0616 -9327.9748 -7573.7743 298.5852 -290.9122 -152.1831 30671.1848 -36.0315 33.3957
ENERGY: 1500000 1.5496 4.2113 0.7925 0.0000 -10888.1171 1535.9852 0.0000 0.0000 1773.0605 -7572.5180 299.8638 -9345.5785 -7576.4018 298.7762 517.5357 599.0637 30482.5572 -31.2851 37.2869
TCL: Running FEP window  15: Lambda1 0.29999999999999966 Lambda2 0.24999999999999967 [dLambda -0.04999999999999999]
TCL: Setting parameter firsttimestep to 0
TCL: Setting parameter alchLambda to 0.29999999999999966
Info: NONBONDED TABLE R-SQUARED SPACING: 0.0625
Info: NONBONDED TABLE SIZE: 705 POINTS
TCL: Setting parameter alchLambda2 to 0.24999999999999967
Info: NONBONDED TABLE R-SQUARED SPACING: 0.0625
Info: NONBONDED TABLE SIZE: 705 POINTS
TCL: Running for 1500000 steps
ETITLE: TS BOND ANGLE DIHED IMPRP ELECT VDW BOUNDARY MISC KINETIC TOTAL TEMP POTENTIAL TOTALAVG TEMPAVG PRESSURE GPRESSURE VOLUME PRESSAVG GPRESSAVG
ENERGY: 0 1.5496 4.2113 0.7925 0.0000 -10888.1186 1535.8302 0.0000 0.0000 1772.1873 -7573.5476 299.7161 -9345.7349 -7573.5476 299.7161 515.1273 594.0496 30482.5572 515.1273 594.0496
ENERGY: 300000 1.1992 3.7695 1.9693 0.0000 -10812.5778 1472.6508 0.0000 0.0000 1827.9383 -7505.0506 309.1448 -9332.9889 -7556.7264 301.4965 333.1248 364.9635 30240.4095 -80.7591 -10.2558
ENERGY: 600000 1.1763 2.9128 2.5650 0.0000 -10991.3313 1589.4855 0.0000 0.0000 1746.4136 -7648.7781 295.3572 -9395.1917 -7572.5781 297.9291 979.5981 1017.3246 30149.1465 335.0644 393.3816
ENERGY: 900000 1.0170 2.9942 1.3663 0.0000 -10753.3188 1392.1495 0.0000 0.0000 1758.8105 -7596.9811 297.4538 -9355.7917 -7573.0138 298.4876 -718.9229 -577.5681 31023.9931 201.5467 278.9564
ENERGY: 1200000 2.7893 1.7017 1.2590 0.0000 -10721.6648 1393.8555 0.0000 0.0000 1787.2952 -7534.7642 302.2712 -9322.0594 -7572.5345 299.5440 -453.2240 -404.5571 30593.2109 124.5323 198.3395
ENERGY: 1500000 3.0340 2.5272 3.4808 0.0000 -10801.9038 1469.1234 0.0000 0.0000 1740.0683 -7583.6701 294.2841 -9323.7384 -7580.4546 299.9470 61.5955 197.2958 30281.7005 73.5166 148.3575
TCL: Running FEP window  16: Lambda1 0.24999999999999967 Lambda2 0.19999999999999968 [dLambda -0.04999999999999999]
TCL: Setting parameter firsttimestep to 0
TCL: Setting parameter alchLambda to 0.24999999999999967
Info: NONBONDED TABLE R-SQUARED SPACING: 0.0625
Info: NONBONDED TABLE SIZE: 705 POINTS
TCL: Setting parameter alchLambda2 to 0.19999999999999968
Info: NONBONDED TABLE R-SQUARED SPACING: 0.0625
Info: NONBONDED TABLE SIZE: 705 POINTS
TCL: Running for 1500000 steps
ETITLE: TS BOND ANGLE DIHED IMPRP ELECT VDW BOUNDARY MISC KINETIC TOTAL TEMP POTENTIAL TOTALAVG TEMPAVG PRESSURE GPRESSURE VOLUME PRESSAVG GPRESSAVG
ENERGY: 0 3.0340 2.5272 3.4808 0.0000 -10801.9033 1469.4413 0.0000 0.0000 1739.1800 -7584.2400 294.1338 -9323.4200 -7584.2400 294.1338 105.5935 196.0212 30281.7005 105.5935 196.0212
ENERGY: 300000 6.2169 3.0030 3.3513 0.0000 -10839.7652 1481.7892 0.0000 0.0000 1805.5772 -7539.8277 305.3631 -9345.4049 -7563.0369 300.8255 16.2918 74.2133 30697.1019 102.1133 171.5326
ENERGY: 600000 2.2190 2.3636 3.8492 0.0000 -10692.9800 1369.9642 0.0000 0.0000 1713.0160 -7601.5680 289.7089 -9314.5840 -7545.2188 299.6936 -852.4804 -787.7968 30806.2188 -177.3093 -104.2487
ENERGY: 900000 3.0717 3.0751 2.3962 0.0000 -10769.8450 1434.9740 0.0000 0.0000 1751.2523 -7575.0759 296.1755 -9326.3282 -7565.9497 299.0052 24.6058 83.7606 30203.0849 -118.7286 -51.8389
ENERGY: 1200000 1.9096 3.8416 0.6558 0.0000 -10831.8071 1428.0465 0.0000 0.0000 1755.5481 -7641.8054 296.9020 -9397.3535 -7564.9094 300.3684 -286.8835 -240.8020 30282.3895 -134.8310 -63.5740
ENERGY: 1500000 2.9338 2.4181 3.1958 0.0000 -10881.2780 1478.4339 0.0000 0.0000 1769.0977 -7625.1987 299.1936 -9394.2964 -7570.5105 300.3135 -51.1542 -1.2269 30981.1047 -121.7731 -51.0059
TCL: Running FEP window  17: Lambda1 0.19999999999999968 Lambda2 0.1499999999999997 [dLambda -0.04999999999999999]
TCL: Setting parameter firsttimestep to 0
TCL: Setting parameter alchLambda to 0.19999999999999968
Info: NONBONDED TABLE R-SQUARED SPACING: 0.0625
Info: NONBONDED TABLE SIZE: 705 POINTS
TCL: Setting parameter alchLambda2 to 0.1499999999999997
Info: NONBONDED TABLE R-SQUARED SPACING: 0.0625
Info: NONBONDED TABLE SIZE: 705 POINTS
TCL: Running for 1500000 steps
ETITLE: TS BOND ANGLE DIHED IMPRP ELECT VDW BOUNDARY MISC KINETIC TOTAL TEMP POTENTIAL TOTALAVG TEMPAVG PRESSURE GPRESSURE VOLUME PRESSAVG GPRESSAVG
ENERGY: 0 2.9338 2.4181 3.1958 0.0000 -10881.2772 1478.6463 0.0000 0.0000 1768.2172 -7625.8660 299.0447 -9394.0832 -7625.8660 299.0447 -82.6904 1.2543 30981.1047 -82.6904 1.2543
ENERGY: 300000 3.4740 2.5606 1.5610 0.0000 -10785.1515 1423.7815 0.0000 0.0000 1826.2415 -7527.5330 308.8578 -9353.7744 -7559.8662 300.5984 -133.8785 -82.7242 30195.4018 67.3399 124.4547
ENERGY: 600000 1.6094 4.8475 2.2966 0.0000 -10671.0206 1383.1113 0.0000 0.0000 1773.7695 -7505.3862 299.9837 -9279.1557 -7549.5036 300.0418 -716.9869 -566.1850 30843.9569 -282.8794 -212.8851
ENERGY: 900000 2.0284 2.5636 0.9828 0.0000 -10871.5225 1517.7896 0.0000 0.0000 1761.5240 -7586.6341 297.9127 -9348.1581 -7555.5681 299.3806 421.8131 513.1194 30665.3015 -210.8218 -141.7340
ENERGY: 1200000 1.7654 3.4893 3.9765 0.0000 -10795.9907 1446.4358 0.0000 0.0000 1795.0407 -7545.2830 303.5811 -9340.3237 -7558.8397 299.1897 97.3095 140.5700 30269.7680 -89.4259 -22.9851
ENERGY: 1500000 1.9913 2.0637 0.9341 0.0000 -10779.1093 1521.5248 0.0000 0.0000 1811.1405 -7441.4548 306.3039 -9252.5953 -7553.3792 299.6596 748.6383 786.3266 30811.2985 -34.4493 34.3935
TCL: Running FEP window  18: Lambda1 0.1499999999999997 Lambda2 0.09999999999999969 [dLambda -0.05 ]
TCL: Setting parameter firsttimestep to 0
TCL: Setting parameter alchLambda to 0.1499999999999997
Info: NONBONDED TABLE R-SQUARED SPACING: 0.0625
Info: NONBONDED TABLE SIZE: 705 POINTS
TCL: Setting parameter alchLambda2 to 0.09999999999999969
Info: NONBONDED TABLE R-SQUARED SPACING: 0.0625
Info: NONBONDED TABLE SIZE: 705 POINTS
TCL: Running for 1500000 steps
ETITLE: TS BOND ANGLE DIHED IMPRP ELECT VDW BOUNDARY MISC KINETIC TOTAL TEMP POTENTIAL TOTALAVG TEMPAVG PRESSURE GPRESSURE VOLUME PRESSAVG GPRESSAVG
ENERGY: 0 1.9913 2.0637 0.9341 0.0000 -10779.1097 1521.4792 0.0000 0.0000 1810.2659 -7442.3755 306.1560 -9252.6413 -7442.3755 306.1560 700.4459 780.8155 30811.2985 700.4459 780.8155
ENERGY: 300000 1.6713 4.5521 1.6392 0.0000 -10722.1497 1423.2072 0.0000 0.0000 1703.7424 -7587.3375 288.1405 -9291.0799 -7533.8891 298.5910 -105.3068 -68.2533 30389.4463 -65.5677 -1.6375
ENERGY: 600000 2.8188 2.9428 3.4013 0.0000 -10796.9409 1443.3120 0.0000 0.0000 1804.3780 -7540.0879 305.1602 -9344.4660 -7534.7710 299.7048 -161.0986 -143.9840 30698.5838 -261.5272 -208.8791
ENERGY: 900000 1.8163 3.1499 2.5657 0.0000 -10712.0354 1420.9970 0.0000 0.0000 1783.3539 -7500.1525 301.6046 -9283.5064 -7535.1469 300.6831 -236.4306 -210.7080 30624.0685 -248.5798 -203.9897
ENERGY: 1200000 4.4126 4.7120 1.0836 0.0000 -10704.4506 1365.9305 0.0000 0.0000 1801.8358 -7526.4761 304.7303 -9328.3118 -7533.4031 301.7418 -844.0593 -760.8449 30434.9380 -258.5008 -206.1166
ENERGY: 1500000 0.9561 4.0853 1.0265 0.0000 -10961.0935 1522.8497 0.0000 0.0000 1777.5204 -7654.6553 300.6180 -9432.1758 -7542.7029 301.4953 566.9931 631.5049 30039.3147 -183.4208 -126.5792
TCL: Running FEP window  19: Lambda1 0.09999999999999969 Lambda2 0.049999999999999684 [dLambda -0.05 ]
TCL: Setting parameter firsttimestep to 0
TCL: Setting parameter alchLambda to 0.09999999999999969
Info: NONBONDED TABLE R-SQUARED SPACING: 0.0625
Info: NONBONDED TABLE SIZE: 705 POINTS
TCL: Setting parameter alchLambda2 to 0.049999999999999684
Info: NONBONDED TABLE R-SQUARED SPACING: 0.0625
Info: NONBONDED TABLE SIZE: 705 POINTS
TCL: Running for 1500000 steps
ETITLE: TS BOND ANGLE DIHED IMPRP ELECT VDW BOUNDARY MISC KINETIC TOTAL TEMP POTENTIAL TOTALAVG TEMPAVG PRESSURE GPRESSURE VOLUME PRESSAVG GPRESSAVG
ENERGY: 0 0.9561 4.0853 1.0265 0.0000 -10961.0955 1523.2383 0.0000 0.0000 1776.6383 -7655.1510 300.4689 -9431.7893 -7655.1510 300.4689 541.0842 630.7833 30039.3147 541.0842 630.7833
ENERGY: 300000 2.5689 4.4448 3.7427 0.0000 -10750.2069 1414.0523 0.0000 0.0000 1787.3930 -7538.0053 302.2877 -9325.3982 -7572.2577 301.3428 -180.4754 -151.5502 30311.7714 -59.0766 -8.1996
ENERGY: 600000 2.3998 4.0199 0.7384 0.0000 -10834.0209 1423.0220 0.0000 0.0000 1778.5979 -7625.2429 300.8003 -9403.8407 -7578.7953 301.2101 -676.6872 -591.5191 30778.6402 -226.7121 -160.3675
ENERGY: 900000 1.4636 4.8458 1.6404 0.0000 -10772.0277 1400.8331 0.0000 0.0000 1779.0869 -7584.1579 300.8830 -9363.2448 -7578.6462 300.3453 -188.3736 -184.4675 30292.1078 -265.9899 -203.7552
ENERGY: 1200000 0.5671 3.5241 1.9663 0.0000 -10847.7859 1535.1998 0.0000 0.0000 1791.3148 -7515.2138 302.9510 -9306.5286 -7573.7475 300.8689 737.1504 817.7755 30234.5589 -171.5180 -110.6748
ENERGY: 1500000 2.4076 4.4089 0.8099 0.0000 -10899.8405 1478.2151 0.0000 0.0000 1803.0924 -7610.9066 304.9428 -9413.9989 -7568.9855 301.1345 -105.6120 -99.5730 30746.8506 -117.5495 -63.2356
TCL: Running FEP window  20: Lambda1 0.049999999999999684 Lambda2 0.0    [dLambda -0.049999999999999684]
TCL: Setting parameter firsttimestep to 0
TCL: Setting parameter alchLambda to 0.049999999999999684
Info: NONBONDED TABLE R-SQUARED SPACING: 0.0625
Info: NONBONDED TABLE SIZE: 705 POINTS
TCL: Setting parameter alchLambda2 to 0.0
Info: NONBONDED TABLE R-SQUARED SPACING: 0.0625
Info: NONBONDED TABLE SIZE: 705 POINTS
TCL: Running for 1500000 steps
ETITLE: TS BOND ANGLE DIHED IMPRP ELECT VDW BOUNDARY MISC KINETIC TOTAL TEMP POTENTIAL TOTALAVG TEMPAVG PRESSURE GPRESSURE VOLUME PRESSAVG GPRESSAVG
ENERGY: 0 2.4076 4.4089 0.8099 0.0000 -10899.8412 1477.8746 0.0000 0.0000 1802.1880 -7612.1521 304.7899 -9414.3401 -7612.1521 304.7899 -183.0029 -101.8814 30746.8506 -183.0029 -101.8814
ENERGY: 300000 0.5126 4.9474 0.8142 0.0000 -10882.2090 1477.9505 0.0000 0.0000 1871.7990 -7526.1853 316.5626 -9397.9843 -7571.1489 305.9016 -23.2639 94.0720 30707.7234 -172.3318 -85.3428
ENERGY: 600000 1.0843 4.0020 4.2187 0.0000 -10717.0630 1400.2743 0.0000 0.0000 1722.9980 -7584.4857 291.3971 -9307.4837 -7560.6402 303.4622 -486.0326 -462.0985 30631.5213 -146.0005 -76.4574
ENERGY: 900000 1.2963 3.0135 3.0982 0.0000 -10865.1128 1521.7774 0.0000 0.0000 1753.2603 -7582.6671 296.5151 -9335.9273 -7559.4727 301.1321 703.6703 806.7276 30112.5045 -112.8440 -38.3949
ENERGY: 1200000 0.8325 3.7436 4.1374 0.0000 -10829.1393 1497.9777 0.0000 0.0000 1766.3695 -7556.0786 298.7322 -9322.4481 -7572.5672 300.1500 526.2771 580.4307 30530.5695 -72.3859 6.1486
ENERGY: 1500000 1.3676 4.2405 0.8235 0.0000 -10687.3286 1431.1616 0.0000 0.0000 1814.1951 -7435.5403 306.8205 -9249.7354 -7563.3897 300.0981 18.8096 22.6250 30661.6559 -51.8790 17.8131
TCL: Exiting due to exit command.
