Info: SIMULATION PARAMETERS:
Info: TIMESTEP               2
Info: NUMBER OF STEPS        0
Info: STEPS PER CYCLE        10
Info: PERIODIC CELL BASIS 1  30.8992 0 0
Info: PERIODIC CELL BASIS 2  0 31.2531 0
Info: PERIODIC CELL BASIS 3  0 0 31.5284
Info: PERIODIC CELL CENTER   0 0 0
Info: WRAPPING WATERS AROUND PERIODIC BOUNDARIES ON OUTPUT.
Info: WRAPPING ALL CLUSTERS AROUND PERIODIC BOUNDARIES ON OUTPUT.
Info: FIRST LDB TIMESTEP     50
Info: LAST LDB TIMESTEP     -1
Info: HOM BACKGROUND SCALING 1
Info: PME BACKGROUND SCALING 1
Info: MIN ATOMS PER PATCH    40
Info: EMPTY PATCH LOAD       40 ATOMS
Info: VELOCITY FILE          mobley_4305650_equil.vel
Info: CENTER OF MASS MOVING INITIALLY? NO
Info: DIELECTRIC             1
Info: EXCLUDE                SCALED ONE-FOUR
Info: 1-4 ELECTROSTATICS SCALED BY 0.833333
Info: MODIFIED 1-4 VDW PARAMETERS WILL BE USED
Info: DCD FILENAME           mobley_4305650_prod.dcd
Info: DCD FREQUENCY          100000
Info: DCD FIRST STEP         100000
Info: DCD FILE WILL CONTAIN UNIT CELL DATA
Info: XST FILENAME           mobley_4305650_prod.xst
Info: XST FREQUENCY          100000
Info: NO VELOCITY DCD OUTPUT
Info: NO FORCE DCD OUTPUT
Info: OUTPUT FILENAME        mobley_4305650_prod
Info: BINARY OUTPUT FILES WILL BE USED
Info: RESTART FILENAME       mobley_4305650_prod.restart
Info: RESTART FREQUENCY      100000
Info: BINARY RESTART FILES WILL BE USED
Info: CUTOFF                 9
Info: PAIRLIST DISTANCE      11
Info: PAIRLIST SHRINK RATE   0.01
Info: PAIRLIST GROW RATE     0.01
Info: PAIRLIST TRIGGER       0.3
Info: PAIRLISTS PER CYCLE    2
Info: PAIRLISTS ENABLED
Info: MARGIN                 2
Info: HYDROGEN GROUP CUTOFF  2.5
Info: PATCH DIMENSION        15.5
Info: ENERGY OUTPUT STEPS    100000
Info: ENERGY EVALUATION STEPS    100000
Info: OUTPUT ENERGY PRECISION 4
Info: CROSSTERM ENERGY INCLUDED IN DIHEDRAL
Info: TIMING OUTPUT STEPS    1000000
Info: PRESSURE OUTPUT STEPS  100000
Info: ALCHEMICAL FEP ON
Info: FEP CURRENT LAMBDA VALUE     1
Info: FEP COMPARISON LAMBDA VALUE  0.95
Info: FEP INTRA-ALCHEMICAL NON-BONDED INTERACTIONS WILL BE RETAINED
Info: FEP INTRA-ALCHEMICAL BONDED INTERACTIONS WILL BE RETAINED
Info: FEP VDW SHIFTING COEFFICIENT 5
Info: FEP ELEC. ACTIVE FOR ANNIHILATED PARTICLES BETWEEN LAMBDA = 0 AND LAMBDA = 0.5
Info: FEP ELEC. ACTIVE FOR EXNIHILATED PARTICLES BETWEEN LAMBDA = 0.5 AND LAMBDA = 1
Info: FEP VDW ACTIVE FOR ANNIHILATED PARTICLES BETWEEN LAMBDA = 0 AND LAMBDA = 1
Info: FEP VDW ACTIVE FOR EXNIHILATED PARTICLES BETWEEN LAMBDA = 0 AND LAMBDA = 1
Info: FEP BOND ACTIVE FOR ANNIHILATED PARTICLES BETWEEN LAMBDA = 1 AND LAMBDA = 1
Info: FEP BOND ACTIVE FOR EXNIHILATED PARTICLES BETWEEN LAMBDA = 0 AND LAMBDA = 0
Info: LANGEVIN DYNAMICS ACTIVE
Info: LANGEVIN TEMPERATURE   300
Info: LANGEVIN USING BBK INTEGRATOR
Info: LANGEVIN DAMPING COEFFICIENT IS 1 INVERSE PS
Info: LANGEVIN DYNAMICS APPLIED TO HYDROGENS
Info: LANGEVIN PISTON PRESSURE CONTROL ACTIVE
Info:        TARGET PRESSURE IS 1.01325 BAR
Info:     OSCILLATION PERIOD IS 50 FS
Info:             DECAY TIME IS 25 FS
Info:     PISTON TEMPERATURE IS 300 K
Info:       PRESSURE CONTROL IS GROUP-BASED
Info:    INITIAL STRAIN RATE IS -0.000582359 -0.000582359 -0.000582359
Info:       CELL FLUCTUATION IS ISOTROPIC
Info: PARTICLE MESH EWALD (PME) ACTIVE
Info: PME TOLERANCE               1e-06
Info: PME EWALD COEFFICIENT       0.348832
Info: PME INTERPOLATION ORDER     4
Info: PME GRID DIMENSIONS         32 32 32
Info: PME MAXIMUM GRID SPACING    1
Info: PME CALCULATION WILL BE PERFORMED ON GPU
Info: FULL ELECTROSTATIC EVALUATION FREQUENCY      2
Info: USING VERLET I (r-RESPA) MTS SCHEME.
Info: C1 SPLITTING OF LONG RANGE ELECTROSTATICS
Info: PLACING ATOMS IN PATCHES BY HYDROGEN GROUPS
Info: RIGID BONDS TO HYDROGEN : ALL
Info:         ERROR TOLERANCE : 1e-08
Info:          MAX ITERATIONS : 100
Info: RIGID WATER USING SETTLE ALGORITHM
Info: RANDOM NUMBER SEED     1743514876
Info: USE HYDROGEN BONDS?    NO
Info: Using AMBER format force field!
Info: AMBER PARM FILE        mobley_4305650.prmtop
Info: COORDINATE PDB         mobley_4305650.pdb
Info: Exclusions will be read from PARM file!
Info: SCNB (VDW SCALING)     2
Info: USING ARITHMETIC MEAN TO COMBINE L-J SIGMA PARAMETERS
Info: BINARY COORDINATES     mobley_4305650_equil.coor
Info: SUMMARY OF PARAMETERS:
Info: 6 BONDS
Info: 5 ANGLES
Info:   5 HARMONIC
Info:   0 COSINE-BASED
Info: 3 DIHEDRAL
Info: 0 IMPROPER
Info: 0 CROSSTERM
Info: 0 VDW
Info: 21 VDW_PAIRS
Info: 0 NBTHOLE_PAIRS
Info: To read alchdata from file: mobley_4305650.pdb
Info: To read alchflag data from column: 5
Info: STRUCTURE SUMMARY:
Info: 2988 ATOMS
Info: 2987 BONDS
Info: 13 ANGLES
Info: 12 DIHEDRALS
Info: 0 IMPROPERS
Info: 0 CROSSTERMS
Info: 3012 EXCLUSIONS
Info: 2984 RIGID BONDS
Info: ALCH: 0 ATOMS TO DISAPPEAR IN FINAL STATE
Info: ALCH: 9 ATOMS TO APPEAR IN FINAL STATE
Info: 5980 DEGREES OF FREEDOM
Info: 997 HYDROGEN GROUPS
Info: 4 ATOMS IN LARGEST HYDROGEN GROUP
Info: 997 MIGRATION GROUPS
Info: 4 ATOMS IN LARGEST MIGRATION GROUP
Info: TOTAL MASS = 17945 amu
Info: TOTAL CHARGE = -0.000200007 e
Info: MASS DENSITY = 0.978724 g/cm^3
Info: ATOM DENSITY = 0.0981384 atoms/A^3
Info: ADDED 0 IMPLICIT EXCLUSIONS
Info: NONBONDED TABLE R-SQUARED SPACING: 0.0625
Info: NONBONDED TABLE SIZE: 705 POINTS
Info: REMOVING COM VELOCITY 0.102907 -0.0953774 0.0442662
Info: Use 3D box decompostion in PME FFT.
Info: Updated CUDA force table with 4096 elements.
Info: Updated CUDA LJ table with 6 x 6 elements.
Info: Found 11 unique exclusion lists needing 16 bytes
TCL: Running for 1500000 steps
ETITLE: TS BOND ANGLE DIHED IMPRP ELECT VDW BOUNDARY MISC KINETIC TOTAL TEMP POTENTIAL TOTALAVG TEMPAVG PRESSURE GPRESSURE VOLUME PRESSAVG GPRESSAVG
ENERGY: 0 0.5012 8.1963 0.1163 0.0000 -10981.6720 1558.5786 0.0000 0.0000 1769.5400 -7644.7395 297.8171 -9414.2795 -7644.7395 297.8171 795.5674 876.0025 30446.7957 795.5674 876.0025
ENERGY: 300000 0.0926 3.6695 0.8245 0.0000 -10768.2817 1390.0079 0.0000 0.0000 1759.6198 -7614.0674 296.1475 -9373.6871 -7632.7654 298.9431 -373.3725 -298.9150 30653.8552 374.0973 440.2533
ENERGY: 600000 1.6275 4.6956 1.1992 0.0000 -10761.3984 1371.3351 0.0000 0.0000 1814.4615 -7568.0795 305.3774 -9382.5410 -7599.0700 300.4033 -790.9480 -718.4232 31258.7790 115.4321 189.5581
ENERGY: 900000 0.2845 4.6287 0.0392 0.0000 -10828.7789 1407.9563 0.0000 0.0000 1764.0610 -7651.8092 296.8949 -9415.8702 -7604.8677 299.9048 -224.2961 -175.8287 30373.2734 -80.4741 -9.6232
ENERGY: 1200000 1.1578 1.6476 0.2993 0.0000 -10935.7272 1490.1881 0.0000 0.0000 1853.2115 -7589.2229 311.8992 -9442.4344 -7588.8204 301.2516 392.6555 411.9007 30465.7190 -58.7164 6.0720
ENERGY: 1500000 0.6482 2.3601 0.8512 0.0000 -10839.8576 1445.8204 0.0000 0.0000 1764.1905 -7625.9872 296.9167 -9390.1776 -7587.1855 300.8202 -304.4406 -167.2630 30583.2322 -121.2365 -46.6304
TCL: Running FEP window   2: Lambda1 0.95   Lambda2 0.8999999999999999 [dLambda -0.050000000000000044]
TCL: Setting parameter firsttimestep to 0
TCL: Setting parameter alchLambda to 0.95
Info: NONBONDED TABLE R-SQUARED SPACING: 0.0625
Info: NONBONDED TABLE SIZE: 705 POINTS
TCL: Setting parameter alchLambda2 to 0.8999999999999999
Info: NONBONDED TABLE R-SQUARED SPACING: 0.0625
Info: NONBONDED TABLE SIZE: 705 POINTS
TCL: Running for 1500000 steps
ETITLE: TS BOND ANGLE DIHED IMPRP ELECT VDW BOUNDARY MISC KINETIC TOTAL TEMP POTENTIAL TOTALAVG TEMPAVG PRESSURE GPRESSURE VOLUME PRESSAVG GPRESSAVG
ENERGY: 0 0.6482 2.3601 0.8512 0.0000 -10839.2860 1446.1336 0.0000 0.0000 1763.2990 -7625.9938 296.7667 -9389.2928 -7625.9938 296.7667 -264.7193 -169.9467 30583.2322 -264.7193 -169.9467
ENERGY: 300000 0.1560 3.2654 0.3945 0.0000 -10887.9480 1527.4634 0.0000 0.0000 1765.1136 -7591.5550 297.0721 -9356.6686 -7606.9491 300.3851 890.5465 964.2591 30205.4481 -233.7183 -173.6147
ENERGY: 600000 0.7464 2.8066 0.1872 0.0000 -11031.0018 1555.7942 0.0000 0.0000 1819.5276 -7651.9399 306.2301 -9471.4674 -7608.1230 300.3209 473.6917 548.4531 30588.8122 -47.5537 3.1746
ENERGY: 900000 0.2629 5.7666 0.1296 0.0000 -10905.8799 1506.9156 0.0000 0.0000 1788.1773 -7604.6280 300.9538 -9392.8053 -7609.3646 299.7461 129.5551 194.4065 31255.5105 -69.9094 -12.5271
ENERGY: 1200000 1.2077 4.3964 0.0374 0.0000 -10904.3998 1465.9359 0.0000 0.0000 1784.4471 -7648.3753 300.3260 -9432.8224 -7603.2067 300.4321 -253.7619 -233.0893 31472.1878 -35.6025 29.1066
ENERGY: 1500000 0.4499 3.1399 0.0363 0.0000 -11025.0114 1556.3877 0.0000 0.0000 1837.3210 -7627.6766 309.2247 -9464.9976 -7609.0165 300.7446 605.3796 667.7131 30638.1689 26.5503 89.9645
TCL: Running FEP window   3: Lambda1 0.8999999999999999 Lambda2 0.8499999999999999 [dLambda -0.050000000000000044]
TCL: Setting parameter firsttimestep to 0
TCL: Setting parameter alchLambda to 0.8999999999999999
Info: NONBONDED TABLE R-SQUARED SPACING: 0.0625
Info: NONBONDED TABLE SIZE: 705 POINTS
TCL: Setting parameter alchLambda2 to 0.8499999999999999
Info: NONBONDED TABLE R-SQUARED SPACING: 0.0625
Info: NONBONDED TABLE SIZE: 705 POINTS
TCL: Running for 1500000 steps
ETITLE: TS BOND ANGLE DIHED IMPRP ELECT VDW BOUNDARY MISC KINETIC TOTAL TEMP POTENTIAL TOTALAVG TEMPAVG PRESSURE GPRESSURE VOLUME PRESSAVG GPRESSAVG
ENERGY: 0 0.4499 3.1399 0.0363 0.0000 -11024.3861 1556.5795 0.0000 0.0000 1836.4494 -7627.7311 309.0781 -9464.1805 -7627.7311 309.0781 583.4566 657.2841 30638.1689 583.4566 657.2841
ENERGY: 300000 0.3579 1.7278 0.3110 0.0000 -10985.6649 1622.3363 0.0000 0.0000 1771.2298 -7589.7022 298.1015 -9360.9320 -7592.4517 302.9285 1465.3368 1538.8410 30532.1814 247.0587 308.4003
ENERGY: 600000 0.0816 3.5726 0.2909 0.0000 -10793.0850 1415.0716 0.0000 0.0000 1707.5295 -7666.5389 287.3806 -9374.0684 -7604.5827 300.4029 -361.0210 -271.0566 30740.8176 -30.6598 34.9459
ENERGY: 900000 0.3326 3.3967 0.0871 0.0000 -10837.2090 1471.3133 0.0000 0.0000 1756.3319 -7605.7474 295.5941 -9362.0794 -7602.3650 300.5822 64.9535 197.6569 31160.5527 -76.9213 -3.4852
ENERGY: 1200000 0.1497 3.0694 0.0931 0.0000 -10853.1415 1514.4793 0.0000 0.0000 1794.2954 -7541.0546 301.9834 -9335.3500 -7607.0656 300.7295 813.7189 862.9297 30192.2824 29.3035 99.1895
ENERGY: 1500000 1.5976 2.6143 0.2830 0.0000 -10794.7142 1486.1213 0.0000 0.0000 1851.6604 -7452.4375 311.6381 -9304.0980 -7592.1121 301.2855 644.7961 681.0475 30763.4865 -21.1045 43.7198
TCL: Running FEP window   4: Lambda1 0.8499999999999999 Lambda2 0.7999999999999998 [dLambda -0.050000000000000044]
TCL: Setting parameter firsttimestep to 0
TCL: Setting parameter alchLambda to 0.8499999999999999
Info: NONBONDED TABLE R-SQUARED SPACING: 0.0625
Info: NONBONDED TABLE SIZE: 705 POINTS
TCL: Setting parameter alchLambda2 to 0.7999999999999998
Info: NONBONDED TABLE R-SQUARED SPACING: 0.0625
Info: NONBONDED TABLE SIZE: 705 POINTS
TCL: Running for 1500000 steps
ETITLE: TS BOND ANGLE DIHED IMPRP ELECT VDW BOUNDARY MISC KINETIC TOTAL TEMP POTENTIAL TOTALAVG TEMPAVG PRESSURE GPRESSURE VOLUME PRESSAVG GPRESSAVG
ENERGY: 0 1.5976 2.6143 0.2830 0.0000 -10794.0221 1486.1224 0.0000 0.0000 1850.7449 -7452.6598 311.4840 -9303.4047 -7452.6598 311.4840 590.4602 674.4006 30763.4865 590.4602 674.4006
ENERGY: 300000 0.4087 2.2901 1.5681 0.0000 -10786.3822 1468.6763 0.0000 0.0000 1839.2175 -7474.2214 309.5439 -9313.4389 -7522.3167 307.0265 111.5347 157.1290 31401.5851 478.8882 551.9925
ENERGY: 600000 1.8377 4.9056 0.0647 0.0000 -10783.7994 1431.6479 0.0000 0.0000 1797.0364 -7548.3071 302.4448 -9345.3435 -7549.2970 304.9697 -385.9488 -264.0022 31074.7455 242.6785 324.8366
ENERGY: 900000 3.4724 2.7145 0.1059 0.0000 -10839.5818 1443.2751 0.0000 0.0000 1810.8912 -7579.1228 304.7765 -9390.0140 -7556.9510 304.0119 -52.1805 28.1584 30750.9653 83.8599 159.6953
ENERGY: 1200000 1.8712 3.8606 0.2297 0.0000 -10848.1270 1463.4033 0.0000 0.0000 1751.9508 -7626.8114 294.8568 -9378.7622 -7569.0379 302.7902 134.0430 236.1683 30896.3629 127.6908 202.6482
ENERGY: 1500000 1.3226 5.4189 0.8104 0.0000 -10745.0590 1355.4663 0.0000 0.0000 1784.7899 -7597.2511 300.3837 -9382.0410 -7572.4989 303.1823 -754.7390 -736.0061 30810.6785 94.1424 161.3491
TCL: Running FEP window   5: Lambda1 0.7999999999999998 Lambda2 0.7499999999999998 [dLambda -0.050000000000000044]
TCL: Setting parameter firsttimestep to 0
TCL: Setting parameter alchLambda to 0.7999999999999998
Info: NONBONDED TABLE R-SQUARED SPACING: 0.0625
Info: NONBONDED TABLE SIZE: 705 POINTS
TCL: Setting parameter alchLambda2 to 0.7499999999999998
Info: NONBONDED TABLE R-SQUARED SPACING: 0.0625
Info: NONBONDED TABLE SIZE: 705 POINTS
TCL: Running for 1500000 steps
ETITLE: TS BOND ANGLE DIHED IMPRP ELECT VDW BOUNDARY MISC KINETIC TOTAL TEMP POTENTIAL TOTALAVG TEMPAVG PRESSURE GPRESSURE VOLUME PRESSAVG GPRESSAVG
ENERGY: 0 1.3226 5.4189 0.8104 0.0000 -10744.2775 1355.4339 0.0000 0.0000 1783.8820 -7597.4098 300.2309 -9381.2918 -7597.4098 300.2309 -814.0485 -742.3313 30810.6785 -814.0485 -742.3313
ENERGY: 300000 0.6310 3.4686 0.3110 0.0000 -10900.7893 1471.0700 0.0000 0.0000 1760.4525 -7664.8561 296.2876 -9425.3086 -7589.8969 299.5346 61.3393 14.2537 30667.7154 -56.9714 -4.6291
ENERGY: 600000 3.0166 2.7805 0.3720 0.0000 -10849.0565 1473.9495 0.0000 0.0000 1784.5634 -7584.3744 300.3455 -9368.9379 -7577.3274 301.1914 190.8212 216.9505 30932.7097 -40.5474 12.1395
ENERGY: 900000 4.2231 5.4590 0.2990 0.0000 -10770.3625 1408.5979 0.0000 0.0000 1788.9134 -7562.8701 301.0776 -9351.7835 -7567.7320 301.5481 -439.3836 -366.0658 30777.4364 -166.7474 -115.2612
ENERGY: 1200000 0.7538 4.7128 0.1131 0.0000 -10754.7356 1431.0356 0.0000 0.0000 1801.9275 -7516.1928 303.2679 -9318.1203 -7563.6285 301.6108 -209.4003 -117.2005 30972.8933 -180.4428 -124.6440
ENERGY: 1500000 1.3634 3.2512 0.0171 0.0000 -10850.7028 1481.0736 0.0000 0.0000 1801.0739 -7563.9235 303.1243 -9364.9974 -7572.7815 301.9515 303.0243 347.7617 30382.5088 -96.3172 -38.3191
TCL: Running FEP window   6: Lambda1 0.7499999999999998 Lambda2 0.6999999999999997 [dLambda -0.050000000000000044]
TCL: Setting parameter firsttimestep to 0
TCL: Setting parameter alchLambda to 0.7499999999999998
Info: NONBONDED TABLE R-SQUARED SPACING: 0.0625
Info: NONBONDED TABLE SIZE: 705 POINTS
TCL: Setting parameter alchLambda2 to 0.6999999999999997
Info: NONBONDED TABLE R-SQUARED SPACING: 0.0625
Info: NONBONDED TABLE SIZE: 705 POINTS
TCL: Running for 1500000 steps
ETITLE: TS BOND ANGLE DIHED IMPRP ELECT VDW BOUNDARY MISC KINETIC TOTAL TEMP POTENTIAL TOTALAVG TEMPAVG PRESSURE GPRESSURE VOLUME PRESSAVG GPRESSAVG
ENERGY: 0 1.3634 3.2512 0.0171 0.0000 -10849.6004 1480.7268 0.0000 0.0000 1800.1554 -7564.0865 302.9697 -9364.2419 -7564.0865 302.9697 259.3376 335.7508 30382.5088 259.3376 335.7508
ENERGY: 300000 2.9857 3.5292 0.0728 0.0000 -10879.8771 1451.2496 0.0000 0.0000 1766.7902 -7655.2496 297.3543 -9422.0398 -7570.2594 299.7103 -323.8091 -237.0818 30622.4269 217.1615 288.1242
ENERGY: 600000 1.1013 2.9356 1.3767 0.0000 -10813.6633 1400.9342 0.0000 0.0000 1789.8425 -7617.4730 301.2340 -9407.3155 -7568.4613 301.2524 -699.5483 -590.4717 31053.0522 -34.6057 46.0564
ENERGY: 900000 0.6013 3.2695 0.0646 0.0000 -10877.0656 1432.9546 0.0000 0.0000 1805.1397 -7635.0359 303.8086 -9440.1756 -7575.3308 300.8525 -459.8114 -399.5051 30989.7110 -133.1045 -66.1394
ENERGY: 1200000 1.0796 6.0234 0.0960 0.0000 -10913.1845 1499.4309 0.0000 0.0000 1797.2616 -7609.2929 302.4827 -9406.5546 -7579.2397 301.5803 420.9979 501.5960 30526.4458 -9.5551 59.2810
ENERGY: 1500000 0.6011 3.5370 0.2870 0.0000 -10836.1811 1447.8961 0.0000 0.0000 1777.6134 -7606.2466 299.1758 -9383.8600 -7584.9097 301.1638 -216.9654 -191.3854 30971.8896 -69.1256 -4.0771
TCL: Running FEP window   7: Lambda1 0.6999999999999997 Lambda2 0.6499999999999997 [dLambda -0.050000000000000044]
TCL: Setting parameter firsttimestep to 0
TCL: Setting parameter alchLambda to 0.6999999999999997
Info: NONBONDED TABLE R-SQUARED SPACING: 0.0625
Info: NONBONDED TABLE SIZE: 705 POINTS
TCL: Setting parameter alchLambda2 to 0.6499999999999997
Info: NONBONDED TABLE R-SQUARED SPACING: 0.0625
Info: NONBONDED TABLE SIZE: 705 POINTS
TCL: Running for 1500000 steps
ETITLE: TS BOND ANGLE DIHED IMPRP ELECT VDW BOUNDARY MISC KINETIC TOTAL TEMP POTENTIAL TOTALAVG TEMPAVG PRESSURE GPRESSURE VOLUME PRESSAVG GPRESSAVG
ENERGY: 0 0.6011 3.5370 0.2870 0.0000 -10835.3231 1447.4950 0.0000 0.0000 1776.7506 -7606.6525 299.0306 -9383.4031 -7606.6525 299.0306 -284.7052 -200.6960 30971.8896 -284.7052 -200.6960
ENERGY: 300000 1.1471 4.7754 0.3255 0.0000 -10827.5977 1453.7966 0.0000 0.0000 1757.6189 -7609.9342 295.8107 -9367.5530 -7592.9433 299.9567 -31.8658 86.9048 30641.2827 90.6855 149.0843
ENERGY: 600000 0.1842 3.4568 0.0940 0.0000 -10761.4184 1410.8529 0.0000 0.0000 1717.8225 -7629.0078 289.1129 -9346.8303 -7602.6880 298.3086 -255.9703 -234.4074 30927.5644 31.9100 74.6132
ENERGY: 900000 2.3777 3.2256 0.0716 0.0000 -10794.0652 1415.7943 0.0000 0.0000 1744.4545 -7628.1415 293.5951 -9372.5960 -7618.5304 298.3978 -279.1120 -279.5698 30990.6241 28.6164 76.7077
ENERGY: 1200000 1.3482 0.9016 0.2700 0.0000 -10902.7326 1452.4973 0.0000 0.0000 1744.2704 -7703.4450 293.5641 -9447.7154 -7633.3417 297.7832 -337.9257 -241.1696 30739.3216 -54.0119 -0.0678
ENERGY: 1500000 0.3421 4.4102 0.1347 0.0000 -10714.8030 1411.8752 0.0000 0.0000 1746.6728 -7551.3680 293.9685 -9298.0408 -7626.8995 298.0815 -577.8124 -485.3196 31744.9914 -88.2649 -30.7588
TCL: Running FEP window   8: Lambda1 0.6499999999999997 Lambda2 0.5999999999999996 [dLambda -0.050000000000000044]
TCL: Setting parameter firsttimestep to 0
TCL: Setting parameter alchLambda to 0.6499999999999997
Info: NONBONDED TABLE R-SQUARED SPACING: 0.0625
Info: NONBONDED TABLE SIZE: 705 POINTS
TCL: Setting parameter alchLambda2 to 0.5999999999999996
Info: NONBONDED TABLE R-SQUARED SPACING: 0.0625
Info: NONBONDED TABLE SIZE: 705 POINTS
TCL: Running for 1500000 steps
ETITLE: TS BOND ANGLE DIHED IMPRP ELECT VDW BOUNDARY MISC KINETIC TOTAL TEMP POTENTIAL TOTALAVG TEMPAVG PRESSURE GPRESSURE VOLUME PRESSAVG GPRESSAVG
ENERGY: 0 0.3421 4.4102 0.1347 0.0000 -10714.1369 1412.1611 0.0000 0.0000 1745.8060 -7551.2829 293.8226 -9297.0888 -7551.2829 293.8226 -564.4796 -489.2378 31744.9914 -564.4796 -489.2378
ENERGY: 300000 0.2229 7.8341 0.3689 0.0000 -10926.9437 1472.0015 0.0000 0.0000 1772.1548 -7674.3614 298.2572 -9446.5163 -7596.3231 298.9846 -73.2328 -31.6310 30828.1680 -248.2455 -187.2065
ENERGY: 600000 0.4762 1.9113 0.3922 0.0000 -10822.2021 1422.1366 0.0000 0.0000 1777.0131 -7620.2726 299.0748 -9397.2857 -7618.9197 298.4860 -266.8782 -247.8102 31035.6195 -189.5065 -127.0949
ENERGY: 900000 0.7208 4.4912 0.2811 0.0000 -10806.1985 1456.3796 0.0000 0.0000 1772.7105 -7571.6154 298.3507 -9344.3259 -7618.6653 298.6145 -208.8294 -124.8400 31410.9775 -53.7692 4.0754
ENERGY: 1200000 3.9086 3.3376 0.0320 0.0000 -10977.0514 1534.5789 0.0000 0.0000 1829.1345 -7606.0598 307.8469 -9435.1943 -7612.0749 300.5913 574.8012 643.3531 30254.1311 21.4802 89.6258
ENERGY: 1500000 1.3165 2.0050 0.2155 0.0000 -10756.7231 1378.3956 0.0000 0.0000 1840.6357 -7534.1548 309.7826 -9374.7905 -7602.0730 301.9184 -679.8360 -663.7396 30967.6854 -48.4254 18.8601
TCL: Running FEP window   9: Lambda1 0.5999999999999996 Lambda2 0.5499999999999996 [dLambda -0.050000000000000044]
TCL: Setting parameter firsttimestep to 0
TCL: Setting parameter alchLambda to 0.5999999999999996
Info: NONBONDED TABLE R-SQUARED SPACING: 0.0625
Info: NONBONDED TABLE SIZE: 705 POINTS
TCL: Setting parameter alchLambda2 to 0.5499999999999996
Info: NONBONDED TABLE R-SQUARED SPACING: 0.0625
Info: NONBONDED TABLE SIZE: 705 POINTS
TCL: Running for 1500000 steps
ETITLE: TS BOND ANGLE DIHED IMPRP ELECT VDW BOUNDARY MISC KINETIC TOTAL TEMP POTENTIAL TOTALAVG TEMPAVG PRESSURE GPRESSURE VOLUME PRESSAVG GPRESSAVG
ENERGY: 0 1.3165 2.0050 0.2155 0.0000 -10756.9031 1378.7763 0.0000 0.0000 1839.7409 -7534.8489 309.6320 -9374.5898 -7534.8489 309.6320 -753.1483 -663.3008 30967.6854 -753.1483 -663.3008
ENERGY: 300000 0.2267 2.2545 0.0396 0.0000 -10781.2465 1434.8413 0.0000 0.0000 1764.7423 -7579.1421 297.0096 -9343.8844 -7562.7110 303.2428 -213.1774 -180.4893 31098.0328 -121.6299 -59.5835
ENERGY: 600000 0.5103 4.9625 0.1080 0.0000 -10749.8645 1376.5990 0.0000 0.0000 1774.5199 -7593.1648 298.6552 -9367.6846 -7584.8071 301.8635 -523.2034 -450.3017 30770.3702 -204.1649 -127.6776
ENERGY: 900000 0.1447 2.5340 0.0567 0.0000 -10821.4403 1387.9348 0.0000 0.0000 1859.3696 -7571.4006 312.9356 -9430.7702 -7589.0623 301.2970 -765.7487 -660.0271 30943.9225 -374.6216 -310.0816
ENERGY: 1200000 0.9693 4.5636 0.3080 0.0000 -10831.1077 1478.0640 0.0000 0.0000 1807.9825 -7539.2204 304.2870 -9347.2029 -7578.3943 302.1095 127.7272 241.9272 30559.8054 -312.1571 -245.5747
ENERGY: 1500000 1.2769 3.0122 0.5045 0.0000 -10981.4383 1522.5456 0.0000 0.0000 1792.8185 -7661.2808 301.7349 -9454.0992 -7579.2507 302.0115 215.7751 233.7745 30911.8635 -241.9954 -184.0278
TCL: Running FEP window  10: Lambda1 0.5499999999999996 Lambda2 0.4999999999999996 [dLambda -0.04999999999999999]
TCL: Setting parameter firsttimestep to 0
TCL: Setting parameter alchLambda to 0.5499999999999996
Info: NONBONDED TABLE R-SQUARED SPACING: 0.0625
Info: NONBONDED TABLE SIZE: 705 POINTS
TCL: Setting parameter alchLambda2 to 0.4999999999999996
Info: NONBONDED TABLE R-SQUARED SPACING: 0.0625
Info: NONBONDED TABLE SIZE: 705 POINTS
TCL: Running for 1500000 steps
ETITLE: TS BOND ANGLE DIHED IMPRP ELECT VDW BOUNDARY MISC KINETIC TOTAL TEMP POTENTIAL TOTALAVG TEMPAVG PRESSURE GPRESSURE VOLUME PRESSAVG GPRESSAVG
ENERGY: 0 1.2769 3.0122 0.5045 0.0000 -10980.8834 1522.8830 0.0000 0.0000 1791.9335 -7661.2734 301.5859 -9453.2068 -7661.2734 301.5859 143.0448 231.6085 30911.8635 143.0448 231.6085
ENERGY: 300000 0.2034 2.8079 0.7242 0.0000 -10838.4072 1470.1937 0.0000 0.0000 1743.9617 -7620.5163 293.5122 -9364.4780 -7612.9426 296.4741 35.4441 36.7759 31111.9303 -48.8299 13.6341
ENERGY: 600000 1.2299 4.2843 0.0323 0.0000 -10902.6354 1489.5172 0.0000 0.0000 1783.2985 -7624.2734 300.1326 -9407.5719 -7604.4877 299.5300 -51.7162 56.8079 30915.1742 -89.2248 -12.0298
ENERGY: 900000 1.3230 5.4276 0.9585 0.0000 -10903.8207 1485.1684 0.0000 0.0000 1770.5470 -7640.3960 297.9866 -9410.9431 -7624.6310 299.7361 189.2123 323.3636 30411.5982 32.5621 111.1797
ENERGY: 1200000 1.0517 2.6479 0.3971 0.0000 -10771.2757 1391.8967 0.0000 0.0000 1816.0371 -7559.2452 305.6426 -9375.2823 -7615.5702 300.0988 -425.5165 -366.8320 30737.3310 -24.3810 47.6295
ENERGY: 1500000 0.5933 3.2168 0.3821 0.0000 -10919.1577 1523.9451 0.0000 0.0000 1787.9522 -7603.0684 300.9159 -9391.0206 -7621.6415 300.3818 407.5164 516.0101 30537.4322 -31.7151 40.5722
TCL: Running FEP window  11: Lambda1 0.4999999999999996 Lambda2 0.4499999999999996 [dLambda -0.04999999999999999]
TCL: Setting parameter firsttimestep to 0
TCL: Setting parameter alchLambda to 0.4999999999999996
Info: NONBONDED TABLE R-SQUARED SPACING: 0.0625
Info: NONBONDED TABLE SIZE: 705 POINTS
TCL: Setting parameter alchLambda2 to 0.4499999999999996
Info: NONBONDED TABLE R-SQUARED SPACING: 0.0625
Info: NONBONDED TABLE SIZE: 705 POINTS
TCL: Running for 1500000 steps
ETITLE: TS BOND ANGLE DIHED IMPRP ELECT VDW BOUNDARY MISC KINETIC TOTAL TEMP POTENTIAL TOTALAVG TEMPAVG PRESSURE GPRESSURE VOLUME PRESSAVG GPRESSAVG
ENERGY: 0 0.5933 3.2168 0.3821 0.0000 -10919.4656 1523.8158 0.0000 0.0000 1787.0488 -7604.4088 300.7638 -9391.4576 -7604.4088 300.7638 430.0153 509.2439 30537.4322 430.0153 509.2439
ENERGY: 300000 0.3629 1.9466 0.0704 0.0000 -10806.2297 1452.3465 0.0000 0.0000 1805.7300 -7545.7733 303.9079 -9351.5034 -7608.8572 298.6252 -41.8278 19.4499 31190.3733 143.5713 201.8985
ENERGY: 600000 0.0341 3.3689 0.0361 0.0000 -10883.4886 1473.5168 0.0000 0.0000 1762.6806 -7643.8523 296.6626 -9406.5329 -7613.8751 300.1617 -25.4800 82.0642 30636.4002 38.3124 110.9338
ENERGY: 900000 1.1250 3.8641 0.1170 0.0000 -10735.4986 1381.9226 0.0000 0.0000 1776.2648 -7572.2052 298.9489 -9348.4700 -7612.4690 300.6029 -780.9992 -739.8192 31256.9085 -80.9026 -17.2316
ENERGY: 1200000 1.2739 3.2339 0.0814 0.0000 -10931.2950 1460.6101 0.0000 0.0000 1783.7546 -7682.3410 300.2094 -9466.0957 -7621.4776 300.3281 -2.5435 -9.3939 30337.7840 -137.4018 -74.8099
ENERGY: 1500000 1.4915 3.4102 0.1034 0.0000 -10748.6620 1351.4990 0.0000 0.0000 1779.9145 -7612.2434 299.5631 -9392.1579 -7616.9963 300.0182 -1190.3559 -1073.8871 31125.2023 -274.6249 -205.4962
TCL: Running FEP window  12: Lambda1 0.4499999999999996 Lambda2 0.39999999999999963 [dLambda -0.04999999999999999]
TCL: Setting parameter firsttimestep to 0
TCL: Setting parameter alchLambda to 0.4499999999999996
Info: NONBONDED TABLE R-SQUARED SPACING: 0.0625
Info: NONBONDED TABLE SIZE: 705 POINTS
TCL: Setting parameter alchLambda2 to 0.39999999999999963
Info: NONBONDED TABLE R-SQUARED SPACING: 0.0625
Info: NONBONDED TABLE SIZE: 705 POINTS
TCL: Running for 1500000 steps
ETITLE: TS BOND ANGLE DIHED IMPRP ELECT VDW BOUNDARY MISC KINETIC TOTAL TEMP POTENTIAL TOTALAVG TEMPAVG PRESSURE GPRESSURE VOLUME PRESSAVG GPRESSAVG
ENERGY: 0 1.4915 3.4102 0.1034 0.0000 -10748.6616 1351.5348 0.0000 0.0000 1779.0061 -7613.1156 299.4102 -9392.1217 -7613.1156 299.4102 -1158.9389 -1079.5704 31125.2023 -1158.9389 -1079.5704
ENERGY: 300000 0.1577 3.3607 0.0742 0.0000 -10957.0201 1567.9710 0.0000 0.0000 1749.1682 -7636.2884 294.3885 -9385.4566 -7612.5697 297.2285 763.3946 814.9483 30836.2560 -11.7819 52.0282
ENERGY: 600000 1.8739 2.8708 0.1419 0.0000 -10900.8744 1436.6288 0.0000 0.0000 1717.8527 -7741.5062 289.1180 -9459.3589 -7636.6854 295.5672 -509.2379 -405.0847 30614.6166 64.9367 129.5737
ENERGY: 900000 1.1831 4.6390 0.2198 0.0000 -10841.4735 1484.7253 0.0000 0.0000 1714.7222 -7635.9842 288.5911 -9350.7064 -7619.2310 296.5307 236.5095 322.7685 30844.2859 121.5293 192.3010
ENERGY: 1200000 1.3674 4.1958 0.2295 0.0000 -10850.0972 1434.1478 0.0000 0.0000 1797.7071 -7612.4497 302.5576 -9410.1567 -7613.4450 297.6893 -166.7777 -127.2580 30682.9614 102.8962 169.1933
ENERGY: 1500000 0.6009 5.4134 0.1730 0.0000 -10879.3208 1493.2659 0.0000 0.0000 1792.2154 -7587.6521 301.6334 -9379.8675 -7601.2606 298.6175 167.0305 185.4321 31012.9641 151.4658 215.1714
TCL: Running FEP window  13: Lambda1 0.39999999999999963 Lambda2 0.34999999999999964 [dLambda -0.04999999999999999]
TCL: Setting parameter firsttimestep to 0
TCL: Setting parameter alchLambda to 0.39999999999999963
Info: NONBONDED TABLE R-SQUARED SPACING: 0.0625
Info: NONBONDED TABLE SIZE: 705 POINTS
TCL: Setting parameter alchLambda2 to 0.34999999999999964
Info: NONBONDED TABLE R-SQUARED SPACING: 0.0625
Info: NONBONDED TABLE SIZE: 705 POINTS
TCL: Running for 1500000 steps
ETITLE: TS BOND ANGLE DIHED IMPRP ELECT VDW BOUNDARY MISC KINETIC TOTAL TEMP POTENTIAL TOTALAVG TEMPAVG PRESSURE GPRESSURE VOLUME PRESSAVG GPRESSAVG
ENERGY: 0 0.6009 5.4134 0.1730 0.0000 -10879.3208 1493.4835 0.0000 0.0000 1791.2870 -7588.3629 301.4771 -9379.6499 -7588.3629 301.4771 104.2306 184.3602 31012.9641 104.2306 184.3602
ENERGY: 300000 0.6298 4.4845 0.0783 0.0000 -10889.6540 1448.3513 0.0000 0.0000 1746.6322 -7689.4780 293.9616 -9436.1102 -7636.7770 296.6641 165.4771 152.7814 29957.0539 20.6460 81.3652
ENERGY: 600000 0.3499 2.9427 0.4400 0.0000 -10840.0514 1418.6969 0.0000 0.0000 1800.5898 -7617.0320 303.0428 -9417.6218 -7635.3402 298.8525 -694.3117 -569.0302 31051.6275 -124.3575 -57.5828
ENERGY: 900000 2.1121 1.7733 0.1522 0.0000 -10782.6931 1471.1348 0.0000 0.0000 1772.3109 -7535.2098 298.2834 -9307.5207 -7617.4825 298.9880 53.1552 132.4111 30957.8275 -89.2448 -32.2883
ENERGY: 1200000 0.5505 2.9353 0.0408 0.0000 -10955.9160 1545.4766 0.0000 0.0000 1797.5296 -7609.3833 302.5278 -9406.9129 -7623.0027 299.5573 618.5647 710.5003 30745.3798 4.4085 66.0550
ENERGY: 1500000 1.1611 2.4630 0.5732 0.0000 -10718.2840 1383.8438 0.0000 0.0000 1789.4580 -7540.7849 301.1693 -9330.2428 -7610.8147 299.1657 -606.3547 -583.4800 31288.2427 -42.1597 12.4888
TCL: Running FEP window  14: Lambda1 0.34999999999999964 Lambda2 0.29999999999999966 [dLambda -0.04999999999999999]
TCL: Setting parameter firsttimestep to 0
TCL: Setting parameter alchLambda to 0.34999999999999964
Info: NONBONDED TABLE R-SQUARED SPACING: 0.0625
Info: NONBONDED TABLE SIZE: 705 POINTS
TCL: Setting parameter alchLambda2 to 0.29999999999999966
Info: NONBONDED TABLE R-SQUARED SPACING: 0.0625
Info: NONBONDED TABLE SIZE: 705 POINTS
TCL: Running for 1500000 steps
ETITLE: TS BOND ANGLE DIHED IMPRP ELECT VDW BOUNDARY MISC KINETIC TOTAL TEMP POTENTIAL TOTALAVG TEMPAVG PRESSURE GPRESSURE VOLUME PRESSAVG GPRESSAVG
ENERGY: 0 1.1611 2.4630 0.5732 0.0000 -10718.2839 1384.1425 0.0000 0.0000 1788.5412 -7541.4029 301.0150 -9329.9440 -7541.4029 301.0150 -651.4602 -584.1031 31288.2427 -651.4602 -584.1031
ENERGY: 300000 0.4122 3.6258 1.0204 0.0000 -10774.0670 1379.3384 0.0000 0.0000 1779.8897 -7609.7805 299.5589 -9389.6702 -7562.4782 303.0090 -696.4408 -602.1203 30808.3340 -643.9134 -566.4537
ENERGY: 600000 0.7458 5.6672 0.1196 0.0000 -10671.1942 1400.0336 0.0000 0.0000 1787.8367 -7476.7914 300.8964 -9264.6281 -7575.1186 300.9235 -422.7413 -426.5956 31442.2839 -422.4933 -366.6547
ENERGY: 900000 0.1723 3.6744 0.0608 0.0000 -10788.9930 1415.4982 0.0000 0.0000 1788.3760 -7581.2113 300.9872 -9369.5873 -7585.2169 300.4787 -370.7463 -349.5428 30842.0164 -374.5950 -322.0441
ENERGY: 1200000 1.0915 6.5539 0.0688 0.0000 -10931.2987 1491.1913 0.0000 0.0000 1722.6545 -7709.7387 289.9261 -9432.3931 -7583.9387 300.1457 349.9734 394.9634 30119.7368 -218.0537 -165.2452
ENERGY: 1500000 0.0981 5.2859 0.1074 0.0000 -10918.8616 1485.0817 0.0000 0.0000 1749.1068 -7679.1816 294.3781 -9428.2884 -7587.3836 300.0204 144.2484 258.1393 30341.9124 -192.1487 -134.8709
TCL: Running FEP window  15: Lambda1 0.29999999999999966 Lambda2 0.24999999999999967 [dLambda -0.04999999999999999]
TCL: Setting parameter firsttimestep to 0
TCL: Setting parameter alchLambda to 0.29999999999999966
Info: NONBONDED TABLE R-SQUARED SPACING: 0.0625
Info: NONBONDED TABLE SIZE: 705 POINTS
TCL: Setting parameter alchLambda2 to 0.24999999999999967
Info: NONBONDED TABLE R-SQUARED SPACING: 0.0625
Info: NONBONDED TABLE SIZE: 705 POINTS
TCL: Running for 1500000 steps
ETITLE: TS BOND ANGLE DIHED IMPRP ELECT VDW BOUNDARY MISC KINETIC TOTAL TEMP POTENTIAL TOTALAVG TEMPAVG PRESSURE GPRESSURE VOLUME PRESSAVG GPRESSAVG
ENERGY: 0 0.0981 5.2859 0.1074 0.0000 -10918.8618 1485.3398 0.0000 0.0000 1748.2396 -7679.7909 294.2322 -9428.0305 -7679.7909 294.2322 167.3194 254.4350 30341.9124 167.3194 254.4350
ENERGY: 300000 2.3344 4.4734 0.2769 0.0000 -10677.7971 1394.6799 0.0000 0.0000 1785.9973 -7490.0352 300.5869 -9276.0325 -7554.9702 301.1171 -502.0824 -474.1477 31318.0792 -11.0267 48.5578
ENERGY: 600000 0.4402 4.3424 0.0374 0.0000 -10825.2357 1431.7045 0.0000 0.0000 1820.0994 -7568.6118 306.3263 -9388.7112 -7571.4342 299.0318 -225.2848 -202.0112 30715.2692 -97.6290 -51.3505
ENERGY: 900000 1.7722 3.6336 0.0782 0.0000 -10770.8873 1418.0696 0.0000 0.0000 1793.4032 -7553.9304 301.8333 -9347.3337 -7601.2166 299.0985 -190.4967 -123.9657 30689.7320 -142.5958 -101.4545
ENERGY: 1200000 2.8661 2.2305 0.1727 0.0000 -10815.5780 1429.5614 0.0000 0.0000 1768.7148 -7612.0325 297.6782 -9380.7472 -7601.0262 298.8081 -502.0661 -455.3687 30962.6308 -179.1515 -136.4104
ENERGY: 1500000 0.7731 3.9232 0.1220 0.0000 -10842.0456 1383.7042 0.0000 0.0000 1763.2146 -7690.3085 296.7525 -9453.5232 -7611.2521 298.6558 -752.5630 -725.8067 30580.1462 -253.1893 -214.5984
TCL: Running FEP window  16: Lambda1 0.24999999999999967 Lambda2 0.19999999999999968 [dLambda -0.04999999999999999]
TCL: Setting parameter firsttimestep to 0
TCL: Setting parameter alchLambda to 0.24999999999999967
Info: NONBONDED TABLE R-SQUARED SPACING: 0.0625
Info: NONBONDED TABLE SIZE: 705 POINTS
TCL: Setting parameter alchLambda2 to 0.19999999999999968
Info: NONBONDED TABLE R-SQUARED SPACING: 0.0625
Info: NONBONDED TABLE SIZE: 705 POINTS
TCL: Running for 1500000 steps
ETITLE: TS BOND ANGLE DIHED IMPRP ELECT VDW BOUNDARY MISC KINETIC TOTAL TEMP POTENTIAL TOTALAVG TEMPAVG PRESSURE GPRESSURE VOLUME PRESSAVG GPRESSAVG
ENERGY: 0 0.7731 3.9232 0.1220 0.0000 -10842.0460 1383.9225 0.0000 0.0000 1762.3355 -7690.9696 296.6045 -9453.3051 -7690.9696 296.6045 -809.1294 -726.4654 30580.1462 -809.1294 -726.4654
ENERGY: 300000 1.5148 1.9634 0.4133 0.0000 -10889.7928 1553.3326 0.0000 0.0000 1780.0943 -7552.4744 299.5934 -9332.5688 -7619.2035 297.7271 569.9454 606.0320 31248.8878 -27.2046 41.1838
ENERGY: 600000 0.5039 1.8971 1.0010 0.0000 -10990.0935 1530.6351 0.0000 0.0000 1790.9983 -7665.0581 301.4285 -9456.0564 -7610.8211 300.1121 485.4560 531.8813 30272.5055 169.6301 227.8329
ENERGY: 900000 0.6693 4.7943 0.1781 0.0000 -10720.1121 1421.7750 0.0000 0.0000 1822.0819 -7470.6134 306.6600 -9292.6953 -7591.0361 301.8262 -62.8459 -47.4869 30971.7720 136.8142 185.0183
ENERGY: 1200000 1.4088 2.4222 0.0529 0.0000 -10869.9791 1514.4457 0.0000 0.0000 1815.3841 -7536.2653 305.5327 -9351.6494 -7596.6666 302.3069 165.0068 266.1462 31116.9654 146.4246 202.6359
ENERGY: 1500000 0.0772 3.3205 0.4610 0.0000 -10703.4122 1369.3220 0.0000 0.0000 1715.8134 -7614.4181 288.7748 -9330.2314 -7594.0237 301.5274 -749.9332 -708.0250 31102.0949 89.1598 143.4771
TCL: Running FEP window  17: Lambda1 0.19999999999999968 Lambda2 0.1499999999999997 [dLambda -0.04999999999999999]
TCL: Setting parameter firsttimestep to 0
TCL: Setting parameter alchLambda to 0.19999999999999968
Info: NONBONDED TABLE R-SQUARED SPACING: 0.0625
Info: NONBONDED TABLE SIZE: 705 POINTS
TCL: Setting parameter alchLambda2 to 0.1499999999999997
Info: NONBONDED TABLE R-SQUARED SPACING: 0.0625
Info: NONBONDED TABLE SIZE: 705 POINTS
TCL: Running for 1500000 steps
ETITLE: TS BOND ANGLE DIHED IMPRP ELECT VDW BOUNDARY MISC KINETIC TOTAL TEMP POTENTIAL TOTALAVG TEMPAVG PRESSURE GPRESSURE VOLUME PRESSAVG GPRESSAVG
ENERGY: 0 0.0772 3.3205 0.4610 0.0000 -10703.4121 1369.3488 0.0000 0.0000 1714.9278 -7615.2767 288.6257 -9330.2045 -7615.2767 288.6257 -783.5405 -710.2767 31102.0949 -783.5405 -710.2767
ENERGY: 300000 2.1534 3.8644 0.4446 0.0000 -10810.9763 1433.6871 0.0000 0.0000 1777.2857 -7593.5411 299.1207 -9370.8268 -7613.5113 294.7586 -364.3855 -312.7687 30902.2793 -138.6139 -72.7190
ENERGY: 600000 0.4824 7.3072 0.1635 0.0000 -10891.8311 1429.6228 0.0000 0.0000 1714.6620 -7739.5934 288.5810 -9454.2553 -7638.2637 295.5066 -467.4559 -371.8386 30421.7132 -239.1639 -159.3688
ENERGY: 900000 2.5469 2.9739 0.4943 0.0000 -10806.3866 1450.3910 0.0000 0.0000 1821.4742 -7528.5062 306.5577 -9349.9804 -7618.8889 295.6526 67.2091 77.0925 30553.5007 -223.7449 -145.9004
ENERGY: 1200000 0.5388 5.1405 0.7875 0.0000 -10820.1902 1476.8732 0.0000 0.0000 1793.7397 -7543.1106 301.8899 -9336.8502 -7602.5911 298.1888 241.9258 304.8140 30769.9619 -156.1327 -83.0762
ENERGY: 1500000 1.2232 6.7422 0.0789 0.0000 -10782.1323 1401.0634 0.0000 0.0000 1776.5405 -7596.4841 298.9953 -9373.0246 -7599.2284 298.8597 -476.8249 -432.4620 30933.8545 -155.7366 -86.6199
TCL: Running FEP window  18: Lambda1 0.1499999999999997 Lambda2 0.09999999999999969 [dLambda -0.05 ]
TCL: Setting parameter firsttimestep to 0
TCL: Setting parameter alchLambda to 0.1499999999999997
Info: NONBONDED TABLE R-SQUARED SPACING: 0.0625
Info: NONBONDED TABLE SIZE: 705 POINTS
TCL: Setting parameter alchLambda2 to 0.09999999999999969
Info: NONBONDED TABLE R-SQUARED SPACING: 0.0625
Info: NONBONDED TABLE SIZE: 705 POINTS
TCL: Running for 1500000 steps
ETITLE: TS BOND ANGLE DIHED IMPRP ELECT VDW BOUNDARY MISC KINETIC TOTAL TEMP POTENTIAL TOTALAVG TEMPAVG PRESSURE GPRESSURE VOLUME PRESSAVG GPRESSAVG
ENERGY: 0 1.2232 6.7422 0.0789 0.0000 -10782.1317 1401.0029 0.0000 0.0000 1775.6688 -7597.4157 298.8486 -9373.0845 -7597.4157 298.8486 -497.3934 -435.2606 30933.8545 -497.3934 -435.2606
ENERGY: 300000 0.6326 3.2790 0.0881 0.0000 -10863.1580 1442.2395 0.0000 0.0000 1729.6081 -7687.3107 291.0964 -9416.9187 -7625.2139 298.9878 -278.1535 -232.3563 30701.4264 -133.1099 -100.7755
ENERGY: 600000 1.5067 2.3979 0.9094 0.0000 -10848.0233 1479.9505 0.0000 0.0000 1791.8409 -7571.4179 301.5703 -9363.2587 -7607.8299 300.3042 39.2676 134.4444 30807.2341 -206.2360 -151.0751
ENERGY: 900000 0.7860 5.1641 0.1328 0.0000 -10935.2818 1507.6744 0.0000 0.0000 1787.0891 -7634.4354 300.7706 -9421.5244 -7608.3099 300.8406 583.5143 570.5475 30162.6279 -93.9981 -48.1387
ENERGY: 1200000 3.1957 2.4612 0.0578 0.0000 -10959.3093 1521.2316 0.0000 0.0000 1765.2009 -7667.1620 297.0868 -9432.3629 -7627.4708 299.3138 128.4045 220.1210 30521.7230 18.0946 70.7359
ENERGY: 1500000 0.1462 4.5690 0.2113 0.0000 -10780.1488 1399.7496 0.0000 0.0000 1807.3347 -7568.1381 304.1780 -9375.4728 -7618.7395 299.9846 -639.3735 -536.4131 30852.1912 46.8010 102.7814
TCL: Running FEP window  19: Lambda1 0.09999999999999969 Lambda2 0.049999999999999684 [dLambda -0.05 ]
TCL: Setting parameter firsttimestep to 0
TCL: Setting parameter alchLambda to 0.09999999999999969
Info: NONBONDED TABLE R-SQUARED SPACING: 0.0625
Info: NONBONDED TABLE SIZE: 705 POINTS
TCL: Setting parameter alchLambda2 to 0.049999999999999684
Info: NONBONDED TABLE R-SQUARED SPACING: 0.0625
Info: NONBONDED TABLE SIZE: 705 POINTS
TCL: Running for 1500000 steps
ETITLE: TS BOND ANGLE DIHED IMPRP ELECT VDW BOUNDARY MISC KINETIC TOTAL TEMP POTENTIAL TOTALAVG TEMPAVG PRESSURE GPRESSURE VOLUME PRESSAVG GPRESSAVG
ENERGY: 0 0.1462 4.5690 0.2113 0.0000 -10780.1490 1399.3311 0.0000 0.0000 1806.4541 -7569.4373 304.0298 -9375.8914 -7569.4373 304.0298 -612.6571 -540.9197 30852.1912 -612.6571 -540.9197
ENERGY: 300000 1.0632 2.6574 0.0238 0.0000 -10830.0495 1433.8325 0.0000 0.0000 1842.7649 -7549.7078 310.1410 -9392.4727 -7601.3384 303.7270 -187.4302 -235.7108 30784.4317 213.6168 275.7615
ENERGY: 600000 2.3902 2.9843 0.1106 0.0000 -10714.9128 1373.5473 0.0000 0.0000 1775.4351 -7560.4452 298.8092 -9335.8803 -7581.8190 303.5137 -794.7127 -709.2968 31071.5254 -92.5311 -20.2159
ENERGY: 900000 1.8992 4.1781 0.2564 0.0000 -10857.1674 1503.6004 0.0000 0.0000 1790.0755 -7557.1577 301.2732 -9347.2333 -7586.2572 302.9191 513.8677 541.6326 30640.2680 -20.5537 46.3543
ENERGY: 1200000 1.0878 3.0614 0.0494 0.0000 -10807.8725 1410.5399 0.0000 0.0000 1734.5053 -7658.6287 291.9207 -9393.1340 -7593.9559 302.2451 -460.2942 -444.4360 30830.3214 -137.0297 -75.4511
ENERGY: 1500000 0.4019 2.3816 0.2032 0.0000 -10869.9491 1423.4921 0.0000 0.0000 1823.7566 -7619.7137 306.9418 -9443.4703 -7595.7201 301.9265 -547.1357 -457.3545 30796.3830 -206.7518 -143.4931
TCL: Running FEP window  20: Lambda1 0.049999999999999684 Lambda2 0.0    [dLambda -0.049999999999999684]
TCL: Setting parameter firsttimestep to 0
TCL: Setting parameter alchLambda to 0.049999999999999684
Info: NONBONDED TABLE R-SQUARED SPACING: 0.0625
Info: NONBONDED TABLE SIZE: 705 POINTS
TCL: Setting parameter alchLambda2 to 0.0
Info: NONBONDED TABLE R-SQUARED SPACING: 0.0625
Info: NONBONDED TABLE SIZE: 705 POINTS
TCL: Running for 1500000 steps
ETITLE: TS BOND ANGLE DIHED IMPRP ELECT VDW BOUNDARY MISC KINETIC TOTAL TEMP POTENTIAL TOTALAVG TEMPAVG PRESSURE GPRESSURE VOLUME PRESSAVG GPRESSAVG
ENERGY: 0 0.4019 2.3816 0.2032 0.0000 -10869.9484 1423.4712 0.0000 0.0000 1822.8963 -7620.5942 306.7970 -9443.4905 -7620.5942 306.7970 -547.1675 -460.2532 30796.3830 -547.1675 -460.2532
ENERGY: 300000 0.1186 4.9177 0.7616 0.0000 -10704.5874 1359.7229 0.0000 0.0000 1807.5664 -7531.5003 304.2170 -9339.0667 -7594.4097 299.5491 -694.8020 -646.4393 30986.4012 -326.9973 -252.7793
ENERGY: 600000 0.1808 1.8031 0.0404 0.0000 -10670.1133 1370.4959 0.0000 0.0000 1856.3708 -7441.2223 312.4309 -9297.5931 -7580.4813 301.5762 -445.2141 -396.9137 30928.0853 -248.2473 -168.8189
ENERGY: 900000 2.7132 3.5306 1.6909 0.0000 -10695.1356 1376.5771 0.0000 0.0000 1794.2160 -7516.4077 301.9701 -9310.6237 -7574.3695 302.0599 -623.5604 -503.1107 31096.4376 -250.9975 -167.2404
ENERGY: 1200000 0.4598 3.3115 1.0811 0.0000 -10774.5722 1432.0784 0.0000 0.0000 1840.7838 -7496.8577 309.8075 -9337.6414 -7573.1886 301.9922 -203.8416 -132.6094 30749.1230 -344.8878 -261.8801
ENERGY: 1500000 5.1790 4.3080 0.0366 0.0000 -10760.2866 1393.2454 0.0000 0.0000 1832.1601 -7525.3575 308.3562 -9357.5177 -7579.9432 302.2282 -493.2544 -434.4104 30768.7899 -354.3238 -284.9400
TCL: Exiting due to exit command.
