Info: SIMULATION PARAMETERS:
Info: TIMESTEP               2
Info: NUMBER OF STEPS        0
Info: STEPS PER CYCLE        10
Info: PERIODIC CELL BASIS 1  31.5159 0 0
Info: PERIODIC CELL BASIS 2  0 29.9885 0
Info: PERIODIC CELL BASIS 3  0 0 31.2691
Info: PERIODIC CELL CENTER   0 0 0
Info: WRAPPING WATERS AROUND PERIODIC BOUNDARIES ON OUTPUT.
Info: WRAPPING ALL CLUSTERS AROUND PERIODIC BOUNDARIES ON OUTPUT.
Info: FIRST LDB TIMESTEP     50
Info: LAST LDB TIMESTEP     -1
Info: HOM BACKGROUND SCALING 1
Info: PME BACKGROUND SCALING 1
Info: MIN ATOMS PER PATCH    40
Info: EMPTY PATCH LOAD       40 ATOMS
Info: VELOCITY FILE          mobley_9073553_equil.vel
Info: CENTER OF MASS MOVING INITIALLY? NO
Info: DIELECTRIC             1
Info: EXCLUDE                SCALED ONE-FOUR
Info: 1-4 ELECTROSTATICS SCALED BY 0.833333
Info: MODIFIED 1-4 VDW PARAMETERS WILL BE USED
Info: DCD FILENAME           mobley_9073553_prod.dcd
Info: DCD FREQUENCY          100000
Info: DCD FIRST STEP         100000
Info: DCD FILE WILL CONTAIN UNIT CELL DATA
Info: XST FILENAME           mobley_9073553_prod.xst
Info: XST FREQUENCY          100000
Info: NO VELOCITY DCD OUTPUT
Info: NO FORCE DCD OUTPUT
Info: OUTPUT FILENAME        mobley_9073553_prod
Info: BINARY OUTPUT FILES WILL BE USED
Info: RESTART FILENAME       mobley_9073553_prod.restart
Info: RESTART FREQUENCY      100000
Info: BINARY RESTART FILES WILL BE USED
Info: CUTOFF                 9
Info: PAIRLIST DISTANCE      11
Info: PAIRLIST SHRINK RATE   0.01
Info: PAIRLIST GROW RATE     0.01
Info: PAIRLIST TRIGGER       0.3
Info: PAIRLISTS PER CYCLE    2
Info: PAIRLISTS ENABLED
Info: MARGIN                 2
Info: HYDROGEN GROUP CUTOFF  2.5
Info: PATCH DIMENSION        15.5
Info: ENERGY OUTPUT STEPS    100000
Info: ENERGY EVALUATION STEPS    100000
Info: OUTPUT ENERGY PRECISION 4
Info: CROSSTERM ENERGY INCLUDED IN DIHEDRAL
Info: TIMING OUTPUT STEPS    1000000
Info: PRESSURE OUTPUT STEPS  100000
Info: ALCHEMICAL FEP ON
Info: FEP CURRENT LAMBDA VALUE     1
Info: FEP COMPARISON LAMBDA VALUE  0.95
Info: FEP INTRA-ALCHEMICAL NON-BONDED INTERACTIONS WILL BE RETAINED
Info: FEP INTRA-ALCHEMICAL BONDED INTERACTIONS WILL BE RETAINED
Info: FEP VDW SHIFTING COEFFICIENT 5
Info: FEP ELEC. ACTIVE FOR ANNIHILATED PARTICLES BETWEEN LAMBDA = 0 AND LAMBDA = 0.5
Info: FEP ELEC. ACTIVE FOR EXNIHILATED PARTICLES BETWEEN LAMBDA = 0.5 AND LAMBDA = 1
Info: FEP VDW ACTIVE FOR ANNIHILATED PARTICLES BETWEEN LAMBDA = 0 AND LAMBDA = 1
Info: FEP VDW ACTIVE FOR EXNIHILATED PARTICLES BETWEEN LAMBDA = 0 AND LAMBDA = 1
Info: FEP BOND ACTIVE FOR ANNIHILATED PARTICLES BETWEEN LAMBDA = 1 AND LAMBDA = 1
Info: FEP BOND ACTIVE FOR EXNIHILATED PARTICLES BETWEEN LAMBDA = 0 AND LAMBDA = 0
Info: LANGEVIN DYNAMICS ACTIVE
Info: LANGEVIN TEMPERATURE   300
Info: LANGEVIN USING BBK INTEGRATOR
Info: LANGEVIN DAMPING COEFFICIENT IS 1 INVERSE PS
Info: LANGEVIN DYNAMICS APPLIED TO HYDROGENS
Info: LANGEVIN PISTON PRESSURE CONTROL ACTIVE
Info:        TARGET PRESSURE IS 1.01325 BAR
Info:     OSCILLATION PERIOD IS 50 FS
Info:             DECAY TIME IS 25 FS
Info:     PISTON TEMPERATURE IS 300 K
Info:       PRESSURE CONTROL IS GROUP-BASED
Info:    INITIAL STRAIN RATE IS 4.83133e-05 4.83133e-05 4.83133e-05
Info:       CELL FLUCTUATION IS ISOTROPIC
Info: PARTICLE MESH EWALD (PME) ACTIVE
Info: PME TOLERANCE               1e-06
Info: PME EWALD COEFFICIENT       0.348832
Info: PME INTERPOLATION ORDER     4
Info: PME GRID DIMENSIONS         32 32 32
Info: PME MAXIMUM GRID SPACING    1
Info: PME CALCULATION WILL BE PERFORMED ON GPU
Info: FULL ELECTROSTATIC EVALUATION FREQUENCY      2
Info: USING VERLET I (r-RESPA) MTS SCHEME.
Info: C1 SPLITTING OF LONG RANGE ELECTROSTATICS
Info: PLACING ATOMS IN PATCHES BY HYDROGEN GROUPS
Info: RIGID BONDS TO HYDROGEN : ALL
Info:         ERROR TOLERANCE : 1e-08
Info:          MAX ITERATIONS : 100
Info: RIGID WATER USING SETTLE ALGORITHM
Info: RANDOM NUMBER SEED     1743518670
Info: USE HYDROGEN BONDS?    NO
Info: Using AMBER format force field!
Info: AMBER PARM FILE        mobley_9073553.prmtop
Info: COORDINATE PDB         mobley_9073553.pdb
Info: Exclusions will be read from PARM file!
Info: SCNB (VDW SCALING)     2
Info: USING ARITHMETIC MEAN TO COMBINE L-J SIGMA PARAMETERS
Info: BINARY COORDINATES     mobley_9073553_equil.coor
Info: SUMMARY OF PARAMETERS:
Info: 4 BONDS
Info: 3 ANGLES
Info:   3 HARMONIC
Info:   0 COSINE-BASED
Info: 1 DIHEDRAL
Info: 0 IMPROPER
Info: 0 CROSSTERM
Info: 0 VDW
Info: 15 VDW_PAIRS
Info: 0 NBTHOLE_PAIRS
Info: To read alchdata from file: mobley_9073553.pdb
Info: To read alchflag data from column: 5
Info: STRUCTURE SUMMARY:
Info: 2925 ATOMS
Info: 2924 BONDS
Info: 13 ANGLES
Info: 6 DIHEDRALS
Info: 0 IMPROPERS
Info: 0 CROSSTERMS
Info: 2943 EXCLUSIONS
Info: 2922 RIGID BONDS
Info: ALCH: 0 ATOMS TO DISAPPEAR IN FINAL STATE
Info: ALCH: 9 ATOMS TO APPEAR IN FINAL STATE
Info: 5853 DEGREES OF FREEDOM
Info: 975 HYDROGEN GROUPS
Info: 4 ATOMS IN LARGEST HYDROGEN GROUP
Info: 975 MIGRATION GROUPS
Info: 4 ATOMS IN LARGEST MIGRATION GROUP
Info: TOTAL MASS = 17573.7 amu
Info: TOTAL CHARGE = 0.00029999 e
Info: MASS DENSITY = 0.987467 g/cm^3
Info: ATOM DENSITY = 0.0989752 atoms/A^3
Info: ADDED 0 IMPLICIT EXCLUSIONS
Info: NONBONDED TABLE R-SQUARED SPACING: 0.0625
Info: NONBONDED TABLE SIZE: 705 POINTS
Info: REMOVING COM VELOCITY 0.209061 -0.147176 -0.00880973
Info: Use 3D box decompostion in PME FFT.
Info: Updated CUDA force table with 4096 elements.
Info: Updated CUDA LJ table with 5 x 5 elements.
Info: Found 12 unique exclusion lists needing 16 bytes
TCL: Running for 1500000 steps
ETITLE: TS BOND ANGLE DIHED IMPRP ELECT VDW BOUNDARY MISC KINETIC TOTAL TEMP POTENTIAL TOTALAVG TEMPAVG PRESSURE GPRESSURE VOLUME PRESSAVG GPRESSAVG
ENERGY: 0 0.2961 4.6952 0.5393 0.0000 -10651.4519 1425.7302 0.0000 0.0000 1669.4949 -7550.6963 287.0761 -9220.1913 -7550.6963 287.0761 19.4037 119.4627 29552.8598 19.4037 119.4627
ENERGY: 300000 0.4770 3.8790 0.1864 0.0000 -10583.8520 1435.3242 0.0000 0.0000 1787.4585 -7356.5271 307.3603 -9143.9855 -7444.1267 299.0660 146.0932 244.3165 30074.9335 277.4112 351.7282
ENERGY: 600000 1.1068 6.4492 0.9742 0.0000 -10661.1576 1455.4313 0.0000 0.0000 1766.0475 -7431.1485 303.6786 -9197.1960 -7443.4940 299.5157 260.4152 298.5307 29860.2807 120.7176 191.6577
ENERGY: 900000 0.2380 3.2122 0.2892 0.0000 -10676.7852 1443.0417 0.0000 0.0000 1689.5871 -7540.4170 290.5310 -9230.0040 -7459.5727 297.7632 -49.4697 2.2407 30324.2305 -33.9867 31.7869
ENERGY: 1200000 1.2959 4.8003 1.0027 0.0000 -10682.0012 1439.5956 0.0000 0.0000 1758.9988 -7476.3079 302.4666 -9235.3067 -7456.9994 298.5004 25.1446 138.7006 29725.9597 -21.1585 50.7367
ENERGY: 1500000 0.6783 4.5751 0.5931 0.0000 -10482.7260 1318.5691 0.0000 0.0000 1769.7297 -7388.5808 304.3118 -9158.3105 -7444.5495 299.8724 -731.7269 -672.6186 30121.5218 -74.8327 -6.7749
TCL: Running FEP window   2: Lambda1 0.95   Lambda2 0.8999999999999999 [dLambda -0.050000000000000044]
TCL: Setting parameter firsttimestep to 0
TCL: Setting parameter alchLambda to 0.95
Info: NONBONDED TABLE R-SQUARED SPACING: 0.0625
Info: NONBONDED TABLE SIZE: 705 POINTS
TCL: Setting parameter alchLambda2 to 0.8999999999999999
Info: NONBONDED TABLE R-SQUARED SPACING: 0.0625
Info: NONBONDED TABLE SIZE: 705 POINTS
TCL: Running for 1500000 steps
ETITLE: TS BOND ANGLE DIHED IMPRP ELECT VDW BOUNDARY MISC KINETIC TOTAL TEMP POTENTIAL TOTALAVG TEMPAVG PRESSURE GPRESSURE VOLUME PRESSAVG GPRESSAVG
ENERGY: 0 0.6783 4.5751 0.5931 0.0000 -10482.2912 1317.9817 0.0000 0.0000 1768.8475 -7389.6156 304.1601 -9158.4631 -7389.6156 304.1601 -763.5373 -688.1414 30121.5218 -763.5373 -688.1414
ENERGY: 300000 1.0956 7.3331 0.4993 0.0000 -10527.5698 1382.3980 0.0000 0.0000 1765.7719 -7370.4719 303.6312 -9136.2439 -7414.2200 303.7290 -389.6348 -256.7507 30611.2411 -413.5163 -320.0068
ENERGY: 600000 1.5080 4.3696 1.1136 0.0000 -10579.1574 1431.6166 0.0000 0.0000 1748.9110 -7391.6385 300.7319 -9140.5495 -7400.1173 302.9504 224.4353 284.0262 30109.3159 -203.2629 -124.8932
ENERGY: 900000 0.0398 3.3652 0.3211 0.0000 -10653.4714 1453.2363 0.0000 0.0000 1742.3696 -7454.1396 299.6071 -9196.5092 -7411.4870 301.9358 14.0902 103.5095 30249.1707 -115.6788 -42.2771
ENERGY: 1200000 0.9150 1.8723 0.3051 0.0000 -10543.1318 1354.2999 0.0000 0.0000 1746.8298 -7438.9096 300.3741 -9185.7394 -7411.9801 301.6850 -796.1375 -773.0440 30686.1921 -209.8346 -136.5750
ENERGY: 1500000 0.1198 4.5209 0.1547 0.0000 -10551.3027 1404.0006 0.0000 0.0000 1777.3878 -7365.1189 305.6286 -9142.5066 -7408.9373 301.9392 -18.5424 41.7146 30063.5958 -169.4220 -99.5960
TCL: Running FEP window   3: Lambda1 0.8999999999999999 Lambda2 0.8499999999999999 [dLambda -0.050000000000000044]
TCL: Setting parameter firsttimestep to 0
TCL: Setting parameter alchLambda to 0.8999999999999999
Info: NONBONDED TABLE R-SQUARED SPACING: 0.0625
Info: NONBONDED TABLE SIZE: 705 POINTS
TCL: Setting parameter alchLambda2 to 0.8499999999999999
Info: NONBONDED TABLE R-SQUARED SPACING: 0.0625
Info: NONBONDED TABLE SIZE: 705 POINTS
TCL: Running for 1500000 steps
ETITLE: TS BOND ANGLE DIHED IMPRP ELECT VDW BOUNDARY MISC KINETIC TOTAL TEMP POTENTIAL TOTALAVG TEMPAVG PRESSURE GPRESSURE VOLUME PRESSAVG GPRESSAVG
ENERGY: 0 0.1198 4.5209 0.1547 0.0000 -10550.8789 1403.4275 0.0000 0.0000 1776.5152 -7366.1407 305.4786 -9142.6560 -7366.1407 305.4786 -61.3961 26.6267 30063.5958 -61.3961 26.6267
ENERGY: 300000 0.1303 1.2716 0.0360 0.0000 -10660.1568 1483.0245 0.0000 0.0000 1754.7872 -7420.9072 301.7424 -9175.6944 -7437.1400 298.7672 720.5992 826.1478 29508.9038 193.6295 251.5860
ENERGY: 600000 0.3228 2.6386 0.6363 0.0000 -10446.4478 1335.4323 0.0000 0.0000 1664.0705 -7443.3472 286.1433 -9107.4177 -7441.4218 297.8355 -757.0303 -701.8967 30716.2803 -13.7395 45.0978
ENERGY: 900000 1.5619 4.3136 0.8584 0.0000 -10761.2300 1504.7208 0.0000 0.0000 1744.9639 -7504.8113 300.0532 -9249.7752 -7447.8265 299.0804 598.6185 639.7193 29750.3265 105.3940 166.7682
ENERGY: 1200000 0.2789 3.1799 1.3329 0.0000 -10621.7030 1435.9740 0.0000 0.0000 1770.7006 -7410.2367 304.4788 -9180.9373 -7444.6456 299.9368 89.3052 126.8204 30017.7352 -2.2066 66.8237
ENERGY: 1500000 0.0809 3.5930 0.2214 0.0000 -10562.8730 1393.4883 0.0000 0.0000 1780.0871 -7385.4023 306.0928 -9165.4893 -7445.3384 300.7496 -402.0685 -267.5444 30266.6978 -25.0984 52.7480
TCL: Running FEP window   4: Lambda1 0.8499999999999999 Lambda2 0.7999999999999998 [dLambda -0.050000000000000044]
TCL: Setting parameter firsttimestep to 0
TCL: Setting parameter alchLambda to 0.8499999999999999
Info: NONBONDED TABLE R-SQUARED SPACING: 0.0625
Info: NONBONDED TABLE SIZE: 705 POINTS
TCL: Setting parameter alchLambda2 to 0.7999999999999998
Info: NONBONDED TABLE R-SQUARED SPACING: 0.0625
Info: NONBONDED TABLE SIZE: 705 POINTS
TCL: Running for 1500000 steps
ETITLE: TS BOND ANGLE DIHED IMPRP ELECT VDW BOUNDARY MISC KINETIC TOTAL TEMP POTENTIAL TOTALAVG TEMPAVG PRESSURE GPRESSURE VOLUME PRESSAVG GPRESSAVG
ENERGY: 0 0.0809 3.5930 0.2214 0.0000 -10562.8233 1393.8253 0.0000 0.0000 1779.1565 -7385.9461 305.9328 -9165.1027 -7385.9461 305.9328 -360.0634 -271.9860 30266.6978 -360.0634 -271.9860
ENERGY: 300000 0.2779 4.7961 0.0827 0.0000 -10737.4303 1468.7705 0.0000 0.0000 1751.7226 -7511.7803 301.2154 -9263.5029 -7443.4382 302.6859 211.6023 360.1279 29707.9874 262.5727 346.1951
ENERGY: 600000 0.2643 3.7767 3.7825 0.0000 -10626.1701 1447.5896 0.0000 0.0000 1800.5430 -7370.2138 309.6103 -9170.7569 -7422.8849 304.1913 64.2008 182.7389 30435.3742 123.9933 200.6746
ENERGY: 900000 0.6083 4.4255 0.3821 0.0000 -10660.5289 1441.1913 0.0000 0.0000 1740.6416 -7473.2800 299.3100 -9213.9216 -7429.4487 303.5580 204.1639 169.6522 29889.5422 -23.3183 39.4254
ENERGY: 1200000 0.7550 1.9054 1.0315 0.0000 -10599.9526 1418.5006 0.0000 0.0000 1737.0248 -7440.7354 298.6881 -9177.7602 -7437.6017 303.0466 -150.4021 -39.6640 30116.1724 -22.0386 38.4202
ENERGY: 1500000 0.1072 5.6385 0.4903 0.0000 -10502.3368 1448.2986 0.0000 0.0000 1768.6405 -7279.1617 304.1245 -9047.8022 -7415.9448 303.7714 595.4051 689.6519 29895.9137 -33.0767 25.8401
TCL: Running FEP window   5: Lambda1 0.7999999999999998 Lambda2 0.7499999999999998 [dLambda -0.050000000000000044]
TCL: Setting parameter firsttimestep to 0
TCL: Setting parameter alchLambda to 0.7999999999999998
Info: NONBONDED TABLE R-SQUARED SPACING: 0.0625
Info: NONBONDED TABLE SIZE: 705 POINTS
TCL: Setting parameter alchLambda2 to 0.7499999999999998
Info: NONBONDED TABLE R-SQUARED SPACING: 0.0625
Info: NONBONDED TABLE SIZE: 705 POINTS
TCL: Running for 1500000 steps
ETITLE: TS BOND ANGLE DIHED IMPRP ELECT VDW BOUNDARY MISC KINETIC TOTAL TEMP POTENTIAL TOTALAVG TEMPAVG PRESSURE GPRESSURE VOLUME PRESSAVG GPRESSAVG
ENERGY: 0 0.1072 5.6385 0.4903 0.0000 -10501.9577 1448.4314 0.0000 0.0000 1767.7707 -7279.5196 303.9749 -9047.2903 -7279.5196 303.9749 596.1108 684.6576 29895.9137 596.1108 684.6576
ENERGY: 300000 0.1446 3.1859 1.2930 0.0000 -10560.6485 1391.8090 0.0000 0.0000 1738.2787 -7425.9372 298.9037 -9164.2159 -7382.8634 305.1197 -158.2866 -119.2609 29902.0480 407.3044 479.2143
ENERGY: 600000 0.7071 3.4449 0.1315 0.0000 -10703.2599 1506.0690 0.0000 0.0000 1789.4432 -7403.4642 307.7016 -9192.9074 -7398.5282 304.7863 701.7426 785.4890 29639.7811 305.9659 379.3319
ENERGY: 900000 0.5086 3.6970 0.2264 0.0000 -10574.2800 1394.8080 0.0000 0.0000 1772.0311 -7403.0088 304.7075 -9175.0400 -7425.5193 302.3350 -267.8246 -255.3911 30216.8555 137.3065 202.5756
ENERGY: 1200000 0.8629 5.5755 0.4226 0.0000 -10465.7917 1322.1226 0.0000 0.0000 1715.7950 -7421.0132 295.0375 -9136.8082 -7427.7643 301.1533 -691.3249 -614.0807 30223.2545 -11.7805 58.2088
ENERGY: 1500000 0.2649 2.5494 0.3465 0.0000 -10605.6555 1409.0152 0.0000 0.0000 1754.1350 -7439.3445 301.6302 -9193.4795 -7432.6537 301.2225 -16.7361 31.1197 29989.0784 -0.9837 69.7989
TCL: Running FEP window   6: Lambda1 0.7499999999999998 Lambda2 0.6999999999999997 [dLambda -0.050000000000000044]
TCL: Setting parameter firsttimestep to 0
TCL: Setting parameter alchLambda to 0.7499999999999998
Info: NONBONDED TABLE R-SQUARED SPACING: 0.0625
Info: NONBONDED TABLE SIZE: 705 POINTS
TCL: Setting parameter alchLambda2 to 0.6999999999999997
Info: NONBONDED TABLE R-SQUARED SPACING: 0.0625
Info: NONBONDED TABLE SIZE: 705 POINTS
TCL: Running for 1500000 steps
ETITLE: TS BOND ANGLE DIHED IMPRP ELECT VDW BOUNDARY MISC KINETIC TOTAL TEMP POTENTIAL TOTALAVG TEMPAVG PRESSURE GPRESSURE VOLUME PRESSAVG GPRESSAVG
ENERGY: 0 0.2649 2.5494 0.3465 0.0000 -10605.6242 1408.8971 0.0000 0.0000 1753.3153 -7440.2510 301.4893 -9193.5663 -7440.2510 301.4893 -55.6169 25.9306 29989.0784 -55.6169 25.9306
ENERGY: 300000 0.1291 3.1876 1.2505 0.0000 -10676.2511 1487.8448 0.0000 0.0000 1722.4818 -7461.3572 296.1874 -9183.8390 -7434.9363 301.6731 374.1408 423.4258 30140.2071 172.3124 224.9968
ENERGY: 600000 1.0060 2.8940 0.4554 0.0000 -10539.2758 1367.4478 0.0000 0.0000 1773.5383 -7393.9342 304.9667 -9167.4726 -7447.0555 301.3748 -588.2704 -499.4725 30419.8325 115.5574 166.6927
ENERGY: 900000 0.1739 4.6667 0.6336 0.0000 -10772.5803 1572.6361 0.0000 0.0000 1731.5913 -7462.8787 297.7538 -9194.4700 -7435.4881 301.8921 1179.2197 1257.1914 29871.7568 232.8849 301.4054
ENERGY: 1200000 0.9744 5.4685 1.8258 0.0000 -10588.8296 1426.5646 0.0000 0.0000 1742.9397 -7411.0567 299.7052 -9153.9964 -7427.9117 300.6083 -119.9149 -52.0136 30424.9450 144.0308 202.8944
ENERGY: 1500000 0.0085 3.6507 0.3271 0.0000 -10602.9062 1407.7210 0.0000 0.0000 1692.3605 -7498.8385 291.0079 -9191.1990 -7424.6281 300.5870 -211.5802 -171.8623 30184.4806 39.6902 103.7045
TCL: Running FEP window   7: Lambda1 0.6999999999999997 Lambda2 0.6499999999999997 [dLambda -0.050000000000000044]
TCL: Setting parameter firsttimestep to 0
TCL: Setting parameter alchLambda to 0.6999999999999997
Info: NONBONDED TABLE R-SQUARED SPACING: 0.0625
Info: NONBONDED TABLE SIZE: 705 POINTS
TCL: Setting parameter alchLambda2 to 0.6499999999999997
Info: NONBONDED TABLE R-SQUARED SPACING: 0.0625
Info: NONBONDED TABLE SIZE: 705 POINTS
TCL: Running for 1500000 steps
ETITLE: TS BOND ANGLE DIHED IMPRP ELECT VDW BOUNDARY MISC KINETIC TOTAL TEMP POTENTIAL TOTALAVG TEMPAVG PRESSURE GPRESSURE VOLUME PRESSAVG GPRESSAVG
ENERGY: 0 0.0085 3.6507 0.3271 0.0000 -10602.7825 1407.9335 0.0000 0.0000 1691.5026 -7499.3602 290.8604 -9190.8628 -7499.3602 290.8604 -262.8043 -173.1290 30184.4806 -262.8043 -173.1290
ENERGY: 300000 0.4639 2.2949 1.1505 0.0000 -10420.2808 1328.6710 0.0000 0.0000 1675.7593 -7411.9412 288.1532 -9087.7005 -7454.7105 293.5455 -681.4403 -581.3768 30317.7998 16.3090 84.4657
ENERGY: 600000 1.2915 2.6497 0.5122 0.0000 -10519.9619 1377.6849 0.0000 0.0000 1761.6091 -7376.2144 302.9154 -9137.8235 -7463.6274 295.3662 -280.5665 -281.1060 30323.7643 14.1451 65.6355
ENERGY: 900000 0.3232 2.5965 0.1216 0.0000 -10634.2880 1437.6903 0.0000 0.0000 1706.2292 -7487.3272 293.3926 -9193.5564 -7468.3970 295.8707 41.8630 168.1509 30001.4789 14.2718 66.9608
ENERGY: 1200000 0.0337 3.1474 1.2037 0.0000 -10670.6325 1455.4853 0.0000 0.0000 1690.2239 -7520.5384 290.6405 -9210.7624 -7467.5428 295.9724 11.7391 62.3760 30254.8739 67.3276 124.5955
ENERGY: 1500000 1.1197 5.2135 0.2817 0.0000 -10553.6012 1397.4497 0.0000 0.0000 1704.5288 -7445.0078 293.1003 -9149.5366 -7464.7143 296.7766 -410.1886 -281.5334 30713.5257 6.3041 67.6568
TCL: Running FEP window   8: Lambda1 0.6499999999999997 Lambda2 0.5999999999999996 [dLambda -0.050000000000000044]
TCL: Setting parameter firsttimestep to 0
TCL: Setting parameter alchLambda to 0.6499999999999997
Info: NONBONDED TABLE R-SQUARED SPACING: 0.0625
Info: NONBONDED TABLE SIZE: 705 POINTS
TCL: Setting parameter alchLambda2 to 0.5999999999999996
Info: NONBONDED TABLE R-SQUARED SPACING: 0.0625
Info: NONBONDED TABLE SIZE: 705 POINTS
TCL: Running for 1500000 steps
ETITLE: TS BOND ANGLE DIHED IMPRP ELECT VDW BOUNDARY MISC KINETIC TOTAL TEMP POTENTIAL TOTALAVG TEMPAVG PRESSURE GPRESSURE VOLUME PRESSAVG GPRESSAVG
ENERGY: 0 1.1197 5.2135 0.2817 0.0000 -10553.8875 1397.5795 0.0000 0.0000 1703.6656 -7446.0275 292.9518 -9149.6931 -7446.0275 292.9518 -361.8368 -285.5725 30713.5257 -361.8368 -285.5725
ENERGY: 300000 0.5433 4.8947 0.7293 0.0000 -10639.4535 1421.1697 0.0000 0.0000 1730.6039 -7481.5127 297.5840 -9212.1166 -7421.0540 299.1792 -323.3443 -237.6717 30240.5098 233.3696 309.1434
ENERGY: 600000 0.1841 8.2966 0.3333 0.0000 -10597.1888 1409.6245 0.0000 0.0000 1726.1600 -7452.5903 296.8198 -9178.7503 -7416.6047 300.0290 57.8289 109.6412 29797.2049 121.6062 183.7451
ENERGY: 900000 1.0485 4.6286 1.4379 0.0000 -10702.3086 1463.7812 0.0000 0.0000 1730.1861 -7501.2263 297.5121 -9231.4124 -7437.6141 299.0194 274.1334 317.3422 29902.8315 192.8767 257.2886
ENERGY: 1200000 1.4518 3.5799 0.6603 0.0000 -10491.9278 1300.8230 0.0000 0.0000 1751.0738 -7434.3392 301.1038 -9185.4129 -7445.4331 299.1038 -958.6027 -864.7998 29970.8244 52.7368 121.1250
ENERGY: 1500000 0.9791 3.3366 0.6465 0.0000 -10587.6737 1424.3407 0.0000 0.0000 1724.2471 -7434.1238 296.4909 -9158.3709 -7449.9771 298.3656 56.7908 177.9152 30105.5675 139.5530 212.5009
TCL: Running FEP window   9: Lambda1 0.5999999999999996 Lambda2 0.5499999999999996 [dLambda -0.050000000000000044]
TCL: Setting parameter firsttimestep to 0
TCL: Setting parameter alchLambda to 0.5999999999999996
Info: NONBONDED TABLE R-SQUARED SPACING: 0.0625
Info: NONBONDED TABLE SIZE: 705 POINTS
TCL: Setting parameter alchLambda2 to 0.5499999999999996
Info: NONBONDED TABLE R-SQUARED SPACING: 0.0625
Info: NONBONDED TABLE SIZE: 705 POINTS
TCL: Running for 1500000 steps
ETITLE: TS BOND ANGLE DIHED IMPRP ELECT VDW BOUNDARY MISC KINETIC TOTAL TEMP POTENTIAL TOTALAVG TEMPAVG PRESSURE GPRESSURE VOLUME PRESSAVG GPRESSAVG
ENERGY: 0 0.9791 3.3366 0.6465 0.0000 -10587.4232 1424.4791 0.0000 0.0000 1723.3333 -7434.6486 296.3338 -9157.9820 -7434.6486 296.3338 84.2731 172.6483 30105.5675 84.2731 172.6483
ENERGY: 300000 0.0025 2.6828 0.5728 0.0000 -10613.5095 1389.8736 0.0000 0.0000 1729.4633 -7490.9144 297.3878 -9220.3777 -7457.0381 296.0840 -429.2967 -315.8576 29961.1073 -290.0432 -217.7003
ENERGY: 600000 0.5137 2.4877 1.9892 0.0000 -10573.0316 1366.6167 0.0000 0.0000 1710.6283 -7490.7960 294.1491 -9201.4243 -7455.1534 295.6734 -642.2430 -586.2226 30284.0370 -291.7038 -243.2399
ENERGY: 900000 0.2081 1.8526 0.1300 0.0000 -10528.2894 1396.5924 0.0000 0.0000 1748.0002 -7381.5062 300.5753 -9129.5064 -7453.5719 295.9943 -91.0235 -10.3098 30140.2965 -318.9280 -251.3107
ENERGY: 1200000 0.4834 4.9477 0.1376 0.0000 -10616.6354 1465.8570 0.0000 0.0000 1769.3001 -7375.9096 304.2379 -9145.2098 -7451.5739 296.9449 290.1653 369.2427 30199.3360 -266.8216 -206.6419
ENERGY: 1500000 0.3747 4.0801 0.5834 0.0000 -10720.8579 1513.6267 0.0000 0.0000 1786.5620 -7415.6311 307.2062 -9202.1931 -7440.9983 298.3193 562.5711 605.2676 30098.1085 -204.1625 -142.5354
TCL: Running FEP window  10: Lambda1 0.5499999999999996 Lambda2 0.4999999999999996 [dLambda -0.04999999999999999]
TCL: Setting parameter firsttimestep to 0
TCL: Setting parameter alchLambda to 0.5499999999999996
Info: NONBONDED TABLE R-SQUARED SPACING: 0.0625
Info: NONBONDED TABLE SIZE: 705 POINTS
TCL: Setting parameter alchLambda2 to 0.4999999999999996
Info: NONBONDED TABLE R-SQUARED SPACING: 0.0625
Info: NONBONDED TABLE SIZE: 705 POINTS
TCL: Running for 1500000 steps
ETITLE: TS BOND ANGLE DIHED IMPRP ELECT VDW BOUNDARY MISC KINETIC TOTAL TEMP POTENTIAL TOTALAVG TEMPAVG PRESSURE GPRESSURE VOLUME PRESSAVG GPRESSAVG
ENERGY: 0 0.3747 4.0801 0.5834 0.0000 -10720.6183 1513.7006 0.0000 0.0000 1785.7060 -7416.1735 307.0590 -9201.8796 -7416.1735 307.0590 521.4461 599.8580 30098.1085 521.4461 599.8580
ENERGY: 300000 1.3920 1.5894 0.4430 0.0000 -10716.5675 1449.8092 0.0000 0.0000 1738.4919 -7524.8421 298.9403 -9263.3340 -7461.1795 302.4838 217.7241 270.5010 29514.2774 128.2366 167.3679
ENERGY: 600000 0.7944 7.8059 0.0590 0.0000 -10553.3130 1378.0788 0.0000 0.0000 1777.2313 -7389.3436 305.6017 -9166.5749 -7449.2814 302.1843 -429.5338 -334.0680 30229.4683 37.8505 81.7290
ENERGY: 900000 0.2036 6.2230 0.9005 0.0000 -10605.8214 1417.2325 0.0000 0.0000 1676.2380 -7505.0238 288.2356 -9181.2618 -7443.7377 300.6695 -82.1592 -37.1424 30074.4840 54.5839 101.9601
ENERGY: 1200000 0.1363 4.7393 0.9569 0.0000 -10582.6815 1366.2143 0.0000 0.0000 1685.1149 -7525.5198 289.7620 -9210.6347 -7436.7265 300.3670 -602.7419 -499.8695 29924.0100 3.0432 60.4376
ENERGY: 1500000 1.6159 7.0312 0.1417 0.0000 -10713.8978 1521.5557 0.0000 0.0000 1775.2991 -7408.2542 305.2695 -9183.5532 -7432.9656 300.3664 500.6796 600.9139 30272.0068 12.1181 70.4897
TCL: Running FEP window  11: Lambda1 0.4999999999999996 Lambda2 0.4499999999999996 [dLambda -0.04999999999999999]
TCL: Setting parameter firsttimestep to 0
TCL: Setting parameter alchLambda to 0.4999999999999996
Info: NONBONDED TABLE R-SQUARED SPACING: 0.0625
Info: NONBONDED TABLE SIZE: 705 POINTS
TCL: Setting parameter alchLambda2 to 0.4499999999999996
Info: NONBONDED TABLE R-SQUARED SPACING: 0.0625
Info: NONBONDED TABLE SIZE: 705 POINTS
TCL: Running for 1500000 steps
ETITLE: TS BOND ANGLE DIHED IMPRP ELECT VDW BOUNDARY MISC KINETIC TOTAL TEMP POTENTIAL TOTALAVG TEMPAVG PRESSURE GPRESSURE VOLUME PRESSAVG GPRESSAVG
ENERGY: 0 1.6160 7.0312 0.1417 0.0000 -10713.8220 1521.7106 0.0000 0.0000 1774.4130 -7408.9096 305.1171 -9183.3226 -7408.9096 305.1171 505.0294 600.0672 30272.0068 505.0294 600.0672
ENERGY: 300000 1.1397 2.0395 1.5533 0.0000 -10715.9574 1481.2277 0.0000 0.0000 1774.9424 -7455.0549 305.2081 -9229.9973 -7413.6651 304.8216 331.9245 384.5160 29736.9519 28.5396 105.4523
ENERGY: 600000 0.3241 3.0614 0.7246 0.0000 -10587.3179 1379.4311 0.0000 0.0000 1802.8317 -7400.9451 310.0038 -9203.7768 -7416.1189 303.6442 -479.1162 -430.1270 30382.1087 -86.4813 -21.9060
ENERGY: 900000 0.8094 3.9038 0.0734 0.0000 -10641.8257 1446.9073 0.0000 0.0000 1783.7855 -7406.3463 306.7288 -9190.1318 -7433.5198 302.8473 203.6682 252.7623 30198.8509 -81.5875 -23.4221
ENERGY: 1200000 0.2121 3.1816 0.8752 0.0000 -10604.1837 1387.0505 0.0000 0.0000 1744.9446 -7467.9197 300.0499 -9212.8643 -7439.3784 301.5419 -333.1867 -303.1954 30000.9731 -79.2487 -23.7650
ENERGY: 1500000 0.1799 3.2189 0.2434 0.0000 -10506.6606 1366.1527 0.0000 0.0000 1754.2465 -7382.6191 301.6494 -9136.8656 -7432.2001 301.0722 -226.9358 -202.1584 30090.6577 -48.7191 5.8920
TCL: Running FEP window  12: Lambda1 0.4499999999999996 Lambda2 0.39999999999999963 [dLambda -0.04999999999999999]
TCL: Setting parameter firsttimestep to 0
TCL: Setting parameter alchLambda to 0.4499999999999996
Info: NONBONDED TABLE R-SQUARED SPACING: 0.0625
Info: NONBONDED TABLE SIZE: 705 POINTS
TCL: Setting parameter alchLambda2 to 0.39999999999999963
Info: NONBONDED TABLE R-SQUARED SPACING: 0.0625
Info: NONBONDED TABLE SIZE: 705 POINTS
TCL: Running for 1500000 steps
ETITLE: TS BOND ANGLE DIHED IMPRP ELECT VDW BOUNDARY MISC KINETIC TOTAL TEMP POTENTIAL TOTALAVG TEMPAVG PRESSURE GPRESSURE VOLUME PRESSAVG GPRESSAVG
ENERGY: 0 0.1799 3.2189 0.2434 0.0000 -10506.6609 1366.4047 0.0000 0.0000 1753.3791 -7383.2348 301.5002 -9136.6139 -7383.2348 301.5002 -291.8638 -206.9073 30090.6577 -291.8638 -206.9073
ENERGY: 300000 0.1453 2.8685 0.4154 0.0000 -10560.1829 1366.7374 0.0000 0.0000 1764.0031 -7426.0132 303.3271 -9190.0162 -7440.3217 301.4717 -566.6251 -508.9630 30223.4361 -202.0137 -164.0586
ENERGY: 600000 0.4071 1.7537 0.2904 0.0000 -10640.2538 1425.3296 0.0000 0.0000 1716.8994 -7495.5736 295.2274 -9212.4730 -7456.3913 300.7976 -259.5853 -224.6871 30263.3293 -119.6442 -80.4545
ENERGY: 900000 0.2546 2.9934 0.0700 0.0000 -10646.3393 1456.7119 0.0000 0.0000 1764.8720 -7421.4374 303.4765 -9186.3093 -7437.8652 301.8087 282.3650 416.0463 29747.5979 -122.0560 -73.3589
ENERGY: 1200000 0.3101 4.9020 0.2716 0.0000 -10658.8967 1436.0772 0.0000 0.0000 1753.8840 -7463.4519 301.5871 -9217.3359 -7453.6227 300.8807 -115.1593 -64.2680 30293.1447 -111.8489 -68.0093
ENERGY: 1500000 0.9838 5.5868 0.2417 0.0000 -10755.9941 1527.7252 0.0000 0.0000 1805.6636 -7415.7930 310.4908 -9221.4566 -7454.3433 300.9556 951.8141 1075.7604 29475.4873 -72.3970 -20.2021
TCL: Running FEP window  13: Lambda1 0.39999999999999963 Lambda2 0.34999999999999964 [dLambda -0.04999999999999999]
TCL: Setting parameter firsttimestep to 0
TCL: Setting parameter alchLambda to 0.39999999999999963
Info: NONBONDED TABLE R-SQUARED SPACING: 0.0625
Info: NONBONDED TABLE SIZE: 705 POINTS
TCL: Setting parameter alchLambda2 to 0.34999999999999964
Info: NONBONDED TABLE R-SQUARED SPACING: 0.0625
Info: NONBONDED TABLE SIZE: 705 POINTS
TCL: Running for 1500000 steps
ETITLE: TS BOND ANGLE DIHED IMPRP ELECT VDW BOUNDARY MISC KINETIC TOTAL TEMP POTENTIAL TOTALAVG TEMPAVG PRESSURE GPRESSURE VOLUME PRESSAVG GPRESSAVG
ENERGY: 0 0.9838 5.5868 0.2417 0.0000 -10755.9930 1527.9450 0.0000 0.0000 1804.8029 -7416.4329 310.3428 -9221.2358 -7416.4329 310.3428 989.6835 1076.2676 29475.4873 989.6835 1076.2676
ENERGY: 300000 0.3436 2.2647 2.4252 0.0000 -10687.7266 1487.0178 0.0000 0.0000 1730.5554 -7465.1198 297.5756 -9195.6752 -7444.2465 304.4056 421.1784 539.5223 29836.1669 473.7081 576.1173
ENERGY: 600000 0.0639 5.6876 0.7812 0.0000 -10627.3167 1443.7911 0.0000 0.0000 1757.1115 -7419.8813 302.1421 -9176.9929 -7441.2123 303.8434 31.7982 82.5663 30317.9992 319.5435 399.6437
ENERGY: 900000 0.4423 4.2986 1.9698 0.0000 -10471.1719 1350.6457 0.0000 0.0000 1762.1013 -7351.7142 303.0001 -9113.8155 -7434.0407 302.2323 -441.2030 -436.0570 30307.6667 187.4768 255.4550
ENERGY: 1200000 0.0070 4.9388 0.5272 0.0000 -10530.1884 1377.9054 0.0000 0.0000 1756.7740 -7390.0361 302.0840 -9146.8101 -7423.4599 301.9217 -343.0820 -344.5061 30274.0389 142.6898 199.9975
ENERGY: 1500000 0.5841 2.6719 0.4095 0.0000 -10518.2633 1365.5526 0.0000 0.0000 1673.9673 -7475.0779 287.8451 -9149.0452 -7435.3987 300.3009 -580.9767 -487.7889 30191.6285 52.1756 113.4250
TCL: Running FEP window  14: Lambda1 0.34999999999999964 Lambda2 0.29999999999999966 [dLambda -0.04999999999999999]
TCL: Setting parameter firsttimestep to 0
TCL: Setting parameter alchLambda to 0.34999999999999964
Info: NONBONDED TABLE R-SQUARED SPACING: 0.0625
Info: NONBONDED TABLE SIZE: 705 POINTS
TCL: Setting parameter alchLambda2 to 0.29999999999999966
Info: NONBONDED TABLE R-SQUARED SPACING: 0.0625
Info: NONBONDED TABLE SIZE: 705 POINTS
TCL: Running for 1500000 steps
ETITLE: TS BOND ANGLE DIHED IMPRP ELECT VDW BOUNDARY MISC KINETIC TOTAL TEMP POTENTIAL TOTALAVG TEMPAVG PRESSURE GPRESSURE VOLUME PRESSAVG GPRESSAVG
ENERGY: 0 0.5841 2.6719 0.4095 0.0000 -10518.2639 1365.4534 0.0000 0.0000 1673.0766 -7476.0684 287.6919 -9149.1450 -7476.0684 287.6919 -593.7705 -492.1113 30191.6285 -593.7705 -492.1113
ENERGY: 300000 1.2684 2.2384 0.1151 0.0000 -10739.1384 1470.1385 0.0000 0.0000 1826.8894 -7438.4886 314.1406 -9265.3780 -7456.0090 299.7348 191.8258 242.5730 29972.0605 -221.3383 -141.2849
ENERGY: 600000 0.8384 4.9823 0.7825 0.0000 -10463.0280 1313.3633 0.0000 0.0000 1734.5223 -7408.5393 298.2578 -9143.0616 -7456.5526 298.1809 -825.9050 -788.4291 30060.2360 -186.0743 -126.2532
ENERGY: 900000 0.7456 1.9448 0.1043 0.0000 -10767.5180 1479.1942 0.0000 0.0000 1673.7042 -7611.8249 287.7998 -9285.5291 -7461.6842 297.8809 323.5329 377.0017 29425.8833 -126.3426 -72.1548
ENERGY: 1200000 0.1923 4.2544 0.1276 0.0000 -10569.7692 1433.9758 0.0000 0.0000 1715.9713 -7415.2478 295.0678 -9131.2191 -7461.4960 297.1069 44.4378 133.8217 30227.7855 -24.1917 36.4235
ENERGY: 1500000 0.8765 4.2596 0.4118 0.0000 -10714.5685 1449.6191 0.0000 0.0000 1751.9878 -7507.4137 301.2610 -9259.4015 -7450.2215 298.4733 -97.5533 42.2597 29961.1374 50.5843 111.7624
TCL: Running FEP window  15: Lambda1 0.29999999999999966 Lambda2 0.24999999999999967 [dLambda -0.04999999999999999]
TCL: Setting parameter firsttimestep to 0
TCL: Setting parameter alchLambda to 0.29999999999999966
Info: NONBONDED TABLE R-SQUARED SPACING: 0.0625
Info: NONBONDED TABLE SIZE: 705 POINTS
TCL: Setting parameter alchLambda2 to 0.24999999999999967
Info: NONBONDED TABLE R-SQUARED SPACING: 0.0625
Info: NONBONDED TABLE SIZE: 705 POINTS
TCL: Running for 1500000 steps
ETITLE: TS BOND ANGLE DIHED IMPRP ELECT VDW BOUNDARY MISC KINETIC TOTAL TEMP POTENTIAL TOTALAVG TEMPAVG PRESSURE GPRESSURE VOLUME PRESSAVG GPRESSAVG
ENERGY: 0 0.8765 4.2596 0.4118 0.0000 -10714.5704 1449.5154 0.0000 0.0000 1751.1064 -7508.4007 301.1095 -9259.5071 -7508.4007 301.1095 -32.0278 38.3337 29961.1374 -32.0278 38.3337
ENERGY: 300000 0.2262 3.9758 0.5805 0.0000 -10689.0893 1498.3300 0.0000 0.0000 1695.4963 -7490.4805 291.5471 -9185.9768 -7494.2354 298.4735 446.8453 448.9655 30307.4537 298.6334 341.8833
ENERGY: 600000 0.1482 2.1857 0.4542 0.0000 -10436.4984 1359.4816 0.0000 0.0000 1774.4474 -7299.7813 305.1230 -9074.2287 -7461.5858 299.4307 -388.8758 -369.6361 30554.5197 -10.9566 35.6011
ENERGY: 900000 0.3617 3.6534 0.6508 0.0000 -10660.7171 1442.3477 0.0000 0.0000 1741.6245 -7472.0790 299.4790 -9213.7035 -7461.3403 300.1279 -38.0816 32.7417 30050.1098 -15.9400 38.8429
ENERGY: 1200000 1.1474 2.0359 0.3771 0.0000 -10730.1073 1468.9140 0.0000 0.0000 1707.6868 -7549.9461 293.6433 -9257.6329 -7458.9129 299.7608 104.6801 230.2639 29732.0328 127.8671 185.0299
ENERGY: 1500000 1.6298 1.3960 0.2151 0.0000 -10653.2579 1459.8810 0.0000 0.0000 1763.1343 -7427.0017 303.1777 -9190.1359 -7454.2017 300.2628 417.3936 524.8289 29595.4233 89.7490 151.0367
TCL: Running FEP window  16: Lambda1 0.24999999999999967 Lambda2 0.19999999999999968 [dLambda -0.04999999999999999]
TCL: Setting parameter firsttimestep to 0
TCL: Setting parameter alchLambda to 0.24999999999999967
Info: NONBONDED TABLE R-SQUARED SPACING: 0.0625
Info: NONBONDED TABLE SIZE: 705 POINTS
TCL: Setting parameter alchLambda2 to 0.19999999999999968
Info: NONBONDED TABLE R-SQUARED SPACING: 0.0625
Info: NONBONDED TABLE SIZE: 705 POINTS
TCL: Running for 1500000 steps
ETITLE: TS BOND ANGLE DIHED IMPRP ELECT VDW BOUNDARY MISC KINETIC TOTAL TEMP POTENTIAL TOTALAVG TEMPAVG PRESSURE GPRESSURE VOLUME PRESSAVG GPRESSAVG
ENERGY: 0 1.6298 1.3960 0.2151 0.0000 -10653.2582 1460.1356 0.0000 0.0000 1762.2750 -7427.6067 303.0299 -9189.8817 -7427.6067 303.0299 441.8139 522.5486 29595.4233 441.8139 522.5486
ENERGY: 300000 1.2007 3.0977 0.4047 0.0000 -10533.3012 1393.5193 0.0000 0.0000 1767.9551 -7367.1239 304.0067 -9135.0789 -7443.7150 301.5219 -306.7555 -279.8560 30538.1938 251.0276 327.6820
ENERGY: 600000 0.7474 3.7590 0.4963 0.0000 -10675.7157 1512.1318 0.0000 0.0000 1761.7326 -7396.8486 302.9367 -9158.5812 -7418.7653 300.8916 789.4524 897.8363 29873.9015 359.6620 431.4216
ENERGY: 900000 0.1074 3.3833 0.1906 0.0000 -10704.0914 1493.2449 0.0000 0.0000 1765.5457 -7441.6195 303.5923 -9207.1652 -7427.6827 300.8906 691.2214 714.0057 29733.6480 318.9043 384.2557
ENERGY: 1200000 0.0294 2.3795 0.9154 0.0000 -10658.7760 1459.6745 0.0000 0.0000 1699.8595 -7495.9177 292.2974 -9195.7772 -7440.0491 299.1275 268.9886 355.8709 29886.9458 283.8199 353.4159
ENERGY: 1500000 0.4137 3.6192 0.1223 0.0000 -10624.6467 1487.0204 0.0000 0.0000 1691.6933 -7441.7779 290.8931 -9133.4712 -7443.1989 298.9817 420.7542 468.1098 30373.8008 230.5972 294.6778
TCL: Running FEP window  17: Lambda1 0.19999999999999968 Lambda2 0.1499999999999997 [dLambda -0.04999999999999999]
TCL: Setting parameter firsttimestep to 0
TCL: Setting parameter alchLambda to 0.19999999999999968
Info: NONBONDED TABLE R-SQUARED SPACING: 0.0625
Info: NONBONDED TABLE SIZE: 705 POINTS
TCL: Setting parameter alchLambda2 to 0.1499999999999997
Info: NONBONDED TABLE R-SQUARED SPACING: 0.0625
Info: NONBONDED TABLE SIZE: 705 POINTS
TCL: Running for 1500000 steps
ETITLE: TS BOND ANGLE DIHED IMPRP ELECT VDW BOUNDARY MISC KINETIC TOTAL TEMP POTENTIAL TOTALAVG TEMPAVG PRESSURE GPRESSURE VOLUME PRESSAVG GPRESSAVG
ENERGY: 0 0.4137 3.6192 0.1223 0.0000 -10624.6476 1485.6253 0.0000 0.0000 1690.8332 -7444.0339 290.7453 -9134.8671 -7444.0339 290.7453 387.8246 458.2753 30373.8008 387.8246 458.2753
ENERGY: 300000 0.3714 6.0948 0.5725 0.0000 -10500.7044 1337.4742 0.0000 0.0000 1746.6508 -7409.5407 300.3433 -9156.1915 -7448.7336 297.4370 -817.6185 -760.1307 30205.8914 -32.2694 43.0280
ENERGY: 600000 0.1936 7.5465 0.1494 0.0000 -10720.5346 1421.9178 0.0000 0.0000 1735.9342 -7554.7930 298.5005 -9290.7273 -7461.9732 297.9897 -289.3720 -224.4743 29724.3143 -201.1902 -137.3914
ENERGY: 900000 0.0627 2.2372 0.3811 0.0000 -10653.5888 1453.4319 0.0000 0.0000 1772.1986 -7425.2773 304.7363 -9197.4759 -7457.5801 299.7436 124.2691 192.2881 30019.6398 -78.0651 -4.5160
ENERGY: 1200000 0.5058 3.8897 0.2770 0.0000 -10538.6918 1428.1983 0.0000 0.0000 1738.2568 -7367.5642 298.8999 -9105.8211 -7450.2444 299.7893 21.0297 134.5682 30583.5869 -19.5146 53.4136
ENERGY: 1500000 0.8759 2.9093 0.4489 0.0000 -10590.8783 1469.3603 0.0000 0.0000 1730.9511 -7386.3328 297.6437 -9117.2839 -7443.9593 300.0524 540.7765 630.5696 29967.2414 -33.9108 39.2108
TCL: Running FEP window  18: Lambda1 0.1499999999999997 Lambda2 0.09999999999999969 [dLambda -0.05 ]
TCL: Setting parameter firsttimestep to 0
TCL: Setting parameter alchLambda to 0.1499999999999997
Info: NONBONDED TABLE R-SQUARED SPACING: 0.0625
Info: NONBONDED TABLE SIZE: 705 POINTS
TCL: Setting parameter alchLambda2 to 0.09999999999999969
Info: NONBONDED TABLE R-SQUARED SPACING: 0.0625
Info: NONBONDED TABLE SIZE: 705 POINTS
TCL: Running for 1500000 steps
ETITLE: TS BOND ANGLE DIHED IMPRP ELECT VDW BOUNDARY MISC KINETIC TOTAL TEMP POTENTIAL TOTALAVG TEMPAVG PRESSURE GPRESSURE VOLUME PRESSAVG GPRESSAVG
ENERGY: 0 0.8759 2.9093 0.4489 0.0000 -10590.8784 1469.2846 0.0000 0.0000 1730.0453 -7387.3144 297.4879 -9117.3597 -7387.3144 297.4879 550.8441 628.3136 29967.2414 550.8441 628.3136
ENERGY: 300000 0.3443 5.0233 0.5516 0.0000 -10580.8840 1402.4267 0.0000 0.0000 1719.7492 -7452.7889 295.7175 -9172.5381 -7431.2073 295.2336 -123.4897 -81.0823 29840.5183 -238.0101 -171.3596
ENERGY: 600000 0.1422 5.9329 1.8970 0.0000 -10503.5462 1373.9685 0.0000 0.0000 1714.8333 -7406.7723 294.8722 -9121.6056 -7417.4892 297.0322 -359.0313 -295.6946 30177.1030 -261.0941 -201.2715
ENERGY: 900000 1.9218 3.7085 0.4105 0.0000 -10519.5977 1390.4439 0.0000 0.0000 1735.9823 -7387.1307 298.5088 -9123.1130 -7427.8730 298.0801 -404.0443 -383.6448 30441.6353 -263.9710 -200.3040
ENERGY: 1200000 0.3478 7.1352 0.4768 0.0000 -10636.8560 1492.1548 0.0000 0.0000 1733.4188 -7403.3227 298.0680 -9136.7415 -7429.5222 298.6396 627.1600 664.0293 29827.7624 -232.5253 -170.4538
ENERGY: 1500000 0.3025 4.5808 0.6047 0.0000 -10546.6412 1355.5506 0.0000 0.0000 1731.7999 -7453.8028 297.7896 -9185.6026 -7428.9302 298.2706 -539.7879 -517.6232 30063.8128 -299.3477 -237.1841
TCL: Running FEP window  19: Lambda1 0.09999999999999969 Lambda2 0.049999999999999684 [dLambda -0.05 ]
TCL: Setting parameter firsttimestep to 0
TCL: Setting parameter alchLambda to 0.09999999999999969
Info: NONBONDED TABLE R-SQUARED SPACING: 0.0625
Info: NONBONDED TABLE SIZE: 705 POINTS
TCL: Setting parameter alchLambda2 to 0.049999999999999684
Info: NONBONDED TABLE R-SQUARED SPACING: 0.0625
Info: NONBONDED TABLE SIZE: 705 POINTS
TCL: Running for 1500000 steps
ETITLE: TS BOND ANGLE DIHED IMPRP ELECT VDW BOUNDARY MISC KINETIC TOTAL TEMP POTENTIAL TOTALAVG TEMPAVG PRESSURE GPRESSURE VOLUME PRESSAVG GPRESSAVG
ENERGY: 0 0.3025 4.5808 0.6047 0.0000 -10546.6411 1355.8275 0.0000 0.0000 1730.9276 -7454.3981 297.6396 -9185.3257 -7454.3981 297.6396 -588.4324 -517.4887 30063.8128 -588.4324 -517.4887
ENERGY: 300000 1.8253 1.1914 0.5820 0.0000 -10669.0443 1445.4313 0.0000 0.0000 1742.1197 -7477.8945 299.5642 -9220.0142 -7480.0162 293.5662 -265.9303 -234.4593 30345.8724 5.9414 60.1534
ENERGY: 600000 0.0595 3.2151 0.6278 0.0000 -10739.6051 1540.1415 0.0000 0.0000 1697.9104 -7497.6508 291.9622 -9195.5611 -7469.2755 294.0479 962.1632 1008.7133 29963.5575 229.6450 283.7425
ENERGY: 900000 0.6131 5.9712 0.1483 0.0000 -10501.5219 1366.7965 0.0000 0.0000 1780.7893 -7347.2035 306.2135 -9127.9928 -7457.5955 295.6688 -307.3389 -174.5762 29903.0149 118.0294 173.6018
ENERGY: 1200000 0.7951 2.9581 1.6899 0.0000 -10578.1599 1386.3496 0.0000 0.0000 1730.4257 -7455.9415 297.5533 -9186.3672 -7440.8807 296.9810 -289.3655 -319.5832 30031.6063 -15.3400 42.8055
ENERGY: 1500000 1.1477 5.2428 0.4866 0.0000 -10505.4863 1339.3202 0.0000 0.0000 1694.0548 -7465.2342 291.2992 -9159.2891 -7439.7290 297.1123 -683.2498 -677.7873 30291.3152 -54.3305 1.1021
TCL: Running FEP window  20: Lambda1 0.049999999999999684 Lambda2 0.0    [dLambda -0.049999999999999684]
TCL: Setting parameter firsttimestep to 0
TCL: Setting parameter alchLambda to 0.049999999999999684
Info: NONBONDED TABLE R-SQUARED SPACING: 0.0625
Info: NONBONDED TABLE SIZE: 705 POINTS
TCL: Setting parameter alchLambda2 to 0.0
Info: NONBONDED TABLE R-SQUARED SPACING: 0.0625
Info: NONBONDED TABLE SIZE: 705 POINTS
TCL: Running for 1500000 steps
ETITLE: TS BOND ANGLE DIHED IMPRP ELECT VDW BOUNDARY MISC KINETIC TOTAL TEMP POTENTIAL TOTALAVG TEMPAVG PRESSURE GPRESSURE VOLUME PRESSAVG GPRESSAVG
ENERGY: 0 1.1477 5.2428 0.4866 0.0000 -10505.4863 1339.2738 0.0000 0.0000 1693.1914 -7466.1440 291.1508 -9159.3354 -7466.1440 291.1508 -749.0774 -675.4280 30291.3152 -749.0774 -675.4280
ENERGY: 300000 1.0551 4.2030 2.2493 0.0000 -10459.2151 1343.3227 0.0000 0.0000 1850.2424 -7258.1426 318.1563 -9108.3850 -7419.7503 300.8709 -529.4242 -526.0055 30462.9265 -275.1981 -237.3821
ENERGY: 600000 1.3397 1.2751 0.2350 0.0000 -10449.2606 1348.4745 0.0000 0.0000 1742.3662 -7355.5700 299.6066 -9097.9363 -7405.8470 300.5398 -466.7786 -431.6523 30371.9632 -313.0438 -267.0369
ENERGY: 900000 0.0898 2.0632 0.6183 0.0000 -10715.2511 1547.1775 0.0000 0.0000 1764.5325 -7400.7698 303.4181 -9165.3022 -7401.3990 301.3535 1036.5909 1114.5065 29756.4143 -67.1993 -11.7697
ENERGY: 1200000 2.0507 2.2860 0.3437 0.0000 -10544.9817 1421.5404 0.0000 0.0000 1745.4021 -7373.3588 300.1286 -9118.7609 -7402.3652 301.2454 -115.0689 -28.8008 30363.8749 -137.2282 -81.8313
ENERGY: 1500000 0.0194 1.7761 1.3316 0.0000 -10695.6004 1493.5570 0.0000 0.0000 1780.0520 -7418.8644 306.0868 -9198.9164 -7412.1740 300.7647 741.9389 832.0370 29409.0525 -53.1476 8.5064
TCL: Exiting due to exit command.
