Info: SIMULATION PARAMETERS:
Info: TIMESTEP               2
Info: NUMBER OF STEPS        0
Info: STEPS PER CYCLE        10
Info: PERIODIC CELL BASIS 1  31.0953 0 0
Info: PERIODIC CELL BASIS 2  0 31.473 0
Info: PERIODIC CELL BASIS 3  0 0 31.8685
Info: PERIODIC CELL CENTER   0 0 0
Info: WRAPPING WATERS AROUND PERIODIC BOUNDARIES ON OUTPUT.
Info: WRAPPING ALL CLUSTERS AROUND PERIODIC BOUNDARIES ON OUTPUT.
Info: FIRST LDB TIMESTEP     50
Info: LAST LDB TIMESTEP     -1
Info: HOM BACKGROUND SCALING 1
Info: PME BACKGROUND SCALING 1
Info: MIN ATOMS PER PATCH    40
Info: EMPTY PATCH LOAD       40 ATOMS
Info: VELOCITY FILE          mobley_1781152_equil.vel
Info: CENTER OF MASS MOVING INITIALLY? NO
Info: DIELECTRIC             1
Info: EXCLUDE                SCALED ONE-FOUR
Info: 1-4 ELECTROSTATICS SCALED BY 0.833333
Info: MODIFIED 1-4 VDW PARAMETERS WILL BE USED
Info: DCD FILENAME           mobley_1781152_prod.dcd
Info: DCD FREQUENCY          100000
Info: DCD FIRST STEP         100000
Info: DCD FILE WILL CONTAIN UNIT CELL DATA
Info: XST FILENAME           mobley_1781152_prod.xst
Info: XST FREQUENCY          100000
Info: NO VELOCITY DCD OUTPUT
Info: NO FORCE DCD OUTPUT
Info: OUTPUT FILENAME        mobley_1781152_prod
Info: BINARY OUTPUT FILES WILL BE USED
Info: RESTART FILENAME       mobley_1781152_prod.restart
Info: RESTART FREQUENCY      100000
Info: BINARY RESTART FILES WILL BE USED
Info: CUTOFF                 9
Info: PAIRLIST DISTANCE      11
Info: PAIRLIST SHRINK RATE   0.01
Info: PAIRLIST GROW RATE     0.01
Info: PAIRLIST TRIGGER       0.3
Info: PAIRLISTS PER CYCLE    2
Info: PAIRLISTS ENABLED
Info: MARGIN                 2
Info: HYDROGEN GROUP CUTOFF  2.5
Info: PATCH DIMENSION        15.5
Info: ENERGY OUTPUT STEPS    100000
Info: ENERGY EVALUATION STEPS    100000
Info: OUTPUT ENERGY PRECISION 4
Info: CROSSTERM ENERGY INCLUDED IN DIHEDRAL
Info: TIMING OUTPUT STEPS    1000000
Info: PRESSURE OUTPUT STEPS  100000
Info: ALCHEMICAL FEP ON
Info: FEP CURRENT LAMBDA VALUE     1
Info: FEP COMPARISON LAMBDA VALUE  0.95
Info: FEP INTRA-ALCHEMICAL NON-BONDED INTERACTIONS WILL BE RETAINED
Info: FEP INTRA-ALCHEMICAL BONDED INTERACTIONS WILL BE RETAINED
Info: FEP VDW SHIFTING COEFFICIENT 5
Info: FEP ELEC. ACTIVE FOR ANNIHILATED PARTICLES BETWEEN LAMBDA = 0 AND LAMBDA = 0.5
Info: FEP ELEC. ACTIVE FOR EXNIHILATED PARTICLES BETWEEN LAMBDA = 0.5 AND LAMBDA = 1
Info: FEP VDW ACTIVE FOR ANNIHILATED PARTICLES BETWEEN LAMBDA = 0 AND LAMBDA = 1
Info: FEP VDW ACTIVE FOR EXNIHILATED PARTICLES BETWEEN LAMBDA = 0 AND LAMBDA = 1
Info: FEP BOND ACTIVE FOR ANNIHILATED PARTICLES BETWEEN LAMBDA = 1 AND LAMBDA = 1
Info: FEP BOND ACTIVE FOR EXNIHILATED PARTICLES BETWEEN LAMBDA = 0 AND LAMBDA = 0
Info: LANGEVIN DYNAMICS ACTIVE
Info: LANGEVIN TEMPERATURE   300
Info: LANGEVIN USING BBK INTEGRATOR
Info: LANGEVIN DAMPING COEFFICIENT IS 1 INVERSE PS
Info: LANGEVIN DYNAMICS APPLIED TO HYDROGENS
Info: LANGEVIN PISTON PRESSURE CONTROL ACTIVE
Info:        TARGET PRESSURE IS 1.01325 BAR
Info:     OSCILLATION PERIOD IS 50 FS
Info:             DECAY TIME IS 25 FS
Info:     PISTON TEMPERATURE IS 300 K
Info:       PRESSURE CONTROL IS GROUP-BASED
Info:    INITIAL STRAIN RATE IS 0.000866224 0.000866224 0.000866224
Info:       CELL FLUCTUATION IS ISOTROPIC
Info: PARTICLE MESH EWALD (PME) ACTIVE
Info: PME TOLERANCE               1e-06
Info: PME EWALD COEFFICIENT       0.348832
Info: PME INTERPOLATION ORDER     4
Info: PME GRID DIMENSIONS         32 32 32
Info: PME MAXIMUM GRID SPACING    1
Info: PME CALCULATION WILL BE PERFORMED ON GPU
Info: FULL ELECTROSTATIC EVALUATION FREQUENCY      2
Info: USING VERLET I (r-RESPA) MTS SCHEME.
Info: C1 SPLITTING OF LONG RANGE ELECTROSTATICS
Info: PLACING ATOMS IN PATCHES BY HYDROGEN GROUPS
Info: RIGID BONDS TO HYDROGEN : ALL
Info:         ERROR TOLERANCE : 1e-08
Info:          MAX ITERATIONS : 100
Info: RIGID WATER USING SETTLE ALGORITHM
Info: RANDOM NUMBER SEED     1743632097
Info: USE HYDROGEN BONDS?    NO
Info: Using AMBER format force field!
Info: AMBER PARM FILE        mobley_1781152.prmtop
Info: COORDINATE PDB         mobley_1781152.pdb
Info: Exclusions will be read from PARM file!
Info: SCNB (VDW SCALING)     2
Info: USING ARITHMETIC MEAN TO COMBINE L-J SIGMA PARAMETERS
Info: BINARY COORDINATES     mobley_1781152_equil.coor
Info: SUMMARY OF PARAMETERS:
Info: 9 BONDS
Info: 10 ANGLES
Info:   10 HARMONIC
Info:   0 COSINE-BASED
Info: 9 DIHEDRAL
Info: 0 IMPROPER
Info: 0 CROSSTERM
Info: 0 VDW
Info: 36 VDW_PAIRS
Info: 0 NBTHOLE_PAIRS
Info: To read alchdata from file: mobley_1781152.pdb
Info: To read alchflag data from column: 5
Info: STRUCTURE SUMMARY:
Info: 2978 ATOMS
Info: 2977 BONDS
Info: 34 ANGLES
Info: 42 DIHEDRALS
Info: 0 IMPROPERS
Info: 0 CROSSTERMS
Info: 3049 EXCLUSIONS
Info: 2970 RIGID BONDS
Info: ALCH: 0 ATOMS TO DISAPPEAR IN FINAL STATE
Info: ALCH: 20 ATOMS TO APPEAR IN FINAL STATE
Info: 5964 DEGREES OF FREEDOM
Info: 994 HYDROGEN GROUPS
Info: 4 ATOMS IN LARGEST HYDROGEN GROUP
Info: 994 MIGRATION GROUPS
Info: 4 ATOMS IN LARGEST MIGRATION GROUP
Info: TOTAL MASS = 17879.9 amu
Info: TOTAL CHARGE = 0.000100031 e
Info: MASS DENSITY = 0.951987 g/cm^3
Info: ATOM DENSITY = 0.095484 atoms/A^3
Info: ADDED 0 IMPLICIT EXCLUSIONS
Info: NONBONDED TABLE R-SQUARED SPACING: 0.0625
Info: NONBONDED TABLE SIZE: 705 POINTS
Info: REDUCING NUMBER OF PATCHES TO IMPROVE LOAD BALANCE
Info: REMOVING COM VELOCITY 0.0676816 0.0292694 -0.0425269
Info: Use 3D box decompostion in PME FFT.
Info: Updated CUDA force table with 4096 elements.
Info: Updated CUDA LJ table with 8 x 8 elements.
Info: Found 23 unique exclusion lists needing 60 bytes
TCL: Running for 1500000 steps
ETITLE: TS BOND ANGLE DIHED IMPRP ELECT VDW BOUNDARY MISC KINETIC TOTAL TEMP POTENTIAL TOTALAVG TEMPAVG PRESSURE GPRESSURE VOLUME PRESSAVG GPRESSAVG
ENERGY: 0 1.7330 6.8219 1.3649 0.0000 -10753.6060 1465.5747 0.0000 0.0000 1791.4966 -7486.6149 302.3213 -9278.1115 -7486.6149 302.3213 63.4537 134.3331 31188.4704 63.4537 134.3331
ENERGY: 300000 1.5077 5.5759 0.5018 0.0000 -10541.9183 1320.9280 0.0000 0.0000 1725.8840 -7487.5208 291.2489 -9213.4048 -7548.1524 299.0314 -974.7074 -861.6041 31444.0993 -177.2332 -100.8708
ENERGY: 600000 2.2681 11.3071 1.5558 0.0000 -10645.5354 1328.2099 0.0000 0.0000 1829.7247 -7472.4698 308.7724 -9302.1945 -7559.2802 298.5502 -953.4364 -824.7257 30911.7538 -333.9710 -248.9690
ENERGY: 900000 2.9982 6.2974 1.2159 0.0000 -10781.5726 1406.6063 0.0000 0.0000 1752.6681 -7611.7867 295.7688 -9364.4548 -7553.2917 297.4499 -362.8900 -310.2341 30551.1129 -395.9307 -318.2043
ENERGY: 1200000 6.9517 5.6842 1.1731 0.0000 -10848.1344 1456.3347 0.0000 0.0000 1732.9505 -7645.0402 292.4414 -9377.9907 -7554.2788 297.3175 -37.4870 65.6769 30363.3682 -444.6253 -367.1588
ENERGY: 1500000 0.9236 10.5050 2.6772 0.0000 -10739.4755 1450.8541 0.0000 0.0000 1816.5012 -7458.0144 306.5409 -9274.5155 -7553.6731 297.3626 119.4170 172.4893 30773.8817 -349.1256 -280.3685
TCL: Running FEP window   2: Lambda1 0.95   Lambda2 0.8999999999999999 [dLambda -0.050000000000000044]
TCL: Setting parameter firsttimestep to 0
TCL: Setting parameter alchLambda to 0.95
Info: NONBONDED TABLE R-SQUARED SPACING: 0.0625
Info: NONBONDED TABLE SIZE: 705 POINTS
TCL: Setting parameter alchLambda2 to 0.8999999999999999
Info: NONBONDED TABLE R-SQUARED SPACING: 0.0625
Info: NONBONDED TABLE SIZE: 705 POINTS
TCL: Running for 1500000 steps
ETITLE: TS BOND ANGLE DIHED IMPRP ELECT VDW BOUNDARY MISC KINETIC TOTAL TEMP POTENTIAL TOTALAVG TEMPAVG PRESSURE GPRESSURE VOLUME PRESSAVG GPRESSAVG
ENERGY: 0 0.9236 10.5050 2.6772 0.0000 -10738.1177 1450.9043 0.0000 0.0000 1815.6141 -7457.4934 306.3912 -9273.1076 -7457.4934 306.3912 84.0822 163.2996 30773.8817 84.0822 163.2996
ENERGY: 300000 2.3553 5.8023 1.9564 0.0000 -10778.1521 1412.4325 0.0000 0.0000 1819.0837 -7536.5218 306.9767 -9355.6056 -7507.0933 303.5440 -303.5477 -295.0031 30645.2203 116.5910 182.2125
ENERGY: 600000 1.8416 8.0705 4.0550 0.0000 -10783.4538 1445.8002 0.0000 0.0000 1765.0440 -7558.6426 297.8573 -9323.6865 -7540.2733 301.0922 -78.2975 -56.7737 30754.2172 17.5213 95.0064
ENERGY: 900000 4.5598 10.4754 2.4353 0.0000 -10714.6451 1378.2448 0.0000 0.0000 1808.1047 -7510.8250 305.1240 -9318.9298 -7526.3593 302.9148 -820.8709 -736.9369 31055.3956 -64.2827 7.1209
ENERGY: 1200000 6.3354 11.7009 0.5822 0.0000 -10812.0215 1518.2324 0.0000 0.0000 1771.5095 -7503.6611 298.9484 -9275.1706 -7522.9836 302.2574 549.6600 589.6409 30878.5840 -25.7851 45.4320
ENERGY: 1500000 2.6395 7.6206 1.0891 0.0000 -10807.8737 1480.2339 0.0000 0.0000 1728.2436 -7588.0470 291.6471 -9316.2906 -7533.8536 301.4208 166.6256 280.7623 30443.4727 55.8345 125.1951
TCL: Running FEP window   3: Lambda1 0.8999999999999999 Lambda2 0.8499999999999999 [dLambda -0.050000000000000044]
TCL: Setting parameter firsttimestep to 0
TCL: Setting parameter alchLambda to 0.8999999999999999
Info: NONBONDED TABLE R-SQUARED SPACING: 0.0625
Info: NONBONDED TABLE SIZE: 705 POINTS
TCL: Setting parameter alchLambda2 to 0.8499999999999999
Info: NONBONDED TABLE R-SQUARED SPACING: 0.0625
Info: NONBONDED TABLE SIZE: 705 POINTS
TCL: Running for 1500000 steps
ETITLE: TS BOND ANGLE DIHED IMPRP ELECT VDW BOUNDARY MISC KINETIC TOTAL TEMP POTENTIAL TOTALAVG TEMPAVG PRESSURE GPRESSURE VOLUME PRESSAVG GPRESSAVG
ENERGY: 0 2.6395 7.6206 1.0891 0.0000 -10805.6863 1480.0918 0.0000 0.0000 1727.3333 -7586.9120 291.4935 -9314.2453 -7586.9120 291.4935 194.6751 275.4153 30443.4727 194.6751 275.4153
ENERGY: 300000 3.2284 16.3709 1.5040 0.0000 -10642.1566 1374.2095 0.0000 0.0000 1777.4575 -7469.3863 299.9522 -9246.8439 -7529.9329 295.1843 -608.3721 -532.7493 30937.0334 -331.3667 -249.0041
ENERGY: 600000 2.6932 5.7929 0.5327 0.0000 -10809.8456 1454.7060 0.0000 0.0000 1803.1174 -7543.0033 304.2823 -9346.1206 -7525.0642 298.2215 -184.9144 -156.6292 30902.8066 -223.1227 -159.7307
ENERGY: 900000 2.4462 10.5475 1.0644 0.0000 -10889.1268 1586.2240 0.0000 0.0000 1737.2907 -7551.5541 293.1739 -9288.8447 -7521.3326 298.2008 1433.3529 1445.0971 30141.1233 -31.8073 22.6830
ENERGY: 1200000 3.5641 11.4402 0.7419 0.0000 -10884.4360 1529.4732 0.0000 0.0000 1785.0133 -7554.2033 301.2272 -9339.2166 -7522.2681 298.6433 414.7349 538.8740 30838.9041 -13.8874 45.0404
ENERGY: 1500000 5.4467 7.4793 3.1604 0.0000 -10743.6529 1386.5476 0.0000 0.0000 1856.2176 -7484.8013 313.2432 -9341.0188 -7514.7174 299.8562 -585.1345 -485.7292 30579.9928 -33.6919 26.5648
TCL: Running FEP window   4: Lambda1 0.8499999999999999 Lambda2 0.7999999999999998 [dLambda -0.050000000000000044]
TCL: Setting parameter firsttimestep to 0
TCL: Setting parameter alchLambda to 0.8499999999999999
Info: NONBONDED TABLE R-SQUARED SPACING: 0.0625
Info: NONBONDED TABLE SIZE: 705 POINTS
TCL: Setting parameter alchLambda2 to 0.7999999999999998
Info: NONBONDED TABLE R-SQUARED SPACING: 0.0625
Info: NONBONDED TABLE SIZE: 705 POINTS
TCL: Running for 1500000 steps
ETITLE: TS BOND ANGLE DIHED IMPRP ELECT VDW BOUNDARY MISC KINETIC TOTAL TEMP POTENTIAL TOTALAVG TEMPAVG PRESSURE GPRESSURE VOLUME PRESSAVG GPRESSAVG
ENERGY: 0 5.4467 7.4793 3.1604 0.0000 -10742.5526 1386.0462 0.0000 0.0000 1855.3450 -7485.0750 313.0959 -9340.4200 -7485.0750 313.0959 -597.9524 -506.7631 30579.9928 -597.9524 -506.7631
ENERGY: 300000 3.8007 5.2674 1.0871 0.0000 -10799.4831 1435.6252 0.0000 0.0000 1761.9782 -7591.7245 297.3400 -9353.7027 -7508.2116 305.7227 -149.2513 -96.5502 30317.8100 -298.8551 -214.3021
ENERGY: 600000 4.6065 8.1578 1.6935 0.0000 -10738.3669 1432.0796 0.0000 0.0000 1800.4232 -7491.4062 303.8277 -9291.8295 -7526.1100 302.3749 -197.7123 -145.0607 30525.9488 -291.2122 -221.9451
ENERGY: 900000 1.8252 10.6436 1.1726 0.0000 -10711.4186 1416.0524 0.0000 0.0000 1805.6430 -7476.0818 304.7086 -9281.7248 -7526.2004 301.9519 104.5419 105.5937 30457.7930 -208.8625 -156.3083
ENERGY: 1200000 1.4909 8.3030 0.9110 0.0000 -10930.4037 1471.1879 0.0000 0.0000 1782.2635 -7666.2474 300.7632 -9448.5109 -7539.7564 301.4319 -149.2341 -65.8662 30603.5258 -234.6099 -181.9840
ENERGY: 1500000 1.6735 12.4236 1.7969 0.0000 -10770.8484 1442.1686 0.0000 0.0000 1759.7252 -7553.0606 296.9598 -9312.7858 -7543.3506 300.6953 -73.2904 -26.7148 30708.3496 -162.5006 -110.6745
TCL: Running FEP window   5: Lambda1 0.7999999999999998 Lambda2 0.7499999999999998 [dLambda -0.050000000000000044]
TCL: Setting parameter firsttimestep to 0
TCL: Setting parameter alchLambda to 0.7999999999999998
Info: NONBONDED TABLE R-SQUARED SPACING: 0.0625
Info: NONBONDED TABLE SIZE: 705 POINTS
TCL: Setting parameter alchLambda2 to 0.7499999999999998
Info: NONBONDED TABLE R-SQUARED SPACING: 0.0625
Info: NONBONDED TABLE SIZE: 705 POINTS
TCL: Running for 1500000 steps
ETITLE: TS BOND ANGLE DIHED IMPRP ELECT VDW BOUNDARY MISC KINETIC TOTAL TEMP POTENTIAL TOTALAVG TEMPAVG PRESSURE GPRESSURE VOLUME PRESSAVG GPRESSAVG
ENERGY: 0 1.6735 12.4236 1.7969 0.0000 -10769.7815 1442.0399 0.0000 0.0000 1758.8579 -7552.9896 296.8134 -9311.8475 -7552.9896 296.8134 -94.4512 -36.2044 30708.3496 -94.4512 -36.2044
ENERGY: 300000 2.4430 5.3956 2.9977 0.0000 -10670.1095 1367.7027 0.0000 0.0000 1763.2414 -7528.3291 297.5531 -9291.5705 -7584.0509 294.6814 -607.8259 -575.8491 30692.1425 241.3035 284.6311
ENERGY: 600000 5.1001 8.9321 1.5947 0.0000 -10829.3941 1463.1931 0.0000 0.0000 1739.5056 -7611.0686 293.5476 -9350.5742 -7555.4589 297.1772 -275.0649 -233.1233 30675.6306 67.0098 107.2990
ENERGY: 900000 4.3144 7.6112 0.7988 0.0000 -10788.0586 1348.1600 0.0000 0.0000 1816.4474 -7610.7268 306.5318 -9427.1742 -7565.1525 298.0202 -1388.1003 -1282.1711 31039.9099 32.6236 76.6167
ENERGY: 1200000 2.9550 9.4700 2.8871 0.0000 -10734.0627 1406.3638 0.0000 0.0000 1819.5717 -7492.8150 307.0591 -9312.3868 -7561.3120 299.2226 -107.0300 -71.4331 30295.6733 60.9745 108.0612
ENERGY: 1500000 3.6927 8.0770 2.5075 0.0000 -10693.9833 1463.9808 0.0000 0.0000 1773.6773 -7442.0480 299.3142 -9215.7253 -7554.5901 300.2192 132.1700 262.7283 30937.8907 104.5904 157.0846
TCL: Running FEP window   6: Lambda1 0.7499999999999998 Lambda2 0.6999999999999997 [dLambda -0.050000000000000044]
TCL: Setting parameter firsttimestep to 0
TCL: Setting parameter alchLambda to 0.7499999999999998
Info: NONBONDED TABLE R-SQUARED SPACING: 0.0625
Info: NONBONDED TABLE SIZE: 705 POINTS
TCL: Setting parameter alchLambda2 to 0.6999999999999997
Info: NONBONDED TABLE R-SQUARED SPACING: 0.0625
Info: NONBONDED TABLE SIZE: 705 POINTS
TCL: Running for 1500000 steps
ETITLE: TS BOND ANGLE DIHED IMPRP ELECT VDW BOUNDARY MISC KINETIC TOTAL TEMP POTENTIAL TOTALAVG TEMPAVG PRESSURE GPRESSURE VOLUME PRESSAVG GPRESSAVG
ENERGY: 0 3.6927 8.0770 2.5075 0.0000 -10692.5024 1463.2499 0.0000 0.0000 1772.7707 -7442.2046 299.1612 -9214.9753 -7442.2046 299.1612 161.5820 247.4271 30937.8907 161.5820 247.4271
ENERGY: 300000 2.6672 5.9945 1.4283 0.0000 -10664.0963 1441.7843 0.0000 0.0000 1752.3352 -7459.8869 295.7127 -9212.2221 -7478.1331 299.8502 341.6542 428.1397 30397.7611 162.9978 224.6925
ENERGY: 600000 2.5985 9.4219 1.3493 0.0000 -10841.0267 1453.1795 0.0000 0.0000 1780.0253 -7594.4521 300.3855 -9374.4775 -7505.4210 300.1186 -153.7163 -165.3502 30437.5488 13.7695 59.4376
ENERGY: 900000 3.6364 5.7351 0.7496 0.0000 -10833.2665 1470.6389 0.0000 0.0000 1812.2024 -7540.3041 305.8155 -9352.5064 -7529.0202 300.5370 131.8739 131.7954 30583.6713 -149.0882 -99.8805
ENERGY: 1200000 1.2333 7.8747 2.0486 0.0000 -10877.5903 1569.3402 0.0000 0.0000 1804.4091 -7492.6843 304.5003 -9297.0935 -7517.3623 300.9346 1087.0515 1103.1403 30345.1747 16.2670 58.1084
ENERGY: 1500000 1.6480 9.0755 1.2603 0.0000 -10882.8562 1494.2065 0.0000 0.0000 1852.3302 -7524.3359 312.5872 -9376.6660 -7524.9687 301.0641 99.4564 174.4430 30844.5324 -8.2756 39.3293
TCL: Running FEP window   7: Lambda1 0.6999999999999997 Lambda2 0.6499999999999997 [dLambda -0.050000000000000044]
TCL: Setting parameter firsttimestep to 0
TCL: Setting parameter alchLambda to 0.6999999999999997
Info: NONBONDED TABLE R-SQUARED SPACING: 0.0625
Info: NONBONDED TABLE SIZE: 705 POINTS
TCL: Setting parameter alchLambda2 to 0.6499999999999997
Info: NONBONDED TABLE R-SQUARED SPACING: 0.0625
Info: NONBONDED TABLE SIZE: 705 POINTS
TCL: Running for 1500000 steps
ETITLE: TS BOND ANGLE DIHED IMPRP ELECT VDW BOUNDARY MISC KINETIC TOTAL TEMP POTENTIAL TOTALAVG TEMPAVG PRESSURE GPRESSURE VOLUME PRESSAVG GPRESSAVG
ENERGY: 0 1.6480 9.0755 1.2603 0.0000 -10881.6542 1493.9689 0.0000 0.0000 1851.4123 -7524.2892 312.4323 -9375.7016 -7524.2892 312.4323 74.1352 164.8381 30844.5324 74.1352 164.8381
ENERGY: 300000 0.6945 7.1932 1.2582 0.0000 -10813.2787 1488.0921 0.0000 0.0000 1741.0506 -7574.9902 293.8083 -9316.0408 -7536.2123 298.7112 414.7567 452.9309 30418.5231 69.0476 142.1409
ENERGY: 600000 4.2426 5.0443 3.3534 0.0000 -10665.8639 1424.8030 0.0000 0.0000 1777.1640 -7451.2565 299.9026 -9228.4204 -7525.5559 298.0147 -302.4819 -244.6553 31312.9980 -53.8688 6.8742
ENERGY: 900000 1.2358 5.9687 1.1024 0.0000 -10774.2473 1508.9100 0.0000 0.0000 1750.0439 -7506.9865 295.3260 -9257.0304 -7531.8895 297.2454 544.6108 642.3928 30714.9056 -6.9133 56.4742
ENERGY: 1200000 3.4130 12.2382 4.3857 0.0000 -10723.3685 1417.5333 0.0000 0.0000 1734.5322 -7551.2661 292.7084 -9285.7983 -7528.2822 297.9095 -179.4442 -109.4183 30481.8048 -11.5210 55.3635
ENERGY: 1500000 1.4727 7.6211 1.9487 0.0000 -10732.6834 1426.2241 0.0000 0.0000 1724.9783 -7570.4386 291.0961 -9295.4169 -7531.5758 297.9847 -187.8715 -90.8974 30562.6094 -29.0658 35.7210
TCL: Running FEP window   8: Lambda1 0.6499999999999997 Lambda2 0.5999999999999996 [dLambda -0.050000000000000044]
TCL: Setting parameter firsttimestep to 0
TCL: Setting parameter alchLambda to 0.6499999999999997
Info: NONBONDED TABLE R-SQUARED SPACING: 0.0625
Info: NONBONDED TABLE SIZE: 705 POINTS
TCL: Setting parameter alchLambda2 to 0.5999999999999996
Info: NONBONDED TABLE R-SQUARED SPACING: 0.0625
Info: NONBONDED TABLE SIZE: 705 POINTS
TCL: Running for 1500000 steps
ETITLE: TS BOND ANGLE DIHED IMPRP ELECT VDW BOUNDARY MISC KINETIC TOTAL TEMP POTENTIAL TOTALAVG TEMPAVG PRESSURE GPRESSURE VOLUME PRESSAVG GPRESSAVG
ENERGY: 0 1.4727 7.6211 1.9487 0.0000 -10732.0619 1426.4715 0.0000 0.0000 1724.0934 -7570.4545 290.9468 -9294.5479 -7570.4545 290.9468 -198.4239 -98.7029 30562.6094 -198.4239 -98.7029
ENERGY: 300000 2.3539 11.1714 0.5100 0.0000 -10778.5465 1507.5739 0.0000 0.0000 1799.6262 -7457.3110 303.6932 -9256.9373 -7536.6529 297.0311 740.1395 788.0992 30444.8110 462.7440 537.7734
ENERGY: 600000 1.9697 8.7828 1.7288 0.0000 -10839.2224 1468.0949 0.0000 0.0000 1808.6505 -7549.9955 305.2161 -9358.6461 -7523.4907 299.5184 340.7251 383.0186 29977.0191 347.7306 418.2533
ENERGY: 900000 2.8682 9.6716 2.0035 0.0000 -10709.7450 1402.2279 0.0000 0.0000 1758.7803 -7534.1935 296.8003 -9292.9738 -7516.4384 300.4823 -28.5620 -3.1400 30468.8294 187.1340 247.7789
ENERGY: 1200000 4.0920 4.5544 0.8637 0.0000 -10723.5893 1475.7398 0.0000 0.0000 1803.6404 -7434.6989 304.3706 -9238.3393 -7505.9978 301.4679 263.5155 362.8907 30446.7418 83.5204 142.1270
ENERGY: 1500000 4.1865 9.7652 1.9544 0.0000 -10544.2782 1334.3667 0.0000 0.0000 1762.6134 -7431.3920 297.4472 -9194.0054 -7512.8200 301.0578 -697.6077 -689.0210 30829.0680 -22.7010 36.3312
TCL: Running FEP window   9: Lambda1 0.5999999999999996 Lambda2 0.5499999999999996 [dLambda -0.050000000000000044]
TCL: Setting parameter firsttimestep to 0
TCL: Setting parameter alchLambda to 0.5999999999999996
Info: NONBONDED TABLE R-SQUARED SPACING: 0.0625
Info: NONBONDED TABLE SIZE: 705 POINTS
TCL: Setting parameter alchLambda2 to 0.5499999999999996
Info: NONBONDED TABLE R-SQUARED SPACING: 0.0625
Info: NONBONDED TABLE SIZE: 705 POINTS
TCL: Running for 1500000 steps
ETITLE: TS BOND ANGLE DIHED IMPRP ELECT VDW BOUNDARY MISC KINETIC TOTAL TEMP POTENTIAL TOTALAVG TEMPAVG PRESSURE GPRESSURE VOLUME PRESSAVG GPRESSAVG
ENERGY: 0 4.1865 9.7652 1.9544 0.0000 -10544.1592 1334.4057 0.0000 0.0000 1761.7428 -7432.1047 297.3002 -9193.8475 -7432.1047 297.3002 -778.3437 -697.7446 30829.0680 -778.3437 -697.7446
ENERGY: 300000 2.3499 10.3226 2.5628 0.0000 -10708.3522 1461.9231 0.0000 0.0000 1789.9112 -7441.2826 302.0537 -9231.1937 -7497.1904 298.3482 131.5180 211.9064 30930.1689 -107.2864 -27.4373
ENERGY: 600000 0.8032 8.0841 1.4292 0.0000 -10871.3705 1543.2880 0.0000 0.0000 1800.6596 -7517.1063 303.8676 -9317.7659 -7497.5114 301.3355 944.9543 1011.6543 30271.7464 20.3634 89.5911
ENERGY: 900000 1.8357 10.2845 1.6051 0.0000 -10716.1945 1414.0759 0.0000 0.0000 1788.7340 -7499.6593 301.8551 -9288.3933 -7509.2014 300.6761 -453.2872 -403.7612 31035.8145 37.4252 92.7683
ENERGY: 1200000 3.5035 8.3193 2.5310 0.0000 -10779.4412 1499.0367 0.0000 0.0000 1784.6292 -7481.4215 301.1624 -9266.0507 -7504.8928 300.8301 227.2431 272.7594 30943.7152 -34.3290 23.6303
ENERGY: 1500000 2.0370 7.6496 2.2175 0.0000 -10748.4973 1447.7321 0.0000 0.0000 1834.2917 -7454.5693 309.5431 -9288.8611 -7493.2833 302.0609 -168.1018 -113.0660 30983.9081 -61.5763 -8.3520
TCL: Running FEP window  10: Lambda1 0.5499999999999996 Lambda2 0.4999999999999996 [dLambda -0.04999999999999999]
TCL: Setting parameter firsttimestep to 0
TCL: Setting parameter alchLambda to 0.5499999999999996
Info: NONBONDED TABLE R-SQUARED SPACING: 0.0625
Info: NONBONDED TABLE SIZE: 705 POINTS
TCL: Setting parameter alchLambda2 to 0.4999999999999996
Info: NONBONDED TABLE R-SQUARED SPACING: 0.0625
Info: NONBONDED TABLE SIZE: 705 POINTS
TCL: Running for 1500000 steps
ETITLE: TS BOND ANGLE DIHED IMPRP ELECT VDW BOUNDARY MISC KINETIC TOTAL TEMP POTENTIAL TOTALAVG TEMPAVG PRESSURE GPRESSURE VOLUME PRESSAVG GPRESSAVG
ENERGY: 0 2.0370 7.6496 2.2175 0.0000 -10748.8626 1447.9729 0.0000 0.0000 1833.4069 -7455.5787 309.3938 -9288.9856 -7455.5787 309.3938 -211.2485 -120.6444 30983.9081 -211.2485 -120.6444
ENERGY: 300000 2.8979 9.1008 3.0546 0.0000 -10809.5537 1553.2426 0.0000 0.0000 1767.3994 -7473.8584 298.2548 -9241.2578 -7485.9412 303.3158 879.2414 924.0330 30628.3256 95.9349 166.0788
ENERGY: 600000 3.3316 7.6708 1.6736 0.0000 -10860.2962 1507.7306 0.0000 0.0000 1775.0295 -7564.8600 299.5424 -9339.8895 -7500.4722 302.5212 410.4420 494.3825 30351.5540 20.9360 83.2954
ENERGY: 900000 4.1775 8.5072 2.6551 0.0000 -10739.6895 1448.8778 0.0000 0.0000 1743.0672 -7532.4048 294.1487 -9275.4719 -7504.5100 301.4187 -166.5073 -141.7158 30871.4071 -64.4757 -8.5995
ENERGY: 1200000 2.5192 9.2594 2.4854 0.0000 -10806.3159 1499.2743 0.0000 0.0000 1767.4902 -7525.2874 298.2701 -9292.7777 -7512.6774 300.5621 169.5092 306.0917 30908.3321 -30.2634 27.3725
ENERGY: 1500000 3.8741 7.6410 1.6369 0.0000 -10708.1753 1388.0828 0.0000 0.0000 1783.4896 -7523.4510 300.9701 -9306.9406 -7516.9328 299.8613 -495.6391 -404.6748 30560.4593 -53.0841 7.0650
TCL: Running FEP window  11: Lambda1 0.4999999999999996 Lambda2 0.4499999999999996 [dLambda -0.04999999999999999]
TCL: Setting parameter firsttimestep to 0
TCL: Setting parameter alchLambda to 0.4999999999999996
Info: NONBONDED TABLE R-SQUARED SPACING: 0.0625
Info: NONBONDED TABLE SIZE: 705 POINTS
TCL: Setting parameter alchLambda2 to 0.4499999999999996
Info: NONBONDED TABLE R-SQUARED SPACING: 0.0625
Info: NONBONDED TABLE SIZE: 705 POINTS
TCL: Running for 1500000 steps
ETITLE: TS BOND ANGLE DIHED IMPRP ELECT VDW BOUNDARY MISC KINETIC TOTAL TEMP POTENTIAL TOTALAVG TEMPAVG PRESSURE GPRESSURE VOLUME PRESSAVG GPRESSAVG
ENERGY: 0 3.8741 7.6410 1.6369 0.0000 -10707.5151 1388.5694 0.0000 0.0000 1782.6101 -7523.1836 300.8217 -9305.7937 -7523.1836 300.8217 -491.7700 -407.9953 30560.4593 -491.7700 -407.9953
ENERGY: 300000 2.7469 10.7352 0.9019 0.0000 -10847.8458 1537.2746 0.0000 0.0000 1739.8694 -7556.3179 293.6090 -9296.1873 -7531.8701 299.2431 654.2555 699.1465 30471.6282 -399.6187 -327.2985
ENERGY: 600000 3.1523 7.8758 0.7349 0.0000 -10721.5079 1418.1655 0.0000 0.0000 1806.3367 -7485.2426 304.8256 -9291.5793 -7520.9869 300.1698 -559.6615 -461.7979 31064.1901 -362.6092 -280.3970
ENERGY: 900000 1.2546 9.0031 3.0674 0.0000 -10762.9569 1425.1067 0.0000 0.0000 1743.7390 -7580.7862 294.2620 -9324.5251 -7518.1546 300.3428 -282.1002 -206.8444 30513.7966 -346.2566 -276.1920
ENERGY: 1200000 1.9714 6.6811 0.5450 0.0000 -10879.6266 1517.2052 0.0000 0.0000 1831.2631 -7521.9608 309.0320 -9353.2239 -7520.8665 301.1052 316.2079 414.0626 30509.3910 -249.7037 -181.7441
ENERGY: 1500000 5.3338 7.6715 0.3163 0.0000 -10724.1465 1423.0211 0.0000 0.0000 1793.3558 -7494.4480 302.6350 -9287.8038 -7521.8537 301.0825 -199.2130 -140.5343 30560.9502 -215.8209 -153.6270
TCL: Running FEP window  12: Lambda1 0.4499999999999996 Lambda2 0.39999999999999963 [dLambda -0.04999999999999999]
TCL: Setting parameter firsttimestep to 0
TCL: Setting parameter alchLambda to 0.4499999999999996
Info: NONBONDED TABLE R-SQUARED SPACING: 0.0625
Info: NONBONDED TABLE SIZE: 705 POINTS
TCL: Setting parameter alchLambda2 to 0.39999999999999963
Info: NONBONDED TABLE R-SQUARED SPACING: 0.0625
Info: NONBONDED TABLE SIZE: 705 POINTS
TCL: Running for 1500000 steps
ETITLE: TS BOND ANGLE DIHED IMPRP ELECT VDW BOUNDARY MISC KINETIC TOTAL TEMP POTENTIAL TOTALAVG TEMPAVG PRESSURE GPRESSURE VOLUME PRESSAVG GPRESSAVG
ENERGY: 0 5.3338 7.6715 0.3163 0.0000 -10724.1456 1423.6291 0.0000 0.0000 1792.4125 -7494.7824 302.4759 -9287.1949 -7494.7824 302.4759 -234.2221 -142.3172 30560.9502 -234.2221 -142.3172
ENERGY: 300000 1.6669 9.5872 0.7258 0.0000 -10666.8240 1411.0259 0.0000 0.0000 1830.3615 -7413.4567 308.8799 -9243.8182 -7490.5890 301.0957 90.4491 143.4404 30285.1878 -251.5977 -193.3597
ENERGY: 600000 1.6670 7.4737 1.4720 0.0000 -10625.0676 1386.6929 0.0000 0.0000 1750.8599 -7476.9020 295.4637 -9227.7619 -7482.1367 300.6998 -483.1512 -414.3867 31146.3455 -320.4766 -260.0600
ENERGY: 900000 3.4286 8.6829 0.8678 0.0000 -10764.4511 1458.8645 0.0000 0.0000 1770.6432 -7521.9640 298.8022 -9292.6072 -7488.3314 301.8546 213.4132 225.2032 30762.8887 -244.9819 -193.0293
ENERGY: 1200000 3.4094 5.0841 0.4928 0.0000 -10531.2830 1296.0380 0.0000 0.0000 1740.6924 -7485.5662 293.7479 -9226.2586 -7492.6037 300.8608 -1077.0643 -945.6219 30837.5231 -287.8307 -219.3518
ENERGY: 1500000 1.1495 9.3651 0.7952 0.0000 -10673.1780 1354.5920 0.0000 0.0000 1780.2407 -7527.0354 300.4218 -9307.2761 -7514.0444 300.0513 -441.9336 -399.2962 30267.9452 -226.1839 -158.6072
TCL: Running FEP window  13: Lambda1 0.39999999999999963 Lambda2 0.34999999999999964 [dLambda -0.04999999999999999]
TCL: Setting parameter firsttimestep to 0
TCL: Setting parameter alchLambda to 0.39999999999999963
Info: NONBONDED TABLE R-SQUARED SPACING: 0.0625
Info: NONBONDED TABLE SIZE: 705 POINTS
TCL: Setting parameter alchLambda2 to 0.34999999999999964
Info: NONBONDED TABLE R-SQUARED SPACING: 0.0625
Info: NONBONDED TABLE SIZE: 705 POINTS
TCL: Running for 1500000 steps
ETITLE: TS BOND ANGLE DIHED IMPRP ELECT VDW BOUNDARY MISC KINETIC TOTAL TEMP POTENTIAL TOTALAVG TEMPAVG PRESSURE GPRESSURE VOLUME PRESSAVG GPRESSAVG
ENERGY: 0 1.1495 9.3651 0.7952 0.0000 -10673.1780 1354.8667 0.0000 0.0000 1779.3641 -7527.6372 300.2739 -9307.0014 -7527.6372 300.2739 -484.5039 -405.1906 30267.9452 -484.5039 -405.1906
ENERGY: 300000 3.2689 6.0314 1.4378 0.0000 -10827.4438 1487.2985 0.0000 0.0000 1729.6577 -7599.7495 291.8858 -9329.4072 -7601.4055 294.2634 -79.9584 -23.9355 30741.8191 -143.2860 -58.4997
ENERGY: 600000 5.6024 10.1369 1.6004 0.0000 -10759.6661 1444.0187 0.0000 0.0000 1711.7017 -7586.6061 288.8556 -9298.3078 -7583.5376 294.7750 -207.4716 -136.0143 30424.1005 -241.6005 -165.3148
ENERGY: 900000 1.6909 8.2422 2.7583 0.0000 -10709.8228 1417.6001 0.0000 0.0000 1763.5438 -7515.9875 297.6042 -9279.5313 -7577.1535 295.6701 -74.2262 -2.5865 30454.1108 -181.7891 -111.6226
ENERGY: 1200000 1.3357 9.7031 2.5529 0.0000 -10830.3256 1557.5686 0.0000 0.0000 1815.1564 -7444.0089 306.3140 -9259.1653 -7557.1279 297.8273 842.3745 878.2255 30670.5289 -131.2795 -67.5286
ENERGY: 1500000 2.8712 5.6814 1.0763 0.0000 -10744.4405 1471.0205 0.0000 0.0000 1711.2003 -7552.5907 288.7710 -9263.7910 -7553.2230 297.9187 145.0934 183.6396 30597.6471 -103.8287 -39.2509
TCL: Running FEP window  14: Lambda1 0.34999999999999964 Lambda2 0.29999999999999966 [dLambda -0.04999999999999999]
TCL: Setting parameter firsttimestep to 0
TCL: Setting parameter alchLambda to 0.34999999999999964
Info: NONBONDED TABLE R-SQUARED SPACING: 0.0625
Info: NONBONDED TABLE SIZE: 705 POINTS
TCL: Setting parameter alchLambda2 to 0.29999999999999966
Info: NONBONDED TABLE R-SQUARED SPACING: 0.0625
Info: NONBONDED TABLE SIZE: 705 POINTS
TCL: Running for 1500000 steps
ETITLE: TS BOND ANGLE DIHED IMPRP ELECT VDW BOUNDARY MISC KINETIC TOTAL TEMP POTENTIAL TOTALAVG TEMPAVG PRESSURE GPRESSURE VOLUME PRESSAVG GPRESSAVG
ENERGY: 0 2.8712 5.6814 1.0763 0.0000 -10744.4410 1471.5712 0.0000 0.0000 1710.3236 -7552.9172 288.6231 -9263.2408 -7552.9172 288.6231 103.8747 183.1633 30597.6471 103.8747 183.1633
ENERGY: 300000 4.3029 9.8747 0.8605 0.0000 -10654.5480 1417.5459 0.0000 0.0000 1834.8930 -7387.0710 309.6446 -9221.9640 -7501.1838 297.5184 -131.2322 -45.8845 30640.2677 29.3818 114.3127
ENERGY: 600000 2.1335 10.8764 1.9019 0.0000 -10854.4084 1507.3907 0.0000 0.0000 1774.3971 -7557.7088 299.4357 -9332.1060 -7496.9145 299.4378 134.5738 283.6160 30530.8202 140.8852 224.4407
ENERGY: 900000 0.8120 9.4182 0.6911 0.0000 -10783.9379 1444.4300 0.0000 0.0000 1807.8337 -7520.7528 305.0782 -9328.5866 -7496.4223 301.6489 154.8785 196.9717 30277.0754 -71.4184 2.5005
ENERGY: 1200000 6.1987 8.3670 1.1037 0.0000 -10832.0058 1495.5608 0.0000 0.0000 1889.7330 -7431.0426 318.8990 -9320.7756 -7502.5255 302.1891 320.0721 452.8392 30269.6889 -32.0881 41.1464
ENERGY: 1500000 4.8974 8.1097 1.8376 0.0000 -10723.0819 1455.5607 0.0000 0.0000 1790.9716 -7461.7048 302.2327 -9252.6764 -7500.9792 302.0650 193.2090 270.2433 30491.0373 -47.1779 24.8559
TCL: Running FEP window  15: Lambda1 0.29999999999999966 Lambda2 0.24999999999999967 [dLambda -0.04999999999999999]
TCL: Setting parameter firsttimestep to 0
TCL: Setting parameter alchLambda to 0.29999999999999966
Info: NONBONDED TABLE R-SQUARED SPACING: 0.0625
Info: NONBONDED TABLE SIZE: 705 POINTS
TCL: Setting parameter alchLambda2 to 0.24999999999999967
Info: NONBONDED TABLE R-SQUARED SPACING: 0.0625
Info: NONBONDED TABLE SIZE: 705 POINTS
TCL: Running for 1500000 steps
ETITLE: TS BOND ANGLE DIHED IMPRP ELECT VDW BOUNDARY MISC KINETIC TOTAL TEMP POTENTIAL TOTALAVG TEMPAVG PRESSURE GPRESSURE VOLUME PRESSAVG GPRESSAVG
ENERGY: 0 4.8974 8.1097 1.8376 0.0000 -10723.0816 1456.0885 0.0000 0.0000 1790.1153 -7462.0330 302.0882 -9252.1483 -7462.0330 302.0882 175.9518 268.6441 30491.0373 175.9518 268.6441
ENERGY: 300000 2.1981 5.4460 1.4324 0.0000 -10403.9067 1222.3736 0.0000 0.0000 1799.3176 -7373.1390 303.6411 -9172.4566 -7449.9110 305.4323 -1770.9869 -1665.2789 31133.1714 -345.1055 -269.1752
ENERGY: 600000 2.6020 11.3287 1.1409 0.0000 -10702.2106 1378.0684 0.0000 0.0000 1737.1765 -7571.8941 293.1546 -9309.0706 -7464.3844 302.4888 -620.5208 -565.2022 30624.3152 -539.4844 -483.6842
ENERGY: 900000 5.8988 11.6938 0.9391 0.0000 -10738.3581 1467.8668 0.0000 0.0000 1739.6007 -7512.3590 293.5637 -9251.9597 -7472.3296 301.9346 200.3068 248.3714 30309.1043 -343.8386 -283.7339
ENERGY: 1200000 2.1409 7.6207 2.4177 0.0000 -10674.5648 1375.8049 0.0000 0.0000 1751.5812 -7534.9995 295.5854 -9286.5807 -7479.8711 300.9543 -662.9833 -615.9867 30926.6617 -281.3590 -229.8965
ENERGY: 1500000 1.0893 9.0946 2.6361 0.0000 -10751.5027 1395.2755 0.0000 0.0000 1778.4193 -7564.9879 300.1145 -9343.4072 -7500.7938 300.7013 -789.9264 -750.6789 30980.1448 -280.5733 -235.0286
TCL: Running FEP window  16: Lambda1 0.24999999999999967 Lambda2 0.19999999999999968 [dLambda -0.04999999999999999]
TCL: Setting parameter firsttimestep to 0
TCL: Setting parameter alchLambda to 0.24999999999999967
Info: NONBONDED TABLE R-SQUARED SPACING: 0.0625
Info: NONBONDED TABLE SIZE: 705 POINTS
TCL: Setting parameter alchLambda2 to 0.19999999999999968
Info: NONBONDED TABLE R-SQUARED SPACING: 0.0625
Info: NONBONDED TABLE SIZE: 705 POINTS
TCL: Running for 1500000 steps
ETITLE: TS BOND ANGLE DIHED IMPRP ELECT VDW BOUNDARY MISC KINETIC TOTAL TEMP POTENTIAL TOTALAVG TEMPAVG PRESSURE GPRESSURE VOLUME PRESSAVG GPRESSAVG
ENERGY: 0 1.0893 9.0946 2.6361 0.0000 -10751.5028 1395.7735 0.0000 0.0000 1777.4978 -7565.4115 299.9589 -9342.9093 -7565.4115 299.9589 -847.1287 -751.2716 30980.1448 -847.1287 -751.2716
ENERGY: 300000 3.7179 9.8974 1.6937 0.0000 -10778.8794 1468.4126 0.0000 0.0000 1799.5767 -7495.5810 303.6848 -9295.1578 -7518.5758 301.0646 110.8872 170.1548 30687.9760 -440.9300 -372.5742
ENERGY: 600000 1.1642 8.9207 2.3531 0.0000 -10767.8070 1453.9930 0.0000 0.0000 1780.2207 -7521.1554 300.4184 -9301.3761 -7512.2169 301.9858 -5.3418 44.0861 30460.3680 -46.4616 23.9893
ENERGY: 900000 1.5544 9.4614 0.8392 0.0000 -10853.3994 1529.2268 0.0000 0.0000 1785.9144 -7526.4032 301.3793 -9312.3176 -7533.5211 300.7693 728.0333 760.2671 30454.3456 129.6956 197.1282
ENERGY: 1200000 4.1927 10.2692 1.0413 0.0000 -10723.1554 1444.0154 0.0000 0.0000 1779.6756 -7483.9613 300.3265 -9263.6369 -7529.7896 300.8457 -6.5462 113.5997 30523.4181 20.5957 91.6716
ENERGY: 1500000 6.4178 6.8289 0.4222 0.0000 -10635.0752 1385.0256 0.0000 0.0000 1758.0097 -7478.3709 296.6703 -9236.3806 -7532.6584 300.6631 -593.9801 -507.8517 30782.9904 -15.5094 56.3861
TCL: Running FEP window  17: Lambda1 0.19999999999999968 Lambda2 0.1499999999999997 [dLambda -0.04999999999999999]
TCL: Setting parameter firsttimestep to 0
TCL: Setting parameter alchLambda to 0.19999999999999968
Info: NONBONDED TABLE R-SQUARED SPACING: 0.0625
Info: NONBONDED TABLE SIZE: 705 POINTS
TCL: Setting parameter alchLambda2 to 0.1499999999999997
Info: NONBONDED TABLE R-SQUARED SPACING: 0.0625
Info: NONBONDED TABLE SIZE: 705 POINTS
TCL: Running for 1500000 steps
ETITLE: TS BOND ANGLE DIHED IMPRP ELECT VDW BOUNDARY MISC KINETIC TOTAL TEMP POTENTIAL TOTALAVG TEMPAVG PRESSURE GPRESSURE VOLUME PRESSAVG GPRESSAVG
ENERGY: 0 6.4178 6.8289 0.4222 0.0000 -10635.0756 1385.3451 0.0000 0.0000 1757.1420 -7478.9195 296.5238 -9236.0615 -7478.9195 296.5238 -598.2014 -511.0708 30782.9904 -598.2014 -511.0708
ENERGY: 300000 1.3882 8.8542 1.3932 0.0000 -10600.5264 1374.6080 0.0000 0.0000 1833.5284 -7380.7542 309.4143 -9214.2827 -7485.4069 300.5102 -607.6203 -519.3085 31248.6478 -420.8946 -311.8793
ENERGY: 600000 1.5275 12.6735 1.0372 0.0000 -10850.6498 1501.2358 0.0000 0.0000 1768.9718 -7565.2041 298.5202 -9334.1759 -7518.1588 299.2353 544.8157 651.3306 29992.1409 -291.5922 -190.0651
ENERGY: 900000 2.7738 7.8332 2.9251 0.0000 -10794.1625 1488.0612 0.0000 0.0000 1759.7998 -7532.7693 296.9723 -9292.5691 -7526.4865 299.8285 387.4324 445.3710 30279.7440 -176.5393 -88.6506
ENERGY: 1200000 0.6683 8.4220 1.5469 0.0000 -10799.6866 1449.7483 0.0000 0.0000 1754.2826 -7585.0185 296.0413 -9339.3011 -7536.8603 299.0379 -247.7620 -219.8063 30659.9310 -151.8502 -66.8343
ENERGY: 1500000 2.4822 6.7853 0.3263 0.0000 -10685.4567 1402.6705 0.0000 0.0000 1786.2716 -7486.9207 301.4396 -9273.1923 -7530.1147 299.0200 -322.6935 -278.2580 30582.5315 -102.9326 -21.0930
TCL: Running FEP window  18: Lambda1 0.1499999999999997 Lambda2 0.09999999999999969 [dLambda -0.05 ]
TCL: Setting parameter firsttimestep to 0
TCL: Setting parameter alchLambda to 0.1499999999999997
Info: NONBONDED TABLE R-SQUARED SPACING: 0.0625
Info: NONBONDED TABLE SIZE: 705 POINTS
TCL: Setting parameter alchLambda2 to 0.09999999999999969
Info: NONBONDED TABLE R-SQUARED SPACING: 0.0625
Info: NONBONDED TABLE SIZE: 705 POINTS
TCL: Running for 1500000 steps
ETITLE: TS BOND ANGLE DIHED IMPRP ELECT VDW BOUNDARY MISC KINETIC TOTAL TEMP POTENTIAL TOTALAVG TEMPAVG PRESSURE GPRESSURE VOLUME PRESSAVG GPRESSAVG
ENERGY: 0 2.4822 6.7853 0.3263 0.0000 -10685.4555 1402.4152 0.0000 0.0000 1785.4044 -7488.0419 301.2932 -9273.4463 -7488.0419 301.2932 -371.4456 -283.0863 30582.5315 -371.4456 -283.0863
ENERGY: 300000 1.8051 8.9462 2.1710 0.0000 -10849.7696 1437.1996 0.0000 0.0000 1775.3475 -7624.3003 299.5961 -9399.6478 -7547.6067 301.0442 -376.2721 -327.1961 30536.2692 -254.3839 -191.7982
ENERGY: 600000 3.4645 5.2312 2.2126 0.0000 -10852.3230 1540.3630 0.0000 0.0000 1789.9496 -7511.1021 302.0602 -9301.0517 -7518.5558 301.9100 733.7638 734.2657 30378.3099 10.5543 63.9562
ENERGY: 900000 4.0566 6.7975 1.0004 0.0000 -10701.0959 1432.4898 0.0000 0.0000 1719.3953 -7537.3564 290.1539 -9256.7516 -7520.7273 300.4716 5.4788 61.3323 30363.3909 -60.7230 -3.8254
ENERGY: 1200000 2.6055 9.5377 2.0144 0.0000 -10802.7140 1461.3345 0.0000 0.0000 1757.0919 -7570.1299 296.5154 -9327.2218 -7524.1877 300.0627 -89.8953 10.6532 30219.7209 -26.4600 38.7380
ENERGY: 1500000 2.6151 14.6504 0.8609 0.0000 -10846.2718 1460.7508 0.0000 0.0000 1763.7597 -7603.6348 297.6406 -9367.3945 -7533.1965 299.6021 -207.6987 -207.3423 30678.2666 -17.0197 47.0821
TCL: Running FEP window  19: Lambda1 0.09999999999999969 Lambda2 0.049999999999999684 [dLambda -0.05 ]
TCL: Setting parameter firsttimestep to 0
TCL: Setting parameter alchLambda to 0.09999999999999969
Info: NONBONDED TABLE R-SQUARED SPACING: 0.0625
Info: NONBONDED TABLE SIZE: 705 POINTS
TCL: Setting parameter alchLambda2 to 0.049999999999999684
Info: NONBONDED TABLE R-SQUARED SPACING: 0.0625
Info: NONBONDED TABLE SIZE: 705 POINTS
TCL: Running for 1500000 steps
ETITLE: TS BOND ANGLE DIHED IMPRP ELECT VDW BOUNDARY MISC KINETIC TOTAL TEMP POTENTIAL TOTALAVG TEMPAVG PRESSURE GPRESSURE VOLUME PRESSAVG GPRESSAVG
ENERGY: 0 2.6151 14.6504 0.8609 0.0000 -10846.2713 1460.4797 0.0000 0.0000 1762.8938 -7604.7712 297.4945 -9367.6651 -7604.7712 297.4945 -296.6198 -214.2630 30678.2666 -296.6198 -214.2630
ENERGY: 300000 0.3989 8.4510 0.4538 0.0000 -10786.6283 1391.5898 0.0000 0.0000 1760.5761 -7625.1587 297.1034 -9385.7348 -7568.7020 299.3742 -413.5397 -318.9838 29902.3801 -250.1095 -180.1337
ENERGY: 600000 1.8282 12.2866 1.7261 0.0000 -10930.9556 1594.0611 0.0000 0.0000 1787.2203 -7533.8334 301.5996 -9321.0537 -7562.7144 299.8597 1165.6284 1249.4136 29952.4395 -4.2375 63.1980
ENERGY: 900000 6.0127 8.5106 0.6089 0.0000 -10769.1043 1485.5488 0.0000 0.0000 1801.8787 -7466.5445 304.0733 -9268.4232 -7542.3258 301.3206 219.3138 273.3928 30509.2944 -4.2488 57.9831
ENERGY: 1200000 4.0956 8.4793 0.8932 0.0000 -10663.6728 1475.4985 0.0000 0.0000 1714.5080 -7460.1983 289.3292 -9174.7063 -7533.8863 300.0217 402.0030 449.7178 30855.7686 -72.4612 -9.4182
ENERGY: 1500000 1.4481 5.6990 3.6885 0.0000 -10821.3196 1565.8330 0.0000 0.0000 1747.8264 -7496.8246 294.9518 -9244.6510 -7529.0312 300.1657 1058.3830 1122.0542 30301.5679 12.7822 74.0040
TCL: Running FEP window  20: Lambda1 0.049999999999999684 Lambda2 0.0    [dLambda -0.049999999999999684]
TCL: Setting parameter firsttimestep to 0
TCL: Setting parameter alchLambda to 0.049999999999999684
Info: NONBONDED TABLE R-SQUARED SPACING: 0.0625
Info: NONBONDED TABLE SIZE: 705 POINTS
TCL: Setting parameter alchLambda2 to 0.0
Info: NONBONDED TABLE R-SQUARED SPACING: 0.0625
Info: NONBONDED TABLE SIZE: 705 POINTS
TCL: Running for 1500000 steps
ETITLE: TS BOND ANGLE DIHED IMPRP ELECT VDW BOUNDARY MISC KINETIC TOTAL TEMP POTENTIAL TOTALAVG TEMPAVG PRESSURE GPRESSURE VOLUME PRESSAVG GPRESSAVG
ENERGY: 0 1.4481 5.6990 3.6885 0.0000 -10821.3203 1565.9935 0.0000 0.0000 1746.9085 -7497.5828 294.7969 -9244.4913 -7497.5828 294.7969 1027.6316 1118.3466 30301.5679 1027.6316 1118.3466
ENERGY: 300000 0.8882 8.2979 1.7629 0.0000 -10799.5785 1528.4661 0.0000 0.0000 1712.2991 -7547.8644 288.9564 -9260.1634 -7542.7591 294.2963 884.6914 967.4131 30257.0807 650.8423 727.5563
ENERGY: 600000 2.7274 9.5943 0.6794 0.0000 -10628.7173 1367.7890 0.0000 0.0000 1881.8070 -7366.1202 317.5615 -9247.9272 -7505.4775 300.2930 -442.4534 -322.1526 30450.1544 197.3011 278.9876
ENERGY: 900000 4.2594 6.3468 0.6005 0.0000 -10764.1320 1462.6950 0.0000 0.0000 1812.5028 -7477.7276 305.8662 -9290.2304 -7520.4895 300.7398 241.5285 333.4542 30202.7171 193.6671 267.6106
ENERGY: 1200000 2.7216 10.3948 1.2204 0.0000 -10742.9613 1426.7633 0.0000 0.0000 1841.8632 -7459.9982 310.8208 -9301.8613 -7502.3129 302.2408 -192.5159 -177.4033 30629.7887 104.0125 175.1950
ENERGY: 1500000 6.1720 8.8793 1.1219 0.0000 -10857.9354 1535.6990 0.0000 0.0000 1824.4277 -7481.6356 307.8785 -9306.0632 -7503.5382 302.1370 231.1929 313.2728 31126.7793 186.9969 256.4288
TCL: Exiting due to exit command.
