Info: SIMULATION PARAMETERS:
Info: TIMESTEP               2
Info: NUMBER OF STEPS        0
Info: STEPS PER CYCLE        10
Info: PERIODIC CELL BASIS 1  30.9193 0 0
Info: PERIODIC CELL BASIS 2  0 30.663 0
Info: PERIODIC CELL BASIS 3  0 0 31.9913
Info: PERIODIC CELL CENTER   0 0 0
Info: WRAPPING WATERS AROUND PERIODIC BOUNDARIES ON OUTPUT.
Info: WRAPPING ALL CLUSTERS AROUND PERIODIC BOUNDARIES ON OUTPUT.
Info: FIRST LDB TIMESTEP     50
Info: LAST LDB TIMESTEP     -1
Info: HOM BACKGROUND SCALING 1
Info: PME BACKGROUND SCALING 1
Info: MIN ATOMS PER PATCH    40
Info: EMPTY PATCH LOAD       40 ATOMS
Info: VELOCITY FILE          mobley_1893815_equil.vel
Info: CENTER OF MASS MOVING INITIALLY? NO
Info: DIELECTRIC             1
Info: EXCLUDE                SCALED ONE-FOUR
Info: 1-4 ELECTROSTATICS SCALED BY 0.833333
Info: MODIFIED 1-4 VDW PARAMETERS WILL BE USED
Info: DCD FILENAME           mobley_1893815_prod.dcd
Info: DCD FREQUENCY          100000
Info: DCD FIRST STEP         100000
Info: DCD FILE WILL CONTAIN UNIT CELL DATA
Info: XST FILENAME           mobley_1893815_prod.xst
Info: XST FREQUENCY          100000
Info: NO VELOCITY DCD OUTPUT
Info: NO FORCE DCD OUTPUT
Info: OUTPUT FILENAME        mobley_1893815_prod
Info: BINARY OUTPUT FILES WILL BE USED
Info: RESTART FILENAME       mobley_1893815_prod.restart
Info: RESTART FREQUENCY      100000
Info: BINARY RESTART FILES WILL BE USED
Info: CUTOFF                 9
Info: PAIRLIST DISTANCE      11
Info: PAIRLIST SHRINK RATE   0.01
Info: PAIRLIST GROW RATE     0.01
Info: PAIRLIST TRIGGER       0.3
Info: PAIRLISTS PER CYCLE    2
Info: PAIRLISTS ENABLED
Info: MARGIN                 2
Info: HYDROGEN GROUP CUTOFF  2.5
Info: PATCH DIMENSION        15.5
Info: ENERGY OUTPUT STEPS    100000
Info: ENERGY EVALUATION STEPS    100000
Info: OUTPUT ENERGY PRECISION 4
Info: CROSSTERM ENERGY INCLUDED IN DIHEDRAL
Info: TIMING OUTPUT STEPS    1000000
Info: PRESSURE OUTPUT STEPS  100000
Info: ALCHEMICAL FEP ON
Info: FEP CURRENT LAMBDA VALUE     1
Info: FEP COMPARISON LAMBDA VALUE  0.95
Info: FEP INTRA-ALCHEMICAL NON-BONDED INTERACTIONS WILL BE RETAINED
Info: FEP INTRA-ALCHEMICAL BONDED INTERACTIONS WILL BE RETAINED
Info: FEP VDW SHIFTING COEFFICIENT 5
Info: FEP ELEC. ACTIVE FOR ANNIHILATED PARTICLES BETWEEN LAMBDA = 0 AND LAMBDA = 0.5
Info: FEP ELEC. ACTIVE FOR EXNIHILATED PARTICLES BETWEEN LAMBDA = 0.5 AND LAMBDA = 1
Info: FEP VDW ACTIVE FOR ANNIHILATED PARTICLES BETWEEN LAMBDA = 0 AND LAMBDA = 1
Info: FEP VDW ACTIVE FOR EXNIHILATED PARTICLES BETWEEN LAMBDA = 0 AND LAMBDA = 1
Info: FEP BOND ACTIVE FOR ANNIHILATED PARTICLES BETWEEN LAMBDA = 1 AND LAMBDA = 1
Info: FEP BOND ACTIVE FOR EXNIHILATED PARTICLES BETWEEN LAMBDA = 0 AND LAMBDA = 0
Info: LANGEVIN DYNAMICS ACTIVE
Info: LANGEVIN TEMPERATURE   300
Info: LANGEVIN USING BBK INTEGRATOR
Info: LANGEVIN DAMPING COEFFICIENT IS 1 INVERSE PS
Info: LANGEVIN DYNAMICS APPLIED TO HYDROGENS
Info: LANGEVIN PISTON PRESSURE CONTROL ACTIVE
Info:        TARGET PRESSURE IS 1.01325 BAR
Info:     OSCILLATION PERIOD IS 50 FS
Info:             DECAY TIME IS 25 FS
Info:     PISTON TEMPERATURE IS 300 K
Info:       PRESSURE CONTROL IS GROUP-BASED
Info:    INITIAL STRAIN RATE IS -0.000213586 -0.000213586 -0.000213586
Info:       CELL FLUCTUATION IS ISOTROPIC
Info: PARTICLE MESH EWALD (PME) ACTIVE
Info: PME TOLERANCE               1e-06
Info: PME EWALD COEFFICIENT       0.348832
Info: PME INTERPOLATION ORDER     4
Info: PME GRID DIMENSIONS         32 32 32
Info: PME MAXIMUM GRID SPACING    1
Info: PME CALCULATION WILL BE PERFORMED ON GPU
Info: FULL ELECTROSTATIC EVALUATION FREQUENCY      2
Info: USING VERLET I (r-RESPA) MTS SCHEME.
Info: C1 SPLITTING OF LONG RANGE ELECTROSTATICS
Info: PLACING ATOMS IN PATCHES BY HYDROGEN GROUPS
Info: RIGID BONDS TO HYDROGEN : ALL
Info:         ERROR TOLERANCE : 1e-08
Info:          MAX ITERATIONS : 100
Info: RIGID WATER USING SETTLE ALGORITHM
Info: RANDOM NUMBER SEED     1743501836
Info: USE HYDROGEN BONDS?    NO
Info: Using AMBER format force field!
Info: AMBER PARM FILE        mobley_1893815.prmtop
Info: COORDINATE PDB         mobley_1893815.pdb
Info: Exclusions will be read from PARM file!
Info: SCNB (VDW SCALING)     2
Info: USING ARITHMETIC MEAN TO COMBINE L-J SIGMA PARAMETERS
Info: BINARY COORDINATES     mobley_1893815_equil.coor
Info: SUMMARY OF PARAMETERS:
Info: 5 BONDS
Info: 5 ANGLES
Info:   5 HARMONIC
Info:   0 COSINE-BASED
Info: 3 DIHEDRAL
Info: 0 IMPROPER
Info: 0 CROSSTERM
Info: 0 VDW
Info: 15 VDW_PAIRS
Info: 0 NBTHOLE_PAIRS
Info: To read alchdata from file: mobley_1893815.pdb
Info: To read alchflag data from column: 5
Info: STRUCTURE SUMMARY:
Info: 2951 ATOMS
Info: 2950 BONDS
Info: 12 ANGLES
Info: 18 DIHEDRALS
Info: 0 IMPROPERS
Info: 0 CROSSTERMS
Info: 2971 EXCLUSIONS
Info: 2945 RIGID BONDS
Info: ALCH: 0 ATOMS TO DISAPPEAR IN FINAL STATE
Info: ALCH: 8 ATOMS TO APPEAR IN FINAL STATE
Info: 5908 DEGREES OF FREEDOM
Info: 987 HYDROGEN GROUPS
Info: 3 ATOMS IN LARGEST HYDROGEN GROUP
Info: 987 MIGRATION GROUPS
Info: 3 ATOMS IN LARGEST MIGRATION GROUP
Info: TOTAL MASS = 17841.5 amu
Info: TOTAL CHARGE = -0.00010001 e
Info: MASS DENSITY = 0.976822 g/cm^3
Info: ATOM DENSITY = 0.0972956 atoms/A^3
Info: ADDED 0 IMPLICIT EXCLUSIONS
Info: NONBONDED TABLE R-SQUARED SPACING: 0.0625
Info: NONBONDED TABLE SIZE: 705 POINTS
Info: REMOVING COM VELOCITY -0.170934 -0.180896 0.177312
Info: Use 3D box decompostion in PME FFT.
Info: Updated CUDA force table with 4096 elements.
Info: Updated CUDA LJ table with 5 x 5 elements.
Info: Found 11 unique exclusion lists needing 16 bytes
TCL: Running for 1500000 steps
ETITLE: TS BOND ANGLE DIHED IMPRP ELECT VDW BOUNDARY MISC KINETIC TOTAL TEMP POTENTIAL TOTALAVG TEMPAVG PRESSURE GPRESSURE VOLUME PRESSAVG GPRESSAVG
ENERGY: 0 0.2755 6.3982 2.8197 0.0000 -10617.8962 1386.8896 0.0000 0.0000 1691.0917 -7530.4215 288.0826 -9221.5133 -7530.4215 288.0826 -207.7895 -131.8048 30330.2415 -207.7895 -131.8048
ENERGY: 300000 0.2555 2.0809 2.9173 0.0000 -10664.8458 1405.2458 0.0000 0.0000 1763.0805 -7491.2658 300.3461 -9254.3463 -7504.1982 294.9245 -486.0559 -409.8061 31077.0243 -175.7907 -92.9515
ENERGY: 600000 1.4891 2.7780 2.8230 0.0000 -10693.9451 1397.5993 0.0000 0.0000 1730.8126 -7558.4430 294.8492 -9289.2556 -7509.8170 296.3742 -478.5328 -373.2679 30461.0930 -159.3426 -76.4891
ENERGY: 900000 0.7647 2.1086 2.8575 0.0000 -10534.0615 1405.6864 0.0000 0.0000 1747.4120 -7375.2324 297.6769 -9122.6443 -7487.4133 297.8154 -243.9345 -135.1774 31421.0158 -243.4562 -169.9304
ENERGY: 1200000 0.9786 1.9625 2.8084 0.0000 -10562.0810 1364.6279 0.0000 0.0000 1768.4991 -7423.2044 301.2692 -9191.7035 -7488.2885 298.5441 -448.4828 -373.4632 30685.6092 -200.7327 -126.9680
ENERGY: 1500000 1.3042 2.1335 2.8528 0.0000 -10734.7402 1469.6166 0.0000 0.0000 1741.7247 -7517.1084 296.7081 -9258.8331 -7491.5077 298.4601 211.8600 285.8885 30476.8259 -152.6855 -84.0972
TCL: Running FEP window   2: Lambda1 0.95   Lambda2 0.8999999999999999 [dLambda -0.050000000000000044]
TCL: Setting parameter firsttimestep to 0
TCL: Setting parameter alchLambda to 0.95
Info: NONBONDED TABLE R-SQUARED SPACING: 0.0625
Info: NONBONDED TABLE SIZE: 705 POINTS
TCL: Setting parameter alchLambda2 to 0.8999999999999999
Info: NONBONDED TABLE R-SQUARED SPACING: 0.0625
Info: NONBONDED TABLE SIZE: 705 POINTS
TCL: Running for 1500000 steps
ETITLE: TS BOND ANGLE DIHED IMPRP ELECT VDW BOUNDARY MISC KINETIC TOTAL TEMP POTENTIAL TOTALAVG TEMPAVG PRESSURE GPRESSURE VOLUME PRESSAVG GPRESSAVG
ENERGY: 0 1.3042 2.1335 2.8528 0.0000 -10734.3999 1469.8751 0.0000 0.0000 1740.8386 -7517.3957 296.5572 -9258.2343 -7517.3957 296.5572 214.8742 278.0796 30476.8259 214.8742 278.0796
ENERGY: 300000 3.6867 3.5559 2.8167 0.0000 -10753.2283 1450.2720 0.0000 0.0000 1726.9676 -7565.9295 294.1942 -9292.8971 -7523.1886 298.1853 255.1149 284.9967 30083.6833 415.1585 457.3631
ENERGY: 600000 0.0965 0.9297 2.8809 0.0000 -10741.2903 1340.4083 0.0000 0.0000 1705.3206 -7691.6543 290.5065 -9396.9748 -7543.4668 298.6211 -1067.6930 -1029.4319 30382.1677 -20.7151 35.3331
ENERGY: 900000 1.4507 3.7440 2.8234 0.0000 -10645.7220 1400.0946 0.0000 0.0000 1779.3194 -7458.2899 303.1125 -9237.6093 -7508.4233 299.9184 11.1540 74.7658 30146.5036 -91.9133 -36.0482
ENERGY: 1200000 2.0291 4.2463 2.9423 0.0000 -10636.0881 1320.8952 0.0000 0.0000 1699.4960 -7606.4792 289.5143 -9305.9752 -7513.9781 299.2623 -1176.4614 -1109.6653 30870.1911 -248.0513 -193.0807
ENERGY: 1500000 0.3364 3.8967 2.8657 0.0000 -10750.6418 1448.0752 0.0000 0.0000 1724.1974 -7571.2703 293.7223 -9295.4677 -7524.3651 298.9813 -198.7482 -119.8646 30727.8801 -160.1343 -106.6322
TCL: Running FEP window   3: Lambda1 0.8999999999999999 Lambda2 0.8499999999999999 [dLambda -0.050000000000000044]
TCL: Setting parameter firsttimestep to 0
TCL: Setting parameter alchLambda to 0.8999999999999999
Info: NONBONDED TABLE R-SQUARED SPACING: 0.0625
Info: NONBONDED TABLE SIZE: 705 POINTS
TCL: Setting parameter alchLambda2 to 0.8499999999999999
Info: NONBONDED TABLE R-SQUARED SPACING: 0.0625
Info: NONBONDED TABLE SIZE: 705 POINTS
TCL: Running for 1500000 steps
ETITLE: TS BOND ANGLE DIHED IMPRP ELECT VDW BOUNDARY MISC KINETIC TOTAL TEMP POTENTIAL TOTALAVG TEMPAVG PRESSURE GPRESSURE VOLUME PRESSAVG GPRESSAVG
ENERGY: 0 0.3364 3.8968 2.8657 0.0000 -10750.5144 1448.6052 0.0000 0.0000 1723.2798 -7571.5305 293.5660 -9294.8103 -7571.5305 293.5660 -192.7043 -123.2754 30727.8801 -192.7043 -123.2754
ENERGY: 300000 0.4672 7.5685 2.8119 0.0000 -10510.0228 1300.7321 0.0000 0.0000 1722.7282 -7475.7149 293.4720 -9198.4430 -7535.5342 297.4210 -946.9995 -877.4699 30655.6035 -171.5114 -123.5373
ENERGY: 600000 0.4939 3.9867 2.8972 0.0000 -10674.7730 1389.8262 0.0000 0.0000 1809.2780 -7468.2910 308.2160 -9277.5690 -7533.0045 298.0473 -433.1689 -350.3236 30784.2923 -92.5815 -36.4885
ENERGY: 900000 2.8693 4.2233 2.8998 0.0000 -10777.8831 1472.1577 0.0000 0.0000 1812.8269 -7482.9062 308.8206 -9295.7331 -7526.6989 299.5742 150.2213 227.8330 30338.4068 -55.5932 -2.3919
ENERGY: 1200000 1.9803 1.8076 2.8414 0.0000 -10687.0552 1406.0726 0.0000 0.0000 1757.1951 -7517.1582 299.3435 -9274.3533 -7521.6259 299.4645 -280.4024 -284.9431 30475.9494 -28.5409 20.6934
ENERGY: 1500000 0.7334 5.0917 2.9310 0.0000 -10784.3094 1491.6473 0.0000 0.0000 1801.9551 -7481.9508 306.9685 -9283.9059 -7514.2535 299.2094 403.7500 464.4005 30512.6313 -44.8663 5.1961
TCL: Running FEP window   4: Lambda1 0.8499999999999999 Lambda2 0.7999999999999998 [dLambda -0.050000000000000044]
TCL: Setting parameter firsttimestep to 0
TCL: Setting parameter alchLambda to 0.8499999999999999
Info: NONBONDED TABLE R-SQUARED SPACING: 0.0625
Info: NONBONDED TABLE SIZE: 705 POINTS
TCL: Setting parameter alchLambda2 to 0.7999999999999998
Info: NONBONDED TABLE R-SQUARED SPACING: 0.0625
Info: NONBONDED TABLE SIZE: 705 POINTS
TCL: Running for 1500000 steps
ETITLE: TS BOND ANGLE DIHED IMPRP ELECT VDW BOUNDARY MISC KINETIC TOTAL TEMP POTENTIAL TOTALAVG TEMPAVG PRESSURE GPRESSURE VOLUME PRESSAVG GPRESSAVG
ENERGY: 0 0.7334 5.0917 2.9310 0.0000 -10783.9292 1491.9735 0.0000 0.0000 1801.0669 -7482.1326 306.8172 -9283.1995 -7482.1326 306.8172 385.0705 461.9615 30512.6313 385.0705 461.9615
ENERGY: 300000 1.6619 3.8570 2.7955 0.0000 -10649.0404 1380.4880 0.0000 0.0000 1731.9529 -7528.2852 295.0434 -9260.2380 -7525.4148 300.9787 -274.5008 -212.5408 30429.5155 -18.9987 57.4962
ENERGY: 600000 1.4101 2.8072 2.8089 0.0000 -10705.7139 1439.3988 0.0000 0.0000 1741.8217 -7517.4671 296.7246 -9259.2888 -7513.0512 299.2738 78.1403 113.4933 30228.1334 0.1552 63.3550
ENERGY: 900000 1.4717 1.2545 2.9083 0.0000 -10734.0993 1423.5132 0.0000 0.0000 1809.7094 -7495.2421 308.2895 -9304.9515 -7499.6635 301.1062 -45.5877 56.0383 30122.7699 26.7800 89.3717
ENERGY: 1200000 1.1196 3.9345 2.8328 0.0000 -10613.1542 1401.4563 0.0000 0.0000 1738.9232 -7464.8878 296.2309 -9203.8110 -7492.3308 300.7028 -137.1357 -74.1636 30554.9331 37.0169 96.4502
ENERGY: 1500000 3.9378 1.1572 2.8317 0.0000 -10834.5677 1487.4925 0.0000 0.0000 1746.7163 -7592.4321 297.5584 -9339.1484 -7504.4466 299.5434 343.0197 436.1337 30265.4785 -9.2626 57.8618
TCL: Running FEP window   5: Lambda1 0.7999999999999998 Lambda2 0.7499999999999998 [dLambda -0.050000000000000044]
TCL: Setting parameter firsttimestep to 0
TCL: Setting parameter alchLambda to 0.7999999999999998
Info: NONBONDED TABLE R-SQUARED SPACING: 0.0625
Info: NONBONDED TABLE SIZE: 705 POINTS
TCL: Setting parameter alchLambda2 to 0.7499999999999998
Info: NONBONDED TABLE R-SQUARED SPACING: 0.0625
Info: NONBONDED TABLE SIZE: 705 POINTS
TCL: Running for 1500000 steps
ETITLE: TS BOND ANGLE DIHED IMPRP ELECT VDW BOUNDARY MISC KINETIC TOTAL TEMP POTENTIAL TOTALAVG TEMPAVG PRESSURE GPRESSURE VOLUME PRESSAVG GPRESSAVG
ENERGY: 0 3.9378 1.1572 2.8317 0.0000 -10834.3629 1487.8200 0.0000 0.0000 1745.8320 -7592.7840 297.4078 -9338.6161 -7592.7840 297.4078 334.4503 427.5808 30265.4785 334.4503 427.5808
ENERGY: 300000 0.9059 3.8512 2.9146 0.0000 -10852.4235 1560.3205 0.0000 0.0000 1751.6529 -7532.7784 298.3994 -9284.4313 -7543.6846 301.4625 810.5909 876.2474 30468.1876 472.9384 506.6541
ENERGY: 600000 1.4360 3.0437 2.8865 0.0000 -10771.2765 1438.7045 0.0000 0.0000 1779.9823 -7545.2236 303.2254 -9325.2059 -7551.9899 300.3839 -0.4428 -19.4075 30280.2666 289.7743 316.3612
ENERGY: 900000 0.8710 3.1931 2.8697 0.0000 -10714.9602 1496.1273 0.0000 0.0000 1752.7666 -7459.1326 298.5891 -9211.8992 -7532.9564 300.4644 426.6870 412.9666 31032.4106 251.0563 279.9056
ENERGY: 1200000 3.5606 1.8333 2.8970 0.0000 -10670.8738 1368.0763 0.0000 0.0000 1773.3569 -7521.1496 302.0968 -9294.5066 -7516.4982 301.9236 -122.7589 -92.3414 29507.2228 246.6951 284.5047
ENERGY: 1500000 1.0527 7.5556 2.7688 0.0000 -10625.4618 1341.5712 0.0000 0.0000 1773.9745 -7498.5390 302.2020 -9272.5135 -7516.9793 301.5634 -694.9985 -672.7025 30325.3638 122.2548 159.0232
TCL: Running FEP window   6: Lambda1 0.7499999999999998 Lambda2 0.6999999999999997 [dLambda -0.050000000000000044]
TCL: Setting parameter firsttimestep to 0
TCL: Setting parameter alchLambda to 0.7499999999999998
Info: NONBONDED TABLE R-SQUARED SPACING: 0.0625
Info: NONBONDED TABLE SIZE: 705 POINTS
TCL: Setting parameter alchLambda2 to 0.6999999999999997
Info: NONBONDED TABLE R-SQUARED SPACING: 0.0625
Info: NONBONDED TABLE SIZE: 705 POINTS
TCL: Running for 1500000 steps
ETITLE: TS BOND ANGLE DIHED IMPRP ELECT VDW BOUNDARY MISC KINETIC TOTAL TEMP POTENTIAL TOTALAVG TEMPAVG PRESSURE GPRESSURE VOLUME PRESSAVG GPRESSAVG
ENERGY: 0 1.0527 7.5556 2.7688 0.0000 -10625.1463 1341.4414 0.0000 0.0000 1773.1152 -7499.2126 302.0556 -9272.3277 -7499.2126 302.0556 -753.9325 -682.4178 30325.3638 -753.9325 -682.4178
ENERGY: 300000 3.3140 1.6696 2.8237 0.0000 -10572.0882 1381.0626 0.0000 0.0000 1738.0287 -7445.1896 296.0785 -9183.2183 -7499.4098 299.1749 -265.1649 -163.7809 30615.4487 -348.2787 -282.3376
ENERGY: 600000 3.8909 1.1200 2.8905 0.0000 -10694.2276 1404.6395 0.0000 0.0000 1763.0775 -7518.6092 300.3456 -9281.6867 -7530.8446 297.1706 -475.4273 -360.2931 30630.7612 -345.1505 -275.6938
ENERGY: 900000 0.9293 1.6681 2.8450 0.0000 -10701.3376 1449.9759 0.0000 0.0000 1703.7254 -7542.1938 290.2348 -9245.9192 -7538.9919 296.4540 259.9795 293.8053 30094.3007 -254.0432 -183.7465
ENERGY: 1200000 1.9918 5.1263 2.9395 0.0000 -10786.3679 1480.9851 0.0000 0.0000 1781.7760 -7513.5493 303.5310 -9295.3253 -7535.9994 296.9562 205.6356 235.2964 30316.6322 -149.7559 -86.1535
ENERGY: 1500000 0.7689 2.4323 2.8056 0.0000 -10776.4481 1483.6591 0.0000 0.0000 1716.1330 -7570.6492 292.3485 -9286.7822 -7534.1447 297.2238 250.9884 367.4538 30301.8916 -111.8027 -46.4337
TCL: Running FEP window   7: Lambda1 0.6999999999999997 Lambda2 0.6499999999999997 [dLambda -0.050000000000000044]
TCL: Setting parameter firsttimestep to 0
TCL: Setting parameter alchLambda to 0.6999999999999997
Info: NONBONDED TABLE R-SQUARED SPACING: 0.0625
Info: NONBONDED TABLE SIZE: 705 POINTS
TCL: Setting parameter alchLambda2 to 0.6499999999999997
Info: NONBONDED TABLE R-SQUARED SPACING: 0.0625
Info: NONBONDED TABLE SIZE: 705 POINTS
TCL: Running for 1500000 steps
ETITLE: TS BOND ANGLE DIHED IMPRP ELECT VDW BOUNDARY MISC KINETIC TOTAL TEMP POTENTIAL TOTALAVG TEMPAVG PRESSURE GPRESSURE VOLUME PRESSAVG GPRESSAVG
ENERGY: 0 0.7689 2.4323 2.8056 0.0000 -10776.5011 1484.0638 0.0000 0.0000 1715.2508 -7571.1797 292.1982 -9286.4305 -7571.1797 292.1982 274.7470 360.7952 30301.8916 274.7470 360.7952
ENERGY: 300000 1.6837 1.7625 2.8152 0.0000 -10821.2955 1544.8303 0.0000 0.0000 1786.2733 -7483.9305 304.2971 -9270.2038 -7491.6926 297.5731 891.3969 974.0272 30330.2665 452.4143 515.7618
ENERGY: 600000 2.3880 3.1331 2.8308 0.0000 -10650.1555 1370.0209 0.0000 0.0000 1733.7955 -7537.9873 295.3573 -9271.7828 -7514.3089 297.9949 -648.1384 -597.4630 30692.3491 175.0685 251.6825
ENERGY: 900000 0.2742 3.7855 2.8677 0.0000 -10666.1417 1398.6981 0.0000 0.0000 1758.9845 -7501.5317 299.6484 -9260.5162 -7523.6673 298.4687 -374.1082 -294.6332 30379.6096 211.2518 284.4913
ENERGY: 1200000 0.9296 1.1431 2.8438 0.0000 -10588.6381 1375.6025 0.0000 0.0000 1767.5819 -7440.5372 301.1130 -9208.1191 -7517.9301 298.9097 -435.6951 -398.4245 30877.4533 119.3030 191.8102
ENERGY: 1500000 2.8246 2.5060 2.8376 0.0000 -10776.7304 1419.8970 0.0000 0.0000 1777.0545 -7571.6107 302.7266 -9348.6653 -7518.3964 299.5499 -361.4503 -335.1344 30329.6314 38.0726 105.7583
TCL: Running FEP window   8: Lambda1 0.6499999999999997 Lambda2 0.5999999999999996 [dLambda -0.050000000000000044]
TCL: Setting parameter firsttimestep to 0
TCL: Setting parameter alchLambda to 0.6499999999999997
Info: NONBONDED TABLE R-SQUARED SPACING: 0.0625
Info: NONBONDED TABLE SIZE: 705 POINTS
TCL: Setting parameter alchLambda2 to 0.5999999999999996
Info: NONBONDED TABLE R-SQUARED SPACING: 0.0625
Info: NONBONDED TABLE SIZE: 705 POINTS
TCL: Running for 1500000 steps
ETITLE: TS BOND ANGLE DIHED IMPRP ELECT VDW BOUNDARY MISC KINETIC TOTAL TEMP POTENTIAL TOTALAVG TEMPAVG PRESSURE GPRESSURE VOLUME PRESSAVG GPRESSAVG
ENERGY: 0 2.8246 2.5060 2.8376 0.0000 -10776.7534 1420.3673 0.0000 0.0000 1776.2085 -7572.0094 302.5825 -9348.2179 -7572.0094 302.5825 -415.9203 -338.4809 30329.6314 -415.9203 -338.4809
ENERGY: 300000 0.9414 6.5433 2.9009 0.0000 -10829.6541 1486.9376 0.0000 0.0000 1777.3856 -7554.9453 302.7830 -9332.3308 -7566.1036 301.8962 149.6213 280.6757 30170.0963 -202.5674 -129.5976
ENERGY: 600000 3.3948 3.2521 2.9432 0.0000 -10644.5722 1392.0465 0.0000 0.0000 1731.6167 -7511.3188 294.9862 -9242.9354 -7545.0465 300.2263 -362.1099 -245.0604 30211.5946 -130.7390 -52.7775
ENERGY: 900000 2.1378 2.9969 2.9210 0.0000 -10752.4245 1434.2806 0.0000 0.0000 1749.7109 -7560.3773 298.0686 -9310.0881 -7547.2768 300.0542 -155.6197 -159.2939 30157.2057 -118.9135 -58.8770
ENERGY: 1200000 1.1567 2.7104 2.8598 0.0000 -10676.1364 1436.3650 0.0000 0.0000 1770.4706 -7462.5740 301.6050 -9233.0446 -7538.4211 299.3822 16.6275 70.5060 30675.9814 -147.2473 -85.3577
ENERGY: 1500000 0.9617 4.6901 2.7812 0.0000 -10538.5207 1373.3094 0.0000 0.0000 1803.0058 -7353.7726 307.1475 -9156.7784 -7530.5073 299.6017 -178.3207 -81.3686 30550.0574 -139.8436 -74.0015
TCL: Running FEP window   9: Lambda1 0.5999999999999996 Lambda2 0.5499999999999996 [dLambda -0.050000000000000044]
TCL: Setting parameter firsttimestep to 0
TCL: Setting parameter alchLambda to 0.5999999999999996
Info: NONBONDED TABLE R-SQUARED SPACING: 0.0625
Info: NONBONDED TABLE SIZE: 705 POINTS
TCL: Setting parameter alchLambda2 to 0.5499999999999996
Info: NONBONDED TABLE R-SQUARED SPACING: 0.0625
Info: NONBONDED TABLE SIZE: 705 POINTS
TCL: Running for 1500000 steps
ETITLE: TS BOND ANGLE DIHED IMPRP ELECT VDW BOUNDARY MISC KINETIC TOTAL TEMP POTENTIAL TOTALAVG TEMPAVG PRESSURE GPRESSURE VOLUME PRESSAVG GPRESSAVG
ENERGY: 0 0.9617 4.6901 2.7812 0.0000 -10538.5928 1373.6009 0.0000 0.0000 1802.1408 -7354.4181 307.0002 -9156.5589 -7354.4181 307.0002 -162.2275 -84.7010 30550.0574 -162.2275 -84.7010
ENERGY: 300000 1.2276 1.8948 2.8442 0.0000 -10618.3526 1355.6442 0.0000 0.0000 1810.2308 -7446.5109 308.3783 -9256.7417 -7443.6987 302.4284 -439.5451 -388.6802 30122.4028 -455.2344 -400.1021
ENERGY: 600000 0.8099 2.2731 2.8216 0.0000 -10666.6324 1418.0209 0.0000 0.0000 1787.5805 -7455.1263 304.5198 -9242.7069 -7465.9908 300.1902 -2.6912 80.8668 30135.8324 -247.2215 -182.0992
ENERGY: 900000 0.8109 4.6076 2.7665 0.0000 -10783.8843 1476.1762 0.0000 0.0000 1762.6028 -7536.9204 300.2647 -9299.5231 -7484.3491 299.9098 113.3455 177.0281 30191.3742 -172.7398 -100.1605
ENERGY: 1200000 2.5187 4.6929 2.9015 0.0000 -10557.4696 1398.7560 0.0000 0.0000 1755.6976 -7392.9029 299.0884 -9148.6006 -7483.9529 300.1827 -19.7399 6.5361 30618.1554 -219.9161 -154.9993
ENERGY: 1500000 2.4562 3.1113 2.8293 0.0000 -10730.9253 1454.8317 0.0000 0.0000 1778.4163 -7489.2805 302.9586 -9267.6968 -7492.2826 299.6915 400.3405 414.1638 30208.0602 -169.2681 -107.9792
TCL: Running FEP window  10: Lambda1 0.5499999999999996 Lambda2 0.4999999999999996 [dLambda -0.04999999999999999]
TCL: Setting parameter firsttimestep to 0
TCL: Setting parameter alchLambda to 0.5499999999999996
Info: NONBONDED TABLE R-SQUARED SPACING: 0.0625
Info: NONBONDED TABLE SIZE: 705 POINTS
TCL: Setting parameter alchLambda2 to 0.4999999999999996
Info: NONBONDED TABLE R-SQUARED SPACING: 0.0625
Info: NONBONDED TABLE SIZE: 705 POINTS
TCL: Running for 1500000 steps
ETITLE: TS BOND ANGLE DIHED IMPRP ELECT VDW BOUNDARY MISC KINETIC TOTAL TEMP POTENTIAL TOTALAVG TEMPAVG PRESSURE GPRESSURE VOLUME PRESSAVG GPRESSAVG
ENERGY: 0 2.4562 3.1113 2.8293 0.0000 -10730.8057 1454.9422 0.0000 0.0000 1777.5637 -7489.9031 302.8134 -9267.4667 -7489.9031 302.8134 322.3745 405.5704 30208.0602 322.3745 405.5704
ENERGY: 300000 3.2136 7.5921 2.8064 0.0000 -10654.6499 1424.0288 0.0000 0.0000 1741.5431 -7475.4659 296.6772 -9217.0090 -7476.9736 299.5209 -317.5616 -174.7890 30801.4889 -46.5567 20.1866
ENERGY: 600000 0.6579 4.6384 2.9371 0.0000 -10799.3983 1448.3149 0.0000 0.0000 1765.8749 -7576.9752 300.8222 -9342.8501 -7481.5288 301.4666 -65.9244 -18.1769 30277.3690 9.9671 66.5567
ENERGY: 900000 1.0740 1.3959 2.8779 0.0000 -10663.4229 1431.4859 0.0000 0.0000 1710.7446 -7515.8447 291.4305 -9226.5893 -7478.2598 300.3273 109.2582 184.0034 30253.2763 19.4997 85.0463
ENERGY: 1200000 2.6572 4.9799 2.8903 0.0000 -10700.5098 1396.5070 0.0000 0.0000 1741.9997 -7551.4756 296.7550 -9293.4754 -7482.4402 300.8338 -269.9045 -239.9146 30063.0946 -32.7618 25.1358
ENERGY: 1500000 3.2504 3.4561 2.7876 0.0000 -10690.1244 1409.4170 0.0000 0.0000 1800.2136 -7470.9997 306.6719 -9271.2133 -7481.3578 302.0009 -648.9942 -536.7815 30683.2390 -53.6670 9.4130
TCL: Running FEP window  11: Lambda1 0.4999999999999996 Lambda2 0.4499999999999996 [dLambda -0.04999999999999999]
TCL: Setting parameter firsttimestep to 0
TCL: Setting parameter alchLambda to 0.4999999999999996
Info: NONBONDED TABLE R-SQUARED SPACING: 0.0625
Info: NONBONDED TABLE SIZE: 705 POINTS
TCL: Setting parameter alchLambda2 to 0.4499999999999996
Info: NONBONDED TABLE R-SQUARED SPACING: 0.0625
Info: NONBONDED TABLE SIZE: 705 POINTS
TCL: Running for 1500000 steps
ETITLE: TS BOND ANGLE DIHED IMPRP ELECT VDW BOUNDARY MISC KINETIC TOTAL TEMP POTENTIAL TOTALAVG TEMPAVG PRESSURE GPRESSURE VOLUME PRESSAVG GPRESSAVG
ENERGY: 0 3.2504 3.4561 2.7876 0.0000 -10690.0442 1409.8734 0.0000 0.0000 1799.3438 -7471.3330 306.5237 -9270.6768 -7471.3330 306.5237 -615.5604 -540.3831 30683.2390 -615.5604 -540.3831
ENERGY: 300000 1.8227 2.5592 2.9093 0.0000 -10753.8135 1485.4953 0.0000 0.0000 1695.3286 -7565.6984 288.8044 -9261.0269 -7509.8570 299.9117 606.8456 664.9006 30303.9816 -224.8729 -154.6459
ENERGY: 600000 1.6353 3.5221 2.8282 0.0000 -10526.0423 1311.8832 0.0000 0.0000 1719.0660 -7487.1076 292.8481 -9206.1736 -7514.6094 297.6390 -810.4807 -695.2793 30316.7540 -128.4356 -54.7395
ENERGY: 900000 1.1818 3.2665 2.8550 0.0000 -10675.7853 1381.0580 0.0000 0.0000 1795.9450 -7491.4791 305.9447 -9287.4241 -7509.7319 298.4236 -819.2218 -773.5261 30876.2461 -110.5210 -29.4204
ENERGY: 1200000 0.4830 3.0067 2.9159 0.0000 -10706.5190 1404.7193 0.0000 0.0000 1798.6397 -7496.7544 306.4037 -9295.3941 -7496.3995 299.4204 -406.1636 -361.1260 30786.9912 -83.1021 -2.8872
ENERGY: 1500000 2.2084 2.7874 2.8970 0.0000 -10809.6587 1460.1354 0.0000 0.0000 1724.8074 -7616.8230 293.8262 -9341.6305 -7506.7178 298.9484 -146.6115 -120.8409 30443.7387 -5.1433 63.1957
TCL: Running FEP window  12: Lambda1 0.4499999999999996 Lambda2 0.39999999999999963 [dLambda -0.04999999999999999]
TCL: Setting parameter firsttimestep to 0
TCL: Setting parameter alchLambda to 0.4499999999999996
Info: NONBONDED TABLE R-SQUARED SPACING: 0.0625
Info: NONBONDED TABLE SIZE: 705 POINTS
TCL: Setting parameter alchLambda2 to 0.39999999999999963
Info: NONBONDED TABLE R-SQUARED SPACING: 0.0625
Info: NONBONDED TABLE SIZE: 705 POINTS
TCL: Running for 1500000 steps
ETITLE: TS BOND ANGLE DIHED IMPRP ELECT VDW BOUNDARY MISC KINETIC TOTAL TEMP POTENTIAL TOTALAVG TEMPAVG PRESSURE GPRESSURE VOLUME PRESSAVG GPRESSAVG
ENERGY: 0 2.2084 2.7874 2.8970 0.0000 -10809.6577 1460.3694 0.0000 0.0000 1723.9210 -7617.4745 293.6752 -9341.3955 -7617.4745 293.6752 -194.9577 -123.0865 30443.7387 -194.9577 -123.0865
ENERGY: 300000 0.4599 5.8532 2.9640 0.0000 -10754.5282 1511.2446 0.0000 0.0000 1734.2144 -7499.7920 295.4287 -9234.0064 -7526.2765 299.3458 567.6451 637.1816 30513.4441 -21.1748 58.3596
ENERGY: 600000 0.9157 2.8657 2.8980 0.0000 -10732.8166 1467.0340 0.0000 0.0000 1726.5210 -7532.5823 294.1181 -9259.1033 -7514.4795 299.6572 255.4753 325.5576 30287.8331 231.4099 309.5724
ENERGY: 900000 1.4736 1.7873 2.9155 0.0000 -10773.5377 1442.6157 0.0000 0.0000 1768.7763 -7555.9693 301.3164 -9324.7457 -7512.5065 299.8125 -280.0922 -173.8996 30384.4351 196.7488 267.8116
ENERGY: 1200000 2.4895 1.0617 2.8223 0.0000 -10662.0962 1432.7090 0.0000 0.0000 1759.3479 -7463.6658 299.7103 -9223.0137 -7503.1380 299.9723 244.7598 288.9576 30318.1744 195.7147 262.4162
ENERGY: 1500000 1.9252 2.4300 2.8804 0.0000 -10662.3416 1413.6098 0.0000 0.0000 1752.8604 -7488.6357 298.6051 -9241.4961 -7501.5871 299.8618 -578.8330 -488.9490 30990.6016 113.1366 180.6216
TCL: Running FEP window  13: Lambda1 0.39999999999999963 Lambda2 0.34999999999999964 [dLambda -0.04999999999999999]
TCL: Setting parameter firsttimestep to 0
TCL: Setting parameter alchLambda to 0.39999999999999963
Info: NONBONDED TABLE R-SQUARED SPACING: 0.0625
Info: NONBONDED TABLE SIZE: 705 POINTS
TCL: Setting parameter alchLambda2 to 0.34999999999999964
Info: NONBONDED TABLE R-SQUARED SPACING: 0.0625
Info: NONBONDED TABLE SIZE: 705 POINTS
TCL: Running for 1500000 steps
ETITLE: TS BOND ANGLE DIHED IMPRP ELECT VDW BOUNDARY MISC KINETIC TOTAL TEMP POTENTIAL TOTALAVG TEMPAVG PRESSURE GPRESSURE VOLUME PRESSAVG GPRESSAVG
ENERGY: 0 1.9252 2.4300 2.8804 0.0000 -10662.3409 1413.9813 0.0000 0.0000 1752.0058 -7489.1182 298.4595 -9241.1240 -7489.1182 298.4595 -570.3352 -488.5762 30990.6016 -570.3352 -488.5762
ENERGY: 300000 0.9481 2.8331 2.9465 0.0000 -10677.3591 1368.8655 0.0000 0.0000 1740.2054 -7561.5606 296.4493 -9301.7659 -7522.5556 298.0078 -904.5725 -824.8074 30816.9845 -600.9227 -531.4817
ENERGY: 600000 0.3712 4.1915 2.8304 0.0000 -10678.1720 1393.0688 0.0000 0.0000 1728.5107 -7549.1995 294.4571 -9277.7102 -7518.2508 300.0086 -484.8483 -452.2745 30618.9515 -462.7196 -406.4237
ENERGY: 900000 0.3617 1.9368 2.8885 0.0000 -10595.4718 1337.5014 0.0000 0.0000 1695.2113 -7557.5720 288.7844 -9252.7834 -7509.8352 298.7386 -1037.8914 -1003.9124 31010.5885 -522.7456 -456.8443
ENERGY: 1200000 3.8179 3.1835 2.8689 0.0000 -10714.3519 1388.5677 0.0000 0.0000 1768.3553 -7547.5586 301.2447 -9315.9140 -7517.9652 299.3883 -674.1938 -600.9513 30395.4842 -500.5466 -436.4479
ENERGY: 1500000 2.1229 4.8854 2.8270 0.0000 -10747.7444 1465.3472 0.0000 0.0000 1758.7907 -7513.7712 299.6153 -9272.5618 -7516.9117 300.0383 -166.1447 -106.9916 30937.8805 -462.6257 -400.6341
TCL: Running FEP window  14: Lambda1 0.34999999999999964 Lambda2 0.29999999999999966 [dLambda -0.04999999999999999]
TCL: Setting parameter firsttimestep to 0
TCL: Setting parameter alchLambda to 0.34999999999999964
Info: NONBONDED TABLE R-SQUARED SPACING: 0.0625
Info: NONBONDED TABLE SIZE: 705 POINTS
TCL: Setting parameter alchLambda2 to 0.29999999999999966
Info: NONBONDED TABLE R-SQUARED SPACING: 0.0625
Info: NONBONDED TABLE SIZE: 705 POINTS
TCL: Running for 1500000 steps
ETITLE: TS BOND ANGLE DIHED IMPRP ELECT VDW BOUNDARY MISC KINETIC TOTAL TEMP POTENTIAL TOTALAVG TEMPAVG PRESSURE GPRESSURE VOLUME PRESSAVG GPRESSAVG
ENERGY: 0 2.1229 4.8854 2.8270 0.0000 -10747.7457 1465.8732 0.0000 0.0000 1757.9543 -7514.0828 299.4729 -9272.0371 -7514.0828 299.4729 -204.7516 -106.9335 30937.8805 -204.7516 -106.9335
ENERGY: 300000 2.2670 5.3101 2.8016 0.0000 -10811.1095 1485.8360 0.0000 0.0000 1799.5787 -7515.3161 306.5637 -9314.8948 -7487.1098 304.4120 127.0778 164.2493 30576.6357 108.6925 181.3076
ENERGY: 600000 0.6337 4.5407 2.9284 0.0000 -10715.2338 1477.9372 0.0000 0.0000 1798.3703 -7430.8235 306.3579 -9229.1938 -7466.2805 303.6830 314.8405 385.5274 30679.2105 160.8817 237.2646
ENERGY: 900000 1.4357 3.0121 2.9095 0.0000 -10686.0698 1401.3740 0.0000 0.0000 1786.8796 -7490.4589 304.4004 -9277.3385 -7485.1639 302.7883 -470.1610 -412.1613 30581.5533 -35.1002 27.3403
ENERGY: 1200000 1.0087 0.7519 2.8547 0.0000 -10744.8977 1478.9067 0.0000 0.0000 1751.6117 -7509.7640 298.3924 -9261.3757 -7486.2306 302.9348 216.5384 264.1503 30599.0436 39.2461 100.7737
ENERGY: 1500000 0.4631 3.7103 2.8889 0.0000 -10810.3121 1444.8421 0.0000 0.0000 1778.3930 -7580.0146 302.9547 -9358.4077 -7503.1020 301.3733 176.8383 174.0276 29857.7577 30.6254 84.9288
TCL: Running FEP window  15: Lambda1 0.29999999999999966 Lambda2 0.24999999999999967 [dLambda -0.04999999999999999]
TCL: Setting parameter firsttimestep to 0
TCL: Setting parameter alchLambda to 0.29999999999999966
Info: NONBONDED TABLE R-SQUARED SPACING: 0.0625
Info: NONBONDED TABLE SIZE: 705 POINTS
TCL: Setting parameter alchLambda2 to 0.24999999999999967
Info: NONBONDED TABLE R-SQUARED SPACING: 0.0625
Info: NONBONDED TABLE SIZE: 705 POINTS
TCL: Running for 1500000 steps
ETITLE: TS BOND ANGLE DIHED IMPRP ELECT VDW BOUNDARY MISC KINETIC TOTAL TEMP POTENTIAL TOTALAVG TEMPAVG PRESSURE GPRESSURE VOLUME PRESSAVG GPRESSAVG
ENERGY: 0 0.4631 3.7103 2.8889 0.0000 -10810.3141 1445.2423 0.0000 0.0000 1777.5031 -7580.5064 302.8031 -9358.0095 -7580.5064 302.8031 96.4243 171.2575 29857.7577 96.4243 171.2575
ENERGY: 300000 0.3896 3.0880 2.8241 0.0000 -10804.9866 1494.5999 0.0000 0.0000 1761.3837 -7542.7013 300.0571 -9304.0850 -7530.4030 301.1718 494.7283 546.3221 30176.6037 164.6760 228.8193
ENERGY: 600000 0.8996 2.5209 2.8251 0.0000 -10638.1331 1387.2507 0.0000 0.0000 1719.9871 -7524.6497 293.0050 -9244.6368 -7530.2651 298.9739 -321.3483 -257.8127 30373.1941 48.4795 102.3944
ENERGY: 900000 0.3672 2.6603 2.9060 0.0000 -10787.2460 1435.6575 0.0000 0.0000 1762.0652 -7583.5897 300.1732 -9345.6549 -7539.6222 298.1852 -289.1045 -185.2377 30264.9400 5.5823 68.5905
ENERGY: 1200000 1.1097 3.2721 2.7733 0.0000 -10656.1551 1414.6590 0.0000 0.0000 1735.4806 -7498.8604 295.6444 -9234.3410 -7531.3917 297.4501 -107.1645 -11.7761 30290.5452 -52.8478 16.8658
ENERGY: 1500000 2.3983 1.8130 2.8230 0.0000 -10566.7242 1380.8542 0.0000 0.0000 1754.6830 -7424.1526 298.9156 -9178.8356 -7524.7217 297.3185 -226.2458 -192.6445 30389.9163 -48.6446 12.5786
TCL: Running FEP window  16: Lambda1 0.24999999999999967 Lambda2 0.19999999999999968 [dLambda -0.04999999999999999]
TCL: Setting parameter firsttimestep to 0
TCL: Setting parameter alchLambda to 0.24999999999999967
Info: NONBONDED TABLE R-SQUARED SPACING: 0.0625
Info: NONBONDED TABLE SIZE: 705 POINTS
TCL: Setting parameter alchLambda2 to 0.19999999999999968
Info: NONBONDED TABLE R-SQUARED SPACING: 0.0625
Info: NONBONDED TABLE SIZE: 705 POINTS
TCL: Running for 1500000 steps
ETITLE: TS BOND ANGLE DIHED IMPRP ELECT VDW BOUNDARY MISC KINETIC TOTAL TEMP POTENTIAL TOTALAVG TEMPAVG PRESSURE GPRESSURE VOLUME PRESSAVG GPRESSAVG
ENERGY: 0 2.3983 1.8130 2.8230 0.0000 -10566.7234 1381.1591 0.0000 0.0000 1753.8294 -7424.7006 298.7702 -9178.5299 -7424.7006 298.7702 -277.9534 -194.3797 30389.9163 -277.9534 -194.3797
ENERGY: 300000 0.4340 2.9482 2.9274 0.0000 -10628.2199 1381.3004 0.0000 0.0000 1792.1573 -7448.4525 305.2995 -9240.6099 -7471.4806 298.6898 -484.9427 -454.4918 30516.3721 -109.7096 -58.3221
ENERGY: 600000 0.9347 2.1986 2.8740 0.0000 -10682.4184 1420.8242 0.0000 0.0000 1759.5463 -7496.0406 299.7441 -9255.5869 -7463.6609 298.6556 -459.4420 -447.9089 31010.4915 -168.8245 -108.0162
ENERGY: 900000 0.5058 2.7086 2.8151 0.0000 -10750.8498 1415.1624 0.0000 0.0000 1766.7962 -7562.8616 300.9791 -9329.6578 -7469.8147 299.9993 -387.7427 -299.0976 30308.6585 -195.8942 -133.2466
ENERGY: 1200000 0.0980 1.5807 2.8410 0.0000 -10625.8576 1370.7209 0.0000 0.0000 1723.8351 -7526.7819 293.6606 -9250.6170 -7471.2566 299.3891 -649.6011 -569.1085 30401.7895 -296.7507 -231.1281
ENERGY: 1500000 1.5548 5.0443 2.9122 0.0000 -10616.0034 1362.2416 0.0000 0.0000 1773.2292 -7471.0212 302.0750 -9244.2505 -7480.3512 299.3861 -523.3873 -426.8635 30128.9303 -162.4794 -93.5061
TCL: Running FEP window  17: Lambda1 0.19999999999999968 Lambda2 0.1499999999999997 [dLambda -0.04999999999999999]
TCL: Setting parameter firsttimestep to 0
TCL: Setting parameter alchLambda to 0.19999999999999968
Info: NONBONDED TABLE R-SQUARED SPACING: 0.0625
Info: NONBONDED TABLE SIZE: 705 POINTS
TCL: Setting parameter alchLambda2 to 0.1499999999999997
Info: NONBONDED TABLE R-SQUARED SPACING: 0.0625
Info: NONBONDED TABLE SIZE: 705 POINTS
TCL: Running for 1500000 steps
ETITLE: TS BOND ANGLE DIHED IMPRP ELECT VDW BOUNDARY MISC KINETIC TOTAL TEMP POTENTIAL TOTALAVG TEMPAVG PRESSURE GPRESSURE VOLUME PRESSAVG GPRESSAVG
ENERGY: 0 1.5548 5.0443 2.9122 0.0000 -10616.0035 1361.2142 0.0000 0.0000 1772.3777 -7472.9003 301.9299 -9245.2780 -7472.9003 301.9299 -523.0308 -437.4593 30128.9303 -523.0308 -437.4593
ENERGY: 300000 3.5200 2.0778 2.8949 0.0000 -10739.8799 1450.0398 0.0000 0.0000 1784.4797 -7496.8677 303.9916 -9281.3474 -7481.6556 302.3519 96.2257 197.8511 29961.7876 -164.1898 -91.5739
ENERGY: 600000 0.7508 3.7919 2.8615 0.0000 -10683.2635 1463.5326 0.0000 0.0000 1725.3311 -7486.9956 293.9154 -9212.3267 -7485.3581 300.0530 300.8361 382.6752 30303.1288 -189.8272 -126.1810
ENERGY: 900000 0.8668 1.2126 2.8594 0.0000 -10673.6237 1393.8222 0.0000 0.0000 1750.6018 -7524.2609 298.2203 -9274.8627 -7488.2605 301.1018 -443.1685 -390.8557 30372.5233 -219.7015 -165.3314
ENERGY: 1200000 0.7530 3.2743 2.9017 0.0000 -10744.5214 1460.2059 0.0000 0.0000 1800.6815 -7476.7050 306.7516 -9277.3865 -7493.3847 301.7639 332.8431 411.2789 30025.9788 -88.2865 -33.0204
ENERGY: 1500000 0.5184 2.5124 2.8585 0.0000 -10757.9670 1445.6327 0.0000 0.0000 1785.6895 -7520.7555 304.1976 -9306.4450 -7496.8052 301.8430 -39.1325 25.4249 30401.3563 -129.9551 -70.3456
TCL: Running FEP window  18: Lambda1 0.1499999999999997 Lambda2 0.09999999999999969 [dLambda -0.05 ]
TCL: Setting parameter firsttimestep to 0
TCL: Setting parameter alchLambda to 0.1499999999999997
Info: NONBONDED TABLE R-SQUARED SPACING: 0.0625
Info: NONBONDED TABLE SIZE: 705 POINTS
TCL: Setting parameter alchLambda2 to 0.09999999999999969
Info: NONBONDED TABLE R-SQUARED SPACING: 0.0625
Info: NONBONDED TABLE SIZE: 705 POINTS
TCL: Running for 1500000 steps
ETITLE: TS BOND ANGLE DIHED IMPRP ELECT VDW BOUNDARY MISC KINETIC TOTAL TEMP POTENTIAL TOTALAVG TEMPAVG PRESSURE GPRESSURE VOLUME PRESSAVG GPRESSAVG
ENERGY: 0 0.5184 2.5124 2.8585 0.0000 -10757.9654 1445.4280 0.0000 0.0000 1784.8209 -7521.8272 304.0497 -9306.6481 -7521.8272 304.0497 -65.3640 21.1614 30401.3563 -65.3640 21.1614
ENERGY: 300000 1.5481 2.3540 2.8773 0.0000 -10822.6916 1501.1649 0.0000 0.0000 1777.5742 -7537.1732 302.8152 -9314.7474 -7488.5434 299.5780 185.9956 303.8408 30211.3220 180.0906 252.0574
ENERGY: 600000 2.2039 1.7015 2.8945 0.0000 -10725.0175 1436.1281 0.0000 0.0000 1803.4794 -7478.6101 307.2282 -9282.0895 -7469.7086 301.5353 -52.3006 50.8856 30214.6888 120.7325 178.5437
ENERGY: 900000 2.0677 3.0074 2.9195 0.0000 -10625.6479 1336.7310 0.0000 0.0000 1764.7004 -7516.2220 300.6221 -9280.9223 -7485.2189 301.7782 -811.3553 -742.5853 30635.4659 -40.3690 20.2384
ENERGY: 1200000 0.9787 3.3060 2.9009 0.0000 -10761.7904 1452.0341 0.0000 0.0000 1766.5737 -7535.9970 300.9412 -9302.5707 -7494.5308 301.1571 -241.6001 -169.1760 30656.5572 0.8567 60.5942
ENERGY: 1500000 1.6962 5.4864 2.8367 0.0000 -10731.3927 1470.4844 0.0000 0.0000 1773.1521 -7477.7369 302.0619 -9250.8890 -7497.9902 300.4778 38.6058 128.9792 30593.3429 -35.2302 34.3002
TCL: Running FEP window  19: Lambda1 0.09999999999999969 Lambda2 0.049999999999999684 [dLambda -0.05 ]
TCL: Setting parameter firsttimestep to 0
TCL: Setting parameter alchLambda to 0.09999999999999969
Info: NONBONDED TABLE R-SQUARED SPACING: 0.0625
Info: NONBONDED TABLE SIZE: 705 POINTS
TCL: Setting parameter alchLambda2 to 0.049999999999999684
Info: NONBONDED TABLE R-SQUARED SPACING: 0.0625
Info: NONBONDED TABLE SIZE: 705 POINTS
TCL: Running for 1500000 steps
ETITLE: TS BOND ANGLE DIHED IMPRP ELECT VDW BOUNDARY MISC KINETIC TOTAL TEMP POTENTIAL TOTALAVG TEMPAVG PRESSURE GPRESSURE VOLUME PRESSAVG GPRESSAVG
ENERGY: 0 1.6961 5.4864 2.8367 0.0000 -10731.3964 1470.6773 0.0000 0.0000 1772.2678 -7478.4320 301.9112 -9250.6998 -7478.4320 301.9112 31.6524 127.4584 30593.3429 31.6524 127.4584
ENERGY: 300000 2.4407 4.3928 2.7732 0.0000 -10706.2329 1430.6568 0.0000 0.0000 1771.7454 -7494.2240 301.8222 -9265.9694 -7466.6691 304.2189 102.6383 116.2933 30197.0673 -27.1230 19.0508
ENERGY: 600000 1.7521 4.0624 2.8581 0.0000 -10636.5324 1401.9343 0.0000 0.0000 1725.6432 -7500.2825 293.9686 -9225.9257 -7495.5919 300.6333 -317.9511 -202.7948 30644.7192 -62.3363 17.8650
ENERGY: 900000 1.8594 1.9642 2.8879 0.0000 -10807.2470 1469.6506 0.0000 0.0000 1764.2825 -7566.6023 300.5509 -9330.8849 -7507.1335 301.1020 82.3100 125.3635 29942.4626 -11.8642 56.3376
ENERGY: 1200000 0.1990 2.6186 2.9007 0.0000 -10801.3818 1527.5535 0.0000 0.0000 1827.7103 -7440.3997 311.3560 -9268.1100 -7505.2069 301.3814 687.5717 753.0537 30202.4498 -1.8748 65.6357
ENERGY: 1500000 0.8439 2.7392 2.8369 0.0000 -10695.9088 1403.6832 0.0000 0.0000 1774.5762 -7511.2294 302.3045 -9285.8056 -7509.5634 301.2235 -386.9625 -329.3738 30673.0514 13.4842 73.5698
TCL: Running FEP window  20: Lambda1 0.049999999999999684 Lambda2 0.0    [dLambda -0.049999999999999684]
TCL: Setting parameter firsttimestep to 0
TCL: Setting parameter alchLambda to 0.049999999999999684
Info: NONBONDED TABLE R-SQUARED SPACING: 0.0625
Info: NONBONDED TABLE SIZE: 705 POINTS
TCL: Setting parameter alchLambda2 to 0.0
Info: NONBONDED TABLE R-SQUARED SPACING: 0.0625
Info: NONBONDED TABLE SIZE: 705 POINTS
TCL: Running for 1500000 steps
ETITLE: TS BOND ANGLE DIHED IMPRP ELECT VDW BOUNDARY MISC KINETIC TOTAL TEMP POTENTIAL TOTALAVG TEMPAVG PRESSURE GPRESSURE VOLUME PRESSAVG GPRESSAVG
ENERGY: 0 0.8439 2.7392 2.8369 0.0000 -10695.9089 1403.7722 0.0000 0.0000 1773.7311 -7511.9857 302.1605 -9285.7167 -7511.9857 302.1605 -423.6612 -332.9256 30673.0514 -423.6612 -332.9256
ENERGY: 300000 2.0038 2.9049 2.9463 0.0000 -10828.3608 1513.0047 0.0000 0.0000 1717.0214 -7590.4798 292.4998 -9307.5011 -7512.0883 300.3454 417.0241 425.6906 30222.9738 340.2467 398.4168
ENERGY: 600000 0.7259 4.5534 2.9289 0.0000 -10612.5182 1365.1592 0.0000 0.0000 1757.4194 -7481.7314 299.3817 -9239.1508 -7513.4071 301.6891 -698.6123 -616.8085 30761.3612 173.9721 248.7711
ENERGY: 900000 0.4749 3.8159 2.9279 0.0000 -10658.2431 1426.8479 0.0000 0.0000 1759.5367 -7464.6398 299.7424 -9224.1765 -7518.2615 301.8141 -85.6744 -35.6814 30442.6645 100.0936 176.1317
ENERGY: 1200000 2.2912 7.0400 2.7775 0.0000 -10860.4344 1548.7389 0.0000 0.0000 1828.9633 -7470.6235 311.5695 -9299.5868 -7494.1372 303.1800 740.9537 800.0995 30017.8643 138.5642 210.6602
ENERGY: 1500000 1.8534 2.2980 2.8061 0.0000 -10883.4067 1468.0896 0.0000 0.0000 1744.4736 -7663.8860 297.1764 -9408.3597 -7500.5939 302.6076 -69.4614 -35.3532 29918.4479 95.7823 161.3325
TCL: Exiting due to exit command.
