Info: SIMULATION PARAMETERS:
Info: TIMESTEP               2
Info: NUMBER OF STEPS        0
Info: STEPS PER CYCLE        10
Info: PERIODIC CELL BASIS 1  32.7843 0 0
Info: PERIODIC CELL BASIS 2  0 33.1516 0
Info: PERIODIC CELL BASIS 3  0 0 27.6777
Info: PERIODIC CELL CENTER   0 0 0
Info: WRAPPING WATERS AROUND PERIODIC BOUNDARIES ON OUTPUT.
Info: WRAPPING ALL CLUSTERS AROUND PERIODIC BOUNDARIES ON OUTPUT.
Info: FIRST LDB TIMESTEP     50
Info: LAST LDB TIMESTEP     -1
Info: HOM BACKGROUND SCALING 1
Info: PME BACKGROUND SCALING 1
Info: MIN ATOMS PER PATCH    40
Info: EMPTY PATCH LOAD       40 ATOMS
Info: VELOCITY FILE          mobley_172879_equil.vel
Info: CENTER OF MASS MOVING INITIALLY? NO
Info: DIELECTRIC             1
Info: EXCLUDE                SCALED ONE-FOUR
Info: 1-4 ELECTROSTATICS SCALED BY 0.833333
Info: MODIFIED 1-4 VDW PARAMETERS WILL BE USED
Info: DCD FILENAME           mobley_172879_prod.dcd
Info: DCD FREQUENCY          100000
Info: DCD FIRST STEP         100000
Info: DCD FILE WILL CONTAIN UNIT CELL DATA
Info: XST FILENAME           mobley_172879_prod.xst
Info: XST FREQUENCY          100000
Info: NO VELOCITY DCD OUTPUT
Info: NO FORCE DCD OUTPUT
Info: OUTPUT FILENAME        mobley_172879_prod
Info: BINARY OUTPUT FILES WILL BE USED
Info: RESTART FILENAME       mobley_172879_prod.restart
Info: RESTART FREQUENCY      100000
Info: BINARY RESTART FILES WILL BE USED
Info: CUTOFF                 9
Info: PAIRLIST DISTANCE      11
Info: PAIRLIST SHRINK RATE   0.01
Info: PAIRLIST GROW RATE     0.01
Info: PAIRLIST TRIGGER       0.3
Info: PAIRLISTS PER CYCLE    2
Info: PAIRLISTS ENABLED
Info: MARGIN                 2
Info: HYDROGEN GROUP CUTOFF  2.5
Info: PATCH DIMENSION        15.5
Info: ENERGY OUTPUT STEPS    100000
Info: ENERGY EVALUATION STEPS    100000
Info: OUTPUT ENERGY PRECISION 4
Info: CROSSTERM ENERGY INCLUDED IN DIHEDRAL
Info: TIMING OUTPUT STEPS    1000000
Info: PRESSURE OUTPUT STEPS  100000
Info: ALCHEMICAL FEP ON
Info: FEP CURRENT LAMBDA VALUE     1
Info: FEP COMPARISON LAMBDA VALUE  0.95
Info: FEP INTRA-ALCHEMICAL NON-BONDED INTERACTIONS WILL BE RETAINED
Info: FEP INTRA-ALCHEMICAL BONDED INTERACTIONS WILL BE RETAINED
Info: FEP VDW SHIFTING COEFFICIENT 5
Info: FEP ELEC. ACTIVE FOR ANNIHILATED PARTICLES BETWEEN LAMBDA = 0 AND LAMBDA = 0.5
Info: FEP ELEC. ACTIVE FOR EXNIHILATED PARTICLES BETWEEN LAMBDA = 0.5 AND LAMBDA = 1
Info: FEP VDW ACTIVE FOR ANNIHILATED PARTICLES BETWEEN LAMBDA = 0 AND LAMBDA = 1
Info: FEP VDW ACTIVE FOR EXNIHILATED PARTICLES BETWEEN LAMBDA = 0 AND LAMBDA = 1
Info: FEP BOND ACTIVE FOR ANNIHILATED PARTICLES BETWEEN LAMBDA = 1 AND LAMBDA = 1
Info: FEP BOND ACTIVE FOR EXNIHILATED PARTICLES BETWEEN LAMBDA = 0 AND LAMBDA = 0
Info: LANGEVIN DYNAMICS ACTIVE
Info: LANGEVIN TEMPERATURE   300
Info: LANGEVIN USING BBK INTEGRATOR
Info: LANGEVIN DAMPING COEFFICIENT IS 1 INVERSE PS
Info: LANGEVIN DYNAMICS APPLIED TO HYDROGENS
Info: LANGEVIN PISTON PRESSURE CONTROL ACTIVE
Info:        TARGET PRESSURE IS 1.01325 BAR
Info:     OSCILLATION PERIOD IS 50 FS
Info:             DECAY TIME IS 25 FS
Info:     PISTON TEMPERATURE IS 300 K
Info:       PRESSURE CONTROL IS GROUP-BASED
Info:    INITIAL STRAIN RATE IS -0.000122665 -0.000122665 -0.000122665
Info:       CELL FLUCTUATION IS ISOTROPIC
Info: PARTICLE MESH EWALD (PME) ACTIVE
Info: PME TOLERANCE               1e-06
Info: PME EWALD COEFFICIENT       0.348832
Info: PME INTERPOLATION ORDER     4
Info: PME GRID DIMENSIONS         36 36 28
Info: PME MAXIMUM GRID SPACING    1
Info: PME CALCULATION WILL BE PERFORMED ON GPU
Info: FULL ELECTROSTATIC EVALUATION FREQUENCY      2
Info: USING VERLET I (r-RESPA) MTS SCHEME.
Info: C1 SPLITTING OF LONG RANGE ELECTROSTATICS
Info: PLACING ATOMS IN PATCHES BY HYDROGEN GROUPS
Info: RIGID BONDS TO HYDROGEN : ALL
Info:         ERROR TOLERANCE : 1e-08
Info:          MAX ITERATIONS : 100
Info: RIGID WATER USING SETTLE ALGORITHM
Info: RANDOM NUMBER SEED     1743642060
Info: USE HYDROGEN BONDS?    NO
Info: Using AMBER format force field!
Info: AMBER PARM FILE        mobley_172879.prmtop
Info: COORDINATE PDB         mobley_172879.pdb
Info: Exclusions will be read from PARM file!
Info: SCNB (VDW SCALING)     2
Info: USING ARITHMETIC MEAN TO COMBINE L-J SIGMA PARAMETERS
Info: BINARY COORDINATES     mobley_172879_equil.coor
Info: SUMMARY OF PARAMETERS:
Info: 5 BONDS
Info: 4 ANGLES
Info:   4 HARMONIC
Info:   0 COSINE-BASED
Info: 3 DIHEDRAL
Info: 0 IMPROPER
Info: 0 CROSSTERM
Info: 0 VDW
Info: 15 VDW_PAIRS
Info: 0 NBTHOLE_PAIRS
Info: To read alchdata from file: mobley_172879.pdb
Info: To read alchflag data from column: 5
Info: STRUCTURE SUMMARY:
Info: 2917 ATOMS
Info: 2919 BONDS
Info: 38 ANGLES
Info: 68 DIHEDRALS
Info: 0 IMPROPERS
Info: 0 CROSSTERMS
Info: 3004 EXCLUSIONS
Info: 2903 RIGID BONDS
Info: ALCH: 0 ATOMS TO DISAPPEAR IN FINAL STATE
Info: ALCH: 22 ATOMS TO APPEAR IN FINAL STATE
Info: 5848 DEGREES OF FREEDOM
Info: 979 HYDROGEN GROUPS
Info: 3 ATOMS IN LARGEST HYDROGEN GROUP
Info: 979 MIGRATION GROUPS
Info: 3 ATOMS IN LARGEST MIGRATION GROUP
Info: TOTAL MASS = 17569.6 amu
Info: TOTAL CHARGE = 2.98023e-08 e
Info: MASS DENSITY = 0.969887 g/cm^3
Info: ATOM DENSITY = 0.0969696 atoms/A^3
Info: ADDED 0 IMPLICIT EXCLUSIONS
Info: NONBONDED TABLE R-SQUARED SPACING: 0.0625
Info: NONBONDED TABLE SIZE: 705 POINTS
Info: REDUCING NUMBER OF PATCHES TO IMPROVE LOAD BALANCE
Info: REMOVING COM VELOCITY -0.0271158 0.0960831 -0.0444643
Info: Use 3D box decompostion in PME FFT.
Info: Updated CUDA force table with 4096 elements.
Info: Updated CUDA LJ table with 5 x 5 elements.
Info: Found 20 unique exclusion lists needing 60 bytes
TCL: Running for 1500000 steps
ETITLE: TS BOND ANGLE DIHED IMPRP ELECT VDW BOUNDARY MISC KINETIC TOTAL TEMP POTENTIAL TOTALAVG TEMPAVG PRESSURE GPRESSURE VOLUME PRESSAVG GPRESSAVG
ENERGY: 0 5.0849 2.9014 7.0907 0.0000 -10478.8452 1384.2200 0.0000 0.0000 1777.1693 -7302.3789 305.8524 -9079.5483 -7302.3789 305.8524 -79.0163 -6.8169 30081.5845 -79.0163 -6.8169
ENERGY: 300000 6.3174 3.9316 4.9465 0.0000 -10540.4438 1335.1961 0.0000 0.0000 1750.9315 -7439.1208 301.3368 -9190.0522 -7394.7693 303.2536 -762.1839 -702.3600 30238.5942 61.1376 126.1760
ENERGY: 600000 6.5436 4.6973 10.0072 0.0000 -10579.3975 1410.5590 0.0000 0.0000 1736.7120 -7410.8783 298.8896 -9147.5903 -7391.1964 300.1652 -187.1914 -105.2666 30177.2058 11.8519 81.6290
ENERGY: 900000 7.8740 5.3838 2.2120 0.0000 -10507.6490 1407.4778 0.0000 0.0000 1695.2428 -7389.4586 291.7527 -9084.7014 -7395.5394 299.0470 -97.0210 9.5210 30005.3804 -88.9584 -9.3846
ENERGY: 1200000 2.6227 4.7982 6.3174 0.0000 -10561.2980 1436.4184 0.0000 0.0000 1747.6202 -7363.5212 300.7669 -9111.1414 -7386.4029 299.2795 485.9570 486.9482 29880.4855 -48.7556 26.9863
ENERGY: 1500000 5.9600 6.3338 3.4255 0.0000 -10608.5063 1461.0259 0.0000 0.0000 1720.7041 -7411.0570 296.1346 -9131.7611 -7384.0156 300.0576 255.1580 300.8656 29898.9738 14.8117 88.3544
TCL: Running FEP window   2: Lambda1 0.95   Lambda2 0.8999999999999999 [dLambda -0.050000000000000044]
TCL: Setting parameter firsttimestep to 0
TCL: Setting parameter alchLambda to 0.95
Info: NONBONDED TABLE R-SQUARED SPACING: 0.0625
Info: NONBONDED TABLE SIZE: 705 POINTS
TCL: Setting parameter alchLambda2 to 0.8999999999999999
Info: NONBONDED TABLE R-SQUARED SPACING: 0.0625
Info: NONBONDED TABLE SIZE: 705 POINTS
TCL: Running for 1500000 steps
ETITLE: TS BOND ANGLE DIHED IMPRP ELECT VDW BOUNDARY MISC KINETIC TOTAL TEMP POTENTIAL TOTALAVG TEMPAVG PRESSURE GPRESSURE VOLUME PRESSAVG GPRESSAVG
ENERGY: 0 5.9600 6.3338 3.4255 0.0000 -10607.9297 1461.7961 0.0000 0.0000 1719.8669 -7410.5474 295.9906 -9130.4143 -7410.5474 295.9906 214.6684 300.1738 29898.9738 214.6684 300.1738
ENERGY: 300000 3.3535 7.4080 5.1100 0.0000 -10402.4437 1383.3930 0.0000 0.0000 1747.0385 -7256.1407 300.6668 -9003.1792 -7308.8467 300.2128 56.0816 89.6523 30092.8536 531.9793 597.6333
ENERGY: 600000 7.7146 5.0314 4.9356 0.0000 -10599.2209 1400.7105 0.0000 0.0000 1705.7366 -7475.0921 293.5587 -9180.8287 -7342.6472 299.9056 -839.2995 -709.6101 30455.1324 162.2254 235.5983
ENERGY: 900000 5.6061 2.9258 6.5164 0.0000 -10436.1508 1333.5712 0.0000 0.0000 1728.2864 -7359.2448 297.4396 -9087.5312 -7342.8947 299.9062 -713.8554 -739.9999 30182.7243 107.0609 169.6521
ENERGY: 1200000 5.3717 6.5639 6.4446 0.0000 -10410.2429 1331.7406 0.0000 0.0000 1707.2657 -7352.8564 293.8219 -9060.1221 -7348.6822 299.6381 -766.2523 -744.6959 30362.5579 3.5999 68.2339
ENERGY: 1500000 3.8655 4.3735 7.2015 0.0000 -10522.6140 1389.4343 0.0000 0.0000 1710.5223 -7407.2169 294.3824 -9117.7392 -7342.5725 300.5314 -638.7854 -557.8430 30633.1525 32.9240 92.2991
TCL: Running FEP window   3: Lambda1 0.8999999999999999 Lambda2 0.8499999999999999 [dLambda -0.050000000000000044]
TCL: Setting parameter firsttimestep to 0
TCL: Setting parameter alchLambda to 0.8999999999999999
Info: NONBONDED TABLE R-SQUARED SPACING: 0.0625
Info: NONBONDED TABLE SIZE: 705 POINTS
TCL: Setting parameter alchLambda2 to 0.8499999999999999
Info: NONBONDED TABLE R-SQUARED SPACING: 0.0625
Info: NONBONDED TABLE SIZE: 705 POINTS
TCL: Running for 1500000 steps
ETITLE: TS BOND ANGLE DIHED IMPRP ELECT VDW BOUNDARY MISC KINETIC TOTAL TEMP POTENTIAL TOTALAVG TEMPAVG PRESSURE GPRESSURE VOLUME PRESSAVG GPRESSAVG
ENERGY: 0 3.8655 4.3735 7.2014 0.0000 -10521.9281 1389.9926 0.0000 0.0000 1709.7124 -7406.7826 294.2430 -9116.4950 -7406.7826 294.2430 -647.9043 -566.5095 30633.1525 -647.9043 -566.5095
ENERGY: 300000 6.3348 2.9777 5.4370 0.0000 -10543.4428 1427.8632 0.0000 0.0000 1714.9817 -7385.8483 295.1498 -9100.8300 -7348.7827 300.2493 11.6876 86.7835 29864.0162 -266.4528 -186.7914
ENERGY: 600000 8.6173 2.9034 4.3065 0.0000 -10536.8971 1438.7728 0.0000 0.0000 1765.4046 -7316.8924 303.8276 -9082.2971 -7353.4990 299.7167 413.4728 493.0120 29698.3735 -139.2465 -66.2190
ENERGY: 900000 4.1862 6.8302 6.4837 0.0000 -10502.7996 1427.7562 0.0000 0.0000 1773.3126 -7284.2307 305.1886 -9057.5432 -7350.8383 299.6507 103.6581 196.8120 30228.2381 -81.8436 -12.7364
ENERGY: 1200000 5.4519 8.4556 6.9780 0.0000 -10604.6977 1433.2610 0.0000 0.0000 1753.8155 -7396.7357 301.8331 -9150.5512 -7358.9679 299.1600 255.2738 330.7919 29604.1623 -35.9545 29.2901
ENERGY: 1500000 9.5917 9.1082 3.8268 0.0000 -10600.9680 1441.9186 0.0000 0.0000 1734.1609 -7402.3618 298.4506 -9136.5227 -7360.9216 299.4890 -253.7732 -160.2817 30223.2279 -57.1010 11.2516
TCL: Running FEP window   4: Lambda1 0.8499999999999999 Lambda2 0.7999999999999998 [dLambda -0.050000000000000044]
TCL: Setting parameter firsttimestep to 0
TCL: Setting parameter alchLambda to 0.8499999999999999
Info: NONBONDED TABLE R-SQUARED SPACING: 0.0625
Info: NONBONDED TABLE SIZE: 705 POINTS
TCL: Setting parameter alchLambda2 to 0.7999999999999998
Info: NONBONDED TABLE R-SQUARED SPACING: 0.0625
Info: NONBONDED TABLE SIZE: 705 POINTS
TCL: Running for 1500000 steps
ETITLE: TS BOND ANGLE DIHED IMPRP ELECT VDW BOUNDARY MISC KINETIC TOTAL TEMP POTENTIAL TOTALAVG TEMPAVG PRESSURE GPRESSURE VOLUME PRESSAVG GPRESSAVG
ENERGY: 0 9.5917 9.1083 3.8268 0.0000 -10600.1831 1441.9452 0.0000 0.0000 1733.3225 -7402.3886 298.3063 -9135.7111 -7402.3886 298.3063 -259.0995 -172.8958 30223.2279 -259.0995 -172.8958
ENERGY: 300000 3.3611 4.9631 8.8436 0.0000 -10558.2823 1431.9569 0.0000 0.0000 1747.1727 -7361.9849 300.6899 -9109.1577 -7376.0915 297.0784 -74.0178 29.2281 30012.8728 -62.1123 24.2770
ENERGY: 600000 5.4104 3.8246 4.1092 0.0000 -10495.5624 1413.4301 0.0000 0.0000 1741.4618 -7327.3262 299.7071 -9068.7880 -7375.4887 297.0146 -398.7545 -305.3721 30688.6096 -304.2217 -229.8064
ENERGY: 900000 6.3091 3.6445 3.0586 0.0000 -10537.6299 1395.8356 0.0000 0.0000 1759.8013 -7368.9808 302.8633 -9128.7821 -7356.9800 298.8242 -161.6237 -113.1000 29856.0179 -316.5241 -240.8704
ENERGY: 1200000 5.3326 6.9029 3.7099 0.0000 -10629.5189 1462.0543 0.0000 0.0000 1710.3599 -7441.1592 294.3544 -9151.5191 -7356.6026 298.5826 382.9678 471.0636 29444.8271 -137.3219 -67.7172
ENERGY: 1500000 5.8069 7.2420 5.7516 0.0000 -10456.3786 1361.9397 0.0000 0.0000 1821.0300 -7254.6085 313.4008 -9075.6384 -7348.7339 299.3220 -376.9787 -346.9233 30007.5173 -139.8285 -80.0869
TCL: Running FEP window   5: Lambda1 0.7999999999999998 Lambda2 0.7499999999999998 [dLambda -0.050000000000000044]
TCL: Setting parameter firsttimestep to 0
TCL: Setting parameter alchLambda to 0.7999999999999998
Info: NONBONDED TABLE R-SQUARED SPACING: 0.0625
Info: NONBONDED TABLE SIZE: 705 POINTS
TCL: Setting parameter alchLambda2 to 0.7499999999999998
Info: NONBONDED TABLE R-SQUARED SPACING: 0.0625
Info: NONBONDED TABLE SIZE: 705 POINTS
TCL: Running for 1500000 steps
ETITLE: TS BOND ANGLE DIHED IMPRP ELECT VDW BOUNDARY MISC KINETIC TOTAL TEMP POTENTIAL TOTALAVG TEMPAVG PRESSURE GPRESSURE VOLUME PRESSAVG GPRESSAVG
ENERGY: 0 5.8069 7.2420 5.7517 0.0000 -10455.1488 1362.5900 0.0000 0.0000 1820.1265 -7253.6318 313.2453 -9073.7583 -7253.6318 313.2453 -432.5150 -352.3340 30007.5173 -432.5150 -352.3340
ENERGY: 300000 3.5422 4.0353 4.0709 0.0000 -10590.7244 1405.4115 0.0000 0.0000 1761.4477 -7412.2168 303.1467 -9173.6645 -7320.7063 305.8289 -357.9609 -288.6790 29937.9831 -314.4131 -251.5892
ENERGY: 600000 4.7487 3.7875 4.4380 0.0000 -10458.5012 1400.6698 0.0000 0.0000 1738.5503 -7306.3070 299.2060 -9044.8573 -7313.7894 302.9811 -69.0200 -14.7186 30513.7976 -73.2847 6.1752
ENERGY: 900000 8.0714 4.0607 6.7795 0.0000 -10564.8725 1456.2546 0.0000 0.0000 1743.3867 -7346.3196 300.0383 -9089.7063 -7331.9432 300.5330 568.1657 580.9608 29900.3968 -68.6482 7.1937
ENERGY: 1200000 3.6274 3.1423 5.8946 0.0000 -10562.6914 1422.8535 0.0000 0.0000 1695.0665 -7432.1071 291.7224 -9127.1736 -7350.8123 299.9622 272.1650 251.8317 29859.0842 -52.7450 9.8132
ENERGY: 1500000 6.8651 5.7374 6.3591 0.0000 -10639.1977 1470.3842 0.0000 0.0000 1745.4443 -7404.4076 300.3924 -9149.8519 -7348.1576 300.0380 -15.4334 100.6522 29986.0548 -47.5723 21.0072
TCL: Running FEP window   6: Lambda1 0.7499999999999998 Lambda2 0.6999999999999997 [dLambda -0.050000000000000044]
TCL: Setting parameter firsttimestep to 0
TCL: Setting parameter alchLambda to 0.7499999999999998
Info: NONBONDED TABLE R-SQUARED SPACING: 0.0625
Info: NONBONDED TABLE SIZE: 705 POINTS
TCL: Setting parameter alchLambda2 to 0.6999999999999997
Info: NONBONDED TABLE R-SQUARED SPACING: 0.0625
Info: NONBONDED TABLE SIZE: 705 POINTS
TCL: Running for 1500000 steps
ETITLE: TS BOND ANGLE DIHED IMPRP ELECT VDW BOUNDARY MISC KINETIC TOTAL TEMP POTENTIAL TOTALAVG TEMPAVG PRESSURE GPRESSURE VOLUME PRESSAVG GPRESSAVG
ENERGY: 0 6.8651 5.7373 6.3591 0.0000 -10638.9830 1471.0769 0.0000 0.0000 1744.6057 -7404.3388 300.2481 -9148.9445 -7404.3388 300.2481 4.4705 94.2597 29986.0548 4.4705 94.2597
ENERGY: 300000 6.7829 6.0205 4.7527 0.0000 -10528.9383 1449.9653 0.0000 0.0000 1740.8151 -7320.6020 299.5958 -9061.4171 -7339.4763 300.7042 362.3724 390.1833 30192.3913 17.7884 60.3109
ENERGY: 600000 6.6920 6.6338 2.2790 0.0000 -10507.7715 1421.3216 0.0000 0.0000 1755.0135 -7315.8317 302.0393 -9070.8452 -7326.1132 301.5090 -121.3638 -30.3733 30142.2818 -173.1585 -126.8830
ENERGY: 900000 4.1887 4.6378 7.0367 0.0000 -10574.1408 1484.8448 0.0000 0.0000 1792.4950 -7280.9379 308.4899 -9073.4329 -7322.7623 302.8921 560.1314 683.8871 29898.3245 -48.5821 13.9768
ENERGY: 1200000 3.8503 7.9486 4.2598 0.0000 -10465.2597 1373.9144 0.0000 0.0000 1722.7115 -7352.5750 296.4801 -9075.2865 -7323.6960 301.8105 -376.0403 -329.2953 30427.1010 -67.9381 -3.5021
ENERGY: 1500000 6.2598 6.9053 8.3221 0.0000 -10565.8294 1403.7656 0.0000 0.0000 1733.2310 -7407.3456 298.2905 -9140.5765 -7329.9893 300.9063 -237.1122 -233.9583 29718.0872 25.8254 83.7926
TCL: Running FEP window   7: Lambda1 0.6999999999999997 Lambda2 0.6499999999999997 [dLambda -0.050000000000000044]
TCL: Setting parameter firsttimestep to 0
TCL: Setting parameter alchLambda to 0.6999999999999997
Info: NONBONDED TABLE R-SQUARED SPACING: 0.0625
Info: NONBONDED TABLE SIZE: 705 POINTS
TCL: Setting parameter alchLambda2 to 0.6499999999999997
Info: NONBONDED TABLE R-SQUARED SPACING: 0.0625
Info: NONBONDED TABLE SIZE: 705 POINTS
TCL: Running for 1500000 steps
ETITLE: TS BOND ANGLE DIHED IMPRP ELECT VDW BOUNDARY MISC KINETIC TOTAL TEMP POTENTIAL TOTALAVG TEMPAVG PRESSURE GPRESSURE VOLUME PRESSAVG GPRESSAVG
ENERGY: 0 6.2598 6.9053 8.3221 0.0000 -10564.4383 1403.3573 0.0000 0.0000 1732.4036 -7407.1902 298.1481 -9139.5938 -7407.1902 298.1481 -327.7120 -251.1503 29718.0872 -327.7120 -251.1503
ENERGY: 300000 4.7407 6.9257 5.7801 0.0000 -10693.0516 1582.8083 0.0000 0.0000 1762.3439 -7330.4529 303.3009 -9092.7968 -7371.5578 301.1599 1584.4723 1638.4611 29656.6614 170.7060 254.1735
ENERGY: 600000 4.7109 3.1274 4.7575 0.0000 -10339.1530 1289.2484 0.0000 0.0000 1720.2717 -7317.0370 296.0602 -9037.3087 -7365.3166 298.8919 -895.5836 -834.0356 30062.3667 -171.2971 -90.7717
ENERGY: 900000 3.0673 5.2244 4.4694 0.0000 -10517.2216 1434.9310 0.0000 0.0000 1764.5587 -7304.9708 303.6821 -9069.5295 -7355.4431 300.3121 345.7727 447.9792 29815.9543 -128.8005 -55.8281
ENERGY: 1200000 2.5673 4.5440 6.5784 0.0000 -10711.2047 1523.3033 0.0000 0.0000 1708.4168 -7465.7949 294.0200 -9174.2117 -7366.4169 299.9304 747.0028 878.8411 29683.9805 -81.5086 -7.9048
ENERGY: 1500000 3.4197 5.0903 3.6649 0.0000 -10378.4961 1325.7905 0.0000 0.0000 1815.0087 -7225.5220 312.3645 -9040.5307 -7348.7785 301.7656 -653.3978 -545.1033 30286.7356 -60.1490 17.8965
TCL: Running FEP window   8: Lambda1 0.6499999999999997 Lambda2 0.5999999999999996 [dLambda -0.050000000000000044]
TCL: Setting parameter firsttimestep to 0
TCL: Setting parameter alchLambda to 0.6499999999999997
Info: NONBONDED TABLE R-SQUARED SPACING: 0.0625
Info: NONBONDED TABLE SIZE: 705 POINTS
TCL: Setting parameter alchLambda2 to 0.5999999999999996
Info: NONBONDED TABLE R-SQUARED SPACING: 0.0625
Info: NONBONDED TABLE SIZE: 705 POINTS
TCL: Running for 1500000 steps
ETITLE: TS BOND ANGLE DIHED IMPRP ELECT VDW BOUNDARY MISC KINETIC TOTAL TEMP POTENTIAL TOTALAVG TEMPAVG PRESSURE GPRESSURE VOLUME PRESSAVG GPRESSAVG
ENERGY: 0 3.4197 5.0903 3.6649 0.0000 -10377.9354 1325.5472 0.0000 0.0000 1814.1521 -7226.0611 312.2171 -9040.2133 -7226.0611 312.2171 -642.7116 -562.0253 30286.7356 -642.7116 -562.0253
ENERGY: 300000 4.3753 5.4270 5.8712 0.0000 -10427.5678 1360.3212 0.0000 0.0000 1802.3371 -7249.2359 310.1838 -9051.5731 -7304.7572 304.8850 -293.7885 -215.9405 30133.2548 -261.4688 -213.8403
ENERGY: 600000 6.8135 6.8403 5.5332 0.0000 -10542.6777 1422.2091 0.0000 0.0000 1748.0368 -7353.2448 300.8386 -9101.2816 -7305.9293 305.1465 -108.9136 -50.2660 30358.4588 -144.4958 -88.8226
ENERGY: 900000 6.4455 2.4763 4.1531 0.0000 -10463.7341 1391.9460 0.0000 0.0000 1707.3356 -7351.3776 293.8339 -9058.7132 -7311.8044 303.3804 -93.8478 -63.5057 29891.7813 -25.2139 32.6581
ENERGY: 1200000 6.0116 6.6931 4.5668 0.0000 -10523.4786 1393.7561 0.0000 0.0000 1756.8442 -7355.6067 302.3544 -9112.4509 -7318.5421 303.2208 -13.7744 20.4626 29897.1189 33.4484 90.7031
ENERGY: 1500000 3.6063 4.7489 9.1017 0.0000 -10545.8303 1433.4987 0.0000 0.0000 1735.4854 -7359.3893 298.6785 -9094.8747 -7322.8717 302.5929 384.7798 482.2088 29424.2237 -2.2215 52.6477
TCL: Running FEP window   9: Lambda1 0.5999999999999996 Lambda2 0.5499999999999996 [dLambda -0.050000000000000044]
TCL: Setting parameter firsttimestep to 0
TCL: Setting parameter alchLambda to 0.5999999999999996
Info: NONBONDED TABLE R-SQUARED SPACING: 0.0625
Info: NONBONDED TABLE SIZE: 705 POINTS
TCL: Setting parameter alchLambda2 to 0.5499999999999996
Info: NONBONDED TABLE R-SQUARED SPACING: 0.0625
Info: NONBONDED TABLE SIZE: 705 POINTS
TCL: Running for 1500000 steps
ETITLE: TS BOND ANGLE DIHED IMPRP ELECT VDW BOUNDARY MISC KINETIC TOTAL TEMP POTENTIAL TOTALAVG TEMPAVG PRESSURE GPRESSURE VOLUME PRESSAVG GPRESSAVG
ENERGY: 0 3.6063 4.7489 9.1017 0.0000 -10545.2297 1434.0354 0.0000 0.0000 1734.6192 -7359.1182 298.5294 -9093.7374 -7359.1182 298.5294 388.4177 474.1790 29424.2237 388.4177 474.1790
ENERGY: 300000 5.0656 8.1126 8.3691 0.0000 -10531.1882 1435.6367 0.0000 0.0000 1747.9637 -7326.0404 300.8260 -9074.0041 -7352.6299 298.7462 113.8556 210.2223 29984.0129 134.9699 212.9639
ENERGY: 600000 6.4935 6.3365 4.3047 0.0000 -10525.8977 1372.5111 0.0000 0.0000 1772.4486 -7363.8032 305.0399 -9136.2518 -7365.3258 299.6859 -473.4442 -452.8296 30130.8366 61.7951 125.8103
ENERGY: 900000 6.5439 4.5453 4.7954 0.0000 -10509.5371 1398.8892 0.0000 0.0000 1751.9424 -7342.8209 301.5108 -9094.7633 -7352.9542 299.6289 -154.8242 -30.2639 29506.4560 86.5595 154.6099
ENERGY: 1200000 3.4379 7.4414 7.8675 0.0000 -10482.5702 1394.2814 0.0000 0.0000 1769.7103 -7299.8317 304.5687 -9069.5420 -7353.9251 299.6363 -16.1137 28.9013 30021.5420 -36.1593 27.9359
ENERGY: 1500000 3.0020 4.8242 6.7707 0.0000 -10454.9048 1361.2440 0.0000 0.0000 1698.1930 -7380.8708 292.2605 -9079.0638 -7352.1811 299.6496 -637.0824 -564.6717 30428.8006 -162.8965 -97.2682
TCL: Running FEP window  10: Lambda1 0.5499999999999996 Lambda2 0.4999999999999996 [dLambda -0.04999999999999999]
TCL: Setting parameter firsttimestep to 0
TCL: Setting parameter alchLambda to 0.5499999999999996
Info: NONBONDED TABLE R-SQUARED SPACING: 0.0625
Info: NONBONDED TABLE SIZE: 705 POINTS
TCL: Setting parameter alchLambda2 to 0.4999999999999996
Info: NONBONDED TABLE R-SQUARED SPACING: 0.0625
Info: NONBONDED TABLE SIZE: 705 POINTS
TCL: Running for 1500000 steps
ETITLE: TS BOND ANGLE DIHED IMPRP ELECT VDW BOUNDARY MISC KINETIC TOTAL TEMP POTENTIAL TOTALAVG TEMPAVG PRESSURE GPRESSURE VOLUME PRESSAVG GPRESSAVG
ENERGY: 0 3.0020 4.8242 6.7707 0.0000 -10454.3529 1362.0212 0.0000 0.0000 1697.3156 -7380.4192 292.1095 -9077.7348 -7380.4192 292.1095 -666.9547 -564.0430 30428.8006 -666.9547 -564.0430
ENERGY: 300000 3.5176 8.8640 5.7888 0.0000 -10452.6324 1329.2505 0.0000 0.0000 1739.7138 -7365.4978 299.4062 -9105.2115 -7346.3641 300.0621 -745.5976 -647.9298 30001.5970 -219.2634 -144.0897
ENERGY: 600000 2.7323 5.4155 7.2086 0.0000 -10444.8407 1320.5241 0.0000 0.0000 1737.4899 -7371.4702 299.0235 -9108.9601 -7350.5117 300.2045 -846.8829 -800.6910 30276.6636 -315.3730 -256.1646
ENERGY: 900000 5.5038 6.4587 6.8707 0.0000 -10673.4664 1498.4598 0.0000 0.0000 1730.6154 -7425.5579 297.8404 -9156.1734 -7357.4485 300.3618 341.4133 383.6178 29713.0234 -181.4374 -119.5402
ENERGY: 1200000 4.6110 5.5287 6.0243 0.0000 -10524.2364 1433.9700 0.0000 0.0000 1726.7970 -7347.3055 297.1832 -9074.1025 -7351.8813 301.0571 315.1121 349.1718 29636.5578 -38.3878 22.0874
ENERGY: 1500000 3.8446 4.7966 4.4376 0.0000 -10469.2772 1363.0185 0.0000 0.0000 1698.8760 -7394.3037 292.3780 -9093.1798 -7360.1520 300.4499 -530.4380 -421.7975 29892.2132 -74.5106 -12.9032
TCL: Running FEP window  11: Lambda1 0.4999999999999996 Lambda2 0.4499999999999996 [dLambda -0.04999999999999999]
TCL: Setting parameter firsttimestep to 0
TCL: Setting parameter alchLambda to 0.4999999999999996
Info: NONBONDED TABLE R-SQUARED SPACING: 0.0625
Info: NONBONDED TABLE SIZE: 705 POINTS
TCL: Setting parameter alchLambda2 to 0.4499999999999996
Info: NONBONDED TABLE R-SQUARED SPACING: 0.0625
Info: NONBONDED TABLE SIZE: 705 POINTS
TCL: Running for 1500000 steps
ETITLE: TS BOND ANGLE DIHED IMPRP ELECT VDW BOUNDARY MISC KINETIC TOTAL TEMP POTENTIAL TOTALAVG TEMPAVG PRESSURE GPRESSURE VOLUME PRESSAVG GPRESSAVG
ENERGY: 0 3.8446 4.7967 4.4376 0.0000 -10468.6658 1363.7305 0.0000 0.0000 1698.0077 -7393.8488 292.2286 -9091.8564 -7393.8488 292.2286 -495.6422 -419.3567 29892.2132 -495.6422 -419.3567
ENERGY: 300000 7.7925 3.7270 4.8363 0.0000 -10502.2898 1365.8717 0.0000 0.0000 1791.5087 -7328.5537 308.3202 -9120.0623 -7344.5787 301.5583 -821.8632 -732.0535 29865.7998 -456.6542 -380.7997
ENERGY: 600000 4.9005 5.2257 3.4751 0.0000 -10557.2493 1451.7444 0.0000 0.0000 1768.6811 -7323.2225 304.3915 -9091.9036 -7352.7017 300.0389 48.2323 81.9813 30320.0982 -239.4837 -177.0572
ENERGY: 900000 9.3997 5.5366 2.6456 0.0000 -10454.2249 1394.5878 0.0000 0.0000 1743.7172 -7298.3380 300.0952 -9042.0551 -7349.8280 300.3455 -274.8359 -191.9950 30148.0556 -217.5987 -163.9879
ENERGY: 1200000 3.5946 3.5972 9.1533 0.0000 -10608.0199 1469.7715 0.0000 0.0000 1777.6048 -7344.2986 305.9273 -9121.9034 -7343.8873 300.8356 170.2443 240.7745 30126.1598 -168.8667 -117.4178
ENERGY: 1500000 7.8606 3.6977 6.7557 0.0000 -10548.3775 1491.7126 0.0000 0.0000 1762.0068 -7276.3441 303.2429 -9038.3509 -7346.2606 300.2663 520.7609 607.8276 29825.6463 -74.8510 -20.7047
TCL: Running FEP window  12: Lambda1 0.4499999999999996 Lambda2 0.39999999999999963 [dLambda -0.04999999999999999]
TCL: Setting parameter firsttimestep to 0
TCL: Setting parameter alchLambda to 0.4499999999999996
Info: NONBONDED TABLE R-SQUARED SPACING: 0.0625
Info: NONBONDED TABLE SIZE: 705 POINTS
TCL: Setting parameter alchLambda2 to 0.39999999999999963
Info: NONBONDED TABLE R-SQUARED SPACING: 0.0625
Info: NONBONDED TABLE SIZE: 705 POINTS
TCL: Running for 1500000 steps
ETITLE: TS BOND ANGLE DIHED IMPRP ELECT VDW BOUNDARY MISC KINETIC TOTAL TEMP POTENTIAL TOTALAVG TEMPAVG PRESSURE GPRESSURE VOLUME PRESSAVG GPRESSAVG
ENERGY: 0 7.8606 3.6977 6.7557 0.0000 -10548.3793 1491.5688 0.0000 0.0000 1761.1370 -7277.3595 303.0932 -9038.4965 -7277.3595 303.0932 525.4898 601.6602 29825.6463 525.4898 601.6602
ENERGY: 300000 4.8097 3.4197 3.9016 0.0000 -10481.1516 1423.6801 0.0000 0.0000 1734.5043 -7310.8362 298.5097 -9045.3405 -7324.3131 302.3383 -54.4854 64.7970 30069.1678 176.8010 253.8188
ENERGY: 600000 3.2701 3.2075 5.2017 0.0000 -10524.7646 1445.2022 0.0000 0.0000 1779.9776 -7287.9055 306.3357 -9067.8831 -7334.3460 301.5963 308.2065 322.4140 30024.9968 70.3610 143.4357
ENERGY: 900000 6.1352 4.1992 2.6682 0.0000 -10468.8268 1424.2403 0.0000 0.0000 1761.0947 -7270.4892 303.0859 -9031.5838 -7328.4938 301.9808 6.5388 68.8585 29893.9418 38.3984 109.3841
ENERGY: 1200000 5.3626 4.6203 4.8394 0.0000 -10402.5654 1346.5328 0.0000 0.0000 1754.3087 -7286.9015 301.9180 -9041.2102 -7339.0037 301.8722 -262.3929 -179.2590 29617.3625 -43.4838 22.9166
ENERGY: 1500000 3.1953 6.7459 5.2575 0.0000 -10418.6698 1342.0685 0.0000 0.0000 1735.9986 -7325.4039 298.7668 -9061.4024 -7337.1391 300.8086 -423.7640 -368.9709 30045.7798 -151.1926 -88.9318
TCL: Running FEP window  13: Lambda1 0.39999999999999963 Lambda2 0.34999999999999964 [dLambda -0.04999999999999999]
TCL: Setting parameter firsttimestep to 0
TCL: Setting parameter alchLambda to 0.39999999999999963
Info: NONBONDED TABLE R-SQUARED SPACING: 0.0625
Info: NONBONDED TABLE SIZE: 705 POINTS
TCL: Setting parameter alchLambda2 to 0.34999999999999964
Info: NONBONDED TABLE R-SQUARED SPACING: 0.0625
Info: NONBONDED TABLE SIZE: 705 POINTS
TCL: Running for 1500000 steps
ETITLE: TS BOND ANGLE DIHED IMPRP ELECT VDW BOUNDARY MISC KINETIC TOTAL TEMP POTENTIAL TOTALAVG TEMPAVG PRESSURE GPRESSURE VOLUME PRESSAVG GPRESSAVG
ENERGY: 0 3.1953 6.7459 5.2575 0.0000 -10418.6702 1342.1038 0.0000 0.0000 1735.1406 -7326.2270 298.6192 -9061.3676 -7326.2270 298.6192 -460.6880 -380.2034 30045.7798 -460.6880 -380.2034
ENERGY: 300000 4.0809 5.6678 5.6136 0.0000 -10431.2269 1388.0530 0.0000 0.0000 1754.2621 -7273.5494 301.9100 -9027.8115 -7300.3274 302.9825 -407.3480 -361.1310 30460.5518 -212.1200 -125.0509
ENERGY: 600000 3.2447 7.1125 4.3502 0.0000 -10643.6616 1530.2622 0.0000 0.0000 1722.8606 -7375.8314 296.5058 -9098.6920 -7309.4317 300.9162 1031.4157 1106.5214 29274.0219 50.2796 130.3787
ENERGY: 900000 4.5925 4.4544 6.0611 0.0000 -10533.1956 1461.2494 0.0000 0.0000 1825.3576 -7231.4804 314.1456 -9056.8381 -7303.0572 302.4532 443.5763 423.3057 29965.4430 -31.5871 37.7953
ENERGY: 1200000 3.8588 4.5839 6.6888 0.0000 -10341.4623 1323.5969 0.0000 0.0000 1767.0938 -7235.6401 304.1184 -9002.7339 -7297.6358 302.9245 -500.6492 -414.7783 30098.4162 -110.3640 -36.7123
ENERGY: 1500000 7.8205 2.5454 4.2470 0.0000 -10605.7054 1483.6856 0.0000 0.0000 1711.7353 -7395.6717 294.5911 -9107.4070 -7308.5172 302.0661 251.4131 291.6874 29769.6216 -90.8432 -12.4218
TCL: Running FEP window  14: Lambda1 0.34999999999999964 Lambda2 0.29999999999999966 [dLambda -0.04999999999999999]
TCL: Setting parameter firsttimestep to 0
TCL: Setting parameter alchLambda to 0.34999999999999964
Info: NONBONDED TABLE R-SQUARED SPACING: 0.0625
Info: NONBONDED TABLE SIZE: 705 POINTS
TCL: Setting parameter alchLambda2 to 0.29999999999999966
Info: NONBONDED TABLE R-SQUARED SPACING: 0.0625
Info: NONBONDED TABLE SIZE: 705 POINTS
TCL: Running for 1500000 steps
ETITLE: TS BOND ANGLE DIHED IMPRP ELECT VDW BOUNDARY MISC KINETIC TOTAL TEMP POTENTIAL TOTALAVG TEMPAVG PRESSURE GPRESSURE VOLUME PRESSAVG GPRESSAVG
ENERGY: 0 7.8205 2.5454 4.2470 0.0000 -10605.7052 1484.1989 0.0000 0.0000 1710.8443 -7396.0492 294.4378 -9106.8935 -7396.0492 294.4378 213.1424 288.3351 29769.6216 213.1424 288.3351
ENERGY: 300000 3.5417 6.8498 6.7934 0.0000 -10418.3531 1357.8562 0.0000 0.0000 1735.6966 -7307.6153 298.7149 -9043.3120 -7322.0301 301.6850 -580.2153 -499.0107 30192.3501 -159.0925 -92.7541
ENERGY: 600000 7.8312 3.9341 5.4410 0.0000 -10443.1628 1310.4061 0.0000 0.0000 1749.1040 -7366.4464 301.0223 -9115.5504 -7337.9050 301.6161 -803.1712 -788.5274 29835.1707 -426.0973 -364.8518
ENERGY: 900000 2.5397 5.0910 6.2784 0.0000 -10588.0441 1478.8684 0.0000 0.0000 1740.1380 -7355.1286 299.4792 -9095.2666 -7345.3718 301.1483 886.5181 901.0874 29481.7565 -384.1111 -316.1799
ENERGY: 1200000 7.0212 5.4053 4.1175 0.0000 -10459.1594 1373.1317 0.0000 0.0000 1737.4136 -7332.0700 299.0104 -9069.4836 -7341.9554 300.1918 -336.7997 -279.8524 30084.0390 -351.2133 -279.3537
ENERGY: 1500000 6.0524 7.5375 4.0015 0.0000 -10540.2578 1424.3674 0.0000 0.0000 1759.6556 -7338.6434 302.8382 -9098.2990 -7349.0836 300.5799 -161.6466 -100.0295 29924.4199 -287.5973 -216.4057
TCL: Running FEP window  15: Lambda1 0.29999999999999966 Lambda2 0.24999999999999967 [dLambda -0.04999999999999999]
TCL: Setting parameter firsttimestep to 0
TCL: Setting parameter alchLambda to 0.29999999999999966
Info: NONBONDED TABLE R-SQUARED SPACING: 0.0625
Info: NONBONDED TABLE SIZE: 705 POINTS
TCL: Setting parameter alchLambda2 to 0.24999999999999967
Info: NONBONDED TABLE R-SQUARED SPACING: 0.0625
Info: NONBONDED TABLE SIZE: 705 POINTS
TCL: Running for 1500000 steps
ETITLE: TS BOND ANGLE DIHED IMPRP ELECT VDW BOUNDARY MISC KINETIC TOTAL TEMP POTENTIAL TOTALAVG TEMPAVG PRESSURE GPRESSURE VOLUME PRESSAVG GPRESSAVG
ENERGY: 0 6.0523 7.5375 4.0015 0.0000 -10540.2573 1424.0454 0.0000 0.0000 1758.8108 -7339.8097 302.6928 -9098.6204 -7339.8097 302.6928 -190.2704 -109.4415 29924.4199 -190.2704 -109.4415
ENERGY: 300000 4.5290 4.1312 3.9933 0.0000 -10465.0493 1354.6869 0.0000 0.0000 1773.0549 -7324.6540 305.1443 -9097.7089 -7322.9486 304.0990 -429.6540 -384.6515 29884.6632 -465.8295 -371.4346
ENERGY: 600000 6.0300 4.8743 6.9088 0.0000 -10537.6019 1389.9605 0.0000 0.0000 1731.8386 -7397.9897 298.0509 -9129.8283 -7333.6600 303.0000 -552.4937 -497.9084 29733.3952 -461.7270 -383.7567
ENERGY: 900000 3.3225 10.6262 6.0500 0.0000 -10473.9012 1412.9336 0.0000 0.0000 1736.3294 -7304.6395 298.8238 -9040.9690 -7347.7132 301.9825 -326.0300 -251.5101 30437.6275 -372.9169 -292.6516
ENERGY: 1200000 5.0211 3.8832 7.1474 0.0000 -10535.5552 1443.9756 0.0000 0.0000 1737.4199 -7338.1080 299.0114 -9075.5279 -7345.3745 300.8970 -123.7946 -50.4729 30288.3336 -329.1322 -244.0973
ENERGY: 1500000 7.3309 5.2721 4.3698 0.0000 -10591.3340 1509.3540 0.0000 0.0000 1712.1349 -7352.8724 294.6599 -9065.0073 -7347.3176 299.9491 637.8851 702.0357 30137.5938 -243.1532 -161.3043
TCL: Running FEP window  16: Lambda1 0.24999999999999967 Lambda2 0.19999999999999968 [dLambda -0.04999999999999999]
TCL: Setting parameter firsttimestep to 0
TCL: Setting parameter alchLambda to 0.24999999999999967
Info: NONBONDED TABLE R-SQUARED SPACING: 0.0625
Info: NONBONDED TABLE SIZE: 705 POINTS
TCL: Setting parameter alchLambda2 to 0.19999999999999968
Info: NONBONDED TABLE R-SQUARED SPACING: 0.0625
Info: NONBONDED TABLE SIZE: 705 POINTS
TCL: Running for 1500000 steps
ETITLE: TS BOND ANGLE DIHED IMPRP ELECT VDW BOUNDARY MISC KINETIC TOTAL TEMP POTENTIAL TOTALAVG TEMPAVG PRESSURE GPRESSURE VOLUME PRESSAVG GPRESSAVG
ENERGY: 0 7.3309 5.2721 4.3698 0.0000 -10591.3345 1509.6593 0.0000 0.0000 1711.2581 -7353.4444 294.5090 -9064.7025 -7353.4444 294.5090 623.9730 696.0317 30137.5938 623.9730 696.0317
ENERGY: 300000 5.1516 7.3091 4.6765 0.0000 -10420.9522 1364.8574 0.0000 0.0000 1759.4578 -7279.4999 302.8042 -9038.9577 -7307.6922 302.3022 -189.2226 -197.3775 29669.6596 422.5451 447.3358
ENERGY: 600000 5.4449 6.3837 7.1549 0.0000 -10346.8095 1262.2765 0.0000 0.0000 1824.9851 -7240.5642 314.0815 -9065.5494 -7308.4477 302.7497 -1326.9299 -1280.3693 30001.6303 110.5836 148.0809
ENERGY: 900000 3.4872 3.7023 4.8987 0.0000 -10584.7887 1425.8090 0.0000 0.0000 1733.1220 -7413.7695 298.2718 -9146.8915 -7317.6773 302.4059 -120.0582 -10.3240 29882.1721 -4.2576 50.9474
ENERGY: 1200000 5.9772 8.3738 3.2812 0.0000 -10648.3966 1482.9993 0.0000 0.0000 1691.5017 -7456.2635 291.1089 -9147.7652 -7326.5473 301.2548 25.7290 119.3633 29802.4421 -45.3120 18.6803
ENERGY: 1500000 6.2549 6.0048 4.3920 0.0000 -10641.4990 1471.2787 0.0000 0.0000 1746.9475 -7406.6210 300.6511 -9153.5685 -7336.0366 300.9302 292.0877 339.8707 29712.0195 -5.5216 54.3113
TCL: Running FEP window  17: Lambda1 0.19999999999999968 Lambda2 0.1499999999999997 [dLambda -0.04999999999999999]
TCL: Setting parameter firsttimestep to 0
TCL: Setting parameter alchLambda to 0.19999999999999968
Info: NONBONDED TABLE R-SQUARED SPACING: 0.0625
Info: NONBONDED TABLE SIZE: 705 POINTS
TCL: Setting parameter alchLambda2 to 0.1499999999999997
Info: NONBONDED TABLE R-SQUARED SPACING: 0.0625
Info: NONBONDED TABLE SIZE: 705 POINTS
TCL: Running for 1500000 steps
ETITLE: TS BOND ANGLE DIHED IMPRP ELECT VDW BOUNDARY MISC KINETIC TOTAL TEMP POTENTIAL TOTALAVG TEMPAVG PRESSURE GPRESSURE VOLUME PRESSAVG GPRESSAVG
ENERGY: 0 6.2549 6.0048 4.3920 0.0000 -10641.5003 1471.8818 0.0000 0.0000 1746.0608 -7406.9059 300.4986 -9152.9667 -7406.9059 300.4986 248.9069 338.2742 29712.0195 248.9069 338.2742
ENERGY: 300000 2.9679 3.9036 3.9901 0.0000 -10490.9007 1394.0228 0.0000 0.0000 1685.1366 -7400.8798 290.0134 -9086.0163 -7387.6504 294.1481 -392.6675 -303.8334 30030.3376 -356.5313 -277.4166
ENERGY: 600000 6.2847 3.6386 8.5858 0.0000 -10795.9637 1569.8959 0.0000 0.0000 1693.2973 -7514.2615 291.4179 -9207.5587 -7391.3491 297.4471 947.5362 1011.0086 29386.1903 -113.0518 -44.8443
ENERGY: 900000 1.9928 3.5703 5.8436 0.0000 -10491.3854 1381.4198 0.0000 0.0000 1735.2011 -7363.3577 298.6296 -9098.5588 -7397.7867 296.3196 -132.6686 -114.2275 29750.3494 -152.1023 -95.2273
ENERGY: 1200000 4.8866 3.7192 4.9974 0.0000 -10464.6660 1339.7183 0.0000 0.0000 1712.5880 -7398.7566 294.7378 -9111.3445 -7390.4912 296.8917 -628.7067 -567.6049 29883.7083 -92.2743 -38.7285
ENERGY: 1500000 6.8642 3.8915 6.3879 0.0000 -10482.1715 1387.1169 0.0000 0.0000 1738.8897 -7339.0212 299.2644 -9077.9110 -7394.3744 296.4074 -420.4531 -307.7681 30018.3290 -118.8055 -65.9529
TCL: Running FEP window  18: Lambda1 0.1499999999999997 Lambda2 0.09999999999999969 [dLambda -0.05 ]
TCL: Setting parameter firsttimestep to 0
TCL: Setting parameter alchLambda to 0.1499999999999997
Info: NONBONDED TABLE R-SQUARED SPACING: 0.0625
Info: NONBONDED TABLE SIZE: 705 POINTS
TCL: Setting parameter alchLambda2 to 0.09999999999999969
Info: NONBONDED TABLE R-SQUARED SPACING: 0.0625
Info: NONBONDED TABLE SIZE: 705 POINTS
TCL: Running for 1500000 steps
ETITLE: TS BOND ANGLE DIHED IMPRP ELECT VDW BOUNDARY MISC KINETIC TOTAL TEMP POTENTIAL TOTALAVG TEMPAVG PRESSURE GPRESSURE VOLUME PRESSAVG GPRESSAVG
ENERGY: 0 6.8642 3.8915 6.3879 0.0000 -10482.1721 1387.7259 0.0000 0.0000 1738.0275 -7339.2751 299.1160 -9077.3026 -7339.2751 299.1160 -384.3171 -307.4962 30018.3290 -384.3171 -307.4962
ENERGY: 300000 2.3448 4.3362 5.7291 0.0000 -10475.8686 1393.3919 0.0000 0.0000 1784.1128 -7285.9537 307.0473 -9070.0665 -7307.2575 306.5794 -128.6902 -110.2459 30100.4367 100.7126 168.7576
ENERGY: 600000 2.9389 6.0863 6.3685 0.0000 -10330.4781 1372.6637 0.0000 0.0000 1722.5670 -7219.8537 296.4553 -8942.4208 -7305.8228 303.1257 -175.8514 -87.8324 30614.4360 32.7729 92.8850
ENERGY: 900000 2.5082 4.3041 2.4985 0.0000 -10416.0936 1432.8425 0.0000 0.0000 1703.0246 -7270.9158 293.0920 -8973.9404 -7309.3009 302.2539 320.2359 409.7194 30327.1180 -45.4538 23.2960
ENERGY: 1200000 2.8323 3.2130 5.5683 0.0000 -10482.6375 1430.0520 0.0000 0.0000 1773.2328 -7267.7392 305.1749 -9040.9720 -7305.1538 301.4886 378.2415 444.1296 29600.8063 0.7451 71.4946
ENERGY: 1500000 6.2230 4.0619 3.8228 0.0000 -10533.3166 1398.8821 0.0000 0.0000 1706.8533 -7413.4734 293.7509 -9120.3268 -7315.5674 300.8124 -646.4220 -565.3943 29896.6329 -22.3638 47.9121
TCL: Running FEP window  19: Lambda1 0.09999999999999969 Lambda2 0.049999999999999684 [dLambda -0.05 ]
TCL: Setting parameter firsttimestep to 0
TCL: Setting parameter alchLambda to 0.09999999999999969
Info: NONBONDED TABLE R-SQUARED SPACING: 0.0625
Info: NONBONDED TABLE SIZE: 705 POINTS
TCL: Setting parameter alchLambda2 to 0.049999999999999684
Info: NONBONDED TABLE R-SQUARED SPACING: 0.0625
Info: NONBONDED TABLE SIZE: 705 POINTS
TCL: Running for 1500000 steps
ETITLE: TS BOND ANGLE DIHED IMPRP ELECT VDW BOUNDARY MISC KINETIC TOTAL TEMP POTENTIAL TOTALAVG TEMPAVG PRESSURE GPRESSURE VOLUME PRESSAVG GPRESSAVG
ENERGY: 0 6.2230 4.0619 3.8228 0.0000 -10533.3166 1398.6187 0.0000 0.0000 1705.9779 -7414.6124 293.6002 -9120.5903 -7414.6124 293.6002 -639.9312 -571.2551 29896.6329 -639.9312 -571.2551
ENERGY: 300000 4.0831 4.0682 5.2001 0.0000 -10536.7161 1373.1021 0.0000 0.0000 1815.9909 -7334.2716 312.5336 -9150.2625 -7391.8586 296.4070 -254.4468 -178.4359 29227.2741 -322.8841 -250.5314
ENERGY: 600000 5.2728 6.5400 3.9961 0.0000 -10586.8644 1416.1983 0.0000 0.0000 1698.5147 -7456.3425 292.3158 -9154.8572 -7362.0489 297.5668 -462.8063 -344.8477 29538.2609 -180.8210 -115.6871
ENERGY: 900000 8.2510 5.0992 5.0823 0.0000 -10510.1406 1414.1336 0.0000 0.0000 1753.9605 -7323.6141 301.8581 -9077.5746 -7351.0109 298.3023 -447.2577 -416.7881 30297.0601 -218.1027 -160.1638
ENERGY: 1200000 6.9307 4.8149 6.0980 0.0000 -10684.3320 1558.9001 0.0000 0.0000 1767.0141 -7340.5742 304.1046 -9107.5883 -7343.7961 299.8758 1120.6207 1129.1223 29953.9164 -125.9841 -70.9055
ENERGY: 1500000 3.8918 3.1761 5.6336 0.0000 -10482.3950 1391.0479 0.0000 0.0000 1762.8618 -7315.7838 303.3900 -9078.6456 -7341.3069 300.6029 -364.5693 -335.3498 30320.7848 -103.5614 -50.5390
TCL: Running FEP window  20: Lambda1 0.049999999999999684 Lambda2 0.0    [dLambda -0.049999999999999684]
TCL: Setting parameter firsttimestep to 0
TCL: Setting parameter alchLambda to 0.049999999999999684
Info: NONBONDED TABLE R-SQUARED SPACING: 0.0625
Info: NONBONDED TABLE SIZE: 705 POINTS
TCL: Setting parameter alchLambda2 to 0.0
Info: NONBONDED TABLE R-SQUARED SPACING: 0.0625
Info: NONBONDED TABLE SIZE: 705 POINTS
TCL: Running for 1500000 steps
ETITLE: TS BOND ANGLE DIHED IMPRP ELECT VDW BOUNDARY MISC KINETIC TOTAL TEMP POTENTIAL TOTALAVG TEMPAVG PRESSURE GPRESSURE VOLUME PRESSAVG GPRESSAVG
ENERGY: 0 3.8918 3.1761 5.6336 0.0000 -10482.3965 1390.9078 0.0000 0.0000 1761.9600 -7316.8271 303.2348 -9078.7871 -7316.8271 303.2348 -430.7458 -340.2650 30320.7848 -430.7458 -340.2650
ENERGY: 300000 4.0428 3.1758 8.1213 0.0000 -10450.3900 1374.8925 0.0000 0.0000 1767.0416 -7293.1160 304.1094 -9060.1576 -7286.6902 302.3311 -196.6626 -166.7366 29613.4709 -215.2285 -182.1413
ENERGY: 600000 3.6784 5.7415 11.0181 0.0000 -10598.1154 1462.6195 0.0000 0.0000 1751.3426 -7363.7153 301.4076 -9115.0579 -7328.2057 300.4304 246.6471 287.8842 29534.7175 39.3503 78.4191
ENERGY: 900000 5.5911 2.4309 5.9220 0.0000 -10462.3653 1409.8579 0.0000 0.0000 1714.3490 -7324.2143 295.0409 -9038.5633 -7341.7428 299.1097 153.6293 217.9748 29816.3842 130.1480 175.4269
ENERGY: 1200000 3.0563 5.3553 8.1964 0.0000 -10509.1075 1427.2202 0.0000 0.0000 1690.0260 -7375.2532 290.8549 -9065.2793 -7348.5628 298.7500 97.0311 177.2375 29763.2049 109.4050 162.7271
ENERGY: 1500000 5.2946 7.2717 2.9626 0.0000 -10420.1712 1391.4134 0.0000 0.0000 1713.7567 -7299.4722 294.9390 -9013.2289 -7336.5845 298.6013 -386.8943 -239.5391 30081.2172 30.7111 89.1722
TCL: Exiting due to exit command.
