Info: SIMULATION PARAMETERS:
Info: TIMESTEP               2
Info: NUMBER OF STEPS        0
Info: STEPS PER CYCLE        10
Info: PERIODIC CELL BASIS 1  30.9944 0 0
Info: PERIODIC CELL BASIS 2  0 29.7152 0
Info: PERIODIC CELL BASIS 3  0 0 32.9514
Info: PERIODIC CELL CENTER   0 0 0
Info: WRAPPING WATERS AROUND PERIODIC BOUNDARIES ON OUTPUT.
Info: WRAPPING ALL CLUSTERS AROUND PERIODIC BOUNDARIES ON OUTPUT.
Info: FIRST LDB TIMESTEP     50
Info: LAST LDB TIMESTEP     -1
Info: HOM BACKGROUND SCALING 1
Info: PME BACKGROUND SCALING 1
Info: MIN ATOMS PER PATCH    40
Info: EMPTY PATCH LOAD       40 ATOMS
Info: VELOCITY FILE          mobley_8809274_equil.vel
Info: CENTER OF MASS MOVING INITIALLY? NO
Info: DIELECTRIC             1
Info: EXCLUDE                SCALED ONE-FOUR
Info: 1-4 ELECTROSTATICS SCALED BY 0.833333
Info: MODIFIED 1-4 VDW PARAMETERS WILL BE USED
Info: DCD FILENAME           mobley_8809274_prod.dcd
Info: DCD FREQUENCY          100000
Info: DCD FIRST STEP         100000
Info: DCD FILE WILL CONTAIN UNIT CELL DATA
Info: XST FILENAME           mobley_8809274_prod.xst
Info: XST FREQUENCY          100000
Info: NO VELOCITY DCD OUTPUT
Info: NO FORCE DCD OUTPUT
Info: OUTPUT FILENAME        mobley_8809274_prod
Info: BINARY OUTPUT FILES WILL BE USED
Info: RESTART FILENAME       mobley_8809274_prod.restart
Info: RESTART FREQUENCY      100000
Info: BINARY RESTART FILES WILL BE USED
Info: CUTOFF                 9
Info: PAIRLIST DISTANCE      11
Info: PAIRLIST SHRINK RATE   0.01
Info: PAIRLIST GROW RATE     0.01
Info: PAIRLIST TRIGGER       0.3
Info: PAIRLISTS PER CYCLE    2
Info: PAIRLISTS ENABLED
Info: MARGIN                 2
Info: HYDROGEN GROUP CUTOFF  2.5
Info: PATCH DIMENSION        15.5
Info: ENERGY OUTPUT STEPS    100000
Info: ENERGY EVALUATION STEPS    100000
Info: OUTPUT ENERGY PRECISION 4
Info: CROSSTERM ENERGY INCLUDED IN DIHEDRAL
Info: TIMING OUTPUT STEPS    1000000
Info: PRESSURE OUTPUT STEPS  100000
Info: ALCHEMICAL FEP ON
Info: FEP CURRENT LAMBDA VALUE     0
Info: FEP COMPARISON LAMBDA VALUE  0.05
Info: FEP INTRA-ALCHEMICAL NON-BONDED INTERACTIONS WILL BE RETAINED
Info: FEP INTRA-ALCHEMICAL BONDED INTERACTIONS WILL BE RETAINED
Info: FEP VDW SHIFTING COEFFICIENT 5
Info: FEP ELEC. ACTIVE FOR ANNIHILATED PARTICLES BETWEEN LAMBDA = 0 AND LAMBDA = 0.5
Info: FEP ELEC. ACTIVE FOR EXNIHILATED PARTICLES BETWEEN LAMBDA = 0.5 AND LAMBDA = 1
Info: FEP VDW ACTIVE FOR ANNIHILATED PARTICLES BETWEEN LAMBDA = 0 AND LAMBDA = 1
Info: FEP VDW ACTIVE FOR EXNIHILATED PARTICLES BETWEEN LAMBDA = 0 AND LAMBDA = 1
Info: FEP BOND ACTIVE FOR ANNIHILATED PARTICLES BETWEEN LAMBDA = 1 AND LAMBDA = 1
Info: FEP BOND ACTIVE FOR EXNIHILATED PARTICLES BETWEEN LAMBDA = 0 AND LAMBDA = 0
Info: LANGEVIN DYNAMICS ACTIVE
Info: LANGEVIN TEMPERATURE   300
Info: LANGEVIN USING BBK INTEGRATOR
Info: LANGEVIN DAMPING COEFFICIENT IS 1 INVERSE PS
Info: LANGEVIN DYNAMICS APPLIED TO HYDROGENS
Info: LANGEVIN PISTON PRESSURE CONTROL ACTIVE
Info:        TARGET PRESSURE IS 1.01325 BAR
Info:     OSCILLATION PERIOD IS 50 FS
Info:             DECAY TIME IS 25 FS
Info:     PISTON TEMPERATURE IS 300 K
Info:       PRESSURE CONTROL IS GROUP-BASED
Info:    INITIAL STRAIN RATE IS -0.000528527 -0.000528527 -0.000528527
Info:       CELL FLUCTUATION IS ISOTROPIC
Info: PARTICLE MESH EWALD (PME) ACTIVE
Info: PME TOLERANCE               1e-06
Info: PME EWALD COEFFICIENT       0.348832
Info: PME INTERPOLATION ORDER     4
Info: PME GRID DIMENSIONS         32 32 36
Info: PME MAXIMUM GRID SPACING    1
Info: PME CALCULATION WILL BE PERFORMED ON GPU
Info: FULL ELECTROSTATIC EVALUATION FREQUENCY      2
Info: USING VERLET I (r-RESPA) MTS SCHEME.
Info: C1 SPLITTING OF LONG RANGE ELECTROSTATICS
Info: PLACING ATOMS IN PATCHES BY HYDROGEN GROUPS
Info: RIGID BONDS TO HYDROGEN : ALL
Info:         ERROR TOLERANCE : 1e-08
Info:          MAX ITERATIONS : 100
Info: RIGID WATER USING SETTLE ALGORITHM
Info: RANDOM NUMBER SEED     1743576932
Info: USE HYDROGEN BONDS?    NO
Info: Using AMBER format force field!
Info: AMBER PARM FILE        mobley_8809274.prmtop
Info: COORDINATE PDB         mobley_8809274.pdb
Info: Exclusions will be read from PARM file!
Info: SCNB (VDW SCALING)     2
Info: USING ARITHMETIC MEAN TO COMBINE L-J SIGMA PARAMETERS
Info: BINARY COORDINATES     mobley_8809274_equil.coor
Info: SUMMARY OF PARAMETERS:
Info: 6 BONDS
Info: 5 ANGLES
Info:   5 HARMONIC
Info:   0 COSINE-BASED
Info: 3 DIHEDRAL
Info: 0 IMPROPER
Info: 0 CROSSTERM
Info: 0 VDW
Info: 21 VDW_PAIRS
Info: 0 NBTHOLE_PAIRS
Info: To read alchdata from file: mobley_8809274.pdb
Info: To read alchflag data from column: 5
Info: STRUCTURE SUMMARY:
Info: 2940 ATOMS
Info: 2940 BONDS
Info: 24 ANGLES
Info: 36 DIHEDRALS
Info: 0 IMPROPERS
Info: 0 CROSSTERMS
Info: 2991 EXCLUSIONS
Info: 2930 RIGID BONDS
Info: ALCH: 0 ATOMS TO DISAPPEAR IN FINAL STATE
Info: ALCH: 15 ATOMS TO APPEAR IN FINAL STATE
Info: 5890 DEGREES OF FREEDOM
Info: 985 HYDROGEN GROUPS
Info: 3 ATOMS IN LARGEST HYDROGEN GROUP
Info: 985 MIGRATION GROUPS
Info: 3 ATOMS IN LARGEST MIGRATION GROUP
Info: TOTAL MASS = 17711.7 amu
Info: TOTAL CHARGE = 9.99644e-05 e
Info: MASS DENSITY = 0.969136 g/cm^3
Info: ATOM DENSITY = 0.0968751 atoms/A^3
Info: ADDED 0 IMPLICIT EXCLUSIONS
Info: NONBONDED TABLE R-SQUARED SPACING: 0.0625
Info: NONBONDED TABLE SIZE: 705 POINTS
Info: REMOVING COM VELOCITY -0.0341805 0.101056 0.081672
Info: Use 3D box decompostion in PME FFT.
Info: Updated CUDA force table with 4096 elements.
Info: Updated CUDA LJ table with 6 x 6 elements.
Info: Found 17 unique exclusion lists needing 36 bytes
TCL: Running for 1500000 steps
ETITLE: TS BOND ANGLE DIHED IMPRP ELECT VDW BOUNDARY MISC KINETIC TOTAL TEMP POTENTIAL TOTALAVG TEMPAVG PRESSURE GPRESSURE VOLUME PRESSAVG GPRESSAVG
ENERGY: 0 2.8669 4.3284 2.5752 0.0000 -10659.0908 1474.2334 0.0000 0.0000 1824.1803 -7350.9066 311.7043 -9175.0869 -7350.9066 311.7043 357.5070 432.6633 30348.3515 357.5070 432.6633
ENERGY: 300000 4.0398 3.0427 1.8290 0.0000 -10636.5713 1437.7202 0.0000 0.0000 1746.0301 -7443.9095 298.3505 -9189.9396 -7420.3489 303.4094 85.6519 107.0299 29877.0345 172.5093 208.2651
ENERGY: 600000 3.0656 3.0484 3.6031 0.0000 -10593.2904 1471.2939 0.0000 0.0000 1748.8510 -7363.4284 298.8326 -9112.2794 -7417.7805 301.3106 291.3091 428.7838 30116.9400 93.6463 146.0080
ENERGY: 900000 6.1861 4.1438 1.6253 0.0000 -10685.9523 1449.2967 0.0000 0.0000 1750.9415 -7473.7590 299.1898 -9224.7004 -7439.0112 300.5545 246.8461 223.9251 29798.4190 101.1742 150.6467
ENERGY: 1200000 4.3518 4.9692 1.9441 0.0000 -10662.9687 1442.1062 0.0000 0.0000 1785.8151 -7423.7823 305.1487 -9209.5973 -7443.3846 300.2937 -282.4088 -202.9459 30408.3605 51.2430 105.5775
ENERGY: 1500000 2.8607 3.3374 0.9758 0.0000 -10756.9541 1465.2001 0.0000 0.0000 1792.8941 -7491.6860 306.3583 -9284.5801 -7449.1410 300.2737 -238.5346 -194.3118 30308.0991 114.9261 169.2430
TCL: Running FEP window   2: Lambda1 0.05   Lambda2 0.1    [dLambda 0.05  ]
TCL: Setting parameter firsttimestep to 0
TCL: Setting parameter alchLambda to 0.05
Info: NONBONDED TABLE R-SQUARED SPACING: 0.0625
Info: NONBONDED TABLE SIZE: 705 POINTS
TCL: Setting parameter alchLambda2 to 0.1
Info: NONBONDED TABLE R-SQUARED SPACING: 0.0625
Info: NONBONDED TABLE SIZE: 705 POINTS
TCL: Running for 1500000 steps
ETITLE: TS BOND ANGLE DIHED IMPRP ELECT VDW BOUNDARY MISC KINETIC TOTAL TEMP POTENTIAL TOTALAVG TEMPAVG PRESSURE GPRESSURE VOLUME PRESSAVG GPRESSAVG
ENERGY: 0 2.8607 3.3374 0.9758 0.0000 -10756.9543 1468.3632 0.0000 0.0000 1792.0240 -7489.3932 306.2097 -9281.4172 -7489.3932 306.2097 -264.7785 -185.3684 30308.0991 -264.7785 -185.3684
ENERGY: 300000 2.6319 6.4762 1.5617 0.0000 -10671.0990 1442.9600 0.0000 0.0000 1771.6220 -7445.8472 302.7235 -9217.4692 -7455.8712 300.9271 251.4371 227.3014 30023.4395 -322.3010 -266.6813
ENERGY: 600000 3.6374 5.0853 2.3344 0.0000 -10557.4901 1445.6051 0.0000 0.0000 1733.6687 -7367.1592 296.2383 -9100.8279 -7448.4424 301.1850 33.3639 81.8453 30393.7158 -184.9621 -130.4397
ENERGY: 900000 2.3406 3.0494 2.1687 0.0000 -10521.2627 1394.9997 0.0000 0.0000 1706.2468 -7412.4575 291.5526 -9118.7043 -7444.6996 300.3401 -340.4076 -253.8733 30346.9515 -193.6673 -137.8922
ENERGY: 1200000 3.1118 3.8772 5.5912 0.0000 -10692.4140 1493.9504 0.0000 0.0000 1759.8344 -7426.0492 300.7093 -9185.8835 -7448.2613 300.1961 651.3446 713.6281 29584.6954 -122.7256 -64.1134
ENERGY: 1500000 3.3758 4.4409 1.2869 0.0000 -10650.4491 1417.4512 0.0000 0.0000 1777.1551 -7446.7392 303.6690 -9223.8943 -7445.9569 300.0856 -209.6243 -99.0703 29612.0826 -160.3903 -95.3511
TCL: Running FEP window   3: Lambda1 0.1    Lambda2 0.15000000000000002 [dLambda 0.05000000000000002]
TCL: Setting parameter firsttimestep to 0
TCL: Setting parameter alchLambda to 0.1
Info: NONBONDED TABLE R-SQUARED SPACING: 0.0625
Info: NONBONDED TABLE SIZE: 705 POINTS
TCL: Setting parameter alchLambda2 to 0.15000000000000002
Info: NONBONDED TABLE R-SQUARED SPACING: 0.0625
Info: NONBONDED TABLE SIZE: 705 POINTS
TCL: Running for 1500000 steps
ETITLE: TS BOND ANGLE DIHED IMPRP ELECT VDW BOUNDARY MISC KINETIC TOTAL TEMP POTENTIAL TOTALAVG TEMPAVG PRESSURE GPRESSURE VOLUME PRESSAVG GPRESSAVG
ENERGY: 0 3.3758 4.4409 1.2869 0.0000 -10650.4483 1418.6173 0.0000 0.0000 1776.2812 -7446.4463 303.5196 -9222.7274 -7446.4463 303.5196 -176.2437 -93.6576 29612.0826 -176.2437 -93.6576
ENERGY: 300000 3.7666 2.4413 2.9169 0.0000 -10539.2763 1341.6252 0.0000 0.0000 1743.5324 -7444.9938 297.9237 -9188.5262 -7462.4822 300.5088 -888.3968 -837.6021 30366.6986 -516.3931 -444.5096
ENERGY: 600000 4.5355 3.7861 1.6267 0.0000 -10666.8672 1455.1560 0.0000 0.0000 1761.1519 -7440.6110 300.9344 -9201.7628 -7456.8998 301.2147 247.1785 306.9369 29994.3967 -309.4100 -240.8425
ENERGY: 900000 4.4322 2.5382 2.5171 0.0000 -10401.5324 1295.3885 0.0000 0.0000 1756.0901 -7340.5663 300.0695 -9096.6564 -7434.6198 301.9314 -1174.2721 -1064.9118 30737.0452 -385.1444 -315.7921
ENERGY: 1200000 8.3190 5.1423 2.1945 0.0000 -10633.3486 1434.7668 0.0000 0.0000 1782.6837 -7400.2422 304.6137 -9182.9259 -7425.5241 302.8774 -124.2426 -89.3143 30139.1602 -206.6573 -144.8541
ENERGY: 1500000 4.6523 5.0481 2.3635 0.0000 -10551.5820 1387.7775 0.0000 0.0000 1749.1747 -7402.5658 298.8879 -9151.7405 -7424.6620 301.9804 -612.3436 -548.9188 30613.1161 -177.0756 -116.5915
TCL: Running FEP window   4: Lambda1 0.15000000000000002 Lambda2 0.2    [dLambda 0.04999999999999999]
TCL: Setting parameter firsttimestep to 0
TCL: Setting parameter alchLambda to 0.15000000000000002
Info: NONBONDED TABLE R-SQUARED SPACING: 0.0625
Info: NONBONDED TABLE SIZE: 705 POINTS
TCL: Setting parameter alchLambda2 to 0.2
Info: NONBONDED TABLE R-SQUARED SPACING: 0.0625
Info: NONBONDED TABLE SIZE: 705 POINTS
TCL: Running for 1500000 steps
ETITLE: TS BOND ANGLE DIHED IMPRP ELECT VDW BOUNDARY MISC KINETIC TOTAL TEMP POTENTIAL TOTALAVG TEMPAVG PRESSURE GPRESSURE VOLUME PRESSAVG GPRESSAVG
ENERGY: 0 4.6523 5.0481 2.3635 0.0000 -10551.5817 1388.3839 0.0000 0.0000 1748.2712 -7402.8627 298.7335 -9151.1339 -7402.8627 298.7335 -620.2671 -547.8400 30613.1161 -620.2671 -547.8400
ENERGY: 300000 1.1176 6.7264 2.6727 0.0000 -10652.6607 1407.9220 0.0000 0.0000 1789.5804 -7444.6416 305.7921 -9234.2221 -7395.9173 300.2056 -304.5330 -200.8371 30052.6579 -165.7355 -75.1074
ENERGY: 600000 3.2312 7.2888 2.6223 0.0000 -10573.2018 1397.8493 0.0000 0.0000 1748.6553 -7413.5550 298.7991 -9162.2103 -7415.0072 299.6918 -402.4726 -276.2295 30440.3882 -254.2013 -167.4471
ENERGY: 900000 3.3412 6.6620 3.0471 0.0000 -10724.9526 1496.1017 0.0000 0.0000 1781.0365 -7434.7641 304.3322 -9215.8006 -7421.2930 301.0433 656.2941 686.5628 29643.9005 -95.5235 -21.5683
ENERGY: 1200000 3.0756 5.7012 7.0661 0.0000 -10628.2611 1446.7733 0.0000 0.0000 1753.0473 -7412.5976 299.5496 -9165.6449 -7420.2816 301.2655 -122.7659 -57.1388 30325.9499 44.0438 113.2788
ENERGY: 1500000 3.3479 6.0704 0.8810 0.0000 -10672.6767 1422.1367 0.0000 0.0000 1803.3669 -7436.8739 308.1479 -9240.2408 -7426.5647 301.2576 -291.9167 -259.5568 30097.7550 -1.9339 60.6664
TCL: Running FEP window   5: Lambda1 0.2    Lambda2 0.25   [dLambda 0.04999999999999999]
TCL: Setting parameter firsttimestep to 0
TCL: Setting parameter alchLambda to 0.2
Info: NONBONDED TABLE R-SQUARED SPACING: 0.0625
Info: NONBONDED TABLE SIZE: 705 POINTS
TCL: Setting parameter alchLambda2 to 0.25
Info: NONBONDED TABLE R-SQUARED SPACING: 0.0625
Info: NONBONDED TABLE SIZE: 705 POINTS
TCL: Running for 1500000 steps
ETITLE: TS BOND ANGLE DIHED IMPRP ELECT VDW BOUNDARY MISC KINETIC TOTAL TEMP POTENTIAL TOTALAVG TEMPAVG PRESSURE GPRESSURE VOLUME PRESSAVG GPRESSAVG
ENERGY: 0 3.3479 6.0704 0.8810 0.0000 -10672.6769 1422.5951 0.0000 0.0000 1802.5341 -7437.2484 308.0056 -9239.7825 -7437.2484 308.0056 -335.3135 -253.3947 30097.7550 -335.3135 -253.3947
ENERGY: 300000 1.1004 5.1851 2.4582 0.0000 -10635.2924 1454.8578 0.0000 0.0000 1767.8407 -7403.8502 302.0774 -9171.6909 -7448.0667 300.2254 73.9796 106.6801 30461.1523 -60.6750 -17.4634
ENERGY: 600000 4.3492 9.4966 2.4930 0.0000 -10398.7468 1296.8333 0.0000 0.0000 1766.4654 -7319.1093 301.8424 -9085.5747 -7450.0306 300.4059 -1027.9903 -977.2693 30553.4636 -186.6650 -131.0382
ENERGY: 900000 2.8881 3.8960 2.1534 0.0000 -10582.4296 1391.7908 0.0000 0.0000 1778.4841 -7403.2172 303.8961 -9181.7012 -7441.8219 300.3047 -3.3292 64.4705 29992.0860 -184.2564 -123.5204
ENERGY: 1200000 3.2341 4.2467 2.2417 0.0000 -10519.8706 1425.1329 0.0000 0.0000 1766.4328 -7318.5823 301.8368 -9085.0152 -7429.5755 300.2052 211.6532 316.1027 30044.6293 -165.3403 -100.9762
ENERGY: 1500000 1.7868 2.6751 2.0499 0.0000 -10625.7516 1478.6972 0.0000 0.0000 1759.0531 -7381.4895 300.5758 -9140.5426 -7431.7369 300.7281 514.8710 555.6644 30438.3016 -154.4440 -91.3696
TCL: Running FEP window   6: Lambda1 0.25   Lambda2 0.3    [dLambda 0.04999999999999999]
TCL: Setting parameter firsttimestep to 0
TCL: Setting parameter alchLambda to 0.25
Info: NONBONDED TABLE R-SQUARED SPACING: 0.0625
Info: NONBONDED TABLE SIZE: 705 POINTS
TCL: Setting parameter alchLambda2 to 0.3
Info: NONBONDED TABLE R-SQUARED SPACING: 0.0625
Info: NONBONDED TABLE SIZE: 705 POINTS
TCL: Running for 1500000 steps
ETITLE: TS BOND ANGLE DIHED IMPRP ELECT VDW BOUNDARY MISC KINETIC TOTAL TEMP POTENTIAL TOTALAVG TEMPAVG PRESSURE GPRESSURE VOLUME PRESSAVG GPRESSAVG
ENERGY: 0 1.7868 2.6751 2.0499 0.0000 -10625.7513 1479.3857 0.0000 0.0000 1758.1812 -7381.6726 300.4268 -9139.8538 -7381.6726 300.4268 499.0438 564.6575 30438.3016 499.0438 564.6575
ENERGY: 300000 2.4048 5.5463 4.6041 0.0000 -10516.9237 1373.6305 0.0000 0.0000 1738.7751 -7391.9629 297.1108 -9130.7380 -7398.2049 299.6344 -434.0343 -353.7772 30320.9333 124.7605 153.5753
ENERGY: 600000 4.3687 3.9215 1.7791 0.0000 -10650.6276 1468.2297 0.0000 0.0000 1784.0996 -7388.2289 304.8556 -9172.3285 -7416.3687 299.5868 -34.0210 45.2494 30677.0055 64.9900 118.9321
ENERGY: 900000 4.2218 4.9061 1.3722 0.0000 -10652.1279 1468.5126 0.0000 0.0000 1703.8305 -7469.2847 291.1397 -9173.1152 -7420.5582 299.2905 -12.4218 75.0076 30374.1973 52.6148 119.4903
ENERGY: 1200000 6.6927 5.8942 3.1517 0.0000 -10627.2161 1497.4009 0.0000 0.0000 1765.0541 -7349.0226 301.6012 -9114.0766 -7413.2193 299.3685 738.6719 784.2654 29841.1132 89.1014 150.6709
ENERGY: 1500000 3.5344 3.9113 0.6225 0.0000 -10606.7109 1411.4322 0.0000 0.0000 1743.5206 -7443.6899 297.9217 -9187.2105 -7423.6564 299.6382 -346.3623 -322.4600 30410.8014 89.4315 150.7803
TCL: Running FEP window   7: Lambda1 0.3    Lambda2 0.35   [dLambda 0.04999999999999999]
TCL: Setting parameter firsttimestep to 0
TCL: Setting parameter alchLambda to 0.3
Info: NONBONDED TABLE R-SQUARED SPACING: 0.0625
Info: NONBONDED TABLE SIZE: 705 POINTS
TCL: Setting parameter alchLambda2 to 0.35
Info: NONBONDED TABLE R-SQUARED SPACING: 0.0625
Info: NONBONDED TABLE SIZE: 705 POINTS
TCL: Running for 1500000 steps
ETITLE: TS BOND ANGLE DIHED IMPRP ELECT VDW BOUNDARY MISC KINETIC TOTAL TEMP POTENTIAL TOTALAVG TEMPAVG PRESSURE GPRESSURE VOLUME PRESSAVG GPRESSAVG
ENERGY: 0 3.5344 3.9113 0.6225 0.0000 -10606.7087 1412.4907 0.0000 0.0000 1742.6556 -7443.4942 297.7739 -9186.1498 -7443.4942 297.7739 -374.8794 -312.9770 30410.8014 -374.8794 -312.9770
ENERGY: 300000 2.2798 5.9660 2.4634 0.0000 -10576.7934 1411.3836 0.0000 0.0000 1763.4809 -7391.2197 301.3324 -9154.7006 -7359.0603 304.2897 -213.7456 -160.5925 30476.6834 -135.1330 -53.2310
ENERGY: 600000 2.1104 5.7910 2.2676 0.0000 -10618.7133 1400.4584 0.0000 0.0000 1749.6545 -7458.4314 298.9698 -9208.0859 -7390.1769 303.2715 -353.7094 -300.9023 30204.4744 -75.4493 -7.3775
ENERGY: 900000 3.3243 5.5868 2.1312 0.0000 -10593.5260 1450.9250 0.0000 0.0000 1761.9975 -7369.5612 301.0789 -9131.5587 -7388.7073 301.3482 428.0464 476.9192 29998.0827 8.3439 63.9327
ENERGY: 1200000 5.2468 3.1281 1.6677 0.0000 -10600.6769 1375.6515 0.0000 0.0000 1714.3666 -7500.6161 292.9401 -9214.9827 -7408.9667 301.4835 -559.5500 -512.9938 29895.9123 -32.9583 18.2507
ENERGY: 1500000 2.3534 6.9767 3.4108 0.0000 -10639.4236 1444.0679 0.0000 0.0000 1758.6970 -7423.9177 300.5150 -9182.6148 -7422.6536 300.6394 -222.8904 -135.0821 30492.6823 -73.0174 -17.7786
TCL: Running FEP window   8: Lambda1 0.35   Lambda2 0.39999999999999997 [dLambda 0.04999999999999999]
TCL: Setting parameter firsttimestep to 0
TCL: Setting parameter alchLambda to 0.35
Info: NONBONDED TABLE R-SQUARED SPACING: 0.0625
Info: NONBONDED TABLE SIZE: 705 POINTS
TCL: Setting parameter alchLambda2 to 0.39999999999999997
Info: NONBONDED TABLE R-SQUARED SPACING: 0.0625
Info: NONBONDED TABLE SIZE: 705 POINTS
TCL: Running for 1500000 steps
ETITLE: TS BOND ANGLE DIHED IMPRP ELECT VDW BOUNDARY MISC KINETIC TOTAL TEMP POTENTIAL TOTALAVG TEMPAVG PRESSURE GPRESSURE VOLUME PRESSAVG GPRESSAVG
ENERGY: 0 2.3534 6.9767 3.4108 0.0000 -10639.4227 1444.8873 0.0000 0.0000 1757.8008 -7423.9936 300.3618 -9181.7944 -7423.9936 300.3618 -208.6978 -126.8092 30492.6823 -208.6978 -126.8092
ENERGY: 300000 4.1354 3.7758 4.5291 0.0000 -10767.8695 1504.7618 0.0000 0.0000 1752.6039 -7498.0635 299.4738 -9250.6674 -7439.4778 300.3112 392.0454 464.3526 29779.3622 -227.8931 -167.6846
ENERGY: 600000 4.0487 4.7167 1.8210 0.0000 -10600.9453 1460.4470 0.0000 0.0000 1779.7925 -7350.1195 304.1196 -9129.9119 -7416.8865 300.5904 249.6554 307.4710 30207.1852 -48.5126 -7.7091
ENERGY: 900000 3.3864 2.3539 0.8951 0.0000 -10632.3312 1496.6271 0.0000 0.0000 1755.3198 -7373.7489 299.9379 -9129.0686 -7409.8768 300.9444 937.4655 959.8153 29773.5208 54.5144 99.4521
ENERGY: 1200000 2.9662 4.7247 4.7784 0.0000 -10679.3238 1468.6996 0.0000 0.0000 1738.6553 -7459.4995 297.0904 -9198.1549 -7417.1457 301.0573 381.1368 489.7343 29793.5244 18.6633 70.2603
ENERGY: 1500000 3.0281 7.7759 3.6816 0.0000 -10397.0488 1239.7809 0.0000 0.0000 1733.4658 -7409.3165 296.2036 -9142.7823 -7412.4565 301.4812 -1410.2697 -1307.0533 30230.2672 -53.4603 0.6147
TCL: Running FEP window   9: Lambda1 0.39999999999999997 Lambda2 0.44999999999999996 [dLambda 0.04999999999999999]
TCL: Setting parameter firsttimestep to 0
TCL: Setting parameter alchLambda to 0.39999999999999997
Info: NONBONDED TABLE R-SQUARED SPACING: 0.0625
Info: NONBONDED TABLE SIZE: 705 POINTS
TCL: Setting parameter alchLambda2 to 0.44999999999999996
Info: NONBONDED TABLE R-SQUARED SPACING: 0.0625
Info: NONBONDED TABLE SIZE: 705 POINTS
TCL: Running for 1500000 steps
ETITLE: TS BOND ANGLE DIHED IMPRP ELECT VDW BOUNDARY MISC KINETIC TOTAL TEMP POTENTIAL TOTALAVG TEMPAVG PRESSURE GPRESSURE VOLUME PRESSAVG GPRESSAVG
ENERGY: 0 3.0281 7.7759 3.6816 0.0000 -10397.0492 1239.7535 0.0000 0.0000 1732.5880 -7410.2221 296.0536 -9142.8100 -7410.2221 296.0536 -1385.3762 -1302.4069 30230.2672 -1385.3762 -1302.4069
ENERGY: 300000 4.4491 4.2074 3.4064 0.0000 -10570.4784 1401.2493 0.0000 0.0000 1723.5797 -7433.5864 294.5143 -9157.1661 -7429.0310 294.8525 -247.4678 -239.0236 30739.0440 -160.7390 -112.3926
ENERGY: 600000 2.0664 6.3498 2.3944 0.0000 -10529.6519 1386.8257 0.0000 0.0000 1784.7776 -7347.2380 304.9715 -9132.0156 -7440.9393 297.1098 -424.9602 -307.3859 30755.1625 -233.1563 -168.4180
ENERGY: 900000 2.2582 3.8134 1.1285 0.0000 -10586.6228 1390.4086 0.0000 0.0000 1770.5229 -7418.4911 302.5357 -9189.0141 -7449.0902 298.7066 -587.3345 -526.1898 30716.1287 -261.7481 -199.9201
ENERGY: 1200000 2.2689 3.5690 2.2421 0.0000 -10577.2603 1423.3974 0.0000 0.0000 1680.1838 -7465.5990 287.0991 -9145.7828 -7448.7160 297.7240 -43.0228 51.9492 30363.8438 -124.2084 -56.6917
ENERGY: 1500000 2.2327 5.4146 1.6933 0.0000 -10734.3268 1471.3447 0.0000 0.0000 1782.9061 -7470.7354 304.6517 -9253.6415 -7457.1721 298.3803 32.4692 133.5754 29979.2068 -94.6894 -28.0264
TCL: Running FEP window  10: Lambda1 0.44999999999999996 Lambda2 0.49999999999999994 [dLambda 0.04999999999999999]
TCL: Setting parameter firsttimestep to 0
TCL: Setting parameter alchLambda to 0.44999999999999996
Info: NONBONDED TABLE R-SQUARED SPACING: 0.0625
Info: NONBONDED TABLE SIZE: 705 POINTS
TCL: Setting parameter alchLambda2 to 0.49999999999999994
Info: NONBONDED TABLE R-SQUARED SPACING: 0.0625
Info: NONBONDED TABLE SIZE: 705 POINTS
TCL: Running for 1500000 steps
ETITLE: TS BOND ANGLE DIHED IMPRP ELECT VDW BOUNDARY MISC KINETIC TOTAL TEMP POTENTIAL TOTALAVG TEMPAVG PRESSURE GPRESSURE VOLUME PRESSAVG GPRESSAVG
ENERGY: 0 2.2327 5.4146 1.6933 0.0000 -10734.3281 1471.9461 0.0000 0.0000 1781.9970 -7471.0444 304.4963 -9253.0413 -7471.0444 304.4963 61.8969 142.2793 29979.2068 61.8969 142.2793
ENERGY: 300000 2.2243 4.9562 4.1138 0.0000 -10829.8579 1530.3679 0.0000 0.0000 1789.0408 -7499.1550 305.6999 -9288.1957 -7429.2946 301.5287 293.8032 392.7811 30266.7779 190.3374 273.3259
ENERGY: 600000 3.0739 4.0683 1.8982 0.0000 -10715.0987 1539.5366 0.0000 0.0000 1760.7648 -7405.7568 300.8683 -9166.5217 -7430.1426 301.2823 1151.8314 1193.3903 29763.7584 125.7061 199.4310
ENERGY: 900000 4.4229 4.7795 4.2238 0.0000 -10628.7608 1407.7283 0.0000 0.0000 1770.0765 -7437.5297 302.4594 -9207.6062 -7429.2807 300.6908 -318.0831 -238.6516 30209.1485 50.5794 128.9420
ENERGY: 1200000 4.3775 5.5261 2.9752 0.0000 -10614.1499 1451.4762 0.0000 0.0000 1755.0796 -7394.7153 299.8968 -9149.7949 -7428.5199 300.2966 347.2492 385.0683 30034.7689 -33.5571 44.5933
ENERGY: 1500000 2.0156 2.9695 1.6306 0.0000 -10669.8083 1419.6191 0.0000 0.0000 1819.6737 -7423.8998 310.9343 -9243.5734 -7420.4076 300.8458 -139.7035 -145.9990 30236.5984 -108.1332 -35.7744
TCL: Running FEP window  11: Lambda1 0.49999999999999994 Lambda2 0.5499999999999999 [dLambda 0.04999999999999999]
TCL: Setting parameter firsttimestep to 0
TCL: Setting parameter alchLambda to 0.49999999999999994
Info: NONBONDED TABLE R-SQUARED SPACING: 0.0625
Info: NONBONDED TABLE SIZE: 705 POINTS
TCL: Setting parameter alchLambda2 to 0.5499999999999999
Info: NONBONDED TABLE R-SQUARED SPACING: 0.0625
Info: NONBONDED TABLE SIZE: 705 POINTS
TCL: Running for 1500000 steps
ETITLE: TS BOND ANGLE DIHED IMPRP ELECT VDW BOUNDARY MISC KINETIC TOTAL TEMP POTENTIAL TOTALAVG TEMPAVG PRESSURE GPRESSURE VOLUME PRESSAVG GPRESSAVG
ENERGY: 0 2.0156 2.9695 1.6306 0.0000 -10669.8094 1419.2312 0.0000 0.0000 1818.7959 -7425.1666 310.7843 -9243.9624 -7425.1666 310.7843 -236.2802 -146.0562 30236.5984 -236.2802 -146.0562
ENERGY: 300000 1.6649 6.9310 3.5075 0.0000 -10575.5995 1432.1453 0.0000 0.0000 1760.5137 -7370.8372 300.8254 -9131.3509 -7374.7884 307.6161 -0.6597 87.2363 30800.8165 -246.6623 -177.7461
ENERGY: 600000 4.0653 2.5084 3.7694 0.0000 -10677.3415 1411.4493 0.0000 0.0000 1737.3231 -7518.2261 296.8627 -9255.5492 -7427.3785 304.1110 -312.2188 -222.4686 30198.8135 14.1434 74.3155
ENERGY: 900000 3.2299 5.2630 1.4415 0.0000 -10710.9284 1469.5882 0.0000 0.0000 1800.5182 -7430.8876 307.6611 -9231.4058 -7436.9327 303.2105 -1.5590 94.7717 30492.7186 -85.2668 -17.0725
ENERGY: 1200000 2.7362 8.9614 2.8030 0.0000 -10601.6654 1449.4680 0.0000 0.0000 1758.3260 -7379.3707 300.4516 -9137.6967 -7442.0420 302.0126 -34.6126 98.6797 30695.8036 -59.4500 11.8966
ENERGY: 1500000 1.5177 4.3802 5.4861 0.0000 -10588.5001 1359.0645 0.0000 0.0000 1744.3923 -7473.6593 298.0707 -9218.0516 -7447.1215 300.9817 -546.3303 -471.1238 30070.4464 -47.0828 23.6228
TCL: Running FEP window  12: Lambda1 0.5499999999999999 Lambda2 0.6    [dLambda 0.050000000000000044]
TCL: Setting parameter firsttimestep to 0
TCL: Setting parameter alchLambda to 0.5499999999999999
Info: NONBONDED TABLE R-SQUARED SPACING: 0.0625
Info: NONBONDED TABLE SIZE: 705 POINTS
TCL: Setting parameter alchLambda2 to 0.6
Info: NONBONDED TABLE R-SQUARED SPACING: 0.0625
Info: NONBONDED TABLE SIZE: 705 POINTS
TCL: Running for 1500000 steps
ETITLE: TS BOND ANGLE DIHED IMPRP ELECT VDW BOUNDARY MISC KINETIC TOTAL TEMP POTENTIAL TOTALAVG TEMPAVG PRESSURE GPRESSURE VOLUME PRESSAVG GPRESSAVG
ENERGY: 0 1.5177 4.3802 5.4861 0.0000 -10588.5883 1358.8146 0.0000 0.0000 1743.5086 -7474.8810 297.9197 -9218.3896 -7474.8810 297.9197 -540.8355 -466.7395 30070.4464 -540.8355 -466.7395
ENERGY: 300000 3.0944 3.1177 1.6692 0.0000 -10580.4016 1382.1260 0.0000 0.0000 1757.3239 -7433.0704 300.2803 -9190.3943 -7464.1819 299.6830 -273.4196 -166.1886 30024.1776 -39.1019 21.2291
ENERGY: 600000 6.7172 6.3444 5.4781 0.0000 -10492.3761 1366.6909 0.0000 0.0000 1800.0545 -7307.0910 307.5819 -9107.1455 -7454.3261 298.7364 -351.1837 -298.8613 30257.7888 -93.6018 -38.4427
ENERGY: 900000 1.3499 5.6228 1.2927 0.0000 -10482.3405 1336.5055 0.0000 0.0000 1708.9922 -7428.5774 292.0217 -9137.5696 -7453.1013 298.3202 -593.1458 -517.0320 30054.3794 -206.2769 -154.6469
ENERGY: 1200000 3.2070 4.8858 2.6218 0.0000 -10602.1187 1447.5162 0.0000 0.0000 1734.8369 -7409.0510 296.4379 -9143.8879 -7448.9212 298.3633 35.2962 125.4802 30564.5863 -75.4609 -19.2843
ENERGY: 1500000 4.7997 5.0116 3.5412 0.0000 -10658.7029 1483.0082 0.0000 0.0000 1703.8597 -7458.4824 291.1447 -9162.3421 -7449.7926 298.0435 23.0123 91.8374 30555.0279 2.2892 66.2654
TCL: Running FEP window  13: Lambda1 0.6    Lambda2 0.65   [dLambda 0.050000000000000044]
TCL: Setting parameter firsttimestep to 0
TCL: Setting parameter alchLambda to 0.6
Info: NONBONDED TABLE R-SQUARED SPACING: 0.0625
Info: NONBONDED TABLE SIZE: 705 POINTS
TCL: Setting parameter alchLambda2 to 0.65
Info: NONBONDED TABLE R-SQUARED SPACING: 0.0625
Info: NONBONDED TABLE SIZE: 705 POINTS
TCL: Running for 1500000 steps
ETITLE: TS BOND ANGLE DIHED IMPRP ELECT VDW BOUNDARY MISC KINETIC TOTAL TEMP POTENTIAL TOTALAVG TEMPAVG PRESSURE GPRESSURE VOLUME PRESSAVG GPRESSAVG
ENERGY: 0 4.7997 5.0116 3.5412 0.0000 -10658.6406 1483.1899 0.0000 0.0000 1702.9877 -7459.1105 290.9957 -9162.0981 -7459.1105 290.9957 13.4942 98.1045 30555.0279 13.4942 98.1045
ENERGY: 300000 2.4205 6.8299 2.1364 0.0000 -10699.1009 1496.7982 0.0000 0.0000 1789.5293 -7401.3866 305.7834 -9190.9159 -7421.9368 301.3380 1025.1528 1074.5198 29464.1808 55.6903 114.5904
ENERGY: 600000 1.5253 3.4085 3.6532 0.0000 -10669.5721 1393.5070 0.0000 0.0000 1754.4433 -7513.0348 299.7881 -9267.4781 -7458.8628 300.3522 -619.1540 -532.0468 30363.3483 -54.7131 2.5393
ENERGY: 900000 2.0036 4.8710 2.8119 0.0000 -10814.3958 1597.2491 0.0000 0.0000 1803.4510 -7404.0092 308.1623 -9207.4602 -7465.7966 300.2391 1533.9830 1639.9371 29847.1473 50.8832 106.2141
ENERGY: 1200000 4.1120 7.9055 1.2081 0.0000 -10705.3443 1471.3824 0.0000 0.0000 1715.3008 -7505.4355 293.0997 -9220.7364 -7464.4005 299.2662 154.5273 242.8593 30261.9916 27.1503 88.8912
ENERGY: 1500000 3.9725 2.7638 1.9580 0.0000 -10647.3864 1400.9030 0.0000 0.0000 1745.0287 -7492.7604 298.1794 -9237.7891 -7457.0194 298.9529 -474.1843 -382.3832 30324.2086 -13.9295 46.3758
TCL: Running FEP window  14: Lambda1 0.65   Lambda2 0.7000000000000001 [dLambda 0.050000000000000044]
TCL: Setting parameter firsttimestep to 0
TCL: Setting parameter alchLambda to 0.65
Info: NONBONDED TABLE R-SQUARED SPACING: 0.0625
Info: NONBONDED TABLE SIZE: 705 POINTS
TCL: Setting parameter alchLambda2 to 0.7000000000000001
Info: NONBONDED TABLE R-SQUARED SPACING: 0.0625
Info: NONBONDED TABLE SIZE: 705 POINTS
TCL: Running for 1500000 steps
ETITLE: TS BOND ANGLE DIHED IMPRP ELECT VDW BOUNDARY MISC KINETIC TOTAL TEMP POTENTIAL TOTALAVG TEMPAVG PRESSURE GPRESSURE VOLUME PRESSAVG GPRESSAVG
ENERGY: 0 3.9725 2.7638 1.9580 0.0000 -10647.8994 1401.9795 0.0000 0.0000 1744.1626 -7493.0630 298.0314 -9237.2256 -7493.0630 298.0314 -453.4168 -366.0430 30324.2086 -453.4168 -366.0430
ENERGY: 300000 4.3576 7.6258 3.3403 0.0000 -10538.0966 1372.7822 0.0000 0.0000 1709.0264 -7440.9642 292.0276 -9149.9906 -7448.1290 297.8623 -494.9804 -373.7801 30651.9726 -322.2754 -225.9703
ENERGY: 600000 3.7439 3.8981 4.6047 0.0000 -10615.9019 1373.4841 0.0000 0.0000 1798.9195 -7431.2517 307.3879 -9230.1712 -7436.7588 299.9140 -748.1673 -622.8144 30345.7852 -330.5894 -230.4387
ENERGY: 900000 4.6372 4.8212 2.0032 0.0000 -10612.3785 1442.7889 0.0000 0.0000 1740.8903 -7417.2377 297.4723 -9158.1280 -7427.3224 300.1463 36.4603 121.6627 30309.1743 -416.9039 -323.1455
ENERGY: 1200000 1.4645 4.6897 4.5981 0.0000 -10631.5014 1434.5015 0.0000 0.0000 1816.1612 -7370.0864 310.3341 -9186.2476 -7424.7121 301.3340 -197.1590 -78.7582 30537.2406 -328.6251 -238.0142
ENERGY: 1500000 3.3456 2.9897 2.6486 0.0000 -10594.3541 1430.8326 0.0000 0.0000 1712.7278 -7441.8099 292.6600 -9154.5377 -7428.2557 300.7810 35.5101 98.3413 30176.5065 -260.1230 -176.4964
TCL: Running FEP window  15: Lambda1 0.7000000000000001 Lambda2 0.7500000000000001 [dLambda 0.050000000000000044]
TCL: Setting parameter firsttimestep to 0
TCL: Setting parameter alchLambda to 0.7000000000000001
Info: NONBONDED TABLE R-SQUARED SPACING: 0.0625
Info: NONBONDED TABLE SIZE: 705 POINTS
TCL: Setting parameter alchLambda2 to 0.7500000000000001
Info: NONBONDED TABLE R-SQUARED SPACING: 0.0625
Info: NONBONDED TABLE SIZE: 705 POINTS
TCL: Running for 1500000 steps
ETITLE: TS BOND ANGLE DIHED IMPRP ELECT VDW BOUNDARY MISC KINETIC TOTAL TEMP POTENTIAL TOTALAVG TEMPAVG PRESSURE GPRESSURE VOLUME PRESSAVG GPRESSAVG
ENERGY: 0 3.3456 2.9897 2.6486 0.0000 -10594.4728 1431.2408 0.0000 0.0000 1711.8333 -7442.4149 292.5072 -9154.2482 -7442.4149 292.5072 32.0286 112.1183 30176.5065 32.0286 112.1183
ENERGY: 300000 4.5970 3.3240 2.7572 0.0000 -10528.1034 1365.8347 0.0000 0.0000 1784.8574 -7366.7331 304.9851 -9151.5905 -7449.3351 300.1867 -627.6400 -613.7568 30468.9921 -281.2583 -225.0173
ENERGY: 600000 3.6673 5.7639 4.6374 0.0000 -10563.2169 1439.4485 0.0000 0.0000 1795.9317 -7313.7681 306.8774 -9109.6998 -7430.1415 301.4976 22.1596 91.4774 30802.9062 -181.2965 -112.6577
ENERGY: 900000 4.0631 6.0176 1.4550 0.0000 -10581.9349 1414.8637 0.0000 0.0000 1722.9951 -7432.5403 294.4145 -9155.5354 -7431.9372 300.2524 45.1099 84.0599 30215.4448 -181.6066 -118.2122
ENERGY: 1200000 3.9921 4.9870 2.8566 0.0000 -10631.0017 1450.1014 0.0000 0.0000 1711.1907 -7457.8739 292.3974 -9169.0646 -7433.5016 299.3945 244.5709 272.5194 30160.4719 -68.3774 -2.9477
ENERGY: 1500000 2.4381 3.1373 3.1096 0.0000 -10689.4674 1505.9384 0.0000 0.0000 1761.5091 -7413.3350 300.9955 -9174.8441 -7434.9959 299.8445 259.4615 312.5482 30852.1724 -36.3053 29.0169
TCL: Running FEP window  16: Lambda1 0.7500000000000001 Lambda2 0.8000000000000002 [dLambda 0.050000000000000044]
TCL: Setting parameter firsttimestep to 0
TCL: Setting parameter alchLambda to 0.7500000000000001
Info: NONBONDED TABLE R-SQUARED SPACING: 0.0625
Info: NONBONDED TABLE SIZE: 705 POINTS
TCL: Setting parameter alchLambda2 to 0.8000000000000002
Info: NONBONDED TABLE R-SQUARED SPACING: 0.0625
Info: NONBONDED TABLE SIZE: 705 POINTS
TCL: Running for 1500000 steps
ETITLE: TS BOND ANGLE DIHED IMPRP ELECT VDW BOUNDARY MISC KINETIC TOTAL TEMP POTENTIAL TOTALAVG TEMPAVG PRESSURE GPRESSURE VOLUME PRESSAVG GPRESSAVG
ENERGY: 0 2.4381 3.1373 3.1096 0.0000 -10689.8570 1505.2255 0.0000 0.0000 1760.6132 -7415.3334 300.8424 -9175.9466 -7415.3334 300.8424 229.6752 312.3207 30852.1724 229.6752 312.3207
ENERGY: 300000 4.1818 2.3725 3.9429 0.0000 -10794.6138 1531.7330 0.0000 0.0000 1741.0148 -7511.3687 297.4935 -9252.3835 -7423.7362 302.6505 578.6825 648.0020 30063.6434 123.1084 206.3020
ENERGY: 600000 2.0300 1.9181 3.9049 0.0000 -10620.0658 1402.5221 0.0000 0.0000 1755.8577 -7453.8331 300.0298 -9209.6907 -7436.5531 299.7981 -277.5504 -218.5546 30202.6438 -61.0267 7.5972
ENERGY: 900000 3.9510 4.8827 2.9586 0.0000 -10568.4756 1397.8252 0.0000 0.0000 1740.9099 -7417.9481 297.4756 -9158.8580 -7440.5431 299.3555 -139.3615 -8.2789 30263.5273 -48.9327 16.7423
ENERGY: 1200000 3.2807 3.9309 3.3062 0.0000 -10653.9791 1434.0628 0.0000 0.0000 1789.7919 -7419.6067 305.8283 -9209.3986 -7428.3500 300.6830 252.7025 353.3554 29888.4657 -63.8448 1.7928
ENERGY: 1500000 1.8628 3.8785 2.3988 0.0000 -10576.2729 1450.7788 0.0000 0.0000 1766.2617 -7351.0925 301.8076 -9117.3541 -7426.7733 300.6864 313.6482 401.6239 30090.4608 -32.7676 33.4933
TCL: Running FEP window  17: Lambda1 0.8000000000000002 Lambda2 0.8500000000000002 [dLambda 0.050000000000000044]
TCL: Setting parameter firsttimestep to 0
TCL: Setting parameter alchLambda to 0.8000000000000002
Info: NONBONDED TABLE R-SQUARED SPACING: 0.0625
Info: NONBONDED TABLE SIZE: 705 POINTS
TCL: Setting parameter alchLambda2 to 0.8500000000000002
Info: NONBONDED TABLE R-SQUARED SPACING: 0.0625
Info: NONBONDED TABLE SIZE: 705 POINTS
TCL: Running for 1500000 steps
ETITLE: TS BOND ANGLE DIHED IMPRP ELECT VDW BOUNDARY MISC KINETIC TOTAL TEMP POTENTIAL TOTALAVG TEMPAVG PRESSURE GPRESSURE VOLUME PRESSAVG GPRESSAVG
ENERGY: 0 1.8628 3.8785 2.3988 0.0000 -10576.6402 1450.3998 0.0000 0.0000 1765.3889 -7352.7116 301.6584 -9118.1004 -7352.7116 301.6584 331.3354 404.4897 30090.4608 331.3354 404.4897
ENERGY: 300000 4.8295 4.9565 2.3206 0.0000 -10735.5993 1469.7240 0.0000 0.0000 1710.8108 -7542.9577 292.3325 -9253.7686 -7441.6356 293.5689 159.3437 240.8424 29896.5387 55.6270 115.4939
ENERGY: 600000 3.7568 3.9818 4.7237 0.0000 -10517.9242 1358.8319 0.0000 0.0000 1723.4135 -7423.2165 294.4860 -9146.6300 -7445.6984 293.6487 -900.4633 -831.4048 31080.5912 -140.9496 -66.2776
ENERGY: 900000 2.5526 5.3862 3.3719 0.0000 -10548.4256 1395.1075 0.0000 0.0000 1752.8493 -7389.1581 299.5158 -9142.0074 -7443.8144 295.9401 -324.9244 -243.5290 30777.5524 -236.9826 -155.9211
ENERGY: 1200000 4.3138 2.9598 2.3979 0.0000 -10441.7979 1323.2290 0.0000 0.0000 1804.6372 -7304.2602 308.3649 -9108.8974 -7425.4156 297.7694 -547.3697 -568.4104 30517.5155 -185.8899 -116.7258
ENERGY: 1500000 2.0689 4.1228 3.4071 0.0000 -10620.5927 1367.2064 0.0000 0.0000 1790.3116 -7453.4760 305.9171 -9243.7875 -7432.4572 298.8955 -536.9700 -521.7756 30024.2449 -164.9790 -100.2742
TCL: Running FEP window  18: Lambda1 0.8500000000000002 Lambda2 0.9000000000000002 [dLambda 0.050000000000000044]
TCL: Setting parameter firsttimestep to 0
TCL: Setting parameter alchLambda to 0.8500000000000002
Info: NONBONDED TABLE R-SQUARED SPACING: 0.0625
Info: NONBONDED TABLE SIZE: 705 POINTS
TCL: Setting parameter alchLambda2 to 0.9000000000000002
Info: NONBONDED TABLE R-SQUARED SPACING: 0.0625
Info: NONBONDED TABLE SIZE: 705 POINTS
TCL: Running for 1500000 steps
ETITLE: TS BOND ANGLE DIHED IMPRP ELECT VDW BOUNDARY MISC KINETIC TOTAL TEMP POTENTIAL TOTALAVG TEMPAVG PRESSURE GPRESSURE VOLUME PRESSAVG GPRESSAVG
ENERGY: 0 2.0689 4.1228 3.4071 0.0000 -10620.5726 1366.8342 0.0000 0.0000 1789.4542 -7454.6855 305.7706 -9244.1397 -7454.6855 305.7706 -591.0492 -515.2792 30024.2449 -591.0492 -515.2792
ENERGY: 300000 3.5627 2.1632 1.9134 0.0000 -10663.4239 1424.6354 0.0000 0.0000 1761.6468 -7469.5025 301.0190 -9231.1492 -7414.0779 303.2381 -182.1660 -193.3626 30343.1691 -309.0594 -271.6434
ENERGY: 600000 6.8896 4.2242 2.9434 0.0000 -10676.2767 1476.0153 0.0000 0.0000 1758.9852 -7427.2190 300.5642 -9186.2042 -7416.6624 303.7746 223.4380 279.8437 30210.6022 -92.1418 -47.8594
ENERGY: 900000 4.8439 5.3312 1.0825 0.0000 -10678.7329 1514.5851 0.0000 0.0000 1792.6537 -7360.2364 306.3173 -9152.8901 -7423.3571 302.1855 447.2648 476.7986 30738.1769 -41.0058 -0.4357
ENERGY: 1200000 3.6038 3.8407 3.3404 0.0000 -10649.3522 1443.8888 0.0000 0.0000 1775.9908 -7418.6875 303.4700 -9194.6783 -7426.7735 302.2425 26.3318 116.4797 30132.6959 -86.2849 -50.2920
ENERGY: 1500000 1.7414 3.6525 1.2542 0.0000 -10591.7926 1393.6217 0.0000 0.0000 1750.6379 -7440.8849 299.1379 -9191.5227 -7435.3769 301.5503 -371.0350 -313.3651 30460.2354 -194.1917 -156.1658
TCL: Running FEP window  19: Lambda1 0.9000000000000002 Lambda2 0.9500000000000003 [dLambda 0.050000000000000044]
TCL: Setting parameter firsttimestep to 0
TCL: Setting parameter alchLambda to 0.9000000000000002
Info: NONBONDED TABLE R-SQUARED SPACING: 0.0625
Info: NONBONDED TABLE SIZE: 705 POINTS
TCL: Setting parameter alchLambda2 to 0.9500000000000003
Info: NONBONDED TABLE R-SQUARED SPACING: 0.0625
Info: NONBONDED TABLE SIZE: 705 POINTS
TCL: Running for 1500000 steps
ETITLE: TS BOND ANGLE DIHED IMPRP ELECT VDW BOUNDARY MISC KINETIC TOTAL TEMP POTENTIAL TOTALAVG TEMPAVG PRESSURE GPRESSURE VOLUME PRESSAVG GPRESSAVG
ENERGY: 0 1.7414 3.6525 1.2542 0.0000 -10592.5614 1393.2662 0.0000 0.0000 1749.7317 -7442.9153 298.9830 -9192.6470 -7442.9153 298.9830 -396.8870 -307.7709 30460.2354 -396.8870 -307.7709
ENERGY: 300000 2.8166 4.9398 2.6756 0.0000 -10695.6202 1510.8442 0.0000 0.0000 1761.8905 -7412.4535 301.0607 -9174.3440 -7432.2067 298.9568 719.3434 834.0862 30157.1287 1.9012 71.0203
ENERGY: 600000 2.1030 5.0414 2.2003 0.0000 -10654.5605 1483.1244 0.0000 0.0000 1721.1160 -7440.9755 294.0934 -9162.0914 -7430.6571 299.8620 327.0588 363.3889 30679.4828 45.9709 107.8100
ENERGY: 900000 2.8883 4.5735 6.0266 0.0000 -10573.9277 1344.5377 0.0000 0.0000 1794.2412 -7421.6604 306.5885 -9215.9016 -7426.5534 300.2358 -758.4237 -688.8795 30340.8525 -160.4711 -104.1963
ENERGY: 1200000 3.4755 5.5226 3.0728 0.0000 -10798.8108 1468.6704 0.0000 0.0000 1746.8578 -7571.2117 298.4920 -9318.0695 -7438.6834 299.7957 -78.0690 41.6984 29902.0149 -235.7836 -176.5996
ENERGY: 1500000 1.9317 7.7819 2.4054 0.0000 -10696.3297 1439.0884 0.0000 0.0000 1725.2311 -7519.8911 294.7965 -9245.1222 -7450.2496 299.8359 -68.5505 24.6352 30033.7430 -233.2293 -172.2724
TCL: Running FEP window  20: Lambda1 0.9500000000000003 Lambda2 1.0    [dLambda 0.04999999999999971]
TCL: Setting parameter firsttimestep to 0
TCL: Setting parameter alchLambda to 0.9500000000000003
Info: NONBONDED TABLE R-SQUARED SPACING: 0.0625
Info: NONBONDED TABLE SIZE: 705 POINTS
TCL: Setting parameter alchLambda2 to 1.0
Info: NONBONDED TABLE R-SQUARED SPACING: 0.0625
Info: NONBONDED TABLE SIZE: 705 POINTS
TCL: Running for 1500000 steps
ETITLE: TS BOND ANGLE DIHED IMPRP ELECT VDW BOUNDARY MISC KINETIC TOTAL TEMP POTENTIAL TOTALAVG TEMPAVG PRESSURE GPRESSURE VOLUME PRESSAVG GPRESSAVG
ENERGY: 0 1.9317 7.7819 2.4054 0.0000 -10696.6727 1439.3077 0.0000 0.0000 1724.3428 -7520.9031 294.6447 -9245.2459 -7520.9031 294.6447 -36.7590 38.1240 30033.7430 -36.7590 38.1240
ENERGY: 300000 1.5485 3.2048 1.3312 0.0000 -10573.3512 1417.6976 0.0000 0.0000 1827.3168 -7322.2523 312.2403 -9149.5691 -7444.8427 300.0191 370.8334 453.2643 29871.4416 185.9635 231.0763
ENERGY: 600000 1.7261 5.3662 2.6295 0.0000 -10887.4739 1515.1076 0.0000 0.0000 1761.8036 -7600.8409 301.0458 -9362.6445 -7472.5639 300.2600 724.6064 805.4653 29573.8851 102.9303 156.9002
ENERGY: 900000 1.6666 4.7608 3.0877 0.0000 -10561.0770 1434.6885 0.0000 0.0000 1720.5629 -7396.3104 293.9989 -9116.8734 -7464.1227 300.0226 80.6631 167.8534 30640.9612 106.3948 161.0962
ENERGY: 1200000 3.3615 5.7110 3.2591 0.0000 -10691.4072 1465.0506 0.0000 0.0000 1706.4598 -7507.5653 291.5890 -9214.0251 -7460.5090 299.0504 278.3840 306.8750 29914.0485 23.9103 82.5308
ENERGY: 1500000 4.3678 4.2005 3.9680 0.0000 -10680.1026 1471.7375 0.0000 0.0000 1791.2900 -7404.5388 306.0843 -9195.8289 -7459.2343 299.3128 165.7791 218.0963 30460.1703 33.5256 90.0213
TCL: Exiting due to exit command.
