Info: SIMULATION PARAMETERS:
Info: TIMESTEP               2
Info: NUMBER OF STEPS        0
Info: STEPS PER CYCLE        10
Info: PERIODIC CELL BASIS 1  32.9606 0 0
Info: PERIODIC CELL BASIS 2  0 30.2095 0
Info: PERIODIC CELL BASIS 3  0 0 30.3955
Info: PERIODIC CELL CENTER   0 0 0
Info: WRAPPING WATERS AROUND PERIODIC BOUNDARIES ON OUTPUT.
Info: WRAPPING ALL CLUSTERS AROUND PERIODIC BOUNDARIES ON OUTPUT.
Info: FIRST LDB TIMESTEP     50
Info: LAST LDB TIMESTEP     -1
Info: HOM BACKGROUND SCALING 1
Info: PME BACKGROUND SCALING 1
Info: MIN ATOMS PER PATCH    40
Info: EMPTY PATCH LOAD       40 ATOMS
Info: VELOCITY FILE          mobley_8052240_equil.vel
Info: CENTER OF MASS MOVING INITIALLY? NO
Info: DIELECTRIC             1
Info: EXCLUDE                SCALED ONE-FOUR
Info: 1-4 ELECTROSTATICS SCALED BY 0.833333
Info: MODIFIED 1-4 VDW PARAMETERS WILL BE USED
Info: DCD FILENAME           mobley_8052240_prod.dcd
Info: DCD FREQUENCY          100000
Info: DCD FIRST STEP         100000
Info: DCD FILE WILL CONTAIN UNIT CELL DATA
Info: XST FILENAME           mobley_8052240_prod.xst
Info: XST FREQUENCY          100000
Info: NO VELOCITY DCD OUTPUT
Info: NO FORCE DCD OUTPUT
Info: OUTPUT FILENAME        mobley_8052240_prod
Info: BINARY OUTPUT FILES WILL BE USED
Info: RESTART FILENAME       mobley_8052240_prod.restart
Info: RESTART FREQUENCY      100000
Info: BINARY RESTART FILES WILL BE USED
Info: CUTOFF                 9
Info: PAIRLIST DISTANCE      11
Info: PAIRLIST SHRINK RATE   0.01
Info: PAIRLIST GROW RATE     0.01
Info: PAIRLIST TRIGGER       0.3
Info: PAIRLISTS PER CYCLE    2
Info: PAIRLISTS ENABLED
Info: MARGIN                 2
Info: HYDROGEN GROUP CUTOFF  2.5
Info: PATCH DIMENSION        15.5
Info: ENERGY OUTPUT STEPS    100000
Info: ENERGY EVALUATION STEPS    100000
Info: OUTPUT ENERGY PRECISION 4
Info: CROSSTERM ENERGY INCLUDED IN DIHEDRAL
Info: TIMING OUTPUT STEPS    1000000
Info: PRESSURE OUTPUT STEPS  100000
Info: ALCHEMICAL FEP ON
Info: FEP CURRENT LAMBDA VALUE     1
Info: FEP COMPARISON LAMBDA VALUE  0.95
Info: FEP INTRA-ALCHEMICAL NON-BONDED INTERACTIONS WILL BE RETAINED
Info: FEP INTRA-ALCHEMICAL BONDED INTERACTIONS WILL BE RETAINED
Info: FEP VDW SHIFTING COEFFICIENT 5
Info: FEP ELEC. ACTIVE FOR ANNIHILATED PARTICLES BETWEEN LAMBDA = 0 AND LAMBDA = 0.5
Info: FEP ELEC. ACTIVE FOR EXNIHILATED PARTICLES BETWEEN LAMBDA = 0.5 AND LAMBDA = 1
Info: FEP VDW ACTIVE FOR ANNIHILATED PARTICLES BETWEEN LAMBDA = 0 AND LAMBDA = 1
Info: FEP VDW ACTIVE FOR EXNIHILATED PARTICLES BETWEEN LAMBDA = 0 AND LAMBDA = 1
Info: FEP BOND ACTIVE FOR ANNIHILATED PARTICLES BETWEEN LAMBDA = 1 AND LAMBDA = 1
Info: FEP BOND ACTIVE FOR EXNIHILATED PARTICLES BETWEEN LAMBDA = 0 AND LAMBDA = 0
Info: LANGEVIN DYNAMICS ACTIVE
Info: LANGEVIN TEMPERATURE   300
Info: LANGEVIN USING BBK INTEGRATOR
Info: LANGEVIN DAMPING COEFFICIENT IS 1 INVERSE PS
Info: LANGEVIN DYNAMICS APPLIED TO HYDROGENS
Info: LANGEVIN PISTON PRESSURE CONTROL ACTIVE
Info:        TARGET PRESSURE IS 1.01325 BAR
Info:     OSCILLATION PERIOD IS 50 FS
Info:             DECAY TIME IS 25 FS
Info:     PISTON TEMPERATURE IS 300 K
Info:       PRESSURE CONTROL IS GROUP-BASED
Info:    INITIAL STRAIN RATE IS 0.000152823 0.000152823 0.000152823
Info:       CELL FLUCTUATION IS ISOTROPIC
Info: PARTICLE MESH EWALD (PME) ACTIVE
Info: PME TOLERANCE               1e-06
Info: PME EWALD COEFFICIENT       0.348832
Info: PME INTERPOLATION ORDER     4
Info: PME GRID DIMENSIONS         36 32 32
Info: PME MAXIMUM GRID SPACING    1
Info: PME CALCULATION WILL BE PERFORMED ON GPU
Info: FULL ELECTROSTATIC EVALUATION FREQUENCY      2
Info: USING VERLET I (r-RESPA) MTS SCHEME.
Info: C1 SPLITTING OF LONG RANGE ELECTROSTATICS
Info: PLACING ATOMS IN PATCHES BY HYDROGEN GROUPS
Info: RIGID BONDS TO HYDROGEN : ALL
Info:         ERROR TOLERANCE : 1e-08
Info:          MAX ITERATIONS : 100
Info: RIGID WATER USING SETTLE ALGORITHM
Info: RANDOM NUMBER SEED     1743663143
Info: USE HYDROGEN BONDS?    NO
Info: Using AMBER format force field!
Info: AMBER PARM FILE        mobley_8052240.prmtop
Info: COORDINATE PDB         mobley_8052240.pdb
Info: Exclusions will be read from PARM file!
Info: SCNB (VDW SCALING)     2
Info: USING ARITHMETIC MEAN TO COMBINE L-J SIGMA PARAMETERS
Info: BINARY COORDINATES     mobley_8052240_equil.coor
Info: SUMMARY OF PARAMETERS:
Info: 8 BONDS
Info: 8 ANGLES
Info:   8 HARMONIC
Info:   0 COSINE-BASED
Info: 5 DIHEDRAL
Info: 0 IMPROPER
Info: 0 CROSSTERM
Info: 0 VDW
Info: 28 VDW_PAIRS
Info: 0 NBTHOLE_PAIRS
Info: To read alchdata from file: mobley_8052240.pdb
Info: To read alchflag data from column: 5
Info: STRUCTURE SUMMARY:
Info: 2945 ATOMS
Info: 2947 BONDS
Info: 45 ANGLES
Info: 83 DIHEDRALS
Info: 0 IMPROPERS
Info: 0 CROSSTERMS
Info: 3051 EXCLUSIONS
Info: 2928 RIGID BONDS
Info: ALCH: 0 ATOMS TO DISAPPEAR IN FINAL STATE
Info: ALCH: 26 ATOMS TO APPEAR IN FINAL STATE
Info: 5907 DEGREES OF FREEDOM
Info: 990 HYDROGEN GROUPS
Info: 3 ATOMS IN LARGEST HYDROGEN GROUP
Info: 990 MIGRATION GROUPS
Info: 3 ATOMS IN LARGEST MIGRATION GROUP
Info: TOTAL MASS = 17752.8 amu
Info: TOTAL CHARGE = 2.23517e-08 e
Info: MASS DENSITY = 0.974044 g/cm^3
Info: ATOM DENSITY = 0.0973057 atoms/A^3
Info: ADDED 0 IMPLICIT EXCLUSIONS
Info: NONBONDED TABLE R-SQUARED SPACING: 0.0625
Info: NONBONDED TABLE SIZE: 705 POINTS
Info: REMOVING COM VELOCITY -0.284273 0.164521 0.0771895
Info: Use 3D box decompostion in PME FFT.
Info: Updated CUDA force table with 4096 elements.
Info: Updated CUDA LJ table with 7 x 7 elements.
Info: Found 26 unique exclusion lists needing 84 bytes
TCL: Running for 1500000 steps
ETITLE: TS BOND ANGLE DIHED IMPRP ELECT VDW BOUNDARY MISC KINETIC TOTAL TEMP POTENTIAL TOTALAVG TEMPAVG PRESSURE GPRESSURE VOLUME PRESSAVG GPRESSAVG
ENERGY: 0 5.3781 5.4272 6.8983 0.0000 -10580.9639 1394.8895 0.0000 0.0000 1796.1500 -7372.2208 306.0314 -9168.3708 -7372.2208 306.0314 35.8387 107.6122 30265.4488 35.8387 107.6122
ENERGY: 300000 4.8658 8.1800 5.6389 0.0000 -10562.9889 1328.6480 0.0000 0.0000 1754.4103 -7461.2458 298.9197 -9215.6561 -7423.8601 299.6056 -890.2389 -887.9631 30630.6815 -235.7544 -193.1916
ENERGY: 600000 3.4993 5.0758 12.0225 0.0000 -10538.4182 1347.2102 0.0000 0.0000 1767.1936 -7403.4168 301.0978 -9170.6104 -7444.4465 299.1979 -605.6120 -440.6737 30403.4300 -321.2333 -259.0776
ENERGY: 900000 7.9316 13.7112 9.1164 0.0000 -10679.0902 1475.3875 0.0000 0.0000 1732.4543 -7440.4893 295.1788 -9172.9435 -7431.0687 299.4976 327.7920 352.5181 30513.1169 -222.7770 -160.1525
ENERGY: 1200000 6.4547 7.7514 8.9104 0.0000 -10633.3609 1431.9558 0.0000 0.0000 1674.8021 -7503.4865 285.3559 -9178.2886 -7430.5919 298.3120 -181.4988 -136.1634 30643.6790 -329.4804 -264.6656
ENERGY: 1500000 5.5965 7.3844 7.5753 0.0000 -10575.9446 1350.3833 0.0000 0.0000 1766.3817 -7438.6234 300.9594 -9205.0051 -7441.5801 298.5673 -626.1267 -545.1802 30144.1521 -333.7278 -265.2210
TCL: Running FEP window   2: Lambda1 0.95   Lambda2 0.8999999999999999 [dLambda -0.050000000000000044]
TCL: Setting parameter firsttimestep to 0
TCL: Setting parameter alchLambda to 0.95
Info: NONBONDED TABLE R-SQUARED SPACING: 0.0625
Info: NONBONDED TABLE SIZE: 705 POINTS
TCL: Setting parameter alchLambda2 to 0.8999999999999999
Info: NONBONDED TABLE R-SQUARED SPACING: 0.0625
Info: NONBONDED TABLE SIZE: 705 POINTS
TCL: Running for 1500000 steps
ETITLE: TS BOND ANGLE DIHED IMPRP ELECT VDW BOUNDARY MISC KINETIC TOTAL TEMP POTENTIAL TOTALAVG TEMPAVG PRESSURE GPRESSURE VOLUME PRESSAVG GPRESSAVG
ENERGY: 0 5.5965 7.3844 7.5753 0.0000 -10573.1270 1349.9148 0.0000 0.0000 1765.5209 -7437.1351 300.8128 -9202.6560 -7437.1351 300.8128 -655.4226 -565.4958 30144.1521 -655.4226 -565.4958
ENERGY: 300000 7.9814 11.2659 8.2594 0.0000 -10569.4505 1384.2543 0.0000 0.0000 1762.1340 -7395.5556 300.2357 -9157.6896 -7439.6697 299.8465 64.5917 175.3362 30331.6588 -581.9252 -504.5829
ENERGY: 600000 6.1427 9.0116 6.3972 0.0000 -10601.7152 1369.3192 0.0000 0.0000 1728.2438 -7482.6007 294.4614 -9210.8445 -7451.7673 299.3424 -500.8950 -398.6395 30149.2765 -305.9829 -235.2941
ENERGY: 900000 6.9398 9.0969 8.9611 0.0000 -10565.1388 1406.8547 0.0000 0.0000 1842.6556 -7290.6308 313.9551 -9133.2864 -7430.8287 301.3343 -207.8473 -140.4290 30296.1205 -186.2011 -115.2497
ENERGY: 1200000 3.8728 6.9184 6.5072 0.0000 -10603.5973 1380.1121 0.0000 0.0000 1806.9096 -7399.2772 307.8647 -9206.1869 -7435.8200 301.5809 -515.8018 -485.9678 30590.5059 -221.0685 -152.0228
ENERGY: 1500000 4.1643 13.0003 5.8253 0.0000 -10637.8534 1431.6385 0.0000 0.0000 1761.2084 -7422.0167 300.0780 -9183.2251 -7441.4015 300.8369 331.5525 434.5345 29835.4939 -147.3875 -73.3350
TCL: Running FEP window   3: Lambda1 0.8999999999999999 Lambda2 0.8499999999999999 [dLambda -0.050000000000000044]
TCL: Setting parameter firsttimestep to 0
TCL: Setting parameter alchLambda to 0.8999999999999999
Info: NONBONDED TABLE R-SQUARED SPACING: 0.0625
Info: NONBONDED TABLE SIZE: 705 POINTS
TCL: Setting parameter alchLambda2 to 0.8499999999999999
Info: NONBONDED TABLE R-SQUARED SPACING: 0.0625
Info: NONBONDED TABLE SIZE: 705 POINTS
TCL: Running for 1500000 steps
ETITLE: TS BOND ANGLE DIHED IMPRP ELECT VDW BOUNDARY MISC KINETIC TOTAL TEMP POTENTIAL TOTALAVG TEMPAVG PRESSURE GPRESSURE VOLUME PRESSAVG GPRESSAVG
ENERGY: 0 4.1643 13.0003 5.8253 0.0000 -10635.0727 1430.8550 0.0000 0.0000 1760.3315 -7420.8964 299.9286 -9181.2279 -7420.8964 299.9286 327.2769 416.3009 29835.4939 327.2769 416.3009
ENERGY: 300000 9.8569 7.6962 8.8695 0.0000 -10527.0241 1387.1895 0.0000 0.0000 1774.7286 -7338.6834 302.3816 -9113.4121 -7422.3202 299.0438 -504.2466 -484.4017 31136.2910 -130.5489 -53.2231
ENERGY: 600000 6.9456 7.2086 7.7862 0.0000 -10663.8469 1442.7480 0.0000 0.0000 1792.8535 -7406.3050 305.4698 -9199.1585 -7409.3556 300.6551 22.0084 59.4647 30000.9545 -173.3985 -101.6555
ENERGY: 900000 9.8720 7.7355 5.2018 0.0000 -10508.7799 1339.0907 0.0000 0.0000 1755.9168 -7390.9630 299.1764 -9146.8799 -7416.6618 300.3680 -472.6744 -416.3079 30426.8692 -324.7400 -254.3037
ENERGY: 1200000 4.9018 9.0472 5.2610 0.0000 -10628.0156 1411.3045 0.0000 0.0000 1792.9255 -7404.5755 305.4820 -9197.5010 -7412.4229 300.7413 -312.2050 -271.8165 30490.3061 -260.4109 -188.5729
ENERGY: 1500000 5.8407 7.8108 8.5074 0.0000 -10609.3018 1446.3877 0.0000 0.0000 1753.9701 -7386.7851 298.8447 -9140.7552 -7416.1328 300.9558 22.0192 142.8634 30434.5750 -174.9743 -99.1809
TCL: Running FEP window   4: Lambda1 0.8499999999999999 Lambda2 0.7999999999999998 [dLambda -0.050000000000000044]
TCL: Setting parameter firsttimestep to 0
TCL: Setting parameter alchLambda to 0.8499999999999999
Info: NONBONDED TABLE R-SQUARED SPACING: 0.0625
Info: NONBONDED TABLE SIZE: 705 POINTS
TCL: Setting parameter alchLambda2 to 0.7999999999999998
Info: NONBONDED TABLE R-SQUARED SPACING: 0.0625
Info: NONBONDED TABLE SIZE: 705 POINTS
TCL: Running for 1500000 steps
ETITLE: TS BOND ANGLE DIHED IMPRP ELECT VDW BOUNDARY MISC KINETIC TOTAL TEMP POTENTIAL TOTALAVG TEMPAVG PRESSURE GPRESSURE VOLUME PRESSAVG GPRESSAVG
ENERGY: 0 5.8407 7.8108 8.5074 0.0000 -10606.3221 1446.1163 0.0000 0.0000 1753.1240 -7384.9230 298.7006 -9138.0470 -7384.9230 298.7006 34.1481 129.8404 30434.5750 34.1481 129.8404
ENERGY: 300000 9.5349 17.0283 8.6933 0.0000 -10690.8405 1462.1110 0.0000 0.0000 1782.6305 -7410.8425 303.7279 -9193.4730 -7412.5804 300.7444 353.6332 398.4537 30268.9447 -89.1613 -15.4631
ENERGY: 600000 6.2918 8.1256 6.8564 0.0000 -10506.1219 1284.6592 0.0000 0.0000 1740.3894 -7459.7995 296.5308 -9200.1889 -7408.2940 301.0469 -1206.0953 -1082.5868 30153.9519 -172.9626 -100.6750
ENERGY: 900000 7.0641 8.5299 9.0414 0.0000 -10678.8633 1520.4444 0.0000 0.0000 1763.6149 -7370.1685 300.4880 -9133.7834 -7396.4041 301.0307 625.0625 752.0378 30219.9340 -114.7870 -41.9863
ENERGY: 1200000 4.3205 9.3495 7.5563 0.0000 -10755.8096 1445.4409 0.0000 0.0000 1730.5016 -7558.6407 294.8461 -9289.1423 -7414.8233 299.7703 -199.9846 -71.0971 30109.4577 -75.3363 -3.3900
ENERGY: 1500000 6.2146 7.4054 9.7461 0.0000 -10627.1340 1361.2253 0.0000 0.0000 1779.6430 -7462.8995 303.2189 -9242.5425 -7416.1096 300.3952 -422.6323 -367.6487 29935.3285 -28.9830 40.5963
TCL: Running FEP window   5: Lambda1 0.7999999999999998 Lambda2 0.7499999999999998 [dLambda -0.050000000000000044]
TCL: Setting parameter firsttimestep to 0
TCL: Setting parameter alchLambda to 0.7999999999999998
Info: NONBONDED TABLE R-SQUARED SPACING: 0.0625
Info: NONBONDED TABLE SIZE: 705 POINTS
TCL: Setting parameter alchLambda2 to 0.7499999999999998
Info: NONBONDED TABLE R-SQUARED SPACING: 0.0625
Info: NONBONDED TABLE SIZE: 705 POINTS
TCL: Running for 1500000 steps
ETITLE: TS BOND ANGLE DIHED IMPRP ELECT VDW BOUNDARY MISC KINETIC TOTAL TEMP POTENTIAL TOTALAVG TEMPAVG PRESSURE GPRESSURE VOLUME PRESSAVG GPRESSAVG
ENERGY: 0 6.2146 7.4054 9.7461 0.0000 -10623.0687 1358.9182 0.0000 0.0000 1778.7646 -7462.0197 303.0693 -9240.7844 -7462.0197 303.0693 -476.5506 -400.4687 29935.3285 -476.5506 -400.4687
ENERGY: 300000 5.7712 10.9573 10.3871 0.0000 -10612.9343 1386.1593 0.0000 0.0000 1771.9486 -7427.7108 301.9079 -9199.6594 -7446.9788 298.0276 -311.3795 -252.2030 30417.7285 -154.9467 -107.9138
ENERGY: 600000 10.6047 6.6215 9.7226 0.0000 -10662.2877 1477.7147 0.0000 0.0000 1772.1193 -7385.5049 301.9370 -9157.6242 -7432.7983 301.1162 211.3244 312.3960 30449.0972 197.0369 254.0091
ENERGY: 900000 9.9822 11.1240 8.2621 0.0000 -10604.2338 1470.5036 0.0000 0.0000 1765.7267 -7338.6351 300.8478 -9104.3618 -7417.7330 301.6827 533.5347 613.8459 30464.8613 261.2806 317.7752
ENERGY: 1200000 11.9311 9.1420 12.3135 0.0000 -10618.1638 1429.2424 0.0000 0.0000 1782.1483 -7373.3864 303.6458 -9155.5347 -7409.1110 302.0812 -178.3560 -137.4320 30446.1259 270.9408 325.4860
ENERGY: 1500000 6.8429 8.6009 13.4473 0.0000 -10672.2992 1407.7901 0.0000 0.0000 1815.4993 -7420.1188 309.3282 -9235.6181 -7406.4005 302.5187 -223.9009 -195.6540 29975.9261 234.0431 289.3807
TCL: Running FEP window   6: Lambda1 0.7499999999999998 Lambda2 0.6999999999999997 [dLambda -0.050000000000000044]
TCL: Setting parameter firsttimestep to 0
TCL: Setting parameter alchLambda to 0.7499999999999998
Info: NONBONDED TABLE R-SQUARED SPACING: 0.0625
Info: NONBONDED TABLE SIZE: 705 POINTS
TCL: Setting parameter alchLambda2 to 0.6999999999999997
Info: NONBONDED TABLE R-SQUARED SPACING: 0.0625
Info: NONBONDED TABLE SIZE: 705 POINTS
TCL: Running for 1500000 steps
ETITLE: TS BOND ANGLE DIHED IMPRP ELECT VDW BOUNDARY MISC KINETIC TOTAL TEMP POTENTIAL TOTALAVG TEMPAVG PRESSURE GPRESSURE VOLUME PRESSAVG GPRESSAVG
ENERGY: 0 6.8429 8.6009 13.4473 0.0000 -10668.6803 1408.2559 0.0000 0.0000 1814.6179 -7416.9153 309.1780 -9231.5332 -7416.9153 309.1780 -275.7462 -203.0639 29975.9261 -275.7462 -203.0639
ENERGY: 300000 6.2687 7.7133 7.3337 0.0000 -10559.3059 1400.2290 0.0000 0.0000 1760.7912 -7376.9699 300.0069 -9137.7612 -7416.2339 301.4448 -451.5551 -355.4292 30708.8089 -315.7110 -256.4483
ENERGY: 600000 6.1993 12.2038 5.2879 0.0000 -10707.3664 1465.3270 0.0000 0.0000 1735.0374 -7483.3111 295.6189 -9218.3485 -7432.8354 299.7921 343.8606 456.9017 29765.4334 -201.5157 -126.3053
ENERGY: 900000 5.8854 9.1476 10.7127 0.0000 -10722.0050 1485.9936 0.0000 0.0000 1789.4148 -7420.8510 304.8839 -9210.2657 -7433.5419 301.2246 179.1027 298.7431 30226.7233 -105.6147 -32.4797
ENERGY: 1200000 8.4413 7.0318 8.9818 0.0000 -10592.8082 1406.8414 0.0000 0.0000 1781.3419 -7380.1700 303.5084 -9161.5118 -7422.7953 302.1013 -309.7314 -238.9824 30194.9557 -69.2891 -0.9291
ENERGY: 1500000 4.5329 5.9559 12.3373 0.0000 -10613.3024 1481.5093 0.0000 0.0000 1705.3967 -7403.5703 290.5687 -9108.9670 -7415.8049 301.7087 589.5486 602.6356 30412.7802 -39.4787 23.3090
TCL: Running FEP window   7: Lambda1 0.6999999999999997 Lambda2 0.6499999999999997 [dLambda -0.050000000000000044]
TCL: Setting parameter firsttimestep to 0
TCL: Setting parameter alchLambda to 0.6999999999999997
Info: NONBONDED TABLE R-SQUARED SPACING: 0.0625
Info: NONBONDED TABLE SIZE: 705 POINTS
TCL: Setting parameter alchLambda2 to 0.6499999999999997
Info: NONBONDED TABLE R-SQUARED SPACING: 0.0625
Info: NONBONDED TABLE SIZE: 705 POINTS
TCL: Running for 1500000 steps
ETITLE: TS BOND ANGLE DIHED IMPRP ELECT VDW BOUNDARY MISC KINETIC TOTAL TEMP POTENTIAL TOTALAVG TEMPAVG PRESSURE GPRESSURE VOLUME PRESSAVG GPRESSAVG
ENERGY: 0 4.5329 5.9559 12.3373 0.0000 -10611.9625 1480.9761 0.0000 0.0000 1704.5056 -7403.6546 290.4169 -9108.1602 -7403.6546 290.4169 499.3465 586.7000 30412.7802 499.3465 586.7000
ENERGY: 300000 3.5968 6.8579 8.7228 0.0000 -10629.4073 1448.8046 0.0000 0.0000 1743.4639 -7417.9613 297.0547 -9161.4252 -7420.4396 298.0490 258.8217 400.7577 29846.1606 246.7664 327.0079
ENERGY: 600000 7.3005 8.5320 5.4589 0.0000 -10662.1423 1457.4659 0.0000 0.0000 1725.4387 -7457.9464 293.9835 -9183.3851 -7433.2058 298.1132 210.1723 233.4662 30492.1167 127.4710 190.1793
ENERGY: 900000 5.4832 7.2691 9.8132 0.0000 -10705.8047 1473.1064 0.0000 0.0000 1777.8969 -7432.2359 302.9214 -9210.1328 -7432.3209 297.8013 601.3722 580.3105 29856.9504 138.1017 191.9037
ENERGY: 1200000 6.5798 10.2398 4.5472 0.0000 -10720.6856 1435.7919 0.0000 0.0000 1771.8116 -7491.7154 301.8846 -9263.5270 -7433.0757 298.4587 -292.6627 -224.0849 30283.2778 82.8552 141.5956
ENERGY: 1500000 8.9309 6.7468 10.8028 0.0000 -10722.4816 1468.2289 0.0000 0.0000 1721.7829 -7505.9894 293.3606 -9227.7722 -7443.4687 298.2850 182.5248 285.8059 30234.8317 68.4902 125.2903
TCL: Running FEP window   8: Lambda1 0.6499999999999997 Lambda2 0.5999999999999996 [dLambda -0.050000000000000044]
TCL: Setting parameter firsttimestep to 0
TCL: Setting parameter alchLambda to 0.6499999999999997
Info: NONBONDED TABLE R-SQUARED SPACING: 0.0625
Info: NONBONDED TABLE SIZE: 705 POINTS
TCL: Setting parameter alchLambda2 to 0.5999999999999996
Info: NONBONDED TABLE R-SQUARED SPACING: 0.0625
Info: NONBONDED TABLE SIZE: 705 POINTS
TCL: Running for 1500000 steps
ETITLE: TS BOND ANGLE DIHED IMPRP ELECT VDW BOUNDARY MISC KINETIC TOTAL TEMP POTENTIAL TOTALAVG TEMPAVG PRESSURE GPRESSURE VOLUME PRESSAVG GPRESSAVG
ENERGY: 0 8.9309 6.7468 10.8028 0.0000 -10721.2116 1468.8186 0.0000 0.0000 1720.8847 -7505.0278 293.2076 -9225.9125 -7505.0278 293.2076 197.2569 278.0715 30234.8317 197.2569 278.0715
ENERGY: 300000 7.9327 7.1046 8.5018 0.0000 -10588.4719 1423.8548 0.0000 0.0000 1714.1308 -7426.9471 292.0568 -9141.0779 -7392.0840 299.2991 -13.6555 21.8151 30168.0150 59.0099 114.7997
ENERGY: 600000 6.2120 6.6277 5.5538 0.0000 -10633.4273 1435.2054 0.0000 0.0000 1764.1463 -7415.6821 300.5786 -9179.8284 -7413.7860 299.7661 -52.4397 32.3953 30104.9400 -87.6803 -29.8762
ENERGY: 900000 6.5331 8.3261 9.7127 0.0000 -10702.8204 1549.9161 0.0000 0.0000 1775.9203 -7352.4121 302.5846 -9128.3324 -7404.5809 300.8164 1351.7759 1385.9779 29965.6416 77.3698 133.1291
ENERGY: 1200000 6.4015 5.3112 9.8340 0.0000 -10587.2441 1361.2993 0.0000 0.0000 1705.7977 -7498.6004 290.6370 -9204.3981 -7419.1474 299.8760 -782.0780 -765.0267 30587.2964 -55.8093 -5.8838
ENERGY: 1500000 12.7910 10.9805 5.2446 0.0000 -10622.3195 1420.8265 0.0000 0.0000 1791.3028 -7381.1743 305.2055 -9172.4770 -7409.4661 299.9654 -203.7317 -105.3019 30153.2180 -24.2719 30.2358
TCL: Running FEP window   9: Lambda1 0.5999999999999996 Lambda2 0.5499999999999996 [dLambda -0.050000000000000044]
TCL: Setting parameter firsttimestep to 0
TCL: Setting parameter alchLambda to 0.5999999999999996
Info: NONBONDED TABLE R-SQUARED SPACING: 0.0625
Info: NONBONDED TABLE SIZE: 705 POINTS
TCL: Setting parameter alchLambda2 to 0.5499999999999996
Info: NONBONDED TABLE R-SQUARED SPACING: 0.0625
Info: NONBONDED TABLE SIZE: 705 POINTS
TCL: Running for 1500000 steps
ETITLE: TS BOND ANGLE DIHED IMPRP ELECT VDW BOUNDARY MISC KINETIC TOTAL TEMP POTENTIAL TOTALAVG TEMPAVG PRESSURE GPRESSURE VOLUME PRESSAVG GPRESSAVG
ENERGY: 0 12.7909 10.9805 5.2446 0.0000 -10620.8510 1421.0480 0.0000 0.0000 1790.4541 -7380.3330 305.0609 -9170.7871 -7380.3330 305.0609 -203.7436 -109.6444 30153.2180 -203.7436 -109.6444
ENERGY: 300000 9.4161 5.3789 9.7637 0.0000 -10467.1960 1322.2127 0.0000 0.0000 1760.2955 -7360.1290 299.9225 -9120.4245 -7342.7598 302.1147 -809.6470 -664.9419 30242.4168 -452.8531 -356.0203
ENERGY: 600000 6.3289 7.6673 7.4927 0.0000 -10633.9511 1435.9796 0.0000 0.0000 1756.7575 -7419.7251 299.3197 -9176.4826 -7376.7064 301.0208 -135.4254 -60.9052 30279.5795 -379.6232 -310.7139
ENERGY: 900000 6.4062 7.6923 5.4198 0.0000 -10817.1151 1566.6887 0.0000 0.0000 1735.4285 -7495.4796 295.6856 -9230.9081 -7406.3018 299.7458 1310.6482 1348.1066 29977.3430 -99.8193 -31.9188
ENERGY: 1200000 6.1924 7.1887 3.5440 0.0000 -10684.5743 1440.4618 0.0000 0.0000 1769.0234 -7458.1641 301.4095 -9227.1874 -7412.2763 300.4810 232.0676 270.6320 29807.0467 -81.4709 -22.7606
ENERGY: 1500000 9.1623 5.7860 6.0114 0.0000 -10621.1559 1394.3969 0.0000 0.0000 1761.9874 -7443.8118 300.2107 -9205.7992 -7412.0667 300.3490 -540.9720 -453.9152 30372.8068 -141.9603 -81.2758
TCL: Running FEP window  10: Lambda1 0.5499999999999996 Lambda2 0.4999999999999996 [dLambda -0.04999999999999999]
TCL: Setting parameter firsttimestep to 0
TCL: Setting parameter alchLambda to 0.5499999999999996
Info: NONBONDED TABLE R-SQUARED SPACING: 0.0625
Info: NONBONDED TABLE SIZE: 705 POINTS
TCL: Setting parameter alchLambda2 to 0.4999999999999996
Info: NONBONDED TABLE R-SQUARED SPACING: 0.0625
Info: NONBONDED TABLE SIZE: 705 POINTS
TCL: Running for 1500000 steps
ETITLE: TS BOND ANGLE DIHED IMPRP ELECT VDW BOUNDARY MISC KINETIC TOTAL TEMP POTENTIAL TOTALAVG TEMPAVG PRESSURE GPRESSURE VOLUME PRESSAVG GPRESSAVG
ENERGY: 0 9.1623 5.7860 6.0114 0.0000 -10619.8458 1395.2260 0.0000 0.0000 1761.1214 -7442.5385 300.0632 -9203.6600 -7442.5385 300.0632 -555.3364 -459.5596 30372.8068 -555.3364 -459.5596
ENERGY: 300000 4.6364 8.1185 6.6168 0.0000 -10583.0922 1408.5104 0.0000 0.0000 1726.3887 -7428.8213 294.1454 -9155.2101 -7432.3135 299.9293 -421.2281 -366.1854 30417.2834 -202.1917 -128.1500
ENERGY: 600000 6.4739 4.9562 11.2950 0.0000 -10636.9165 1429.4175 0.0000 0.0000 1733.6595 -7451.1143 295.3842 -9184.7738 -7425.7792 299.8177 -73.2386 9.8626 30207.2228 -85.2144 -19.7892
ENERGY: 900000 5.5557 7.4869 7.9568 0.0000 -10750.5489 1573.7885 0.0000 0.0000 1770.9003 -7384.8605 301.7293 -9155.7609 -7423.0879 299.3567 1444.6421 1478.9285 29724.4514 101.6522 165.8256
ENERGY: 1200000 8.9466 7.6609 6.7906 0.0000 -10761.1075 1552.4364 0.0000 0.0000 1774.7837 -7410.4894 302.3910 -9185.2731 -7423.2080 299.4979 605.4546 672.0212 30550.8744 99.3106 165.7375
ENERGY: 1500000 6.3808 7.1266 5.5384 0.0000 -10490.0623 1310.3488 0.0000 0.0000 1755.6008 -7405.0668 299.1226 -9160.6676 -7425.5636 299.4439 -1267.0223 -1210.6204 30629.5378 -127.8750 -64.2138
TCL: Running FEP window  11: Lambda1 0.4999999999999996 Lambda2 0.4499999999999996 [dLambda -0.04999999999999999]
TCL: Setting parameter firsttimestep to 0
TCL: Setting parameter alchLambda to 0.4999999999999996
Info: NONBONDED TABLE R-SQUARED SPACING: 0.0625
Info: NONBONDED TABLE SIZE: 705 POINTS
TCL: Setting parameter alchLambda2 to 0.4499999999999996
Info: NONBONDED TABLE R-SQUARED SPACING: 0.0625
Info: NONBONDED TABLE SIZE: 705 POINTS
TCL: Running for 1500000 steps
ETITLE: TS BOND ANGLE DIHED IMPRP ELECT VDW BOUNDARY MISC KINETIC TOTAL TEMP POTENTIAL TOTALAVG TEMPAVG PRESSURE GPRESSURE VOLUME PRESSAVG GPRESSAVG
ENERGY: 0 6.3808 7.1266 5.5384 0.0000 -10489.3840 1310.8102 0.0000 0.0000 1754.7309 -7404.7971 298.9744 -9159.5280 -7404.7971 298.9744 -1293.1119 -1218.4650 30629.5378 -1293.1119 -1218.4650
ENERGY: 300000 7.3918 7.0870 7.4678 0.0000 -10547.4519 1401.8305 0.0000 0.0000 1764.5215 -7359.1533 300.6425 -9123.6747 -7421.9334 298.3316 -161.0692 -61.3867 30178.3252 -432.1985 -360.5996
ENERGY: 600000 10.0767 7.5104 9.8436 0.0000 -10664.7802 1435.3895 0.0000 0.0000 1726.4485 -7475.5114 294.1555 -9201.9599 -7413.5664 299.8128 -143.7173 -94.3501 30388.4388 -400.5844 -326.2512
ENERGY: 900000 4.1244 5.7099 4.3700 0.0000 -10680.9347 1462.3280 0.0000 0.0000 1743.8116 -7460.5907 297.1139 -9204.4023 -7420.4282 299.7134 51.2462 124.7888 30388.2980 -337.0601 -256.5311
ENERGY: 1200000 6.5289 8.3362 6.6928 0.0000 -10633.9360 1448.8530 0.0000 0.0000 1757.9191 -7405.6060 299.5176 -9163.5251 -7407.9299 300.8889 113.0048 211.6651 30006.2475 -182.4083 -102.2071
ENERGY: 1500000 4.5983 5.1760 7.0405 0.0000 -10600.0393 1452.5937 0.0000 0.0000 1768.5047 -7362.1261 301.3212 -9130.6308 -7407.3053 300.8873 491.3060 626.0877 29687.8647 -85.9402 -7.4139
TCL: Running FEP window  12: Lambda1 0.4499999999999996 Lambda2 0.39999999999999963 [dLambda -0.04999999999999999]
TCL: Setting parameter firsttimestep to 0
TCL: Setting parameter alchLambda to 0.4499999999999996
Info: NONBONDED TABLE R-SQUARED SPACING: 0.0625
Info: NONBONDED TABLE SIZE: 705 POINTS
TCL: Setting parameter alchLambda2 to 0.39999999999999963
Info: NONBONDED TABLE R-SQUARED SPACING: 0.0625
Info: NONBONDED TABLE SIZE: 705 POINTS
TCL: Running for 1500000 steps
ETITLE: TS BOND ANGLE DIHED IMPRP ELECT VDW BOUNDARY MISC KINETIC TOTAL TEMP POTENTIAL TOTALAVG TEMPAVG PRESSURE GPRESSURE VOLUME PRESSAVG GPRESSAVG
ENERGY: 0 4.5983 5.1760 7.0405 0.0000 -10600.0390 1453.2503 0.0000 0.0000 1767.6582 -7362.3157 301.1769 -9129.9739 -7362.3157 301.1769 538.7492 624.5542 29687.8647 538.7492 624.5542
ENERGY: 300000 7.8091 8.7913 7.7455 0.0000 -10770.2874 1499.7421 0.0000 0.0000 1794.2712 -7451.9282 305.7113 -9246.1994 -7433.5271 300.8853 443.1840 472.6351 29737.4946 153.2215 180.4634
ENERGY: 600000 8.9849 10.5669 7.7041 0.0000 -10485.7498 1334.6966 0.0000 0.0000 1705.3980 -7418.3993 290.5689 -9123.7973 -7418.7195 299.2515 -1049.0070 -956.7446 30346.3751 97.4710 147.9339
ENERGY: 900000 9.7895 5.8767 2.9875 0.0000 -10515.3328 1392.1757 0.0000 0.0000 1794.8926 -7309.6108 305.8172 -9104.5034 -7401.8064 300.2620 -350.7296 -339.4233 30888.6694 65.3208 110.4532
ENERGY: 1200000 8.5850 5.7627 8.5062 0.0000 -10782.4528 1487.2927 0.0000 0.0000 1736.0280 -7536.2782 295.7877 -9272.3062 -7408.0788 300.0619 -189.0684 -174.0520 30198.2989 40.4300 79.4844
ENERGY: 1500000 8.0071 4.0373 5.4977 0.0000 -10677.1017 1446.8026 0.0000 0.0000 1771.6050 -7441.1521 301.8494 -9212.7571 -7404.8850 300.0644 -265.1025 -173.5374 30429.3256 -5.8842 38.7621
TCL: Running FEP window  13: Lambda1 0.39999999999999963 Lambda2 0.34999999999999964 [dLambda -0.04999999999999999]
TCL: Setting parameter firsttimestep to 0
TCL: Setting parameter alchLambda to 0.39999999999999963
Info: NONBONDED TABLE R-SQUARED SPACING: 0.0625
Info: NONBONDED TABLE SIZE: 705 POINTS
TCL: Setting parameter alchLambda2 to 0.34999999999999964
Info: NONBONDED TABLE R-SQUARED SPACING: 0.0625
Info: NONBONDED TABLE SIZE: 705 POINTS
TCL: Running for 1500000 steps
ETITLE: TS BOND ANGLE DIHED IMPRP ELECT VDW BOUNDARY MISC KINETIC TOTAL TEMP POTENTIAL TOTALAVG TEMPAVG PRESSURE GPRESSURE VOLUME PRESSAVG GPRESSAVG
ENERGY: 0 8.0071 4.0373 5.4977 0.0000 -10677.1016 1446.8195 0.0000 0.0000 1770.7245 -7442.0155 301.6994 -9212.7400 -7442.0155 301.6994 -259.2055 -178.4525 30429.3256 -259.2055 -178.4525
ENERGY: 300000 8.2917 6.8285 10.3599 0.0000 -10643.4152 1427.6059 0.0000 0.0000 1812.5251 -7377.8041 308.8214 -9190.3292 -7434.3028 299.9331 -470.8364 -375.8520 30647.7893 -171.8248 -104.4291
ENERGY: 600000 5.4763 7.5760 6.8859 0.0000 -10617.2584 1409.7439 0.0000 0.0000 1734.1147 -7453.4616 295.4617 -9187.5763 -7440.3406 300.5174 -422.9189 -295.9804 30134.3120 -167.0406 -94.1164
ENERGY: 900000 4.0989 10.8072 9.9573 0.0000 -10641.0862 1437.3772 0.0000 0.0000 1783.8647 -7394.9808 303.9382 -9178.8455 -7419.9986 302.3472 -167.6525 -172.4969 30620.4107 -167.5388 -108.2610
ENERGY: 1200000 10.7811 7.8604 7.6825 0.0000 -10509.4682 1354.7866 0.0000 0.0000 1726.0500 -7402.3076 294.0876 -9128.3576 -7415.3877 302.7529 -898.1211 -760.7106 30687.6280 -187.1445 -124.3511
ENERGY: 1500000 4.8123 9.6174 9.5392 0.0000 -10707.3837 1490.2424 0.0000 0.0000 1746.4069 -7446.7655 297.5561 -9193.1724 -7418.2061 302.4693 238.1849 310.4781 30360.3428 -68.4478 -6.7595
TCL: Running FEP window  14: Lambda1 0.34999999999999964 Lambda2 0.29999999999999966 [dLambda -0.04999999999999999]
TCL: Setting parameter firsttimestep to 0
TCL: Setting parameter alchLambda to 0.34999999999999964
Info: NONBONDED TABLE R-SQUARED SPACING: 0.0625
Info: NONBONDED TABLE SIZE: 705 POINTS
TCL: Setting parameter alchLambda2 to 0.29999999999999966
Info: NONBONDED TABLE R-SQUARED SPACING: 0.0625
Info: NONBONDED TABLE SIZE: 705 POINTS
TCL: Running for 1500000 steps
ETITLE: TS BOND ANGLE DIHED IMPRP ELECT VDW BOUNDARY MISC KINETIC TOTAL TEMP POTENTIAL TOTALAVG TEMPAVG PRESSURE GPRESSURE VOLUME PRESSAVG GPRESSAVG
ENERGY: 0 4.8123 9.6174 9.5392 0.0000 -10707.3836 1491.0972 0.0000 0.0000 1745.5775 -7446.7400 297.4148 -9192.3174 -7446.7400 297.4148 224.5831 309.1418 30360.3428 224.5831 309.1418
ENERGY: 300000 5.0190 5.7106 5.3794 0.0000 -10503.9389 1428.2102 0.0000 0.0000 1719.9783 -7339.6413 293.0531 -9059.6196 -7402.0184 295.2338 739.9471 746.3520 29803.9997 207.2987 259.2857
ENERGY: 600000 10.7482 4.4618 5.4241 0.0000 -10641.8246 1454.7088 0.0000 0.0000 1720.3466 -7446.1352 293.1159 -9166.4818 -7401.1843 297.8555 102.1710 151.2384 29986.1221 108.0931 166.1323
ENERGY: 900000 4.7500 11.2127 6.6076 0.0000 -10507.9566 1357.8864 0.0000 0.0000 1825.8977 -7301.6022 311.0999 -9127.4999 -7402.5572 299.1641 -670.1089 -612.8020 30790.2369 57.5646 109.3534
ENERGY: 1200000 11.1990 7.5353 6.8863 0.0000 -10645.6144 1428.4318 0.0000 0.0000 1777.2773 -7414.2847 302.8159 -9191.5620 -7405.0408 298.9977 -197.8438 -108.0908 30264.5175 -18.6889 50.9164
ENERGY: 1500000 5.9456 4.3957 7.4324 0.0000 -10559.5722 1404.0803 0.0000 0.0000 1815.7640 -7321.9543 309.3733 -9137.7183 -7401.9724 299.9578 -145.2129 -22.5772 30469.6728 -20.4624 56.3028
TCL: Running FEP window  15: Lambda1 0.29999999999999966 Lambda2 0.24999999999999967 [dLambda -0.04999999999999999]
TCL: Setting parameter firsttimestep to 0
TCL: Setting parameter alchLambda to 0.29999999999999966
Info: NONBONDED TABLE R-SQUARED SPACING: 0.0625
Info: NONBONDED TABLE SIZE: 705 POINTS
TCL: Setting parameter alchLambda2 to 0.24999999999999967
Info: NONBONDED TABLE R-SQUARED SPACING: 0.0625
Info: NONBONDED TABLE SIZE: 705 POINTS
TCL: Running for 1500000 steps
ETITLE: TS BOND ANGLE DIHED IMPRP ELECT VDW BOUNDARY MISC KINETIC TOTAL TEMP POTENTIAL TOTALAVG TEMPAVG PRESSURE GPRESSURE VOLUME PRESSAVG GPRESSAVG
ENERGY: 0 5.9456 4.3957 7.4324 0.0000 -10559.5722 1404.8022 0.0000 0.0000 1814.8847 -7322.1117 309.2235 -9136.9964 -7322.1117 309.2235 -117.3331 -25.0061 30469.6728 -117.3331 -25.0061
ENERGY: 300000 4.6923 8.1948 11.8210 0.0000 -10609.7573 1411.7513 0.0000 0.0000 1743.7740 -7429.5240 297.1075 -9173.2980 -7383.9427 302.7063 -113.2868 -24.9585 30280.1959 -355.1040 -269.3862
ENERGY: 600000 11.4581 7.8588 6.3501 0.0000 -10766.3719 1537.2926 0.0000 0.0000 1734.3587 -7469.0535 295.5033 -9203.4122 -7410.3380 299.3724 602.8543 658.3124 29930.4628 -72.5376 -1.4987
ENERGY: 900000 8.4598 4.9561 7.7929 0.0000 -10580.0310 1426.6366 0.0000 0.0000 1762.7525 -7369.4331 300.3411 -9132.1856 -7412.8689 298.7504 -189.6656 -105.8051 30308.2860 -160.6164 -87.6709
ENERGY: 1200000 8.4087 7.1779 5.3970 0.0000 -10581.2950 1434.3584 0.0000 0.0000 1763.9117 -7362.0413 300.5386 -9125.9530 -7410.9100 298.7796 323.4778 428.7112 30068.4918 -19.1890 44.8441
ENERGY: 1500000 10.4375 6.4135 10.8270 0.0000 -10553.6465 1458.8846 0.0000 0.0000 1706.9870 -7360.0969 290.8397 -9067.0839 -7414.0733 298.6905 -55.0016 -37.5559 30757.6034 -19.0060 49.0084
TCL: Running FEP window  16: Lambda1 0.24999999999999967 Lambda2 0.19999999999999968 [dLambda -0.04999999999999999]
TCL: Setting parameter firsttimestep to 0
TCL: Setting parameter alchLambda to 0.24999999999999967
Info: NONBONDED TABLE R-SQUARED SPACING: 0.0625
Info: NONBONDED TABLE SIZE: 705 POINTS
TCL: Setting parameter alchLambda2 to 0.19999999999999968
Info: NONBONDED TABLE R-SQUARED SPACING: 0.0625
Info: NONBONDED TABLE SIZE: 705 POINTS
TCL: Running for 1500000 steps
ETITLE: TS BOND ANGLE DIHED IMPRP ELECT VDW BOUNDARY MISC KINETIC TOTAL TEMP POTENTIAL TOTALAVG TEMPAVG PRESSURE GPRESSURE VOLUME PRESSAVG GPRESSAVG
ENERGY: 0 10.4375 6.4135 10.8270 0.0000 -10553.6458 1459.3945 0.0000 0.0000 1706.0828 -7360.4904 290.6856 -9066.5733 -7360.4904 290.6856 -129.4179 -42.6338 30757.6034 -129.4179 -42.6338
ENERGY: 300000 9.7407 8.4979 10.8662 0.0000 -10594.4419 1387.4491 0.0000 0.0000 1759.8421 -7418.0458 299.8452 -9177.8879 -7366.2692 297.5604 -278.6873 -192.0857 30046.3671 -81.3137 0.2230
ENERGY: 600000 4.9378 9.0231 8.8808 0.0000 -10388.7141 1324.1037 0.0000 0.0000 1791.0886 -7250.6801 305.1691 -9041.7687 -7361.7555 299.8491 -773.4440 -654.8647 30993.8094 -265.8096 -185.0109
ENERGY: 900000 6.8769 7.7220 10.2671 0.0000 -10542.2693 1441.0339 0.0000 0.0000 1784.8220 -7291.5475 304.1013 -9076.3695 -7350.7450 301.8111 364.3944 386.6401 30102.1833 -94.9266 -22.3768
ENERGY: 1200000 5.6348 8.5377 5.1754 0.0000 -10623.5161 1451.2047 0.0000 0.0000 1771.0487 -7381.9148 301.7546 -9152.9635 -7361.7375 301.3879 174.8250 282.1348 30294.2173 -11.8099 59.4344
ENERGY: 1500000 5.4057 8.1307 4.4980 0.0000 -10675.3168 1470.6818 0.0000 0.0000 1719.8695 -7466.7310 293.0346 -9186.6005 -7378.8652 300.7203 47.7197 111.3767 30075.6492 -15.9011 54.0835
TCL: Running FEP window  17: Lambda1 0.19999999999999968 Lambda2 0.1499999999999997 [dLambda -0.04999999999999999]
TCL: Setting parameter firsttimestep to 0
TCL: Setting parameter alchLambda to 0.19999999999999968
Info: NONBONDED TABLE R-SQUARED SPACING: 0.0625
Info: NONBONDED TABLE SIZE: 705 POINTS
TCL: Setting parameter alchLambda2 to 0.1499999999999997
Info: NONBONDED TABLE R-SQUARED SPACING: 0.0625
Info: NONBONDED TABLE SIZE: 705 POINTS
TCL: Running for 1500000 steps
ETITLE: TS BOND ANGLE DIHED IMPRP ELECT VDW BOUNDARY MISC KINETIC TOTAL TEMP POTENTIAL TOTALAVG TEMPAVG PRESSURE GPRESSURE VOLUME PRESSAVG GPRESSAVG
ENERGY: 0 5.4057 8.1307 4.4980 0.0000 -10675.3168 1471.3983 0.0000 0.0000 1718.9833 -7466.9007 292.8836 -9185.8841 -7466.9007 292.8836 22.8569 111.2743 30075.6492 22.8569 111.2743
ENERGY: 300000 7.4731 5.4536 8.2836 0.0000 -10523.6611 1411.1600 0.0000 0.0000 1803.5966 -7287.6941 307.3002 -9091.2907 -7413.7020 301.3633 -12.7621 69.4160 30088.1010 23.8056 107.8968
ENERGY: 600000 5.2167 12.8258 10.0520 0.0000 -10591.8744 1408.9207 0.0000 0.0000 1755.9573 -7398.9019 299.1833 -9154.8591 -7415.5668 300.9140 -91.2089 -60.1368 30055.0813 77.3628 157.3995
ENERGY: 900000 4.5587 8.8041 5.4229 0.0000 -10490.8040 1304.5637 0.0000 0.0000 1782.3813 -7385.0733 303.6855 -9167.4546 -7408.8525 300.9355 -1038.7715 -976.5326 30119.9921 -105.9815 -31.7383
ENERGY: 1200000 6.1338 4.9774 7.4727 0.0000 -10792.9429 1505.3154 0.0000 0.0000 1723.9086 -7545.1350 293.7228 -9269.0436 -7416.9712 301.2612 245.5603 275.8080 30023.7468 -80.1179 -18.1089
ENERGY: 1500000 7.5910 5.4850 10.2155 0.0000 -10550.1515 1383.1643 0.0000 0.0000 1736.8695 -7406.8261 295.9311 -9143.6957 -7419.0760 300.5764 -532.9281 -564.5522 30371.8408 -150.0456 -87.9624
TCL: Running FEP window  18: Lambda1 0.1499999999999997 Lambda2 0.09999999999999969 [dLambda -0.05 ]
TCL: Setting parameter firsttimestep to 0
TCL: Setting parameter alchLambda to 0.1499999999999997
Info: NONBONDED TABLE R-SQUARED SPACING: 0.0625
Info: NONBONDED TABLE SIZE: 705 POINTS
TCL: Setting parameter alchLambda2 to 0.09999999999999969
Info: NONBONDED TABLE R-SQUARED SPACING: 0.0625
Info: NONBONDED TABLE SIZE: 705 POINTS
TCL: Running for 1500000 steps
ETITLE: TS BOND ANGLE DIHED IMPRP ELECT VDW BOUNDARY MISC KINETIC TOTAL TEMP POTENTIAL TOTALAVG TEMPAVG PRESSURE GPRESSURE VOLUME PRESSAVG GPRESSAVG
ENERGY: 0 7.5910 5.4850 10.2155 0.0000 -10550.1515 1383.3020 0.0000 0.0000 1736.0328 -7407.5252 295.7885 -9143.5580 -7407.5252 295.7885 -649.7067 -569.4054 30371.8408 -649.7067 -569.4054
ENERGY: 300000 9.2355 7.6889 9.8332 0.0000 -10702.2408 1466.2547 0.0000 0.0000 1695.3025 -7513.9261 288.8488 -9209.2286 -7454.0457 297.5622 154.4028 177.7550 29916.3251 -6.6161 63.9398
ENERGY: 600000 3.7251 6.8664 6.3595 0.0000 -10668.9147 1448.6312 0.0000 0.0000 1712.7442 -7490.5883 291.8206 -9203.3325 -7439.0317 297.8633 158.1173 237.5500 30078.1410 -104.1095 -39.0777
ENERGY: 900000 9.6369 12.5689 6.4594 0.0000 -10694.1300 1473.4034 0.0000 0.0000 1715.6063 -7476.4550 292.3082 -9192.0613 -7432.5378 297.0877 43.1203 134.1357 29666.5041 -86.1603 -20.0451
ENERGY: 1200000 5.3360 5.2498 10.9249 0.0000 -10814.4701 1602.7198 0.0000 0.0000 1805.2420 -7384.9976 307.5805 -9190.2396 -7431.9104 297.1285 1281.9684 1335.4683 30049.2922 29.6682 90.3705
ENERGY: 1500000 6.0366 10.3886 6.1605 0.0000 -10806.9915 1614.8383 0.0000 0.0000 1743.6661 -7425.9013 297.0891 -9169.5674 -7429.9934 297.6010 1441.7934 1455.8712 29939.9423 57.2634 116.4559
TCL: Running FEP window  19: Lambda1 0.09999999999999969 Lambda2 0.049999999999999684 [dLambda -0.05 ]
TCL: Setting parameter firsttimestep to 0
TCL: Setting parameter alchLambda to 0.09999999999999969
Info: NONBONDED TABLE R-SQUARED SPACING: 0.0625
Info: NONBONDED TABLE SIZE: 705 POINTS
TCL: Setting parameter alchLambda2 to 0.049999999999999684
Info: NONBONDED TABLE R-SQUARED SPACING: 0.0625
Info: NONBONDED TABLE SIZE: 705 POINTS
TCL: Running for 1500000 steps
ETITLE: TS BOND ANGLE DIHED IMPRP ELECT VDW BOUNDARY MISC KINETIC TOTAL TEMP POTENTIAL TOTALAVG TEMPAVG PRESSURE GPRESSURE VOLUME PRESSAVG GPRESSAVG
ENERGY: 0 6.0366 10.3886 6.1605 0.0000 -10806.9910 1615.5556 0.0000 0.0000 1742.7891 -7426.0606 296.9397 -9168.8496 -7426.0606 296.9397 1370.0313 1454.6580 29939.9423 1370.0313 1454.6580
ENERGY: 300000 7.1988 6.3844 9.0770 0.0000 -10644.8914 1435.4420 0.0000 0.0000 1782.9487 -7403.8405 303.7822 -9186.7892 -7420.7935 298.7916 -291.5318 -245.4274 30385.6923 270.5319 318.9534
ENERGY: 600000 7.5971 12.1621 8.3119 0.0000 -10531.4979 1397.1293 0.0000 0.0000 1717.1067 -7389.1906 292.5639 -9106.2973 -7419.5995 297.8379 -544.5322 -497.5381 30511.2342 -117.3374 -74.1072
ENERGY: 900000 9.7584 7.0124 7.7172 0.0000 -10635.3589 1470.1137 0.0000 0.0000 1789.3254 -7351.4319 304.8686 -9140.7572 -7407.5230 300.1940 449.6797 498.0272 30301.4251 -52.2530 -1.5792
ENERGY: 1200000 5.9644 10.3523 8.1819 0.0000 -10740.6428 1512.2127 0.0000 0.0000 1751.6854 -7452.2461 298.4555 -9203.9315 -7419.3249 300.0754 457.6530 527.3615 30017.7629 -111.6748 -51.1392
ENERGY: 1500000 4.5712 10.2774 9.3103 0.0000 -10641.2458 1464.1083 0.0000 0.0000 1805.0707 -7347.9079 307.5513 -9152.9786 -7423.2912 300.7180 152.1753 185.2672 30270.6562 -59.1175 -2.7305
TCL: Running FEP window  20: Lambda1 0.049999999999999684 Lambda2 0.0    [dLambda -0.049999999999999684]
TCL: Setting parameter firsttimestep to 0
TCL: Setting parameter alchLambda to 0.049999999999999684
Info: NONBONDED TABLE R-SQUARED SPACING: 0.0625
Info: NONBONDED TABLE SIZE: 705 POINTS
TCL: Setting parameter alchLambda2 to 0.0
Info: NONBONDED TABLE R-SQUARED SPACING: 0.0625
Info: NONBONDED TABLE SIZE: 705 POINTS
TCL: Running for 1500000 steps
ETITLE: TS BOND ANGLE DIHED IMPRP ELECT VDW BOUNDARY MISC KINETIC TOTAL TEMP POTENTIAL TOTALAVG TEMPAVG PRESSURE GPRESSURE VOLUME PRESSAVG GPRESSAVG
ENERGY: 0 4.5712 10.2773 9.3103 0.0000 -10641.2459 1463.0740 0.0000 0.0000 1804.1973 -7349.8158 307.4025 -9154.0131 -7349.8158 307.4025 91.5039 178.1686 30270.6562 91.5039 178.1686
ENERGY: 300000 4.3349 8.0954 3.9888 0.0000 -10747.6410 1478.9701 0.0000 0.0000 1740.1451 -7512.1068 296.4892 -9252.2519 -7399.9239 301.6745 -30.7073 -41.4595 30119.5251 -158.0533 -95.6132
ENERGY: 600000 4.7250 6.6844 8.4280 0.0000 -10760.2842 1574.0446 0.0000 0.0000 1795.9159 -7370.4862 305.9915 -9166.4021 -7413.6783 300.4020 846.6822 966.0908 30160.2444 119.3480 194.9742
ENERGY: 900000 6.6239 6.1607 5.9190 0.0000 -10650.2458 1485.8171 0.0000 0.0000 1810.2563 -7335.4688 308.4349 -9145.7251 -7387.3929 302.1861 347.1075 397.6774 30376.1590 162.0361 228.8926
ENERGY: 1200000 5.7841 5.2267 4.8676 0.0000 -10732.6810 1500.9745 0.0000 0.0000 1755.2876 -7460.5405 299.0692 -9215.8281 -7388.2503 302.6765 209.0536 291.1244 30229.9931 163.2410 229.7800
ENERGY: 1500000 4.2362 8.1026 5.4001 0.0000 -10731.9222 1477.4044 0.0000 0.0000 1764.3001 -7472.4789 300.6048 -9236.7790 -7393.5871 302.6188 282.9021 365.0963 29856.8509 185.5375 252.2547
TCL: Exiting due to exit command.
