Info: SIMULATION PARAMETERS:
Info: TIMESTEP               2
Info: NUMBER OF STEPS        0
Info: STEPS PER CYCLE        10
Info: PERIODIC CELL BASIS 1  32.3911 0 0
Info: PERIODIC CELL BASIS 2  0 32.5416 0
Info: PERIODIC CELL BASIS 3  0 0 29.346
Info: PERIODIC CELL CENTER   0 0 0
Info: WRAPPING WATERS AROUND PERIODIC BOUNDARIES ON OUTPUT.
Info: WRAPPING ALL CLUSTERS AROUND PERIODIC BOUNDARIES ON OUTPUT.
Info: FIRST LDB TIMESTEP     50
Info: LAST LDB TIMESTEP     -1
Info: HOM BACKGROUND SCALING 1
Info: PME BACKGROUND SCALING 1
Info: MIN ATOMS PER PATCH    40
Info: EMPTY PATCH LOAD       40 ATOMS
Info: VELOCITY FILE          mobley_3843583_equil.vel
Info: CENTER OF MASS MOVING INITIALLY? NO
Info: DIELECTRIC             1
Info: EXCLUDE                SCALED ONE-FOUR
Info: 1-4 ELECTROSTATICS SCALED BY 0.833333
Info: MODIFIED 1-4 VDW PARAMETERS WILL BE USED
Info: DCD FILENAME           mobley_3843583_prod.dcd
Info: DCD FREQUENCY          100000
Info: DCD FIRST STEP         100000
Info: DCD FILE WILL CONTAIN UNIT CELL DATA
Info: XST FILENAME           mobley_3843583_prod.xst
Info: XST FREQUENCY          100000
Info: NO VELOCITY DCD OUTPUT
Info: NO FORCE DCD OUTPUT
Info: OUTPUT FILENAME        mobley_3843583_prod
Info: BINARY OUTPUT FILES WILL BE USED
Info: RESTART FILENAME       mobley_3843583_prod.restart
Info: RESTART FREQUENCY      100000
Info: BINARY RESTART FILES WILL BE USED
Info: CUTOFF                 9
Info: PAIRLIST DISTANCE      11
Info: PAIRLIST SHRINK RATE   0.01
Info: PAIRLIST GROW RATE     0.01
Info: PAIRLIST TRIGGER       0.3
Info: PAIRLISTS PER CYCLE    2
Info: PAIRLISTS ENABLED
Info: MARGIN                 2
Info: HYDROGEN GROUP CUTOFF  2.5
Info: PATCH DIMENSION        15.5
Info: ENERGY OUTPUT STEPS    100000
Info: ENERGY EVALUATION STEPS    100000
Info: OUTPUT ENERGY PRECISION 4
Info: CROSSTERM ENERGY INCLUDED IN DIHEDRAL
Info: TIMING OUTPUT STEPS    1000000
Info: PRESSURE OUTPUT STEPS  100000
Info: ALCHEMICAL FEP ON
Info: FEP CURRENT LAMBDA VALUE     1
Info: FEP COMPARISON LAMBDA VALUE  0.95
Info: FEP INTRA-ALCHEMICAL NON-BONDED INTERACTIONS WILL BE RETAINED
Info: FEP INTRA-ALCHEMICAL BONDED INTERACTIONS WILL BE RETAINED
Info: FEP VDW SHIFTING COEFFICIENT 5
Info: FEP ELEC. ACTIVE FOR ANNIHILATED PARTICLES BETWEEN LAMBDA = 0 AND LAMBDA = 0.5
Info: FEP ELEC. ACTIVE FOR EXNIHILATED PARTICLES BETWEEN LAMBDA = 0.5 AND LAMBDA = 1
Info: FEP VDW ACTIVE FOR ANNIHILATED PARTICLES BETWEEN LAMBDA = 0 AND LAMBDA = 1
Info: FEP VDW ACTIVE FOR EXNIHILATED PARTICLES BETWEEN LAMBDA = 0 AND LAMBDA = 1
Info: FEP BOND ACTIVE FOR ANNIHILATED PARTICLES BETWEEN LAMBDA = 1 AND LAMBDA = 1
Info: FEP BOND ACTIVE FOR EXNIHILATED PARTICLES BETWEEN LAMBDA = 0 AND LAMBDA = 0
Info: LANGEVIN DYNAMICS ACTIVE
Info: LANGEVIN TEMPERATURE   300
Info: LANGEVIN USING BBK INTEGRATOR
Info: LANGEVIN DAMPING COEFFICIENT IS 1 INVERSE PS
Info: LANGEVIN DYNAMICS APPLIED TO HYDROGENS
Info: LANGEVIN PISTON PRESSURE CONTROL ACTIVE
Info:        TARGET PRESSURE IS 1.01325 BAR
Info:     OSCILLATION PERIOD IS 50 FS
Info:             DECAY TIME IS 25 FS
Info:     PISTON TEMPERATURE IS 300 K
Info:       PRESSURE CONTROL IS GROUP-BASED
Info:    INITIAL STRAIN RATE IS -0.000179145 -0.000179145 -0.000179145
Info:       CELL FLUCTUATION IS ISOTROPIC
Info: PARTICLE MESH EWALD (PME) ACTIVE
Info: PME TOLERANCE               1e-06
Info: PME EWALD COEFFICIENT       0.348832
Info: PME INTERPOLATION ORDER     4
Info: PME GRID DIMENSIONS         36 36 32
Info: PME MAXIMUM GRID SPACING    1
Info: PME CALCULATION WILL BE PERFORMED ON GPU
Info: FULL ELECTROSTATIC EVALUATION FREQUENCY      2
Info: USING VERLET I (r-RESPA) MTS SCHEME.
Info: C1 SPLITTING OF LONG RANGE ELECTROSTATICS
Info: PLACING ATOMS IN PATCHES BY HYDROGEN GROUPS
Info: RIGID BONDS TO HYDROGEN : ALL
Info:         ERROR TOLERANCE : 1e-08
Info:          MAX ITERATIONS : 100
Info: RIGID WATER USING SETTLE ALGORITHM
Info: RANDOM NUMBER SEED     1743633009
Info: USE HYDROGEN BONDS?    NO
Info: Using AMBER format force field!
Info: AMBER PARM FILE        mobley_3843583.prmtop
Info: COORDINATE PDB         mobley_3843583.pdb
Info: Exclusions will be read from PARM file!
Info: SCNB (VDW SCALING)     2
Info: USING ARITHMETIC MEAN TO COMBINE L-J SIGMA PARAMETERS
Info: BINARY COORDINATES     mobley_3843583_equil.coor
Info: SUMMARY OF PARAMETERS:
Info: 6 BONDS
Info: 5 ANGLES
Info:   5 HARMONIC
Info:   0 COSINE-BASED
Info: 3 DIHEDRAL
Info: 0 IMPROPER
Info: 0 CROSSTERM
Info: 0 VDW
Info: 21 VDW_PAIRS
Info: 0 NBTHOLE_PAIRS
Info: To read alchdata from file: mobley_3843583.pdb
Info: To read alchflag data from column: 5
Info: STRUCTURE SUMMARY:
Info: 2960 ATOMS
Info: 2961 BONDS
Info: 33 ANGLES
Info: 59 DIHEDRALS
Info: 0 IMPROPERS
Info: 0 CROSSTERMS
Info: 3036 EXCLUSIONS
Info: 2949 RIGID BONDS
Info: ALCH: 0 ATOMS TO DISAPPEAR IN FINAL STATE
Info: ALCH: 20 ATOMS TO APPEAR IN FINAL STATE
Info: 5931 DEGREES OF FREEDOM
Info: 991 HYDROGEN GROUPS
Info: 3 ATOMS IN LARGEST HYDROGEN GROUP
Info: 991 MIGRATION GROUPS
Info: 3 ATOMS IN LARGEST MIGRATION GROUP
Info: TOTAL MASS = 17798.9 amu
Info: TOTAL CHARGE = 0.000199977 e
Info: MASS DENSITY = 0.955517 g/cm^3
Info: ATOM DENSITY = 0.0956927 atoms/A^3
Info: ADDED 0 IMPLICIT EXCLUSIONS
Info: NONBONDED TABLE R-SQUARED SPACING: 0.0625
Info: NONBONDED TABLE SIZE: 705 POINTS
Info: REDUCING NUMBER OF PATCHES TO IMPROVE LOAD BALANCE
Info: REMOVING COM VELOCITY -0.223442 0.0474718 -0.180852
Info: Use 3D box decompostion in PME FFT.
Info: Updated CUDA force table with 4096 elements.
Info: Updated CUDA LJ table with 6 x 6 elements.
Info: Found 21 unique exclusion lists needing 52 bytes
TCL: Running for 1500000 steps
ETITLE: TS BOND ANGLE DIHED IMPRP ELECT VDW BOUNDARY MISC KINETIC TOTAL TEMP POTENTIAL TOTALAVG TEMPAVG PRESSURE GPRESSURE VOLUME PRESSAVG GPRESSAVG
ENERGY: 0 5.1750 6.0365 2.3784 0.0000 -10718.3038 1467.4361 0.0000 0.0000 1765.5718 -7471.7061 299.6042 -9237.2779 -7471.7061 299.6042 73.5916 156.0874 30932.3625 73.5916 156.0874
ENERGY: 300000 5.7900 6.4059 7.1584 0.0000 -10798.6085 1485.5429 0.0000 0.0000 1709.9649 -7583.7465 290.1681 -9293.7113 -7503.6063 299.8939 314.3889 325.5041 30437.7912 -180.1264 -117.6494
ENERGY: 600000 1.3761 7.4292 4.5858 0.0000 -10690.1287 1400.2016 0.0000 0.0000 1774.2208 -7502.3152 301.0718 -9276.5360 -7493.2149 298.9862 -320.1664 -193.9448 30504.5887 -98.1121 -28.3573
ENERGY: 900000 5.4286 4.6512 7.2832 0.0000 -10809.6565 1474.1971 0.0000 0.0000 1735.7981 -7582.2983 294.5518 -9318.0964 -7507.3459 297.8071 362.8594 426.1820 30369.6482 -77.8539 -6.9912
ENERGY: 1200000 4.0882 4.2628 7.0866 0.0000 -10763.6600 1470.6713 0.0000 0.0000 1828.0658 -7449.4853 310.2089 -9277.5511 -7509.5277 298.6712 361.4860 422.0803 30607.6427 -57.2956 7.3923
ENERGY: 1500000 2.4816 5.7425 8.5139 0.0000 -10546.3961 1313.9987 0.0000 0.0000 1762.2273 -7453.4319 299.0366 -9215.6593 -7504.5263 298.6719 -1021.5159 -939.8640 30979.6395 -131.0218 -65.9274
TCL: Running FEP window   2: Lambda1 0.95   Lambda2 0.8999999999999999 [dLambda -0.050000000000000044]
TCL: Setting parameter firsttimestep to 0
TCL: Setting parameter alchLambda to 0.95
Info: NONBONDED TABLE R-SQUARED SPACING: 0.0625
Info: NONBONDED TABLE SIZE: 705 POINTS
TCL: Setting parameter alchLambda2 to 0.8999999999999999
Info: NONBONDED TABLE R-SQUARED SPACING: 0.0625
Info: NONBONDED TABLE SIZE: 705 POINTS
TCL: Running for 1500000 steps
ETITLE: TS BOND ANGLE DIHED IMPRP ELECT VDW BOUNDARY MISC KINETIC TOTAL TEMP POTENTIAL TOTALAVG TEMPAVG PRESSURE GPRESSURE VOLUME PRESSAVG GPRESSAVG
ENERGY: 0 2.4816 5.7425 8.5139 0.0000 -10544.3170 1313.3334 0.0000 0.0000 1761.3494 -7452.8961 298.8877 -9214.2455 -7452.8961 298.8877 -1048.1677 -958.0939 30979.6395 -1048.1677 -958.0939
ENERGY: 300000 2.8497 11.4359 11.5303 0.0000 -10644.7035 1371.1786 0.0000 0.0000 1766.7647 -7480.9442 299.8066 -9247.7089 -7502.0035 300.6062 -454.7184 -320.1568 30518.2889 -444.5201 -368.6723
ENERGY: 600000 3.9170 9.0876 9.1350 0.0000 -10833.4478 1463.8680 0.0000 0.0000 1792.8168 -7554.6234 304.2274 -9347.4402 -7492.8340 303.1634 80.8729 166.6180 30233.2061 -124.6979 -69.0787
ENERGY: 900000 3.0985 5.4043 6.2280 0.0000 -10751.4864 1446.8707 0.0000 0.0000 1785.2545 -7504.6304 302.9442 -9289.8849 -7499.9695 302.5551 92.8810 106.4353 30495.0046 -29.3968 26.2888
ENERGY: 1200000 3.4455 5.8011 9.7637 0.0000 -10688.1198 1426.3423 0.0000 0.0000 1811.1510 -7431.6163 307.3386 -9242.7672 -7501.3628 301.3410 -165.7788 -111.2163 30682.1085 -47.4457 14.5699
ENERGY: 1500000 4.5386 5.4910 7.2310 0.0000 -10728.6763 1388.5758 0.0000 0.0000 1767.5136 -7555.3263 299.9337 -9322.8399 -7499.7068 301.7102 -346.0288 -312.3647 30241.6501 -24.9071 32.7939
TCL: Running FEP window   3: Lambda1 0.8999999999999999 Lambda2 0.8499999999999999 [dLambda -0.050000000000000044]
TCL: Setting parameter firsttimestep to 0
TCL: Setting parameter alchLambda to 0.8999999999999999
Info: NONBONDED TABLE R-SQUARED SPACING: 0.0625
Info: NONBONDED TABLE SIZE: 705 POINTS
TCL: Setting parameter alchLambda2 to 0.8499999999999999
Info: NONBONDED TABLE R-SQUARED SPACING: 0.0625
Info: NONBONDED TABLE SIZE: 705 POINTS
TCL: Running for 1500000 steps
ETITLE: TS BOND ANGLE DIHED IMPRP ELECT VDW BOUNDARY MISC KINETIC TOTAL TEMP POTENTIAL TOTALAVG TEMPAVG PRESSURE GPRESSURE VOLUME PRESSAVG GPRESSAVG
ENERGY: 0 4.5385 5.4910 7.2310 0.0000 -10726.6205 1388.3576 0.0000 0.0000 1766.6477 -7554.3546 299.7867 -9321.0023 -7554.3546 299.7867 -404.2181 -324.3145 30241.6501 -404.2181 -324.3145
ENERGY: 300000 3.7158 5.8596 5.8088 0.0000 -10751.4886 1509.3701 0.0000 0.0000 1728.2325 -7498.5018 293.2680 -9226.7342 -7520.5002 301.0052 465.8677 628.0962 30648.9946 56.6410 140.5256
ENERGY: 600000 2.0813 4.5484 6.0561 0.0000 -10812.2515 1506.3511 0.0000 0.0000 1776.5109 -7516.7038 301.4604 -9293.2146 -7519.0203 299.3255 671.6515 706.9588 29771.2220 159.9165 236.0699
ENERGY: 900000 4.6084 4.6991 5.0521 0.0000 -10632.6892 1361.3649 0.0000 0.0000 1787.8513 -7469.1133 303.3848 -9256.9646 -7511.9674 299.5999 -658.1531 -592.4439 30431.9867 -31.0931 35.2289
ENERGY: 1200000 6.2329 7.3020 8.2397 0.0000 -10688.2545 1400.2967 0.0000 0.0000 1794.4359 -7471.7474 304.5022 -9266.1832 -7509.0469 301.0581 -531.6443 -485.3052 30713.5071 -39.6909 23.1600
ENERGY: 1500000 4.9768 3.2414 5.2076 0.0000 -10824.4422 1494.6534 0.0000 0.0000 1738.8037 -7577.5593 295.0618 -9316.3630 -7513.6990 299.9980 170.2605 237.6053 30367.0507 -0.3388 61.4183
TCL: Running FEP window   4: Lambda1 0.8499999999999999 Lambda2 0.7999999999999998 [dLambda -0.050000000000000044]
TCL: Setting parameter firsttimestep to 0
TCL: Setting parameter alchLambda to 0.8499999999999999
Info: NONBONDED TABLE R-SQUARED SPACING: 0.0625
Info: NONBONDED TABLE SIZE: 705 POINTS
TCL: Setting parameter alchLambda2 to 0.7999999999999998
Info: NONBONDED TABLE R-SQUARED SPACING: 0.0625
Info: NONBONDED TABLE SIZE: 705 POINTS
TCL: Running for 1500000 steps
ETITLE: TS BOND ANGLE DIHED IMPRP ELECT VDW BOUNDARY MISC KINETIC TOTAL TEMP POTENTIAL TOTALAVG TEMPAVG PRESSURE GPRESSURE VOLUME PRESSAVG GPRESSAVG
ENERGY: 0 4.9767 3.2414 5.2077 0.0000 -10822.3705 1494.3066 0.0000 0.0000 1737.9610 -7576.6771 294.9188 -9314.6381 -7576.6771 294.9188 134.8741 224.6680 30367.0507 134.8741 224.6680
ENERGY: 300000 4.9898 4.2972 6.6711 0.0000 -10698.1805 1497.3758 0.0000 0.0000 1768.1361 -7416.7104 300.0393 -9184.8465 -7530.3797 299.3044 491.4470 534.3678 30863.1614 300.0845 364.9736
ENERGY: 600000 2.8868 4.8478 5.2688 0.0000 -10715.9913 1440.5805 0.0000 0.0000 1798.2169 -7464.1905 305.1438 -9262.4074 -7515.5770 299.6776 -202.2196 -52.5596 30273.1526 194.7264 276.5069
ENERGY: 900000 4.1688 5.7219 3.7655 0.0000 -10542.1068 1274.4022 0.0000 0.0000 1749.5690 -7504.4794 296.8886 -9254.0484 -7498.0562 300.8920 -1065.6736 -1006.6833 30452.2477 -103.8025 -26.7445
ENERGY: 1200000 6.9576 3.4706 7.4796 0.0000 -10708.0276 1421.6193 0.0000 0.0000 1724.2259 -7544.2747 292.5881 -9268.5006 -7498.7852 300.1139 -410.1018 -348.0233 30672.0782 -148.2127 -71.6321
ENERGY: 1500000 6.9016 7.3650 5.8718 0.0000 -10765.5028 1441.0700 0.0000 0.0000 1776.5830 -7527.7115 301.4727 -9304.2944 -7494.0840 300.2882 -166.3842 -135.1434 30399.0745 -266.7972 -192.7108
TCL: Running FEP window   5: Lambda1 0.7999999999999998 Lambda2 0.7499999999999998 [dLambda -0.050000000000000044]
TCL: Setting parameter firsttimestep to 0
TCL: Setting parameter alchLambda to 0.7999999999999998
Info: NONBONDED TABLE R-SQUARED SPACING: 0.0625
Info: NONBONDED TABLE SIZE: 705 POINTS
TCL: Setting parameter alchLambda2 to 0.7499999999999998
Info: NONBONDED TABLE R-SQUARED SPACING: 0.0625
Info: NONBONDED TABLE SIZE: 705 POINTS
TCL: Running for 1500000 steps
ETITLE: TS BOND ANGLE DIHED IMPRP ELECT VDW BOUNDARY MISC KINETIC TOTAL TEMP POTENTIAL TOTALAVG TEMPAVG PRESSURE GPRESSURE VOLUME PRESSAVG GPRESSAVG
ENERGY: 0 6.9016 7.3650 5.8718 0.0000 -10763.7791 1440.2789 0.0000 0.0000 1775.7325 -7527.6293 301.3284 -9303.3618 -7527.6293 301.3284 -227.7764 -151.4386 30399.0745 -227.7764 -151.4386
ENERGY: 300000 4.3194 12.7174 6.0834 0.0000 -10754.2451 1419.0971 0.0000 0.0000 1795.8444 -7516.1836 304.7412 -9312.0280 -7503.3053 301.1299 -59.4028 67.5840 30004.5207 -82.3192 -7.7162
ENERGY: 600000 5.1755 12.3407 6.3021 0.0000 -10679.4373 1404.5426 0.0000 0.0000 1784.3852 -7466.6912 302.7967 -9251.0764 -7501.2107 300.0582 -262.5652 -233.3444 30547.4050 -147.8193 -73.4720
ENERGY: 900000 1.6663 8.7236 4.8656 0.0000 -10840.1888 1560.4646 0.0000 0.0000 1776.3016 -7488.1672 301.4249 -9264.4688 -7499.2244 299.2687 773.2487 809.1869 30940.0845 -70.5125 1.9196
ENERGY: 1200000 6.7117 9.7688 10.4769 0.0000 -10609.7491 1389.0828 0.0000 0.0000 1735.2529 -7458.4561 294.4593 -9193.7090 -7489.1263 299.6271 -490.2304 -427.3055 30663.8803 -117.6631 -62.7268
ENERGY: 1500000 6.6182 9.0189 7.2302 0.0000 -10665.0982 1451.2577 0.0000 0.0000 1799.8332 -7391.1401 305.4181 -9190.9732 -7486.5325 299.9735 63.0493 112.7525 30837.7155 -124.6253 -68.2602
TCL: Running FEP window   6: Lambda1 0.7499999999999998 Lambda2 0.6999999999999997 [dLambda -0.050000000000000044]
TCL: Setting parameter firsttimestep to 0
TCL: Setting parameter alchLambda to 0.7499999999999998
Info: NONBONDED TABLE R-SQUARED SPACING: 0.0625
Info: NONBONDED TABLE SIZE: 705 POINTS
TCL: Setting parameter alchLambda2 to 0.6999999999999997
Info: NONBONDED TABLE R-SQUARED SPACING: 0.0625
Info: NONBONDED TABLE SIZE: 705 POINTS
TCL: Running for 1500000 steps
ETITLE: TS BOND ANGLE DIHED IMPRP ELECT VDW BOUNDARY MISC KINETIC TOTAL TEMP POTENTIAL TOTALAVG TEMPAVG PRESSURE GPRESSURE VOLUME PRESSAVG GPRESSAVG
ENERGY: 0 6.6181 9.0189 7.2302 0.0000 -10663.6785 1451.5805 0.0000 0.0000 1798.9834 -7390.2474 305.2739 -9189.2308 -7390.2474 305.2739 35.0468 111.1357 30837.7155 35.0468 111.1357
ENERGY: 300000 4.9873 5.8956 5.2042 0.0000 -10765.2412 1475.9802 0.0000 0.0000 1777.2564 -7495.9175 301.5869 -9273.1739 -7475.9774 303.2566 216.9812 217.6384 30679.2452 -16.8607 41.8094
ENERGY: 600000 2.4026 6.8616 6.9442 0.0000 -10797.0067 1501.1500 0.0000 0.0000 1808.6310 -7471.0172 306.9110 -9279.6481 -7483.9291 303.0730 555.7050 581.2573 30384.4645 13.2101 59.7541
ENERGY: 900000 2.0896 4.1246 4.0337 0.0000 -10542.5299 1369.9143 0.0000 0.0000 1763.2104 -7399.1574 299.2035 -9162.3678 -7482.5085 302.5509 -322.6720 -274.8771 30627.2350 -96.5971 -43.0901
ENERGY: 1200000 2.3307 4.2507 5.1229 0.0000 -10621.4461 1370.3688 0.0000 0.0000 1741.8753 -7497.4977 295.5830 -9239.3730 -7496.0796 301.4185 -615.2584 -540.5164 30688.2033 -189.4321 -142.2382
ENERGY: 1500000 3.2235 3.7633 5.8852 0.0000 -10680.7487 1440.6705 0.0000 0.0000 1798.1994 -7429.0069 305.1408 -9227.2063 -7482.5547 301.6069 250.1898 291.1777 30450.8316 -111.9073 -66.8982
TCL: Running FEP window   7: Lambda1 0.6999999999999997 Lambda2 0.6499999999999997 [dLambda -0.050000000000000044]
TCL: Setting parameter firsttimestep to 0
TCL: Setting parameter alchLambda to 0.6999999999999997
Info: NONBONDED TABLE R-SQUARED SPACING: 0.0625
Info: NONBONDED TABLE SIZE: 705 POINTS
TCL: Setting parameter alchLambda2 to 0.6499999999999997
Info: NONBONDED TABLE R-SQUARED SPACING: 0.0625
Info: NONBONDED TABLE SIZE: 705 POINTS
TCL: Running for 1500000 steps
ETITLE: TS BOND ANGLE DIHED IMPRP ELECT VDW BOUNDARY MISC KINETIC TOTAL TEMP POTENTIAL TOTALAVG TEMPAVG PRESSURE GPRESSURE VOLUME PRESSAVG GPRESSAVG
ENERGY: 0 3.2235 3.7633 5.8852 0.0000 -10680.3242 1441.0786 0.0000 0.0000 1797.3062 -7429.0674 304.9892 -9226.3736 -7429.0674 304.9892 206.4862 285.3791 30450.8316 206.4862 285.3791
ENERGY: 300000 2.4497 6.3765 7.7037 0.0000 -10642.8902 1399.2486 0.0000 0.0000 1768.9228 -7458.1889 300.1728 -9227.1117 -7428.4840 305.7663 -314.1037 -245.4881 31018.3487 135.3393 225.7380
ENERGY: 600000 2.7379 4.8765 7.7718 0.0000 -10756.9645 1410.2422 0.0000 0.0000 1780.5058 -7550.8303 302.1384 -9331.3361 -7476.6009 304.2692 -402.8482 -337.4378 30166.8931 80.5659 153.6510
ENERGY: 900000 3.6403 5.1386 5.1815 0.0000 -10536.2033 1342.8784 0.0000 0.0000 1732.7263 -7446.6381 294.0305 -9179.3644 -7478.3005 303.4988 -594.1544 -565.5779 30333.4125 -47.5384 12.7267
ENERGY: 1200000 6.1263 8.3384 5.7458 0.0000 -10788.9936 1474.8088 0.0000 0.0000 1747.4841 -7546.4902 296.5348 -9293.9743 -7476.4605 302.6042 -33.1666 49.6141 30482.0930 -4.1624 53.2643
ENERGY: 1500000 1.9876 6.9956 4.7748 0.0000 -10668.9306 1424.9413 0.0000 0.0000 1797.6462 -7432.5851 305.0469 -9230.2312 -7470.6370 304.0237 30.0209 89.1967 30085.6849 19.5077 74.4726
TCL: Running FEP window   8: Lambda1 0.6499999999999997 Lambda2 0.5999999999999996 [dLambda -0.050000000000000044]
TCL: Setting parameter firsttimestep to 0
TCL: Setting parameter alchLambda to 0.6499999999999997
Info: NONBONDED TABLE R-SQUARED SPACING: 0.0625
Info: NONBONDED TABLE SIZE: 705 POINTS
TCL: Setting parameter alchLambda2 to 0.5999999999999996
Info: NONBONDED TABLE R-SQUARED SPACING: 0.0625
Info: NONBONDED TABLE SIZE: 705 POINTS
TCL: Running for 1500000 steps
ETITLE: TS BOND ANGLE DIHED IMPRP ELECT VDW BOUNDARY MISC KINETIC TOTAL TEMP POTENTIAL TOTALAVG TEMPAVG PRESSURE GPRESSURE VOLUME PRESSAVG GPRESSAVG
ENERGY: 0 1.9876 6.9956 4.7748 0.0000 -10667.8638 1424.6037 0.0000 0.0000 1796.7760 -7432.7261 304.8993 -9229.5020 -7432.7261 304.8993 0.7136 78.4100 30085.6849 0.7136 78.4100
ENERGY: 300000 5.3136 7.1616 3.7431 0.0000 -10772.0466 1431.1087 0.0000 0.0000 1763.2804 -7561.4393 299.2153 -9324.7197 -7537.4290 297.5530 -432.1174 -350.8565 30583.0298 -352.6413 -278.4814
ENERGY: 600000 6.0599 5.2315 6.2883 0.0000 -10868.5659 1513.0097 0.0000 0.0000 1781.1898 -7556.7867 302.2544 -9337.9765 -7515.2669 299.4205 624.3294 709.7238 30168.5321 103.0486 162.3095
ENERGY: 900000 5.9386 3.2338 7.6087 0.0000 -10732.5898 1438.5726 0.0000 0.0000 1773.4471 -7503.7891 300.9405 -9277.2362 -7520.6977 299.4389 -137.5460 -28.7897 30262.5550 58.6059 124.2974
ENERGY: 1200000 2.4569 5.7584 4.7857 0.0000 -10728.0170 1471.6806 0.0000 0.0000 1797.5699 -7445.7656 305.0340 -9243.3355 -7506.8009 300.7660 -22.5853 87.6371 30876.8140 43.9154 109.5076
ENERGY: 1500000 3.8060 8.7841 6.8946 0.0000 -10759.7730 1445.2847 0.0000 0.0000 1770.7530 -7524.2506 300.4834 -9295.0036 -7503.6737 301.6158 -69.3995 -44.4756 30649.3205 49.8642 112.6430
TCL: Running FEP window   9: Lambda1 0.5999999999999996 Lambda2 0.5499999999999996 [dLambda -0.050000000000000044]
TCL: Setting parameter firsttimestep to 0
TCL: Setting parameter alchLambda to 0.5999999999999996
Info: NONBONDED TABLE R-SQUARED SPACING: 0.0625
Info: NONBONDED TABLE SIZE: 705 POINTS
TCL: Setting parameter alchLambda2 to 0.5499999999999996
Info: NONBONDED TABLE R-SQUARED SPACING: 0.0625
Info: NONBONDED TABLE SIZE: 705 POINTS
TCL: Running for 1500000 steps
ETITLE: TS BOND ANGLE DIHED IMPRP ELECT VDW BOUNDARY MISC KINETIC TOTAL TEMP POTENTIAL TOTALAVG TEMPAVG PRESSURE GPRESSURE VOLUME PRESSAVG GPRESSAVG
ENERGY: 0 3.8060 8.7841 6.8946 0.0000 -10759.2647 1444.8932 0.0000 0.0000 1769.8559 -7525.0309 300.3311 -9294.8868 -7525.0309 300.3311 -136.2110 -59.3504 30649.3205 -136.2110 -59.3504
ENERGY: 300000 3.8646 5.7948 4.6814 0.0000 -10715.8144 1425.6615 0.0000 0.0000 1755.6660 -7520.1461 297.9232 -9275.8121 -7515.7347 301.8110 -391.0039 -383.4171 30724.2184 -25.8701 13.8329
ENERGY: 600000 5.5274 4.3365 7.7509 0.0000 -10712.6880 1417.1865 0.0000 0.0000 1739.9273 -7537.9594 295.2525 -9277.8868 -7524.0153 299.2132 -244.7410 -169.4567 30074.3951 -90.9061 -44.5796
ENERGY: 900000 3.1675 12.1328 8.2089 0.0000 -10655.3686 1407.1599 0.0000 0.0000 1791.0895 -7433.6099 303.9343 -9224.6995 -7497.4315 300.2561 -631.7438 -555.1702 31070.7306 -113.1033 -66.7755
ENERGY: 1200000 2.0105 5.8989 9.2547 0.0000 -10635.2566 1371.8757 0.0000 0.0000 1756.8976 -7489.3193 298.1322 -9246.2168 -7500.3306 299.8610 -569.8336 -534.1397 30553.0916 -118.7319 -74.4241
ENERGY: 1500000 3.8000 5.7383 3.6942 0.0000 -10845.4179 1503.7391 0.0000 0.0000 1769.5444 -7558.9019 300.2783 -9328.4463 -7502.9765 299.5995 159.0174 253.2749 30376.9646 -90.4598 -42.6039
TCL: Running FEP window  10: Lambda1 0.5499999999999996 Lambda2 0.4999999999999996 [dLambda -0.04999999999999999]
TCL: Setting parameter firsttimestep to 0
TCL: Setting parameter alchLambda to 0.5499999999999996
Info: NONBONDED TABLE R-SQUARED SPACING: 0.0625
Info: NONBONDED TABLE SIZE: 705 POINTS
TCL: Setting parameter alchLambda2 to 0.4999999999999996
Info: NONBONDED TABLE R-SQUARED SPACING: 0.0625
Info: NONBONDED TABLE SIZE: 705 POINTS
TCL: Running for 1500000 steps
ETITLE: TS BOND ANGLE DIHED IMPRP ELECT VDW BOUNDARY MISC KINETIC TOTAL TEMP POTENTIAL TOTALAVG TEMPAVG PRESSURE GPRESSURE VOLUME PRESSAVG GPRESSAVG
ENERGY: 0 3.8000 5.7383 3.6942 0.0000 -10844.8004 1503.8527 0.0000 0.0000 1768.6466 -7559.0686 300.1259 -9327.7152 -7559.0686 300.1259 163.6632 247.8081 30376.9646 163.6632 247.8081
ENERGY: 300000 2.8358 4.4677 6.1373 0.0000 -10627.4568 1360.5985 0.0000 0.0000 1735.1013 -7518.3162 294.4336 -9253.4175 -7471.9214 300.6400 -413.6746 -365.7833 30437.6536 -458.9428 -398.5295
ENERGY: 600000 2.7002 6.8882 4.8990 0.0000 -10725.5356 1499.1141 0.0000 0.0000 1813.4181 -7398.5160 307.7233 -9211.9340 -7460.1564 299.2525 530.9195 603.3821 30728.7158 -223.3542 -152.3411
ENERGY: 900000 2.6595 4.8519 7.6704 0.0000 -10654.6641 1441.9436 0.0000 0.0000 1793.3218 -7404.2169 304.3131 -9197.5387 -7465.1635 299.9102 -21.9381 65.2841 30790.6825 -189.2884 -110.3889
ENERGY: 1200000 5.9833 4.7806 4.1298 0.0000 -10682.1362 1418.2538 0.0000 0.0000 1824.9211 -7424.0676 309.6753 -9248.9887 -7459.0278 300.5098 -471.4230 -485.5204 30773.8001 -197.3150 -129.6700
ENERGY: 1500000 2.1149 7.8391 5.5669 0.0000 -10724.5547 1414.0641 0.0000 0.0000 1734.4700 -7560.4998 294.3264 -9294.9697 -7464.4103 300.7501 39.8563 45.4067 30207.1310 -144.4119 -78.7852
TCL: Running FEP window  11: Lambda1 0.4999999999999996 Lambda2 0.4499999999999996 [dLambda -0.04999999999999999]
TCL: Setting parameter firsttimestep to 0
TCL: Setting parameter alchLambda to 0.4999999999999996
Info: NONBONDED TABLE R-SQUARED SPACING: 0.0625
Info: NONBONDED TABLE SIZE: 705 POINTS
TCL: Setting parameter alchLambda2 to 0.4499999999999996
Info: NONBONDED TABLE R-SQUARED SPACING: 0.0625
Info: NONBONDED TABLE SIZE: 705 POINTS
TCL: Running for 1500000 steps
ETITLE: TS BOND ANGLE DIHED IMPRP ELECT VDW BOUNDARY MISC KINETIC TOTAL TEMP POTENTIAL TOTALAVG TEMPAVG PRESSURE GPRESSURE VOLUME PRESSAVG GPRESSAVG
ENERGY: 0 2.1149 7.8391 5.5669 0.0000 -10724.5077 1414.1175 0.0000 0.0000 1733.5908 -7561.2786 294.1772 -9294.8694 -7561.2786 294.1772 -47.3017 39.5973 30207.1310 -47.3017 39.5973
ENERGY: 300000 3.9124 5.9932 7.1849 0.0000 -10660.2496 1428.8324 0.0000 0.0000 1813.2758 -7401.0510 307.6992 -9214.3268 -7462.3067 300.0128 -57.4381 8.2252 30816.8037 -278.1825 -189.8883
ENERGY: 600000 2.1181 9.3731 4.7035 0.0000 -10786.9067 1503.7292 0.0000 0.0000 1763.7956 -7503.1872 299.3028 -9266.9828 -7479.6326 300.5461 521.4196 620.2939 29978.9619 -84.4405 -1.7257
ENERGY: 900000 2.8827 5.4476 4.1994 0.0000 -10805.6502 1500.9955 0.0000 0.0000 1779.7892 -7512.3359 302.0167 -9292.1251 -7492.1644 300.4098 427.8148 514.1184 30347.4652 -117.2440 -41.8069
ENERGY: 1200000 2.4469 7.1574 3.6511 0.0000 -10779.3059 1504.4292 0.0000 0.0000 1760.3874 -7501.2339 298.7244 -9261.6213 -7492.3114 300.1014 598.8706 687.0118 30133.9274 -39.5389 39.1605
ENERGY: 1500000 5.2303 5.7698 3.5572 0.0000 -10651.8547 1424.9715 0.0000 0.0000 1840.5315 -7371.7944 312.3243 -9212.3260 -7483.6023 300.4646 48.6496 103.8778 30715.3381 11.6595 88.4341
TCL: Running FEP window  12: Lambda1 0.4499999999999996 Lambda2 0.39999999999999963 [dLambda -0.04999999999999999]
TCL: Setting parameter firsttimestep to 0
TCL: Setting parameter alchLambda to 0.4499999999999996
Info: NONBONDED TABLE R-SQUARED SPACING: 0.0625
Info: NONBONDED TABLE SIZE: 705 POINTS
TCL: Setting parameter alchLambda2 to 0.39999999999999963
Info: NONBONDED TABLE R-SQUARED SPACING: 0.0625
Info: NONBONDED TABLE SIZE: 705 POINTS
TCL: Running for 1500000 steps
ETITLE: TS BOND ANGLE DIHED IMPRP ELECT VDW BOUNDARY MISC KINETIC TOTAL TEMP POTENTIAL TOTALAVG TEMPAVG PRESSURE GPRESSURE VOLUME PRESSAVG GPRESSAVG
ENERGY: 0 5.2303 5.7698 3.5572 0.0000 -10651.8541 1425.1720 0.0000 0.0000 1839.6444 -7372.4805 312.1737 -9212.1248 -7372.4805 312.1737 12.0876 98.8683 30715.3381 12.0876 98.8683
ENERGY: 300000 5.5510 3.6577 4.9117 0.0000 -10729.0526 1449.6478 0.0000 0.0000 1856.0881 -7409.1963 314.9641 -9265.2844 -7466.4139 304.5518 129.7586 229.3986 30508.6118 -29.3690 43.3879
ENERGY: 600000 4.6044 5.3410 3.1068 0.0000 -10542.2770 1364.7487 0.0000 0.0000 1779.8939 -7384.5823 302.0345 -9164.4761 -7457.8717 303.5575 -442.5394 -394.7158 30397.1550 -31.8626 35.5300
ENERGY: 900000 6.3168 2.9939 7.2908 0.0000 -10745.9510 1435.4679 0.0000 0.0000 1751.7365 -7542.1452 297.2564 -9293.8817 -7476.1406 301.8144 -249.4407 -241.7576 30714.4535 -135.6738 -70.5858
ENERGY: 1200000 7.2555 5.7906 5.7559 0.0000 -10630.3450 1339.8284 0.0000 0.0000 1763.8438 -7507.8709 299.3109 -9271.7147 -7477.1746 302.0060 -1085.3045 -966.1199 30519.3124 -117.2664 -42.5041
ENERGY: 1500000 4.8741 5.0934 4.9050 0.0000 -10833.8072 1479.8982 0.0000 0.0000 1761.8832 -7577.1533 298.9782 -9339.0365 -7480.3181 301.4008 -171.0204 -40.3353 30653.5855 -154.7083 -76.1945
TCL: Running FEP window  13: Lambda1 0.39999999999999963 Lambda2 0.34999999999999964 [dLambda -0.04999999999999999]
TCL: Setting parameter firsttimestep to 0
TCL: Setting parameter alchLambda to 0.39999999999999963
Info: NONBONDED TABLE R-SQUARED SPACING: 0.0625
Info: NONBONDED TABLE SIZE: 705 POINTS
TCL: Setting parameter alchLambda2 to 0.34999999999999964
Info: NONBONDED TABLE R-SQUARED SPACING: 0.0625
Info: NONBONDED TABLE SIZE: 705 POINTS
TCL: Running for 1500000 steps
ETITLE: TS BOND ANGLE DIHED IMPRP ELECT VDW BOUNDARY MISC KINETIC TOTAL TEMP POTENTIAL TOTALAVG TEMPAVG PRESSURE GPRESSURE VOLUME PRESSAVG GPRESSAVG
ENERGY: 0 4.8741 5.0934 4.9050 0.0000 -10833.8073 1480.3460 0.0000 0.0000 1761.0086 -7577.5803 298.8298 -9338.5889 -7577.5803 298.8298 -132.7404 -45.3714 30653.5855 -132.7404 -45.3714
ENERGY: 300000 5.3474 6.3210 4.0386 0.0000 -10723.4802 1458.5781 0.0000 0.0000 1801.8413 -7447.3539 305.7588 -9249.1952 -7495.7606 301.8811 192.5723 276.0365 30197.9358 36.0410 91.9934
ENERGY: 600000 7.0965 5.4833 4.5836 0.0000 -10684.0939 1440.8948 0.0000 0.0000 1789.5954 -7436.4404 303.6808 -9226.0357 -7497.7260 299.1288 -163.1368 -40.7135 30531.6048 -115.6462 -47.3891
ENERGY: 900000 2.4274 5.2821 2.2464 0.0000 -10697.6273 1437.0592 0.0000 0.0000 1725.9718 -7524.6404 292.8843 -9250.6122 -7492.6551 299.1636 -403.9769 -384.0569 30951.3048 -59.0974 -8.0863
ENERGY: 1200000 5.0334 7.4066 6.3207 0.0000 -10640.0240 1407.3318 0.0000 0.0000 1767.2567 -7446.6748 299.8901 -9213.9314 -7480.0359 299.5022 218.2105 231.4753 30244.4223 -36.4199 13.6074
ENERGY: 1500000 4.6714 7.0654 7.3099 0.0000 -10708.9794 1442.4276 0.0000 0.0000 1754.1658 -7493.3394 297.6686 -9247.5052 -7471.7382 300.4129 -387.6211 -295.2723 30675.0731 -113.1627 -58.3199
TCL: Running FEP window  14: Lambda1 0.34999999999999964 Lambda2 0.29999999999999966 [dLambda -0.04999999999999999]
TCL: Setting parameter firsttimestep to 0
TCL: Setting parameter alchLambda to 0.34999999999999964
Info: NONBONDED TABLE R-SQUARED SPACING: 0.0625
Info: NONBONDED TABLE SIZE: 705 POINTS
TCL: Setting parameter alchLambda2 to 0.29999999999999966
Info: NONBONDED TABLE R-SQUARED SPACING: 0.0625
Info: NONBONDED TABLE SIZE: 705 POINTS
TCL: Running for 1500000 steps
ETITLE: TS BOND ANGLE DIHED IMPRP ELECT VDW BOUNDARY MISC KINETIC TOTAL TEMP POTENTIAL TOTALAVG TEMPAVG PRESSURE GPRESSURE VOLUME PRESSAVG GPRESSAVG
ENERGY: 0 4.6714 7.0654 7.3099 0.0000 -10708.9794 1442.9711 0.0000 0.0000 1753.2610 -7493.7007 297.5151 -9246.9617 -7493.7007 297.5151 -376.5717 -294.9170 30675.0731 -376.5717 -294.9170
ENERGY: 300000 2.6305 6.0140 4.6844 0.0000 -10714.0042 1460.8945 0.0000 0.0000 1785.3136 -7454.4671 302.9542 -9239.7808 -7512.8359 300.5727 205.3588 293.3612 30338.7444 -127.0936 -52.8379
ENERGY: 600000 5.3126 5.2142 3.4571 0.0000 -10801.1934 1485.8799 0.0000 0.0000 1773.5106 -7527.8191 300.9513 -9301.3297 -7508.8897 302.1951 282.2841 318.2315 30059.2975 -96.0335 -39.1726
ENERGY: 900000 4.7066 3.6521 2.9692 0.0000 -10792.2710 1438.3297 0.0000 0.0000 1736.2161 -7606.3972 294.6227 -9342.6133 -7513.9590 300.1426 -478.0416 -446.5117 30514.3254 -146.4395 -95.6909
ENERGY: 1200000 5.3479 4.8258 3.5892 0.0000 -10786.6048 1483.0792 0.0000 0.0000 1794.8182 -7494.9445 304.5670 -9289.7626 -7510.9323 300.7942 179.3695 263.5035 30143.0161 11.7510 71.1074
ENERGY: 1500000 2.6983 10.8759 3.8830 0.0000 -10788.0322 1485.9234 0.0000 0.0000 1792.7083 -7491.9433 304.2090 -9284.6516 -7507.3521 300.7660 190.2205 195.6899 30523.4207 36.9333 94.0993
TCL: Running FEP window  15: Lambda1 0.29999999999999966 Lambda2 0.24999999999999967 [dLambda -0.04999999999999999]
TCL: Setting parameter firsttimestep to 0
TCL: Setting parameter alchLambda to 0.29999999999999966
Info: NONBONDED TABLE R-SQUARED SPACING: 0.0625
Info: NONBONDED TABLE SIZE: 705 POINTS
TCL: Setting parameter alchLambda2 to 0.24999999999999967
Info: NONBONDED TABLE R-SQUARED SPACING: 0.0625
Info: NONBONDED TABLE SIZE: 705 POINTS
TCL: Running for 1500000 steps
ETITLE: TS BOND ANGLE DIHED IMPRP ELECT VDW BOUNDARY MISC KINETIC TOTAL TEMP POTENTIAL TOTALAVG TEMPAVG PRESSURE GPRESSURE VOLUME PRESSAVG GPRESSAVG
ENERGY: 0 2.6983 10.8759 3.8830 0.0000 -10788.0304 1486.3686 0.0000 0.0000 1791.8142 -7492.3904 304.0573 -9284.2046 -7492.3904 304.0573 116.6035 195.5946 30523.4207 116.6035 195.5946
ENERGY: 300000 2.9691 7.8911 4.4088 0.0000 -10701.8704 1430.5832 0.0000 0.0000 1774.0509 -7481.9673 301.0430 -9256.0182 -7463.1978 299.0290 -214.1628 -152.0321 30457.4752 0.4362 82.5544
ENERGY: 600000 4.8222 4.2450 6.1404 0.0000 -10628.4660 1386.9273 0.0000 0.0000 1765.1657 -7461.1652 299.5353 -9226.3310 -7471.4486 299.7369 -634.7165 -606.8744 30757.0728 -204.7845 -130.7694
ENERGY: 900000 3.4101 4.5222 4.9243 0.0000 -10677.5699 1424.2402 0.0000 0.0000 1736.3512 -7504.1218 294.6456 -9240.4730 -7480.5357 299.7946 -212.3152 -186.9541 30401.5203 -272.2508 -202.2341
ENERGY: 1200000 7.9317 3.7736 7.0248 0.0000 -10726.9029 1423.4858 0.0000 0.0000 1815.5158 -7469.1713 308.0793 -9284.6870 -7484.1017 299.9763 -333.2100 -263.0313 30157.0791 -196.6214 -131.2516
ENERGY: 1500000 4.7291 8.8091 7.7154 0.0000 -10666.5795 1423.7789 0.0000 0.0000 1799.4114 -7422.1357 305.3465 -9221.5471 -7484.4192 300.1848 158.7048 234.0076 29975.2863 -81.3784 -11.7931
TCL: Running FEP window  16: Lambda1 0.24999999999999967 Lambda2 0.19999999999999968 [dLambda -0.04999999999999999]
TCL: Setting parameter firsttimestep to 0
TCL: Setting parameter alchLambda to 0.24999999999999967
Info: NONBONDED TABLE R-SQUARED SPACING: 0.0625
Info: NONBONDED TABLE SIZE: 705 POINTS
TCL: Setting parameter alchLambda2 to 0.19999999999999968
Info: NONBONDED TABLE R-SQUARED SPACING: 0.0625
Info: NONBONDED TABLE SIZE: 705 POINTS
TCL: Running for 1500000 steps
ETITLE: TS BOND ANGLE DIHED IMPRP ELECT VDW BOUNDARY MISC KINETIC TOTAL TEMP POTENTIAL TOTALAVG TEMPAVG PRESSURE GPRESSURE VOLUME PRESSAVG GPRESSAVG
ENERGY: 0 4.7291 8.8091 7.7154 0.0000 -10666.5788 1423.3079 0.0000 0.0000 1798.5277 -7423.4896 305.1965 -9222.0173 -7423.4896 305.1965 146.6780 225.6933 29975.2863 146.6780 225.6933
ENERGY: 300000 3.7821 6.5284 5.5679 0.0000 -10701.5509 1441.7064 0.0000 0.0000 1797.3142 -7446.6518 304.9906 -9243.9660 -7487.4899 304.1604 -142.9872 -30.5122 30300.4342 -159.5068 -80.5148
ENERGY: 600000 4.7264 8.1260 6.1026 0.0000 -10739.3004 1407.4101 0.0000 0.0000 1744.5422 -7568.3931 296.0356 -9312.9353 -7492.9229 301.5847 -593.6578 -490.0331 30760.0353 -124.1516 -56.6251
ENERGY: 900000 5.2587 4.9993 8.3684 0.0000 -10546.0810 1401.7847 0.0000 0.0000 1796.5954 -7329.0746 304.8686 -9125.6700 -7476.0939 301.6832 -165.6918 -70.7632 30819.3655 94.8402 162.2637
ENERGY: 1200000 2.7995 7.5010 5.3097 0.0000 -10749.9909 1493.9920 0.0000 0.0000 1778.9169 -7461.4718 301.8687 -9240.3887 -7471.1065 301.5287 574.6329 697.6510 30209.8807 68.3803 140.7009
ENERGY: 1500000 3.0478 5.0327 8.7040 0.0000 -10640.6900 1410.5341 0.0000 0.0000 1738.0157 -7475.3557 294.9281 -9213.3714 -7467.5604 301.9928 -519.8744 -415.0353 30716.2784 92.3179 159.9812
TCL: Running FEP window  17: Lambda1 0.19999999999999968 Lambda2 0.1499999999999997 [dLambda -0.04999999999999999]
TCL: Setting parameter firsttimestep to 0
TCL: Setting parameter alchLambda to 0.19999999999999968
Info: NONBONDED TABLE R-SQUARED SPACING: 0.0625
Info: NONBONDED TABLE SIZE: 705 POINTS
TCL: Setting parameter alchLambda2 to 0.1499999999999997
Info: NONBONDED TABLE R-SQUARED SPACING: 0.0625
Info: NONBONDED TABLE SIZE: 705 POINTS
TCL: Running for 1500000 steps
ETITLE: TS BOND ANGLE DIHED IMPRP ELECT VDW BOUNDARY MISC KINETIC TOTAL TEMP POTENTIAL TOTALAVG TEMPAVG PRESSURE GPRESSURE VOLUME PRESSAVG GPRESSAVG
ENERGY: 0 3.0478 5.0327 8.7040 0.0000 -10640.6891 1410.9730 0.0000 0.0000 1737.1132 -7475.8184 294.7750 -9212.9316 -7475.8184 294.7750 -515.1669 -419.3148 30716.2784 -515.1669 -419.3148
ENERGY: 300000 4.7851 4.9055 6.4030 0.0000 -10740.6382 1406.5259 0.0000 0.0000 1834.6756 -7483.3432 311.3305 -9318.0187 -7480.2916 302.2210 -498.7404 -393.5114 30164.3917 -200.5160 -122.5773
ENERGY: 600000 3.2602 5.7280 4.8424 0.0000 -10785.5116 1438.0487 0.0000 0.0000 1748.4960 -7585.1363 296.7065 -9333.6323 -7520.6272 298.6032 -359.6998 -281.5787 30183.7849 -400.5846 -338.2261
ENERGY: 900000 2.4970 5.1049 8.3790 0.0000 -10629.1005 1398.5323 0.0000 0.0000 1737.2429 -7477.3444 294.7970 -9214.5873 -7513.7333 299.5652 -387.3510 -283.9481 30346.7515 -197.7590 -137.9206
ENERGY: 1200000 4.3438 6.0505 5.6017 0.0000 -10697.2056 1431.0008 0.0000 0.0000 1766.9731 -7483.2357 299.8420 -9250.2089 -7500.7050 299.1754 -165.0982 -38.6508 30410.3796 -105.0731 -37.7095
ENERGY: 1500000 6.5857 6.8923 4.8791 0.0000 -10767.3716 1485.5102 0.0000 0.0000 1764.9153 -7498.5890 299.4928 -9263.5044 -7510.3602 298.4000 274.5706 327.8603 30270.4439 72.9473 136.7868
TCL: Running FEP window  18: Lambda1 0.1499999999999997 Lambda2 0.09999999999999969 [dLambda -0.05 ]
TCL: Setting parameter firsttimestep to 0
TCL: Setting parameter alchLambda to 0.1499999999999997
Info: NONBONDED TABLE R-SQUARED SPACING: 0.0625
Info: NONBONDED TABLE SIZE: 705 POINTS
TCL: Setting parameter alchLambda2 to 0.09999999999999969
Info: NONBONDED TABLE R-SQUARED SPACING: 0.0625
Info: NONBONDED TABLE SIZE: 705 POINTS
TCL: Running for 1500000 steps
ETITLE: TS BOND ANGLE DIHED IMPRP ELECT VDW BOUNDARY MISC KINETIC TOTAL TEMP POTENTIAL TOTALAVG TEMPAVG PRESSURE GPRESSURE VOLUME PRESSAVG GPRESSAVG
ENERGY: 0 6.5857 6.8923 4.8791 0.0000 -10767.3725 1485.6984 0.0000 0.0000 1764.0781 -7499.2389 299.3507 -9263.3170 -7499.2389 299.3507 242.4559 326.2687 30270.4439 242.4559 326.2687
ENERGY: 300000 3.7875 5.3017 5.7740 0.0000 -10608.5322 1359.6781 0.0000 0.0000 1739.5377 -7494.4532 295.1864 -9233.9909 -7476.5263 299.6919 -717.3475 -633.0541 30637.0327 -54.0843 17.0875
ENERGY: 600000 6.6500 6.1435 5.2113 0.0000 -10780.0439 1465.6152 0.0000 0.0000 1750.4435 -7545.9803 297.0370 -9296.4239 -7480.9933 300.5106 -141.5136 -74.4741 30548.5143 -238.5154 -172.5017
ENERGY: 900000 2.1283 6.6640 5.7275 0.0000 -10643.0170 1379.3123 0.0000 0.0000 1749.5829 -7499.6019 296.8910 -9249.1849 -7467.4924 301.2629 -767.9320 -639.8613 30859.4249 -180.2481 -107.9453
ENERGY: 1200000 3.5004 6.2059 3.4462 0.0000 -10767.2037 1452.1129 0.0000 0.0000 1747.6259 -7554.3124 296.5589 -9301.9383 -7484.3562 300.8936 -53.0609 -10.5610 30117.7764 -184.1789 -112.1208
ENERGY: 1500000 7.4611 4.3416 6.2465 0.0000 -10724.9920 1403.7958 0.0000 0.0000 1813.5010 -7489.6460 307.7374 -9303.1470 -7488.4916 301.1745 -756.0941 -641.2772 30519.0608 -145.3404 -74.2233
TCL: Running FEP window  19: Lambda1 0.09999999999999969 Lambda2 0.049999999999999684 [dLambda -0.05 ]
TCL: Setting parameter firsttimestep to 0
TCL: Setting parameter alchLambda to 0.09999999999999969
Info: NONBONDED TABLE R-SQUARED SPACING: 0.0625
Info: NONBONDED TABLE SIZE: 705 POINTS
TCL: Setting parameter alchLambda2 to 0.049999999999999684
Info: NONBONDED TABLE R-SQUARED SPACING: 0.0625
Info: NONBONDED TABLE SIZE: 705 POINTS
TCL: Running for 1500000 steps
ETITLE: TS BOND ANGLE DIHED IMPRP ELECT VDW BOUNDARY MISC KINETIC TOTAL TEMP POTENTIAL TOTALAVG TEMPAVG PRESSURE GPRESSURE VOLUME PRESSAVG GPRESSAVG
ENERGY: 0 7.4611 4.3416 6.2465 0.0000 -10724.9905 1402.6679 0.0000 0.0000 1812.6215 -7491.6520 307.5881 -9304.2734 -7491.6520 307.5881 -730.1383 -649.0752 30519.0608 -730.1383 -649.0752
ENERGY: 300000 1.5056 7.8378 3.7285 0.0000 -10826.8246 1463.3762 0.0000 0.0000 1809.3494 -7541.0271 307.0329 -9350.3766 -7501.8914 306.2638 69.1176 125.6849 29978.7922 -163.0292 -108.4884
ENERGY: 600000 7.5153 4.4833 4.3959 0.0000 -10510.7720 1293.0467 0.0000 0.0000 1750.9365 -7450.3943 297.1207 -9201.3309 -7491.1681 304.4282 -1333.6129 -1227.2045 30826.5649 -451.0784 -383.1635
ENERGY: 900000 5.5210 5.4735 6.1989 0.0000 -10672.8279 1402.1934 0.0000 0.0000 1758.4884 -7494.9527 298.4022 -9253.4411 -7499.2629 301.5830 -197.5864 -136.7530 30132.9596 -368.6140 -302.1485
ENERGY: 1200000 2.3910 2.9536 4.0722 0.0000 -10715.6843 1453.5956 0.0000 0.0000 1798.5202 -7454.1517 305.1953 -9252.6719 -7490.6744 300.6592 -17.3653 85.0984 30337.9711 -246.2321 -179.2432
ENERGY: 1500000 2.1042 5.7628 4.2540 0.0000 -10738.5568 1464.3890 0.0000 0.0000 1787.6136 -7474.4332 303.3445 -9262.0468 -7486.9046 301.4532 -307.9165 -218.6911 30919.0652 -184.2632 -114.6622
TCL: Running FEP window  20: Lambda1 0.049999999999999684 Lambda2 0.0    [dLambda -0.049999999999999684]
TCL: Setting parameter firsttimestep to 0
TCL: Setting parameter alchLambda to 0.049999999999999684
Info: NONBONDED TABLE R-SQUARED SPACING: 0.0625
Info: NONBONDED TABLE SIZE: 705 POINTS
TCL: Setting parameter alchLambda2 to 0.0
Info: NONBONDED TABLE R-SQUARED SPACING: 0.0625
Info: NONBONDED TABLE SIZE: 705 POINTS
TCL: Running for 1500000 steps
ETITLE: TS BOND ANGLE DIHED IMPRP ELECT VDW BOUNDARY MISC KINETIC TOTAL TEMP POTENTIAL TOTALAVG TEMPAVG PRESSURE GPRESSURE VOLUME PRESSAVG GPRESSAVG
ENERGY: 0 2.1042 5.7628 4.2540 0.0000 -10738.5583 1464.4627 0.0000 0.0000 1786.7470 -7475.2276 303.1974 -9261.9746 -7475.2276 303.1974 -304.9722 -221.4876 30919.0652 -304.9722 -221.4876
ENERGY: 300000 5.0441 3.0663 3.8046 0.0000 -10635.5195 1396.1193 0.0000 0.0000 1830.5014 -7396.9838 310.6222 -9227.4852 -7540.5869 298.2470 -530.7342 -473.0379 30583.7614 -215.1381 -147.9061
ENERGY: 600000 2.9540 5.7919 5.6446 0.0000 -10677.2513 1394.8547 0.0000 0.0000 1774.7552 -7493.2510 301.1625 -9268.0062 -7514.6532 297.4687 -501.4260 -442.3639 30300.0934 -305.8729 -261.0011
ENERGY: 900000 4.0847 6.7172 6.5091 0.0000 -10663.3412 1441.4553 0.0000 0.0000 1721.9454 -7482.6296 292.2011 -9204.5750 -7512.9199 297.8783 270.6299 284.4226 30135.6501 -254.0161 -217.6553
ENERGY: 1200000 1.9701 2.7632 4.6692 0.0000 -10856.9639 1503.5955 0.0000 0.0000 1730.6009 -7613.3651 293.6699 -9343.9659 -7517.9156 297.6776 329.0923 403.9495 30036.3216 -274.7499 -235.6257
ENERGY: 1500000 2.7045 5.1911 4.3753 0.0000 -10658.1220 1365.4847 0.0000 0.0000 1798.2782 -7482.0883 305.1542 -9280.3665 -7513.7750 298.9674 -492.9359 -423.9231 29772.0699 -292.3551 -248.8949
TCL: Exiting due to exit command.
