Info: SIMULATION PARAMETERS:
Info: TIMESTEP               2
Info: NUMBER OF STEPS        0
Info: STEPS PER CYCLE        10
Info: PERIODIC CELL BASIS 1  31.1392 0 0
Info: PERIODIC CELL BASIS 2  0 29.7267 0
Info: PERIODIC CELL BASIS 3  0 0 33.3332
Info: PERIODIC CELL CENTER   0 0 0
Info: WRAPPING WATERS AROUND PERIODIC BOUNDARIES ON OUTPUT.
Info: WRAPPING ALL CLUSTERS AROUND PERIODIC BOUNDARIES ON OUTPUT.
Info: FIRST LDB TIMESTEP     50
Info: LAST LDB TIMESTEP     -1
Info: HOM BACKGROUND SCALING 1
Info: PME BACKGROUND SCALING 1
Info: MIN ATOMS PER PATCH    40
Info: EMPTY PATCH LOAD       40 ATOMS
Info: VELOCITY FILE          mobley_5520946_equil.vel
Info: CENTER OF MASS MOVING INITIALLY? NO
Info: DIELECTRIC             1
Info: EXCLUDE                SCALED ONE-FOUR
Info: 1-4 ELECTROSTATICS SCALED BY 0.833333
Info: MODIFIED 1-4 VDW PARAMETERS WILL BE USED
Info: DCD FILENAME           mobley_5520946_prod.dcd
Info: DCD FREQUENCY          100000
Info: DCD FIRST STEP         100000
Info: DCD FILE WILL CONTAIN UNIT CELL DATA
Info: XST FILENAME           mobley_5520946_prod.xst
Info: XST FREQUENCY          100000
Info: NO VELOCITY DCD OUTPUT
Info: NO FORCE DCD OUTPUT
Info: OUTPUT FILENAME        mobley_5520946_prod
Info: BINARY OUTPUT FILES WILL BE USED
Info: RESTART FILENAME       mobley_5520946_prod.restart
Info: RESTART FREQUENCY      100000
Info: BINARY RESTART FILES WILL BE USED
Info: CUTOFF                 9
Info: PAIRLIST DISTANCE      11
Info: PAIRLIST SHRINK RATE   0.01
Info: PAIRLIST GROW RATE     0.01
Info: PAIRLIST TRIGGER       0.3
Info: PAIRLISTS PER CYCLE    2
Info: PAIRLISTS ENABLED
Info: MARGIN                 2
Info: HYDROGEN GROUP CUTOFF  2.5
Info: PATCH DIMENSION        15.5
Info: ENERGY OUTPUT STEPS    100000
Info: ENERGY EVALUATION STEPS    100000
Info: OUTPUT ENERGY PRECISION 4
Info: CROSSTERM ENERGY INCLUDED IN DIHEDRAL
Info: TIMING OUTPUT STEPS    1000000
Info: PRESSURE OUTPUT STEPS  100000
Info: ALCHEMICAL FEP ON
Info: FEP CURRENT LAMBDA VALUE     1
Info: FEP COMPARISON LAMBDA VALUE  0.95
Info: FEP INTRA-ALCHEMICAL NON-BONDED INTERACTIONS WILL BE RETAINED
Info: FEP INTRA-ALCHEMICAL BONDED INTERACTIONS WILL BE RETAINED
Info: FEP VDW SHIFTING COEFFICIENT 5
Info: FEP ELEC. ACTIVE FOR ANNIHILATED PARTICLES BETWEEN LAMBDA = 0 AND LAMBDA = 0.5
Info: FEP ELEC. ACTIVE FOR EXNIHILATED PARTICLES BETWEEN LAMBDA = 0.5 AND LAMBDA = 1
Info: FEP VDW ACTIVE FOR ANNIHILATED PARTICLES BETWEEN LAMBDA = 0 AND LAMBDA = 1
Info: FEP VDW ACTIVE FOR EXNIHILATED PARTICLES BETWEEN LAMBDA = 0 AND LAMBDA = 1
Info: FEP BOND ACTIVE FOR ANNIHILATED PARTICLES BETWEEN LAMBDA = 1 AND LAMBDA = 1
Info: FEP BOND ACTIVE FOR EXNIHILATED PARTICLES BETWEEN LAMBDA = 0 AND LAMBDA = 0
Info: LANGEVIN DYNAMICS ACTIVE
Info: LANGEVIN TEMPERATURE   300
Info: LANGEVIN USING BBK INTEGRATOR
Info: LANGEVIN DAMPING COEFFICIENT IS 1 INVERSE PS
Info: LANGEVIN DYNAMICS APPLIED TO HYDROGENS
Info: LANGEVIN PISTON PRESSURE CONTROL ACTIVE
Info:        TARGET PRESSURE IS 1.01325 BAR
Info:     OSCILLATION PERIOD IS 50 FS
Info:             DECAY TIME IS 25 FS
Info:     PISTON TEMPERATURE IS 300 K
Info:       PRESSURE CONTROL IS GROUP-BASED
Info:    INITIAL STRAIN RATE IS 0.000181045 0.000181045 0.000181045
Info:       CELL FLUCTUATION IS ISOTROPIC
Info: PARTICLE MESH EWALD (PME) ACTIVE
Info: PME TOLERANCE               1e-06
Info: PME EWALD COEFFICIENT       0.348832
Info: PME INTERPOLATION ORDER     4
Info: PME GRID DIMENSIONS         32 32 36
Info: PME MAXIMUM GRID SPACING    1
Info: PME CALCULATION WILL BE PERFORMED ON GPU
Info: FULL ELECTROSTATIC EVALUATION FREQUENCY      2
Info: USING VERLET I (r-RESPA) MTS SCHEME.
Info: C1 SPLITTING OF LONG RANGE ELECTROSTATICS
Info: PLACING ATOMS IN PATCHES BY HYDROGEN GROUPS
Info: RIGID BONDS TO HYDROGEN : ALL
Info:         ERROR TOLERANCE : 1e-08
Info:          MAX ITERATIONS : 100
Info: RIGID WATER USING SETTLE ALGORITHM
Info: RANDOM NUMBER SEED     1743562521
Info: USE HYDROGEN BONDS?    NO
Info: Using AMBER format force field!
Info: AMBER PARM FILE        mobley_5520946.prmtop
Info: COORDINATE PDB         mobley_5520946.pdb
Info: Exclusions will be read from PARM file!
Info: SCNB (VDW SCALING)     2
Info: USING ARITHMETIC MEAN TO COMBINE L-J SIGMA PARAMETERS
Info: BINARY COORDINATES     mobley_5520946_equil.coor
Info: SUMMARY OF PARAMETERS:
Info: 6 BONDS
Info: 4 ANGLES
Info:   4 HARMONIC
Info:   0 COSINE-BASED
Info: 3 DIHEDRAL
Info: 0 IMPROPER
Info: 0 CROSSTERM
Info: 0 VDW
Info: 21 VDW_PAIRS
Info: 0 NBTHOLE_PAIRS
Info: To read alchdata from file: mobley_5520946.pdb
Info: To read alchflag data from column: 5
Info: STRUCTURE SUMMARY:
Info: 2950 ATOMS
Info: 2950 BONDS
Info: 19 ANGLES
Info: 32 DIHEDRALS
Info: 0 IMPROPERS
Info: 0 CROSSTERMS
Info: 2992 EXCLUSIONS
Info: 2943 RIGID BONDS
Info: ALCH: 0 ATOMS TO DISAPPEAR IN FINAL STATE
Info: ALCH: 13 ATOMS TO APPEAR IN FINAL STATE
Info: 5907 DEGREES OF FREEDOM
Info: 986 HYDROGEN GROUPS
Info: 3 ATOMS IN LARGEST HYDROGEN GROUP
Info: 986 MIGRATION GROUPS
Info: 3 ATOMS IN LARGEST MIGRATION GROUP
Info: TOTAL MASS = 17747.8 amu
Info: TOTAL CHARGE = -2.04891e-08 e
Info: MASS DENSITY = 0.955154 g/cm^3
Info: ATOM DENSITY = 0.0956073 atoms/A^3
Info: ADDED 0 IMPLICIT EXCLUSIONS
Info: NONBONDED TABLE R-SQUARED SPACING: 0.0625
Info: NONBONDED TABLE SIZE: 705 POINTS
Info: REMOVING COM VELOCITY 0.0311709 0.171581 0.147505
Info: Use 3D box decompostion in PME FFT.
Info: Updated CUDA force table with 4096 elements.
Info: Updated CUDA LJ table with 6 x 6 elements.
Info: Found 15 unique exclusion lists needing 28 bytes
TCL: Running for 1500000 steps
ETITLE: TS BOND ANGLE DIHED IMPRP ELECT VDW BOUNDARY MISC KINETIC TOTAL TEMP POTENTIAL TOTALAVG TEMPAVG PRESSURE GPRESSURE VOLUME PRESSAVG GPRESSAVG
ENERGY: 0 1.0517 4.7709 2.4042 0.0000 -10638.2507 1412.0466 0.0000 0.0000 1747.6981 -7470.2792 297.7761 -9217.9772 -7470.2792 297.7761 -104.5146 -27.0402 30855.3881 -104.5146 -27.0402
ENERGY: 300000 3.6693 3.6763 2.3034 0.0000 -10585.9489 1302.1034 0.0000 0.0000 1780.1805 -7494.0159 303.3105 -9274.1964 -7459.0251 301.3007 -1338.1501 -1287.5603 30728.2109 -329.5013 -266.8271
ENERGY: 600000 0.9444 2.0628 3.3961 0.0000 -10891.9392 1529.0946 0.0000 0.0000 1735.8297 -7620.6116 295.7539 -9356.4413 -7477.7831 300.2208 480.7065 517.1434 30317.1790 -157.8180 -95.3908
ENERGY: 900000 3.5719 2.8867 3.6752 0.0000 -10661.5419 1392.4526 0.0000 0.0000 1721.9157 -7537.0400 293.3832 -9258.9557 -7474.0211 300.7275 -329.3456 -264.2455 30201.4609 -56.1777 7.1871
ENERGY: 1200000 0.8327 3.5598 1.7634 0.0000 -10823.1580 1541.2478 0.0000 0.0000 1740.1452 -7535.6090 296.4892 -9275.7543 -7477.8296 300.1651 977.4143 1080.2131 30226.3929 -60.2946 5.7283
ENERGY: 1500000 3.6429 3.3169 1.3983 0.0000 -10714.1802 1411.5589 0.0000 0.0000 1791.3540 -7502.9092 305.2143 -9294.2632 -7487.0671 300.7654 -500.1168 -408.3326 30444.1481 -60.6946 7.4970
TCL: Running FEP window   2: Lambda1 0.95   Lambda2 0.8999999999999999 [dLambda -0.050000000000000044]
TCL: Setting parameter firsttimestep to 0
TCL: Setting parameter alchLambda to 0.95
Info: NONBONDED TABLE R-SQUARED SPACING: 0.0625
Info: NONBONDED TABLE SIZE: 705 POINTS
TCL: Setting parameter alchLambda2 to 0.8999999999999999
Info: NONBONDED TABLE R-SQUARED SPACING: 0.0625
Info: NONBONDED TABLE SIZE: 705 POINTS
TCL: Running for 1500000 steps
ETITLE: TS BOND ANGLE DIHED IMPRP ELECT VDW BOUNDARY MISC KINETIC TOTAL TEMP POTENTIAL TOTALAVG TEMPAVG PRESSURE GPRESSURE VOLUME PRESSAVG GPRESSAVG
ENERGY: 0 3.6429 3.3169 1.3983 0.0000 -10713.9273 1411.5970 0.0000 0.0000 1790.4593 -7503.5129 305.0618 -9293.9722 -7503.5129 305.0618 -506.9167 -416.2748 30444.1481 -506.9167 -416.2748
ENERGY: 300000 1.9694 6.8120 5.8256 0.0000 -10759.7961 1468.1893 0.0000 0.0000 1713.1776 -7563.8223 291.8944 -9276.9999 -7546.9989 300.0413 388.6612 407.8078 30022.4315 184.5865 217.3000
ENERGY: 600000 1.8413 2.1775 1.1458 0.0000 -10858.6192 1532.5266 0.0000 0.0000 1719.2126 -7601.7154 292.9227 -9320.9280 -7546.9249 296.9999 677.4560 770.9470 30108.8635 110.9304 144.4468
ENERGY: 900000 3.0603 4.2808 2.7981 0.0000 -10738.4681 1482.4295 0.0000 0.0000 1734.4328 -7511.4666 295.5159 -9245.8994 -7525.6002 297.1409 223.3923 306.6029 30699.6101 39.4737 96.2912
ENERGY: 1200000 1.3924 2.2676 1.4533 0.0000 -10595.9323 1343.5040 0.0000 0.0000 1804.8140 -7442.5009 307.5076 -9247.3149 -7514.0822 298.2726 -636.7596 -610.0647 30556.5282 8.3058 62.3903
ENERGY: 1500000 1.8489 1.3727 2.4206 0.0000 -10731.9107 1427.6040 0.0000 0.0000 1761.1589 -7537.5056 300.0696 -9298.6645 -7517.8020 298.4833 -200.6934 -112.8603 30463.5073 -47.5376 8.6681
TCL: Running FEP window   3: Lambda1 0.8999999999999999 Lambda2 0.8499999999999999 [dLambda -0.050000000000000044]
TCL: Setting parameter firsttimestep to 0
TCL: Setting parameter alchLambda to 0.8999999999999999
Info: NONBONDED TABLE R-SQUARED SPACING: 0.0625
Info: NONBONDED TABLE SIZE: 705 POINTS
TCL: Setting parameter alchLambda2 to 0.8499999999999999
Info: NONBONDED TABLE R-SQUARED SPACING: 0.0625
Info: NONBONDED TABLE SIZE: 705 POINTS
TCL: Running for 1500000 steps
ETITLE: TS BOND ANGLE DIHED IMPRP ELECT VDW BOUNDARY MISC KINETIC TOTAL TEMP POTENTIAL TOTALAVG TEMPAVG PRESSURE GPRESSURE VOLUME PRESSAVG GPRESSAVG
ENERGY: 0 1.8489 1.3727 2.4206 0.0000 -10730.8930 1426.7173 0.0000 0.0000 1760.2989 -7538.2346 299.9230 -9298.5335 -7538.2346 299.9230 -230.0323 -138.3100 30463.5073 -230.0323 -138.3100
ENERGY: 300000 2.0561 1.7425 2.4683 0.0000 -10710.7335 1434.7781 0.0000 0.0000 1752.8270 -7516.8615 298.6500 -9269.6885 -7482.3707 301.2525 -208.2706 -185.4703 30610.8959 -125.4989 -56.8339
ENERGY: 600000 1.8669 2.6130 3.3470 0.0000 -10659.9471 1393.5699 0.0000 0.0000 1760.1075 -7498.4429 299.8904 -9258.5504 -7484.0930 301.8631 -430.4122 -438.3441 30623.5194 -131.3774 -76.1906
ENERGY: 900000 1.7032 8.2610 3.1641 0.0000 -10634.8688 1418.5782 0.0000 0.0000 1712.5617 -7490.6006 291.7895 -9203.1623 -7483.5115 300.7174 -292.0480 -221.7000 30834.9330 -103.7258 -53.9177
ENERGY: 1200000 3.5972 2.0495 1.5545 0.0000 -10476.4435 1312.8065 0.0000 0.0000 1790.5196 -7365.9162 305.0721 -9156.4358 -7467.0624 301.2966 -604.1368 -585.8264 30323.0846 -86.0743 -33.4841
ENERGY: 1500000 2.0345 1.4685 3.3158 0.0000 -10589.7463 1346.9080 0.0000 0.0000 1779.5947 -7456.4248 303.2107 -9236.0194 -7464.5605 301.3652 -499.1040 -463.0272 30612.1074 -95.7574 -45.2639
TCL: Running FEP window   4: Lambda1 0.8499999999999999 Lambda2 0.7999999999999998 [dLambda -0.050000000000000044]
TCL: Setting parameter firsttimestep to 0
TCL: Setting parameter alchLambda to 0.8499999999999999
Info: NONBONDED TABLE R-SQUARED SPACING: 0.0625
Info: NONBONDED TABLE SIZE: 705 POINTS
TCL: Setting parameter alchLambda2 to 0.7999999999999998
Info: NONBONDED TABLE R-SQUARED SPACING: 0.0625
Info: NONBONDED TABLE SIZE: 705 POINTS
TCL: Running for 1500000 steps
ETITLE: TS BOND ANGLE DIHED IMPRP ELECT VDW BOUNDARY MISC KINETIC TOTAL TEMP POTENTIAL TOTALAVG TEMPAVG PRESSURE GPRESSURE VOLUME PRESSAVG GPRESSAVG
ENERGY: 0 2.0345 1.4685 3.3158 0.0000 -10589.3218 1347.3606 0.0000 0.0000 1778.7490 -7456.3933 303.0666 -9235.1423 -7456.3933 303.0666 -540.5388 -465.8522 30612.1074 -540.5388 -465.8522
ENERGY: 300000 1.6907 1.5491 0.7192 0.0000 -10589.4311 1384.5752 0.0000 0.0000 1764.0108 -7436.8861 300.5555 -9200.8969 -7491.5117 300.3545 -572.3249 -487.0592 31013.1577 -36.9454 19.4454
ENERGY: 600000 2.2378 3.4386 1.4622 0.0000 -10608.6601 1335.7693 0.0000 0.0000 1800.8195 -7464.9327 306.8270 -9265.7522 -7496.3137 300.8795 -647.0577 -610.5307 30378.1316 -165.4038 -112.2928
ENERGY: 900000 2.5667 4.3580 2.3181 0.0000 -10678.0941 1435.5442 0.0000 0.0000 1778.6215 -7454.6857 303.0449 -9233.3071 -7501.8273 300.1551 -346.3504 -195.1291 30718.4404 -25.7590 35.8812
ENERGY: 1200000 0.6858 4.4545 3.7692 0.0000 -10695.1020 1414.8205 0.0000 0.0000 1772.7369 -7498.6350 302.0422 -9271.3719 -7499.2102 299.7794 -174.6311 -72.0973 30174.4063 -52.6758 3.3089
ENERGY: 1500000 3.4416 3.9643 4.2091 0.0000 -10646.6685 1366.9155 0.0000 0.0000 1786.1787 -7481.9593 304.3325 -9268.1380 -7492.4388 300.7826 -564.1448 -514.8106 30488.3257 -52.1508 5.7651
TCL: Running FEP window   5: Lambda1 0.7999999999999998 Lambda2 0.7499999999999998 [dLambda -0.050000000000000044]
TCL: Setting parameter firsttimestep to 0
TCL: Setting parameter alchLambda to 0.7999999999999998
Info: NONBONDED TABLE R-SQUARED SPACING: 0.0625
Info: NONBONDED TABLE SIZE: 705 POINTS
TCL: Setting parameter alchLambda2 to 0.7499999999999998
Info: NONBONDED TABLE R-SQUARED SPACING: 0.0625
Info: NONBONDED TABLE SIZE: 705 POINTS
TCL: Running for 1500000 steps
ETITLE: TS BOND ANGLE DIHED IMPRP ELECT VDW BOUNDARY MISC KINETIC TOTAL TEMP POTENTIAL TOTALAVG TEMPAVG PRESSURE GPRESSURE VOLUME PRESSAVG GPRESSAVG
ENERGY: 0 3.4416 3.9643 4.2091 0.0000 -10646.1307 1366.7619 0.0000 0.0000 1785.2982 -7482.4556 304.1825 -9267.7538 -7482.4556 304.1825 -604.7166 -526.4766 30488.3257 -604.7166 -526.4766
ENERGY: 300000 3.4323 6.0909 1.6866 0.0000 -10657.3084 1425.6340 0.0000 0.0000 1803.4499 -7417.0147 307.2752 -9220.4646 -7461.8504 301.9208 -163.6432 -41.1218 30484.2310 -305.1424 -244.7810
ENERGY: 600000 2.0538 2.3646 4.7687 0.0000 -10720.4411 1432.4278 0.0000 0.0000 1724.4654 -7554.3609 293.8177 -9278.8263 -7460.9093 302.8770 -100.5836 -35.6805 30231.3329 -76.7751 -16.4951
ENERGY: 900000 3.1352 3.7498 2.2144 0.0000 -10654.3829 1395.4533 0.0000 0.0000 1754.6865 -7495.1437 298.9668 -9249.8302 -7470.2421 300.9239 -23.2191 29.4735 30016.6456 -103.4795 -37.8432
ENERGY: 1200000 2.5178 4.1210 1.7488 0.0000 -10497.6032 1367.3049 0.0000 0.0000 1793.7451 -7328.1656 305.6217 -9121.9107 -7463.7901 300.8654 -754.3280 -655.2770 31233.1964 -109.6138 -39.8126
ENERGY: 1500000 1.1865 6.1885 1.2293 0.0000 -10665.4793 1419.2851 0.0000 0.0000 1784.5057 -7453.0843 304.0474 -9237.5900 -7462.3070 301.2535 -26.7817 41.0749 30086.3082 -127.7627 -62.9702
TCL: Running FEP window   6: Lambda1 0.7499999999999998 Lambda2 0.6999999999999997 [dLambda -0.050000000000000044]
TCL: Setting parameter firsttimestep to 0
TCL: Setting parameter alchLambda to 0.7499999999999998
Info: NONBONDED TABLE R-SQUARED SPACING: 0.0625
Info: NONBONDED TABLE SIZE: 705 POINTS
TCL: Setting parameter alchLambda2 to 0.6999999999999997
Info: NONBONDED TABLE R-SQUARED SPACING: 0.0625
Info: NONBONDED TABLE SIZE: 705 POINTS
TCL: Running for 1500000 steps
ETITLE: TS BOND ANGLE DIHED IMPRP ELECT VDW BOUNDARY MISC KINETIC TOTAL TEMP POTENTIAL TOTALAVG TEMPAVG PRESSURE GPRESSURE VOLUME PRESSAVG GPRESSAVG
ENERGY: 0 1.1865 6.1885 1.2292 0.0000 -10664.7319 1419.4673 0.0000 0.0000 1783.6465 -7453.0139 303.9010 -9236.6604 -7453.0139 303.9010 -45.2978 33.6202 30086.3082 -45.2978 33.6202
ENERGY: 300000 1.3539 5.4377 2.7482 0.0000 -10803.5587 1498.3151 0.0000 0.0000 1748.5793 -7547.1246 297.9262 -9295.7039 -7466.5457 300.4375 294.4854 349.5990 30159.3774 -76.5198 1.8415
ENERGY: 600000 2.6614 3.7446 2.0462 0.0000 -10568.0990 1420.7638 0.0000 0.0000 1835.2895 -7303.5935 312.7001 -9138.8830 -7444.4069 300.9386 252.5137 231.6129 30646.4232 32.3513 83.8446
ENERGY: 900000 1.9695 3.7960 1.0490 0.0000 -10813.6149 1467.2171 0.0000 0.0000 1715.6014 -7623.9819 292.3074 -9339.5833 -7482.5744 299.8728 -157.3648 -154.2751 30342.3537 -58.8616 -12.8222
ENERGY: 1200000 1.4973 1.8763 1.5583 0.0000 -10810.4316 1460.4466 0.0000 0.0000 1741.8406 -7603.2125 296.7781 -9345.0531 -7483.1127 301.0877 376.5256 462.6802 29870.0340 -98.9119 -42.9621
ENERGY: 1500000 4.5773 4.2663 2.1588 0.0000 -10735.0327 1459.5534 0.0000 0.0000 1823.9327 -7440.5442 310.7651 -9264.4769 -7479.5902 302.3882 287.3172 363.8463 30036.7335 -44.5106 18.9550
TCL: Running FEP window   7: Lambda1 0.6999999999999997 Lambda2 0.6499999999999997 [dLambda -0.050000000000000044]
TCL: Setting parameter firsttimestep to 0
TCL: Setting parameter alchLambda to 0.6999999999999997
Info: NONBONDED TABLE R-SQUARED SPACING: 0.0625
Info: NONBONDED TABLE SIZE: 705 POINTS
TCL: Setting parameter alchLambda2 to 0.6499999999999997
Info: NONBONDED TABLE R-SQUARED SPACING: 0.0625
Info: NONBONDED TABLE SIZE: 705 POINTS
TCL: Running for 1500000 steps
ETITLE: TS BOND ANGLE DIHED IMPRP ELECT VDW BOUNDARY MISC KINETIC TOTAL TEMP POTENTIAL TOTALAVG TEMPAVG PRESSURE GPRESSURE VOLUME PRESSAVG GPRESSAVG
ENERGY: 0 4.5773 4.2663 2.1588 0.0000 -10734.4311 1459.7977 0.0000 0.0000 1823.0195 -7440.6116 310.6095 -9263.6311 -7440.6116 310.6095 283.9968 360.7216 30036.7335 283.9968 360.7216
ENERGY: 300000 2.6897 4.5980 3.6119 0.0000 -10618.9939 1382.5323 0.0000 0.0000 1733.6298 -7491.9322 295.3791 -9225.5620 -7466.1907 303.6373 -499.7013 -395.8471 30675.0710 -113.1419 -28.3554
ENERGY: 600000 0.9525 3.9577 4.5494 0.0000 -10709.2985 1496.8632 0.0000 0.0000 1710.2165 -7492.7592 291.3899 -9202.9757 -7463.0293 302.2367 656.9052 712.1770 30096.5236 239.3207 316.5799
ENERGY: 900000 1.8067 4.4852 3.6088 0.0000 -10770.5699 1457.2433 0.0000 0.0000 1750.7535 -7552.6724 298.2967 -9303.4259 -7467.3428 301.1404 -128.4630 -51.7741 30371.3050 108.4134 182.4219
ENERGY: 1200000 1.1061 2.0702 4.2649 0.0000 -10688.4151 1480.3002 0.0000 0.0000 1757.8728 -7442.8008 299.5097 -9200.6736 -7459.1418 301.3533 211.9327 282.1561 30890.1453 90.0053 158.3250
ENERGY: 1500000 2.7348 1.0007 2.5306 0.0000 -10764.4601 1437.1807 0.0000 0.0000 1766.4021 -7554.6112 300.9629 -9321.0133 -7467.1754 301.0726 19.9145 112.7646 30310.7866 92.5009 163.7450
TCL: Running FEP window   8: Lambda1 0.6499999999999997 Lambda2 0.5999999999999996 [dLambda -0.050000000000000044]
TCL: Setting parameter firsttimestep to 0
TCL: Setting parameter alchLambda to 0.6499999999999997
Info: NONBONDED TABLE R-SQUARED SPACING: 0.0625
Info: NONBONDED TABLE SIZE: 705 POINTS
TCL: Setting parameter alchLambda2 to 0.5999999999999996
Info: NONBONDED TABLE R-SQUARED SPACING: 0.0625
Info: NONBONDED TABLE SIZE: 705 POINTS
TCL: Running for 1500000 steps
ETITLE: TS BOND ANGLE DIHED IMPRP ELECT VDW BOUNDARY MISC KINETIC TOTAL TEMP POTENTIAL TOTALAVG TEMPAVG PRESSURE GPRESSURE VOLUME PRESSAVG GPRESSAVG
ENERGY: 0 2.7348 1.0007 2.5306 0.0000 -10764.5523 1437.1925 0.0000 0.0000 1765.5253 -7555.5684 300.8135 -9321.0936 -7555.5684 300.8135 32.3824 102.4953 30310.7866 32.3824 102.4953
ENERGY: 300000 4.4146 2.8241 1.7410 0.0000 -10669.1242 1443.3393 0.0000 0.0000 1750.4602 -7466.3449 298.2467 -9216.8052 -7508.4799 300.1767 50.6193 150.0463 30436.2744 -152.0246 -87.3213
ENERGY: 600000 2.3601 3.1017 2.9923 0.0000 -10628.1691 1423.9341 0.0000 0.0000 1787.0078 -7408.7732 304.4738 -9195.7810 -7486.3904 300.7561 -181.5339 -94.2687 30850.6762 -61.1641 25.3422
ENERGY: 900000 1.6633 7.5694 6.4521 0.0000 -10767.6650 1479.5220 0.0000 0.0000 1803.4746 -7468.9835 307.2794 -9272.4582 -7467.7074 302.4711 209.7008 302.4656 30168.2261 -99.5696 -10.9206
ENERGY: 1200000 3.1214 3.0247 1.9057 0.0000 -10771.9995 1414.1423 0.0000 0.0000 1709.4683 -7640.3370 291.2624 -9349.8053 -7484.2987 300.3686 -545.8592 -475.5257 30288.4267 -82.6727 -3.4496
ENERGY: 1500000 1.6592 1.6938 2.5279 0.0000 -10641.9374 1391.4645 0.0000 0.0000 1730.1565 -7514.4354 294.7873 -9244.5920 -7477.0985 300.7602 -487.4990 -424.9992 30525.7480 -139.1537 -65.1093
TCL: Running FEP window   9: Lambda1 0.5999999999999996 Lambda2 0.5499999999999996 [dLambda -0.050000000000000044]
TCL: Setting parameter firsttimestep to 0
TCL: Setting parameter alchLambda to 0.5999999999999996
Info: NONBONDED TABLE R-SQUARED SPACING: 0.0625
Info: NONBONDED TABLE SIZE: 705 POINTS
TCL: Setting parameter alchLambda2 to 0.5499999999999996
Info: NONBONDED TABLE R-SQUARED SPACING: 0.0625
Info: NONBONDED TABLE SIZE: 705 POINTS
TCL: Running for 1500000 steps
ETITLE: TS BOND ANGLE DIHED IMPRP ELECT VDW BOUNDARY MISC KINETIC TOTAL TEMP POTENTIAL TOTALAVG TEMPAVG PRESSURE GPRESSURE VOLUME PRESSAVG GPRESSAVG
ENERGY: 0 1.6592 1.6938 2.5279 0.0000 -10641.6176 1391.4253 0.0000 0.0000 1729.2778 -7515.0336 294.6376 -9244.3114 -7515.0336 294.6376 -517.3042 -428.9075 30525.7480 -517.3042 -428.9075
ENERGY: 300000 1.5598 4.1324 0.6702 0.0000 -10726.3708 1445.4137 0.0000 0.0000 1781.2469 -7493.3478 303.4922 -9274.5947 -7477.5042 303.0815 194.9648 267.4895 30040.5923 -73.9038 -19.4029
ENERGY: 600000 6.7391 2.1103 3.3441 0.0000 -10795.9231 1513.2985 0.0000 0.0000 1789.1781 -7481.2529 304.8435 -9270.4310 -7497.0078 300.9233 376.5266 407.2558 30262.8372 -46.4900 9.4284
ENERGY: 900000 1.3218 1.8730 3.0968 0.0000 -10628.0798 1357.3714 0.0000 0.0000 1844.2419 -7420.1748 314.2254 -9264.4167 -7486.8735 301.8497 -476.0976 -406.0061 30260.8965 -143.4378 -89.7784
ENERGY: 1200000 1.6253 3.2288 2.8906 0.0000 -10702.4880 1450.1722 0.0000 0.0000 1698.3563 -7546.2148 289.3691 -9244.5711 -7497.4795 299.4670 104.4385 165.2357 30443.4925 -6.9609 45.7537
ENERGY: 1500000 1.6334 0.8346 2.2900 0.0000 -10729.3740 1476.9133 0.0000 0.0000 1715.9409 -7531.7617 292.3652 -9247.7026 -7491.7300 300.3659 225.1515 242.7208 30277.8057 71.3653 125.8310
TCL: Running FEP window  10: Lambda1 0.5499999999999996 Lambda2 0.4999999999999996 [dLambda -0.04999999999999999]
TCL: Setting parameter firsttimestep to 0
TCL: Setting parameter alchLambda to 0.5499999999999996
Info: NONBONDED TABLE R-SQUARED SPACING: 0.0625
Info: NONBONDED TABLE SIZE: 705 POINTS
TCL: Setting parameter alchLambda2 to 0.4999999999999996
Info: NONBONDED TABLE R-SQUARED SPACING: 0.0625
Info: NONBONDED TABLE SIZE: 705 POINTS
TCL: Running for 1500000 steps
ETITLE: TS BOND ANGLE DIHED IMPRP ELECT VDW BOUNDARY MISC KINETIC TOTAL TEMP POTENTIAL TOTALAVG TEMPAVG PRESSURE GPRESSURE VOLUME PRESSAVG GPRESSAVG
ENERGY: 0 1.6334 0.8346 2.2900 0.0000 -10729.1279 1476.9758 0.0000 0.0000 1715.1065 -7532.2876 292.2231 -9247.3941 -7532.2876 292.2231 157.3899 238.9576 30277.8057 157.3899 238.9576
ENERGY: 300000 0.5146 2.0651 3.7142 0.0000 -10681.3005 1449.5239 0.0000 0.0000 1726.8741 -7498.6085 294.2281 -9225.4826 -7525.3181 296.4785 316.9657 432.8279 29950.2251 -75.8831 2.0916
ENERGY: 600000 1.9640 4.3973 2.1567 0.0000 -10721.8700 1458.8376 0.0000 0.0000 1735.7070 -7518.8073 295.7330 -9254.5143 -7517.8564 295.7929 87.8463 132.0587 30244.6472 -75.7044 -4.9892
ENERGY: 900000 1.0671 2.2512 2.2876 0.0000 -10713.4221 1460.3641 0.0000 0.0000 1752.1054 -7495.3467 298.5270 -9247.4520 -7498.1896 297.8956 380.1617 426.9218 30152.0267 -72.5463 -8.1418
ENERGY: 1200000 2.5635 1.1108 1.6558 0.0000 -10608.1530 1385.9564 0.0000 0.0000 1775.5781 -7441.2883 302.5263 -9216.8664 -7493.8376 299.2244 -500.3105 -458.5555 30483.5992 -67.1754 -5.1452
ENERGY: 1500000 2.9871 2.6386 1.6874 0.0000 -10660.4525 1388.2651 0.0000 0.0000 1768.8031 -7496.0712 301.3720 -9264.8743 -7493.2399 299.6027 -467.9962 -412.0584 30329.7563 -98.2675 -42.6359
TCL: Running FEP window  11: Lambda1 0.4999999999999996 Lambda2 0.4499999999999996 [dLambda -0.04999999999999999]
TCL: Setting parameter firsttimestep to 0
TCL: Setting parameter alchLambda to 0.4999999999999996
Info: NONBONDED TABLE R-SQUARED SPACING: 0.0625
Info: NONBONDED TABLE SIZE: 705 POINTS
TCL: Setting parameter alchLambda2 to 0.4499999999999996
Info: NONBONDED TABLE R-SQUARED SPACING: 0.0625
Info: NONBONDED TABLE SIZE: 705 POINTS
TCL: Running for 1500000 steps
ETITLE: TS BOND ANGLE DIHED IMPRP ELECT VDW BOUNDARY MISC KINETIC TOTAL TEMP POTENTIAL TOTALAVG TEMPAVG PRESSURE GPRESSURE VOLUME PRESSAVG GPRESSAVG
ENERGY: 0 2.9871 2.6386 1.6874 0.0000 -10660.3171 1388.7138 0.0000 0.0000 1767.9277 -7496.3625 301.2229 -9264.2902 -7496.3625 301.2229 -491.9611 -412.3957 30329.7563 -491.9611 -412.3957
ENERGY: 300000 1.7313 2.9571 2.0261 0.0000 -10653.2827 1451.1973 0.0000 0.0000 1744.8401 -7450.5308 297.2891 -9195.3709 -7495.5330 296.6571 275.6096 344.0035 30173.6302 -264.9028 -209.9474
ENERGY: 600000 0.8322 2.5752 2.4060 0.0000 -10760.8032 1534.0428 0.0000 0.0000 1758.9315 -7462.0155 299.6901 -9220.9470 -7474.4804 298.7295 574.1026 677.5996 30647.3654 -2.4616 66.7734
ENERGY: 900000 4.5907 3.4311 2.7406 0.0000 -10780.6039 1455.2186 0.0000 0.0000 1745.3694 -7569.2536 297.3793 -9314.6230 -7485.4695 299.5179 -113.8681 -10.4865 29980.5049 -32.5784 43.2660
ENERGY: 1200000 1.1556 4.1194 2.2774 0.0000 -10800.9686 1561.4905 0.0000 0.0000 1787.0931 -7444.8326 304.4883 -9231.9257 -7475.9811 300.2083 851.4002 855.4920 30627.3638 41.6906 101.0153
ENERGY: 1500000 3.6963 1.6426 2.6198 0.0000 -10719.0447 1440.4088 0.0000 0.0000 1785.2465 -7485.4308 304.1737 -9270.6773 -7470.1817 301.2351 36.5031 89.2967 30030.4922 8.3158 69.3414
TCL: Running FEP window  12: Lambda1 0.4499999999999996 Lambda2 0.39999999999999963 [dLambda -0.04999999999999999]
TCL: Setting parameter firsttimestep to 0
TCL: Setting parameter alchLambda to 0.4499999999999996
Info: NONBONDED TABLE R-SQUARED SPACING: 0.0625
Info: NONBONDED TABLE SIZE: 705 POINTS
TCL: Setting parameter alchLambda2 to 0.39999999999999963
Info: NONBONDED TABLE R-SQUARED SPACING: 0.0625
Info: NONBONDED TABLE SIZE: 705 POINTS
TCL: Running for 1500000 steps
ETITLE: TS BOND ANGLE DIHED IMPRP ELECT VDW BOUNDARY MISC KINETIC TOTAL TEMP POTENTIAL TOTALAVG TEMPAVG PRESSURE GPRESSURE VOLUME PRESSAVG GPRESSAVG
ENERGY: 0 3.6963 1.6426 2.6198 0.0000 -10719.0413 1440.3943 0.0000 0.0000 1784.3437 -7486.3447 304.0198 -9270.6883 -7486.3447 304.0198 -4.2067 86.0205 30030.4922 -4.2067 86.0205
ENERGY: 300000 2.3961 5.5177 2.7232 0.0000 -10830.1672 1539.3697 0.0000 0.0000 1743.6853 -7536.4753 297.0924 -9280.1605 -7486.2572 301.7455 720.8457 804.0867 30015.6968 353.9648 438.9546
ENERGY: 600000 1.3966 2.9335 1.6003 0.0000 -10655.1264 1366.0808 0.0000 0.0000 1750.8190 -7532.2962 298.3078 -9283.1152 -7473.4848 302.4875 -722.5330 -697.8752 30521.9093 10.2747 79.2136
ENERGY: 900000 1.8263 2.6745 2.2057 0.0000 -10800.5920 1478.1673 0.0000 0.0000 1718.5801 -7597.1381 292.8149 -9315.7182 -7496.5490 302.1395 138.6435 213.8033 29918.5474 47.4556 120.7722
ENERGY: 1200000 0.8537 9.7552 4.7356 0.0000 -10730.7438 1448.4538 0.0000 0.0000 1765.8249 -7501.1206 300.8646 -9266.9455 -7489.5422 302.4085 -199.5226 -130.6919 30482.1772 5.2213 83.0754
ENERGY: 1500000 2.1308 3.6123 1.1181 0.0000 -10545.4942 1315.4203 0.0000 0.0000 1786.8371 -7436.3757 304.4447 -9223.2128 -7487.1820 301.9540 -996.6854 -936.5303 30211.5236 -105.4034 -37.0896
TCL: Running FEP window  13: Lambda1 0.39999999999999963 Lambda2 0.34999999999999964 [dLambda -0.04999999999999999]
TCL: Setting parameter firsttimestep to 0
TCL: Setting parameter alchLambda to 0.39999999999999963
Info: NONBONDED TABLE R-SQUARED SPACING: 0.0625
Info: NONBONDED TABLE SIZE: 705 POINTS
TCL: Setting parameter alchLambda2 to 0.34999999999999964
Info: NONBONDED TABLE R-SQUARED SPACING: 0.0625
Info: NONBONDED TABLE SIZE: 705 POINTS
TCL: Running for 1500000 steps
ETITLE: TS BOND ANGLE DIHED IMPRP ELECT VDW BOUNDARY MISC KINETIC TOTAL TEMP POTENTIAL TOTALAVG TEMPAVG PRESSURE GPRESSURE VOLUME PRESSAVG GPRESSAVG
ENERGY: 0 2.1308 3.6123 1.1181 0.0000 -10545.4937 1315.4828 0.0000 0.0000 1785.9682 -7437.1815 304.2966 -9223.1497 -7437.1815 304.2966 -1035.0253 -942.6608 30211.5236 -1035.0253 -942.6608
ENERGY: 300000 1.6553 1.2699 2.0551 0.0000 -10618.8931 1415.0817 0.0000 0.0000 1736.2015 -7462.6296 295.8173 -9198.8311 -7507.5538 299.3085 -190.3830 -136.7364 30310.2168 -216.1517 -161.2803
ENERGY: 600000 3.1583 5.4960 2.8193 0.0000 -10679.2437 1456.7966 0.0000 0.0000 1765.6053 -7445.3682 300.8272 -9210.9735 -7502.7690 299.2666 137.1548 210.7714 30258.5333 -224.2142 -161.2980
ENERGY: 900000 1.6288 3.7198 3.0680 0.0000 -10646.5035 1439.4284 0.0000 0.0000 1722.8095 -7475.8491 293.5355 -9198.6586 -7492.5597 298.9219 -147.9400 -117.8445 30618.1623 -201.4765 -147.2031
ENERGY: 1200000 0.6718 3.3117 3.5225 0.0000 -10588.0180 1404.8832 0.0000 0.0000 1772.9807 -7402.6481 302.0838 -9175.6288 -7480.8514 299.4549 -332.5585 -280.6497 30825.2094 -65.6812 -6.6352
ENERGY: 1500000 2.7746 2.9404 3.0992 0.0000 -10774.7881 1563.3951 0.0000 0.0000 1791.5047 -7411.0742 305.2399 -9202.5789 -7478.5213 299.7206 1228.7311 1282.3910 30416.2158 -2.5108 53.1978
TCL: Running FEP window  14: Lambda1 0.34999999999999964 Lambda2 0.29999999999999966 [dLambda -0.04999999999999999]
TCL: Setting parameter firsttimestep to 0
TCL: Setting parameter alchLambda to 0.34999999999999964
Info: NONBONDED TABLE R-SQUARED SPACING: 0.0625
Info: NONBONDED TABLE SIZE: 705 POINTS
TCL: Setting parameter alchLambda2 to 0.29999999999999966
Info: NONBONDED TABLE R-SQUARED SPACING: 0.0625
Info: NONBONDED TABLE SIZE: 705 POINTS
TCL: Running for 1500000 steps
ETITLE: TS BOND ANGLE DIHED IMPRP ELECT VDW BOUNDARY MISC KINETIC TOTAL TEMP POTENTIAL TOTALAVG TEMPAVG PRESSURE GPRESSURE VOLUME PRESSAVG GPRESSAVG
ENERGY: 0 2.7746 2.9404 3.0992 0.0000 -10774.7878 1563.8923 0.0000 0.0000 1790.6178 -7411.4635 305.0888 -9202.0813 -7411.4635 305.0888 1193.7675 1283.9215 30416.2158 1193.7675 1283.9215
ENERGY: 300000 2.8037 4.3946 2.1727 0.0000 -10658.6179 1445.7852 0.0000 0.0000 1734.9726 -7468.4890 295.6079 -9203.4617 -7456.6773 301.6707 649.0631 712.7464 29773.2858 385.7869 446.6401
ENERGY: 600000 2.0568 1.8341 1.6488 0.0000 -10678.5381 1396.7277 0.0000 0.0000 1776.7098 -7499.5608 302.7192 -9276.2706 -7471.0073 302.0221 -508.1836 -454.9393 30508.3843 165.3443 218.6348
ENERGY: 900000 3.2913 1.5745 3.0890 0.0000 -10613.2665 1359.6423 0.0000 0.0000 1788.7959 -7456.8736 304.7784 -9245.6696 -7464.4237 302.2294 -642.4234 -549.4822 30369.1494 18.0036 83.2518
ENERGY: 1200000 2.0790 1.5523 2.2503 0.0000 -10637.8040 1433.4613 0.0000 0.0000 1737.2856 -7461.1756 296.0020 -9198.4611 -7469.6140 301.0062 -75.1750 16.0076 30184.6764 -50.5804 16.7762
ENERGY: 1500000 1.2294 3.3763 1.6656 0.0000 -10659.5406 1527.5173 0.0000 0.0000 1759.2732 -7366.4788 299.7483 -9125.7520 -7454.9859 301.4037 740.2740 797.6398 30691.5979 15.7741 78.0743
TCL: Running FEP window  15: Lambda1 0.29999999999999966 Lambda2 0.24999999999999967 [dLambda -0.04999999999999999]
TCL: Setting parameter firsttimestep to 0
TCL: Setting parameter alchLambda to 0.29999999999999966
Info: NONBONDED TABLE R-SQUARED SPACING: 0.0625
Info: NONBONDED TABLE SIZE: 705 POINTS
TCL: Setting parameter alchLambda2 to 0.24999999999999967
Info: NONBONDED TABLE R-SQUARED SPACING: 0.0625
Info: NONBONDED TABLE SIZE: 705 POINTS
TCL: Running for 1500000 steps
ETITLE: TS BOND ANGLE DIHED IMPRP ELECT VDW BOUNDARY MISC KINETIC TOTAL TEMP POTENTIAL TOTALAVG TEMPAVG PRESSURE GPRESSURE VOLUME PRESSAVG GPRESSAVG
ENERGY: 0 1.2294 3.3763 1.6656 0.0000 -10659.5405 1527.8176 0.0000 0.0000 1758.4131 -7367.0385 299.6017 -9125.4516 -7367.0385 299.6017 719.9969 796.4934 30691.5979 719.9969 796.4934
ENERGY: 300000 2.2518 3.9806 0.9575 0.0000 -10754.9357 1459.4270 0.0000 0.0000 1767.9706 -7520.3482 301.2302 -9288.3188 -7452.7923 300.8652 -155.1366 -153.4923 30622.2820 207.2475 252.2234
ENERGY: 600000 1.7312 4.4500 2.4212 0.0000 -10655.2590 1437.0213 0.0000 0.0000 1760.8593 -7448.7760 300.0185 -9209.6353 -7447.2536 301.0902 28.5249 50.1801 30166.5193 33.6439 70.9967
ENERGY: 900000 3.5814 2.8462 2.1956 0.0000 -10778.6244 1508.7278 0.0000 0.0000 1797.7846 -7463.4889 306.3099 -9261.2735 -7460.5322 301.6916 679.1768 719.5319 30185.6970 6.8949 50.9619
ENERGY: 1200000 1.2561 3.3851 1.7414 0.0000 -10914.0081 1537.6032 0.0000 0.0000 1766.8070 -7603.2152 301.0319 -9370.0222 -7472.1659 300.8099 756.1867 823.2840 29656.8014 115.4935 164.4922
ENERGY: 1500000 3.2372 3.1194 2.5269 0.0000 -10659.8067 1385.7362 0.0000 0.0000 1758.8335 -7506.3536 299.6734 -9265.1871 -7477.2445 299.6915 -729.7732 -603.7406 30763.0012 53.6983 111.3056
TCL: Running FEP window  16: Lambda1 0.24999999999999967 Lambda2 0.19999999999999968 [dLambda -0.04999999999999999]
TCL: Setting parameter firsttimestep to 0
TCL: Setting parameter alchLambda to 0.24999999999999967
Info: NONBONDED TABLE R-SQUARED SPACING: 0.0625
Info: NONBONDED TABLE SIZE: 705 POINTS
TCL: Setting parameter alchLambda2 to 0.19999999999999968
Info: NONBONDED TABLE R-SQUARED SPACING: 0.0625
Info: NONBONDED TABLE SIZE: 705 POINTS
TCL: Running for 1500000 steps
ETITLE: TS BOND ANGLE DIHED IMPRP ELECT VDW BOUNDARY MISC KINETIC TOTAL TEMP POTENTIAL TOTALAVG TEMPAVG PRESSURE GPRESSURE VOLUME PRESSAVG GPRESSAVG
ENERGY: 0 3.2372 3.1194 2.5269 0.0000 -10659.8044 1385.9461 0.0000 0.0000 1757.9857 -7506.9891 299.5289 -9264.9748 -7506.9891 299.5289 -697.9648 -606.2396 30763.0012 -697.9648 -606.2396
ENERGY: 300000 2.5297 5.8080 1.0525 0.0000 -10650.2033 1346.2159 0.0000 0.0000 1793.3066 -7501.2905 305.5470 -9294.5972 -7530.8922 299.6087 -1127.6884 -1074.5958 30796.4577 -356.0337 -290.5915
ENERGY: 600000 3.6064 1.8604 0.8699 0.0000 -10694.9167 1449.8359 0.0000 0.0000 1780.7272 -7458.0168 303.4036 -9238.7440 -7491.2440 300.5718 133.3422 227.0325 30092.6414 -243.8455 -181.6934
ENERGY: 900000 4.2799 2.7780 4.0497 0.0000 -10600.4040 1402.6224 0.0000 0.0000 1745.5013 -7441.1726 297.4018 -9186.6739 -7477.6512 300.5182 -110.5613 -126.9962 30336.8551 -174.3088 -121.4314
ENERGY: 1200000 1.5292 1.7622 1.2684 0.0000 -10680.0854 1416.9233 0.0000 0.0000 1686.4386 -7572.1637 287.3386 -9258.6022 -7475.2875 300.4255 -437.2772 -311.1046 30402.2314 -142.2219 -84.4963
ENERGY: 1500000 1.3974 1.8088 4.1487 0.0000 -10733.4711 1497.1156 0.0000 0.0000 1679.1772 -7549.8234 286.1014 -9229.0006 -7487.7811 299.4416 624.6565 664.7269 30170.0237 -101.2339 -42.9042
TCL: Running FEP window  17: Lambda1 0.19999999999999968 Lambda2 0.1499999999999997 [dLambda -0.04999999999999999]
TCL: Setting parameter firsttimestep to 0
TCL: Setting parameter alchLambda to 0.19999999999999968
Info: NONBONDED TABLE R-SQUARED SPACING: 0.0625
Info: NONBONDED TABLE SIZE: 705 POINTS
TCL: Setting parameter alchLambda2 to 0.1499999999999997
Info: NONBONDED TABLE R-SQUARED SPACING: 0.0625
Info: NONBONDED TABLE SIZE: 705 POINTS
TCL: Running for 1500000 steps
ETITLE: TS BOND ANGLE DIHED IMPRP ELECT VDW BOUNDARY MISC KINETIC TOTAL TEMP POTENTIAL TOTALAVG TEMPAVG PRESSURE GPRESSURE VOLUME PRESSAVG GPRESSAVG
ENERGY: 0 1.3974 1.8088 4.1487 0.0000 -10733.4697 1497.0433 0.0000 0.0000 1678.2755 -7550.7959 285.9477 -9229.0714 -7550.7959 285.9477 581.1431 662.0641 30170.0237 581.1431 662.0641
ENERGY: 300000 4.3161 5.1302 4.7381 0.0000 -10668.3974 1449.9267 0.0000 0.0000 1767.7648 -7436.5213 301.1951 -9204.2862 -7490.5423 294.4850 8.2779 67.5543 30412.6742 57.1234 109.5885
ENERGY: 600000 0.9742 1.5815 2.4361 0.0000 -10744.1167 1488.0049 0.0000 0.0000 1693.5232 -7557.5967 288.5457 -9251.1199 -7513.3854 292.7672 244.1448 278.1441 30559.4026 -119.9462 -62.1095
ENERGY: 900000 1.5411 2.4133 4.4632 0.0000 -10528.1975 1390.8911 0.0000 0.0000 1777.2740 -7351.6148 302.8153 -9128.8888 -7501.0966 293.5045 -235.6554 -141.2041 30486.2905 39.7840 96.8037
ENERGY: 1200000 0.8470 6.0517 2.0526 0.0000 -10680.8604 1487.0580 0.0000 0.0000 1735.1990 -7449.6521 295.6465 -9184.8511 -7483.7026 296.0061 675.0509 738.3617 30059.9125 71.6704 137.6703
ENERGY: 1500000 0.6329 1.5184 1.3372 0.0000 -10699.9875 1386.6787 0.0000 0.0000 1785.7631 -7524.0571 304.2617 -9309.8202 -7481.9818 297.3999 -461.9140 -396.2951 30244.4131 38.6383 103.5768
TCL: Running FEP window  18: Lambda1 0.1499999999999997 Lambda2 0.09999999999999969 [dLambda -0.05 ]
TCL: Setting parameter firsttimestep to 0
TCL: Setting parameter alchLambda to 0.1499999999999997
Info: NONBONDED TABLE R-SQUARED SPACING: 0.0625
Info: NONBONDED TABLE SIZE: 705 POINTS
TCL: Setting parameter alchLambda2 to 0.09999999999999969
Info: NONBONDED TABLE R-SQUARED SPACING: 0.0625
Info: NONBONDED TABLE SIZE: 705 POINTS
TCL: Running for 1500000 steps
ETITLE: TS BOND ANGLE DIHED IMPRP ELECT VDW BOUNDARY MISC KINETIC TOTAL TEMP POTENTIAL TOTALAVG TEMPAVG PRESSURE GPRESSURE VOLUME PRESSAVG GPRESSAVG
ENERGY: 0 0.6329 1.5184 1.3372 0.0000 -10699.9876 1387.2221 0.0000 0.0000 1784.8644 -7524.4126 304.1086 -9309.2770 -7524.4126 304.1086 -473.4906 -396.8365 30244.4131 -473.4906 -396.8365
ENERGY: 300000 1.5980 1.3683 1.8944 0.0000 -10601.1783 1480.3574 0.0000 0.0000 1786.5074 -7329.4528 304.3885 -9115.9602 -7417.2756 305.2599 339.1163 438.4221 30865.1625 -191.1642 -109.2986
ENERGY: 600000 1.3956 2.2390 3.6601 0.0000 -10602.1074 1325.2570 0.0000 0.0000 1640.2256 -7629.3301 279.4647 -9269.5557 -7461.8112 301.0011 -1033.4400 -896.2171 30078.9461 -308.7609 -233.0903
ENERGY: 900000 1.2603 1.9996 6.2231 0.0000 -10530.8441 1385.8722 0.0000 0.0000 1741.8649 -7393.6240 296.7822 -9135.4890 -7456.9477 300.2957 -336.1002 -289.4421 30680.7491 -229.7485 -156.1875
ENERGY: 1200000 3.2497 4.2634 0.6521 0.0000 -10604.5195 1370.3333 0.0000 0.0000 1774.9403 -7451.0807 302.4177 -9226.0210 -7455.4591 300.9812 -723.5558 -657.6742 30480.4514 -214.2576 -144.0403
ENERGY: 1500000 2.4240 1.4948 3.9426 0.0000 -10624.4663 1442.3964 0.0000 0.0000 1729.0693 -7445.1392 294.6021 -9174.2085 -7454.0681 301.0364 153.9411 248.3895 30077.7065 -75.4327 -6.6289
TCL: Running FEP window  19: Lambda1 0.09999999999999969 Lambda2 0.049999999999999684 [dLambda -0.05 ]
TCL: Setting parameter firsttimestep to 0
TCL: Setting parameter alchLambda to 0.09999999999999969
Info: NONBONDED TABLE R-SQUARED SPACING: 0.0625
Info: NONBONDED TABLE SIZE: 705 POINTS
TCL: Setting parameter alchLambda2 to 0.049999999999999684
Info: NONBONDED TABLE R-SQUARED SPACING: 0.0625
Info: NONBONDED TABLE SIZE: 705 POINTS
TCL: Running for 1500000 steps
ETITLE: TS BOND ANGLE DIHED IMPRP ELECT VDW BOUNDARY MISC KINETIC TOTAL TEMP POTENTIAL TOTALAVG TEMPAVG PRESSURE GPRESSURE VOLUME PRESSAVG GPRESSAVG
ENERGY: 0 2.4240 1.4948 3.9426 0.0000 -10624.4675 1442.5526 0.0000 0.0000 1728.1665 -7445.8871 294.4483 -9174.0536 -7445.8871 294.4483 149.3548 243.5633 30077.7065 149.3548 243.5633
ENERGY: 300000 2.0709 3.2571 0.9507 0.0000 -10705.1179 1454.7097 0.0000 0.0000 1748.8692 -7495.2603 297.9756 -9244.1295 -7554.2890 289.6370 -95.0366 0.2090 30109.3178 -215.2169 -139.5268
ENERGY: 600000 2.4590 2.6897 4.4599 0.0000 -10759.3556 1470.7777 0.0000 0.0000 1726.5230 -7552.4463 294.1682 -9278.9693 -7544.5204 293.4486 177.9673 267.2027 30030.2020 -262.5379 -192.7805
ENERGY: 900000 2.3274 1.6661 3.5449 0.0000 -10715.8831 1434.3284 0.0000 0.0000 1745.8209 -7528.1954 297.4562 -9274.0163 -7529.4793 295.3666 -84.4641 43.4104 30205.0361 -197.2750 -125.0041
ENERGY: 1200000 3.8956 3.2354 1.9025 0.0000 -10645.6053 1416.5644 0.0000 0.0000 1744.1084 -7475.8991 297.1645 -9220.0075 -7512.6973 296.8821 -212.9156 -183.3524 30744.6833 -45.9995 26.3959
ENERGY: 1500000 1.1121 3.2431 2.7786 0.0000 -10706.4119 1427.0311 0.0000 0.0000 1794.5952 -7477.6518 305.7665 -9272.2470 -7504.7315 297.3949 -140.2331 12.1902 30005.9715 -25.5816 47.8339
TCL: Running FEP window  20: Lambda1 0.049999999999999684 Lambda2 0.0    [dLambda -0.049999999999999684]
TCL: Setting parameter firsttimestep to 0
TCL: Setting parameter alchLambda to 0.049999999999999684
Info: NONBONDED TABLE R-SQUARED SPACING: 0.0625
Info: NONBONDED TABLE SIZE: 705 POINTS
TCL: Setting parameter alchLambda2 to 0.0
Info: NONBONDED TABLE R-SQUARED SPACING: 0.0625
Info: NONBONDED TABLE SIZE: 705 POINTS
TCL: Running for 1500000 steps
ETITLE: TS BOND ANGLE DIHED IMPRP ELECT VDW BOUNDARY MISC KINETIC TOTAL TEMP POTENTIAL TOTALAVG TEMPAVG PRESSURE GPRESSURE VOLUME PRESSAVG GPRESSAVG
ENERGY: 0 1.1121 3.2431 2.7786 0.0000 -10706.4128 1425.1251 0.0000 0.0000 1793.7538 -7480.4000 305.6232 -9274.1539 -7480.4000 305.6232 -85.0338 3.9959 30005.9715 -85.0338 3.9959
ENERGY: 300000 2.7898 1.5870 3.0253 0.0000 -10785.6064 1454.1160 0.0000 0.0000 1760.4458 -7563.6425 299.9481 -9324.0883 -7511.9807 302.4548 -141.6410 -107.3920 30257.7375 81.5596 133.2607
ENERGY: 600000 2.4122 3.8257 1.3553 0.0000 -10565.1374 1330.3984 0.0000 0.0000 1759.2769 -7467.8689 299.7489 -9227.1458 -7520.8711 300.6774 -764.0733 -768.3343 30210.5639 -72.8027 -15.5077
ENERGY: 900000 7.0023 4.6836 1.5691 0.0000 -10611.5804 1356.5538 0.0000 0.0000 1721.8258 -7519.9459 293.3679 -9241.7716 -7501.6003 299.4910 -863.6068 -860.6183 30385.8743 -84.2756 -35.1979
ENERGY: 1200000 1.1485 3.4412 0.9942 0.0000 -10754.1441 1455.6117 0.0000 0.0000 1802.1876 -7490.7608 307.0601 -9292.9484 -7500.6352 300.7335 -109.1946 -30.8602 30304.3327 -128.2524 -73.3666
ENERGY: 1500000 3.8762 2.6885 2.7903 0.0000 -10636.0149 1429.4707 0.0000 0.0000 1739.6279 -7457.5613 296.4011 -9197.1892 -7485.0919 301.0886 -418.5786 -331.2489 30679.2780 -197.2145 -142.5653
TCL: Exiting due to exit command.
