Info: SIMULATION PARAMETERS:
Info: TIMESTEP               2
Info: NUMBER OF STEPS        0
Info: STEPS PER CYCLE        10
Info: PERIODIC CELL BASIS 1  31.6844 0 0
Info: PERIODIC CELL BASIS 2  0 31.1617 0
Info: PERIODIC CELL BASIS 3  0 0 30.5184
Info: PERIODIC CELL CENTER   0 0 0
Info: WRAPPING WATERS AROUND PERIODIC BOUNDARIES ON OUTPUT.
Info: WRAPPING ALL CLUSTERS AROUND PERIODIC BOUNDARIES ON OUTPUT.
Info: FIRST LDB TIMESTEP     50
Info: LAST LDB TIMESTEP     -1
Info: HOM BACKGROUND SCALING 1
Info: PME BACKGROUND SCALING 1
Info: MIN ATOMS PER PATCH    40
Info: EMPTY PATCH LOAD       40 ATOMS
Info: VELOCITY FILE          mobley_4639255_equil.vel
Info: CENTER OF MASS MOVING INITIALLY? NO
Info: DIELECTRIC             1
Info: EXCLUDE                SCALED ONE-FOUR
Info: 1-4 ELECTROSTATICS SCALED BY 0.833333
Info: MODIFIED 1-4 VDW PARAMETERS WILL BE USED
Info: DCD FILENAME           mobley_4639255_prod.dcd
Info: DCD FREQUENCY          100000
Info: DCD FIRST STEP         100000
Info: DCD FILE WILL CONTAIN UNIT CELL DATA
Info: XST FILENAME           mobley_4639255_prod.xst
Info: XST FREQUENCY          100000
Info: NO VELOCITY DCD OUTPUT
Info: NO FORCE DCD OUTPUT
Info: OUTPUT FILENAME        mobley_4639255_prod
Info: BINARY OUTPUT FILES WILL BE USED
Info: RESTART FILENAME       mobley_4639255_prod.restart
Info: RESTART FREQUENCY      100000
Info: BINARY RESTART FILES WILL BE USED
Info: CUTOFF                 9
Info: PAIRLIST DISTANCE      11
Info: PAIRLIST SHRINK RATE   0.01
Info: PAIRLIST GROW RATE     0.01
Info: PAIRLIST TRIGGER       0.3
Info: PAIRLISTS PER CYCLE    2
Info: PAIRLISTS ENABLED
Info: MARGIN                 2
Info: HYDROGEN GROUP CUTOFF  2.5
Info: PATCH DIMENSION        15.5
Info: ENERGY OUTPUT STEPS    100000
Info: ENERGY EVALUATION STEPS    100000
Info: OUTPUT ENERGY PRECISION 4
Info: CROSSTERM ENERGY INCLUDED IN DIHEDRAL
Info: TIMING OUTPUT STEPS    1000000
Info: PRESSURE OUTPUT STEPS  100000
Info: ALCHEMICAL FEP ON
Info: FEP CURRENT LAMBDA VALUE     0
Info: FEP COMPARISON LAMBDA VALUE  0.05
Info: FEP INTRA-ALCHEMICAL NON-BONDED INTERACTIONS WILL BE RETAINED
Info: FEP INTRA-ALCHEMICAL BONDED INTERACTIONS WILL BE RETAINED
Info: FEP VDW SHIFTING COEFFICIENT 5
Info: FEP ELEC. ACTIVE FOR ANNIHILATED PARTICLES BETWEEN LAMBDA = 0 AND LAMBDA = 0.5
Info: FEP ELEC. ACTIVE FOR EXNIHILATED PARTICLES BETWEEN LAMBDA = 0.5 AND LAMBDA = 1
Info: FEP VDW ACTIVE FOR ANNIHILATED PARTICLES BETWEEN LAMBDA = 0 AND LAMBDA = 1
Info: FEP VDW ACTIVE FOR EXNIHILATED PARTICLES BETWEEN LAMBDA = 0 AND LAMBDA = 1
Info: FEP BOND ACTIVE FOR ANNIHILATED PARTICLES BETWEEN LAMBDA = 1 AND LAMBDA = 1
Info: FEP BOND ACTIVE FOR EXNIHILATED PARTICLES BETWEEN LAMBDA = 0 AND LAMBDA = 0
Info: LANGEVIN DYNAMICS ACTIVE
Info: LANGEVIN TEMPERATURE   300
Info: LANGEVIN USING BBK INTEGRATOR
Info: LANGEVIN DAMPING COEFFICIENT IS 1 INVERSE PS
Info: LANGEVIN DYNAMICS APPLIED TO HYDROGENS
Info: LANGEVIN PISTON PRESSURE CONTROL ACTIVE
Info:        TARGET PRESSURE IS 1.01325 BAR
Info:     OSCILLATION PERIOD IS 50 FS
Info:             DECAY TIME IS 25 FS
Info:     PISTON TEMPERATURE IS 300 K
Info:       PRESSURE CONTROL IS GROUP-BASED
Info:    INITIAL STRAIN RATE IS 0.000401079 0.000401079 0.000401079
Info:       CELL FLUCTUATION IS ISOTROPIC
Info: PARTICLE MESH EWALD (PME) ACTIVE
Info: PME TOLERANCE               1e-06
Info: PME EWALD COEFFICIENT       0.348832
Info: PME INTERPOLATION ORDER     4
Info: PME GRID DIMENSIONS         32 32 32
Info: PME MAXIMUM GRID SPACING    1
Info: PME CALCULATION WILL BE PERFORMED ON GPU
Info: FULL ELECTROSTATIC EVALUATION FREQUENCY      2
Info: USING VERLET I (r-RESPA) MTS SCHEME.
Info: C1 SPLITTING OF LONG RANGE ELECTROSTATICS
Info: PLACING ATOMS IN PATCHES BY HYDROGEN GROUPS
Info: RIGID BONDS TO HYDROGEN : ALL
Info:         ERROR TOLERANCE : 1e-08
Info:          MAX ITERATIONS : 100
Info: RIGID WATER USING SETTLE ALGORITHM
Info: RANDOM NUMBER SEED     1743675276
Info: USE HYDROGEN BONDS?    NO
Info: Using AMBER format force field!
Info: AMBER PARM FILE        mobley_4639255.prmtop
Info: COORDINATE PDB         mobley_4639255.pdb
Info: Exclusions will be read from PARM file!
Info: SCNB (VDW SCALING)     2
Info: USING ARITHMETIC MEAN TO COMBINE L-J SIGMA PARAMETERS
Info: BINARY COORDINATES     mobley_4639255_equil.coor
Info: SUMMARY OF PARAMETERS:
Info: 6 BONDS
Info: 5 ANGLES
Info:   5 HARMONIC
Info:   0 COSINE-BASED
Info: 7 DIHEDRAL
Info: 0 IMPROPER
Info: 0 CROSSTERM
Info: 0 VDW
Info: 15 VDW_PAIRS
Info: 0 NBTHOLE_PAIRS
Info: To read alchdata from file: mobley_4639255.pdb
Info: To read alchflag data from column: 5
Info: STRUCTURE SUMMARY:
Info: 2923 ATOMS
Info: 2922 BONDS
Info: 14 ANGLES
Info: 22 DIHEDRALS
Info: 0 IMPROPERS
Info: 0 CROSSTERMS
Info: 2951 EXCLUSIONS
Info: 2919 RIGID BONDS
Info: ALCH: 0 ATOMS TO DISAPPEAR IN FINAL STATE
Info: ALCH: 10 ATOMS TO APPEAR IN FINAL STATE
Info: 5850 DEGREES OF FREEDOM
Info: 975 HYDROGEN GROUPS
Info: 3 ATOMS IN LARGEST HYDROGEN GROUP
Info: 975 MIGRATION GROUPS
Info: 3 ATOMS IN LARGEST MIGRATION GROUP
Info: TOTAL MASS = 17555.6 amu
Info: TOTAL CHARGE = -0.000199959 e
Info: MASS DENSITY = 0.967492 g/cm^3
Info: ATOM DENSITY = 0.0970065 atoms/A^3
Info: ADDED 0 IMPLICIT EXCLUSIONS
Info: NONBONDED TABLE R-SQUARED SPACING: 0.0625
Info: NONBONDED TABLE SIZE: 705 POINTS
Info: REDUCING NUMBER OF PATCHES TO IMPROVE LOAD BALANCE
Info: REMOVING COM VELOCITY 0.040099 0.0555211 -0.148964
Info: Use 3D box decompostion in PME FFT.
Info: Updated CUDA force table with 4096 elements.
Info: Updated CUDA LJ table with 5 x 5 elements.
Info: Found 13 unique exclusion lists needing 20 bytes
TCL: Running for 1500000 steps
ETITLE: TS BOND ANGLE DIHED IMPRP ELECT VDW BOUNDARY MISC KINETIC TOTAL TEMP POTENTIAL TOTALAVG TEMPAVG PRESSURE GPRESSURE VOLUME PRESSAVG GPRESSAVG
ENERGY: 0 0.9068 2.4940 2.2137 0.0000 -10618.3358 1441.8068 0.0000 0.0000 1724.6088 -7446.3057 296.7052 -9170.9145 -7446.3057 296.7052 -79.0618 -1.7094 30131.9885 -79.0618 -1.7094
ENERGY: 300000 1.7370 1.6931 3.3888 0.0000 -10649.1176 1454.4462 0.0000 0.0000 1744.5428 -7443.3098 300.1347 -9187.8526 -7437.9085 300.1111 430.1038 505.4510 29537.3006 -159.4191 -84.5343
ENERGY: 600000 0.3307 4.9196 2.2209 0.0000 -10545.1602 1377.2185 0.0000 0.0000 1754.8225 -7405.6480 301.9032 -9160.4706 -7420.2115 300.7812 -399.4533 -291.0385 29984.0894 -88.7394 -23.3325
ENERGY: 900000 0.6706 3.7840 2.4622 0.0000 -10678.1194 1524.9974 0.0000 0.0000 1745.9421 -7400.2630 300.3754 -9146.2051 -7417.2737 300.8159 699.3960 801.4691 29971.8960 -56.6888 3.0914
ENERGY: 1200000 0.5741 4.2883 2.7016 0.0000 -10668.4933 1462.8725 0.0000 0.0000 1779.4649 -7418.5920 306.1427 -9198.0568 -7416.7005 301.1420 87.4744 171.1552 30108.5104 -110.5791 -45.4037
ENERGY: 1500000 0.2171 4.7779 2.8668 0.0000 -10647.0028 1382.1738 0.0000 0.0000 1761.7145 -7495.2526 303.0889 -9256.9671 -7422.6614 300.8282 -489.4232 -420.8469 29726.7268 -109.6658 -47.2230
TCL: Running FEP window   2: Lambda1 0.05   Lambda2 0.1    [dLambda 0.05  ]
TCL: Setting parameter firsttimestep to 0
TCL: Setting parameter alchLambda to 0.05
Info: NONBONDED TABLE R-SQUARED SPACING: 0.0625
Info: NONBONDED TABLE SIZE: 705 POINTS
TCL: Setting parameter alchLambda2 to 0.1
Info: NONBONDED TABLE R-SQUARED SPACING: 0.0625
Info: NONBONDED TABLE SIZE: 705 POINTS
TCL: Running for 1500000 steps
ETITLE: TS BOND ANGLE DIHED IMPRP ELECT VDW BOUNDARY MISC KINETIC TOTAL TEMP POTENTIAL TOTALAVG TEMPAVG PRESSURE GPRESSURE VOLUME PRESSAVG GPRESSAVG
ENERGY: 0 0.2171 4.7779 2.8668 0.0000 -10647.0044 1383.4919 0.0000 0.0000 1760.8471 -7494.8036 302.9397 -9255.6507 -7494.8036 302.9397 -492.0060 -417.2025 29726.7268 -492.0060 -417.2025
ENERGY: 300000 1.2735 3.0805 2.2941 0.0000 -10616.6947 1414.5346 0.0000 0.0000 1810.1992 -7385.3128 311.4303 -9195.5120 -7455.5866 301.0954 -77.2508 -48.0269 29810.0631 -167.6088 -138.3149
ENERGY: 600000 2.1036 1.9858 2.7902 0.0000 -10658.3096 1477.6546 0.0000 0.0000 1711.2209 -7462.5545 294.4019 -9173.7754 -7438.9497 299.9805 239.5100 290.0956 29934.7280 -208.3314 -165.1320
ENERGY: 900000 1.7296 2.4376 1.8160 0.0000 -10709.6487 1492.4737 0.0000 0.0000 1716.6040 -7494.5878 295.3280 -9211.1918 -7432.8432 300.0393 446.0251 479.0450 29793.5781 -52.2682 -5.5482
ENERGY: 1200000 0.5580 1.4480 2.3207 0.0000 -10529.7598 1387.0050 0.0000 0.0000 1747.2997 -7391.1283 300.6090 -9138.4280 -7423.0262 299.8818 -439.5956 -373.8229 29958.7989 -58.6283 -5.2007
ENERGY: 1500000 0.5418 6.2823 2.1962 0.0000 -10703.8618 1508.8084 0.0000 0.0000 1682.6610 -7503.3720 289.4884 -9186.0330 -7432.0947 298.6211 366.7697 417.8584 30188.9523 -33.0470 23.3003
TCL: Running FEP window   3: Lambda1 0.1    Lambda2 0.15000000000000002 [dLambda 0.05000000000000002]
TCL: Setting parameter firsttimestep to 0
TCL: Setting parameter alchLambda to 0.1
Info: NONBONDED TABLE R-SQUARED SPACING: 0.0625
Info: NONBONDED TABLE SIZE: 705 POINTS
TCL: Setting parameter alchLambda2 to 0.15000000000000002
Info: NONBONDED TABLE R-SQUARED SPACING: 0.0625
Info: NONBONDED TABLE SIZE: 705 POINTS
TCL: Running for 1500000 steps
ETITLE: TS BOND ANGLE DIHED IMPRP ELECT VDW BOUNDARY MISC KINETIC TOTAL TEMP POTENTIAL TOTALAVG TEMPAVG PRESSURE GPRESSURE VOLUME PRESSAVG GPRESSAVG
ENERGY: 0 0.5418 6.2822 2.1962 0.0000 -10703.8635 1510.8285 0.0000 0.0000 1681.7803 -7502.2344 289.3369 -9184.0147 -7502.2344 289.3369 336.8785 422.4115 30188.9523 336.8785 422.4115
ENERGY: 300000 0.3068 4.3687 2.2562 0.0000 -10641.3260 1424.5792 0.0000 0.0000 1729.3881 -7480.4270 297.5274 -9209.8151 -7425.1839 302.0178 -251.8943 -157.2385 30038.4637 58.4053 134.2657
ENERGY: 600000 0.2829 4.2189 3.2688 0.0000 -10674.3208 1430.1206 0.0000 0.0000 1757.7577 -7478.6720 302.4082 -9236.4297 -7438.3073 299.0458 -172.0703 -130.5128 29909.5813 -267.3881 -198.8848
ENERGY: 900000 0.2555 2.1352 2.1553 0.0000 -10631.1224 1443.6085 0.0000 0.0000 1732.7748 -7450.1932 298.1101 -9182.9680 -7443.6143 298.2897 -32.4927 31.0490 30234.0881 -205.3248 -136.4398
ENERGY: 1200000 0.8523 3.6322 2.2386 0.0000 -10566.8861 1407.4527 0.0000 0.0000 1723.8856 -7428.8248 296.5808 -9152.7104 -7441.8492 298.0797 237.0304 287.6542 29460.3422 -214.4736 -154.0513
ENERGY: 1500000 0.7391 3.4879 1.5802 0.0000 -10592.2179 1416.3588 0.0000 0.0000 1845.9185 -7324.1334 317.5755 -9170.0519 -7431.5767 299.6453 222.9351 290.7863 29759.8650 -181.4492 -113.5486
TCL: Running FEP window   4: Lambda1 0.15000000000000002 Lambda2 0.2    [dLambda 0.04999999999999999]
TCL: Setting parameter firsttimestep to 0
TCL: Setting parameter alchLambda to 0.15000000000000002
Info: NONBONDED TABLE R-SQUARED SPACING: 0.0625
Info: NONBONDED TABLE SIZE: 705 POINTS
TCL: Setting parameter alchLambda2 to 0.2
Info: NONBONDED TABLE R-SQUARED SPACING: 0.0625
Info: NONBONDED TABLE SIZE: 705 POINTS
TCL: Running for 1500000 steps
ETITLE: TS BOND ANGLE DIHED IMPRP ELECT VDW BOUNDARY MISC KINETIC TOTAL TEMP POTENTIAL TOTALAVG TEMPAVG PRESSURE GPRESSURE VOLUME PRESSAVG GPRESSAVG
ENERGY: 0 0.7391 3.4879 1.5802 0.0000 -10592.2176 1416.5840 0.0000 0.0000 1845.0543 -7324.7721 317.4269 -9169.8264 -7324.7721 317.4269 216.9242 293.9803 29759.8650 216.9242 293.9803
ENERGY: 300000 1.8216 5.1135 2.2679 0.0000 -10646.7310 1426.5430 0.0000 0.0000 1730.7696 -7480.2155 297.7651 -9210.9851 -7398.4581 302.7014 -456.8729 -342.7917 30365.4944 123.2684 188.3911
ENERGY: 600000 0.4151 3.5839 2.4232 0.0000 -10538.6132 1470.5393 0.0000 0.0000 1685.1087 -7376.5429 289.9095 -9061.6517 -7390.2870 301.0961 359.5637 427.0993 30429.5554 224.4062 294.7852
ENERGY: 900000 0.0322 1.2884 1.9380 0.0000 -10630.2409 1472.1579 0.0000 0.0000 1741.1765 -7413.6480 299.5555 -9154.8244 -7390.1226 301.5965 556.8282 543.8280 29759.8002 333.6435 397.6944
ENERGY: 1200000 0.5144 3.0527 2.1725 0.0000 -10527.8616 1418.6777 0.0000 0.0000 1723.5699 -7379.8744 296.5264 -9103.4443 -7394.8529 300.6550 -100.9680 -72.2615 30487.0332 279.3213 327.9744
ENERGY: 1500000 1.6592 3.6746 2.7844 0.0000 -10580.1579 1416.8764 0.0000 0.0000 1718.1236 -7437.0398 295.5894 -9155.1633 -7397.5195 301.1246 -169.3346 -134.6751 29955.2504 228.0929 279.2517
TCL: Running FEP window   5: Lambda1 0.2    Lambda2 0.25   [dLambda 0.04999999999999999]
TCL: Setting parameter firsttimestep to 0
TCL: Setting parameter alchLambda to 0.2
Info: NONBONDED TABLE R-SQUARED SPACING: 0.0625
Info: NONBONDED TABLE SIZE: 705 POINTS
TCL: Setting parameter alchLambda2 to 0.25
Info: NONBONDED TABLE R-SQUARED SPACING: 0.0625
Info: NONBONDED TABLE SIZE: 705 POINTS
TCL: Running for 1500000 steps
ETITLE: TS BOND ANGLE DIHED IMPRP ELECT VDW BOUNDARY MISC KINETIC TOTAL TEMP POTENTIAL TOTALAVG TEMPAVG PRESSURE GPRESSURE VOLUME PRESSAVG GPRESSAVG
ENERGY: 0 1.6591 3.6746 2.7844 0.0000 -10580.1558 1416.9730 0.0000 0.0000 1717.2966 -7437.7680 295.4472 -9155.0646 -7437.7680 295.4472 -206.2079 -130.8612 29955.2504 -206.2079 -130.8612
ENERGY: 300000 0.2069 2.9233 2.4897 0.0000 -10625.3485 1450.7710 0.0000 0.0000 1739.2970 -7429.6606 299.2322 -9168.9575 -7421.3196 298.6851 -40.5037 18.5750 30202.2578 -289.1004 -225.0090
ENERGY: 600000 1.6567 2.1192 2.7791 0.0000 -10579.3858 1400.6055 0.0000 0.0000 1718.0720 -7454.1534 295.5806 -9172.2254 -7426.4934 297.7543 20.1143 6.3597 29692.5598 -254.8156 -196.7223
ENERGY: 900000 0.7625 2.3294 4.1012 0.0000 -10675.7740 1440.9110 0.0000 0.0000 1720.5449 -7507.1249 296.0060 -9227.6698 -7441.9984 298.0525 -216.0073 -161.7486 30312.0955 -246.5041 -186.4887
ENERGY: 1200000 1.1557 2.2130 2.2274 0.0000 -10706.1061 1461.4665 0.0000 0.0000 1780.8458 -7458.1976 306.3803 -9239.0434 -7438.3607 299.1838 -23.6898 55.2444 29846.3766 -164.1221 -97.4079
ENERGY: 1500000 2.1478 4.0581 2.1047 0.0000 -10571.0845 1393.8725 0.0000 0.0000 1702.6873 -7466.2141 292.9337 -9168.9014 -7436.7602 298.2991 -273.7034 -150.4689 29882.1237 -182.3498 -111.4532
TCL: Running FEP window   6: Lambda1 0.25   Lambda2 0.3    [dLambda 0.04999999999999999]
TCL: Setting parameter firsttimestep to 0
TCL: Setting parameter alchLambda to 0.25
Info: NONBONDED TABLE R-SQUARED SPACING: 0.0625
Info: NONBONDED TABLE SIZE: 705 POINTS
TCL: Setting parameter alchLambda2 to 0.3
Info: NONBONDED TABLE R-SQUARED SPACING: 0.0625
Info: NONBONDED TABLE SIZE: 705 POINTS
TCL: Running for 1500000 steps
ETITLE: TS BOND ANGLE DIHED IMPRP ELECT VDW BOUNDARY MISC KINETIC TOTAL TEMP POTENTIAL TOTALAVG TEMPAVG PRESSURE GPRESSURE VOLUME PRESSAVG GPRESSAVG
ENERGY: 0 2.1478 4.0581 2.1047 0.0000 -10571.0841 1393.5118 0.0000 0.0000 1701.8298 -7467.4318 292.7862 -9169.2617 -7467.4318 292.7862 -229.2025 -152.9224 29882.1237 -229.2025 -152.9224
ENERGY: 300000 0.6503 7.2216 2.5335 0.0000 -10549.3036 1396.9173 0.0000 0.0000 1718.4750 -7423.5059 295.6499 -9141.9809 -7430.0719 296.1990 -207.4403 -139.7804 29936.6836 -410.9331 -331.7261
ENERGY: 600000 1.9946 3.3417 3.1768 0.0000 -10526.5959 1412.2922 0.0000 0.0000 1737.0747 -7368.7158 298.8498 -9105.7906 -7410.2172 299.9877 -28.5724 12.9565 30246.3837 -40.3928 35.3682
ENERGY: 900000 1.7629 3.0848 2.5632 0.0000 -10603.7659 1412.6266 0.0000 0.0000 1725.6077 -7458.1207 296.8770 -9183.7284 -7418.0213 298.8047 -11.0395 37.8655 29933.7785 1.3144 80.1134
ENERGY: 1200000 1.1168 9.0660 3.5495 0.0000 -10696.5652 1487.4708 0.0000 0.0000 1737.6103 -7457.7517 298.9420 -9195.3620 -7433.2920 298.6751 307.1859 344.7988 29939.6340 -5.9365 66.2697
ENERGY: 1500000 0.4514 4.4426 3.9607 0.0000 -10608.0031 1487.1859 0.0000 0.0000 1782.1562 -7329.8063 306.6057 -9111.9625 -7426.9212 300.1532 723.6323 822.7755 29836.5262 86.8887 159.7622
TCL: Running FEP window   7: Lambda1 0.3    Lambda2 0.35   [dLambda 0.04999999999999999]
TCL: Setting parameter firsttimestep to 0
TCL: Setting parameter alchLambda to 0.3
Info: NONBONDED TABLE R-SQUARED SPACING: 0.0625
Info: NONBONDED TABLE SIZE: 705 POINTS
TCL: Setting parameter alchLambda2 to 0.35
Info: NONBONDED TABLE R-SQUARED SPACING: 0.0625
Info: NONBONDED TABLE SIZE: 705 POINTS
TCL: Running for 1500000 steps
ETITLE: TS BOND ANGLE DIHED IMPRP ELECT VDW BOUNDARY MISC KINETIC TOTAL TEMP POTENTIAL TOTALAVG TEMPAVG PRESSURE GPRESSURE VOLUME PRESSAVG GPRESSAVG
ENERGY: 0 0.4514 4.4426 3.9607 0.0000 -10608.0032 1487.0021 0.0000 0.0000 1781.3281 -7330.8183 306.4633 -9112.1464 -7330.8183 306.4633 733.8516 826.4996 29836.5262 733.8516 826.4996
ENERGY: 300000 0.4959 5.6392 3.0318 0.0000 -10505.8953 1381.6530 0.0000 0.0000 1699.6547 -7415.4208 292.4120 -9115.0755 -7399.2309 300.3263 -232.6038 -164.5903 30140.1879 -31.0017 42.3267
ENERGY: 600000 0.3599 4.3852 1.9539 0.0000 -10497.2852 1387.6551 0.0000 0.0000 1763.8082 -7339.1229 303.4491 -9102.9311 -7389.2898 301.5981 -283.2018 -237.9292 30372.0795 -53.9679 6.4884
ENERGY: 900000 0.3035 3.9458 3.5102 0.0000 -10601.6664 1422.1580 0.0000 0.0000 1785.8891 -7385.8598 307.2480 -9171.7489 -7386.8549 301.3635 156.3792 185.4650 29779.9703 -54.0757 -3.0296
ENERGY: 1200000 0.7794 3.8434 1.7815 0.0000 -10736.6299 1482.0196 0.0000 0.0000 1727.3134 -7520.8927 297.1705 -9248.2061 -7402.2998 300.2625 217.6044 281.6754 29795.4981 -130.7923 -79.6357
ENERGY: 1500000 0.8587 1.4566 2.5054 0.0000 -10564.2459 1360.6376 0.0000 0.0000 1721.5474 -7477.2402 296.1785 -9198.7875 -7407.3249 299.4744 -835.2088 -729.6483 30264.5290 -195.6099 -143.6817
TCL: Running FEP window   8: Lambda1 0.35   Lambda2 0.39999999999999997 [dLambda 0.04999999999999999]
TCL: Setting parameter firsttimestep to 0
TCL: Setting parameter alchLambda to 0.35
Info: NONBONDED TABLE R-SQUARED SPACING: 0.0625
Info: NONBONDED TABLE SIZE: 705 POINTS
TCL: Setting parameter alchLambda2 to 0.39999999999999997
Info: NONBONDED TABLE R-SQUARED SPACING: 0.0625
Info: NONBONDED TABLE SIZE: 705 POINTS
TCL: Running for 1500000 steps
ETITLE: TS BOND ANGLE DIHED IMPRP ELECT VDW BOUNDARY MISC KINETIC TOTAL TEMP POTENTIAL TOTALAVG TEMPAVG PRESSURE GPRESSURE VOLUME PRESSAVG GPRESSAVG
ENERGY: 0 0.8587 1.4566 2.5054 0.0000 -10564.2459 1360.4192 0.0000 0.0000 1720.6738 -7478.3321 296.0282 -9199.0059 -7478.3321 296.0282 -822.0949 -726.8154 30264.5290 -822.0949 -726.8154
ENERGY: 300000 2.1989 5.5566 2.8984 0.0000 -10640.5966 1406.0643 0.0000 0.0000 1706.8289 -7517.0495 293.6463 -9223.8784 -7469.0173 299.2818 -301.3472 -211.5026 29581.8505 -223.9584 -144.2831
ENERGY: 600000 0.5264 7.2015 3.3651 0.0000 -10692.5067 1509.2565 0.0000 0.0000 1701.7337 -7470.4234 292.7697 -9172.1571 -7461.3615 298.8424 675.5151 762.3097 29810.0005 -119.8590 -40.2391
ENERGY: 900000 1.0763 4.9956 2.3120 0.0000 -10650.6433 1385.2023 0.0000 0.0000 1759.8455 -7497.2116 302.7674 -9257.0571 -7452.9930 299.8936 -555.7115 -492.4278 29788.8407 -206.5029 -134.5081
ENERGY: 1200000 0.2558 3.1934 3.9180 0.0000 -10767.1792 1443.3870 0.0000 0.0000 1687.0344 -7629.3905 290.2408 -9316.4250 -7468.4552 298.3828 -359.1821 -248.3527 29765.0255 -152.9739 -78.0093
ENERGY: 1500000 2.3583 3.0021 1.4980 0.0000 -10750.1802 1533.1135 0.0000 0.0000 1743.9060 -7466.3023 300.0251 -9210.2083 -7465.7543 298.2123 902.8472 948.1426 29680.5395 -101.0378 -33.1902
TCL: Running FEP window   9: Lambda1 0.39999999999999997 Lambda2 0.44999999999999996 [dLambda 0.04999999999999999]
TCL: Setting parameter firsttimestep to 0
TCL: Setting parameter alchLambda to 0.39999999999999997
Info: NONBONDED TABLE R-SQUARED SPACING: 0.0625
Info: NONBONDED TABLE SIZE: 705 POINTS
TCL: Setting parameter alchLambda2 to 0.44999999999999996
Info: NONBONDED TABLE R-SQUARED SPACING: 0.0625
Info: NONBONDED TABLE SIZE: 705 POINTS
TCL: Running for 1500000 steps
ETITLE: TS BOND ANGLE DIHED IMPRP ELECT VDW BOUNDARY MISC KINETIC TOTAL TEMP POTENTIAL TOTALAVG TEMPAVG PRESSURE GPRESSURE VOLUME PRESSAVG GPRESSAVG
ENERGY: 0 2.3583 3.0021 1.4980 0.0000 -10750.1802 1533.2545 0.0000 0.0000 1743.0410 -7467.0263 299.8763 -9210.0673 -7467.0263 299.8763 880.3220 952.9347 29680.5395 880.3220 952.9347
ENERGY: 300000 0.3479 2.9701 2.7288 0.0000 -10740.7258 1573.8832 0.0000 0.0000 1751.7727 -7409.0231 301.3785 -9160.7958 -7431.0505 298.4807 1116.8847 1120.9886 29974.9928 147.5166 207.3755
ENERGY: 600000 0.2857 2.0658 2.7794 0.0000 -10577.0457 1447.1494 0.0000 0.0000 1762.6330 -7362.1324 303.2469 -9124.7654 -7424.7828 298.1123 -2.7891 86.1195 30353.6577 12.4948 67.4994
ENERGY: 900000 1.1030 3.5685 2.9111 0.0000 -10503.6792 1384.1737 0.0000 0.0000 1745.2698 -7366.6531 300.2597 -9111.9230 -7422.1274 299.2362 -436.0873 -335.2344 30481.5138 49.8360 106.8133
ENERGY: 1200000 0.8713 2.8789 2.0307 0.0000 -10548.3425 1361.5028 0.0000 0.0000 1719.6585 -7461.4002 295.8535 -9181.0587 -7423.0191 299.6390 -668.4266 -634.3030 30047.3754 -19.9874 29.2724
ENERGY: 1500000 0.4479 3.7410 2.0058 0.0000 -10653.1241 1491.9221 0.0000 0.0000 1798.0925 -7356.9148 309.3475 -9155.0073 -7420.9342 300.0592 570.8974 542.6561 30077.9390 -30.4019 26.5944
TCL: Running FEP window  10: Lambda1 0.44999999999999996 Lambda2 0.49999999999999994 [dLambda 0.04999999999999999]
TCL: Setting parameter firsttimestep to 0
TCL: Setting parameter alchLambda to 0.44999999999999996
Info: NONBONDED TABLE R-SQUARED SPACING: 0.0625
Info: NONBONDED TABLE SIZE: 705 POINTS
TCL: Setting parameter alchLambda2 to 0.49999999999999994
Info: NONBONDED TABLE R-SQUARED SPACING: 0.0625
Info: NONBONDED TABLE SIZE: 705 POINTS
TCL: Running for 1500000 steps
ETITLE: TS BOND ANGLE DIHED IMPRP ELECT VDW BOUNDARY MISC KINETIC TOTAL TEMP POTENTIAL TOTALAVG TEMPAVG PRESSURE GPRESSURE VOLUME PRESSAVG GPRESSAVG
ENERGY: 0 0.4479 3.7410 2.0058 0.0000 -10653.1254 1491.8022 0.0000 0.0000 1797.2239 -7357.9046 309.1980 -9155.1285 -7357.9046 309.1980 476.0425 546.5756 30077.9390 476.0425 546.5756
ENERGY: 300000 0.6939 1.3110 2.8330 0.0000 -10608.5435 1447.6118 0.0000 0.0000 1795.9085 -7360.1854 308.9717 -9156.0939 -7376.7377 306.6697 417.3498 394.6575 29720.6949 273.0167 313.5451
ENERGY: 600000 0.8273 5.4901 1.8095 0.0000 -10466.5914 1350.2641 0.0000 0.0000 1725.7147 -7382.4857 296.8954 -9108.2004 -7405.3774 301.7476 -572.9980 -549.7835 30180.1529 57.8459 112.1351
ENERGY: 900000 2.1692 5.9073 3.3195 0.0000 -10588.2787 1402.5768 0.0000 0.0000 1721.9242 -7452.3817 296.2433 -9174.3059 -7415.8438 300.5695 -219.8776 -151.7738 30009.5344 -45.4228 14.4878
ENERGY: 1200000 0.1016 4.4510 5.0724 0.0000 -10537.5603 1438.9097 0.0000 0.0000 1762.3067 -7326.7188 303.1908 -9089.0255 -7407.9375 301.2800 99.6523 225.9608 30335.5355 -149.3729 -83.9887
ENERGY: 1500000 0.0072 5.0931 2.0580 0.0000 -10692.0451 1493.7436 0.0000 0.0000 1706.0995 -7485.0437 293.5208 -9191.1432 -7423.3661 300.3840 325.2688 402.2858 29881.0550 -99.4769 -35.7361
TCL: Running FEP window  11: Lambda1 0.49999999999999994 Lambda2 0.5499999999999999 [dLambda 0.04999999999999999]
TCL: Setting parameter firsttimestep to 0
TCL: Setting parameter alchLambda to 0.49999999999999994
Info: NONBONDED TABLE R-SQUARED SPACING: 0.0625
Info: NONBONDED TABLE SIZE: 705 POINTS
TCL: Setting parameter alchLambda2 to 0.5499999999999999
Info: NONBONDED TABLE R-SQUARED SPACING: 0.0625
Info: NONBONDED TABLE SIZE: 705 POINTS
TCL: Running for 1500000 steps
ETITLE: TS BOND ANGLE DIHED IMPRP ELECT VDW BOUNDARY MISC KINETIC TOTAL TEMP POTENTIAL TOTALAVG TEMPAVG PRESSURE GPRESSURE VOLUME PRESSAVG GPRESSAVG
ENERGY: 0 0.0072 5.0931 2.0580 0.0000 -10692.0455 1494.4946 0.0000 0.0000 1705.2056 -7485.1870 293.3670 -9190.3925 -7485.1870 293.3670 337.1943 413.8834 29881.0550 337.1943 413.8834
ENERGY: 300000 1.9545 3.1458 3.5063 0.0000 -10700.4754 1475.7706 0.0000 0.0000 1782.2112 -7433.8870 306.6152 -9216.0982 -7427.2517 300.5368 553.2209 534.3752 29536.5609 160.9560 232.2161
ENERGY: 600000 1.8384 2.6906 4.1096 0.0000 -10555.1298 1429.5388 0.0000 0.0000 1724.1437 -7392.8085 296.6252 -9116.9523 -7444.8414 299.9766 102.0770 177.6252 30082.5797 44.7506 99.5331
ENERGY: 900000 0.4435 5.8096 2.3024 0.0000 -10444.7396 1356.0328 0.0000 0.0000 1702.6605 -7377.4908 292.9291 -9080.1513 -7436.3638 299.2530 -393.2159 -380.0300 30220.4554 -97.9358 -49.9109
ENERGY: 1200000 1.8291 4.2031 1.8336 0.0000 -10598.2784 1383.1193 0.0000 0.0000 1778.6845 -7428.6087 306.0085 -9207.2932 -7427.6910 301.5980 -532.3080 -513.5586 30099.2284 -117.5218 -69.7084
ENERGY: 1500000 0.9134 2.5228 2.3146 0.0000 -10636.4094 1442.4231 0.0000 0.0000 1714.7453 -7473.4902 295.0082 -9188.2355 -7430.2047 301.0460 -88.9895 -47.3858 30221.1462 -109.9329 -62.1496
TCL: Running FEP window  12: Lambda1 0.5499999999999999 Lambda2 0.6    [dLambda 0.050000000000000044]
TCL: Setting parameter firsttimestep to 0
TCL: Setting parameter alchLambda to 0.5499999999999999
Info: NONBONDED TABLE R-SQUARED SPACING: 0.0625
Info: NONBONDED TABLE SIZE: 705 POINTS
TCL: Setting parameter alchLambda2 to 0.6
Info: NONBONDED TABLE R-SQUARED SPACING: 0.0625
Info: NONBONDED TABLE SIZE: 705 POINTS
TCL: Running for 1500000 steps
ETITLE: TS BOND ANGLE DIHED IMPRP ELECT VDW BOUNDARY MISC KINETIC TOTAL TEMP POTENTIAL TOTALAVG TEMPAVG PRESSURE GPRESSURE VOLUME PRESSAVG GPRESSAVG
ENERGY: 0 0.9134 2.5228 2.3146 0.0000 -10636.6588 1442.4963 0.0000 0.0000 1713.8710 -7474.5408 294.8578 -9188.4118 -7474.5408 294.8578 -142.8572 -45.8661 30221.1462 -142.8572 -45.8661
ENERGY: 300000 1.9549 3.0466 2.9914 0.0000 -10625.3767 1476.3914 0.0000 0.0000 1720.8396 -7420.1529 296.0567 -9140.9925 -7410.1251 299.3731 570.2474 670.8320 29858.1463 181.0671 247.0743
ENERGY: 600000 1.1173 3.0787 2.6030 0.0000 -10731.0287 1502.0502 0.0000 0.0000 1729.9094 -7492.2701 297.6171 -9222.1796 -7422.2010 299.7584 649.2563 675.1502 29887.6221 224.7287 275.8988
ENERGY: 900000 0.2204 6.5381 2.9961 0.0000 -10561.1511 1330.3399 0.0000 0.0000 1703.5182 -7517.5385 293.0767 -9221.0567 -7426.7918 300.1594 -818.2364 -807.0210 29980.0107 118.0118 160.7281
ENERGY: 1200000 1.1496 3.4471 1.8242 0.0000 -10571.5684 1369.9293 0.0000 0.0000 1738.6747 -7456.5435 299.1251 -9195.2182 -7433.8045 300.6804 -518.1127 -488.1930 30014.2164 -55.2180 -11.6592
ENERGY: 1500000 0.5869 5.1774 3.8852 0.0000 -10408.4222 1283.3216 0.0000 0.0000 1756.6746 -7358.7765 302.2218 -9115.4511 -7422.8115 301.0340 -1128.5896 -1097.2736 30689.1872 -78.8619 -33.8637
TCL: Running FEP window  13: Lambda1 0.6    Lambda2 0.65   [dLambda 0.050000000000000044]
TCL: Setting parameter firsttimestep to 0
TCL: Setting parameter alchLambda to 0.6
Info: NONBONDED TABLE R-SQUARED SPACING: 0.0625
Info: NONBONDED TABLE SIZE: 705 POINTS
TCL: Setting parameter alchLambda2 to 0.65
Info: NONBONDED TABLE R-SQUARED SPACING: 0.0625
Info: NONBONDED TABLE SIZE: 705 POINTS
TCL: Running for 1500000 steps
ETITLE: TS BOND ANGLE DIHED IMPRP ELECT VDW BOUNDARY MISC KINETIC TOTAL TEMP POTENTIAL TOTALAVG TEMPAVG PRESSURE GPRESSURE VOLUME PRESSAVG GPRESSAVG
ENERGY: 0 0.5869 5.1774 3.8852 0.0000 -10408.3021 1283.1646 0.0000 0.0000 1755.8291 -7359.6589 302.0764 -9115.4880 -7359.6589 302.0764 -1171.2120 -1094.7275 30689.1872 -1171.2120 -1094.7275
ENERGY: 300000 0.1775 3.7073 1.6504 0.0000 -10627.3897 1510.3547 0.0000 0.0000 1756.8557 -7354.6440 302.2530 -9111.4997 -7388.2251 301.6600 701.9428 718.0230 30232.1286 -155.8803 -117.5612
ENERGY: 600000 0.9012 4.7348 2.4679 0.0000 -10660.4559 1446.7617 0.0000 0.0000 1754.7294 -7450.8609 301.8872 -9205.5903 -7401.3363 300.8789 1.6142 134.8142 29921.8369 -167.0744 -111.9127
ENERGY: 900000 0.6033 3.9885 2.2582 0.0000 -10604.9950 1449.2605 0.0000 0.0000 1810.0584 -7338.8261 311.4061 -9148.8845 -7406.5155 301.7399 62.9441 166.6846 30225.4137 -106.9404 -35.0660
ENERGY: 1200000 3.8011 5.2603 2.5887 0.0000 -10511.3200 1379.6426 0.0000 0.0000 1852.9645 -7267.0628 318.7877 -9120.0273 -7382.9034 302.8920 -170.1279 -102.0050 30203.9628 -75.0106 -3.9774
ENERGY: 1500000 0.1601 4.0870 2.5400 0.0000 -10620.3875 1392.3643 0.0000 0.0000 1788.9163 -7432.3197 307.7688 -9221.2361 -7390.1107 302.3575 -238.7340 -173.5919 29761.2541 -34.0803 40.0234
TCL: Running FEP window  14: Lambda1 0.65   Lambda2 0.7000000000000001 [dLambda 0.050000000000000044]
TCL: Setting parameter firsttimestep to 0
TCL: Setting parameter alchLambda to 0.65
Info: NONBONDED TABLE R-SQUARED SPACING: 0.0625
Info: NONBONDED TABLE SIZE: 705 POINTS
TCL: Setting parameter alchLambda2 to 0.7000000000000001
Info: NONBONDED TABLE R-SQUARED SPACING: 0.0625
Info: NONBONDED TABLE SIZE: 705 POINTS
TCL: Running for 1500000 steps
ETITLE: TS BOND ANGLE DIHED IMPRP ELECT VDW BOUNDARY MISC KINETIC TOTAL TEMP POTENTIAL TOTALAVG TEMPAVG PRESSURE GPRESSURE VOLUME PRESSAVG GPRESSAVG
ENERGY: 0 0.1601 4.0870 2.5400 0.0000 -10620.5057 1392.0157 0.0000 0.0000 1788.0482 -7433.6546 307.6194 -9221.7029 -7433.6546 307.6194 -260.8651 -172.8869 29761.2541 -260.8651 -172.8869
ENERGY: 300000 0.0431 1.4209 2.3313 0.0000 -10553.5930 1350.3595 0.0000 0.0000 1705.5037 -7493.9345 293.4183 -9199.4382 -7450.0578 301.0583 -595.5334 -603.2645 29944.1838 -258.3528 -231.2672
ENERGY: 600000 1.9821 2.2615 2.8991 0.0000 -10580.9491 1479.1930 0.0000 0.0000 1693.3164 -7401.2971 291.3216 -9094.6135 -7426.7009 300.5588 580.4308 580.2862 30222.6896 -158.6658 -120.4268
ENERGY: 900000 0.6607 2.9621 2.5453 0.0000 -10458.2425 1328.2154 0.0000 0.0000 1751.8553 -7372.0038 301.3927 -9123.8591 -7413.8070 301.0245 -824.5194 -748.8116 30246.3796 -87.9220 -38.6262
ENERGY: 1200000 1.1120 2.1564 2.6501 0.0000 -10612.2753 1369.0935 0.0000 0.0000 1737.1687 -7500.0947 298.8660 -9237.2633 -7411.7444 300.4914 -700.9122 -646.0548 30086.6512 -88.8787 -36.5455
ENERGY: 1500000 0.4529 3.3559 3.1956 0.0000 -10598.4896 1451.6768 0.0000 0.0000 1693.6328 -7446.1756 291.3760 -9139.8084 -7410.1671 300.3583 189.4434 287.9829 29984.3294 -102.4327 -43.8785
TCL: Running FEP window  15: Lambda1 0.7000000000000001 Lambda2 0.7500000000000001 [dLambda 0.050000000000000044]
TCL: Setting parameter firsttimestep to 0
TCL: Setting parameter alchLambda to 0.7000000000000001
Info: NONBONDED TABLE R-SQUARED SPACING: 0.0625
Info: NONBONDED TABLE SIZE: 705 POINTS
TCL: Setting parameter alchLambda2 to 0.7500000000000001
Info: NONBONDED TABLE R-SQUARED SPACING: 0.0625
Info: NONBONDED TABLE SIZE: 705 POINTS
TCL: Running for 1500000 steps
ETITLE: TS BOND ANGLE DIHED IMPRP ELECT VDW BOUNDARY MISC KINETIC TOTAL TEMP POTENTIAL TOTALAVG TEMPAVG PRESSURE GPRESSURE VOLUME PRESSAVG GPRESSAVG
ENERGY: 0 0.4529 3.3559 3.1956 0.0000 -10598.7158 1451.5053 0.0000 0.0000 1692.7834 -7447.4226 291.2299 -9140.2061 -7447.4226 291.2299 211.0469 291.0141 29984.3294 211.0469 291.0141
ENERGY: 300000 1.5110 2.6226 1.7326 0.0000 -10591.3206 1447.7660 0.0000 0.0000 1759.1953 -7378.4930 302.6555 -9137.6884 -7425.2433 295.9177 14.7850 47.5057 30540.9267 91.0266 142.3113
ENERGY: 600000 1.6213 4.1270 3.4762 0.0000 -10495.4875 1321.1070 0.0000 0.0000 1724.8971 -7440.2590 296.7548 -9165.1561 -7418.5819 297.8448 -668.3821 -645.2540 29622.4016 -77.1275 -21.9570
ENERGY: 900000 1.0972 4.4167 1.6501 0.0000 -10662.9675 1457.5952 0.0000 0.0000 1764.3921 -7433.8162 303.5496 -9198.2083 -7424.3856 298.8960 532.1256 600.9598 29447.2829 17.8078 80.0673
ENERGY: 1200000 2.3645 6.3196 3.0975 0.0000 -10528.5574 1370.0736 0.0000 0.0000 1747.6857 -7399.0166 300.6754 -9146.7023 -7410.1250 299.6538 -574.7925 -483.0254 30159.8232 -34.1292 24.5388
ENERGY: 1500000 2.7384 6.0284 1.7965 0.0000 -10665.0345 1405.1276 0.0000 0.0000 1717.7580 -7531.5855 295.5265 -9249.3435 -7414.4274 299.5935 -319.5275 -236.0208 29774.5838 -22.9464 38.8610
TCL: Running FEP window  16: Lambda1 0.7500000000000001 Lambda2 0.8000000000000002 [dLambda 0.050000000000000044]
TCL: Setting parameter firsttimestep to 0
TCL: Setting parameter alchLambda to 0.7500000000000001
Info: NONBONDED TABLE R-SQUARED SPACING: 0.0625
Info: NONBONDED TABLE SIZE: 705 POINTS
TCL: Setting parameter alchLambda2 to 0.8000000000000002
Info: NONBONDED TABLE R-SQUARED SPACING: 0.0625
Info: NONBONDED TABLE SIZE: 705 POINTS
TCL: Running for 1500000 steps
ETITLE: TS BOND ANGLE DIHED IMPRP ELECT VDW BOUNDARY MISC KINETIC TOTAL TEMP POTENTIAL TOTALAVG TEMPAVG PRESSURE GPRESSURE VOLUME PRESSAVG GPRESSAVG
ENERGY: 0 2.7384 6.0284 1.7965 0.0000 -10666.4887 1405.3197 0.0000 0.0000 1716.8716 -7533.7340 295.3740 -9250.6056 -7533.7340 295.3740 -315.6519 -232.5326 29774.5838 -315.6519 -232.5326
ENERGY: 300000 0.4665 5.1351 2.7211 0.0000 -10538.6962 1431.9841 0.0000 0.0000 1783.3032 -7315.0863 306.8031 -9098.3895 -7451.6613 299.8928 113.4651 212.8580 30098.8846 -201.3811 -119.9997
ENERGY: 600000 1.2409 3.7414 2.4065 0.0000 -10539.7798 1397.5129 0.0000 0.0000 1755.2842 -7379.5940 301.9826 -9134.8782 -7430.9476 299.6751 -242.3203 -143.4433 30124.3588 -204.7209 -114.2447
ENERGY: 900000 1.0688 3.0831 2.4888 0.0000 -10635.4904 1447.2621 0.0000 0.0000 1749.7195 -7431.8680 301.0253 -9181.5875 -7414.9879 300.3801 342.8030 391.7247 29612.6576 -40.3232 38.4178
ENERGY: 1200000 1.0397 4.3972 2.3493 0.0000 -10553.1480 1437.9760 0.0000 0.0000 1717.9310 -7389.4547 295.5563 -9107.3857 -7410.8711 299.6177 132.3288 179.1085 30015.2468 13.6931 91.9867
ENERGY: 1500000 0.4288 2.2424 2.6035 0.0000 -10564.0325 1396.6416 0.0000 0.0000 1731.0468 -7431.0694 297.8128 -9162.1162 -7413.2680 299.5230 -222.5807 -98.9512 30097.6404 -0.9275 79.0861
TCL: Running FEP window  17: Lambda1 0.8000000000000002 Lambda2 0.8500000000000002 [dLambda 0.050000000000000044]
TCL: Setting parameter firsttimestep to 0
TCL: Setting parameter alchLambda to 0.8000000000000002
Info: NONBONDED TABLE R-SQUARED SPACING: 0.0625
Info: NONBONDED TABLE SIZE: 705 POINTS
TCL: Setting parameter alchLambda2 to 0.8500000000000002
Info: NONBONDED TABLE R-SQUARED SPACING: 0.0625
Info: NONBONDED TABLE SIZE: 705 POINTS
TCL: Running for 1500000 steps
ETITLE: TS BOND ANGLE DIHED IMPRP ELECT VDW BOUNDARY MISC KINETIC TOTAL TEMP POTENTIAL TOTALAVG TEMPAVG PRESSURE GPRESSURE VOLUME PRESSAVG GPRESSAVG
ENERGY: 0 0.4288 2.2424 2.6035 0.0000 -10565.3723 1398.1292 0.0000 0.0000 1730.2238 -7431.7446 297.6712 -9161.9684 -7431.7446 297.6712 -173.7354 -79.9736 30097.6404 -173.7354 -79.9736
ENERGY: 300000 1.9807 5.3828 2.9036 0.0000 -10608.4448 1452.4274 0.0000 0.0000 1725.5805 -7420.1698 296.8723 -9145.7504 -7392.0684 302.2683 342.5936 384.3864 29920.1472 -9.0561 47.5021
ENERGY: 600000 1.6340 4.1072 3.7393 0.0000 -10555.1477 1342.4402 0.0000 0.0000 1788.0714 -7415.1557 307.6234 -9203.2270 -7407.1039 301.0391 -652.9552 -555.0262 29829.9726 117.8172 185.4700
ENERGY: 900000 1.2398 4.8138 3.2930 0.0000 -10626.2513 1473.4840 0.0000 0.0000 1731.6360 -7411.7847 297.9141 -9143.4207 -7400.4237 301.2423 514.4143 565.3223 29704.1562 209.5690 280.0861
ENERGY: 1200000 0.8286 2.4334 2.0799 0.0000 -10713.9904 1484.0753 0.0000 0.0000 1806.2499 -7418.3234 310.7509 -9224.5733 -7408.6227 301.2843 383.4376 435.3129 29957.6106 94.2422 161.8005
ENERGY: 1500000 0.3097 3.0974 2.8928 0.0000 -10625.3970 1371.8792 0.0000 0.0000 1759.4048 -7487.8131 302.6915 -9247.2179 -7406.4030 301.9989 -483.4490 -450.2366 30000.6815 92.2841 156.5371
TCL: Running FEP window  18: Lambda1 0.8500000000000002 Lambda2 0.9000000000000002 [dLambda 0.050000000000000044]
TCL: Setting parameter firsttimestep to 0
TCL: Setting parameter alchLambda to 0.8500000000000002
Info: NONBONDED TABLE R-SQUARED SPACING: 0.0625
Info: NONBONDED TABLE SIZE: 705 POINTS
TCL: Setting parameter alchLambda2 to 0.9000000000000002
Info: NONBONDED TABLE R-SQUARED SPACING: 0.0625
Info: NONBONDED TABLE SIZE: 705 POINTS
TCL: Running for 1500000 steps
ETITLE: TS BOND ANGLE DIHED IMPRP ELECT VDW BOUNDARY MISC KINETIC TOTAL TEMP POTENTIAL TOTALAVG TEMPAVG PRESSURE GPRESSURE VOLUME PRESSAVG GPRESSAVG
ENERGY: 0 0.3097 3.0974 2.8928 0.0000 -10628.4191 1374.4413 0.0000 0.0000 1758.5573 -7489.1205 302.5457 -9247.6778 -7489.1205 302.5457 -515.9185 -427.4607 30000.6815 -515.9185 -427.4607
ENERGY: 300000 0.9500 2.5202 2.9122 0.0000 -10330.8078 1257.9841 0.0000 0.0000 1689.0238 -7377.4176 290.5830 -9066.4414 -7438.0037 297.6426 -1296.5920 -1219.0651 30672.3851 -753.9958 -693.2814
ENERGY: 600000 1.3350 5.1884 1.9160 0.0000 -10412.0311 1291.8218 0.0000 0.0000 1773.3860 -7338.3838 305.0969 -9111.7698 -7439.6042 298.0831 -1120.4232 -1030.8156 30590.4424 -706.0385 -643.5110
ENERGY: 900000 0.3749 4.3107 2.3171 0.0000 -10640.6872 1437.2095 0.0000 0.0000 1746.5122 -7449.9628 300.4735 -9196.4750 -7445.2709 298.1368 -5.3262 50.6769 29985.3731 -391.0162 -342.1861
ENERGY: 1200000 2.3391 4.0813 1.9742 0.0000 -10464.0551 1369.3919 0.0000 0.0000 1757.7893 -7328.4791 302.4136 -9086.2684 -7418.1318 299.1893 -274.4423 -204.6805 29981.2807 -311.3765 -265.4215
ENERGY: 1500000 0.1616 3.4980 1.7559 0.0000 -10595.6945 1420.2901 0.0000 0.0000 1752.3279 -7417.6611 301.4740 -9169.9890 -7416.7297 299.1292 -21.0953 93.5018 29826.9186 -300.5130 -246.0173
TCL: Running FEP window  19: Lambda1 0.9000000000000002 Lambda2 0.9500000000000003 [dLambda 0.050000000000000044]
TCL: Setting parameter firsttimestep to 0
TCL: Setting parameter alchLambda to 0.9000000000000002
Info: NONBONDED TABLE R-SQUARED SPACING: 0.0625
Info: NONBONDED TABLE SIZE: 705 POINTS
TCL: Setting parameter alchLambda2 to 0.9500000000000003
Info: NONBONDED TABLE R-SQUARED SPACING: 0.0625
Info: NONBONDED TABLE SIZE: 705 POINTS
TCL: Running for 1500000 steps
ETITLE: TS BOND ANGLE DIHED IMPRP ELECT VDW BOUNDARY MISC KINETIC TOTAL TEMP POTENTIAL TOTALAVG TEMPAVG PRESSURE GPRESSURE VOLUME PRESSAVG GPRESSAVG
ENERGY: 0 0.1616 3.4980 1.7559 0.0000 -10597.4519 1421.5349 0.0000 0.0000 1751.4791 -7419.0224 301.3280 -9170.5015 -7419.0224 301.3280 19.6944 108.0870 29826.9186 19.6944 108.0870
ENERGY: 300000 0.7447 2.4954 1.7931 0.0000 -10479.0992 1356.5706 0.0000 0.0000 1791.8771 -7325.6183 308.2782 -9117.4954 -7378.8852 303.5499 -173.3332 -188.6110 29775.3762 -72.7347 -24.1777
ENERGY: 600000 0.6493 1.9735 2.6859 0.0000 -10605.6457 1390.9356 0.0000 0.0000 1680.9027 -7528.4987 289.1859 -9209.4015 -7421.6505 299.9978 -529.2170 -452.8441 30092.1507 60.1235 95.8568
ENERGY: 900000 0.0671 2.5604 2.6784 0.0000 -10468.4155 1353.9615 0.0000 0.0000 1747.1950 -7361.9531 300.5910 -9109.1482 -7411.7836 299.7361 -622.4485 -570.1282 30539.9336 129.3667 173.3693
ENERGY: 1200000 0.1731 4.8549 1.9832 0.0000 -10554.2667 1415.6295 0.0000 0.0000 1746.1904 -7385.4356 300.4181 -9131.6260 -7421.6745 298.3666 -286.2012 -173.5680 30680.5471 72.7188 126.1252
ENERGY: 1500000 0.1106 2.3374 3.1723 0.0000 -10557.7615 1393.1704 0.0000 0.0000 1782.9325 -7376.0383 306.7393 -9158.9708 -7413.0601 299.3253 -211.5132 -215.5990 30294.4057 92.3424 141.7490
TCL: Running FEP window  20: Lambda1 0.9500000000000003 Lambda2 1.0    [dLambda 0.04999999999999971]
TCL: Setting parameter firsttimestep to 0
TCL: Setting parameter alchLambda to 0.9500000000000003
Info: NONBONDED TABLE R-SQUARED SPACING: 0.0625
Info: NONBONDED TABLE SIZE: 705 POINTS
TCL: Setting parameter alchLambda2 to 1.0
Info: NONBONDED TABLE R-SQUARED SPACING: 0.0625
Info: NONBONDED TABLE SIZE: 705 POINTS
TCL: Running for 1500000 steps
ETITLE: TS BOND ANGLE DIHED IMPRP ELECT VDW BOUNDARY MISC KINETIC TOTAL TEMP POTENTIAL TOTALAVG TEMPAVG PRESSURE GPRESSURE VOLUME PRESSAVG GPRESSAVG
ENERGY: 0 0.1106 2.3374 3.1723 0.0000 -10560.0799 1395.4740 0.0000 0.0000 1782.0732 -7376.9125 306.5915 -9158.9856 -7376.9125 306.5915 -268.7363 -185.4119 30294.4057 -268.7363 -185.4119
ENERGY: 300000 2.0801 1.6570 2.4402 0.0000 -10541.6731 1388.2049 0.0000 0.0000 1767.8814 -7379.4094 304.1499 -9147.2908 -7402.0647 302.7202 95.9326 86.7539 29836.6296 -288.7569 -265.5221
ENERGY: 600000 1.1279 3.3817 2.1705 0.0000 -10574.1673 1345.6216 0.0000 0.0000 1714.7260 -7507.1396 295.0049 -9221.8656 -7434.7995 300.9870 -426.0158 -315.0952 29555.7648 -167.7870 -114.4814
ENERGY: 900000 2.1347 3.3378 2.4392 0.0000 -10613.7225 1420.9302 0.0000 0.0000 1705.9270 -7478.9536 293.4911 -9184.8806 -7449.6332 299.0769 79.2494 215.2020 29629.4356 -46.5226 9.3188
ENERGY: 1200000 1.6407 4.5342 2.7026 0.0000 -10452.9106 1412.6063 0.0000 0.0000 1737.4787 -7293.9481 298.9193 -9031.4268 -7436.1072 298.2741 -205.2834 -149.0752 30692.7299 -93.7072 -32.5337
ENERGY: 1500000 0.0468 6.7651 1.4999 0.0000 -10672.7051 1508.9014 0.0000 0.0000 1716.1907 -7439.3012 295.2569 -9155.4919 -7433.2694 298.6638 717.2749 860.6501 29718.8515 -65.1858 1.0937
TCL: Exiting due to exit command.
