Info: SIMULATION PARAMETERS:
Info: TIMESTEP               2
Info: NUMBER OF STEPS        0
Info: STEPS PER CYCLE        10
Info: PERIODIC CELL BASIS 1  32.3407 0 0
Info: PERIODIC CELL BASIS 2  0 30.2797 0
Info: PERIODIC CELL BASIS 3  0 0 31.5727
Info: PERIODIC CELL CENTER   0 0 0
Info: WRAPPING WATERS AROUND PERIODIC BOUNDARIES ON OUTPUT.
Info: WRAPPING ALL CLUSTERS AROUND PERIODIC BOUNDARIES ON OUTPUT.
Info: FIRST LDB TIMESTEP     50
Info: LAST LDB TIMESTEP     -1
Info: HOM BACKGROUND SCALING 1
Info: PME BACKGROUND SCALING 1
Info: MIN ATOMS PER PATCH    40
Info: EMPTY PATCH LOAD       40 ATOMS
Info: VELOCITY FILE          mobley_6804509_equil.vel
Info: CENTER OF MASS MOVING INITIALLY? NO
Info: DIELECTRIC             1
Info: EXCLUDE                SCALED ONE-FOUR
Info: 1-4 ELECTROSTATICS SCALED BY 0.833333
Info: MODIFIED 1-4 VDW PARAMETERS WILL BE USED
Info: DCD FILENAME           mobley_6804509_prod.dcd
Info: DCD FREQUENCY          100000
Info: DCD FIRST STEP         100000
Info: DCD FILE WILL CONTAIN UNIT CELL DATA
Info: XST FILENAME           mobley_6804509_prod.xst
Info: XST FREQUENCY          100000
Info: NO VELOCITY DCD OUTPUT
Info: NO FORCE DCD OUTPUT
Info: OUTPUT FILENAME        mobley_6804509_prod
Info: BINARY OUTPUT FILES WILL BE USED
Info: RESTART FILENAME       mobley_6804509_prod.restart
Info: RESTART FREQUENCY      100000
Info: BINARY RESTART FILES WILL BE USED
Info: CUTOFF                 9
Info: PAIRLIST DISTANCE      11
Info: PAIRLIST SHRINK RATE   0.01
Info: PAIRLIST GROW RATE     0.01
Info: PAIRLIST TRIGGER       0.3
Info: PAIRLISTS PER CYCLE    2
Info: PAIRLISTS ENABLED
Info: MARGIN                 2
Info: HYDROGEN GROUP CUTOFF  2.5
Info: PATCH DIMENSION        15.5
Info: ENERGY OUTPUT STEPS    100000
Info: ENERGY EVALUATION STEPS    100000
Info: OUTPUT ENERGY PRECISION 4
Info: CROSSTERM ENERGY INCLUDED IN DIHEDRAL
Info: TIMING OUTPUT STEPS    1000000
Info: PRESSURE OUTPUT STEPS  100000
Info: ALCHEMICAL FEP ON
Info: FEP CURRENT LAMBDA VALUE     1
Info: FEP COMPARISON LAMBDA VALUE  0.95
Info: FEP INTRA-ALCHEMICAL NON-BONDED INTERACTIONS WILL BE RETAINED
Info: FEP INTRA-ALCHEMICAL BONDED INTERACTIONS WILL BE RETAINED
Info: FEP VDW SHIFTING COEFFICIENT 5
Info: FEP ELEC. ACTIVE FOR ANNIHILATED PARTICLES BETWEEN LAMBDA = 0 AND LAMBDA = 0.5
Info: FEP ELEC. ACTIVE FOR EXNIHILATED PARTICLES BETWEEN LAMBDA = 0.5 AND LAMBDA = 1
Info: FEP VDW ACTIVE FOR ANNIHILATED PARTICLES BETWEEN LAMBDA = 0 AND LAMBDA = 1
Info: FEP VDW ACTIVE FOR EXNIHILATED PARTICLES BETWEEN LAMBDA = 0 AND LAMBDA = 1
Info: FEP BOND ACTIVE FOR ANNIHILATED PARTICLES BETWEEN LAMBDA = 1 AND LAMBDA = 1
Info: FEP BOND ACTIVE FOR EXNIHILATED PARTICLES BETWEEN LAMBDA = 0 AND LAMBDA = 0
Info: LANGEVIN DYNAMICS ACTIVE
Info: LANGEVIN TEMPERATURE   300
Info: LANGEVIN USING BBK INTEGRATOR
Info: LANGEVIN DAMPING COEFFICIENT IS 1 INVERSE PS
Info: LANGEVIN DYNAMICS APPLIED TO HYDROGENS
Info: LANGEVIN PISTON PRESSURE CONTROL ACTIVE
Info:        TARGET PRESSURE IS 1.01325 BAR
Info:     OSCILLATION PERIOD IS 50 FS
Info:             DECAY TIME IS 25 FS
Info:     PISTON TEMPERATURE IS 300 K
Info:       PRESSURE CONTROL IS GROUP-BASED
Info:    INITIAL STRAIN RATE IS 0.000308753 0.000308753 0.000308753
Info:       CELL FLUCTUATION IS ISOTROPIC
Info: PARTICLE MESH EWALD (PME) ACTIVE
Info: PME TOLERANCE               1e-06
Info: PME EWALD COEFFICIENT       0.348832
Info: PME INTERPOLATION ORDER     4
Info: PME GRID DIMENSIONS         36 32 32
Info: PME MAXIMUM GRID SPACING    1
Info: PME CALCULATION WILL BE PERFORMED ON GPU
Info: FULL ELECTROSTATIC EVALUATION FREQUENCY      2
Info: USING VERLET I (r-RESPA) MTS SCHEME.
Info: C1 SPLITTING OF LONG RANGE ELECTROSTATICS
Info: PLACING ATOMS IN PATCHES BY HYDROGEN GROUPS
Info: RIGID BONDS TO HYDROGEN : ALL
Info:         ERROR TOLERANCE : 1e-08
Info:          MAX ITERATIONS : 100
Info: RIGID WATER USING SETTLE ALGORITHM
Info: RANDOM NUMBER SEED     1743551287
Info: USE HYDROGEN BONDS?    NO
Info: Using AMBER format force field!
Info: AMBER PARM FILE        mobley_6804509.prmtop
Info: COORDINATE PDB         mobley_6804509.pdb
Info: Exclusions will be read from PARM file!
Info: SCNB (VDW SCALING)     2
Info: USING ARITHMETIC MEAN TO COMBINE L-J SIGMA PARAMETERS
Info: BINARY COORDINATES     mobley_6804509_equil.coor
Info: SUMMARY OF PARAMETERS:
Info: 5 BONDS
Info: 3 ANGLES
Info:   3 HARMONIC
Info:   0 COSINE-BASED
Info: 2 DIHEDRAL
Info: 0 IMPROPER
Info: 0 CROSSTERM
Info: 0 VDW
Info: 15 VDW_PAIRS
Info: 0 NBTHOLE_PAIRS
Info: To read alchdata from file: mobley_6804509.pdb
Info: To read alchflag data from column: 5
Info: STRUCTURE SUMMARY:
Info: 2964 ATOMS
Info: 2964 BONDS
Info: 18 ANGLES
Info: 30 DIHEDRALS
Info: 0 IMPROPERS
Info: 0 CROSSTERMS
Info: 3003 EXCLUSIONS
Info: 2954 RIGID BONDS
Info: ALCH: 0 ATOMS TO DISAPPEAR IN FINAL STATE
Info: ALCH: 12 ATOMS TO APPEAR IN FINAL STATE
Info: 5938 DEGREES OF FREEDOM
Info: 994 HYDROGEN GROUPS
Info: 3 ATOMS IN LARGEST HYDROGEN GROUP
Info: 994 MIGRATION GROUPS
Info: 3 ATOMS IN LARGEST MIGRATION GROUP
Info: TOTAL MASS = 17943.6 amu
Info: TOTAL CHARGE = -9.99942e-05 e
Info: MASS DENSITY = 0.963734 g/cm^3
Info: ATOM DENSITY = 0.0958663 atoms/A^3
Info: ADDED 0 IMPLICIT EXCLUSIONS
Info: NONBONDED TABLE R-SQUARED SPACING: 0.0625
Info: NONBONDED TABLE SIZE: 705 POINTS
Info: REMOVING COM VELOCITY -0.0114685 -0.0478749 0.0825929
Info: Use 3D box decompostion in PME FFT.
Info: Updated CUDA force table with 4096 elements.
Info: Updated CUDA LJ table with 5 x 5 elements.
Info: Found 14 unique exclusion lists needing 24 bytes
TCL: Running for 1500000 steps
ETITLE: TS BOND ANGLE DIHED IMPRP ELECT VDW BOUNDARY MISC KINETIC TOTAL TEMP POTENTIAL TOTALAVG TEMPAVG PRESSURE GPRESSURE VOLUME PRESSAVG GPRESSAVG
ENERGY: 0 7.7084 5.0950 4.4687 0.0000 -10713.8520 1367.9987 0.0000 0.0000 1831.5844 -7496.9968 310.4396 -9328.5812 -7496.9968 310.4396 -936.4617 -839.8961 30918.0526 -936.4617 -839.8961
ENERGY: 300000 3.4225 1.4348 1.8990 0.0000 -10777.3890 1432.7298 0.0000 0.0000 1754.2835 -7583.6193 297.3377 -9337.9028 -7526.9462 302.8652 -63.3655 -16.1238 30394.1445 -38.4034 10.9834
ENERGY: 600000 2.8352 4.1985 3.6547 0.0000 -10653.6142 1372.7696 0.0000 0.0000 1770.2224 -7499.9337 300.0392 -9270.1561 -7518.4534 301.7028 -235.7683 -228.6640 30657.8291 -123.8673 -71.3674
ENERGY: 900000 2.8348 3.2655 1.8861 0.0000 -10701.3470 1392.4018 0.0000 0.0000 1750.6116 -7550.3473 296.7153 -9300.9588 -7525.6420 301.0043 -495.4656 -431.1124 30539.8089 -90.7417 -32.6417
ENERGY: 1200000 0.6783 4.4647 2.2403 0.0000 -10616.3825 1349.9412 0.0000 0.0000 1749.9647 -7509.0933 296.6057 -9259.0580 -7529.3959 301.3917 -492.1297 -456.0023 30591.9923 -110.1196 -47.7421
ENERGY: 1500000 4.5110 1.8137 4.2468 0.0000 -10812.9472 1455.3722 0.0000 0.0000 1749.5013 -7597.5023 296.5271 -9347.0036 -7531.9822 301.0404 -86.7791 -7.7252 30674.4724 -94.0290 -28.7811
TCL: Running FEP window   2: Lambda1 0.95   Lambda2 0.8999999999999999 [dLambda -0.050000000000000044]
TCL: Setting parameter firsttimestep to 0
TCL: Setting parameter alchLambda to 0.95
Info: NONBONDED TABLE R-SQUARED SPACING: 0.0625
Info: NONBONDED TABLE SIZE: 705 POINTS
TCL: Setting parameter alchLambda2 to 0.8999999999999999
Info: NONBONDED TABLE R-SQUARED SPACING: 0.0625
Info: NONBONDED TABLE SIZE: 705 POINTS
TCL: Running for 1500000 steps
ETITLE: TS BOND ANGLE DIHED IMPRP ELECT VDW BOUNDARY MISC KINETIC TOTAL TEMP POTENTIAL TOTALAVG TEMPAVG PRESSURE GPRESSURE VOLUME PRESSAVG GPRESSAVG
ENERGY: 0 4.5110 1.8137 4.2468 0.0000 -10812.6424 1455.9034 0.0000 0.0000 1748.6268 -7597.5407 296.3789 -9346.1675 -7597.5407 296.3789 -102.0474 -16.0306 30674.4724 -102.0474 -16.0306
ENERGY: 300000 1.5524 1.2380 2.7147 0.0000 -10744.7920 1408.5159 0.0000 0.0000 1796.3404 -7534.4306 304.4660 -9330.7710 -7518.4648 300.7612 -390.7322 -349.2962 30754.9970 -415.8556 -339.5009
ENERGY: 600000 1.9531 5.1185 3.5971 0.0000 -10605.3149 1368.6714 0.0000 0.0000 1787.1009 -7438.8741 302.9000 -9225.9749 -7513.9182 299.3613 -596.9213 -524.7216 30999.3809 -339.0647 -254.6961
ENERGY: 900000 2.6189 1.3874 3.1911 0.0000 -10760.7140 1454.4224 0.0000 0.0000 1799.5620 -7499.5321 305.0121 -9299.0941 -7502.2922 301.0485 207.7572 237.5050 30572.6021 -248.6669 -167.6975
ENERGY: 1200000 2.9073 2.3549 2.8273 0.0000 -10800.1581 1478.3022 0.0000 0.0000 1746.7553 -7567.0111 296.0617 -9313.7664 -7512.4450 300.5180 -211.0370 -125.2053 31097.0194 -124.4021 -43.6101
ENERGY: 1500000 3.0828 1.4045 0.6444 0.0000 -10789.9948 1439.4320 0.0000 0.0000 1796.9573 -7548.4739 304.5706 -9345.4312 -7520.7348 300.9245 169.5853 229.5348 30379.9598 -72.3745 1.3909
TCL: Running FEP window   3: Lambda1 0.8999999999999999 Lambda2 0.8499999999999999 [dLambda -0.050000000000000044]
TCL: Setting parameter firsttimestep to 0
TCL: Setting parameter alchLambda to 0.8999999999999999
Info: NONBONDED TABLE R-SQUARED SPACING: 0.0625
Info: NONBONDED TABLE SIZE: 705 POINTS
TCL: Setting parameter alchLambda2 to 0.8499999999999999
Info: NONBONDED TABLE R-SQUARED SPACING: 0.0625
Info: NONBONDED TABLE SIZE: 705 POINTS
TCL: Running for 1500000 steps
ETITLE: TS BOND ANGLE DIHED IMPRP ELECT VDW BOUNDARY MISC KINETIC TOTAL TEMP POTENTIAL TOTALAVG TEMPAVG PRESSURE GPRESSURE VOLUME PRESSAVG GPRESSAVG
ENERGY: 0 3.0828 1.4045 0.6444 0.0000 -10790.0494 1440.1975 0.0000 0.0000 1796.0699 -7548.6503 304.4202 -9344.7203 -7548.6503 304.4202 145.9538 227.5912 30379.9598 145.9538 227.5912
ENERGY: 300000 2.6038 2.2279 2.0413 0.0000 -10669.1189 1440.9574 0.0000 0.0000 1784.2085 -7437.0800 302.4098 -9221.2885 -7558.1544 299.3178 -116.1533 -48.5525 31107.4355 -266.6905 -217.5869
ENERGY: 600000 4.4585 3.7441 1.6587 0.0000 -10685.5095 1397.5193 0.0000 0.0000 1762.2049 -7515.9240 298.6803 -9278.1289 -7554.8375 300.8342 -461.0752 -452.8389 30714.0557 -249.7424 -200.8259
ENERGY: 900000 4.4250 4.1956 1.4716 0.0000 -10769.1726 1454.1180 0.0000 0.0000 1814.3968 -7490.5655 307.5264 -9304.9623 -7558.6910 300.2953 -106.3832 11.3613 30621.0890 -270.8631 -212.2471
ENERGY: 1200000 4.6883 3.9062 1.2876 0.0000 -10700.9400 1401.4928 0.0000 0.0000 1774.6574 -7514.9077 300.7909 -9289.5651 -7547.1497 300.4914 -599.8852 -536.6338 30806.5751 -331.5746 -268.3191
ENERGY: 1500000 2.7688 1.5317 3.7573 0.0000 -10772.1070 1444.1589 0.0000 0.0000 1780.7568 -7539.1337 301.8247 -9319.8904 -7539.8126 301.4318 -214.2722 -176.1499 30802.9322 -263.3573 -207.2532
TCL: Running FEP window   4: Lambda1 0.8499999999999999 Lambda2 0.7999999999999998 [dLambda -0.050000000000000044]
TCL: Setting parameter firsttimestep to 0
TCL: Setting parameter alchLambda to 0.8499999999999999
Info: NONBONDED TABLE R-SQUARED SPACING: 0.0625
Info: NONBONDED TABLE SIZE: 705 POINTS
TCL: Setting parameter alchLambda2 to 0.7999999999999998
Info: NONBONDED TABLE R-SQUARED SPACING: 0.0625
Info: NONBONDED TABLE SIZE: 705 POINTS
TCL: Running for 1500000 steps
ETITLE: TS BOND ANGLE DIHED IMPRP ELECT VDW BOUNDARY MISC KINETIC TOTAL TEMP POTENTIAL TOTALAVG TEMPAVG PRESSURE GPRESSURE VOLUME PRESSAVG GPRESSAVG
ENERGY: 0 2.7688 1.5317 3.7573 0.0000 -10771.9828 1444.6113 0.0000 0.0000 1779.8736 -7539.4402 301.6750 -9319.3138 -7539.4402 301.6750 -257.8481 -183.1827 30802.9322 -257.8481 -183.1827
ENERGY: 300000 5.0095 2.3802 3.3806 0.0000 -10681.4992 1379.5427 0.0000 0.0000 1795.9782 -7495.2079 304.4046 -9291.1862 -7500.3814 300.7986 -527.7382 -447.7217 30479.3909 -387.6071 -304.0300
ENERGY: 600000 2.0070 3.6098 2.1988 0.0000 -10687.5630 1419.4800 0.0000 0.0000 1766.5623 -7493.7051 299.4189 -9260.2675 -7506.4276 300.2411 79.7145 146.9518 30502.7778 -338.8722 -263.4471
ENERGY: 900000 4.9927 3.7031 1.8516 0.0000 -10790.9019 1452.0814 0.0000 0.0000 1787.9383 -7540.3347 303.0419 -9328.2731 -7516.5899 300.1449 -168.8612 -101.5894 30640.1851 -238.1496 -167.0199
ENERGY: 1200000 3.8641 2.5174 3.9715 0.0000 -10831.5785 1518.1305 0.0000 0.0000 1784.5681 -7518.5270 302.4707 -9303.0951 -7527.6940 298.8722 585.0658 622.0132 30535.6662 -142.3300 -69.5588
ENERGY: 1500000 4.1495 3.2340 2.3494 0.0000 -10779.6968 1417.9228 0.0000 0.0000 1779.4222 -7572.6188 301.5985 -9352.0410 -7533.5006 298.2621 -72.0030 12.2626 30140.5340 -141.8375 -66.8943
TCL: Running FEP window   5: Lambda1 0.7999999999999998 Lambda2 0.7499999999999998 [dLambda -0.050000000000000044]
TCL: Setting parameter firsttimestep to 0
TCL: Setting parameter alchLambda to 0.7999999999999998
Info: NONBONDED TABLE R-SQUARED SPACING: 0.0625
Info: NONBONDED TABLE SIZE: 705 POINTS
TCL: Setting parameter alchLambda2 to 0.7499999999999998
Info: NONBONDED TABLE R-SQUARED SPACING: 0.0625
Info: NONBONDED TABLE SIZE: 705 POINTS
TCL: Running for 1500000 steps
ETITLE: TS BOND ANGLE DIHED IMPRP ELECT VDW BOUNDARY MISC KINETIC TOTAL TEMP POTENTIAL TOTALAVG TEMPAVG PRESSURE GPRESSURE VOLUME PRESSAVG GPRESSAVG
ENERGY: 0 4.1496 3.2340 2.3494 0.0000 -10779.3407 1418.4196 0.0000 0.0000 1778.5777 -7572.6104 301.4554 -9351.1881 -7572.6104 301.4554 -63.9123 7.7272 30140.5340 -63.9123 7.7272
ENERGY: 300000 3.3839 1.5336 1.1066 0.0000 -10595.0414 1377.3319 0.0000 0.0000 1772.2052 -7439.4801 300.3753 -9211.6854 -7525.3940 299.2335 -570.5817 -538.9894 31189.7116 -120.5078 -54.1527
ENERGY: 600000 2.7570 2.7274 3.8088 0.0000 -10794.7420 1511.9368 0.0000 0.0000 1773.1755 -7500.3364 300.5397 -9273.5119 -7515.5067 297.2648 679.7717 742.6835 30478.4698 110.5887 171.5410
ENERGY: 900000 2.9534 6.9940 2.4383 0.0000 -10674.9748 1388.2539 0.0000 0.0000 1787.4521 -7486.8831 302.9595 -9274.3352 -7518.3539 297.4804 -449.4003 -329.1585 30814.7333 -68.8113 -4.3386
ENERGY: 1200000 3.1636 6.2447 3.9054 0.0000 -10771.3813 1455.8913 0.0000 0.0000 1784.4804 -7517.6959 302.4558 -9302.1763 -7524.9520 297.6990 -6.5506 46.2723 30671.5830 -85.8107 -19.9608
ENERGY: 1500000 4.6159 1.6423 1.8205 0.0000 -10715.1997 1439.1769 0.0000 0.0000 1767.1689 -7500.7751 299.5217 -9267.9441 -7519.7939 298.0899 -28.3768 26.9563 30890.4290 -120.9960 -54.6074
TCL: Running FEP window   6: Lambda1 0.7499999999999998 Lambda2 0.6999999999999997 [dLambda -0.050000000000000044]
TCL: Setting parameter firsttimestep to 0
TCL: Setting parameter alchLambda to 0.7499999999999998
Info: NONBONDED TABLE R-SQUARED SPACING: 0.0625
Info: NONBONDED TABLE SIZE: 705 POINTS
TCL: Setting parameter alchLambda2 to 0.6999999999999997
Info: NONBONDED TABLE R-SQUARED SPACING: 0.0625
Info: NONBONDED TABLE SIZE: 705 POINTS
TCL: Running for 1500000 steps
ETITLE: TS BOND ANGLE DIHED IMPRP ELECT VDW BOUNDARY MISC KINETIC TOTAL TEMP POTENTIAL TOTALAVG TEMPAVG PRESSURE GPRESSURE VOLUME PRESSAVG GPRESSAVG
ENERGY: 0 4.6159 1.6423 1.8205 0.0000 -10714.9908 1439.6093 0.0000 0.0000 1766.2824 -7501.0203 299.3714 -9267.3028 -7501.0203 299.3714 -66.7256 17.7065 30890.4290 -66.7256 17.7065
ENERGY: 300000 2.1023 3.2361 4.8451 0.0000 -10677.6953 1395.6883 0.0000 0.0000 1761.9820 -7509.8414 298.6425 -9271.8234 -7527.5039 297.4367 -305.6647 -224.6706 30496.3349 149.6343 234.4285
ENERGY: 600000 6.2775 1.9153 2.4946 0.0000 -10871.1381 1531.2990 0.0000 0.0000 1768.6603 -7560.4914 299.7745 -9329.1518 -7528.1701 299.3035 859.4283 874.3571 30310.5812 323.8803 402.6768
ENERGY: 900000 3.5583 0.8697 4.5403 0.0000 -10698.9020 1439.2497 0.0000 0.0000 1830.6732 -7420.0108 310.2852 -9250.6840 -7518.2902 300.6339 -11.1115 40.0727 30735.4657 330.7735 402.5992
ENERGY: 1200000 5.3979 1.8465 5.2026 0.0000 -10772.7449 1471.5636 0.0000 0.0000 1766.8616 -7521.8726 299.4696 -9288.7342 -7514.2485 300.3224 229.4263 257.6887 30803.4363 337.8739 404.2705
ENERGY: 1500000 1.8556 3.2551 3.2221 0.0000 -10566.7173 1297.0842 0.0000 0.0000 1815.3244 -7445.9759 307.6837 -9261.3002 -7506.1065 301.1363 -1165.1861 -1122.4851 30978.3315 251.1969 321.3569
TCL: Running FEP window   7: Lambda1 0.6999999999999997 Lambda2 0.6499999999999997 [dLambda -0.050000000000000044]
TCL: Setting parameter firsttimestep to 0
TCL: Setting parameter alchLambda to 0.6999999999999997
Info: NONBONDED TABLE R-SQUARED SPACING: 0.0625
Info: NONBONDED TABLE SIZE: 705 POINTS
TCL: Setting parameter alchLambda2 to 0.6499999999999997
Info: NONBONDED TABLE R-SQUARED SPACING: 0.0625
Info: NONBONDED TABLE SIZE: 705 POINTS
TCL: Running for 1500000 steps
ETITLE: TS BOND ANGLE DIHED IMPRP ELECT VDW BOUNDARY MISC KINETIC TOTAL TEMP POTENTIAL TOTALAVG TEMPAVG PRESSURE GPRESSURE VOLUME PRESSAVG GPRESSAVG
ENERGY: 0 1.8556 3.2551 3.2221 0.0000 -10566.5852 1297.6427 0.0000 0.0000 1814.4639 -7446.1458 307.5378 -9260.6097 -7446.1458 307.5378 -1216.6876 -1123.8123 30978.3315 -1216.6876 -1123.8123
ENERGY: 300000 5.4831 1.9172 0.8982 0.0000 -10746.2628 1403.1157 0.0000 0.0000 1746.4546 -7588.3942 296.0108 -9334.8487 -7529.2460 303.5028 -313.4855 -269.0608 30722.3506 -267.0308 -195.4257
ENERGY: 600000 3.2019 0.7428 4.6011 0.0000 -10821.3345 1487.1289 0.0000 0.0000 1756.1852 -7569.4747 297.6600 -9325.6599 -7559.2364 299.6305 109.4220 129.4777 30811.8550 -286.0334 -232.8483
ENERGY: 900000 2.7960 3.6644 4.3976 0.0000 -10797.4178 1493.1168 0.0000 0.0000 1733.4900 -7559.9530 293.8134 -9293.4431 -7550.1212 298.2901 393.6593 487.3687 30460.1188 -151.3997 -98.3810
ENERGY: 1200000 4.0857 3.1533 3.3694 0.0000 -10663.0690 1424.0503 0.0000 0.0000 1769.4976 -7458.9127 299.9164 -9228.4103 -7532.7044 298.6941 121.7050 154.7736 30502.5635 -79.9119 -33.7554
ENERGY: 1500000 4.8018 3.3088 4.4063 0.0000 -10842.6676 1515.2830 0.0000 0.0000 1813.7757 -7501.0920 307.4212 -9314.8677 -7526.4881 300.2008 707.7547 726.1319 30286.8776 -1.2066 43.2277
TCL: Running FEP window   8: Lambda1 0.6499999999999997 Lambda2 0.5999999999999996 [dLambda -0.050000000000000044]
TCL: Setting parameter firsttimestep to 0
TCL: Setting parameter alchLambda to 0.6499999999999997
Info: NONBONDED TABLE R-SQUARED SPACING: 0.0625
Info: NONBONDED TABLE SIZE: 705 POINTS
TCL: Setting parameter alchLambda2 to 0.5999999999999996
Info: NONBONDED TABLE R-SQUARED SPACING: 0.0625
Info: NONBONDED TABLE SIZE: 705 POINTS
TCL: Running for 1500000 steps
ETITLE: TS BOND ANGLE DIHED IMPRP ELECT VDW BOUNDARY MISC KINETIC TOTAL TEMP POTENTIAL TOTALAVG TEMPAVG PRESSURE GPRESSURE VOLUME PRESSAVG GPRESSAVG
ENERGY: 0 4.8018 3.3088 4.4063 0.0000 -10842.5010 1515.7878 0.0000 0.0000 1812.9211 -7501.2752 307.2763 -9314.1963 -7501.2752 307.2763 632.4348 718.8612 30286.8776 632.4348 718.8612
ENERGY: 300000 6.2346 5.0274 2.2436 0.0000 -10838.7796 1458.3960 0.0000 0.0000 1786.3739 -7580.5042 302.7768 -9366.8780 -7520.5401 301.5549 -357.0433 -359.0053 30657.2109 233.7120 296.5497
ENERGY: 600000 2.3471 4.5360 1.8547 0.0000 -10678.6510 1410.5123 0.0000 0.0000 1760.8045 -7498.5964 298.4430 -9259.4009 -7512.9111 300.4995 96.6365 121.2696 30228.6462 100.3747 154.1481
ENERGY: 900000 3.1438 2.2991 2.3493 0.0000 -10684.9384 1365.7522 0.0000 0.0000 1744.1685 -7567.2255 295.6233 -9311.3940 -7517.6873 300.3320 -954.8249 -882.2591 31138.8502 5.9300 66.6626
ENERGY: 1200000 2.7259 1.1884 3.1437 0.0000 -10819.8810 1518.8440 0.0000 0.0000 1799.1172 -7494.8619 304.9367 -9293.9790 -7518.0502 301.1966 676.6011 712.0302 30398.5067 71.6488 132.2511
ENERGY: 1500000 6.7782 1.9553 1.8745 0.0000 -10700.2525 1411.6634 0.0000 0.0000 1752.2292 -7525.7520 296.9895 -9277.9812 -7524.0168 300.2820 -421.3897 -328.3600 30631.5831 45.5852 108.8375
TCL: Running FEP window   9: Lambda1 0.5999999999999996 Lambda2 0.5499999999999996 [dLambda -0.050000000000000044]
TCL: Setting parameter firsttimestep to 0
TCL: Setting parameter alchLambda to 0.5999999999999996
Info: NONBONDED TABLE R-SQUARED SPACING: 0.0625
Info: NONBONDED TABLE SIZE: 705 POINTS
TCL: Setting parameter alchLambda2 to 0.5499999999999996
Info: NONBONDED TABLE R-SQUARED SPACING: 0.0625
Info: NONBONDED TABLE SIZE: 705 POINTS
TCL: Running for 1500000 steps
ETITLE: TS BOND ANGLE DIHED IMPRP ELECT VDW BOUNDARY MISC KINETIC TOTAL TEMP POTENTIAL TOTALAVG TEMPAVG PRESSURE GPRESSURE VOLUME PRESSAVG GPRESSAVG
ENERGY: 0 6.7782 1.9553 1.8745 0.0000 -10699.9848 1411.8404 0.0000 0.0000 1751.3577 -7526.1787 296.8418 -9277.5364 -7526.1787 296.8418 -408.8949 -331.0344 30631.5831 -408.8949 -331.0344
ENERGY: 300000 3.9364 4.3479 0.8890 0.0000 -10677.8498 1393.0119 0.0000 0.0000 1747.6146 -7528.0500 296.2074 -9275.6646 -7554.5422 296.6698 -481.6141 -407.3430 30347.4220 -176.9186 -101.8525
ENERGY: 600000 3.9778 3.7450 2.5634 0.0000 -10805.2452 1474.3710 0.0000 0.0000 1776.9861 -7543.6018 301.1856 -9320.5879 -7523.3432 298.9297 -75.2989 -29.4770 30745.9244 -122.1276 -62.9817
ENERGY: 900000 4.5793 2.5223 2.1393 0.0000 -10610.9756 1386.8341 0.0000 0.0000 1804.0406 -7410.8600 305.7711 -9214.9006 -7505.3077 299.4108 -262.3642 -180.2137 30682.6742 39.3042 94.9141
ENERGY: 1200000 3.8023 5.3593 5.4412 0.0000 -10812.2224 1535.1053 0.0000 0.0000 1783.4501 -7479.0643 302.2812 -9262.5144 -7510.1518 299.5339 695.5758 720.3763 30794.8622 126.2223 179.0827
ENERGY: 1500000 1.8823 2.1824 1.4427 0.0000 -10658.2614 1374.0072 0.0000 0.0000 1712.1950 -7566.5518 290.2040 -9278.7468 -7525.7154 298.4696 -500.7930 -377.7133 30436.2527 51.2898 114.3979
TCL: Running FEP window  10: Lambda1 0.5499999999999996 Lambda2 0.4999999999999996 [dLambda -0.04999999999999999]
TCL: Setting parameter firsttimestep to 0
TCL: Setting parameter alchLambda to 0.5499999999999996
Info: NONBONDED TABLE R-SQUARED SPACING: 0.0625
Info: NONBONDED TABLE SIZE: 705 POINTS
TCL: Setting parameter alchLambda2 to 0.4999999999999996
Info: NONBONDED TABLE R-SQUARED SPACING: 0.0625
Info: NONBONDED TABLE SIZE: 705 POINTS
TCL: Running for 1500000 steps
ETITLE: TS BOND ANGLE DIHED IMPRP ELECT VDW BOUNDARY MISC KINETIC TOTAL TEMP POTENTIAL TOTALAVG TEMPAVG PRESSURE GPRESSURE VOLUME PRESSAVG GPRESSAVG
ENERGY: 0 1.8823 2.1824 1.4427 0.0000 -10657.9716 1373.4323 0.0000 0.0000 1711.2919 -7567.7401 290.0509 -9279.0319 -7567.7401 290.0509 -492.2238 -391.0276 30436.2527 -492.2238 -391.0276
ENERGY: 300000 2.0278 1.8885 3.2588 0.0000 -10733.1860 1412.3381 0.0000 0.0000 1804.1810 -7509.4918 305.7949 -9313.6728 -7526.4379 299.5428 -270.5932 -224.5640 30773.6724 -260.1775 -199.7973
ENERGY: 600000 2.0131 0.6569 2.7676 0.0000 -10672.9807 1390.9657 0.0000 0.0000 1798.4543 -7478.1233 304.8243 -9276.5776 -7531.1185 299.0398 -347.5509 -352.7481 30917.8293 -50.2423 4.3828
ENERGY: 900000 3.3529 1.2874 1.2614 0.0000 -10804.7025 1539.4797 0.0000 0.0000 1755.4551 -7503.8658 297.5363 -9259.3209 -7528.3081 299.1608 345.7678 419.2782 31096.0436 37.7646 95.0299
ENERGY: 1200000 2.5431 1.6923 1.6664 0.0000 -10723.6256 1463.9942 0.0000 0.0000 1828.7600 -7424.9696 309.9609 -9253.7296 -7521.4857 300.1949 189.3227 232.1412 30667.3912 0.4680 58.5511
ENERGY: 1500000 3.7858 2.1207 2.7105 0.0000 -10676.5694 1398.4954 0.0000 0.0000 1752.4831 -7516.9739 297.0325 -9269.4570 -7520.0567 300.4758 -252.0596 -232.2419 30896.8980 11.0926 70.5758
TCL: Running FEP window  11: Lambda1 0.4999999999999996 Lambda2 0.4499999999999996 [dLambda -0.04999999999999999]
TCL: Setting parameter firsttimestep to 0
TCL: Setting parameter alchLambda to 0.4999999999999996
Info: NONBONDED TABLE R-SQUARED SPACING: 0.0625
Info: NONBONDED TABLE SIZE: 705 POINTS
TCL: Setting parameter alchLambda2 to 0.4499999999999996
Info: NONBONDED TABLE R-SQUARED SPACING: 0.0625
Info: NONBONDED TABLE SIZE: 705 POINTS
TCL: Running for 1500000 steps
ETITLE: TS BOND ANGLE DIHED IMPRP ELECT VDW BOUNDARY MISC KINETIC TOTAL TEMP POTENTIAL TOTALAVG TEMPAVG PRESSURE GPRESSURE VOLUME PRESSAVG GPRESSAVG
ENERGY: 0 3.7858 2.1207 2.7105 0.0000 -10676.4557 1398.9269 0.0000 0.0000 1751.6844 -7517.2274 296.8972 -9268.9118 -7517.2274 296.8972 -330.8957 -236.3855 30896.8980 -330.8957 -236.3855
ENERGY: 300000 2.7654 2.7393 4.8528 0.0000 -10660.5260 1434.0348 0.0000 0.0000 1762.5793 -7453.5543 298.7438 -9216.1336 -7479.6239 298.4305 -179.2369 -110.8542 31162.2845 -237.8696 -179.4108
ENERGY: 600000 0.8932 1.8216 2.0761 0.0000 -10902.0895 1512.2954 0.0000 0.0000 1863.9578 -7521.0454 315.9267 -9385.0032 -7492.7666 300.6702 323.1108 364.2937 30466.4020 -210.5487 -151.2196
ENERGY: 900000 1.1898 1.8556 1.4132 0.0000 -10626.6472 1344.1775 0.0000 0.0000 1770.4626 -7507.5484 300.0799 -9278.0110 -7494.4983 300.4981 -922.8787 -854.8878 30732.4665 -230.7167 -172.0487
ENERGY: 1200000 3.7767 2.4228 2.4331 0.0000 -10772.5351 1412.4513 0.0000 0.0000 1776.3448 -7575.1064 301.0769 -9351.4512 -7503.4679 300.6119 -503.5664 -428.4628 30473.7113 -241.6764 -182.7749
ENERGY: 1500000 2.4202 3.8874 5.0223 0.0000 -10631.3904 1433.3521 0.0000 0.0000 1778.3699 -7408.3384 301.4202 -9186.7083 -7510.8807 299.6730 53.0352 85.5107 30824.0391 -196.1970 -143.4934
TCL: Running FEP window  12: Lambda1 0.4499999999999996 Lambda2 0.39999999999999963 [dLambda -0.04999999999999999]
TCL: Setting parameter firsttimestep to 0
TCL: Setting parameter alchLambda to 0.4499999999999996
Info: NONBONDED TABLE R-SQUARED SPACING: 0.0625
Info: NONBONDED TABLE SIZE: 705 POINTS
TCL: Setting parameter alchLambda2 to 0.39999999999999963
Info: NONBONDED TABLE R-SQUARED SPACING: 0.0625
Info: NONBONDED TABLE SIZE: 705 POINTS
TCL: Running for 1500000 steps
ETITLE: TS BOND ANGLE DIHED IMPRP ELECT VDW BOUNDARY MISC KINETIC TOTAL TEMP POTENTIAL TOTALAVG TEMPAVG PRESSURE GPRESSURE VOLUME PRESSAVG GPRESSAVG
ENERGY: 0 2.4202 3.8874 5.0223 0.0000 -10631.3903 1433.5351 0.0000 0.0000 1777.4907 -7409.0346 301.2711 -9186.5253 -7409.0346 301.2711 -1.1024 81.6993 30824.0391 -1.1024 81.6993
ENERGY: 300000 4.5827 0.9301 2.2758 0.0000 -10664.3142 1396.1428 0.0000 0.0000 1752.8782 -7507.5046 297.0995 -9260.3828 -7479.6597 297.8904 -827.2702 -761.4552 31265.1991 -358.2618 -280.2877
ENERGY: 600000 2.1256 2.5946 2.6093 0.0000 -10712.9827 1423.1587 0.0000 0.0000 1777.4842 -7505.0103 301.2700 -9282.4945 -7489.4446 298.6869 -513.6955 -394.6708 30745.0572 -339.6631 -256.0379
ENERGY: 900000 4.6771 0.8713 2.3097 0.0000 -10610.7129 1396.6101 0.0000 0.0000 1789.8727 -7416.3719 303.3698 -9206.2446 -7487.8437 299.9293 -539.2204 -464.3190 31239.9860 -280.5423 -194.7967
ENERGY: 1200000 1.3968 1.6738 2.5101 0.0000 -10647.0623 1399.3983 0.0000 0.0000 1796.9800 -7445.1034 304.5744 -9242.0833 -7494.1423 300.3131 -90.0074 -22.9848 30441.3670 -98.7543 -20.7651
ENERGY: 1500000 2.3290 4.4928 3.0000 0.0000 -10783.0044 1458.0105 0.0000 0.0000 1759.4090 -7555.7632 298.2064 -9315.1721 -7505.3828 300.2709 90.6143 124.1979 30538.7313 -96.1866 -19.3379
TCL: Running FEP window  13: Lambda1 0.39999999999999963 Lambda2 0.34999999999999964 [dLambda -0.04999999999999999]
TCL: Setting parameter firsttimestep to 0
TCL: Setting parameter alchLambda to 0.39999999999999963
Info: NONBONDED TABLE R-SQUARED SPACING: 0.0625
Info: NONBONDED TABLE SIZE: 705 POINTS
TCL: Setting parameter alchLambda2 to 0.34999999999999964
Info: NONBONDED TABLE R-SQUARED SPACING: 0.0625
Info: NONBONDED TABLE SIZE: 705 POINTS
TCL: Running for 1500000 steps
ETITLE: TS BOND ANGLE DIHED IMPRP ELECT VDW BOUNDARY MISC KINETIC TOTAL TEMP POTENTIAL TOTALAVG TEMPAVG PRESSURE GPRESSURE VOLUME PRESSAVG GPRESSAVG
ENERGY: 0 2.3290 4.4928 3.0000 0.0000 -10783.0054 1457.1565 0.0000 0.0000 1758.5178 -7557.5092 298.0554 -9316.0271 -7557.5092 298.0554 34.6919 108.6118 30538.7313 34.6919 108.6118
ENERGY: 300000 3.7234 1.3421 3.7396 0.0000 -10733.6780 1457.3161 0.0000 0.0000 1793.3933 -7474.1636 303.9665 -9267.5568 -7499.8147 300.2541 44.9061 89.4896 30451.8407 -230.5974 -147.6867
ENERGY: 600000 1.4110 4.9502 1.9727 0.0000 -10631.5478 1442.0723 0.0000 0.0000 1822.6723 -7358.4693 308.9291 -9181.1416 -7483.7460 299.9839 204.5748 258.6743 30793.9425 -228.4699 -152.0112
ENERGY: 900000 1.7309 2.3087 1.6685 0.0000 -10760.3491 1456.3350 0.0000 0.0000 1734.4784 -7563.8277 293.9809 -9298.3061 -7489.9809 298.8591 10.8749 71.5819 30767.1402 -290.6683 -221.4803
ENERGY: 1200000 1.6897 3.4281 4.6621 0.0000 -10800.5243 1504.8245 0.0000 0.0000 1755.7278 -7530.1921 297.5825 -9285.9199 -7492.7818 299.8118 715.7903 775.0984 29968.1107 -197.0980 -134.5562
ENERGY: 1500000 3.2638 4.3540 2.3440 0.0000 -10722.9720 1406.4758 0.0000 0.0000 1738.5416 -7567.9928 294.6696 -9306.5344 -7497.7804 299.3148 -298.7660 -273.5690 30414.6857 -208.3758 -152.8720
TCL: Running FEP window  14: Lambda1 0.34999999999999964 Lambda2 0.29999999999999966 [dLambda -0.04999999999999999]
TCL: Setting parameter firsttimestep to 0
TCL: Setting parameter alchLambda to 0.34999999999999964
Info: NONBONDED TABLE R-SQUARED SPACING: 0.0625
Info: NONBONDED TABLE SIZE: 705 POINTS
TCL: Setting parameter alchLambda2 to 0.29999999999999966
Info: NONBONDED TABLE R-SQUARED SPACING: 0.0625
Info: NONBONDED TABLE SIZE: 705 POINTS
TCL: Running for 1500000 steps
ETITLE: TS BOND ANGLE DIHED IMPRP ELECT VDW BOUNDARY MISC KINETIC TOTAL TEMP POTENTIAL TOTALAVG TEMPAVG PRESSURE GPRESSURE VOLUME PRESSAVG GPRESSAVG
ENERGY: 0 3.2638 4.3540 2.3440 0.0000 -10722.9722 1406.7358 0.0000 0.0000 1737.6598 -7568.6148 294.5201 -9306.2745 -7568.6148 294.5201 -370.8368 -280.6956 30414.6857 -370.8368 -280.6956
ENERGY: 300000 2.7072 1.7691 3.1656 0.0000 -10802.0098 1453.3444 0.0000 0.0000 1777.8101 -7563.2134 301.3253 -9341.0235 -7526.6064 298.6564 39.3539 108.0393 30010.2414 135.6996 200.4704
ENERGY: 600000 3.0058 1.1040 2.5552 0.0000 -10685.5787 1400.6345 0.0000 0.0000 1779.6913 -7498.5880 301.6441 -9278.2793 -7525.0616 299.2888 -348.7607 -299.3441 30690.2311 -62.9831 1.8061
ENERGY: 900000 2.7536 2.9174 2.1618 0.0000 -10765.0704 1434.2402 0.0000 0.0000 1798.5253 -7524.4721 304.8363 -9322.9973 -7507.4275 300.6723 -130.4129 -129.3789 30540.1782 -73.6071 -15.9535
ENERGY: 1200000 2.6590 3.7868 5.1557 0.0000 -10629.7046 1348.4020 0.0000 0.0000 1817.1093 -7452.5918 307.9862 -9269.7011 -7497.3317 301.3766 -698.6234 -675.3397 30491.1555 -64.9321 -5.3888
ENERGY: 1500000 2.8961 1.9439 4.4328 0.0000 -10782.8402 1456.9817 0.0000 0.0000 1738.3225 -7578.2632 294.6324 -9316.5857 -7503.9106 301.1521 90.5023 138.1733 30450.3003 -13.6304 43.8949
TCL: Running FEP window  15: Lambda1 0.29999999999999966 Lambda2 0.24999999999999967 [dLambda -0.04999999999999999]
TCL: Setting parameter firsttimestep to 0
TCL: Setting parameter alchLambda to 0.29999999999999966
Info: NONBONDED TABLE R-SQUARED SPACING: 0.0625
Info: NONBONDED TABLE SIZE: 705 POINTS
TCL: Setting parameter alchLambda2 to 0.24999999999999967
Info: NONBONDED TABLE R-SQUARED SPACING: 0.0625
Info: NONBONDED TABLE SIZE: 705 POINTS
TCL: Running for 1500000 steps
ETITLE: TS BOND ANGLE DIHED IMPRP ELECT VDW BOUNDARY MISC KINETIC TOTAL TEMP POTENTIAL TOTALAVG TEMPAVG PRESSURE GPRESSURE VOLUME PRESSAVG GPRESSAVG
ENERGY: 0 2.8961 1.9439 4.4328 0.0000 -10782.8387 1457.3998 0.0000 0.0000 1737.4416 -7578.7246 294.4831 -9316.1661 -7578.7246 294.4831 58.2139 135.4097 30450.3003 58.2139 135.4097
ENERGY: 300000 1.9780 2.3218 2.3164 0.0000 -10773.4889 1406.1770 0.0000 0.0000 1811.4999 -7549.1958 307.0354 -9360.6958 -7540.3287 297.7648 -714.2099 -557.9046 30747.5016 -357.3226 -274.8604
ENERGY: 600000 4.7578 2.2060 0.7260 0.0000 -10684.7378 1423.8141 0.0000 0.0000 1803.2733 -7449.9606 305.6411 -9253.2339 -7522.1027 299.0876 -209.3935 -84.6313 30647.7823 -218.3888 -124.6754
ENERGY: 900000 3.2074 4.7126 3.7958 0.0000 -10893.3619 1514.5895 0.0000 0.0000 1724.8597 -7642.1969 292.3506 -9367.0566 -7538.6830 297.2281 469.1276 572.6403 30238.0949 -138.9113 -55.9038
ENERGY: 1200000 5.9551 3.7116 2.9377 0.0000 -10846.4119 1525.2948 0.0000 0.0000 1781.4295 -7527.0833 301.9387 -9308.5128 -7528.6450 298.2547 462.5456 510.4991 30506.0898 -81.4006 -1.4360
ENERGY: 1500000 1.9681 3.5346 2.5036 0.0000 -10659.0992 1386.7577 0.0000 0.0000 1725.0732 -7539.2620 292.3868 -9264.3351 -7533.7161 297.3150 -236.1011 -303.3456 30553.8461 -97.0261 -22.7277
TCL: Running FEP window  16: Lambda1 0.24999999999999967 Lambda2 0.19999999999999968 [dLambda -0.04999999999999999]
TCL: Setting parameter firsttimestep to 0
TCL: Setting parameter alchLambda to 0.24999999999999967
Info: NONBONDED TABLE R-SQUARED SPACING: 0.0625
Info: NONBONDED TABLE SIZE: 705 POINTS
TCL: Setting parameter alchLambda2 to 0.19999999999999968
Info: NONBONDED TABLE R-SQUARED SPACING: 0.0625
Info: NONBONDED TABLE SIZE: 705 POINTS
TCL: Running for 1500000 steps
ETITLE: TS BOND ANGLE DIHED IMPRP ELECT VDW BOUNDARY MISC KINETIC TOTAL TEMP POTENTIAL TOTALAVG TEMPAVG PRESSURE GPRESSURE VOLUME PRESSAVG GPRESSAVG
ENERGY: 0 1.9681 3.5346 2.5036 0.0000 -10659.0996 1386.0468 0.0000 0.0000 1724.1959 -7540.8506 292.2381 -9265.0464 -7540.8506 292.2381 -379.2221 -310.3408 30553.8461 -379.2221 -310.3408
ENERGY: 300000 2.3257 2.2919 2.4462 0.0000 -10717.5719 1466.0487 0.0000 0.0000 1759.0017 -7485.4577 298.1374 -9244.4595 -7530.1936 297.6302 215.9506 236.9985 30724.6137 -116.7852 -66.2856
ENERGY: 600000 4.9148 2.3051 1.7197 0.0000 -10857.5976 1503.7534 0.0000 0.0000 1753.0965 -7591.8081 297.1365 -9344.9046 -7538.0850 297.8755 338.6521 281.3064 30431.3659 13.5323 42.1335
ENERGY: 900000 2.8344 4.4058 1.2955 0.0000 -10703.4228 1454.3909 0.0000 0.0000 1778.3060 -7462.1902 301.4093 -9240.4962 -7521.7462 299.5733 184.2024 254.5011 30255.8609 0.7840 42.4779
ENERGY: 1200000 3.5815 2.6778 1.6238 0.0000 -10773.7918 1418.5948 0.0000 0.0000 1729.9535 -7617.3604 293.2139 -9347.3139 -7518.8277 299.2599 -645.0429 -570.4623 30558.3637 -98.9379 -59.8723
ENERGY: 1500000 2.9733 3.2578 0.7032 0.0000 -10722.0665 1408.6800 0.0000 0.0000 1746.4220 -7560.0301 296.0052 -9306.4521 -7521.3474 299.3998 -304.7951 -217.5747 30579.6090 -38.6220 5.4374
TCL: Running FEP window  17: Lambda1 0.19999999999999968 Lambda2 0.1499999999999997 [dLambda -0.04999999999999999]
TCL: Setting parameter firsttimestep to 0
TCL: Setting parameter alchLambda to 0.19999999999999968
Info: NONBONDED TABLE R-SQUARED SPACING: 0.0625
Info: NONBONDED TABLE SIZE: 705 POINTS
TCL: Setting parameter alchLambda2 to 0.1499999999999997
Info: NONBONDED TABLE R-SQUARED SPACING: 0.0625
Info: NONBONDED TABLE SIZE: 705 POINTS
TCL: Running for 1500000 steps
ETITLE: TS BOND ANGLE DIHED IMPRP ELECT VDW BOUNDARY MISC KINETIC TOTAL TEMP POTENTIAL TOTALAVG TEMPAVG PRESSURE GPRESSURE VOLUME PRESSAVG GPRESSAVG
ENERGY: 0 2.9733 3.2578 0.7032 0.0000 -10722.0695 1408.8579 0.0000 0.0000 1745.5570 -7560.7203 295.8586 -9306.2773 -7560.7203 295.8586 -292.9856 -220.9768 30579.6090 -292.9856 -220.9768
ENERGY: 300000 2.3424 0.8477 3.7879 0.0000 -10642.6075 1379.9005 0.0000 0.0000 1792.9285 -7462.8005 303.8877 -9255.7290 -7487.8100 301.5582 -482.8944 -477.9260 30740.8745 20.2266 79.2316
ENERGY: 600000 0.7992 1.6854 3.2496 0.0000 -10718.9411 1435.2194 0.0000 0.0000 1752.9690 -7525.0186 297.1149 -9277.9876 -7503.3303 300.8464 -134.3645 -58.4955 30523.6487 -3.2288 59.2797
ENERGY: 900000 4.1869 2.7186 5.3726 0.0000 -10823.4848 1482.7230 0.0000 0.0000 1785.6509 -7542.8329 302.6542 -9328.4838 -7519.7721 300.1399 -28.0862 63.2795 30581.7429 34.0326 101.4580
ENERGY: 1200000 7.0365 2.0741 4.2667 0.0000 -10709.8299 1396.2221 0.0000 0.0000 1723.7626 -7576.4679 292.1646 -9300.2305 -7516.9797 300.3591 -404.6864 -374.7165 30413.8274 21.8405 86.9413
ENERGY: 1500000 3.7228 4.1360 4.0123 0.0000 -10714.3364 1458.9385 0.0000 0.0000 1778.7259 -7464.8009 301.4805 -9243.5268 -7519.4094 299.9019 285.9288 336.1663 30673.2430 -32.9630 29.2578
TCL: Running FEP window  18: Lambda1 0.1499999999999997 Lambda2 0.09999999999999969 [dLambda -0.05 ]
TCL: Setting parameter firsttimestep to 0
TCL: Setting parameter alchLambda to 0.1499999999999997
Info: NONBONDED TABLE R-SQUARED SPACING: 0.0625
Info: NONBONDED TABLE SIZE: 705 POINTS
TCL: Setting parameter alchLambda2 to 0.09999999999999969
Info: NONBONDED TABLE R-SQUARED SPACING: 0.0625
Info: NONBONDED TABLE SIZE: 705 POINTS
TCL: Running for 1500000 steps
ETITLE: TS BOND ANGLE DIHED IMPRP ELECT VDW BOUNDARY MISC KINETIC TOTAL TEMP POTENTIAL TOTALAVG TEMPAVG PRESSURE GPRESSURE VOLUME PRESSAVG GPRESSAVG
ENERGY: 0 3.7228 4.1360 4.0123 0.0000 -10714.3373 1459.2322 0.0000 0.0000 1777.8562 -7465.3778 301.3331 -9243.2340 -7465.3778 301.3331 239.0380 332.0115 30673.2430 239.0380 332.0115
ENERGY: 300000 2.1537 1.7005 3.5338 0.0000 -10789.5379 1486.6757 0.0000 0.0000 1775.4407 -7520.0335 300.9237 -9295.4742 -7522.8064 298.2620 144.3367 173.9258 30564.7294 219.3794 255.1571
ENERGY: 600000 4.3888 2.3466 2.5035 0.0000 -10635.4491 1391.3311 0.0000 0.0000 1775.4576 -7459.4215 300.9265 -9234.8791 -7523.1825 300.3809 -491.6025 -370.6229 30682.1578 141.0905 201.6195
ENERGY: 900000 1.8331 0.9396 4.1381 0.0000 -10929.5235 1526.9801 0.0000 0.0000 1794.7529 -7600.8796 304.1970 -9395.6326 -7526.4665 300.6803 542.6224 549.4090 30290.3217 219.0709 268.2451
ENERGY: 1200000 4.2289 1.0728 3.1998 0.0000 -10679.7960 1390.0144 0.0000 0.0000 1819.4322 -7461.8479 308.3799 -9281.2801 -7521.9463 300.7078 -202.7503 -69.0862 30202.7866 115.2913 170.6223
ENERGY: 1500000 4.7347 1.7871 2.1502 0.0000 -10765.7589 1520.9449 0.0000 0.0000 1730.4846 -7505.6574 293.3040 -9236.1420 -7515.6775 300.5782 198.9533 293.5757 31072.6280 154.3711 205.6312
TCL: Running FEP window  19: Lambda1 0.09999999999999969 Lambda2 0.049999999999999684 [dLambda -0.05 ]
TCL: Setting parameter firsttimestep to 0
TCL: Setting parameter alchLambda to 0.09999999999999969
Info: NONBONDED TABLE R-SQUARED SPACING: 0.0625
Info: NONBONDED TABLE SIZE: 705 POINTS
TCL: Setting parameter alchLambda2 to 0.049999999999999684
Info: NONBONDED TABLE R-SQUARED SPACING: 0.0625
Info: NONBONDED TABLE SIZE: 705 POINTS
TCL: Running for 1500000 steps
ETITLE: TS BOND ANGLE DIHED IMPRP ELECT VDW BOUNDARY MISC KINETIC TOTAL TEMP POTENTIAL TOTALAVG TEMPAVG PRESSURE GPRESSURE VOLUME PRESSAVG GPRESSAVG
ENERGY: 0 4.7347 1.7871 2.1502 0.0000 -10765.7603 1521.1452 0.0000 0.0000 1729.6247 -7506.3185 293.1582 -9235.9431 -7506.3185 293.1582 217.6039 290.4737 31072.6280 217.6039 290.4737
ENERGY: 300000 4.6541 3.4490 2.8283 0.0000 -10776.8808 1466.9705 0.0000 0.0000 1787.1517 -7511.8273 302.9086 -9298.9790 -7447.6892 302.1275 53.2256 108.6847 30498.7734 185.0310 243.7075
ENERGY: 600000 3.5949 2.9747 5.3757 0.0000 -10741.9626 1414.1045 0.0000 0.0000 1731.1045 -7584.8082 293.4090 -9315.9127 -7487.9579 299.9875 -454.5755 -453.4815 30349.2476 -61.8493 -25.6933
ENERGY: 900000 2.6161 1.5468 5.7552 0.0000 -10917.7847 1475.4360 0.0000 0.0000 1758.6703 -7673.7603 298.0812 -9432.4306 -7513.2346 298.6843 -218.6448 -100.8817 30251.0001 -41.7999 11.0537
ENERGY: 1200000 1.5376 1.5229 1.1806 0.0000 -10881.8805 1516.4034 0.0000 0.0000 1735.9932 -7625.2427 294.2376 -9361.2359 -7527.7499 298.3215 539.2237 540.8121 30086.5331 -38.9183 9.9109
ENERGY: 1500000 5.8820 2.6327 4.3860 0.0000 -10687.1561 1434.2399 0.0000 0.0000 1749.3490 -7490.6666 296.5013 -9240.0155 -7521.6643 298.5550 -363.7621 -242.8984 30640.6939 -69.8391 -10.4977
TCL: Running FEP window  20: Lambda1 0.049999999999999684 Lambda2 0.0    [dLambda -0.049999999999999684]
TCL: Setting parameter firsttimestep to 0
TCL: Setting parameter alchLambda to 0.049999999999999684
Info: NONBONDED TABLE R-SQUARED SPACING: 0.0625
Info: NONBONDED TABLE SIZE: 705 POINTS
TCL: Setting parameter alchLambda2 to 0.0
Info: NONBONDED TABLE R-SQUARED SPACING: 0.0625
Info: NONBONDED TABLE SIZE: 705 POINTS
TCL: Running for 1500000 steps
ETITLE: TS BOND ANGLE DIHED IMPRP ELECT VDW BOUNDARY MISC KINETIC TOTAL TEMP POTENTIAL TOTALAVG TEMPAVG PRESSURE GPRESSURE VOLUME PRESSAVG GPRESSAVG
ENERGY: 0 5.8820 2.6327 4.3860 0.0000 -10687.1564 1434.4009 0.0000 0.0000 1748.4750 -7491.3798 296.3532 -9239.8548 -7491.3798 296.3532 -338.4614 -245.7661 30640.6939 -338.4614 -245.7661
ENERGY: 300000 3.9043 2.1127 2.0747 0.0000 -10802.8836 1497.0185 0.0000 0.0000 1753.1551 -7544.6181 297.1464 -9297.7732 -7546.4390 298.4391 456.7875 452.9918 30139.0519 -62.9977 9.9095
ENERGY: 600000 3.2928 0.7672 3.2907 0.0000 -10654.2429 1417.2515 0.0000 0.0000 1746.5586 -7483.0823 296.0284 -9229.6408 -7534.6306 299.6953 -282.5499 -228.3357 30631.9871 -86.6053 -28.3555
ENERGY: 900000 3.7753 2.2971 2.3608 0.0000 -10622.8532 1425.2575 0.0000 0.0000 1801.4213 -7387.7413 305.3272 -9189.1625 -7515.0506 301.2820 -277.7996 -217.1763 30752.9986 9.9740 70.4489
ENERGY: 1200000 1.3909 2.6812 1.9664 0.0000 -10722.7554 1380.8612 0.0000 0.0000 1733.7535 -7602.1021 293.8580 -9335.8556 -7517.5660 301.2215 -622.8129 -587.0174 30531.7981 -103.2367 -51.2856
ENERGY: 1500000 3.5232 4.6332 3.6621 0.0000 -10853.9334 1557.5730 0.0000 0.0000 1787.3252 -7497.2167 302.9380 -9284.5419 -7515.2441 301.8304 819.4185 912.1820 30377.2882 -87.9990 -35.2603
TCL: Exiting due to exit command.
