Info: SIMULATION PARAMETERS:
Info: TIMESTEP               2
Info: NUMBER OF STEPS        0
Info: STEPS PER CYCLE        10
Info: PERIODIC CELL BASIS 1  31.5159 0 0
Info: PERIODIC CELL BASIS 2  0 29.9885 0
Info: PERIODIC CELL BASIS 3  0 0 31.2691
Info: PERIODIC CELL CENTER   0 0 0
Info: WRAPPING WATERS AROUND PERIODIC BOUNDARIES ON OUTPUT.
Info: WRAPPING ALL CLUSTERS AROUND PERIODIC BOUNDARIES ON OUTPUT.
Info: FIRST LDB TIMESTEP     50
Info: LAST LDB TIMESTEP     -1
Info: HOM BACKGROUND SCALING 1
Info: PME BACKGROUND SCALING 1
Info: MIN ATOMS PER PATCH    40
Info: EMPTY PATCH LOAD       40 ATOMS
Info: VELOCITY FILE          mobley_9073553_equil.vel
Info: CENTER OF MASS MOVING INITIALLY? NO
Info: DIELECTRIC             1
Info: EXCLUDE                SCALED ONE-FOUR
Info: 1-4 ELECTROSTATICS SCALED BY 0.833333
Info: MODIFIED 1-4 VDW PARAMETERS WILL BE USED
Info: DCD FILENAME           mobley_9073553_prod.dcd
Info: DCD FREQUENCY          100000
Info: DCD FIRST STEP         100000
Info: DCD FILE WILL CONTAIN UNIT CELL DATA
Info: XST FILENAME           mobley_9073553_prod.xst
Info: XST FREQUENCY          100000
Info: NO VELOCITY DCD OUTPUT
Info: NO FORCE DCD OUTPUT
Info: OUTPUT FILENAME        mobley_9073553_prod
Info: BINARY OUTPUT FILES WILL BE USED
Info: RESTART FILENAME       mobley_9073553_prod.restart
Info: RESTART FREQUENCY      100000
Info: BINARY RESTART FILES WILL BE USED
Info: CUTOFF                 9
Info: PAIRLIST DISTANCE      11
Info: PAIRLIST SHRINK RATE   0.01
Info: PAIRLIST GROW RATE     0.01
Info: PAIRLIST TRIGGER       0.3
Info: PAIRLISTS PER CYCLE    2
Info: PAIRLISTS ENABLED
Info: MARGIN                 2
Info: HYDROGEN GROUP CUTOFF  2.5
Info: PATCH DIMENSION        15.5
Info: ENERGY OUTPUT STEPS    100000
Info: ENERGY EVALUATION STEPS    100000
Info: OUTPUT ENERGY PRECISION 4
Info: CROSSTERM ENERGY INCLUDED IN DIHEDRAL
Info: TIMING OUTPUT STEPS    1000000
Info: PRESSURE OUTPUT STEPS  100000
Info: ALCHEMICAL FEP ON
Info: FEP CURRENT LAMBDA VALUE     0
Info: FEP COMPARISON LAMBDA VALUE  0.05
Info: FEP INTRA-ALCHEMICAL NON-BONDED INTERACTIONS WILL BE RETAINED
Info: FEP INTRA-ALCHEMICAL BONDED INTERACTIONS WILL BE RETAINED
Info: FEP VDW SHIFTING COEFFICIENT 5
Info: FEP ELEC. ACTIVE FOR ANNIHILATED PARTICLES BETWEEN LAMBDA = 0 AND LAMBDA = 0.5
Info: FEP ELEC. ACTIVE FOR EXNIHILATED PARTICLES BETWEEN LAMBDA = 0.5 AND LAMBDA = 1
Info: FEP VDW ACTIVE FOR ANNIHILATED PARTICLES BETWEEN LAMBDA = 0 AND LAMBDA = 1
Info: FEP VDW ACTIVE FOR EXNIHILATED PARTICLES BETWEEN LAMBDA = 0 AND LAMBDA = 1
Info: FEP BOND ACTIVE FOR ANNIHILATED PARTICLES BETWEEN LAMBDA = 1 AND LAMBDA = 1
Info: FEP BOND ACTIVE FOR EXNIHILATED PARTICLES BETWEEN LAMBDA = 0 AND LAMBDA = 0
Info: LANGEVIN DYNAMICS ACTIVE
Info: LANGEVIN TEMPERATURE   300
Info: LANGEVIN USING BBK INTEGRATOR
Info: LANGEVIN DAMPING COEFFICIENT IS 1 INVERSE PS
Info: LANGEVIN DYNAMICS APPLIED TO HYDROGENS
Info: LANGEVIN PISTON PRESSURE CONTROL ACTIVE
Info:        TARGET PRESSURE IS 1.01325 BAR
Info:     OSCILLATION PERIOD IS 50 FS
Info:             DECAY TIME IS 25 FS
Info:     PISTON TEMPERATURE IS 300 K
Info:       PRESSURE CONTROL IS GROUP-BASED
Info:    INITIAL STRAIN RATE IS 4.83133e-05 4.83133e-05 4.83133e-05
Info:       CELL FLUCTUATION IS ISOTROPIC
Info: PARTICLE MESH EWALD (PME) ACTIVE
Info: PME TOLERANCE               1e-06
Info: PME EWALD COEFFICIENT       0.348832
Info: PME INTERPOLATION ORDER     4
Info: PME GRID DIMENSIONS         32 32 32
Info: PME MAXIMUM GRID SPACING    1
Info: PME CALCULATION WILL BE PERFORMED ON GPU
Info: FULL ELECTROSTATIC EVALUATION FREQUENCY      2
Info: USING VERLET I (r-RESPA) MTS SCHEME.
Info: C1 SPLITTING OF LONG RANGE ELECTROSTATICS
Info: PLACING ATOMS IN PATCHES BY HYDROGEN GROUPS
Info: RIGID BONDS TO HYDROGEN : ALL
Info:         ERROR TOLERANCE : 1e-08
Info:          MAX ITERATIONS : 100
Info: RIGID WATER USING SETTLE ALGORITHM
Info: RANDOM NUMBER SEED     1743503128
Info: USE HYDROGEN BONDS?    NO
Info: Using AMBER format force field!
Info: AMBER PARM FILE        mobley_9073553.prmtop
Info: COORDINATE PDB         mobley_9073553.pdb
Info: Exclusions will be read from PARM file!
Info: SCNB (VDW SCALING)     2
Info: USING ARITHMETIC MEAN TO COMBINE L-J SIGMA PARAMETERS
Info: BINARY COORDINATES     mobley_9073553_equil.coor
Info: SUMMARY OF PARAMETERS:
Info: 4 BONDS
Info: 3 ANGLES
Info:   3 HARMONIC
Info:   0 COSINE-BASED
Info: 1 DIHEDRAL
Info: 0 IMPROPER
Info: 0 CROSSTERM
Info: 0 VDW
Info: 15 VDW_PAIRS
Info: 0 NBTHOLE_PAIRS
Info: To read alchdata from file: mobley_9073553.pdb
Info: To read alchflag data from column: 5
Info: STRUCTURE SUMMARY:
Info: 2925 ATOMS
Info: 2924 BONDS
Info: 13 ANGLES
Info: 6 DIHEDRALS
Info: 0 IMPROPERS
Info: 0 CROSSTERMS
Info: 2943 EXCLUSIONS
Info: 2922 RIGID BONDS
Info: ALCH: 0 ATOMS TO DISAPPEAR IN FINAL STATE
Info: ALCH: 9 ATOMS TO APPEAR IN FINAL STATE
Info: 5853 DEGREES OF FREEDOM
Info: 975 HYDROGEN GROUPS
Info: 4 ATOMS IN LARGEST HYDROGEN GROUP
Info: 975 MIGRATION GROUPS
Info: 4 ATOMS IN LARGEST MIGRATION GROUP
Info: TOTAL MASS = 17573.7 amu
Info: TOTAL CHARGE = 0.00029999 e
Info: MASS DENSITY = 0.987467 g/cm^3
Info: ATOM DENSITY = 0.0989752 atoms/A^3
Info: ADDED 0 IMPLICIT EXCLUSIONS
Info: NONBONDED TABLE R-SQUARED SPACING: 0.0625
Info: NONBONDED TABLE SIZE: 705 POINTS
Info: REMOVING COM VELOCITY 0.209061 -0.147176 -0.00880973
Info: Use 3D box decompostion in PME FFT.
Info: Updated CUDA force table with 4096 elements.
Info: Updated CUDA LJ table with 5 x 5 elements.
Info: Found 12 unique exclusion lists needing 16 bytes
TCL: Running for 1500000 steps
ETITLE: TS BOND ANGLE DIHED IMPRP ELECT VDW BOUNDARY MISC KINETIC TOTAL TEMP POTENTIAL TOTALAVG TEMPAVG PRESSURE GPRESSURE VOLUME PRESSAVG GPRESSAVG
ENERGY: 0 0.2961 4.6952 0.5393 0.0000 -10648.3905 1431.6189 0.0000 0.0000 1669.4949 -7541.7462 287.0761 -9211.2411 -7541.7462 287.0761 4.3395 104.7476 29552.8598 4.3395 104.7476
ENERGY: 300000 0.2262 5.0585 1.5737 0.0000 -10511.7433 1354.0519 0.0000 0.0000 1762.5021 -7388.3310 303.0690 -9150.8331 -7456.7843 296.5902 -652.8521 -564.6611 30075.2796 172.7886 222.0156
ENERGY: 600000 2.7679 4.2139 0.2930 0.0000 -10574.4941 1378.2129 0.0000 0.0000 1753.6491 -7435.3574 301.5467 -9189.0065 -7431.8213 300.4222 -737.1059 -673.8090 30323.4249 66.0655 116.0248
ENERGY: 900000 0.2157 5.6674 0.9054 0.0000 -10657.4601 1393.9256 0.0000 0.0000 1793.3070 -7463.4389 308.3660 -9256.7460 -7423.3220 302.9203 -630.0334 -636.5570 30223.4700 19.7251 64.1204
ENERGY: 1200000 0.1288 3.7410 2.0121 0.0000 -10614.9097 1386.8710 0.0000 0.0000 1766.2881 -7455.8686 303.7200 -9222.1567 -7434.3695 301.9390 -250.5817 -273.3428 29856.3555 120.2274 165.0791
ENERGY: 1500000 0.2841 3.7504 0.5133 0.0000 -10657.3472 1457.0841 0.0000 0.0000 1755.7731 -7439.9422 301.9119 -9195.7153 -7430.1232 302.0638 51.1163 190.9779 30152.9910 103.2835 154.7391
TCL: Running FEP window   2: Lambda1 0.05   Lambda2 0.1    [dLambda 0.05  ]
TCL: Setting parameter firsttimestep to 0
TCL: Setting parameter alchLambda to 0.05
Info: NONBONDED TABLE R-SQUARED SPACING: 0.0625
Info: NONBONDED TABLE SIZE: 705 POINTS
TCL: Setting parameter alchLambda2 to 0.1
Info: NONBONDED TABLE R-SQUARED SPACING: 0.0625
Info: NONBONDED TABLE SIZE: 705 POINTS
TCL: Running for 1500000 steps
ETITLE: TS BOND ANGLE DIHED IMPRP ELECT VDW BOUNDARY MISC KINETIC TOTAL TEMP POTENTIAL TOTALAVG TEMPAVG PRESSURE GPRESSURE VOLUME PRESSAVG GPRESSAVG
ENERGY: 0 0.2841 3.7504 0.5133 0.0000 -10657.3478 1459.3143 0.0000 0.0000 1754.9013 -7438.5844 301.7620 -9193.4857 -7438.5844 301.7620 117.5649 198.3579 30152.9910 117.5649 198.3579
ENERGY: 300000 1.1297 3.3962 0.8727 0.0000 -10679.7301 1476.0871 0.0000 0.0000 1742.0190 -7456.2256 299.5468 -9198.2445 -7454.7784 298.3076 146.6829 168.5501 30240.9095 162.3524 213.4802
ENERGY: 600000 1.4343 2.6192 0.3732 0.0000 -10650.6879 1418.1360 0.0000 0.0000 1780.7625 -7447.3627 306.2089 -9228.1252 -7441.1929 301.3537 -111.0811 -46.7890 29776.8788 295.5248 351.7804
ENERGY: 900000 0.7774 1.7277 0.2676 0.0000 -10585.8280 1384.1631 0.0000 0.0000 1740.9485 -7457.9436 299.3628 -9198.8922 -7446.3619 299.9858 -354.7118 -323.5055 29959.5000 193.7278 236.0140
ENERGY: 1200000 0.1704 5.7199 1.0956 0.0000 -10570.3117 1406.8952 0.0000 0.0000 1760.3331 -7396.0975 302.6960 -9156.4306 -7452.1328 299.0014 -242.4149 -157.6284 30159.7009 82.2925 128.1227
ENERGY: 1500000 1.9474 5.1794 1.2515 0.0000 -10636.8942 1398.8045 0.0000 0.0000 1803.8498 -7425.8617 310.1789 -9229.7115 -7445.6825 300.2743 -68.4855 -27.3716 29552.6433 146.1491 196.5386
TCL: Running FEP window   3: Lambda1 0.1    Lambda2 0.15000000000000002 [dLambda 0.05000000000000002]
TCL: Setting parameter firsttimestep to 0
TCL: Setting parameter alchLambda to 0.1
Info: NONBONDED TABLE R-SQUARED SPACING: 0.0625
Info: NONBONDED TABLE SIZE: 705 POINTS
TCL: Setting parameter alchLambda2 to 0.15000000000000002
Info: NONBONDED TABLE R-SQUARED SPACING: 0.0625
Info: NONBONDED TABLE SIZE: 705 POINTS
TCL: Running for 1500000 steps
ETITLE: TS BOND ANGLE DIHED IMPRP ELECT VDW BOUNDARY MISC KINETIC TOTAL TEMP POTENTIAL TOTALAVG TEMPAVG PRESSURE GPRESSURE VOLUME PRESSAVG GPRESSAVG
ENERGY: 0 1.9474 5.1794 1.2515 0.0000 -10636.8925 1400.4771 0.0000 0.0000 1802.9712 -7425.0660 310.0278 -9228.0372 -7425.0660 310.0278 -110.4404 -21.0385 29552.6433 -110.4404 -21.0385
ENERGY: 300000 1.3665 5.0106 2.2500 0.0000 -10485.8378 1298.2833 0.0000 0.0000 1783.1108 -7395.8167 306.6127 -9178.9275 -7439.2959 304.7648 -1312.9032 -1211.6626 30663.2165 -425.9732 -344.4796
ENERGY: 600000 0.3453 4.2209 0.6897 0.0000 -10607.4496 1509.1991 0.0000 0.0000 1751.3006 -7341.6941 301.1428 -9092.9947 -7416.7143 302.1383 598.1201 697.7793 30294.5096 -319.5268 -243.7235
ENERGY: 900000 0.1661 3.4558 0.9079 0.0000 -10601.3440 1477.4869 0.0000 0.0000 1758.0509 -7361.2763 302.3036 -9119.3272 -7406.7692 302.9099 550.5597 673.2263 30077.5977 -219.6989 -140.5223
ENERGY: 1200000 0.3299 2.9059 1.5285 0.0000 -10484.8363 1340.4051 0.0000 0.0000 1783.6124 -7356.0544 306.6990 -9139.6668 -7421.6248 301.7002 -568.8481 -583.8932 30410.4282 -128.0595 -65.8613
ENERGY: 1500000 0.0778 4.4254 1.4257 0.0000 -10628.7414 1425.2466 0.0000 0.0000 1737.6986 -7459.8672 298.8039 -9197.5658 -7427.4411 300.9327 30.0293 151.2708 29696.5207 -105.7048 -40.4703
TCL: Running FEP window   4: Lambda1 0.15000000000000002 Lambda2 0.2    [dLambda 0.04999999999999999]
TCL: Setting parameter firsttimestep to 0
TCL: Setting parameter alchLambda to 0.15000000000000002
Info: NONBONDED TABLE R-SQUARED SPACING: 0.0625
Info: NONBONDED TABLE SIZE: 705 POINTS
TCL: Setting parameter alchLambda2 to 0.2
Info: NONBONDED TABLE R-SQUARED SPACING: 0.0625
Info: NONBONDED TABLE SIZE: 705 POINTS
TCL: Running for 1500000 steps
ETITLE: TS BOND ANGLE DIHED IMPRP ELECT VDW BOUNDARY MISC KINETIC TOTAL TEMP POTENTIAL TOTALAVG TEMPAVG PRESSURE GPRESSURE VOLUME PRESSAVG GPRESSAVG
ENERGY: 0 0.0778 4.4254 1.4257 0.0000 -10628.7419 1425.5645 0.0000 0.0000 1736.8435 -7460.4050 298.6569 -9197.2484 -7460.4050 298.6569 58.6968 153.9561 29696.5207 58.6968 153.9561
ENERGY: 300000 2.7060 2.6351 2.4436 0.0000 -10409.4085 1293.8016 0.0000 0.0000 1720.0004 -7387.8218 295.7607 -9107.8222 -7380.2655 304.7840 -799.6620 -720.9989 29983.0877 -402.7083 -327.1181
ENERGY: 600000 0.1961 4.3965 0.4176 0.0000 -10649.5822 1375.9431 0.0000 0.0000 1675.8067 -7592.8222 288.1614 -9268.6289 -7412.9796 301.1542 -684.0477 -624.4447 29794.2807 -231.8046 -160.9829
ENERGY: 900000 0.3263 3.8932 0.7735 0.0000 -10516.1921 1379.1142 0.0000 0.0000 1742.8409 -7389.2439 299.6882 -9132.0848 -7391.4337 301.6665 -79.1796 63.9260 29767.5103 20.7643 92.0195
ENERGY: 1200000 0.1457 3.4698 0.0358 0.0000 -10676.9725 1467.9793 0.0000 0.0000 1720.0608 -7485.2811 295.7710 -9205.3418 -7393.9290 301.9140 305.1679 387.0169 29677.3452 -4.3315 67.8096
ENERGY: 1500000 0.0494 1.8399 0.0351 0.0000 -10613.3236 1396.3132 0.0000 0.0000 1726.4084 -7488.6777 296.8625 -9215.0860 -7402.4341 301.7742 -354.7811 -280.8172 30068.8473 -119.8907 -50.9029
TCL: Running FEP window   5: Lambda1 0.2    Lambda2 0.25   [dLambda 0.04999999999999999]
TCL: Setting parameter firsttimestep to 0
TCL: Setting parameter alchLambda to 0.2
Info: NONBONDED TABLE R-SQUARED SPACING: 0.0625
Info: NONBONDED TABLE SIZE: 705 POINTS
TCL: Setting parameter alchLambda2 to 0.25
Info: NONBONDED TABLE R-SQUARED SPACING: 0.0625
Info: NONBONDED TABLE SIZE: 705 POINTS
TCL: Running for 1500000 steps
ETITLE: TS BOND ANGLE DIHED IMPRP ELECT VDW BOUNDARY MISC KINETIC TOTAL TEMP POTENTIAL TOTALAVG TEMPAVG PRESSURE GPRESSURE VOLUME PRESSAVG GPRESSAVG
ENERGY: 0 0.0494 1.8399 0.0351 0.0000 -10613.3229 1396.0310 0.0000 0.0000 1725.5236 -7489.8439 296.7104 -9215.3675 -7489.8439 296.7104 -362.3872 -281.9081 30068.8473 -362.3872 -281.9081
ENERGY: 300000 0.0610 3.0317 0.9760 0.0000 -10602.5856 1358.5081 0.0000 0.0000 1745.3965 -7494.6124 300.1276 -9240.0088 -7451.4347 299.4415 -794.8696 -729.0501 30072.7699 -430.4609 -366.9082
ENERGY: 600000 0.4084 3.4712 0.2007 0.0000 -10574.4718 1479.0641 0.0000 0.0000 1694.7206 -7396.6068 291.4137 -9091.3275 -7440.0496 297.9911 423.2045 485.5711 30210.1223 -244.2259 -179.0928
ENERGY: 900000 0.5276 1.5461 0.4348 0.0000 -10663.6240 1454.1676 0.0000 0.0000 1722.2031 -7484.7448 296.1394 -9206.9479 -7450.8121 297.8440 91.2964 171.5774 29896.3846 -226.2881 -165.7886
ENERGY: 1200000 1.3668 2.5348 1.0458 0.0000 -10727.1783 1480.1082 0.0000 0.0000 1765.7741 -7476.3487 303.6316 -9242.1228 -7443.3878 299.2842 434.0866 472.6827 29744.4587 -179.4940 -120.6173
ENERGY: 1500000 0.3026 3.7201 1.9305 0.0000 -10584.7096 1443.7392 0.0000 0.0000 1761.8037 -7373.2135 302.9489 -9135.0172 -7438.9543 300.1424 135.7124 156.0704 30266.8569 -196.8939 -144.3615
TCL: Running FEP window   6: Lambda1 0.25   Lambda2 0.3    [dLambda 0.04999999999999999]
TCL: Setting parameter firsttimestep to 0
TCL: Setting parameter alchLambda to 0.25
Info: NONBONDED TABLE R-SQUARED SPACING: 0.0625
Info: NONBONDED TABLE SIZE: 705 POINTS
TCL: Setting parameter alchLambda2 to 0.3
Info: NONBONDED TABLE R-SQUARED SPACING: 0.0625
Info: NONBONDED TABLE SIZE: 705 POINTS
TCL: Running for 1500000 steps
ETITLE: TS BOND ANGLE DIHED IMPRP ELECT VDW BOUNDARY MISC KINETIC TOTAL TEMP POTENTIAL TOTALAVG TEMPAVG PRESSURE GPRESSURE VOLUME PRESSAVG GPRESSAVG
ENERGY: 0 0.3026 3.7201 1.9305 0.0000 -10584.7103 1443.7492 0.0000 0.0000 1760.9383 -7374.0696 302.8001 -9135.0079 -7374.0696 302.8001 83.6881 159.0622 30266.8569 83.6881 159.0622
ENERGY: 300000 2.7892 3.7203 0.5267 0.0000 -10631.9490 1354.4436 0.0000 0.0000 1752.9862 -7517.4829 301.4327 -9270.4692 -7417.2797 304.8358 -758.5065 -741.8776 29763.6128 -283.6441 -229.6552
ENERGY: 600000 0.0314 6.5564 2.2089 0.0000 -10674.2421 1472.5853 0.0000 0.0000 1760.6716 -7432.1885 302.7542 -9192.8600 -7428.8347 303.4652 -106.5623 -35.8372 30447.9840 -249.4724 -198.0473
ENERGY: 900000 0.0106 2.7677 0.7716 0.0000 -10617.1953 1414.6082 0.0000 0.0000 1718.9863 -7480.0509 295.5863 -9199.0371 -7444.0740 302.1203 -183.9744 -96.6637 30038.3495 -220.0514 -164.9070
ENERGY: 1200000 0.7003 4.3428 1.1284 0.0000 -10586.4092 1451.4369 0.0000 0.0000 1775.9372 -7352.8637 305.3792 -9128.8009 -7449.0007 300.9484 321.5874 359.6725 29792.9972 -159.5840 -104.6697
ENERGY: 1500000 1.0616 2.4953 0.0383 0.0000 -10726.7555 1502.1153 0.0000 0.0000 1749.0394 -7472.0054 300.7540 -9221.0449 -7449.8194 301.2369 468.1738 573.9524 29745.4107 -81.8075 -24.3289
TCL: Running FEP window   7: Lambda1 0.3    Lambda2 0.35   [dLambda 0.04999999999999999]
TCL: Setting parameter firsttimestep to 0
TCL: Setting parameter alchLambda to 0.3
Info: NONBONDED TABLE R-SQUARED SPACING: 0.0625
Info: NONBONDED TABLE SIZE: 705 POINTS
TCL: Setting parameter alchLambda2 to 0.35
Info: NONBONDED TABLE R-SQUARED SPACING: 0.0625
Info: NONBONDED TABLE SIZE: 705 POINTS
TCL: Running for 1500000 steps
ETITLE: TS BOND ANGLE DIHED IMPRP ELECT VDW BOUNDARY MISC KINETIC TOTAL TEMP POTENTIAL TOTALAVG TEMPAVG PRESSURE GPRESSURE VOLUME PRESSAVG GPRESSAVG
ENERGY: 0 1.0616 2.4953 0.0383 0.0000 -10726.7550 1502.0757 0.0000 0.0000 1748.1635 -7472.9205 300.6034 -9221.0841 -7472.9205 300.6034 487.6988 577.1210 29745.4107 487.6988 577.1210
ENERGY: 300000 0.7628 1.4132 0.4519 0.0000 -10641.1013 1480.9045 0.0000 0.0000 1766.7350 -7390.8339 303.7969 -9157.5689 -7460.5828 298.3338 541.7789 630.6838 29928.7349 168.1266 237.9183
ENERGY: 600000 0.6028 0.7753 0.3835 0.0000 -10545.9017 1398.5375 0.0000 0.0000 1693.4607 -7452.1419 291.1971 -9145.6027 -7458.4534 297.2252 -351.4958 -268.6256 30322.5328 145.1956 205.2312
ENERGY: 900000 2.2911 3.8801 1.0583 0.0000 -10653.7140 1414.3840 0.0000 0.0000 1715.4467 -7516.6539 294.9776 -9232.1005 -7461.5543 298.0628 -400.8228 -326.8621 29719.1078 120.3181 184.3473
ENERGY: 1200000 2.4681 2.5724 0.6497 0.0000 -10672.6884 1498.7700 0.0000 0.0000 1727.9231 -7440.3051 297.1230 -9168.2282 -7465.4809 298.3252 641.4738 690.5285 29934.4154 175.6036 244.5606
ENERGY: 1500000 0.3257 2.0434 0.2496 0.0000 -10604.6894 1457.6535 0.0000 0.0000 1717.8661 -7426.5511 295.3937 -9144.4172 -7463.9319 298.5407 409.0909 551.4039 29775.0900 166.2468 238.8961
TCL: Running FEP window   8: Lambda1 0.35   Lambda2 0.39999999999999997 [dLambda 0.04999999999999999]
TCL: Setting parameter firsttimestep to 0
TCL: Setting parameter alchLambda to 0.35
Info: NONBONDED TABLE R-SQUARED SPACING: 0.0625
Info: NONBONDED TABLE SIZE: 705 POINTS
TCL: Setting parameter alchLambda2 to 0.39999999999999997
Info: NONBONDED TABLE R-SQUARED SPACING: 0.0625
Info: NONBONDED TABLE SIZE: 705 POINTS
TCL: Running for 1500000 steps
ETITLE: TS BOND ANGLE DIHED IMPRP ELECT VDW BOUNDARY MISC KINETIC TOTAL TEMP POTENTIAL TOTALAVG TEMPAVG PRESSURE GPRESSURE VOLUME PRESSAVG GPRESSAVG
ENERGY: 0 0.3257 2.0434 0.2496 0.0000 -10604.6887 1457.4886 0.0000 0.0000 1717.0473 -7427.5341 295.2529 -9144.5815 -7427.5341 295.2529 450.7883 552.5648 29775.0900 450.7883 552.5648
ENERGY: 300000 0.0447 3.8156 0.2836 0.0000 -10506.1104 1360.2408 0.0000 0.0000 1742.9219 -7398.8038 299.7021 -9141.7257 -7419.6130 301.7619 -385.8000 -271.2920 29799.6232 106.2270 184.3466
ENERGY: 600000 0.0720 4.7349 0.2233 0.0000 -10679.0405 1479.6461 0.0000 0.0000 1724.4409 -7469.9232 296.5242 -9194.3641 -7430.1548 299.9712 241.1677 337.0013 30005.2100 -58.3687 15.0261
ENERGY: 900000 0.7062 3.8282 0.4576 0.0000 -10527.1220 1388.6379 0.0000 0.0000 1739.1616 -7394.3305 299.0555 -9133.4921 -7420.6334 300.3767 -341.9115 -223.7398 30226.4017 -120.7710 -46.9137
ENERGY: 1200000 0.0384 2.3194 0.7665 0.0000 -10520.3808 1372.6838 0.0000 0.0000 1750.9052 -7393.6675 301.0749 -9144.5727 -7429.2366 300.0059 -353.3449 -298.5746 30255.3884 -95.0148 -20.7947
ENERGY: 1500000 0.1650 2.9744 1.2448 0.0000 -10638.3559 1436.8671 0.0000 0.0000 1737.1791 -7459.9255 298.7146 -9197.1046 -7424.1830 300.4812 -79.4542 -88.8094 30095.8178 -121.9957 -54.5316
TCL: Running FEP window   9: Lambda1 0.39999999999999997 Lambda2 0.44999999999999996 [dLambda 0.04999999999999999]
TCL: Setting parameter firsttimestep to 0
TCL: Setting parameter alchLambda to 0.39999999999999997
Info: NONBONDED TABLE R-SQUARED SPACING: 0.0625
Info: NONBONDED TABLE SIZE: 705 POINTS
TCL: Setting parameter alchLambda2 to 0.44999999999999996
Info: NONBONDED TABLE R-SQUARED SPACING: 0.0625
Info: NONBONDED TABLE SIZE: 705 POINTS
TCL: Running for 1500000 steps
ETITLE: TS BOND ANGLE DIHED IMPRP ELECT VDW BOUNDARY MISC KINETIC TOTAL TEMP POTENTIAL TOTALAVG TEMPAVG PRESSURE GPRESSURE VOLUME PRESSAVG GPRESSAVG
ENERGY: 0 0.1650 2.9744 1.2448 0.0000 -10638.3556 1437.1718 0.0000 0.0000 1736.3164 -7460.4832 298.5663 -9196.7996 -7460.4832 298.5663 -146.9280 -84.6268 30095.8178 -146.9280 -84.6268
ENERGY: 300000 0.5121 5.6974 1.1071 0.0000 -10598.6261 1410.9052 0.0000 0.0000 1737.3152 -7443.0890 298.7380 -9180.4042 -7482.8921 297.1412 -99.0437 -11.4183 29799.4695 -261.3431 -193.5361
ENERGY: 600000 0.7308 2.5317 0.7232 0.0000 -10714.3537 1482.5613 0.0000 0.0000 1750.6707 -7477.1361 301.0345 -9227.8068 -7462.7137 298.4618 422.1447 423.0735 29705.7611 -203.2728 -148.9618
ENERGY: 900000 0.4491 2.5344 0.2409 0.0000 -10632.2786 1373.3360 0.0000 0.0000 1781.3926 -7474.3257 306.3173 -9255.7182 -7454.6451 299.0738 -883.9158 -765.0170 30308.5485 -260.3738 -198.9740
ENERGY: 1200000 0.8791 1.7848 0.2764 0.0000 -10601.1921 1391.1060 0.0000 0.0000 1736.9225 -7470.2235 298.6705 -9207.1459 -7456.7767 299.5176 -473.1398 -454.2479 30285.5774 -214.8404 -161.2658
ENERGY: 1500000 0.2645 2.2551 0.4825 0.0000 -10639.2038 1471.6850 0.0000 0.0000 1827.1098 -7337.4069 314.1785 -9164.5167 -7444.9399 300.3453 414.1758 437.4399 30114.0522 -100.7549 -54.6559
TCL: Running FEP window  10: Lambda1 0.44999999999999996 Lambda2 0.49999999999999994 [dLambda 0.04999999999999999]
TCL: Setting parameter firsttimestep to 0
TCL: Setting parameter alchLambda to 0.44999999999999996
Info: NONBONDED TABLE R-SQUARED SPACING: 0.0625
Info: NONBONDED TABLE SIZE: 705 POINTS
TCL: Setting parameter alchLambda2 to 0.49999999999999994
Info: NONBONDED TABLE R-SQUARED SPACING: 0.0625
Info: NONBONDED TABLE SIZE: 705 POINTS
TCL: Running for 1500000 steps
ETITLE: TS BOND ANGLE DIHED IMPRP ELECT VDW BOUNDARY MISC KINETIC TOTAL TEMP POTENTIAL TOTALAVG TEMPAVG PRESSURE GPRESSURE VOLUME PRESSAVG GPRESSAVG
ENERGY: 0 0.2645 2.2551 0.4825 0.0000 -10639.2041 1471.9243 0.0000 0.0000 1826.2601 -7338.0177 314.0324 -9164.2778 -7338.0177 314.0324 363.5572 443.0699 30114.0522 363.5572 443.0699
ENERGY: 300000 0.0480 3.9014 0.1100 0.0000 -10658.7105 1491.3892 0.0000 0.0000 1742.8965 -7420.3654 299.6977 -9163.2619 -7391.1304 304.6025 624.3406 658.2773 30076.5152 393.0924 433.8573
ENERGY: 600000 0.0707 1.0634 0.2501 0.0000 -10550.3928 1401.5839 0.0000 0.0000 1785.1876 -7362.2373 306.9698 -9147.4249 -7410.2405 302.4025 -226.6537 -153.9815 30190.2127 171.2605 233.5856
ENERGY: 900000 1.1736 5.2653 0.5947 0.0000 -10502.3964 1394.6587 0.0000 0.0000 1718.3879 -7382.3163 295.4834 -9100.7042 -7401.0342 301.8783 -71.0192 39.3473 29941.9105 206.3122 263.8922
ENERGY: 1200000 0.2060 3.1966 0.4265 0.0000 -10604.3492 1417.5758 0.0000 0.0000 1731.1550 -7451.7893 297.6787 -9182.9443 -7404.0171 300.8046 -211.7118 -193.2408 30381.3783 105.4954 168.0930
ENERGY: 1500000 1.0292 3.0791 0.1397 0.0000 -10611.0637 1398.8838 0.0000 0.0000 1747.4538 -7460.4780 300.4814 -9207.9319 -7406.8855 300.1798 -107.8449 -12.2860 29785.5280 46.6667 110.5366
TCL: Running FEP window  11: Lambda1 0.49999999999999994 Lambda2 0.5499999999999999 [dLambda 0.04999999999999999]
TCL: Setting parameter firsttimestep to 0
TCL: Setting parameter alchLambda to 0.49999999999999994
Info: NONBONDED TABLE R-SQUARED SPACING: 0.0625
Info: NONBONDED TABLE SIZE: 705 POINTS
TCL: Setting parameter alchLambda2 to 0.5499999999999999
Info: NONBONDED TABLE R-SQUARED SPACING: 0.0625
Info: NONBONDED TABLE SIZE: 705 POINTS
TCL: Running for 1500000 steps
ETITLE: TS BOND ANGLE DIHED IMPRP ELECT VDW BOUNDARY MISC KINETIC TOTAL TEMP POTENTIAL TOTALAVG TEMPAVG PRESSURE GPRESSURE VOLUME PRESSAVG GPRESSAVG
ENERGY: 0 1.0292 3.0791 0.1397 0.0000 -10611.0647 1399.1816 0.0000 0.0000 1746.5805 -7461.0545 300.3312 -9207.6350 -7461.0545 300.3312 -80.0867 -3.5276 29785.5280 -80.0867 -3.5276
ENERGY: 300000 0.1452 1.8425 1.6097 0.0000 -10772.3870 1585.0065 0.0000 0.0000 1723.8850 -7459.8980 296.4286 -9183.7831 -7429.6614 302.7090 998.7481 1090.4215 30388.4189 243.3287 331.2132
ENERGY: 600000 0.0561 4.2488 1.4729 0.0000 -10631.7352 1430.9336 0.0000 0.0000 1769.2337 -7425.7902 304.2265 -9195.0240 -7446.2888 301.0704 67.2629 152.8882 29879.9077 151.6681 232.0692
ENERGY: 900000 0.8505 1.9183 0.3937 0.0000 -10525.7932 1367.5463 0.0000 0.0000 1745.4573 -7409.6271 300.1381 -9155.0844 -7444.7910 300.5174 -279.4561 -235.5436 29843.8964 130.6045 196.4402
ENERGY: 1200000 0.1619 3.9554 0.8422 0.0000 -10634.0568 1375.3792 0.0000 0.0000 1775.1677 -7478.5504 305.2469 -9253.7181 -7444.2628 300.7450 -598.5367 -587.3422 30201.1594 64.5616 121.4675
ENERGY: 1500000 0.9701 4.0508 0.5510 0.0000 -10616.9455 1432.0183 0.0000 0.0000 1793.6080 -7385.7472 308.4178 -9179.3553 -7440.4114 301.5937 91.4823 152.4035 29774.5790 11.5866 72.7741
TCL: Running FEP window  12: Lambda1 0.5499999999999999 Lambda2 0.6    [dLambda 0.050000000000000044]
TCL: Setting parameter firsttimestep to 0
TCL: Setting parameter alchLambda to 0.5499999999999999
Info: NONBONDED TABLE R-SQUARED SPACING: 0.0625
Info: NONBONDED TABLE SIZE: 705 POINTS
TCL: Setting parameter alchLambda2 to 0.6
Info: NONBONDED TABLE R-SQUARED SPACING: 0.0625
Info: NONBONDED TABLE SIZE: 705 POINTS
TCL: Running for 1500000 steps
ETITLE: TS BOND ANGLE DIHED IMPRP ELECT VDW BOUNDARY MISC KINETIC TOTAL TEMP POTENTIAL TOTALAVG TEMPAVG PRESSURE GPRESSURE VOLUME PRESSAVG GPRESSAVG
ENERGY: 0 0.9701 4.0508 0.5510 0.0000 -10617.1880 1431.9161 0.0000 0.0000 1792.7382 -7386.9617 308.2682 -9179.6999 -7386.9617 308.2682 69.4566 156.1973 29774.5790 69.4566 156.1973
ENERGY: 300000 0.6332 2.8097 0.5940 0.0000 -10726.4329 1500.1403 0.0000 0.0000 1736.9468 -7485.3088 298.6747 -9222.2556 -7441.5333 302.3675 129.3804 217.6521 30720.6742 330.1928 403.6009
ENERGY: 600000 0.5753 3.8465 0.0942 0.0000 -10560.5443 1431.9109 0.0000 0.0000 1738.7108 -7385.4065 298.9780 -9124.1174 -7440.2305 301.9524 177.5403 244.0426 30106.0689 210.0615 285.1568
ENERGY: 900000 2.7364 1.6340 0.0310 0.0000 -10485.6820 1385.2448 0.0000 0.0000 1725.8397 -7370.1961 296.7647 -9096.0358 -7425.3979 301.1754 -387.0615 -250.4061 30457.7310 67.4398 150.2501
ENERGY: 1200000 1.6722 5.9975 2.4597 0.0000 -10710.9177 1583.2954 0.0000 0.0000 1740.1434 -7377.3495 299.2243 -9117.4928 -7428.2134 300.1934 1471.6119 1487.0279 29824.7068 103.9036 180.8358
ENERGY: 1500000 0.2488 2.4841 0.2722 0.0000 -10680.6857 1489.6597 0.0000 0.0000 1773.2840 -7414.7368 304.9230 -9188.0208 -7424.5464 300.6406 260.8772 358.4875 30197.2639 51.0463 126.0686
TCL: Running FEP window  13: Lambda1 0.6    Lambda2 0.65   [dLambda 0.050000000000000044]
TCL: Setting parameter firsttimestep to 0
TCL: Setting parameter alchLambda to 0.6
Info: NONBONDED TABLE R-SQUARED SPACING: 0.0625
Info: NONBONDED TABLE SIZE: 705 POINTS
TCL: Setting parameter alchLambda2 to 0.65
Info: NONBONDED TABLE R-SQUARED SPACING: 0.0625
Info: NONBONDED TABLE SIZE: 705 POINTS
TCL: Running for 1500000 steps
ETITLE: TS BOND ANGLE DIHED IMPRP ELECT VDW BOUNDARY MISC KINETIC TOTAL TEMP POTENTIAL TOTALAVG TEMPAVG PRESSURE GPRESSURE VOLUME PRESSAVG GPRESSAVG
ENERGY: 0 0.2488 2.4841 0.2722 0.0000 -10681.0050 1489.8450 0.0000 0.0000 1772.4042 -7415.7507 304.7717 -9188.1548 -7415.7507 304.7717 259.9131 365.2874 30197.2639 259.9131 365.2874
ENERGY: 300000 0.0701 3.8470 0.0428 0.0000 -10629.6444 1396.3547 0.0000 0.0000 1731.6202 -7497.7096 297.7587 -9229.3298 -7511.2642 295.3647 -419.8249 -301.6586 30047.2383 -53.6810 38.0885
ENERGY: 600000 0.3665 4.0185 0.3245 0.0000 -10594.4056 1477.3763 0.0000 0.0000 1657.9383 -7454.3815 285.0888 -9112.3198 -7478.4290 294.5350 236.9596 339.7276 30548.9998 -20.2493 62.6031
ENERGY: 900000 0.5299 4.4748 0.5325 0.0000 -10568.8784 1394.6566 0.0000 0.0000 1741.3462 -7427.3384 299.4312 -9168.6846 -7458.8556 294.6386 -153.7688 -62.3280 29969.5762 -94.8373 -16.5098
ENERGY: 1200000 0.0864 2.5230 0.5619 0.0000 -10556.2089 1439.4451 0.0000 0.0000 1701.8927 -7411.6998 292.6470 -9113.5925 -7452.8506 295.2236 516.6074 598.7469 29749.1075 -72.3593 0.8192
ENERGY: 1500000 0.3325 6.3597 0.4123 0.0000 -10678.2757 1444.6661 0.0000 0.0000 1777.5891 -7448.9160 305.6633 -9226.5050 -7450.2056 296.3188 78.8244 152.6761 30100.1094 -64.9857 3.8082
TCL: Running FEP window  14: Lambda1 0.65   Lambda2 0.7000000000000001 [dLambda 0.050000000000000044]
TCL: Setting parameter firsttimestep to 0
TCL: Setting parameter alchLambda to 0.65
Info: NONBONDED TABLE R-SQUARED SPACING: 0.0625
Info: NONBONDED TABLE SIZE: 705 POINTS
TCL: Setting parameter alchLambda2 to 0.7000000000000001
Info: NONBONDED TABLE R-SQUARED SPACING: 0.0625
Info: NONBONDED TABLE SIZE: 705 POINTS
TCL: Running for 1500000 steps
ETITLE: TS BOND ANGLE DIHED IMPRP ELECT VDW BOUNDARY MISC KINETIC TOTAL TEMP POTENTIAL TOTALAVG TEMPAVG PRESSURE GPRESSURE VOLUME PRESSAVG GPRESSAVG
ENERGY: 0 0.3325 6.3597 0.4123 0.0000 -10678.6635 1444.6346 0.0000 0.0000 1776.7245 -7450.1998 305.5146 -9226.9243 -7450.1998 305.5146 85.7485 156.3998 30100.1094 85.7485 156.3998
ENERGY: 300000 0.3135 2.9299 0.7097 0.0000 -10738.0277 1491.2988 0.0000 0.0000 1764.4528 -7478.3231 303.4044 -9242.7758 -7451.0782 299.5438 408.9265 471.9647 29961.8160 -116.5631 -39.0485
ENERGY: 600000 0.1739 5.1815 0.2167 0.0000 -10631.6023 1448.4250 0.0000 0.0000 1759.8229 -7417.7823 302.6083 -9177.6052 -7446.7377 299.8631 224.8548 333.0028 29980.0988 0.0926 73.0682
ENERGY: 900000 0.7356 2.1399 0.1532 0.0000 -10632.4796 1531.2723 0.0000 0.0000 1736.2472 -7361.9313 298.5544 -9098.1786 -7439.3037 299.1439 1101.8210 1193.9891 29817.0626 77.3564 148.8474
ENERGY: 1200000 0.7054 6.3213 0.6665 0.0000 -10615.2280 1377.3360 0.0000 0.0000 1800.7052 -7429.4936 309.6382 -9230.1989 -7441.7341 299.4360 -310.8649 -273.7356 29690.5724 21.2787 85.8968
ENERGY: 1500000 2.5738 2.0524 0.8254 0.0000 -10678.8663 1456.5429 0.0000 0.0000 1789.5335 -7427.3383 307.7171 -9216.8718 -7430.9768 299.9477 -168.0354 -85.0298 30457.6834 -22.3862 42.3096
TCL: Running FEP window  15: Lambda1 0.7000000000000001 Lambda2 0.7500000000000001 [dLambda 0.050000000000000044]
TCL: Setting parameter firsttimestep to 0
TCL: Setting parameter alchLambda to 0.7000000000000001
Info: NONBONDED TABLE R-SQUARED SPACING: 0.0625
Info: NONBONDED TABLE SIZE: 705 POINTS
TCL: Setting parameter alchLambda2 to 0.7500000000000001
Info: NONBONDED TABLE R-SQUARED SPACING: 0.0625
Info: NONBONDED TABLE SIZE: 705 POINTS
TCL: Running for 1500000 steps
ETITLE: TS BOND ANGLE DIHED IMPRP ELECT VDW BOUNDARY MISC KINETIC TOTAL TEMP POTENTIAL TOTALAVG TEMPAVG PRESSURE GPRESSURE VOLUME PRESSAVG GPRESSAVG
ENERGY: 0 2.5738 2.0524 0.8254 0.0000 -10679.1006 1456.6634 0.0000 0.0000 1788.6758 -7428.3097 307.5697 -9216.9855 -7428.3097 307.5697 -171.3429 -81.6989 30457.6834 -171.3429 -81.6989
ENERGY: 300000 0.7733 5.0027 0.7564 0.0000 -10577.9669 1380.8962 0.0000 0.0000 1752.0061 -7438.5322 301.2642 -9190.5383 -7475.2368 299.4945 -516.8038 -492.5351 30371.9748 -479.7685 -438.0010
ENERGY: 600000 1.1003 3.6299 0.0757 0.0000 -10681.7256 1485.9682 0.0000 0.0000 1749.9248 -7441.0267 300.9063 -9190.9515 -7472.2904 299.4445 253.0249 379.9940 29988.1852 -408.3549 -341.6167
ENERGY: 900000 0.2103 5.8215 0.4835 0.0000 -10675.9071 1494.5662 0.0000 0.0000 1730.7546 -7444.0709 297.6099 -9174.8256 -7462.9186 299.6719 457.8367 517.8032 30114.3211 -184.2260 -114.8187
ENERGY: 1200000 0.2839 3.8228 0.3956 0.0000 -10637.8186 1408.4793 0.0000 0.0000 1739.5343 -7485.3027 299.1196 -9224.8370 -7464.5048 299.3407 -385.5028 -277.1176 30160.9185 -197.8255 -128.7179
ENERGY: 1500000 0.2994 4.2758 1.1154 0.0000 -10700.3735 1462.3026 0.0000 0.0000 1747.7650 -7484.6153 300.5349 -9232.3802 -7456.7068 299.8835 224.5041 275.6049 29815.3065 -217.2368 -150.3357
TCL: Running FEP window  16: Lambda1 0.7500000000000001 Lambda2 0.8000000000000002 [dLambda 0.050000000000000044]
TCL: Setting parameter firsttimestep to 0
TCL: Setting parameter alchLambda to 0.7500000000000001
Info: NONBONDED TABLE R-SQUARED SPACING: 0.0625
Info: NONBONDED TABLE SIZE: 705 POINTS
TCL: Setting parameter alchLambda2 to 0.8000000000000002
Info: NONBONDED TABLE R-SQUARED SPACING: 0.0625
Info: NONBONDED TABLE SIZE: 705 POINTS
TCL: Running for 1500000 steps
ETITLE: TS BOND ANGLE DIHED IMPRP ELECT VDW BOUNDARY MISC KINETIC TOTAL TEMP POTENTIAL TOTALAVG TEMPAVG PRESSURE GPRESSURE VOLUME PRESSAVG GPRESSAVG
ENERGY: 0 0.2994 4.2758 1.1154 0.0000 -10700.8102 1462.6739 0.0000 0.0000 1746.8807 -7485.5650 300.3828 -9232.4457 -7485.5650 300.3828 200.1086 285.3395 29815.3065 200.1086 285.3395
ENERGY: 300000 1.4095 3.3084 0.6581 0.0000 -10618.2524 1474.6961 0.0000 0.0000 1736.0043 -7402.1760 298.5126 -9138.1803 -7407.9319 302.8149 485.0531 501.2751 30104.8994 280.9761 344.9895
ENERGY: 600000 0.0020 1.9862 0.0645 0.0000 -10646.1563 1439.4997 0.0000 0.0000 1693.8746 -7510.7293 291.2682 -9204.6038 -7446.2650 299.8614 40.0453 177.3022 29922.2638 206.6644 275.5500
ENERGY: 900000 0.4180 3.8589 0.4485 0.0000 -10624.0777 1417.5951 0.0000 0.0000 1746.1338 -7455.6234 300.2544 -9201.7572 -7451.9320 299.0057 -20.6898 10.5729 30000.4083 123.7075 191.8721
ENERGY: 1200000 0.4542 3.1229 0.0696 0.0000 -10654.2398 1405.5563 0.0000 0.0000 1706.3536 -7538.6832 293.4140 -9245.0368 -7451.2934 298.2950 -393.7656 -307.8405 29927.7610 -8.4386 61.3358
ENERGY: 1500000 0.2897 4.5824 0.5740 0.0000 -10636.2779 1524.1416 0.0000 0.0000 1741.6025 -7365.0878 299.4752 -9106.6903 -7448.6630 298.7541 505.4849 622.0766 30686.1793 4.3879 75.1647
TCL: Running FEP window  17: Lambda1 0.8000000000000002 Lambda2 0.8500000000000002 [dLambda 0.050000000000000044]
TCL: Setting parameter firsttimestep to 0
TCL: Setting parameter alchLambda to 0.8000000000000002
Info: NONBONDED TABLE R-SQUARED SPACING: 0.0625
Info: NONBONDED TABLE SIZE: 705 POINTS
TCL: Setting parameter alchLambda2 to 0.8500000000000002
Info: NONBONDED TABLE R-SQUARED SPACING: 0.0625
Info: NONBONDED TABLE SIZE: 705 POINTS
TCL: Running for 1500000 steps
ETITLE: TS BOND ANGLE DIHED IMPRP ELECT VDW BOUNDARY MISC KINETIC TOTAL TEMP POTENTIAL TOTALAVG TEMPAVG PRESSURE GPRESSURE VOLUME PRESSAVG GPRESSAVG
ENERGY: 0 0.2897 4.5824 0.5740 0.0000 -10636.6364 1524.4363 0.0000 0.0000 1740.7091 -7366.0450 299.3216 -9106.7541 -7366.0450 299.3216 542.3429 628.4399 30686.1793 542.3429 628.4399
ENERGY: 300000 0.7454 3.6463 1.4788 0.0000 -10532.0387 1386.7223 0.0000 0.0000 1737.6956 -7401.7503 298.8034 -9139.4459 -7422.8707 298.6319 -193.3204 -136.8435 30273.7150 335.3854 393.8106
ENERGY: 600000 0.1872 4.2016 0.7286 0.0000 -10466.5470 1341.7218 0.0000 0.0000 1779.8526 -7339.8551 306.0525 -9119.7077 -7434.9977 298.5161 -602.9339 -527.5971 30411.2348 21.4661 97.2288
ENERGY: 900000 0.1779 1.2326 0.5960 0.0000 -10683.9335 1441.4335 0.0000 0.0000 1705.3375 -7535.1559 293.2393 -9240.4935 -7449.0700 298.4521 109.3485 120.8954 29988.8853 42.3776 119.7661
ENERGY: 1200000 1.3960 5.1010 0.3883 0.0000 -10649.2700 1409.4684 0.0000 0.0000 1758.2546 -7474.6619 302.3386 -9232.9164 -7443.4261 298.9672 -119.2172 -51.4836 29674.8324 122.7373 198.3379
ENERGY: 1500000 0.5400 3.5092 0.2562 0.0000 -10468.8417 1353.0734 0.0000 0.0000 1773.2936 -7338.1693 304.9246 -9111.4629 -7436.7200 299.0667 -446.3031 -473.5524 30632.2363 69.4392 135.5021
TCL: Running FEP window  18: Lambda1 0.8500000000000002 Lambda2 0.9000000000000002 [dLambda 0.050000000000000044]
TCL: Setting parameter firsttimestep to 0
TCL: Setting parameter alchLambda to 0.8500000000000002
Info: NONBONDED TABLE R-SQUARED SPACING: 0.0625
Info: NONBONDED TABLE SIZE: 705 POINTS
TCL: Setting parameter alchLambda2 to 0.9000000000000002
Info: NONBONDED TABLE R-SQUARED SPACING: 0.0625
Info: NONBONDED TABLE SIZE: 705 POINTS
TCL: Running for 1500000 steps
ETITLE: TS BOND ANGLE DIHED IMPRP ELECT VDW BOUNDARY MISC KINETIC TOTAL TEMP POTENTIAL TOTALAVG TEMPAVG PRESSURE GPRESSURE VOLUME PRESSAVG GPRESSAVG
ENERGY: 0 0.5400 3.5092 0.2562 0.0000 -10469.2650 1353.5729 0.0000 0.0000 1772.4636 -7338.9230 304.7819 -9111.3866 -7338.9230 304.7819 -544.8976 -461.6806 30632.2363 -544.8976 -461.6806
ENERGY: 300000 0.0115 3.4981 1.7373 0.0000 -10655.9541 1467.1693 0.0000 0.0000 1780.7250 -7402.8129 306.2025 -9183.5379 -7436.5260 301.2421 365.9714 395.4500 30051.4342 -23.9559 38.0871
ENERGY: 600000 0.1493 1.7488 1.1640 0.0000 -10629.1458 1417.1884 0.0000 0.0000 1780.5708 -7428.3245 306.1760 -9208.8953 -7415.5784 302.6664 -70.8769 -14.7569 29954.8340 129.8148 208.2136
ENERGY: 900000 0.1896 4.1782 0.2862 0.0000 -10574.8835 1428.9816 0.0000 0.0000 1697.8676 -7443.3803 291.9548 -9141.2479 -7415.2818 302.6473 -146.8301 -104.4234 30446.4507 -1.5125 71.5549
ENERGY: 1200000 0.0035 4.1462 0.6706 0.0000 -10591.0520 1371.7459 0.0000 0.0000 1726.3586 -7488.1271 296.8540 -9214.4857 -7420.3690 302.1973 -548.2082 -490.3275 30106.7017 -59.8601 7.3190
ENERGY: 1500000 0.4810 3.1244 1.4028 0.0000 -10761.1369 1527.9560 0.0000 0.0000 1735.3962 -7492.7765 298.4080 -9228.1727 -7426.7504 301.2933 927.4524 1021.6323 29656.8062 8.9434 76.7423
TCL: Running FEP window  19: Lambda1 0.9000000000000002 Lambda2 0.9500000000000003 [dLambda 0.050000000000000044]
TCL: Setting parameter firsttimestep to 0
TCL: Setting parameter alchLambda to 0.9000000000000002
Info: NONBONDED TABLE R-SQUARED SPACING: 0.0625
Info: NONBONDED TABLE SIZE: 705 POINTS
TCL: Setting parameter alchLambda2 to 0.9500000000000003
Info: NONBONDED TABLE R-SQUARED SPACING: 0.0625
Info: NONBONDED TABLE SIZE: 705 POINTS
TCL: Running for 1500000 steps
ETITLE: TS BOND ANGLE DIHED IMPRP ELECT VDW BOUNDARY MISC KINETIC TOTAL TEMP POTENTIAL TOTALAVG TEMPAVG PRESSURE GPRESSURE VOLUME PRESSAVG GPRESSAVG
ENERGY: 0 0.4810 3.1244 1.4028 0.0000 -10761.1921 1527.6692 0.0000 0.0000 1734.5418 -7493.9730 298.2611 -9228.5147 -7493.9730 298.2611 959.6292 1027.6239 29656.8062 959.6292 1027.6239
ENERGY: 300000 0.2585 2.4114 0.5689 0.0000 -10484.9769 1341.3888 0.0000 0.0000 1774.0341 -7366.3152 305.0520 -9140.3493 -7455.3282 299.9958 -353.8210 -282.0199 30055.6144 132.3491 222.3207
ENERGY: 600000 0.0743 1.6400 1.3226 0.0000 -10623.1525 1414.8977 0.0000 0.0000 1715.1130 -7490.1048 294.9203 -9205.2178 -7464.0134 301.1282 -265.4491 -211.1531 30310.2763 158.8785 236.7187
ENERGY: 900000 1.3635 3.8385 0.2332 0.0000 -10519.0513 1360.1562 0.0000 0.0000 1766.9294 -7386.5306 303.8303 -9153.4600 -7449.6930 301.1648 -603.7007 -601.7117 30552.5527 -0.1095 61.1641
ENERGY: 1200000 0.1072 6.9528 1.1974 0.0000 -10511.1944 1406.7121 0.0000 0.0000 1743.7932 -7352.4317 299.8519 -9096.2249 -7451.7677 300.6213 -85.7225 -53.8602 30835.6588 39.4434 99.5086
ENERGY: 1500000 0.4788 1.3661 0.2600 0.0000 -10690.7892 1477.3497 0.0000 0.0000 1752.9913 -7458.3432 301.4336 -9211.3344 -7445.9388 301.2410 36.9669 104.7794 30647.4325 -16.0337 46.0090
TCL: Running FEP window  20: Lambda1 0.9500000000000003 Lambda2 1.0    [dLambda 0.04999999999999971]
TCL: Setting parameter firsttimestep to 0
TCL: Setting parameter alchLambda to 0.9500000000000003
Info: NONBONDED TABLE R-SQUARED SPACING: 0.0625
Info: NONBONDED TABLE SIZE: 705 POINTS
TCL: Setting parameter alchLambda2 to 1.0
Info: NONBONDED TABLE R-SQUARED SPACING: 0.0625
Info: NONBONDED TABLE SIZE: 705 POINTS
TCL: Running for 1500000 steps
ETITLE: TS BOND ANGLE DIHED IMPRP ELECT VDW BOUNDARY MISC KINETIC TOTAL TEMP POTENTIAL TOTALAVG TEMPAVG PRESSURE GPRESSURE VOLUME PRESSAVG GPRESSAVG
ENERGY: 0 0.4788 1.3661 0.2600 0.0000 -10691.1082 1477.4173 0.0000 0.0000 1752.1394 -7459.4465 301.2871 -9211.5859 -7459.4465 301.2871 17.5257 112.6855 30647.4325 17.5257 112.6855
ENERGY: 300000 0.1411 2.7459 0.2223 0.0000 -10645.0875 1462.0141 0.0000 0.0000 1746.1971 -7433.7670 300.2653 -9179.9641 -7475.0857 298.2205 299.6873 432.6167 29786.9413 169.4203 236.3731
ENERGY: 600000 1.7299 3.8567 1.3338 0.0000 -10492.2650 1345.8031 0.0000 0.0000 1704.7384 -7434.8031 293.1363 -9139.5415 -7457.7671 299.2648 -688.3694 -550.5671 30337.2203 -65.7638 -1.6732
ENERGY: 900000 0.3553 2.7242 0.1439 0.0000 -10844.7042 1569.7190 0.0000 0.0000 1729.6948 -7542.0669 297.4277 -9271.7617 -7446.3264 301.1125 810.0104 880.6574 30000.4799 -4.4632 57.2329
ENERGY: 1200000 0.0650 1.8982 0.9951 0.0000 -10789.9071 1502.1264 0.0000 0.0000 1685.3170 -7599.5054 289.7967 -9284.8224 -7445.9147 300.9551 316.9644 397.5344 29940.7632 115.0004 178.3416
ENERGY: 1500000 0.0925 2.6914 1.4099 0.0000 -10805.6859 1503.4281 0.0000 0.0000 1773.8889 -7524.1750 305.0270 -9298.0640 -7451.1105 301.2666 416.1525 428.4313 29625.0283 146.3206 206.3740
TCL: Exiting due to exit command.
