Info: SIMULATION PARAMETERS:
Info: TIMESTEP               2
Info: NUMBER OF STEPS        0
Info: STEPS PER CYCLE        10
Info: PERIODIC CELL BASIS 1  31.8677 0 0
Info: PERIODIC CELL BASIS 2  0 31.1035 0
Info: PERIODIC CELL BASIS 3  0 0 30.7021
Info: PERIODIC CELL CENTER   0 0 0
Info: WRAPPING WATERS AROUND PERIODIC BOUNDARIES ON OUTPUT.
Info: WRAPPING ALL CLUSTERS AROUND PERIODIC BOUNDARIES ON OUTPUT.
Info: FIRST LDB TIMESTEP     50
Info: LAST LDB TIMESTEP     -1
Info: HOM BACKGROUND SCALING 1
Info: PME BACKGROUND SCALING 1
Info: MIN ATOMS PER PATCH    40
Info: EMPTY PATCH LOAD       40 ATOMS
Info: VELOCITY FILE          mobley_7017274_equil.vel
Info: CENTER OF MASS MOVING INITIALLY? NO
Info: DIELECTRIC             1
Info: EXCLUDE                SCALED ONE-FOUR
Info: 1-4 ELECTROSTATICS SCALED BY 0.833333
Info: MODIFIED 1-4 VDW PARAMETERS WILL BE USED
Info: DCD FILENAME           mobley_7017274_prod.dcd
Info: DCD FREQUENCY          100000
Info: DCD FIRST STEP         100000
Info: DCD FILE WILL CONTAIN UNIT CELL DATA
Info: XST FILENAME           mobley_7017274_prod.xst
Info: XST FREQUENCY          100000
Info: NO VELOCITY DCD OUTPUT
Info: NO FORCE DCD OUTPUT
Info: OUTPUT FILENAME        mobley_7017274_prod
Info: BINARY OUTPUT FILES WILL BE USED
Info: RESTART FILENAME       mobley_7017274_prod.restart
Info: RESTART FREQUENCY      100000
Info: BINARY RESTART FILES WILL BE USED
Info: CUTOFF                 9
Info: PAIRLIST DISTANCE      11
Info: PAIRLIST SHRINK RATE   0.01
Info: PAIRLIST GROW RATE     0.01
Info: PAIRLIST TRIGGER       0.3
Info: PAIRLISTS PER CYCLE    2
Info: PAIRLISTS ENABLED
Info: MARGIN                 2
Info: HYDROGEN GROUP CUTOFF  2.5
Info: PATCH DIMENSION        15.5
Info: ENERGY OUTPUT STEPS    100000
Info: ENERGY EVALUATION STEPS    100000
Info: OUTPUT ENERGY PRECISION 4
Info: CROSSTERM ENERGY INCLUDED IN DIHEDRAL
Info: TIMING OUTPUT STEPS    1000000
Info: PRESSURE OUTPUT STEPS  100000
Info: ALCHEMICAL FEP ON
Info: FEP CURRENT LAMBDA VALUE     0
Info: FEP COMPARISON LAMBDA VALUE  0.05
Info: FEP INTRA-ALCHEMICAL NON-BONDED INTERACTIONS WILL BE RETAINED
Info: FEP INTRA-ALCHEMICAL BONDED INTERACTIONS WILL BE RETAINED
Info: FEP VDW SHIFTING COEFFICIENT 5
Info: FEP ELEC. ACTIVE FOR ANNIHILATED PARTICLES BETWEEN LAMBDA = 0 AND LAMBDA = 0.5
Info: FEP ELEC. ACTIVE FOR EXNIHILATED PARTICLES BETWEEN LAMBDA = 0.5 AND LAMBDA = 1
Info: FEP VDW ACTIVE FOR ANNIHILATED PARTICLES BETWEEN LAMBDA = 0 AND LAMBDA = 1
Info: FEP VDW ACTIVE FOR EXNIHILATED PARTICLES BETWEEN LAMBDA = 0 AND LAMBDA = 1
Info: FEP BOND ACTIVE FOR ANNIHILATED PARTICLES BETWEEN LAMBDA = 1 AND LAMBDA = 1
Info: FEP BOND ACTIVE FOR EXNIHILATED PARTICLES BETWEEN LAMBDA = 0 AND LAMBDA = 0
Info: LANGEVIN DYNAMICS ACTIVE
Info: LANGEVIN TEMPERATURE   300
Info: LANGEVIN USING BBK INTEGRATOR
Info: LANGEVIN DAMPING COEFFICIENT IS 1 INVERSE PS
Info: LANGEVIN DYNAMICS APPLIED TO HYDROGENS
Info: LANGEVIN PISTON PRESSURE CONTROL ACTIVE
Info:        TARGET PRESSURE IS 1.01325 BAR
Info:     OSCILLATION PERIOD IS 50 FS
Info:             DECAY TIME IS 25 FS
Info:     PISTON TEMPERATURE IS 300 K
Info:       PRESSURE CONTROL IS GROUP-BASED
Info:    INITIAL STRAIN RATE IS -1.66866e-06 -1.66866e-06 -1.66866e-06
Info:       CELL FLUCTUATION IS ISOTROPIC
Info: PARTICLE MESH EWALD (PME) ACTIVE
Info: PME TOLERANCE               1e-06
Info: PME EWALD COEFFICIENT       0.348832
Info: PME INTERPOLATION ORDER     4
Info: PME GRID DIMENSIONS         32 32 32
Info: PME MAXIMUM GRID SPACING    1
Info: PME CALCULATION WILL BE PERFORMED ON GPU
Info: FULL ELECTROSTATIC EVALUATION FREQUENCY      2
Info: USING VERLET I (r-RESPA) MTS SCHEME.
Info: C1 SPLITTING OF LONG RANGE ELECTROSTATICS
Info: PLACING ATOMS IN PATCHES BY HYDROGEN GROUPS
Info: RIGID BONDS TO HYDROGEN : ALL
Info:         ERROR TOLERANCE : 1e-08
Info:          MAX ITERATIONS : 100
Info: RIGID WATER USING SETTLE ALGORITHM
Info: RANDOM NUMBER SEED     1744104969
Info: USE HYDROGEN BONDS?    NO
Info: Using AMBER format force field!
Info: AMBER PARM FILE        mobley_7017274.prmtop
Info: COORDINATE PDB         mobley_7017274.pdb
Info: Exclusions will be read from PARM file!
Info: SCNB (VDW SCALING)     2
Info: USING ARITHMETIC MEAN TO COMBINE L-J SIGMA PARAMETERS
Info: BINARY COORDINATES     mobley_7017274_equil.coor
Info: SUMMARY OF PARAMETERS:
Info: 4 BONDS
Info: 2 ANGLES
Info:   2 HARMONIC
Info:   0 COSINE-BASED
Info: 2 DIHEDRAL
Info: 0 IMPROPER
Info: 0 CROSSTERM
Info: 0 VDW
Info: 10 VDW_PAIRS
Info: 0 NBTHOLE_PAIRS
Info: To read alchdata from file: mobley_7017274.pdb
Info: To read alchflag data from column: 5
Info: STRUCTURE SUMMARY:
Info: 2928 ATOMS
Info: 2930 BONDS
Info: 42 ANGLES
Info: 78 DIHEDRALS
Info: 0 IMPROPERS
Info: 0 CROSSTERMS
Info: 3027 EXCLUSIONS
Info: 2914 RIGID BONDS
Info: ALCH: 0 ATOMS TO DISAPPEAR IN FINAL STATE
Info: ALCH: 24 ATOMS TO APPEAR IN FINAL STATE
Info: 5870 DEGREES OF FREEDOM
Info: 982 HYDROGEN GROUPS
Info: 3 ATOMS IN LARGEST HYDROGEN GROUP
Info: 982 MIGRATION GROUPS
Info: 3 ATOMS IN LARGEST MIGRATION GROUP
Info: TOTAL MASS = 17617.7 amu
Info: TOTAL CHARGE = -0.000199988 e
Info: MASS DENSITY = 0.96135 g/cm^3
Info: ATOM DENSITY = 0.0962152 atoms/A^3
Info: ADDED 0 IMPLICIT EXCLUSIONS
Info: NONBONDED TABLE R-SQUARED SPACING: 0.0625
Info: NONBONDED TABLE SIZE: 705 POINTS
Info: REDUCING NUMBER OF PATCHES TO IMPROVE LOAD BALANCE
Info: REMOVING COM VELOCITY 0.0128959 -0.0346302 -0.163209
Info: Use 3D box decompostion in PME FFT.
Info: Updated CUDA force table with 4096 elements.
Info: Updated CUDA LJ table with 4 x 4 elements.
Info: Found 24 unique exclusion lists needing 76 bytes
TCL: Running for 1500000 steps
ETITLE: TS BOND ANGLE DIHED IMPRP ELECT VDW BOUNDARY MISC KINETIC TOTAL TEMP POTENTIAL TOTALAVG TEMPAVG PRESSURE GPRESSURE VOLUME PRESSAVG GPRESSAVG
ENERGY: 0 5.8010 10.8027 4.1114 0.0000 -10577.5373 1460.7321 0.0000 0.0000 1827.8375 -7268.2524 313.3934 -9096.0900 -7268.2524 313.3934 146.7258 222.9266 30431.7776 146.7258 222.9266
ENERGY: 300000 7.1263 5.1884 5.2737 0.0000 -10590.2498 1476.3848 0.0000 0.0000 1773.7307 -7322.5459 304.1165 -9096.2767 -7323.3983 305.5628 404.0912 395.5843 30172.1104 129.1400 193.4991
ENERGY: 600000 3.7424 3.1324 9.2188 0.0000 -10574.6817 1442.5245 0.0000 0.0000 1738.4883 -7377.5755 298.0740 -9116.0637 -7324.8203 303.3251 -64.1007 29.5906 30133.8018 12.5668 82.3393
ENERGY: 900000 5.9558 8.9412 10.6224 0.0000 -10636.2547 1431.9484 0.0000 0.0000 1729.4291 -7449.3577 296.5207 -9178.7869 -7354.8923 300.1392 -24.7330 -39.4037 29746.7292 -91.9180 -36.3388
ENERGY: 1200000 4.2632 6.8885 12.6778 0.0000 -10538.0767 1378.7447 0.0000 0.0000 1695.8394 -7439.6630 290.7616 -9135.5025 -7362.4018 299.0708 -568.2008 -465.5499 30287.7948 -142.6474 -90.1052
ENERGY: 1500000 4.9153 7.8869 5.6747 0.0000 -10487.0157 1405.2314 0.0000 0.0000 1786.4069 -7276.9006 306.2899 -9063.3075 -7359.6408 299.8689 -121.6998 -48.0219 30254.2299 -101.7553 -48.5384
TCL: Running FEP window   2: Lambda1 0.05   Lambda2 0.1    [dLambda 0.05  ]
TCL: Setting parameter firsttimestep to 0
TCL: Setting parameter alchLambda to 0.05
Info: NONBONDED TABLE R-SQUARED SPACING: 0.0625
Info: NONBONDED TABLE SIZE: 705 POINTS
TCL: Setting parameter alchLambda2 to 0.1
Info: NONBONDED TABLE R-SQUARED SPACING: 0.0625
Info: NONBONDED TABLE SIZE: 705 POINTS
TCL: Running for 1500000 steps
ETITLE: TS BOND ANGLE DIHED IMPRP ELECT VDW BOUNDARY MISC KINETIC TOTAL TEMP POTENTIAL TOTALAVG TEMPAVG PRESSURE GPRESSURE VOLUME PRESSAVG GPRESSAVG
ENERGY: 0 4.9153 7.8869 5.6747 0.0000 -10487.0164 1412.0867 0.0000 0.0000 1785.5399 -7270.9130 306.1412 -9056.4529 -7270.9130 306.1412 -123.8194 -35.6318 30254.2299 -123.8194 -35.6318
ENERGY: 300000 4.4594 6.1879 5.2062 0.0000 -10505.1222 1366.0826 0.0000 0.0000 1697.3987 -7425.7874 291.0289 -9123.1860 -7335.5321 297.3426 -639.8514 -590.1411 29915.4909 -154.8093 -83.8291
ENERGY: 600000 4.7927 5.8122 5.8710 0.0000 -10595.0375 1386.5132 0.0000 0.0000 1741.6380 -7450.4105 298.6140 -9192.0485 -7365.7093 297.3958 -503.6907 -444.8840 29861.8562 -259.2054 -210.1885
ENERGY: 900000 5.3987 6.7362 5.2065 0.0000 -10425.4764 1364.2100 0.0000 0.0000 1725.9476 -7317.9773 295.9238 -9043.9249 -7365.7031 296.9019 -490.3800 -469.4510 29955.8502 -285.4926 -230.7044
ENERGY: 1200000 5.6381 5.6252 6.7745 0.0000 -10647.0066 1459.9428 0.0000 0.0000 1754.3715 -7414.6545 300.7972 -9169.0260 -7366.2460 298.6025 144.8110 208.8545 29472.4048 -122.4367 -70.7586
ENERGY: 1500000 2.6308 3.3048 4.8423 0.0000 -10411.1411 1329.5058 0.0000 0.0000 1774.9945 -7295.8629 304.3332 -9070.8574 -7368.6425 299.2546 -783.4377 -701.9419 30296.0002 -133.2961 -74.7772
TCL: Running FEP window   3: Lambda1 0.1    Lambda2 0.15000000000000002 [dLambda 0.05000000000000002]
TCL: Setting parameter firsttimestep to 0
TCL: Setting parameter alchLambda to 0.1
Info: NONBONDED TABLE R-SQUARED SPACING: 0.0625
Info: NONBONDED TABLE SIZE: 705 POINTS
TCL: Setting parameter alchLambda2 to 0.15000000000000002
Info: NONBONDED TABLE R-SQUARED SPACING: 0.0625
Info: NONBONDED TABLE SIZE: 705 POINTS
TCL: Running for 1500000 steps
ETITLE: TS BOND ANGLE DIHED IMPRP ELECT VDW BOUNDARY MISC KINETIC TOTAL TEMP POTENTIAL TOTALAVG TEMPAVG PRESSURE GPRESSURE VOLUME PRESSAVG GPRESSAVG
ENERGY: 0 2.6308 3.3048 4.8423 0.0000 -10411.1410 1332.6648 0.0000 0.0000 1774.0957 -7293.6026 304.1791 -9067.6983 -7293.6026 304.1791 -789.0504 -689.3853 30296.0002 -789.0504 -689.3853
ENERGY: 300000 6.6265 4.8183 6.4942 0.0000 -10500.6727 1408.3600 0.0000 0.0000 1761.8075 -7312.5661 302.0722 -9074.3737 -7358.6386 302.9355 -84.8863 23.4966 30071.8583 -435.7230 -355.5526
ENERGY: 600000 4.9355 10.4498 6.8475 0.0000 -10711.0597 1526.4191 0.0000 0.0000 1698.2895 -7464.1183 291.1816 -9162.4078 -7379.7303 298.6851 535.0101 623.0943 29734.4062 -325.6284 -247.6219
ENERGY: 900000 4.3904 3.1357 7.5035 0.0000 -10665.4168 1522.0466 0.0000 0.0000 1741.1631 -7387.1775 298.5326 -9128.3406 -7367.2413 298.9830 843.3811 901.6233 29685.0198 -200.5023 -124.7204
ENERGY: 1200000 7.0955 8.5432 6.1194 0.0000 -10529.6148 1437.4966 0.0000 0.0000 1759.5172 -7310.8429 301.6795 -9070.3601 -7363.0841 300.3983 -259.3594 -182.0347 30223.3478 -155.6227 -77.2108
ENERGY: 1500000 8.2841 3.8384 10.8113 0.0000 -10555.4699 1421.4931 0.0000 0.0000 1831.3579 -7279.6850 313.9970 -9111.0429 -7359.1178 300.5359 -145.3449 -49.6765 29989.0398 -120.5071 -44.6019
TCL: Running FEP window   4: Lambda1 0.15000000000000002 Lambda2 0.2    [dLambda 0.04999999999999999]
TCL: Setting parameter firsttimestep to 0
TCL: Setting parameter alchLambda to 0.15000000000000002
Info: NONBONDED TABLE R-SQUARED SPACING: 0.0625
Info: NONBONDED TABLE SIZE: 705 POINTS
TCL: Setting parameter alchLambda2 to 0.2
Info: NONBONDED TABLE R-SQUARED SPACING: 0.0625
Info: NONBONDED TABLE SIZE: 705 POINTS
TCL: Running for 1500000 steps
ETITLE: TS BOND ANGLE DIHED IMPRP ELECT VDW BOUNDARY MISC KINETIC TOTAL TEMP POTENTIAL TOTALAVG TEMPAVG PRESSURE GPRESSURE VOLUME PRESSAVG GPRESSAVG
ENERGY: 0 8.2841 3.8384 10.8113 0.0000 -10555.4697 1427.2689 0.0000 0.0000 1830.5224 -7274.7445 313.8538 -9105.2669 -7274.7445 313.8538 -121.9010 -28.1269 29989.0398 -121.9010 -28.1269
ENERGY: 300000 5.6535 3.9752 8.3000 0.0000 -10752.2801 1488.8282 0.0000 0.0000 1746.3211 -7499.2022 299.4170 -9245.5233 -7365.6930 303.0807 -113.6925 20.2357 29505.9507 -517.8569 -420.1384
ENERGY: 600000 2.6293 4.5469 6.2442 0.0000 -10586.3684 1433.2175 0.0000 0.0000 1690.9279 -7448.8028 289.9195 -9139.7307 -7376.2222 300.3917 1.6982 77.6175 30004.9107 -185.2343 -95.1423
ENERGY: 900000 7.2095 4.3764 7.2512 0.0000 -10564.0763 1368.7939 0.0000 0.0000 1740.2341 -7436.2112 298.3733 -9176.4453 -7369.3569 300.4840 -701.7274 -626.4296 29949.7529 -197.2038 -112.0568
ENERGY: 1200000 5.9669 7.3546 8.9396 0.0000 -10517.0783 1434.6569 0.0000 0.0000 1738.1396 -7322.0206 298.0142 -9060.1602 -7356.9117 301.4184 299.1211 297.4308 29877.6076 -177.0775 -101.4426
ENERGY: 1500000 6.3478 9.0798 5.7137 0.0000 -10506.7462 1311.2702 0.0000 0.0000 1760.5710 -7413.7637 301.8602 -9174.3347 -7360.7412 301.3487 -1052.4216 -1036.5909 29982.0009 -232.9793 -163.6986
TCL: Running FEP window   5: Lambda1 0.2    Lambda2 0.25   [dLambda 0.04999999999999999]
TCL: Setting parameter firsttimestep to 0
TCL: Setting parameter alchLambda to 0.2
Info: NONBONDED TABLE R-SQUARED SPACING: 0.0625
Info: NONBONDED TABLE SIZE: 705 POINTS
TCL: Setting parameter alchLambda2 to 0.25
Info: NONBONDED TABLE R-SQUARED SPACING: 0.0625
Info: NONBONDED TABLE SIZE: 705 POINTS
TCL: Running for 1500000 steps
ETITLE: TS BOND ANGLE DIHED IMPRP ELECT VDW BOUNDARY MISC KINETIC TOTAL TEMP POTENTIAL TOTALAVG TEMPAVG PRESSURE GPRESSURE VOLUME PRESSAVG GPRESSAVG
ENERGY: 0 6.3478 9.0798 5.7137 0.0000 -10506.7462 1311.3680 0.0000 0.0000 1759.6898 -7414.5472 301.7091 -9174.2369 -7414.5472 301.7091 -1124.6552 -1031.5243 29982.0009 -1124.6552 -1031.5243
ENERGY: 300000 3.7265 2.9517 7.3668 0.0000 -10665.5072 1432.7376 0.0000 0.0000 1815.6162 -7403.1083 311.2980 -9218.7245 -7376.7639 304.5487 -233.4802 -113.2715 29854.1107 -770.7387 -691.4984
ENERGY: 600000 4.2635 6.1218 8.3510 0.0000 -10533.5663 1353.3211 0.0000 0.0000 1743.9232 -7417.5856 299.0058 -9161.5088 -7400.7991 301.0278 -722.4128 -635.1641 29787.1078 -710.5142 -640.5747
ENERGY: 900000 7.0359 5.9097 4.7278 0.0000 -10522.8070 1394.0730 0.0000 0.0000 1761.3798 -7349.6808 301.9989 -9111.0606 -7387.2483 300.5168 -29.4137 56.4174 29382.9255 -447.3821 -382.9726
ENERGY: 1200000 4.3176 4.3231 7.2096 0.0000 -10451.2016 1346.6604 0.0000 0.0000 1760.2481 -7328.4428 301.8048 -9088.6909 -7379.2688 301.4527 -626.8344 -588.5072 29916.5555 -309.4818 -247.7249
ENERGY: 1500000 3.1964 4.8917 3.7345 0.0000 -10459.8564 1356.3050 0.0000 0.0000 1761.0548 -7330.6739 301.9431 -9091.7287 -7381.6741 300.4568 -545.0125 -522.7125 30130.2141 -218.3592 -149.3559
TCL: Running FEP window   6: Lambda1 0.25   Lambda2 0.3    [dLambda 0.04999999999999999]
TCL: Setting parameter firsttimestep to 0
TCL: Setting parameter alchLambda to 0.25
Info: NONBONDED TABLE R-SQUARED SPACING: 0.0625
Info: NONBONDED TABLE SIZE: 705 POINTS
TCL: Setting parameter alchLambda2 to 0.3
Info: NONBONDED TABLE R-SQUARED SPACING: 0.0625
Info: NONBONDED TABLE SIZE: 705 POINTS
TCL: Running for 1500000 steps
ETITLE: TS BOND ANGLE DIHED IMPRP ELECT VDW BOUNDARY MISC KINETIC TOTAL TEMP POTENTIAL TOTALAVG TEMPAVG PRESSURE GPRESSURE VOLUME PRESSAVG GPRESSAVG
ENERGY: 0 3.1964 4.8917 3.7345 0.0000 -10459.8567 1356.1930 0.0000 0.0000 1760.1990 -7331.6420 301.7964 -9091.8411 -7331.6420 301.7964 -597.4341 -518.3467 30130.2141 -597.4341 -518.3467
ENERGY: 300000 4.6645 4.2821 6.0323 0.0000 -10540.6779 1415.5524 0.0000 0.0000 1729.2992 -7380.8475 296.4984 -9110.1467 -7368.6062 301.6680 -115.1146 -35.3628 30135.1485 -271.5565 -203.6459
ENERGY: 600000 6.3719 8.3301 2.5871 0.0000 -10498.2074 1435.2979 0.0000 0.0000 1737.9538 -7307.6667 297.9823 -9045.6205 -7352.3002 301.6033 183.4475 231.8666 30358.2804 -31.8779 26.2359
ENERGY: 900000 8.3572 5.2518 8.2371 0.0000 -10539.2236 1417.7660 0.0000 0.0000 1781.2005 -7318.4111 305.3972 -9099.6116 -7345.6761 302.0949 -43.1464 9.8054 29884.9802 -84.0415 -30.8519
ENERGY: 1200000 9.1087 8.4246 6.4454 0.0000 -10497.5581 1390.2865 0.0000 0.0000 1721.3644 -7361.9285 295.1380 -9083.2929 -7355.1890 300.9720 -748.5605 -678.6492 30388.4973 -208.8668 -149.6285
ENERGY: 1500000 5.0783 6.2555 5.6180 0.0000 -10620.7956 1460.3682 0.0000 0.0000 1753.8065 -7389.6691 300.7004 -9143.4756 -7364.4033 299.8352 152.2571 159.0780 29967.4087 -122.2893 -62.7155
TCL: Running FEP window   7: Lambda1 0.3    Lambda2 0.35   [dLambda 0.04999999999999999]
TCL: Setting parameter firsttimestep to 0
TCL: Setting parameter alchLambda to 0.3
Info: NONBONDED TABLE R-SQUARED SPACING: 0.0625
Info: NONBONDED TABLE SIZE: 705 POINTS
TCL: Setting parameter alchLambda2 to 0.35
Info: NONBONDED TABLE R-SQUARED SPACING: 0.0625
Info: NONBONDED TABLE SIZE: 705 POINTS
TCL: Running for 1500000 steps
ETITLE: TS BOND ANGLE DIHED IMPRP ELECT VDW BOUNDARY MISC KINETIC TOTAL TEMP POTENTIAL TOTALAVG TEMPAVG PRESSURE GPRESSURE VOLUME PRESSAVG GPRESSAVG
ENERGY: 0 5.0783 6.2555 5.6180 0.0000 -10620.7957 1460.3041 0.0000 0.0000 1752.9598 -7390.5800 300.5552 -9143.5399 -7390.5800 300.5552 79.6646 165.3267 29967.4087 79.6646 165.3267
ENERGY: 300000 6.5241 7.5834 4.3951 0.0000 -10597.2370 1413.4767 0.0000 0.0000 1730.1813 -7435.0764 296.6497 -9165.2577 -7378.1513 299.2745 51.2382 127.4898 29530.3145 -309.5389 -230.1896
ENERGY: 600000 4.9344 8.4310 4.7007 0.0000 -10421.7066 1383.1875 0.0000 0.0000 1721.6000 -7298.8531 295.1784 -9020.4531 -7350.4394 299.7695 -249.9531 -166.2287 30285.0843 -189.8345 -130.1965
ENERGY: 900000 7.4270 5.7735 6.0710 0.0000 -10367.2382 1306.7945 0.0000 0.0000 1761.1563 -7280.0160 301.9605 -9041.1723 -7345.7850 300.7649 -1319.0195 -1211.7079 30724.5017 -338.8148 -274.4137
ENERGY: 1200000 7.7538 8.2930 6.2360 0.0000 -10524.6265 1382.1080 0.0000 0.0000 1816.2454 -7303.9903 311.4059 -9120.2357 -7343.0108 301.3380 -260.1775 -219.8973 30192.6293 -219.3780 -155.8276
ENERGY: 1500000 5.3918 7.9979 6.2633 0.0000 -10582.2184 1464.9890 0.0000 0.0000 1746.2903 -7351.2861 299.4117 -9097.5764 -7335.4384 301.6631 294.8841 283.6116 30274.8078 -244.7957 -178.9283
TCL: Running FEP window   8: Lambda1 0.35   Lambda2 0.39999999999999997 [dLambda 0.04999999999999999]
TCL: Setting parameter firsttimestep to 0
TCL: Setting parameter alchLambda to 0.35
Info: NONBONDED TABLE R-SQUARED SPACING: 0.0625
Info: NONBONDED TABLE SIZE: 705 POINTS
TCL: Setting parameter alchLambda2 to 0.39999999999999997
Info: NONBONDED TABLE R-SQUARED SPACING: 0.0625
Info: NONBONDED TABLE SIZE: 705 POINTS
TCL: Running for 1500000 steps
ETITLE: TS BOND ANGLE DIHED IMPRP ELECT VDW BOUNDARY MISC KINETIC TOTAL TEMP POTENTIAL TOTALAVG TEMPAVG PRESSURE GPRESSURE VOLUME PRESSAVG GPRESSAVG
ENERGY: 0 5.3918 7.9979 6.2633 0.0000 -10582.2184 1465.3169 0.0000 0.0000 1745.4229 -7351.8257 299.2629 -9097.2486 -7351.8257 299.2629 221.9615 291.8773 30274.8078 221.9615 291.8773
ENERGY: 300000 4.6656 8.5832 5.0299 0.0000 -10565.5080 1436.5403 0.0000 0.0000 1778.5966 -7332.0923 304.9508 -9110.6889 -7352.9463 300.6437 309.8147 285.7427 30023.5721 -23.8828 -18.8539
ENERGY: 600000 5.8038 6.1498 5.7212 0.0000 -10688.9890 1517.8031 0.0000 0.0000 1791.5747 -7361.9363 307.1759 -9153.5110 -7350.2286 302.9091 514.5322 579.8226 30064.8295 159.1026 195.9629
ENERGY: 900000 3.4951 3.8802 6.5271 0.0000 -10495.0166 1427.5477 0.0000 0.0000 1747.2763 -7306.2902 299.5807 -9053.5665 -7357.5326 302.0864 288.7560 304.5204 29932.0508 130.7038 162.6557
ENERGY: 1200000 5.5967 4.0690 4.7001 0.0000 -10545.4066 1421.2240 0.0000 0.0000 1768.9990 -7340.8179 303.3052 -9109.8169 -7351.5549 302.0326 -64.4800 25.3590 29777.1997 56.3585 88.6481
ENERGY: 1500000 3.0336 9.0437 13.7178 0.0000 -10273.4995 1312.5877 0.0000 0.0000 1762.0860 -7173.0307 302.1199 -8935.1167 -7338.4050 302.0215 -520.8732 -458.8188 30444.9231 43.4604 87.3627
TCL: Running FEP window   9: Lambda1 0.39999999999999997 Lambda2 0.44999999999999996 [dLambda 0.04999999999999999]
TCL: Setting parameter firsttimestep to 0
TCL: Setting parameter alchLambda to 0.39999999999999997
Info: NONBONDED TABLE R-SQUARED SPACING: 0.0625
Info: NONBONDED TABLE SIZE: 705 POINTS
TCL: Setting parameter alchLambda2 to 0.44999999999999996
Info: NONBONDED TABLE R-SQUARED SPACING: 0.0625
Info: NONBONDED TABLE SIZE: 705 POINTS
TCL: Running for 1500000 steps
ETITLE: TS BOND ANGLE DIHED IMPRP ELECT VDW BOUNDARY MISC KINETIC TOTAL TEMP POTENTIAL TOTALAVG TEMPAVG PRESSURE GPRESSURE VOLUME PRESSAVG GPRESSAVG
ENERGY: 0 3.0335 9.0436 13.7179 0.0000 -10273.5002 1312.5808 0.0000 0.0000 1761.2484 -7173.8760 301.9763 -8935.1244 -7173.8760 301.9763 -555.4156 -455.0872 30444.9231 -555.4156 -455.0872
ENERGY: 300000 11.0124 10.1221 5.6288 0.0000 -10516.2136 1378.4705 0.0000 0.0000 1730.8452 -7380.1345 296.7635 -9110.9798 -7303.3677 299.3658 -464.7711 -353.3877 30069.9884 -4.7718 83.7822
ENERGY: 600000 2.7998 6.1625 5.8843 0.0000 -10616.1085 1439.2013 0.0000 0.0000 1764.9135 -7397.1470 302.6047 -9162.0606 -7315.3693 301.1054 -228.1348 -127.1031 30437.8691 -80.5942 -1.3885
ENERGY: 900000 9.2266 5.4738 4.9663 0.0000 -10557.0612 1420.8357 0.0000 0.0000 1690.9461 -7425.6127 289.9226 -9116.5588 -7344.2497 299.8612 9.3301 80.0607 29650.2355 -163.8178 -83.0516
ENERGY: 1200000 4.7891 7.4569 4.7232 0.0000 -10649.0390 1552.8403 0.0000 0.0000 1734.1296 -7345.0999 297.3266 -9079.2295 -7344.7254 300.4329 875.6272 971.4537 30458.2122 14.3988 88.2489
ENERGY: 1500000 3.4066 5.2931 8.9738 0.0000 -10551.8301 1411.4756 0.0000 0.0000 1691.0592 -7431.6218 289.9420 -9122.6810 -7350.2276 300.1621 -411.2202 -261.0305 30480.3741 -80.3906 -0.3771
TCL: Running FEP window  10: Lambda1 0.44999999999999996 Lambda2 0.49999999999999994 [dLambda 0.04999999999999999]
TCL: Setting parameter firsttimestep to 0
TCL: Setting parameter alchLambda to 0.44999999999999996
Info: NONBONDED TABLE R-SQUARED SPACING: 0.0625
Info: NONBONDED TABLE SIZE: 705 POINTS
TCL: Setting parameter alchLambda2 to 0.49999999999999994
Info: NONBONDED TABLE R-SQUARED SPACING: 0.0625
Info: NONBONDED TABLE SIZE: 705 POINTS
TCL: Running for 1500000 steps
ETITLE: TS BOND ANGLE DIHED IMPRP ELECT VDW BOUNDARY MISC KINETIC TOTAL TEMP POTENTIAL TOTALAVG TEMPAVG PRESSURE GPRESSURE VOLUME PRESSAVG GPRESSAVG
ENERGY: 0 3.4066 5.2931 8.9738 0.0000 -10551.8302 1411.2619 0.0000 0.0000 1690.1930 -7432.7018 289.7935 -9122.8948 -7432.7018 289.7935 -344.5394 -254.8159 30480.3741 -344.5394 -254.8159
ENERGY: 300000 4.8905 8.6478 6.7175 0.0000 -10491.6988 1405.8750 0.0000 0.0000 1724.1195 -7341.4485 295.6104 -9065.5680 -7376.7364 297.1220 -255.8235 -189.4925 30324.3960 -571.6852 -501.6697
ENERGY: 600000 3.5048 4.1877 5.1232 0.0000 -10500.8794 1340.9745 0.0000 0.0000 1762.4429 -7384.6463 302.1811 -9147.0893 -7392.5399 296.1750 -732.5817 -678.4267 30516.3822 -487.9152 -429.5126
ENERGY: 900000 2.8796 9.9149 5.6913 0.0000 -10434.4003 1396.0938 0.0000 0.0000 1769.4530 -7250.3676 303.3830 -9019.8206 -7380.1880 297.3646 -15.0154 51.9210 29982.8777 -345.3358 -284.0064
ENERGY: 1200000 2.8453 5.2413 9.5023 0.0000 -10540.3165 1456.9043 0.0000 0.0000 1747.7529 -7318.0705 299.6624 -9065.8234 -7364.5793 298.4728 187.2511 275.2380 30501.3827 -168.6065 -101.1488
ENERGY: 1500000 10.6384 6.1215 8.0239 0.0000 -10546.4212 1427.2052 0.0000 0.0000 1739.3950 -7355.0372 298.2294 -9094.4322 -7367.8436 298.9369 48.0791 79.4856 29925.4884 -100.4314 -37.1035
TCL: Running FEP window  11: Lambda1 0.49999999999999994 Lambda2 0.5499999999999999 [dLambda 0.04999999999999999]
TCL: Setting parameter firsttimestep to 0
TCL: Setting parameter alchLambda to 0.49999999999999994
Info: NONBONDED TABLE R-SQUARED SPACING: 0.0625
Info: NONBONDED TABLE SIZE: 705 POINTS
TCL: Setting parameter alchLambda2 to 0.5499999999999999
Info: NONBONDED TABLE R-SQUARED SPACING: 0.0625
Info: NONBONDED TABLE SIZE: 705 POINTS
TCL: Running for 1500000 steps
ETITLE: TS BOND ANGLE DIHED IMPRP ELECT VDW BOUNDARY MISC KINETIC TOTAL TEMP POTENTIAL TOTALAVG TEMPAVG PRESSURE GPRESSURE VOLUME PRESSAVG GPRESSAVG
ENERGY: 0 10.6384 6.1215 8.0239 0.0000 -10546.4217 1427.6453 0.0000 0.0000 1738.5014 -7355.4912 298.0762 -9093.9927 -7355.4912 298.0762 10.6312 91.5648 29925.4884 10.6312 91.5648
ENERGY: 300000 4.0347 8.6962 8.7207 0.0000 -10488.0986 1353.0558 0.0000 0.0000 1759.9224 -7353.6687 301.7490 -9113.5911 -7355.4287 298.1239 -558.6698 -457.9323 30095.3963 115.2639 201.4591
ENERGY: 600000 4.0868 8.2146 6.5050 0.0000 -10478.5724 1345.5935 0.0000 0.0000 1733.0932 -7381.0792 297.1490 -9114.1725 -7375.2365 297.2827 -645.4348 -560.8043 29826.6818 -42.7539 30.4819
ENERGY: 900000 4.1112 7.1974 6.8151 0.0000 -10624.6482 1429.9051 0.0000 0.0000 1763.3903 -7413.2292 302.3436 -9176.6194 -7386.7630 298.3049 -272.9284 -169.6629 30168.7322 -88.5056 -20.3023
ENERGY: 1200000 4.7176 5.8540 5.0621 0.0000 -10519.1660 1371.5111 0.0000 0.0000 1769.5616 -7362.4596 303.4017 -9132.0212 -7392.5315 298.3255 -441.6432 -433.6119 30441.8781 -94.6814 -35.5774
ENERGY: 1500000 5.9067 6.2510 3.4389 0.0000 -10649.1562 1489.5898 0.0000 0.0000 1775.5799 -7368.3900 304.4335 -9143.9699 -7400.6940 297.8867 530.4931 586.2559 29938.4865 -90.5183 -28.9934
TCL: Running FEP window  12: Lambda1 0.5499999999999999 Lambda2 0.6    [dLambda 0.050000000000000044]
TCL: Setting parameter firsttimestep to 0
TCL: Setting parameter alchLambda to 0.5499999999999999
Info: NONBONDED TABLE R-SQUARED SPACING: 0.0625
Info: NONBONDED TABLE SIZE: 705 POINTS
TCL: Setting parameter alchLambda2 to 0.6
Info: NONBONDED TABLE R-SQUARED SPACING: 0.0625
Info: NONBONDED TABLE SIZE: 705 POINTS
TCL: Running for 1500000 steps
ETITLE: TS BOND ANGLE DIHED IMPRP ELECT VDW BOUNDARY MISC KINETIC TOTAL TEMP POTENTIAL TOTALAVG TEMPAVG PRESSURE GPRESSURE VOLUME PRESSAVG GPRESSAVG
ENERGY: 0 5.9067 6.2509 3.4389 0.0000 -10649.2310 1488.8310 0.0000 0.0000 1774.7284 -7370.0750 304.2875 -9144.8034 -7370.0750 304.2875 503.3666 588.7716 29938.4865 503.3666 588.7716
ENERGY: 300000 4.2780 6.5156 7.7873 0.0000 -10544.3992 1433.4935 0.0000 0.0000 1765.0766 -7327.2483 302.6327 -9092.3249 -7382.5156 300.0141 361.9058 371.4513 29945.4453 272.5151 349.3524
ENERGY: 600000 3.8531 6.3038 8.6064 0.0000 -10510.4690 1403.1484 0.0000 0.0000 1734.5556 -7354.0017 297.3997 -9088.5573 -7373.8685 300.2434 -200.6960 -173.4806 30215.0586 64.3244 129.9020
ENERGY: 900000 7.2814 8.9788 8.4042 0.0000 -10406.5082 1389.1340 0.0000 0.0000 1687.3634 -7305.3465 289.3083 -8992.7099 -7374.0870 298.9673 -267.4657 -142.0002 30378.3028 -67.9177 -1.2557
ENERGY: 1200000 2.2928 9.9097 8.4793 0.0000 -10554.9498 1462.9848 0.0000 0.0000 1772.2617 -7299.0216 303.8646 -9071.2833 -7365.9318 300.0994 480.8455 510.5481 30022.8716 -44.8845 14.6618
ENERGY: 1500000 7.8448 8.5728 7.8255 0.0000 -10650.3171 1456.6607 0.0000 0.0000 1797.1994 -7372.2140 308.1403 -9169.4134 -7364.3017 300.7509 278.3986 345.9399 29691.5036 -110.9930 -52.1277
TCL: Running FEP window  13: Lambda1 0.6    Lambda2 0.65   [dLambda 0.050000000000000044]
TCL: Setting parameter firsttimestep to 0
TCL: Setting parameter alchLambda to 0.6
Info: NONBONDED TABLE R-SQUARED SPACING: 0.0625
Info: NONBONDED TABLE SIZE: 705 POINTS
TCL: Setting parameter alchLambda2 to 0.65
Info: NONBONDED TABLE R-SQUARED SPACING: 0.0625
Info: NONBONDED TABLE SIZE: 705 POINTS
TCL: Running for 1500000 steps
ETITLE: TS BOND ANGLE DIHED IMPRP ELECT VDW BOUNDARY MISC KINETIC TOTAL TEMP POTENTIAL TOTALAVG TEMPAVG PRESSURE GPRESSURE VOLUME PRESSAVG GPRESSAVG
ENERGY: 0 7.8448 8.5728 7.8255 0.0000 -10650.2140 1457.4411 0.0000 0.0000 1796.3214 -7372.2084 307.9898 -9168.5298 -7372.2084 307.9898 275.5180 366.9765 29691.5036 275.5180 366.9765
ENERGY: 300000 3.9687 3.8015 6.1180 0.0000 -10501.5111 1400.7127 0.0000 0.0000 1753.9495 -7332.9606 300.7249 -9086.9101 -7383.3679 299.7541 -67.4852 -21.3330 30545.2191 -185.8418 -107.8002
ENERGY: 600000 3.0601 9.2449 7.7069 0.0000 -10530.8937 1424.9989 0.0000 0.0000 1726.8188 -7359.0640 296.0732 -9085.8828 -7385.1098 299.5821 271.7469 381.8599 29842.0887 -17.3813 60.7041
ENERGY: 900000 4.7339 8.2374 8.5498 0.0000 -10544.4547 1407.8497 0.0000 0.0000 1735.5645 -7379.5195 297.5727 -9115.0839 -7386.5045 298.9935 -74.3762 -53.9146 30302.7714 0.7289 71.3644
ENERGY: 1200000 8.7380 4.3614 8.1342 0.0000 -10575.6245 1450.4812 0.0000 0.0000 1700.0595 -7403.8502 291.4851 -9103.9097 -7385.1177 298.0038 131.6875 224.6122 30272.0722 53.1055 123.9701
ENERGY: 1500000 4.8331 6.0574 4.0523 0.0000 -10634.2140 1424.8684 0.0000 0.0000 1752.2263 -7442.1765 300.4294 -9194.4028 -7391.0411 298.8870 -120.7431 -89.1848 29991.3018 35.4016 101.3424
TCL: Running FEP window  14: Lambda1 0.65   Lambda2 0.7000000000000001 [dLambda 0.050000000000000044]
TCL: Setting parameter firsttimestep to 0
TCL: Setting parameter alchLambda to 0.65
Info: NONBONDED TABLE R-SQUARED SPACING: 0.0625
Info: NONBONDED TABLE SIZE: 705 POINTS
TCL: Setting parameter alchLambda2 to 0.7000000000000001
Info: NONBONDED TABLE R-SQUARED SPACING: 0.0625
Info: NONBONDED TABLE SIZE: 705 POINTS
TCL: Running for 1500000 steps
ETITLE: TS BOND ANGLE DIHED IMPRP ELECT VDW BOUNDARY MISC KINETIC TOTAL TEMP POTENTIAL TOTALAVG TEMPAVG PRESSURE GPRESSURE VOLUME PRESSAVG GPRESSAVG
ENERGY: 0 4.8331 6.0574 4.0523 0.0000 -10634.9023 1425.3437 0.0000 0.0000 1751.3351 -7443.2807 300.2766 -9194.6159 -7443.2807 300.2766 -160.9977 -72.5754 29991.3018 -160.9977 -72.5754
ENERGY: 300000 5.3050 7.6056 6.8668 0.0000 -10556.3033 1455.5473 0.0000 0.0000 1744.2003 -7336.7783 299.0533 -9080.9786 -7389.6256 298.6354 670.4325 683.0884 29787.8990 -117.8287 -41.7772
ENERGY: 600000 5.9767 8.0851 8.3252 0.0000 -10505.3577 1387.8675 0.0000 0.0000 1756.3632 -7338.7400 301.1387 -9095.1032 -7393.3939 297.7611 -499.3950 -416.8853 30596.3217 -187.9637 -123.0524
ENERGY: 900000 5.5799 9.1422 5.1066 0.0000 -10595.7727 1452.8971 0.0000 0.0000 1688.7794 -7434.2675 289.5511 -9123.0469 -7388.0126 298.4205 120.0267 214.6012 29787.8100 -57.3070 16.2371
ENERGY: 1200000 8.7066 4.8409 4.1453 0.0000 -10544.8707 1417.9324 0.0000 0.0000 1812.0514 -7297.1942 310.6868 -9109.2456 -7379.0206 299.7240 -29.5321 72.4709 30168.1792 -63.9322 6.3956
ENERGY: 1500000 3.7308 6.9934 5.8888 0.0000 -10635.0507 1496.0506 0.0000 0.0000 1738.9829 -7383.4041 298.1588 -9122.3871 -7387.1692 299.3535 519.5982 545.1097 29815.8276 30.2317 93.0693
TCL: Running FEP window  15: Lambda1 0.7000000000000001 Lambda2 0.7500000000000001 [dLambda 0.050000000000000044]
TCL: Setting parameter firsttimestep to 0
TCL: Setting parameter alchLambda to 0.7000000000000001
Info: NONBONDED TABLE R-SQUARED SPACING: 0.0625
Info: NONBONDED TABLE SIZE: 705 POINTS
TCL: Setting parameter alchLambda2 to 0.7500000000000001
Info: NONBONDED TABLE R-SQUARED SPACING: 0.0625
Info: NONBONDED TABLE SIZE: 705 POINTS
TCL: Running for 1500000 steps
ETITLE: TS BOND ANGLE DIHED IMPRP ELECT VDW BOUNDARY MISC KINETIC TOTAL TEMP POTENTIAL TOTALAVG TEMPAVG PRESSURE GPRESSURE VOLUME PRESSAVG GPRESSAVG
ENERGY: 0 3.7308 6.9934 5.8888 0.0000 -10635.5740 1496.0601 0.0000 0.0000 1738.1295 -7384.7715 298.0125 -9122.9009 -7384.7715 298.0125 464.5440 555.4938 29815.8276 464.5440 555.4938
ENERGY: 300000 9.0530 8.4984 6.9094 0.0000 -10556.8019 1487.6307 0.0000 0.0000 1750.3667 -7294.3437 300.1106 -9044.7104 -7330.2581 300.6378 801.0350 859.9282 29814.5766 -18.1111 37.0228
ENERGY: 600000 3.9918 6.8770 7.8573 0.0000 -10476.3081 1394.9053 0.0000 0.0000 1777.6771 -7284.9995 304.7931 -9062.6765 -7326.4672 302.1185 -82.3429 -30.0002 30299.4009 -61.7629 -0.0902
ENERGY: 900000 6.6343 6.9431 5.0764 0.0000 -10532.1661 1418.6736 0.0000 0.0000 1758.6927 -7336.1460 301.5381 -9094.8387 -7349.5114 301.3734 -125.3319 -66.1597 30069.1603 -32.4264 34.8132
ENERGY: 1200000 5.4226 9.5736 9.8650 0.0000 -10652.6547 1476.2097 0.0000 0.0000 1715.9703 -7435.6135 294.2131 -9151.5838 -7358.2591 300.8575 218.6853 259.1246 30141.8433 -6.1411 59.5286
ENERGY: 1500000 8.7459 3.8627 7.4337 0.0000 -10565.4816 1439.1898 0.0000 0.0000 1724.9564 -7381.2931 295.7539 -9106.2495 -7364.0863 300.5617 -146.2987 -106.6190 30075.8963 -2.8932 58.8312
TCL: Running FEP window  16: Lambda1 0.7500000000000001 Lambda2 0.8000000000000002 [dLambda 0.050000000000000044]
TCL: Setting parameter firsttimestep to 0
TCL: Setting parameter alchLambda to 0.7500000000000001
Info: NONBONDED TABLE R-SQUARED SPACING: 0.0625
Info: NONBONDED TABLE SIZE: 705 POINTS
TCL: Setting parameter alchLambda2 to 0.8000000000000002
Info: NONBONDED TABLE R-SQUARED SPACING: 0.0625
Info: NONBONDED TABLE SIZE: 705 POINTS
TCL: Running for 1500000 steps
ETITLE: TS BOND ANGLE DIHED IMPRP ELECT VDW BOUNDARY MISC KINETIC TOTAL TEMP POTENTIAL TOTALAVG TEMPAVG PRESSURE GPRESSURE VOLUME PRESSAVG GPRESSAVG
ENERGY: 0 8.7459 3.8627 7.4337 0.0000 -10566.3413 1438.4753 0.0000 0.0000 1724.0794 -7383.7442 295.6035 -9107.8236 -7383.7442 295.6035 -190.5311 -103.4261 30075.8963 -190.5311 -103.4261
ENERGY: 300000 10.4558 10.2417 10.1393 0.0000 -10623.0714 1457.3206 0.0000 0.0000 1760.8633 -7374.0506 301.9103 -9134.9139 -7385.6633 298.3974 257.7844 335.4861 29733.9781 40.5646 115.4178
ENERGY: 600000 2.4587 9.6316 5.3041 0.0000 -10518.9126 1422.5805 0.0000 0.0000 1698.7439 -7380.1938 291.2596 -9078.9377 -7398.4816 299.1141 -27.3334 82.1812 30452.6521 -32.7546 35.4561
ENERGY: 900000 9.4014 11.5126 4.3478 0.0000 -10616.7327 1458.7719 0.0000 0.0000 1742.1772 -7390.5217 298.7065 -9132.6989 -7408.8161 298.3560 280.5755 306.0987 29905.2835 19.8422 73.6621
ENERGY: 1200000 5.0631 4.4878 6.0948 0.0000 -10454.1042 1336.9571 0.0000 0.0000 1780.6900 -7320.8114 305.3097 -9101.5015 -7396.9118 298.1379 -850.5485 -827.2035 30833.6737 1.8873 54.1448
ENERGY: 1500000 2.7315 3.6057 4.2157 0.0000 -10641.6258 1491.3034 0.0000 0.0000 1769.5608 -7370.2087 303.4015 -9139.7695 -7380.9584 299.6306 337.5625 405.0457 30249.5785 -69.8539 -16.6188
TCL: Running FEP window  17: Lambda1 0.8000000000000002 Lambda2 0.8500000000000002 [dLambda 0.050000000000000044]
TCL: Setting parameter firsttimestep to 0
TCL: Setting parameter alchLambda to 0.8000000000000002
Info: NONBONDED TABLE R-SQUARED SPACING: 0.0625
Info: NONBONDED TABLE SIZE: 705 POINTS
TCL: Setting parameter alchLambda2 to 0.8500000000000002
Info: NONBONDED TABLE R-SQUARED SPACING: 0.0625
Info: NONBONDED TABLE SIZE: 705 POINTS
TCL: Running for 1500000 steps
ETITLE: TS BOND ANGLE DIHED IMPRP ELECT VDW BOUNDARY MISC KINETIC TOTAL TEMP POTENTIAL TOTALAVG TEMPAVG PRESSURE GPRESSURE VOLUME PRESSAVG GPRESSAVG
ENERGY: 0 2.7315 3.6057 4.2157 0.0000 -10642.3338 1491.9787 0.0000 0.0000 1768.7070 -7371.0953 303.2551 -9139.8023 -7371.0953 303.2551 337.6002 426.8755 30249.5785 337.6002 426.8755
ENERGY: 300000 8.9143 9.0946 5.8171 0.0000 -10541.9179 1426.0916 0.0000 0.0000 1700.5912 -7391.4091 291.5763 -9092.0003 -7357.9197 296.7364 186.3509 212.3135 30126.4146 217.5585 261.6275
ENERGY: 600000 2.6104 7.0713 8.3158 0.0000 -10533.3959 1457.4757 0.0000 0.0000 1739.3465 -7318.5763 298.2211 -9057.9227 -7347.8820 300.3920 800.9514 837.7135 29568.7663 275.4614 315.2196
ENERGY: 900000 5.1269 6.4910 7.4725 0.0000 -10666.0098 1511.3397 0.0000 0.0000 1753.7058 -7381.8737 300.6831 -9135.5796 -7357.8097 300.3356 563.6772 647.5150 30225.7584 151.8516 198.7926
ENERGY: 1200000 5.6195 6.6144 15.8379 0.0000 -10693.3167 1541.0864 0.0000 0.0000 1767.8183 -7356.3401 303.1028 -9124.1584 -7362.0429 299.4850 837.2143 880.8428 30022.3669 153.7074 203.8651
ENERGY: 1500000 4.6509 6.5340 6.9732 0.0000 -10637.8438 1417.7851 0.0000 0.0000 1676.8379 -7525.0628 287.5037 -9201.9007 -7372.4551 298.9768 -50.2984 -25.5144 29747.8633 138.0680 190.0383
TCL: Running FEP window  18: Lambda1 0.8500000000000002 Lambda2 0.9000000000000002 [dLambda 0.050000000000000044]
TCL: Setting parameter firsttimestep to 0
TCL: Setting parameter alchLambda to 0.8500000000000002
Info: NONBONDED TABLE R-SQUARED SPACING: 0.0625
Info: NONBONDED TABLE SIZE: 705 POINTS
TCL: Setting parameter alchLambda2 to 0.9000000000000002
Info: NONBONDED TABLE R-SQUARED SPACING: 0.0625
Info: NONBONDED TABLE SIZE: 705 POINTS
TCL: Running for 1500000 steps
ETITLE: TS BOND ANGLE DIHED IMPRP ELECT VDW BOUNDARY MISC KINETIC TOTAL TEMP POTENTIAL TOTALAVG TEMPAVG PRESSURE GPRESSURE VOLUME PRESSAVG GPRESSAVG
ENERGY: 0 4.6509 6.5340 6.9732 0.0000 -10638.6624 1417.4626 0.0000 0.0000 1675.9650 -7527.0766 287.3540 -9203.0417 -7527.0766 287.3540 -104.0703 -9.9642 29747.8633 -104.0703 -9.9642
ENERGY: 300000 6.4818 5.3863 10.7841 0.0000 -10563.2416 1465.5181 0.0000 0.0000 1755.8198 -7319.2516 301.0456 -9075.0713 -7387.2544 299.4208 555.9959 582.2096 29895.3895 -38.8280 37.8795
ENERGY: 600000 3.8933 4.5777 5.2633 0.0000 -10601.3362 1495.3975 0.0000 0.0000 1794.0668 -7298.1377 307.6032 -9092.2044 -7361.9026 299.3785 797.2543 845.4148 29983.0689 146.0442 207.4080
ENERGY: 900000 3.7436 6.0727 3.9186 0.0000 -10579.4478 1449.4330 0.0000 0.0000 1712.0059 -7404.2739 293.5334 -9116.2798 -7385.7855 297.9374 125.3583 185.8929 29905.7515 80.8368 155.5541
ENERGY: 1200000 5.1322 6.1285 3.5811 0.0000 -10436.7128 1349.5265 0.0000 0.0000 1723.5428 -7348.8018 295.5115 -9072.3445 -7371.6559 298.8985 -100.3540 -41.1280 30053.8927 70.4103 141.5767
ENERGY: 1500000 4.7458 6.9352 3.4846 0.0000 -10563.5461 1438.3725 0.0000 0.0000 1735.8689 -7374.1390 297.6249 -9110.0079 -7368.7626 298.7553 106.3039 241.7898 29925.8431 42.4038 123.9041
TCL: Running FEP window  19: Lambda1 0.9000000000000002 Lambda2 0.9500000000000003 [dLambda 0.050000000000000044]
TCL: Setting parameter firsttimestep to 0
TCL: Setting parameter alchLambda to 0.9000000000000002
Info: NONBONDED TABLE R-SQUARED SPACING: 0.0625
Info: NONBONDED TABLE SIZE: 705 POINTS
TCL: Setting parameter alchLambda2 to 0.9500000000000003
Info: NONBONDED TABLE R-SQUARED SPACING: 0.0625
Info: NONBONDED TABLE SIZE: 705 POINTS
TCL: Running for 1500000 steps
ETITLE: TS BOND ANGLE DIHED IMPRP ELECT VDW BOUNDARY MISC KINETIC TOTAL TEMP POTENTIAL TOTALAVG TEMPAVG PRESSURE GPRESSURE VOLUME PRESSAVG GPRESSAVG
ENERGY: 0 4.7458 6.9352 3.4846 0.0000 -10565.3170 1439.0748 0.0000 0.0000 1735.0140 -7376.0625 297.4783 -9111.0766 -7376.0625 297.4783 179.0721 265.6974 29925.8431 179.0721 265.6974
ENERGY: 300000 5.1213 8.1264 5.8915 0.0000 -10726.6830 1575.9737 0.0000 0.0000 1776.2067 -7355.3633 304.5410 -9131.5700 -7415.8191 300.1463 1205.0513 1329.1735 29889.6944 521.6585 594.3954
ENERGY: 600000 3.2144 4.7008 8.1143 0.0000 -10526.7066 1414.8688 0.0000 0.0000 1730.2531 -7365.5552 296.6620 -9095.8083 -7406.5276 299.5865 181.5430 204.4562 30631.3548 210.1543 275.8924
ENERGY: 900000 5.7509 8.2542 6.0069 0.0000 -10777.7291 1576.7335 0.0000 0.0000 1783.5097 -7397.4738 305.7932 -9180.9836 -7387.0312 300.5764 908.5270 925.5678 30381.2895 195.8588 262.3677
ENERGY: 1200000 7.9699 6.5729 5.2702 0.0000 -10598.1033 1475.0058 0.0000 0.0000 1695.4556 -7407.8289 290.6958 -9103.2845 -7386.2996 299.5369 34.3027 77.7937 30684.2654 199.7199 268.2203
ENERGY: 1500000 3.2603 13.7989 7.6199 0.0000 -10548.0749 1390.3449 0.0000 0.0000 1742.7398 -7390.3111 298.8029 -9133.0510 -7382.0968 299.5613 -297.1966 -228.9471 30372.6996 85.9465 156.8189
TCL: Running FEP window  20: Lambda1 0.9500000000000003 Lambda2 1.0    [dLambda 0.04999999999999971]
TCL: Setting parameter firsttimestep to 0
TCL: Setting parameter alchLambda to 0.9500000000000003
Info: NONBONDED TABLE R-SQUARED SPACING: 0.0625
Info: NONBONDED TABLE SIZE: 705 POINTS
TCL: Setting parameter alchLambda2 to 1.0
Info: NONBONDED TABLE R-SQUARED SPACING: 0.0625
Info: NONBONDED TABLE SIZE: 705 POINTS
TCL: Running for 1500000 steps
ETITLE: TS BOND ANGLE DIHED IMPRP ELECT VDW BOUNDARY MISC KINETIC TOTAL TEMP POTENTIAL TOTALAVG TEMPAVG PRESSURE GPRESSURE VOLUME PRESSAVG GPRESSAVG
ENERGY: 0 3.2603 13.7989 7.6199 0.0000 -10548.8133 1389.6031 0.0000 0.0000 1741.8383 -7392.6928 298.6484 -9134.5311 -7392.6928 298.6484 -299.3799 -223.8987 30372.6996 -299.3799 -223.8987
ENERGY: 300000 4.7023 5.1944 4.5505 0.0000 -10603.5938 1415.9997 0.0000 0.0000 1778.0389 -7395.1081 304.8552 -9173.1470 -7395.5591 302.2984 33.8366 74.1450 29794.8799 36.1086 98.7797
ENERGY: 600000 5.0599 9.0732 3.9732 0.0000 -10607.9055 1492.8957 0.0000 0.0000 1708.8611 -7388.0424 292.9942 -9096.9035 -7382.4145 300.8217 228.0183 243.6875 30782.3706 102.9010 162.0686
ENERGY: 900000 6.2605 5.7704 5.8279 0.0000 -10458.0447 1291.0253 0.0000 0.0000 1728.3188 -7420.8418 296.3303 -9149.1606 -7388.5955 299.0642 -896.1502 -849.2678 29903.9441 123.5299 184.7375
ENERGY: 1200000 8.4336 7.5620 5.4410 0.0000 -10346.0011 1267.3294 0.0000 0.0000 1784.4504 -7272.7847 305.9544 -9057.2352 -7385.6288 298.8168 -935.3374 -852.8578 30581.1780 54.7983 116.6919
ENERGY: 1500000 2.8506 3.9077 7.3395 0.0000 -10545.4527 1410.9043 0.0000 0.0000 1744.4640 -7375.9866 299.0985 -9120.4506 -7380.5022 299.1093 354.4901 343.3053 29886.5205 16.7769 74.4818
TCL: Exiting due to exit command.
