Info: SIMULATION PARAMETERS:
Info: TIMESTEP               2
Info: NUMBER OF STEPS        0
Info: STEPS PER CYCLE        10
Info: PERIODIC CELL BASIS 1  30.7751 0 0
Info: PERIODIC CELL BASIS 2  0 31.4537 0
Info: PERIODIC CELL BASIS 3  0 0 31.7308
Info: PERIODIC CELL CENTER   0 0 0
Info: WRAPPING WATERS AROUND PERIODIC BOUNDARIES ON OUTPUT.
Info: WRAPPING ALL CLUSTERS AROUND PERIODIC BOUNDARIES ON OUTPUT.
Info: FIRST LDB TIMESTEP     50
Info: LAST LDB TIMESTEP     -1
Info: HOM BACKGROUND SCALING 1
Info: PME BACKGROUND SCALING 1
Info: MIN ATOMS PER PATCH    40
Info: EMPTY PATCH LOAD       40 ATOMS
Info: VELOCITY FILE          mobley_1261349_equil.vel
Info: CENTER OF MASS MOVING INITIALLY? NO
Info: DIELECTRIC             1
Info: EXCLUDE                SCALED ONE-FOUR
Info: 1-4 ELECTROSTATICS SCALED BY 0.833333
Info: MODIFIED 1-4 VDW PARAMETERS WILL BE USED
Info: DCD FILENAME           mobley_1261349_prod.dcd
Info: DCD FREQUENCY          100000
Info: DCD FIRST STEP         100000
Info: DCD FILE WILL CONTAIN UNIT CELL DATA
Info: XST FILENAME           mobley_1261349_prod.xst
Info: XST FREQUENCY          100000
Info: NO VELOCITY DCD OUTPUT
Info: NO FORCE DCD OUTPUT
Info: OUTPUT FILENAME        mobley_1261349_prod
Info: BINARY OUTPUT FILES WILL BE USED
Info: RESTART FILENAME       mobley_1261349_prod.restart
Info: RESTART FREQUENCY      100000
Info: BINARY RESTART FILES WILL BE USED
Info: CUTOFF                 9
Info: PAIRLIST DISTANCE      11
Info: PAIRLIST SHRINK RATE   0.01
Info: PAIRLIST GROW RATE     0.01
Info: PAIRLIST TRIGGER       0.3
Info: PAIRLISTS PER CYCLE    2
Info: PAIRLISTS ENABLED
Info: MARGIN                 2
Info: HYDROGEN GROUP CUTOFF  2.5
Info: PATCH DIMENSION        15.5
Info: ENERGY OUTPUT STEPS    100000
Info: ENERGY EVALUATION STEPS    100000
Info: OUTPUT ENERGY PRECISION 4
Info: CROSSTERM ENERGY INCLUDED IN DIHEDRAL
Info: TIMING OUTPUT STEPS    1000000
Info: PRESSURE OUTPUT STEPS  100000
Info: ALCHEMICAL FEP ON
Info: FEP CURRENT LAMBDA VALUE     0
Info: FEP COMPARISON LAMBDA VALUE  0.05
Info: FEP INTRA-ALCHEMICAL NON-BONDED INTERACTIONS WILL BE RETAINED
Info: FEP INTRA-ALCHEMICAL BONDED INTERACTIONS WILL BE RETAINED
Info: FEP VDW SHIFTING COEFFICIENT 5
Info: FEP ELEC. ACTIVE FOR ANNIHILATED PARTICLES BETWEEN LAMBDA = 0 AND LAMBDA = 0.5
Info: FEP ELEC. ACTIVE FOR EXNIHILATED PARTICLES BETWEEN LAMBDA = 0.5 AND LAMBDA = 1
Info: FEP VDW ACTIVE FOR ANNIHILATED PARTICLES BETWEEN LAMBDA = 0 AND LAMBDA = 1
Info: FEP VDW ACTIVE FOR EXNIHILATED PARTICLES BETWEEN LAMBDA = 0 AND LAMBDA = 1
Info: FEP BOND ACTIVE FOR ANNIHILATED PARTICLES BETWEEN LAMBDA = 1 AND LAMBDA = 1
Info: FEP BOND ACTIVE FOR EXNIHILATED PARTICLES BETWEEN LAMBDA = 0 AND LAMBDA = 0
Info: LANGEVIN DYNAMICS ACTIVE
Info: LANGEVIN TEMPERATURE   300
Info: LANGEVIN USING BBK INTEGRATOR
Info: LANGEVIN DAMPING COEFFICIENT IS 1 INVERSE PS
Info: LANGEVIN DYNAMICS APPLIED TO HYDROGENS
Info: LANGEVIN PISTON PRESSURE CONTROL ACTIVE
Info:        TARGET PRESSURE IS 1.01325 BAR
Info:     OSCILLATION PERIOD IS 50 FS
Info:             DECAY TIME IS 25 FS
Info:     PISTON TEMPERATURE IS 300 K
Info:       PRESSURE CONTROL IS GROUP-BASED
Info:    INITIAL STRAIN RATE IS 0.000364186 0.000364186 0.000364186
Info:       CELL FLUCTUATION IS ISOTROPIC
Info: PARTICLE MESH EWALD (PME) ACTIVE
Info: PME TOLERANCE               1e-06
Info: PME EWALD COEFFICIENT       0.348832
Info: PME INTERPOLATION ORDER     4
Info: PME GRID DIMENSIONS         32 32 32
Info: PME MAXIMUM GRID SPACING    1
Info: PME CALCULATION WILL BE PERFORMED ON GPU
Info: FULL ELECTROSTATIC EVALUATION FREQUENCY      2
Info: USING VERLET I (r-RESPA) MTS SCHEME.
Info: C1 SPLITTING OF LONG RANGE ELECTROSTATICS
Info: PLACING ATOMS IN PATCHES BY HYDROGEN GROUPS
Info: RIGID BONDS TO HYDROGEN : ALL
Info:         ERROR TOLERANCE : 1e-08
Info:          MAX ITERATIONS : 100
Info: RIGID WATER USING SETTLE ALGORITHM
Info: RANDOM NUMBER SEED     1743586976
Info: USE HYDROGEN BONDS?    NO
Info: Using AMBER format force field!
Info: AMBER PARM FILE        mobley_1261349.prmtop
Info: COORDINATE PDB         mobley_1261349.pdb
Info: Exclusions will be read from PARM file!
Info: SCNB (VDW SCALING)     2
Info: USING ARITHMETIC MEAN TO COMBINE L-J SIGMA PARAMETERS
Info: BINARY COORDINATES     mobley_1261349_equil.coor
Info: SUMMARY OF PARAMETERS:
Info: 4 BONDS
Info: 3 ANGLES
Info:   3 HARMONIC
Info:   0 COSINE-BASED
Info: 1 DIHEDRAL
Info: 0 IMPROPER
Info: 0 CROSSTERM
Info: 0 VDW
Info: 10 VDW_PAIRS
Info: 0 NBTHOLE_PAIRS
Info: To read alchdata from file: mobley_1261349.pdb
Info: To read alchflag data from column: 5
Info: STRUCTURE SUMMARY:
Info: 2939 ATOMS
Info: 2938 BONDS
Info: 30 ANGLES
Info: 36 DIHEDRALS
Info: 0 IMPROPERS
Info: 0 CROSSTERMS
Info: 3004 EXCLUSIONS
Info: 2934 RIGID BONDS
Info: ALCH: 0 ATOMS TO DISAPPEAR IN FINAL STATE
Info: ALCH: 17 ATOMS TO APPEAR IN FINAL STATE
Info: 5883 DEGREES OF FREEDOM
Info: 979 HYDROGEN GROUPS
Info: 4 ATOMS IN LARGEST HYDROGEN GROUP
Info: 979 MIGRATION GROUPS
Info: 4 ATOMS IN LARGEST MIGRATION GROUP
Info: TOTAL MASS = 17619.7 amu
Info: TOTAL CHARGE = 0.000400018 e
Info: MASS DENSITY = 0.952593 g/cm^3
Info: ATOM DENSITY = 0.095686 atoms/A^3
Info: ADDED 0 IMPLICIT EXCLUSIONS
Info: NONBONDED TABLE R-SQUARED SPACING: 0.0625
Info: NONBONDED TABLE SIZE: 705 POINTS
Info: REMOVING COM VELOCITY 0.0900783 0.0283898 -0.0921027
Info: Use 3D box decompostion in PME FFT.
Info: Updated CUDA force table with 4096 elements.
Info: Updated CUDA LJ table with 4 x 4 elements.
Info: Found 20 unique exclusion lists needing 48 bytes
TCL: Running for 1500000 steps
ETITLE: TS BOND ANGLE DIHED IMPRP ELECT VDW BOUNDARY MISC KINETIC TOTAL TEMP POTENTIAL TOTALAVG TEMPAVG PRESSURE GPRESSURE VOLUME PRESSAVG GPRESSAVG
ENERGY: 0 0.9930 6.9834 1.0314 0.0000 -10614.4733 1447.4519 0.0000 0.0000 1787.8502 -7370.1634 305.8600 -9158.0136 -7370.1634 305.8600 -131.4628 -53.0348 30715.0465 -131.4628 -53.0348
ENERGY: 300000 3.3373 11.0084 1.4368 0.0000 -10689.3729 1510.1550 0.0000 0.0000 1779.2685 -7384.1668 304.3918 -9163.4352 -7455.3727 301.3694 789.8035 860.9715 29787.6643 367.8777 431.8386
ENERGY: 600000 0.1120 6.4772 0.7247 0.0000 -10805.5450 1521.3917 0.0000 0.0000 1770.2408 -7506.5988 302.8474 -9276.8395 -7442.3561 301.3634 560.3957 646.1832 29883.4829 368.5155 437.6557
ENERGY: 900000 2.3107 7.8113 0.3853 0.0000 -10584.1780 1373.1925 0.0000 0.0000 1857.0739 -7343.4043 317.7026 -9200.4783 -7418.4888 303.5380 -654.0501 -613.7057 30266.8538 182.0452 237.4214
ENERGY: 1200000 3.9948 9.9188 0.8560 0.0000 -10680.5367 1490.1766 0.0000 0.0000 1703.0460 -7472.5445 291.3519 -9175.5905 -7428.6411 301.4346 409.0860 518.3178 29778.4334 189.7279 249.3746
ENERGY: 1500000 0.2210 8.5994 0.1128 0.0000 -10606.5843 1386.9613 0.0000 0.0000 1740.8991 -7469.7906 297.8277 -9210.6898 -7429.1705 301.6392 -575.9112 -493.6071 30449.6144 108.5730 170.6848
TCL: Running FEP window   2: Lambda1 0.05   Lambda2 0.1    [dLambda 0.05  ]
TCL: Setting parameter firsttimestep to 0
TCL: Setting parameter alchLambda to 0.05
Info: NONBONDED TABLE R-SQUARED SPACING: 0.0625
Info: NONBONDED TABLE SIZE: 705 POINTS
TCL: Setting parameter alchLambda2 to 0.1
Info: NONBONDED TABLE R-SQUARED SPACING: 0.0625
Info: NONBONDED TABLE SIZE: 705 POINTS
TCL: Running for 1500000 steps
ETITLE: TS BOND ANGLE DIHED IMPRP ELECT VDW BOUNDARY MISC KINETIC TOTAL TEMP POTENTIAL TOTALAVG TEMPAVG PRESSURE GPRESSURE VOLUME PRESSAVG GPRESSAVG
ENERGY: 0 0.2210 8.5994 0.1128 0.0000 -10606.5843 1389.1182 0.0000 0.0000 1739.9944 -7468.5384 297.6730 -9208.5328 -7468.5384 297.6730 -568.0907 -486.7246 30449.6144 -568.0907 -486.7246
ENERGY: 300000 0.5418 8.0499 1.5340 0.0000 -10622.2554 1411.5210 0.0000 0.0000 1766.9253 -7433.6834 302.2802 -9200.6087 -7455.7692 300.2149 -282.1451 -179.3724 30368.2906 -252.3433 -172.5489
ENERGY: 600000 1.9539 9.9632 1.1109 0.0000 -10673.1739 1433.6621 0.0000 0.0000 1723.5795 -7502.9044 294.8647 -9226.4838 -7460.6259 298.5120 -69.7475 -47.2436 30031.4990 -375.5289 -305.8820
ENERGY: 900000 0.6631 9.3454 0.3738 0.0000 -10640.7181 1419.7486 0.0000 0.0000 1730.3156 -7480.2717 296.0171 -9210.5873 -7471.3708 297.2152 -167.8108 -72.5715 30085.2849 -118.9033 -42.0287
ENERGY: 1200000 1.9205 3.9363 0.7276 0.0000 -10576.5803 1424.9900 0.0000 0.0000 1791.9533 -7353.0528 306.5619 -9145.0060 -7466.2962 297.8915 -74.3333 9.2401 30131.3588 -62.4782 1.5757
ENERGY: 1500000 1.0206 9.6302 2.5810 0.0000 -10566.5469 1379.4944 0.0000 0.0000 1764.8684 -7408.9523 301.9283 -9173.8207 -7455.1342 298.3990 -227.3945 -251.3303 30197.3524 -118.3124 -57.9800
TCL: Running FEP window   3: Lambda1 0.1    Lambda2 0.15000000000000002 [dLambda 0.05000000000000002]
TCL: Setting parameter firsttimestep to 0
TCL: Setting parameter alchLambda to 0.1
Info: NONBONDED TABLE R-SQUARED SPACING: 0.0625
Info: NONBONDED TABLE SIZE: 705 POINTS
TCL: Setting parameter alchLambda2 to 0.15000000000000002
Info: NONBONDED TABLE R-SQUARED SPACING: 0.0625
Info: NONBONDED TABLE SIZE: 705 POINTS
TCL: Running for 1500000 steps
ETITLE: TS BOND ANGLE DIHED IMPRP ELECT VDW BOUNDARY MISC KINETIC TOTAL TEMP POTENTIAL TOTALAVG TEMPAVG PRESSURE GPRESSURE VOLUME PRESSAVG GPRESSAVG
ENERGY: 0 1.0206 9.6302 2.5810 0.0000 -10566.5469 1379.7642 0.0000 0.0000 1763.9999 -7409.5511 301.7797 -9173.5510 -7409.5511 301.7797 -326.4559 -247.1655 30197.3524 -326.4559 -247.1655
ENERGY: 300000 1.6907 10.0523 2.1180 0.0000 -10695.2974 1449.8738 0.0000 0.0000 1829.2972 -7402.2655 312.9506 -9231.5626 -7432.9658 302.7311 -41.1413 18.5598 30021.1664 -7.9638 35.2695
ENERGY: 600000 0.2884 8.3368 0.7106 0.0000 -10636.1865 1426.9718 0.0000 0.0000 1703.5323 -7496.3466 291.4351 -9199.8788 -7422.1138 300.5006 97.1645 153.2434 29735.8222 29.2853 84.2048
ENERGY: 900000 1.5135 15.3253 0.9803 0.0000 -10694.2192 1453.5306 0.0000 0.0000 1717.2558 -7505.6137 293.7829 -9222.8695 -7426.6372 300.0247 -18.9955 20.9793 29989.3376 131.5834 189.7191
ENERGY: 1200000 1.0861 7.2634 2.0559 0.0000 -10655.7642 1489.8454 0.0000 0.0000 1825.7411 -7329.7724 312.3422 -9155.5135 -7423.0964 300.9359 471.9120 454.6619 30362.2023 91.5528 138.0928
ENERGY: 1500000 2.5311 7.8011 1.7402 0.0000 -10694.1190 1451.4621 0.0000 0.0000 1761.8011 -7468.7835 301.4036 -9230.5845 -7423.6646 300.6131 101.8926 149.3197 29973.9584 88.5509 129.1781
TCL: Running FEP window   4: Lambda1 0.15000000000000002 Lambda2 0.2    [dLambda 0.04999999999999999]
TCL: Setting parameter firsttimestep to 0
TCL: Setting parameter alchLambda to 0.15000000000000002
Info: NONBONDED TABLE R-SQUARED SPACING: 0.0625
Info: NONBONDED TABLE SIZE: 705 POINTS
TCL: Setting parameter alchLambda2 to 0.2
Info: NONBONDED TABLE R-SQUARED SPACING: 0.0625
Info: NONBONDED TABLE SIZE: 705 POINTS
TCL: Running for 1500000 steps
ETITLE: TS BOND ANGLE DIHED IMPRP ELECT VDW BOUNDARY MISC KINETIC TOTAL TEMP POTENTIAL TOTALAVG TEMPAVG PRESSURE GPRESSURE VOLUME PRESSAVG GPRESSAVG
ENERGY: 0 2.5311 7.8011 1.7402 0.0000 -10694.1193 1453.7710 0.0000 0.0000 1760.9004 -7467.3755 301.2495 -9228.2759 -7467.3755 301.2495 71.8415 157.5721 29973.9584 71.8415 157.5721
ENERGY: 300000 3.7106 8.2596 0.8517 0.0000 -10677.0016 1474.3517 0.0000 0.0000 1745.8227 -7444.0053 298.6700 -9189.8280 -7440.6679 296.0298 374.3050 487.7508 30170.3196 267.2028 349.2793
ENERGY: 600000 0.9300 7.0050 0.3800 0.0000 -10739.5540 1404.3011 0.0000 0.0000 1711.9576 -7614.9802 292.8765 -9326.9379 -7456.9412 297.3508 -597.7924 -486.0346 29788.0416 25.5563 98.8017
ENERGY: 900000 2.5123 9.3634 0.6708 0.0000 -10753.3106 1532.1161 0.0000 0.0000 1717.5001 -7491.1479 293.8247 -9208.6480 -7452.2962 297.5244 889.7248 963.5648 29688.3301 91.8536 163.1674
ENERGY: 1200000 2.6322 5.7727 0.2607 0.0000 -10574.5966 1381.5502 0.0000 0.0000 1780.2588 -7404.1218 304.5613 -9184.3806 -7452.2115 298.9125 -461.0349 -317.4461 29956.8128 -2.0464 63.8077
ENERGY: 1500000 0.1984 8.4934 0.3013 0.0000 -10683.7174 1425.3247 0.0000 0.0000 1767.2595 -7482.1401 302.3374 -9249.3996 -7451.2713 299.3517 124.0219 165.6537 29647.7045 27.7631 87.5562
TCL: Running FEP window   5: Lambda1 0.2    Lambda2 0.25   [dLambda 0.04999999999999999]
TCL: Setting parameter firsttimestep to 0
TCL: Setting parameter alchLambda to 0.2
Info: NONBONDED TABLE R-SQUARED SPACING: 0.0625
Info: NONBONDED TABLE SIZE: 705 POINTS
TCL: Setting parameter alchLambda2 to 0.25
Info: NONBONDED TABLE R-SQUARED SPACING: 0.0625
Info: NONBONDED TABLE SIZE: 705 POINTS
TCL: Running for 1500000 steps
ETITLE: TS BOND ANGLE DIHED IMPRP ELECT VDW BOUNDARY MISC KINETIC TOTAL TEMP POTENTIAL TOTALAVG TEMPAVG PRESSURE GPRESSURE VOLUME PRESSAVG GPRESSAVG
ENERGY: 0 0.1984 8.4934 0.3013 0.0000 -10683.7188 1426.7205 0.0000 0.0000 1766.3648 -7481.6405 302.1843 -9248.0052 -7481.6405 302.1843 87.7877 174.7654 29647.7045 87.7877 174.7654
ENERGY: 300000 3.2835 9.3826 1.7208 0.0000 -10542.2355 1409.6697 0.0000 0.0000 1714.5780 -7403.6010 293.3248 -9118.1790 -7449.5516 297.2573 -313.4536 -256.6601 30664.0400 19.4600 78.7685
ENERGY: 600000 2.4985 7.8855 0.7177 0.0000 -10623.2869 1430.0993 0.0000 0.0000 1701.1626 -7480.9232 291.0297 -9182.0858 -7437.8482 298.5572 -4.1485 142.3006 30093.1756 45.6661 115.9267
ENERGY: 900000 1.0833 6.9286 0.3685 0.0000 -10738.9057 1501.5245 0.0000 0.0000 1772.3113 -7456.6895 303.2016 -9229.0008 -7452.1292 298.3955 483.8810 483.4987 29988.2618 -88.0463 -29.9666
ENERGY: 1200000 2.5216 9.2489 1.5989 0.0000 -10572.7140 1404.4565 0.0000 0.0000 1801.1013 -7353.7867 308.1269 -9154.8879 -7449.2569 298.9527 -222.3079 -195.4747 30604.7950 -75.3907 -17.8489
ENERGY: 1500000 1.8534 11.3267 1.9995 0.0000 -10647.1363 1432.1207 0.0000 0.0000 1764.2604 -7435.5756 301.8243 -9199.8359 -7445.5764 299.4204 214.6518 275.4618 29623.6531 -114.6732 -51.9652
TCL: Running FEP window   6: Lambda1 0.25   Lambda2 0.3    [dLambda 0.04999999999999999]
TCL: Setting parameter firsttimestep to 0
TCL: Setting parameter alchLambda to 0.25
Info: NONBONDED TABLE R-SQUARED SPACING: 0.0625
Info: NONBONDED TABLE SIZE: 705 POINTS
TCL: Setting parameter alchLambda2 to 0.3
Info: NONBONDED TABLE R-SQUARED SPACING: 0.0625
Info: NONBONDED TABLE SIZE: 705 POINTS
TCL: Running for 1500000 steps
ETITLE: TS BOND ANGLE DIHED IMPRP ELECT VDW BOUNDARY MISC KINETIC TOTAL TEMP POTENTIAL TOTALAVG TEMPAVG PRESSURE GPRESSURE VOLUME PRESSAVG GPRESSAVG
ENERGY: 0 1.8534 11.3267 1.9995 0.0000 -10647.1362 1431.8670 0.0000 0.0000 1763.4399 -7436.6497 301.6839 -9200.0895 -7436.6497 301.6839 199.1863 278.1157 29623.6531 199.1863 278.1157
ENERGY: 300000 2.5696 6.3932 0.5478 0.0000 -10598.8225 1374.7661 0.0000 0.0000 1690.7920 -7523.7536 289.2556 -9214.5456 -7472.7756 296.2357 -521.2570 -408.2034 29638.3463 -356.1008 -287.1392
ENERGY: 600000 0.8564 7.2285 0.5493 0.0000 -10585.6064 1400.5768 0.0000 0.0000 1735.9692 -7440.4262 296.9843 -9176.3954 -7468.3975 297.1338 -297.2102 -200.0313 30362.9119 -290.6559 -211.6619
ENERGY: 900000 1.4106 5.9314 0.7980 0.0000 -10609.4824 1459.4619 0.0000 0.0000 1713.4479 -7428.4326 293.1315 -9141.8805 -7467.3386 296.5174 281.2533 317.9768 30180.6306 -113.4185 -51.5545
ENERGY: 1200000 1.2548 7.6945 1.1051 0.0000 -10780.9607 1513.1362 0.0000 0.0000 1784.5497 -7473.2205 305.2953 -9257.7702 -7466.1594 298.1225 333.8211 407.3860 30041.3289 -21.6665 40.6205
ENERGY: 1500000 1.5162 6.6008 0.3997 0.0000 -10719.6943 1446.0440 0.0000 0.0000 1777.5681 -7487.5655 304.1009 -9265.1335 -7458.8752 298.8327 -62.4905 14.3181 29775.0250 -46.0263 20.5330
TCL: Running FEP window   7: Lambda1 0.3    Lambda2 0.35   [dLambda 0.04999999999999999]
TCL: Setting parameter firsttimestep to 0
TCL: Setting parameter alchLambda to 0.3
Info: NONBONDED TABLE R-SQUARED SPACING: 0.0625
Info: NONBONDED TABLE SIZE: 705 POINTS
TCL: Setting parameter alchLambda2 to 0.35
Info: NONBONDED TABLE R-SQUARED SPACING: 0.0625
Info: NONBONDED TABLE SIZE: 705 POINTS
TCL: Running for 1500000 steps
ETITLE: TS BOND ANGLE DIHED IMPRP ELECT VDW BOUNDARY MISC KINETIC TOTAL TEMP POTENTIAL TOTALAVG TEMPAVG PRESSURE GPRESSURE VOLUME PRESSAVG GPRESSAVG
ENERGY: 0 1.5162 6.6008 0.3997 0.0000 -10719.6953 1446.6231 0.0000 0.0000 1776.6906 -7487.8649 303.9508 -9264.5555 -7487.8649 303.9508 -58.0994 20.7081 29775.0250 -58.0994 20.7081
ENERGY: 300000 1.0102 7.6887 0.8706 0.0000 -10554.9709 1381.5249 0.0000 0.0000 1750.6610 -7413.2154 299.4978 -9163.8765 -7380.5993 305.8163 -9.9395 27.6777 29617.2077 -426.2941 -341.4793
ENERGY: 600000 1.0796 9.5772 1.5528 0.0000 -10578.8953 1407.7359 0.0000 0.0000 1728.9321 -7430.0177 295.7805 -9158.9498 -7409.2728 301.8435 -14.9394 43.3420 29911.1303 -261.2472 -193.3021
ENERGY: 900000 3.0173 4.2631 0.5300 0.0000 -10665.0016 1465.8591 0.0000 0.0000 1768.1196 -7423.2125 302.4845 -9191.3322 -7429.7540 299.7655 354.0564 386.4232 29699.4447 -210.6910 -142.5396
ENERGY: 1200000 0.5948 13.1615 1.0570 0.0000 -10591.2728 1457.0053 0.0000 0.0000 1706.4700 -7412.9841 291.9377 -9119.4541 -7437.4750 298.6240 488.2329 572.1056 29780.8192 -47.7073 20.2468
ENERGY: 1500000 2.0468 6.5149 1.0283 0.0000 -10609.8914 1441.8765 0.0000 0.0000 1769.3142 -7389.1107 302.6889 -9158.4248 -7436.4280 298.8122 -25.0391 -0.3649 30609.4478 -13.2768 53.9362
TCL: Running FEP window   8: Lambda1 0.35   Lambda2 0.39999999999999997 [dLambda 0.04999999999999999]
TCL: Setting parameter firsttimestep to 0
TCL: Setting parameter alchLambda to 0.35
Info: NONBONDED TABLE R-SQUARED SPACING: 0.0625
Info: NONBONDED TABLE SIZE: 705 POINTS
TCL: Setting parameter alchLambda2 to 0.39999999999999997
Info: NONBONDED TABLE R-SQUARED SPACING: 0.0625
Info: NONBONDED TABLE SIZE: 705 POINTS
TCL: Running for 1500000 steps
ETITLE: TS BOND ANGLE DIHED IMPRP ELECT VDW BOUNDARY MISC KINETIC TOTAL TEMP POTENTIAL TOTALAVG TEMPAVG PRESSURE GPRESSURE VOLUME PRESSAVG GPRESSAVG
ENERGY: 0 2.0468 6.5149 1.0283 0.0000 -10609.8908 1441.9641 0.0000 0.0000 1768.4040 -7389.9327 302.5332 -9158.3367 -7389.9327 302.5332 -70.6361 2.7498 30609.4478 -70.6361 2.7498
ENERGY: 300000 0.6018 9.2638 1.4842 0.0000 -10584.2752 1401.6588 0.0000 0.0000 1741.4202 -7429.8463 297.9169 -9171.2665 -7438.8516 303.0195 -309.7624 -265.5359 30280.3065 -51.8855 -8.6377
ENERGY: 600000 0.8754 6.8311 1.9027 0.0000 -10597.6552 1375.2389 0.0000 0.0000 1758.8472 -7453.9598 300.8982 -9212.8071 -7447.0484 301.3981 -514.0269 -408.8452 29927.7548 -153.2035 -101.4047
ENERGY: 900000 2.2361 7.8293 2.2852 0.0000 -10759.3804 1514.8912 0.0000 0.0000 1756.0872 -7476.0513 300.4261 -9232.1386 -7461.6082 300.2208 525.2020 542.8628 30216.0619 -95.0301 -45.0470
ENERGY: 1200000 1.1644 7.2088 0.9206 0.0000 -10546.8707 1391.6014 0.0000 0.0000 1695.9999 -7449.9758 290.1465 -9145.9756 -7469.5333 296.9539 -301.4725 -260.0493 30453.0568 -167.4769 -118.2200
ENERGY: 1500000 0.8321 6.5442 0.3652 0.0000 -10654.4185 1440.5500 0.0000 0.0000 1746.8340 -7459.2929 298.8431 -9206.1270 -7468.2100 298.1723 129.6277 201.3077 29797.0488 -128.2521 -75.8779
TCL: Running FEP window   9: Lambda1 0.39999999999999997 Lambda2 0.44999999999999996 [dLambda 0.04999999999999999]
TCL: Setting parameter firsttimestep to 0
TCL: Setting parameter alchLambda to 0.39999999999999997
Info: NONBONDED TABLE R-SQUARED SPACING: 0.0625
Info: NONBONDED TABLE SIZE: 705 POINTS
TCL: Setting parameter alchLambda2 to 0.44999999999999996
Info: NONBONDED TABLE R-SQUARED SPACING: 0.0625
Info: NONBONDED TABLE SIZE: 705 POINTS
TCL: Running for 1500000 steps
ETITLE: TS BOND ANGLE DIHED IMPRP ELECT VDW BOUNDARY MISC KINETIC TOTAL TEMP POTENTIAL TOTALAVG TEMPAVG PRESSURE GPRESSURE VOLUME PRESSAVG GPRESSAVG
ENERGY: 0 0.8321 6.5442 0.3652 0.0000 -10654.4188 1440.2365 0.0000 0.0000 1745.9318 -7460.5090 298.6887 -9206.4408 -7460.5090 298.6887 121.2271 206.4853 29797.0488 121.2271 206.4853
ENERGY: 300000 2.2330 7.8028 0.8572 0.0000 -10716.1449 1448.1253 0.0000 0.0000 1708.5449 -7548.5817 292.2927 -9257.1265 -7492.5236 298.2555 157.5838 261.6576 29366.0715 -90.3906 -24.1108
ENERGY: 600000 1.0640 6.3428 1.4395 0.0000 -10640.6810 1464.4398 0.0000 0.0000 1779.4256 -7387.9692 304.4187 -9167.3948 -7459.1502 299.1444 351.8106 366.8379 30190.6009 171.8677 225.6548
ENERGY: 900000 0.9670 5.8720 0.3485 0.0000 -10720.3405 1500.0842 0.0000 0.0000 1834.3409 -7378.7278 313.8135 -9213.0687 -7431.2900 303.0478 373.0091 514.5592 30281.4862 246.1930 307.3031
ENERGY: 1200000 2.3146 11.9426 0.3213 0.0000 -10662.5871 1411.8215 0.0000 0.0000 1735.3403 -7500.8468 296.8768 -9236.1871 -7430.7313 302.6473 -395.4461 -312.4815 30139.7366 118.7363 182.3218
ENERGY: 1500000 1.7761 9.0402 0.8552 0.0000 -10546.8501 1374.3350 0.0000 0.0000 1736.4524 -7424.3913 297.0670 -9160.8437 -7429.0569 302.2385 -470.6658 -434.4044 30536.4034 10.0769 66.5482
TCL: Running FEP window  10: Lambda1 0.44999999999999996 Lambda2 0.49999999999999994 [dLambda 0.04999999999999999]
TCL: Setting parameter firsttimestep to 0
TCL: Setting parameter alchLambda to 0.44999999999999996
Info: NONBONDED TABLE R-SQUARED SPACING: 0.0625
Info: NONBONDED TABLE SIZE: 705 POINTS
TCL: Setting parameter alchLambda2 to 0.49999999999999994
Info: NONBONDED TABLE R-SQUARED SPACING: 0.0625
Info: NONBONDED TABLE SIZE: 705 POINTS
TCL: Running for 1500000 steps
ETITLE: TS BOND ANGLE DIHED IMPRP ELECT VDW BOUNDARY MISC KINETIC TOTAL TEMP POTENTIAL TOTALAVG TEMPAVG PRESSURE GPRESSURE VOLUME PRESSAVG GPRESSAVG
ENERGY: 0 1.7761 9.0402 0.8552 0.0000 -10546.8487 1374.2277 0.0000 0.0000 1735.5815 -7425.3681 296.9180 -9160.9495 -7425.3681 296.9180 -511.3219 -432.5900 30536.4034 -511.3219 -432.5900
ENERGY: 300000 0.6413 7.6861 0.3074 0.0000 -10735.6328 1561.1449 0.0000 0.0000 1704.4233 -7461.4299 291.5876 -9165.8532 -7464.7785 294.9634 1076.6407 1129.2833 30200.2818 90.1240 155.1451
ENERGY: 600000 0.6689 8.0145 1.0995 0.0000 -10785.7943 1500.3922 0.0000 0.0000 1787.9926 -7487.6266 305.8843 -9275.6192 -7450.1357 298.3169 535.0826 565.8465 29758.1916 60.7627 119.9957
ENERGY: 900000 1.6650 9.5420 0.8473 0.0000 -10639.5454 1421.7274 0.0000 0.0000 1719.0893 -7486.6744 294.0966 -9205.7637 -7441.6254 298.1649 -143.0422 -116.4911 30520.9010 -11.5905 42.7202
ENERGY: 1200000 1.9290 12.4516 1.0430 0.0000 -10732.7308 1516.0806 0.0000 0.0000 1767.6689 -7433.5577 302.4074 -9201.2267 -7440.4313 298.6549 722.1930 775.0996 29855.3289 45.4082 98.3613
ENERGY: 1500000 0.2232 5.1836 0.3668 0.0000 -10575.7099 1365.2557 0.0000 0.0000 1735.5514 -7469.1292 296.9129 -9204.6805 -7451.6022 297.7404 -809.8171 -686.8104 30520.8703 8.3892 67.1920
TCL: Running FEP window  11: Lambda1 0.49999999999999994 Lambda2 0.5499999999999999 [dLambda 0.04999999999999999]
TCL: Setting parameter firsttimestep to 0
TCL: Setting parameter alchLambda to 0.49999999999999994
Info: NONBONDED TABLE R-SQUARED SPACING: 0.0625
Info: NONBONDED TABLE SIZE: 705 POINTS
TCL: Setting parameter alchLambda2 to 0.5499999999999999
Info: NONBONDED TABLE R-SQUARED SPACING: 0.0625
Info: NONBONDED TABLE SIZE: 705 POINTS
TCL: Running for 1500000 steps
ETITLE: TS BOND ANGLE DIHED IMPRP ELECT VDW BOUNDARY MISC KINETIC TOTAL TEMP POTENTIAL TOTALAVG TEMPAVG PRESSURE GPRESSURE VOLUME PRESSAVG GPRESSAVG
ENERGY: 0 0.2232 5.1836 0.3668 0.0000 -10575.7093 1365.3108 0.0000 0.0000 1734.7380 -7469.8868 296.7737 -9204.6248 -7469.8868 296.7737 -760.1507 -679.1406 30520.8703 -760.1507 -679.1406
ENERGY: 300000 0.6786 5.4527 1.0648 0.0000 -10613.9833 1421.6574 0.0000 0.0000 1769.3120 -7415.8178 302.6885 -9185.1298 -7445.8904 301.0848 -36.4918 54.2211 30044.1742 -360.0266 -282.3479
ENERGY: 600000 2.1254 9.9362 0.3046 0.0000 -10606.2500 1392.7966 0.0000 0.0000 1748.0446 -7453.0425 299.0502 -9201.0871 -7440.1542 300.0018 -431.4544 -331.2332 30159.1456 -132.2456 -64.2755
ENERGY: 900000 0.9099 4.8266 1.4470 0.0000 -10665.7175 1425.8260 0.0000 0.0000 1817.3545 -7415.3534 310.9075 -9232.7080 -7444.4498 301.0948 20.0658 130.5854 30033.0878 -103.8505 -33.9336
ENERGY: 1200000 0.7999 7.8974 1.2181 0.0000 -10677.8915 1463.4645 0.0000 0.0000 1788.1971 -7416.3145 305.9193 -9204.5117 -7446.3421 301.3897 185.3991 253.8081 30110.4396 -47.1825 18.5815
ENERGY: 1500000 0.8251 5.5224 1.0540 0.0000 -10544.0634 1349.6647 0.0000 0.0000 1824.2445 -7362.7527 312.0862 -9186.9972 -7443.4491 301.1895 -640.8412 -630.4875 30448.0933 -142.8054 -80.5849
TCL: Running FEP window  12: Lambda1 0.5499999999999999 Lambda2 0.6    [dLambda 0.050000000000000044]
TCL: Setting parameter firsttimestep to 0
TCL: Setting parameter alchLambda to 0.5499999999999999
Info: NONBONDED TABLE R-SQUARED SPACING: 0.0625
Info: NONBONDED TABLE SIZE: 705 POINTS
TCL: Setting parameter alchLambda2 to 0.6
Info: NONBONDED TABLE R-SQUARED SPACING: 0.0625
Info: NONBONDED TABLE SIZE: 705 POINTS
TCL: Running for 1500000 steps
ETITLE: TS BOND ANGLE DIHED IMPRP ELECT VDW BOUNDARY MISC KINETIC TOTAL TEMP POTENTIAL TOTALAVG TEMPAVG PRESSURE GPRESSURE VOLUME PRESSAVG GPRESSAVG
ENERGY: 0 0.8251 5.5224 1.0540 0.0000 -10543.9737 1349.7651 0.0000 0.0000 1823.3096 -7363.4975 311.9263 -9186.8071 -7363.4975 311.9263 -706.5130 -624.4097 30448.0933 -706.5130 -624.4097
ENERGY: 300000 1.4820 7.7673 1.6040 0.0000 -10404.9031 1320.9051 0.0000 0.0000 1708.4518 -7364.6929 292.2768 -9073.1447 -7424.8631 298.4666 -735.1791 -659.0526 30829.3500 -494.1364 -416.2846
ENERGY: 600000 0.4185 9.5184 1.3293 0.0000 -10619.8326 1456.3123 0.0000 0.0000 1747.8780 -7404.3761 299.0217 -9152.2541 -7428.6171 298.9287 44.3141 166.9073 30507.6917 -182.7056 -109.8455
ENERGY: 900000 1.5689 11.1366 1.3240 0.0000 -10622.5148 1408.4183 0.0000 0.0000 1789.5779 -7410.4891 306.1555 -9200.0669 -7434.7788 299.5482 -198.4256 -165.3580 29922.8173 -205.2578 -144.4847
ENERGY: 1200000 1.8505 6.8445 2.6396 0.0000 -10629.8609 1440.7028 0.0000 0.0000 1742.0465 -7435.7770 298.0240 -9177.8236 -7428.7490 300.4152 296.2570 364.8906 30066.3286 -141.5354 -74.7588
ENERGY: 1500000 0.3679 10.6130 1.1756 0.0000 -10612.6146 1397.8288 0.0000 0.0000 1731.3726 -7471.2567 296.1980 -9202.6293 -7424.3462 300.8340 -179.1085 -204.3853 29994.8485 -102.4275 -39.8006
TCL: Running FEP window  13: Lambda1 0.6    Lambda2 0.65   [dLambda 0.050000000000000044]
TCL: Setting parameter firsttimestep to 0
TCL: Setting parameter alchLambda to 0.6
Info: NONBONDED TABLE R-SQUARED SPACING: 0.0625
Info: NONBONDED TABLE SIZE: 705 POINTS
TCL: Setting parameter alchLambda2 to 0.65
Info: NONBONDED TABLE R-SQUARED SPACING: 0.0625
Info: NONBONDED TABLE SIZE: 705 POINTS
TCL: Running for 1500000 steps
ETITLE: TS BOND ANGLE DIHED IMPRP ELECT VDW BOUNDARY MISC KINETIC TOTAL TEMP POTENTIAL TOTALAVG TEMPAVG PRESSURE GPRESSURE VOLUME PRESSAVG GPRESSAVG
ENERGY: 0 0.3679 10.6130 1.1756 0.0000 -10612.5874 1398.0967 0.0000 0.0000 1730.4247 -7471.9095 296.0358 -9202.3342 -7471.9095 296.0358 -263.4089 -194.4042 29994.8485 -263.4089 -194.4042
ENERGY: 300000 0.2482 8.8019 1.2998 0.0000 -10512.3528 1301.2302 0.0000 0.0000 1773.2867 -7427.4859 303.3685 -9200.7726 -7455.7494 299.2167 -1031.4099 -928.4411 30360.2486 -263.0379 -201.1019
ENERGY: 600000 1.1083 7.2223 0.6347 0.0000 -10526.5065 1374.9888 0.0000 0.0000 1755.0686 -7387.4838 300.2518 -9142.5524 -7433.2297 300.2125 -251.6227 -176.6738 30653.1859 -260.3320 -198.0319
ENERGY: 900000 2.9656 10.2512 1.2374 0.0000 -10576.8156 1411.4601 0.0000 0.0000 1777.0898 -7373.8116 304.0191 -9150.9013 -7430.6074 301.2483 -204.0707 -164.8450 30261.0111 -203.2502 -147.5339
ENERGY: 1200000 0.2525 6.7877 1.6591 0.0000 -10546.2339 1342.7327 0.0000 0.0000 1713.1691 -7481.6328 293.0838 -9194.8019 -7440.3458 300.2082 -530.1867 -482.2059 30109.4487 -200.4033 -147.6270
ENERGY: 1500000 0.7800 6.8751 0.5509 0.0000 -10482.9270 1356.4600 0.0000 0.0000 1757.1166 -7361.1444 300.6022 -9118.2610 -7433.6082 300.3081 -531.4340 -457.0888 30555.2933 -205.3811 -156.1108
TCL: Running FEP window  14: Lambda1 0.65   Lambda2 0.7000000000000001 [dLambda 0.050000000000000044]
TCL: Setting parameter firsttimestep to 0
TCL: Setting parameter alchLambda to 0.65
Info: NONBONDED TABLE R-SQUARED SPACING: 0.0625
Info: NONBONDED TABLE SIZE: 705 POINTS
TCL: Setting parameter alchLambda2 to 0.7000000000000001
Info: NONBONDED TABLE R-SQUARED SPACING: 0.0625
Info: NONBONDED TABLE SIZE: 705 POINTS
TCL: Running for 1500000 steps
ETITLE: TS BOND ANGLE DIHED IMPRP ELECT VDW BOUNDARY MISC KINETIC TOTAL TEMP POTENTIAL TOTALAVG TEMPAVG PRESSURE GPRESSURE VOLUME PRESSAVG GPRESSAVG
ENERGY: 0 0.7800 6.8751 0.5509 0.0000 -10482.9634 1356.9590 0.0000 0.0000 1756.2416 -7361.5567 300.4525 -9117.7983 -7361.5567 300.4525 -554.5849 -448.1795 30555.2933 -554.5849 -448.1795
ENERGY: 300000 0.2030 6.9967 1.1338 0.0000 -10663.6155 1438.7228 0.0000 0.0000 1722.0273 -7494.5319 294.5992 -9216.5592 -7405.0057 300.5122 -287.6347 -273.1262 30685.7360 -447.1163 -392.9610
ENERGY: 600000 1.3268 9.6046 1.4426 0.0000 -10718.5085 1441.8697 0.0000 0.0000 1740.0813 -7524.1835 297.6878 -9264.2648 -7414.2090 301.0998 -90.7745 -30.2742 30125.0932 -188.0085 -132.8826
ENERGY: 900000 2.8889 5.9745 1.0124 0.0000 -10685.5208 1471.7678 0.0000 0.0000 1792.9240 -7410.9532 306.7280 -9203.8772 -7432.1045 301.8829 426.7678 507.2695 29760.6218 -103.7517 -48.3160
ENERGY: 1200000 1.5383 6.6760 0.3720 0.0000 -10657.1940 1478.3544 0.0000 0.0000 1727.1987 -7443.0546 295.4839 -9170.2533 -7433.4117 301.5874 334.1699 357.3005 30394.2284 -64.6883 -4.7216
ENERGY: 1500000 1.8007 6.8480 1.7040 0.0000 -10576.3028 1360.8708 0.0000 0.0000 1747.0548 -7458.0244 298.8808 -9205.0792 -7433.5466 301.6411 -652.0328 -608.0321 30285.3036 -195.5796 -134.1426
TCL: Running FEP window  15: Lambda1 0.7000000000000001 Lambda2 0.7500000000000001 [dLambda 0.050000000000000044]
TCL: Setting parameter firsttimestep to 0
TCL: Setting parameter alchLambda to 0.7000000000000001
Info: NONBONDED TABLE R-SQUARED SPACING: 0.0625
Info: NONBONDED TABLE SIZE: 705 POINTS
TCL: Setting parameter alchLambda2 to 0.7500000000000001
Info: NONBONDED TABLE R-SQUARED SPACING: 0.0625
Info: NONBONDED TABLE SIZE: 705 POINTS
TCL: Running for 1500000 steps
ETITLE: TS BOND ANGLE DIHED IMPRP ELECT VDW BOUNDARY MISC KINETIC TOTAL TEMP POTENTIAL TOTALAVG TEMPAVG PRESSURE GPRESSURE VOLUME PRESSAVG GPRESSAVG
ENERGY: 0 1.8007 6.8480 1.7040 0.0000 -10576.2909 1360.8524 0.0000 0.0000 1746.1928 -7458.8930 298.7334 -9205.0858 -7458.8930 298.7334 -686.7145 -601.3633 30285.3036 -686.7145 -601.3633
ENERGY: 300000 2.0018 7.2116 0.5659 0.0000 -10482.4982 1318.3264 0.0000 0.0000 1784.6216 -7369.7709 305.3076 -9154.3925 -7410.2238 304.6158 -971.7567 -866.5840 30744.1874 -208.1721 -105.6129
ENERGY: 600000 0.6666 5.2925 1.7619 0.0000 -10729.9502 1487.6310 0.0000 0.0000 1765.7769 -7468.8214 302.0838 -9234.5983 -7425.7137 304.2540 636.6237 685.2972 29658.9636 15.7245 86.4180
ENERGY: 900000 0.6601 6.8575 0.6325 0.0000 -10667.7593 1424.6934 0.0000 0.0000 1716.4798 -7518.4359 293.6501 -9234.9157 -7450.4631 301.6509 151.0882 157.1084 29823.7649 -11.7347 50.1471
ENERGY: 1200000 3.4486 6.9910 1.3245 0.0000 -10755.4097 1476.5296 0.0000 0.0000 1785.8891 -7481.2268 305.5245 -9267.1160 -7454.4763 301.0308 -8.8055 65.5129 30408.6744 11.7993 71.8864
ENERGY: 1500000 0.3557 4.0458 0.8401 0.0000 -10658.7213 1423.3845 0.0000 0.0000 1796.7048 -7433.3904 307.3748 -9230.0952 -7443.1153 302.5265 81.5598 233.2881 29649.1802 14.3377 81.0333
TCL: Running FEP window  16: Lambda1 0.7500000000000001 Lambda2 0.8000000000000002 [dLambda 0.050000000000000044]
TCL: Setting parameter firsttimestep to 0
TCL: Setting parameter alchLambda to 0.7500000000000001
Info: NONBONDED TABLE R-SQUARED SPACING: 0.0625
Info: NONBONDED TABLE SIZE: 705 POINTS
TCL: Setting parameter alchLambda2 to 0.8000000000000002
Info: NONBONDED TABLE R-SQUARED SPACING: 0.0625
Info: NONBONDED TABLE SIZE: 705 POINTS
TCL: Running for 1500000 steps
ETITLE: TS BOND ANGLE DIHED IMPRP ELECT VDW BOUNDARY MISC KINETIC TOTAL TEMP POTENTIAL TOTALAVG TEMPAVG PRESSURE GPRESSURE VOLUME PRESSAVG GPRESSAVG
ENERGY: 0 0.3557 4.0458 0.8401 0.0000 -10658.6936 1423.1154 0.0000 0.0000 1795.8172 -7434.5195 307.2230 -9230.3367 -7434.5195 307.2230 146.8547 237.7278 29649.1802 146.8547 237.7278
ENERGY: 300000 0.5960 6.9816 0.7794 0.0000 -10662.1540 1426.4922 0.0000 0.0000 1708.4588 -7518.8459 292.2780 -9227.3047 -7467.3426 300.8917 -153.4461 -32.2017 30070.3845 272.5401 357.9546
ENERGY: 600000 1.0559 7.2193 0.3985 0.0000 -10680.6072 1428.5988 0.0000 0.0000 1683.8588 -7559.4759 288.0695 -9243.3347 -7494.3936 300.0071 -82.7167 -68.4382 30102.8529 124.7800 179.2792
ENERGY: 900000 1.2088 7.4199 2.2605 0.0000 -10730.2670 1514.3783 0.0000 0.0000 1738.0134 -7466.9862 297.3341 -9204.9996 -7490.4433 300.4351 598.6730 686.3917 29998.0243 90.8518 157.4278
ENERGY: 1200000 3.2697 3.3628 2.5029 0.0000 -10604.9041 1410.9550 0.0000 0.0000 1750.6693 -7434.1445 299.4992 -9184.8138 -7479.7297 300.8609 -80.8740 -16.7517 30103.7964 122.7627 189.4430
ENERGY: 1500000 2.8258 7.9438 0.6277 0.0000 -10505.5895 1312.7765 0.0000 0.0000 1771.9275 -7409.4882 303.1360 -9181.4157 -7470.5313 300.2979 -841.2441 -792.6771 30054.4744 74.8478 142.2665
TCL: Running FEP window  17: Lambda1 0.8000000000000002 Lambda2 0.8500000000000002 [dLambda 0.050000000000000044]
TCL: Setting parameter firsttimestep to 0
TCL: Setting parameter alchLambda to 0.8000000000000002
Info: NONBONDED TABLE R-SQUARED SPACING: 0.0625
Info: NONBONDED TABLE SIZE: 705 POINTS
TCL: Setting parameter alchLambda2 to 0.8500000000000002
Info: NONBONDED TABLE R-SQUARED SPACING: 0.0625
Info: NONBONDED TABLE SIZE: 705 POINTS
TCL: Running for 1500000 steps
ETITLE: TS BOND ANGLE DIHED IMPRP ELECT VDW BOUNDARY MISC KINETIC TOTAL TEMP POTENTIAL TOTALAVG TEMPAVG PRESSURE GPRESSURE VOLUME PRESSAVG GPRESSAVG
ENERGY: 0 2.8258 7.9438 0.6277 0.0000 -10505.5824 1312.7055 0.0000 0.0000 1771.0607 -7410.4189 302.9877 -9181.4796 -7410.4189 302.9877 -857.8000 -783.6806 30054.4744 -857.8000 -783.6806
ENERGY: 300000 1.0498 8.3733 0.7977 0.0000 -10657.7314 1416.7261 0.0000 0.0000 1798.0196 -7432.7649 307.5997 -9230.7845 -7442.5458 303.1156 -118.2706 -67.9272 30283.6829 -474.1129 -405.3762
ENERGY: 600000 0.4481 7.6130 0.3552 0.0000 -10565.3450 1412.5793 0.0000 0.0000 1760.9509 -7383.3984 301.2581 -9144.3493 -7421.8342 303.3842 128.4047 238.3037 30144.7062 -41.7726 29.3836
ENERGY: 900000 1.0525 8.6985 0.9850 0.0000 -10626.7076 1441.6409 0.0000 0.0000 1758.9295 -7415.4012 300.9123 -9174.3306 -7431.6864 302.0090 202.5109 260.7685 30168.7335 -14.0892 54.7925
ENERGY: 1200000 0.9196 7.2496 1.0751 0.0000 -10605.9486 1380.7776 0.0000 0.0000 1654.6134 -7561.3133 283.0662 -9215.9267 -7447.9392 299.5036 -576.1104 -455.7135 30163.1463 -40.7874 40.1311
ENERGY: 1500000 0.4884 9.8110 0.7785 0.0000 -10714.1811 1476.6199 0.0000 0.0000 1709.4180 -7517.0652 292.4421 -9226.4832 -7452.4447 299.5250 440.7536 529.3298 29859.4660 -40.0216 35.9325
TCL: Running FEP window  18: Lambda1 0.8500000000000002 Lambda2 0.9000000000000002 [dLambda 0.050000000000000044]
TCL: Setting parameter firsttimestep to 0
TCL: Setting parameter alchLambda to 0.8500000000000002
Info: NONBONDED TABLE R-SQUARED SPACING: 0.0625
Info: NONBONDED TABLE SIZE: 705 POINTS
TCL: Setting parameter alchLambda2 to 0.9000000000000002
Info: NONBONDED TABLE R-SQUARED SPACING: 0.0625
Info: NONBONDED TABLE SIZE: 705 POINTS
TCL: Running for 1500000 steps
ETITLE: TS BOND ANGLE DIHED IMPRP ELECT VDW BOUNDARY MISC KINETIC TOTAL TEMP POTENTIAL TOTALAVG TEMPAVG PRESSURE GPRESSURE VOLUME PRESSAVG GPRESSAVG
ENERGY: 0 0.4884 9.8110 0.7785 0.0000 -10714.1640 1476.6908 0.0000 0.0000 1708.5429 -7517.8524 292.2923 -9226.3953 -7517.8524 292.2923 458.4706 542.5041 29859.4660 458.4706 542.5041
ENERGY: 300000 0.4312 9.0591 0.5692 0.0000 -10764.2232 1442.3655 0.0000 0.0000 1730.0760 -7581.7223 295.9761 -9311.7983 -7466.9520 299.2111 -297.8846 -212.0533 30049.4695 335.5353 418.9695
ENERGY: 600000 0.8575 11.4581 1.2571 0.0000 -10921.0224 1563.3200 0.0000 0.0000 1746.4722 -7597.6576 298.7812 -9344.1297 -7466.5665 300.0452 489.0554 571.1949 30207.1339 241.2710 314.4230
ENERGY: 900000 1.1103 6.5619 0.2494 0.0000 -10573.5547 1389.2674 0.0000 0.0000 1764.7359 -7411.6298 301.9057 -9176.3657 -7466.4176 299.0595 -348.5369 -318.5199 30388.4848 164.9551 233.5272
ENERGY: 1200000 0.6685 11.6724 1.0769 0.0000 -10566.2840 1355.9106 0.0000 0.0000 1708.5861 -7488.3696 292.2997 -9196.9556 -7465.2657 299.1416 -629.6203 -608.3637 30609.1924 110.4494 181.0258
ENERGY: 1500000 0.2547 7.1498 0.5754 0.0000 -10484.6191 1368.7064 0.0000 0.0000 1767.9931 -7339.9398 302.4629 -9107.9329 -7446.1997 300.2428 -304.8875 -221.0743 30650.7055 27.0640 96.9962
TCL: Running FEP window  19: Lambda1 0.9000000000000002 Lambda2 0.9500000000000003 [dLambda 0.050000000000000044]
TCL: Setting parameter firsttimestep to 0
TCL: Setting parameter alchLambda to 0.9000000000000002
Info: NONBONDED TABLE R-SQUARED SPACING: 0.0625
Info: NONBONDED TABLE SIZE: 705 POINTS
TCL: Setting parameter alchLambda2 to 0.9500000000000003
Info: NONBONDED TABLE R-SQUARED SPACING: 0.0625
Info: NONBONDED TABLE SIZE: 705 POINTS
TCL: Running for 1500000 steps
ETITLE: TS BOND ANGLE DIHED IMPRP ELECT VDW BOUNDARY MISC KINETIC TOTAL TEMP POTENTIAL TOTALAVG TEMPAVG PRESSURE GPRESSURE VOLUME PRESSAVG GPRESSAVG
ENERGY: 0 0.2547 7.1498 0.5754 0.0000 -10484.6096 1368.4253 0.0000 0.0000 1767.1166 -7341.0878 302.3130 -9108.2044 -7341.0878 302.3130 -290.0030 -216.4006 30650.7055 -290.0030 -216.4006
ENERGY: 300000 0.1614 10.0404 0.4270 0.0000 -10832.8088 1546.7929 0.0000 0.0000 1776.7844 -7498.6027 303.9669 -9275.3871 -7413.3299 303.5083 973.1521 1073.6192 29777.2571 90.1792 176.6458
ENERGY: 600000 1.7940 6.4213 2.2872 0.0000 -10502.6791 1358.8422 0.0000 0.0000 1734.7200 -7398.6143 296.7706 -9133.3343 -7443.9292 298.5778 -545.1712 -479.6084 30519.1746 23.4903 105.3504
ENERGY: 900000 0.3950 8.7878 0.3716 0.0000 -10672.2279 1378.8485 0.0000 0.0000 1751.6048 -7532.2202 299.6592 -9283.8250 -7458.1359 298.2506 -434.2778 -316.0510 29802.6125 39.9660 118.2107
ENERGY: 1200000 3.5917 4.3492 0.5394 0.0000 -10723.3012 1487.4038 0.0000 0.0000 1747.5757 -7479.8414 298.9699 -9227.4171 -7444.6371 299.6548 338.8229 399.8310 30022.5328 33.7044 112.1118
ENERGY: 1500000 1.6742 6.7091 0.7082 0.0000 -10651.5590 1422.7663 0.0000 0.0000 1733.0282 -7486.6729 296.4812 -9219.7012 -7448.5236 299.2042 71.7941 195.2284 29880.1437 13.3221 94.8879
TCL: Running FEP window  20: Lambda1 0.9500000000000003 Lambda2 1.0    [dLambda 0.04999999999999971]
TCL: Setting parameter firsttimestep to 0
TCL: Setting parameter alchLambda to 0.9500000000000003
Info: NONBONDED TABLE R-SQUARED SPACING: 0.0625
Info: NONBONDED TABLE SIZE: 705 POINTS
TCL: Setting parameter alchLambda2 to 1.0
Info: NONBONDED TABLE R-SQUARED SPACING: 0.0625
Info: NONBONDED TABLE SIZE: 705 POINTS
TCL: Running for 1500000 steps
ETITLE: TS BOND ANGLE DIHED IMPRP ELECT VDW BOUNDARY MISC KINETIC TOTAL TEMP POTENTIAL TOTALAVG TEMPAVG PRESSURE GPRESSURE VOLUME PRESSAVG GPRESSAVG
ENERGY: 0 1.6742 6.7091 0.7082 0.0000 -10651.5773 1423.6323 0.0000 0.0000 1732.1190 -7486.7344 296.3257 -9218.8535 -7486.7344 296.3257 143.4657 222.6504 29880.1437 143.4657 222.6504
ENERGY: 300000 1.7117 8.7809 0.2884 0.0000 -10524.0459 1355.9337 0.0000 0.0000 1743.6675 -7413.6636 298.3013 -9157.3311 -7450.9190 298.7498 -867.3854 -725.5675 30693.6566 35.9743 124.9607
ENERGY: 600000 3.0113 7.9986 0.3772 0.0000 -10562.9281 1420.6126 0.0000 0.0000 1720.0296 -7410.8987 294.2575 -9130.9283 -7444.6608 298.7231 320.7078 348.0956 30104.8664 -7.1356 59.5693
ENERGY: 900000 1.2702 7.0744 1.8265 0.0000 -10656.4309 1434.5632 0.0000 0.0000 1702.4245 -7509.2721 291.2456 -9211.6966 -7450.7178 298.2526 -240.1620 -157.2044 30634.8429 -77.8807 -19.2430
ENERGY: 1200000 2.5402 7.8693 1.3883 0.0000 -10612.4076 1474.4162 0.0000 0.0000 1755.8359 -7370.3576 300.3831 -9126.1936 -7458.2980 297.5405 519.4854 589.0511 30323.8289 -33.9959 22.8703
ENERGY: 1500000 0.6649 7.4518 0.2079 0.0000 -10535.1325 1346.9693 0.0000 0.0000 1749.6480 -7430.1906 299.3245 -9179.8386 -7453.5999 297.8300 -397.2073 -293.1895 29801.8485 -80.6967 -18.9047
TCL: Exiting due to exit command.
