Info: SIMULATION PARAMETERS:
Info: TIMESTEP               2
Info: NUMBER OF STEPS        0
Info: STEPS PER CYCLE        10
Info: PERIODIC CELL BASIS 1  31.6717 0 0
Info: PERIODIC CELL BASIS 2  0 30.1367 0
Info: PERIODIC CELL BASIS 3  0 0 31.8423
Info: PERIODIC CELL CENTER   0 0 0
Info: WRAPPING WATERS AROUND PERIODIC BOUNDARIES ON OUTPUT.
Info: WRAPPING ALL CLUSTERS AROUND PERIODIC BOUNDARIES ON OUTPUT.
Info: FIRST LDB TIMESTEP     50
Info: LAST LDB TIMESTEP     -1
Info: HOM BACKGROUND SCALING 1
Info: PME BACKGROUND SCALING 1
Info: MIN ATOMS PER PATCH    40
Info: EMPTY PATCH LOAD       40 ATOMS
Info: VELOCITY FILE          mobley_5494918_equil.vel
Info: CENTER OF MASS MOVING INITIALLY? NO
Info: DIELECTRIC             1
Info: EXCLUDE                SCALED ONE-FOUR
Info: 1-4 ELECTROSTATICS SCALED BY 0.833333
Info: MODIFIED 1-4 VDW PARAMETERS WILL BE USED
Info: DCD FILENAME           mobley_5494918_prod.dcd
Info: DCD FREQUENCY          100000
Info: DCD FIRST STEP         100000
Info: DCD FILE WILL CONTAIN UNIT CELL DATA
Info: XST FILENAME           mobley_5494918_prod.xst
Info: XST FREQUENCY          100000
Info: NO VELOCITY DCD OUTPUT
Info: NO FORCE DCD OUTPUT
Info: OUTPUT FILENAME        mobley_5494918_prod
Info: BINARY OUTPUT FILES WILL BE USED
Info: RESTART FILENAME       mobley_5494918_prod.restart
Info: RESTART FREQUENCY      100000
Info: BINARY RESTART FILES WILL BE USED
Info: CUTOFF                 9
Info: PAIRLIST DISTANCE      11
Info: PAIRLIST SHRINK RATE   0.01
Info: PAIRLIST GROW RATE     0.01
Info: PAIRLIST TRIGGER       0.3
Info: PAIRLISTS PER CYCLE    2
Info: PAIRLISTS ENABLED
Info: MARGIN                 2
Info: HYDROGEN GROUP CUTOFF  2.5
Info: PATCH DIMENSION        15.5
Info: ENERGY OUTPUT STEPS    100000
Info: ENERGY EVALUATION STEPS    100000
Info: OUTPUT ENERGY PRECISION 4
Info: CROSSTERM ENERGY INCLUDED IN DIHEDRAL
Info: TIMING OUTPUT STEPS    1000000
Info: PRESSURE OUTPUT STEPS  100000
Info: ALCHEMICAL FEP ON
Info: FEP CURRENT LAMBDA VALUE     0
Info: FEP COMPARISON LAMBDA VALUE  0.05
Info: FEP INTRA-ALCHEMICAL NON-BONDED INTERACTIONS WILL BE RETAINED
Info: FEP INTRA-ALCHEMICAL BONDED INTERACTIONS WILL BE RETAINED
Info: FEP VDW SHIFTING COEFFICIENT 5
Info: FEP ELEC. ACTIVE FOR ANNIHILATED PARTICLES BETWEEN LAMBDA = 0 AND LAMBDA = 0.5
Info: FEP ELEC. ACTIVE FOR EXNIHILATED PARTICLES BETWEEN LAMBDA = 0.5 AND LAMBDA = 1
Info: FEP VDW ACTIVE FOR ANNIHILATED PARTICLES BETWEEN LAMBDA = 0 AND LAMBDA = 1
Info: FEP VDW ACTIVE FOR EXNIHILATED PARTICLES BETWEEN LAMBDA = 0 AND LAMBDA = 1
Info: FEP BOND ACTIVE FOR ANNIHILATED PARTICLES BETWEEN LAMBDA = 1 AND LAMBDA = 1
Info: FEP BOND ACTIVE FOR EXNIHILATED PARTICLES BETWEEN LAMBDA = 0 AND LAMBDA = 0
Info: LANGEVIN DYNAMICS ACTIVE
Info: LANGEVIN TEMPERATURE   300
Info: LANGEVIN USING BBK INTEGRATOR
Info: LANGEVIN DAMPING COEFFICIENT IS 1 INVERSE PS
Info: LANGEVIN DYNAMICS APPLIED TO HYDROGENS
Info: LANGEVIN PISTON PRESSURE CONTROL ACTIVE
Info:        TARGET PRESSURE IS 1.01325 BAR
Info:     OSCILLATION PERIOD IS 50 FS
Info:             DECAY TIME IS 25 FS
Info:     PISTON TEMPERATURE IS 300 K
Info:       PRESSURE CONTROL IS GROUP-BASED
Info:    INITIAL STRAIN RATE IS -0.000232886 -0.000232886 -0.000232886
Info:       CELL FLUCTUATION IS ISOTROPIC
Info: PARTICLE MESH EWALD (PME) ACTIVE
Info: PME TOLERANCE               1e-06
Info: PME EWALD COEFFICIENT       0.348832
Info: PME INTERPOLATION ORDER     4
Info: PME GRID DIMENSIONS         32 32 32
Info: PME MAXIMUM GRID SPACING    1
Info: PME CALCULATION WILL BE PERFORMED ON GPU
Info: FULL ELECTROSTATIC EVALUATION FREQUENCY      2
Info: USING VERLET I (r-RESPA) MTS SCHEME.
Info: C1 SPLITTING OF LONG RANGE ELECTROSTATICS
Info: PLACING ATOMS IN PATCHES BY HYDROGEN GROUPS
Info: RIGID BONDS TO HYDROGEN : ALL
Info:         ERROR TOLERANCE : 1e-08
Info:          MAX ITERATIONS : 100
Info: RIGID WATER USING SETTLE ALGORITHM
Info: RANDOM NUMBER SEED     1743498125
Info: USE HYDROGEN BONDS?    NO
Info: Using AMBER format force field!
Info: AMBER PARM FILE        mobley_5494918.prmtop
Info: COORDINATE PDB         mobley_5494918.pdb
Info: Exclusions will be read from PARM file!
Info: SCNB (VDW SCALING)     2
Info: USING ARITHMETIC MEAN TO COMBINE L-J SIGMA PARAMETERS
Info: BINARY COORDINATES     mobley_5494918_equil.coor
Info: SUMMARY OF PARAMETERS:
Info: 6 BONDS
Info: 6 ANGLES
Info:   6 HARMONIC
Info:   0 COSINE-BASED
Info: 3 DIHEDRAL
Info: 0 IMPROPER
Info: 0 CROSSTERM
Info: 0 VDW
Info: 15 VDW_PAIRS
Info: 0 NBTHOLE_PAIRS
Info: To read alchdata from file: mobley_5494918.pdb
Info: To read alchflag data from column: 5
Info: STRUCTURE SUMMARY:
Info: 2982 ATOMS
Info: 2981 BONDS
Info: 12 ANGLES
Info: 12 DIHEDRALS
Info: 0 IMPROPERS
Info: 0 CROSSTERMS
Info: 3003 EXCLUSIONS
Info: 2973 RIGID BONDS
Info: ALCH: 0 ATOMS TO DISAPPEAR IN FINAL STATE
Info: ALCH: 9 ATOMS TO APPEAR IN FINAL STATE
Info: 5973 DEGREES OF FREEDOM
Info: 1000 HYDROGEN GROUPS
Info: 3 ATOMS IN LARGEST HYDROGEN GROUP
Info: 1000 MIGRATION GROUPS
Info: 3 ATOMS IN LARGEST MIGRATION GROUP
Info: TOTAL MASS = 18003.9 amu
Info: TOTAL CHARGE = -4.84288e-08 e
Info: MASS DENSITY = 0.983683 g/cm^3
Info: ATOM DENSITY = 0.0981154 atoms/A^3
Info: ADDED 0 IMPLICIT EXCLUSIONS
Info: NONBONDED TABLE R-SQUARED SPACING: 0.0625
Info: NONBONDED TABLE SIZE: 705 POINTS
Info: REMOVING COM VELOCITY 0.0729926 0.0224396 -0.12718
Info: Use 3D box decompostion in PME FFT.
Info: Updated CUDA force table with 4096 elements.
Info: Updated CUDA LJ table with 5 x 5 elements.
Info: Found 12 unique exclusion lists needing 16 bytes
TCL: Running for 1500000 steps
ETITLE: TS BOND ANGLE DIHED IMPRP ELECT VDW BOUNDARY MISC KINETIC TOTAL TEMP POTENTIAL TOTALAVG TEMPAVG PRESSURE GPRESSURE VOLUME PRESSAVG GPRESSAVG
ENERGY: 0 1.8982 1.0663 0.5551 0.0000 -10961.8875 1617.8281 0.0000 0.0000 1774.5622 -7565.9775 299.0123 -9340.5397 -7565.9775 299.0123 1263.1081 1346.9185 30392.7812 1263.1081 1346.9185
ENERGY: 300000 2.7016 2.0025 0.5941 0.0000 -10755.2307 1432.9374 0.0000 0.0000 1752.0243 -7564.9709 295.2147 -9316.9952 -7575.6387 297.7465 30.0052 25.4067 31123.7079 355.0442 417.3018
ENERGY: 600000 1.2610 1.4469 0.3207 0.0000 -10946.4563 1518.2304 0.0000 0.0000 1797.4161 -7627.7811 302.8632 -9425.1973 -7587.6978 298.7643 325.9539 460.0464 30085.3930 409.6948 491.9351
ENERGY: 900000 3.5808 4.5234 0.1191 0.0000 -10915.5235 1526.5241 0.0000 0.0000 1785.6241 -7595.1521 300.8762 -9380.7761 -7594.9170 298.4475 319.3649 403.1825 30820.3847 325.6630 409.3762
ENERGY: 1200000 1.6887 2.0694 0.8920 0.0000 -10893.0917 1501.4701 0.0000 0.0000 1810.6913 -7576.2802 305.1001 -9386.9715 -7600.4410 299.1012 352.7282 466.3329 30627.0506 361.6151 447.3320
ENERGY: 1500000 2.9999 4.8206 0.0854 0.0000 -10877.9597 1475.3586 0.0000 0.0000 1792.2981 -7602.3971 302.0008 -9394.6951 -7598.3205 299.6450 170.0121 258.8385 30332.8121 274.3855 359.1211
TCL: Running FEP window   2: Lambda1 0.05   Lambda2 0.1    [dLambda 0.05  ]
TCL: Setting parameter firsttimestep to 0
TCL: Setting parameter alchLambda to 0.05
Info: NONBONDED TABLE R-SQUARED SPACING: 0.0625
Info: NONBONDED TABLE SIZE: 705 POINTS
TCL: Setting parameter alchLambda2 to 0.1
Info: NONBONDED TABLE R-SQUARED SPACING: 0.0625
Info: NONBONDED TABLE SIZE: 705 POINTS
TCL: Running for 1500000 steps
ETITLE: TS BOND ANGLE DIHED IMPRP ELECT VDW BOUNDARY MISC KINETIC TOTAL TEMP POTENTIAL TOTALAVG TEMPAVG PRESSURE GPRESSURE VOLUME PRESSAVG GPRESSAVG
ENERGY: 0 2.9999 4.8206 0.0854 0.0000 -10877.9597 1478.7184 0.0000 0.0000 1791.4374 -7599.8979 301.8558 -9391.3353 -7599.8979 301.8558 171.8139 266.8009 30332.8121 171.8139 266.8009
ENERGY: 300000 1.8305 4.1136 0.2997 0.0000 -10868.8899 1458.6283 0.0000 0.0000 1777.5459 -7626.4719 299.5151 -9404.0178 -7610.9179 302.9961 152.3742 211.5154 30135.2179 -108.0607 -21.7825
ENERGY: 600000 2.8533 3.7145 2.1438 0.0000 -10832.0180 1460.2780 0.0000 0.0000 1843.2725 -7519.7559 310.5900 -9363.0284 -7597.1617 302.7096 76.4515 86.7197 30717.8809 -91.4982 -16.3448
ENERGY: 900000 1.7124 2.4182 0.5658 0.0000 -10873.7568 1463.4459 0.0000 0.0000 1755.4564 -7650.1582 295.7930 -9405.6146 -7597.9644 301.6274 253.3148 377.8879 29787.1563 15.9188 88.2099
ENERGY: 1200000 2.3214 3.6048 0.7249 0.0000 -10806.4778 1426.9427 0.0000 0.0000 1797.7097 -7575.1743 302.9127 -9372.8840 -7583.3329 300.8331 -290.6451 -226.4661 30863.2123 -75.4250 -3.9913
ENERGY: 1500000 2.8929 2.8640 0.3160 0.0000 -10779.6326 1460.4839 0.0000 0.0000 1778.2341 -7534.8418 299.6310 -9313.0759 -7585.1139 300.8054 17.5852 85.7364 30852.3904 -139.4306 -69.7280
TCL: Running FEP window   3: Lambda1 0.1    Lambda2 0.15000000000000002 [dLambda 0.05000000000000002]
TCL: Setting parameter firsttimestep to 0
TCL: Setting parameter alchLambda to 0.1
Info: NONBONDED TABLE R-SQUARED SPACING: 0.0625
Info: NONBONDED TABLE SIZE: 705 POINTS
TCL: Setting parameter alchLambda2 to 0.15000000000000002
Info: NONBONDED TABLE R-SQUARED SPACING: 0.0625
Info: NONBONDED TABLE SIZE: 705 POINTS
TCL: Running for 1500000 steps
ETITLE: TS BOND ANGLE DIHED IMPRP ELECT VDW BOUNDARY MISC KINETIC TOTAL TEMP POTENTIAL TOTALAVG TEMPAVG PRESSURE GPRESSURE VOLUME PRESSAVG GPRESSAVG
ENERGY: 0 2.8929 2.8640 0.3160 0.0000 -10779.6303 1462.9725 0.0000 0.0000 1777.3830 -7533.2019 299.4876 -9310.5849 -7533.2019 299.4876 -5.8955 92.4244 30852.3904 -5.8955 92.4244
ENERGY: 300000 4.3878 1.3930 1.0757 0.0000 -10790.8246 1424.2898 0.0000 0.0000 1812.2461 -7547.4323 305.3620 -9359.6784 -7594.5005 301.1114 -398.6281 -289.0011 30677.1165 -162.2733 -76.4713
ENERGY: 600000 1.3332 2.2432 2.4528 0.0000 -10761.7254 1409.3709 0.0000 0.0000 1757.5368 -7588.7885 296.1436 -9346.3252 -7578.0291 301.8769 -516.5266 -424.4394 30887.3009 -286.4264 -209.6393
ENERGY: 900000 1.8981 1.0231 0.5971 0.0000 -10866.9102 1453.5817 0.0000 0.0000 1730.7411 -7679.0690 291.6285 -9409.8102 -7597.3981 299.3900 -69.8206 28.3471 30468.7461 -165.0117 -91.8951
ENERGY: 1200000 2.1663 2.5964 0.5878 0.0000 -10727.8260 1375.9784 0.0000 0.0000 1764.1771 -7582.3200 297.2624 -9346.4970 -7596.9424 298.7858 -787.5073 -641.0994 31138.0735 -231.9779 -151.8133
ENERGY: 1500000 4.0454 1.7217 3.3915 0.0000 -10853.9576 1427.5490 0.0000 0.0000 1767.5930 -7649.6571 297.8380 -9417.2500 -7602.1495 299.2310 -267.8356 -211.2005 30436.8207 -145.4534 -70.1033
TCL: Running FEP window   4: Lambda1 0.15000000000000002 Lambda2 0.2    [dLambda 0.04999999999999999]
TCL: Setting parameter firsttimestep to 0
TCL: Setting parameter alchLambda to 0.15000000000000002
Info: NONBONDED TABLE R-SQUARED SPACING: 0.0625
Info: NONBONDED TABLE SIZE: 705 POINTS
TCL: Setting parameter alchLambda2 to 0.2
Info: NONBONDED TABLE R-SQUARED SPACING: 0.0625
Info: NONBONDED TABLE SIZE: 705 POINTS
TCL: Running for 1500000 steps
ETITLE: TS BOND ANGLE DIHED IMPRP ELECT VDW BOUNDARY MISC KINETIC TOTAL TEMP POTENTIAL TOTALAVG TEMPAVG PRESSURE GPRESSURE VOLUME PRESSAVG GPRESSAVG
ENERGY: 0 4.0454 1.7217 3.3915 0.0000 -10853.9566 1428.5969 0.0000 0.0000 1766.7123 -7649.4889 297.6896 -9416.2011 -7649.4889 297.6896 -298.2259 -205.8258 30436.8207 -298.2259 -205.8258
ENERGY: 300000 1.8077 2.3770 0.2514 0.0000 -10865.5952 1490.6322 0.0000 0.0000 1808.6787 -7561.8482 304.7609 -9370.5269 -7623.0350 301.6746 195.8131 249.4163 30857.0726 -33.7851 48.1852
ENERGY: 600000 1.6259 2.8292 0.9967 0.0000 -10862.7851 1503.3675 0.0000 0.0000 1760.7701 -7593.1958 296.6884 -9353.9658 -7605.2716 299.1674 357.1132 448.1163 30244.3998 -166.1869 -109.1153
ENERGY: 900000 1.4207 2.9522 0.2151 0.0000 -10869.6600 1518.8613 0.0000 0.0000 1836.4265 -7509.7843 309.4364 -9346.2108 -7601.6417 299.6692 536.0806 587.7269 30555.4399 -105.8156 -49.4798
ENERGY: 1200000 1.9745 2.5153 0.9254 0.0000 -10872.3394 1456.8265 0.0000 0.0000 1792.7117 -7617.3860 302.0705 -9410.0977 -7601.0743 299.7908 -155.6872 -89.3259 30526.6545 -93.3407 -25.8951
ENERGY: 1500000 4.8063 2.8392 0.4222 0.0000 -10795.0240 1440.6223 0.0000 0.0000 1772.0945 -7574.2395 298.5965 -9346.3341 -7592.7671 300.1928 -230.3741 -144.8562 30806.6271 -143.1445 -76.3503
TCL: Running FEP window   5: Lambda1 0.2    Lambda2 0.25   [dLambda 0.04999999999999999]
TCL: Setting parameter firsttimestep to 0
TCL: Setting parameter alchLambda to 0.2
Info: NONBONDED TABLE R-SQUARED SPACING: 0.0625
Info: NONBONDED TABLE SIZE: 705 POINTS
TCL: Setting parameter alchLambda2 to 0.25
Info: NONBONDED TABLE R-SQUARED SPACING: 0.0625
Info: NONBONDED TABLE SIZE: 705 POINTS
TCL: Running for 1500000 steps
ETITLE: TS BOND ANGLE DIHED IMPRP ELECT VDW BOUNDARY MISC KINETIC TOTAL TEMP POTENTIAL TOTALAVG TEMPAVG PRESSURE GPRESSURE VOLUME PRESSAVG GPRESSAVG
ENERGY: 0 4.8063 2.8392 0.4222 0.0000 -10795.0244 1443.5028 0.0000 0.0000 1771.1764 -7572.2776 298.4418 -9343.4539 -7572.2776 298.4418 -221.8300 -133.9834 30806.6271 -221.8300 -133.9834
ENERGY: 300000 3.1859 2.0188 0.2918 0.0000 -10817.3937 1460.8417 0.0000 0.0000 1766.5669 -7584.4886 297.6651 -9351.0555 -7589.5941 299.7663 -34.3807 71.8595 30825.5652 -40.0214 50.4315
ENERGY: 600000 2.6237 3.4960 0.1709 0.0000 -10887.3060 1479.3828 0.0000 0.0000 1777.1789 -7624.4536 299.4532 -9401.6325 -7623.3754 297.5716 -182.5869 -104.2490 30788.2841 -174.6542 -112.0338
ENERGY: 900000 2.3355 3.0658 0.8876 0.0000 -10975.2557 1547.1011 0.0000 0.0000 1733.7096 -7688.1562 292.1287 -9421.8658 -7616.2534 298.4681 553.1070 696.1773 30414.9816 -79.6349 -9.9559
ENERGY: 1200000 3.9274 2.6763 1.1341 0.0000 -10847.7801 1425.3219 0.0000 0.0000 1744.3768 -7670.3436 293.9261 -9414.7204 -7629.3306 298.1225 -610.4752 -536.6972 30877.0415 23.1135 93.6100
ENERGY: 1500000 2.5636 3.0916 0.6500 0.0000 -10933.5941 1477.9882 0.0000 0.0000 1754.9554 -7694.3454 295.7086 -9449.3008 -7619.2703 298.8937 -111.4033 -49.1373 30607.6223 44.0126 104.1434
TCL: Running FEP window   6: Lambda1 0.25   Lambda2 0.3    [dLambda 0.04999999999999999]
TCL: Setting parameter firsttimestep to 0
TCL: Setting parameter alchLambda to 0.25
Info: NONBONDED TABLE R-SQUARED SPACING: 0.0625
Info: NONBONDED TABLE SIZE: 705 POINTS
TCL: Setting parameter alchLambda2 to 0.3
Info: NONBONDED TABLE R-SQUARED SPACING: 0.0625
Info: NONBONDED TABLE SIZE: 705 POINTS
TCL: Running for 1500000 steps
ETITLE: TS BOND ANGLE DIHED IMPRP ELECT VDW BOUNDARY MISC KINETIC TOTAL TEMP POTENTIAL TOTALAVG TEMPAVG PRESSURE GPRESSURE VOLUME PRESSAVG GPRESSAVG
ENERGY: 0 2.5636 3.0916 0.6500 0.0000 -10933.5945 1478.4325 0.0000 0.0000 1754.0900 -7694.7668 295.5628 -9448.8568 -7694.7668 295.5628 -122.3294 -45.2983 30607.6223 -122.3294 -45.2983
ENERGY: 300000 2.0200 2.6043 1.3142 0.0000 -10760.4975 1402.9588 0.0000 0.0000 1799.5562 -7552.0440 303.2238 -9351.6002 -7578.2105 300.7672 -349.0656 -272.8940 30582.0276 -378.4857 -313.1242
ENERGY: 600000 2.1519 2.4123 1.6159 0.0000 -10889.8704 1449.0372 0.0000 0.0000 1818.9681 -7615.6850 306.4947 -9434.6531 -7571.6096 302.1674 -274.7264 -200.9912 30686.4515 -211.8027 -139.8522
ENERGY: 900000 1.6088 2.5848 2.4559 0.0000 -10968.6854 1561.7861 0.0000 0.0000 1798.4162 -7601.8335 303.0317 -9400.2497 -7574.4600 302.3615 561.0287 692.1347 30654.9373 -99.4174 -19.2899
ENERGY: 1200000 0.9426 1.7457 0.9501 0.0000 -10897.2212 1475.1238 0.0000 0.0000 1777.2080 -7641.2510 299.4581 -9418.4590 -7588.4313 302.2742 -41.1407 50.5991 30457.7249 -165.7324 -87.4729
ENERGY: 1500000 2.3390 5.1709 3.4661 0.0000 -10936.3848 1496.8814 0.0000 0.0000 1757.3766 -7671.1508 296.1166 -9428.5274 -7588.3763 301.9273 257.3023 314.3660 30410.4683 -82.5860 -7.2040
TCL: Running FEP window   7: Lambda1 0.3    Lambda2 0.35   [dLambda 0.04999999999999999]
TCL: Setting parameter firsttimestep to 0
TCL: Setting parameter alchLambda to 0.3
Info: NONBONDED TABLE R-SQUARED SPACING: 0.0625
Info: NONBONDED TABLE SIZE: 705 POINTS
TCL: Setting parameter alchLambda2 to 0.35
Info: NONBONDED TABLE R-SQUARED SPACING: 0.0625
Info: NONBONDED TABLE SIZE: 705 POINTS
TCL: Running for 1500000 steps
ETITLE: TS BOND ANGLE DIHED IMPRP ELECT VDW BOUNDARY MISC KINETIC TOTAL TEMP POTENTIAL TOTALAVG TEMPAVG PRESSURE GPRESSURE VOLUME PRESSAVG GPRESSAVG
ENERGY: 0 2.3390 5.1709 3.4661 0.0000 -10936.3866 1496.7055 0.0000 0.0000 1756.5290 -7672.1761 295.9737 -9428.7051 -7672.1761 295.9737 220.7817 314.2115 30410.4683 220.7817 314.2115
ENERGY: 300000 5.9083 2.9317 0.8541 0.0000 -10788.4750 1419.8160 0.0000 0.0000 1776.9682 -7581.9967 299.4177 -9358.9649 -7622.8831 300.1363 -223.3108 -184.0248 30690.3919 -241.5123 -168.0972
ENERGY: 600000 2.4859 1.2280 1.8633 0.0000 -10725.0262 1429.2831 0.0000 0.0000 1766.3401 -7523.8258 297.6269 -9290.1659 -7589.6785 299.7217 -141.7853 38.2457 30852.7176 -165.8758 -79.3532
ENERGY: 900000 3.3008 1.0122 0.5623 0.0000 -10835.6310 1485.8068 0.0000 0.0000 1776.4473 -7568.5016 299.3300 -9344.9489 -7584.9930 300.1521 659.4504 663.2061 30314.0058 28.1980 95.2149
ENERGY: 1200000 2.9304 2.3033 1.5122 0.0000 -10852.9899 1491.2443 0.0000 0.0000 1803.3394 -7551.6603 303.8613 -9354.9997 -7578.7251 300.6931 437.9245 490.6017 30337.2473 27.9615 103.6252
ENERGY: 1500000 2.1331 1.6365 0.0837 0.0000 -10830.7038 1435.7993 0.0000 0.0000 1790.2275 -7600.8237 301.6519 -9391.0512 -7585.8339 299.8590 -279.9855 -231.4437 30785.6454 -65.0527 8.9307
TCL: Running FEP window   8: Lambda1 0.35   Lambda2 0.39999999999999997 [dLambda 0.04999999999999999]
TCL: Setting parameter firsttimestep to 0
TCL: Setting parameter alchLambda to 0.35
Info: NONBONDED TABLE R-SQUARED SPACING: 0.0625
Info: NONBONDED TABLE SIZE: 705 POINTS
TCL: Setting parameter alchLambda2 to 0.39999999999999997
Info: NONBONDED TABLE R-SQUARED SPACING: 0.0625
Info: NONBONDED TABLE SIZE: 705 POINTS
TCL: Running for 1500000 steps
ETITLE: TS BOND ANGLE DIHED IMPRP ELECT VDW BOUNDARY MISC KINETIC TOTAL TEMP POTENTIAL TOTALAVG TEMPAVG PRESSURE GPRESSURE VOLUME PRESSAVG GPRESSAVG
ENERGY: 0 2.1331 1.6365 0.0837 0.0000 -10830.7053 1436.3012 0.0000 0.0000 1789.3586 -7601.1922 301.5055 -9390.5508 -7601.1922 301.5055 -315.7338 -227.4849 30785.6454 -315.7338 -227.4849
ENERGY: 300000 1.8165 1.3696 0.1627 0.0000 -10791.7365 1401.8236 0.0000 0.0000 1768.8818 -7617.6823 298.0552 -9386.5641 -7590.2666 301.5065 -280.9172 -263.5996 30510.6897 -153.1885 -99.0060
ENERGY: 600000 0.4841 1.9797 1.2725 0.0000 -10921.6913 1531.4049 0.0000 0.0000 1789.7531 -7596.7970 301.5720 -9386.5501 -7582.4069 301.8664 702.1448 802.1279 30313.7499 8.2247 57.9878
ENERGY: 900000 3.3085 1.8784 0.8289 0.0000 -10604.8112 1382.6970 0.0000 0.0000 1803.5612 -7412.5371 303.8986 -9216.0983 -7563.7030 302.1975 -381.9874 -266.6782 31189.0500 -23.7879 29.6287
ENERGY: 1200000 1.2891 5.4299 0.2125 0.0000 -10696.3212 1357.6419 0.0000 0.0000 1786.1540 -7545.5939 300.9655 -9331.7479 -7572.4615 301.1773 -738.0814 -680.7741 30898.1538 -59.8013 -4.1985
ENERGY: 1500000 3.3162 3.9245 1.5425 0.0000 -10956.2216 1562.0910 0.0000 0.0000 1730.9571 -7654.3903 291.6649 -9385.3474 -7575.9283 301.0895 395.6016 508.0845 30950.1040 -74.8291 -16.6317
TCL: Running FEP window   9: Lambda1 0.39999999999999997 Lambda2 0.44999999999999996 [dLambda 0.04999999999999999]
TCL: Setting parameter firsttimestep to 0
TCL: Setting parameter alchLambda to 0.39999999999999997
Info: NONBONDED TABLE R-SQUARED SPACING: 0.0625
Info: NONBONDED TABLE SIZE: 705 POINTS
TCL: Setting parameter alchLambda2 to 0.44999999999999996
Info: NONBONDED TABLE R-SQUARED SPACING: 0.0625
Info: NONBONDED TABLE SIZE: 705 POINTS
TCL: Running for 1500000 steps
ETITLE: TS BOND ANGLE DIHED IMPRP ELECT VDW BOUNDARY MISC KINETIC TOTAL TEMP POTENTIAL TOTALAVG TEMPAVG PRESSURE GPRESSURE VOLUME PRESSAVG GPRESSAVG
ENERGY: 0 3.3162 3.9245 1.5425 0.0000 -10956.2221 1562.9637 0.0000 0.0000 1730.0779 -7654.3974 291.5168 -9384.4753 -7654.3974 291.5168 436.4711 515.5229 30950.1040 436.4711 515.5229
ENERGY: 300000 3.8663 2.6952 0.9994 0.0000 -10887.5776 1511.3146 0.0000 0.0000 1793.6432 -7575.0591 302.2275 -9368.7022 -7582.5632 298.3888 318.8555 500.7421 30753.6064 322.1949 437.4417
ENERGY: 600000 2.9437 2.3593 0.4522 0.0000 -10904.7221 1487.8561 0.0000 0.0000 1780.7535 -7630.3573 300.0556 -9411.1109 -7590.1296 297.4631 116.6211 178.5579 30528.8844 368.2746 460.5367
ENERGY: 900000 2.5945 1.7607 0.2637 0.0000 -10847.2571 1463.3026 0.0000 0.0000 1772.1054 -7607.2302 298.5984 -9379.3356 -7587.2421 298.9384 -219.6839 -157.6936 30779.0123 279.2483 360.9982
ENERGY: 1200000 1.1589 5.1365 0.9706 0.0000 -10812.8310 1435.6563 0.0000 0.0000 1743.1370 -7626.7718 293.7172 -9369.9087 -7586.4319 299.1463 -212.4263 -154.5632 30706.4809 168.2028 248.4817
ENERGY: 1500000 0.9128 4.2298 0.7645 0.0000 -10756.3772 1392.6452 0.0000 0.0000 1794.7034 -7563.1214 302.4061 -9357.8248 -7591.1796 299.3945 -511.6771 -489.2184 30918.9895 58.5032 138.6636
TCL: Running FEP window  10: Lambda1 0.44999999999999996 Lambda2 0.49999999999999994 [dLambda 0.04999999999999999]
TCL: Setting parameter firsttimestep to 0
TCL: Setting parameter alchLambda to 0.44999999999999996
Info: NONBONDED TABLE R-SQUARED SPACING: 0.0625
Info: NONBONDED TABLE SIZE: 705 POINTS
TCL: Setting parameter alchLambda2 to 0.49999999999999994
Info: NONBONDED TABLE R-SQUARED SPACING: 0.0625
Info: NONBONDED TABLE SIZE: 705 POINTS
TCL: Running for 1500000 steps
ETITLE: TS BOND ANGLE DIHED IMPRP ELECT VDW BOUNDARY MISC KINETIC TOTAL TEMP POTENTIAL TOTALAVG TEMPAVG PRESSURE GPRESSURE VOLUME PRESSAVG GPRESSAVG
ENERGY: 0 0.9128 4.2298 0.7645 0.0000 -10756.3789 1392.8936 0.0000 0.0000 1793.8544 -7563.7238 302.2631 -9357.5782 -7563.7238 302.2631 -587.0280 -485.1953 30918.9895 -587.0280 -485.1953
ENERGY: 300000 3.5047 1.1836 0.7335 0.0000 -10923.6734 1570.7255 0.0000 0.0000 1766.7688 -7580.7572 297.6992 -9347.5260 -7569.4629 296.9984 793.1710 888.6176 30539.3707 167.6178 233.4438
ENERGY: 600000 0.9166 4.2594 1.9304 0.0000 -10788.4516 1403.2940 0.0000 0.0000 1754.0257 -7624.0255 295.5519 -9378.0512 -7584.7036 297.2977 -397.4963 -334.4070 30746.4173 109.1811 163.5725
ENERGY: 900000 2.5309 1.0409 0.8244 0.0000 -10823.3891 1468.3835 0.0000 0.0000 1729.3865 -7621.2229 291.4003 -9350.6095 -7587.8265 297.7918 37.6509 111.1350 30799.6768 94.2014 152.3611
ENERGY: 1200000 4.5708 3.2713 0.1281 0.0000 -10893.6137 1510.0571 0.0000 0.0000 1794.8125 -7580.7739 302.4245 -9375.5864 -7590.8229 296.9048 286.3035 382.9711 30721.4846 -10.6065 49.1691
ENERGY: 1500000 1.9279 4.0226 2.4628 0.0000 -10897.0818 1437.0141 0.0000 0.0000 1822.4764 -7629.1781 307.0858 -9451.6544 -7593.3560 297.2649 -159.3263 -98.8441 30635.9347 -49.7364 13.4472
TCL: Running FEP window  11: Lambda1 0.49999999999999994 Lambda2 0.5499999999999999 [dLambda 0.04999999999999999]
TCL: Setting parameter firsttimestep to 0
TCL: Setting parameter alchLambda to 0.49999999999999994
Info: NONBONDED TABLE R-SQUARED SPACING: 0.0625
Info: NONBONDED TABLE SIZE: 705 POINTS
TCL: Setting parameter alchLambda2 to 0.5499999999999999
Info: NONBONDED TABLE R-SQUARED SPACING: 0.0625
Info: NONBONDED TABLE SIZE: 705 POINTS
TCL: Running for 1500000 steps
ETITLE: TS BOND ANGLE DIHED IMPRP ELECT VDW BOUNDARY MISC KINETIC TOTAL TEMP POTENTIAL TOTALAVG TEMPAVG PRESSURE GPRESSURE VOLUME PRESSAVG GPRESSAVG
ENERGY: 0 1.9279 4.0226 2.4628 0.0000 -10897.0830 1437.1382 0.0000 0.0000 1821.6025 -7629.9290 306.9386 -9451.5315 -7629.9290 306.9386 -177.9122 -92.6727 30635.9347 -177.9122 -92.6727
ENERGY: 300000 3.7035 4.2534 0.2687 0.0000 -10780.9351 1401.7716 0.0000 0.0000 1840.1708 -7530.7673 310.0673 -9370.9380 -7584.0563 307.9164 -416.5882 -340.9952 30908.5821 -45.0792 10.8068
ENERGY: 600000 1.1600 2.9702 0.5642 0.0000 -10993.6943 1479.0274 0.0000 0.0000 1804.0706 -7705.9020 303.9845 -9509.9725 -7609.3036 306.1119 -196.0918 -145.3715 30626.3647 -94.6461 -46.1174
ENERGY: 900000 1.8588 1.8191 0.5726 0.0000 -10944.8357 1478.3502 0.0000 0.0000 1820.5087 -7641.7263 306.7543 -9462.2350 -7619.5700 304.3260 185.1978 217.3483 30164.6493 -64.3520 -15.1681
ENERGY: 1200000 2.5822 1.9315 0.0191 0.0000 -10682.9668 1377.5818 0.0000 0.0000 1795.7607 -7505.0915 302.5843 -9300.8522 -7609.2115 303.6524 -311.8204 -299.4845 30837.3168 -70.1260 -14.7138
ENERGY: 1500000 3.2303 1.1348 0.6705 0.0000 -10784.5833 1410.3520 0.0000 0.0000 1811.3236 -7557.8720 305.2066 -9369.1956 -7602.9915 303.7510 -335.4533 -301.9888 30468.5648 -0.7850 52.7556
TCL: Running FEP window  12: Lambda1 0.5499999999999999 Lambda2 0.6    [dLambda 0.050000000000000044]
TCL: Setting parameter firsttimestep to 0
TCL: Setting parameter alchLambda to 0.5499999999999999
Info: NONBONDED TABLE R-SQUARED SPACING: 0.0625
Info: NONBONDED TABLE SIZE: 705 POINTS
TCL: Setting parameter alchLambda2 to 0.6
Info: NONBONDED TABLE R-SQUARED SPACING: 0.0625
Info: NONBONDED TABLE SIZE: 705 POINTS
TCL: Running for 1500000 steps
ETITLE: TS BOND ANGLE DIHED IMPRP ELECT VDW BOUNDARY MISC KINETIC TOTAL TEMP POTENTIAL TOTALAVG TEMPAVG PRESSURE GPRESSURE VOLUME PRESSAVG GPRESSAVG
ENERGY: 0 3.2303 1.1348 0.6705 0.0000 -10785.0621 1410.7490 0.0000 0.0000 1810.4517 -7558.8257 305.0597 -9369.2774 -7558.8257 305.0597 -367.6140 -293.0613 30468.5648 -367.6140 -293.0613
ENERGY: 300000 1.5284 3.5436 1.7707 0.0000 -10850.0137 1448.6259 0.0000 0.0000 1799.7811 -7594.7639 303.2617 -9394.5451 -7580.5714 304.2055 111.1927 73.9437 30672.8441 -64.1252 -8.2360
ENERGY: 600000 2.5987 5.5388 0.6067 0.0000 -10808.5713 1399.3418 0.0000 0.0000 1807.1852 -7593.3002 304.5093 -9400.4854 -7587.3251 302.3644 -590.6717 -582.1189 30920.0365 -158.2157 -109.2938
ENERGY: 900000 2.1109 3.2981 0.4468 0.0000 -10686.8272 1348.0900 0.0000 0.0000 1802.5125 -7530.3689 303.7219 -9332.8814 -7585.7499 302.0412 -984.5869 -873.1729 31053.8592 -204.6684 -140.4642
ENERGY: 1200000 2.4012 1.2490 0.6713 0.0000 -10713.5113 1359.0661 0.0000 0.0000 1787.7042 -7562.4195 301.2267 -9350.1237 -7591.7296 301.1080 -996.2016 -877.8359 31028.0612 -243.3152 -177.8831
ENERGY: 1500000 1.7819 1.3834 1.8713 0.0000 -10787.9813 1397.3172 0.0000 0.0000 1768.1718 -7617.4557 297.9355 -9385.6275 -7600.6697 300.0388 -578.4116 -544.7777 30890.9402 -218.8524 -153.2169
TCL: Running FEP window  13: Lambda1 0.6    Lambda2 0.65   [dLambda 0.050000000000000044]
TCL: Setting parameter firsttimestep to 0
TCL: Setting parameter alchLambda to 0.6
Info: NONBONDED TABLE R-SQUARED SPACING: 0.0625
Info: NONBONDED TABLE SIZE: 705 POINTS
TCL: Setting parameter alchLambda2 to 0.65
Info: NONBONDED TABLE R-SQUARED SPACING: 0.0625
Info: NONBONDED TABLE SIZE: 705 POINTS
TCL: Running for 1500000 steps
ETITLE: TS BOND ANGLE DIHED IMPRP ELECT VDW BOUNDARY MISC KINETIC TOTAL TEMP POTENTIAL TOTALAVG TEMPAVG PRESSURE GPRESSURE VOLUME PRESSAVG GPRESSAVG
ENERGY: 0 1.7819 1.3834 1.8713 0.0000 -10788.0607 1396.9770 0.0000 0.0000 1767.3130 -7618.7341 297.7908 -9386.0471 -7618.7341 297.7908 -617.8385 -543.6589 30890.9402 -617.8385 -543.6589
ENERGY: 300000 1.5044 3.1107 1.0724 0.0000 -10697.1181 1423.7444 0.0000 0.0000 1733.0283 -7534.6579 292.0139 -9267.6862 -7595.7479 297.4644 -190.2450 -72.1983 31255.4820 -241.8729 -164.5621
ENERGY: 600000 1.9998 4.4072 2.6795 0.0000 -10863.5990 1482.6116 0.0000 0.0000 1774.6323 -7597.2686 299.0241 -9371.9009 -7581.2318 299.9180 206.0363 292.3506 30605.6535 -94.4063 -18.7513
ENERGY: 900000 3.6551 2.9878 0.3837 0.0000 -10826.9042 1401.8129 0.0000 0.0000 1751.4743 -7666.5903 295.1220 -9418.0646 -7594.9380 299.8245 -548.8513 -447.3232 30712.0342 -99.9390 -34.9782
ENERGY: 1200000 1.4173 2.8834 1.1508 0.0000 -10778.7281 1385.3418 0.0000 0.0000 1809.7776 -7578.1573 304.9461 -9387.9349 -7579.8339 300.3499 -687.4171 -661.0532 30696.0849 -51.9598 8.1333
ENERGY: 1500000 2.2414 5.7588 0.9554 0.0000 -10954.2957 1524.6719 0.0000 0.0000 1790.3918 -7630.2762 301.6796 -9420.6681 -7593.8332 300.4579 314.0598 343.7557 30825.0692 -32.5657 28.0661
TCL: Running FEP window  14: Lambda1 0.65   Lambda2 0.7000000000000001 [dLambda 0.050000000000000044]
TCL: Setting parameter firsttimestep to 0
TCL: Setting parameter alchLambda to 0.65
Info: NONBONDED TABLE R-SQUARED SPACING: 0.0625
Info: NONBONDED TABLE SIZE: 705 POINTS
TCL: Setting parameter alchLambda2 to 0.7000000000000001
Info: NONBONDED TABLE R-SQUARED SPACING: 0.0625
Info: NONBONDED TABLE SIZE: 705 POINTS
TCL: Running for 1500000 steps
ETITLE: TS BOND ANGLE DIHED IMPRP ELECT VDW BOUNDARY MISC KINETIC TOTAL TEMP POTENTIAL TOTALAVG TEMPAVG PRESSURE GPRESSURE VOLUME PRESSAVG GPRESSAVG
ENERGY: 0 2.2414 5.7588 0.9554 0.0000 -10954.1792 1524.4418 0.0000 0.0000 1789.5136 -7631.2680 301.5316 -9420.7817 -7631.2680 301.5316 268.2414 347.1005 30825.0692 268.2414 347.1005
ENERGY: 300000 2.2070 2.3678 1.1400 0.0000 -10817.2939 1431.6841 0.0000 0.0000 1778.4405 -7601.4545 299.6658 -9379.8950 -7627.5853 298.3060 -86.7252 -51.9342 30616.9113 -429.1576 -368.2660
ENERGY: 600000 4.2789 1.9529 0.8753 0.0000 -10894.4559 1468.5723 0.0000 0.0000 1755.3508 -7663.4259 295.7752 -9418.7767 -7619.4315 299.8708 107.3577 95.9469 30348.3637 -203.1189 -164.8884
ENERGY: 900000 1.3521 1.5155 1.0355 0.0000 -10850.6099 1467.9894 0.0000 0.0000 1794.9781 -7583.7392 302.4524 -9378.7173 -7606.2845 300.1370 216.8345 276.1229 30472.8642 -108.1623 -59.2156
ENERGY: 1200000 1.1160 1.6440 0.6743 0.0000 -10892.7141 1494.2730 0.0000 0.0000 1793.2136 -7601.7931 302.1551 -9395.0067 -7597.6043 300.6278 556.4346 567.5730 30069.4713 -81.8001 -34.7461
ENERGY: 1500000 1.3148 0.9103 0.8847 0.0000 -10766.9618 1410.7496 0.0000 0.0000 1778.3449 -7574.7576 299.6497 -9353.1025 -7597.7505 300.4320 -516.1055 -449.1402 31329.4583 -111.5470 -62.0215
TCL: Running FEP window  15: Lambda1 0.7000000000000001 Lambda2 0.7500000000000001 [dLambda 0.050000000000000044]
TCL: Setting parameter firsttimestep to 0
TCL: Setting parameter alchLambda to 0.7000000000000001
Info: NONBONDED TABLE R-SQUARED SPACING: 0.0625
Info: NONBONDED TABLE SIZE: 705 POINTS
TCL: Setting parameter alchLambda2 to 0.7500000000000001
Info: NONBONDED TABLE R-SQUARED SPACING: 0.0625
Info: NONBONDED TABLE SIZE: 705 POINTS
TCL: Running for 1500000 steps
ETITLE: TS BOND ANGLE DIHED IMPRP ELECT VDW BOUNDARY MISC KINETIC TOTAL TEMP POTENTIAL TOTALAVG TEMPAVG PRESSURE GPRESSURE VOLUME PRESSAVG GPRESSAVG
ENERGY: 0 1.3148 0.9103 0.8847 0.0000 -10767.1848 1410.8871 0.0000 0.0000 1777.4707 -7575.7172 299.5024 -9353.1879 -7575.7172 299.5024 -531.2353 -444.8933 31329.4583 -531.2353 -444.8933
ENERGY: 300000 3.2799 2.3029 0.1592 0.0000 -10833.3184 1444.2510 0.0000 0.0000 1808.4120 -7574.9134 304.7160 -9383.3254 -7562.5537 304.4064 6.0809 36.2640 30417.6212 -119.4526 -29.1972
ENERGY: 600000 3.0282 2.1746 0.0387 0.0000 -10785.3069 1401.3489 0.0000 0.0000 1705.4187 -7673.2977 287.3617 -9378.7164 -7574.5921 301.6522 -675.9250 -567.4700 30768.1128 -113.2753 -17.8826
ENERGY: 900000 2.9617 3.9118 0.3878 0.0000 -10939.8070 1560.9563 0.0000 0.0000 1865.4648 -7506.1248 314.3293 -9371.5895 -7570.7038 302.9805 1018.2570 1127.7148 30395.2566 170.6763 255.1271
ENERGY: 1200000 1.0172 0.8279 1.3066 0.0000 -10866.0420 1488.7816 0.0000 0.0000 1775.7863 -7598.3225 299.2186 -9374.1088 -7572.5572 303.2382 -6.7637 89.2501 30893.3821 154.3515 235.5166
ENERGY: 1500000 0.7577 1.3935 1.0533 0.0000 -11038.1156 1595.0434 0.0000 0.0000 1789.9170 -7649.9507 301.5996 -9439.8677 -7589.3794 302.4396 892.2290 1006.6498 30350.1974 190.3491 264.5032
TCL: Running FEP window  16: Lambda1 0.7500000000000001 Lambda2 0.8000000000000002 [dLambda 0.050000000000000044]
TCL: Setting parameter firsttimestep to 0
TCL: Setting parameter alchLambda to 0.7500000000000001
Info: NONBONDED TABLE R-SQUARED SPACING: 0.0625
Info: NONBONDED TABLE SIZE: 705 POINTS
TCL: Setting parameter alchLambda2 to 0.8000000000000002
Info: NONBONDED TABLE R-SQUARED SPACING: 0.0625
Info: NONBONDED TABLE SIZE: 705 POINTS
TCL: Running for 1500000 steps
ETITLE: TS BOND ANGLE DIHED IMPRP ELECT VDW BOUNDARY MISC KINETIC TOTAL TEMP POTENTIAL TOTALAVG TEMPAVG PRESSURE GPRESSURE VOLUME PRESSAVG GPRESSAVG
ENERGY: 0 0.7577 1.3935 1.0533 0.0000 -11038.0869 1595.9157 0.0000 0.0000 1788.9958 -7649.9708 301.4444 -9438.9666 -7649.9708 301.4444 926.8041 1021.4080 30350.1974 926.8041 1021.4080
ENERGY: 300000 2.1904 2.5144 2.6775 0.0000 -10832.7545 1495.0728 0.0000 0.0000 1752.1143 -7578.1851 295.2299 -9330.2994 -7605.1792 300.8328 531.4066 579.1369 30739.7979 541.1688 597.1842
ENERGY: 600000 4.8691 1.6845 0.5151 0.0000 -10768.0830 1395.0125 0.0000 0.0000 1756.8222 -7609.1796 296.0232 -9366.0018 -7606.9018 299.0600 -345.8648 -273.7900 30562.6395 293.1577 366.4325
ENERGY: 900000 3.4920 5.4868 0.5643 0.0000 -10931.6665 1465.8841 0.0000 0.0000 1818.1742 -7638.0652 306.3609 -9456.2394 -7600.4369 300.2144 -170.1767 -65.3455 30536.7608 278.9758 345.0360
ENERGY: 1200000 1.3690 2.0458 0.4374 0.0000 -10879.4011 1472.8339 0.0000 0.0000 1780.8358 -7621.8791 300.0694 -9402.7149 -7600.7194 300.8293 57.6478 143.1399 30452.6177 272.9885 345.9255
ENERGY: 1500000 1.8804 1.8243 1.7603 0.0000 -10697.6138 1360.8888 0.0000 0.0000 1782.6200 -7548.6401 300.3701 -9331.2601 -7589.1900 300.7402 -638.8260 -616.3530 30948.1959 221.9639 288.8591
TCL: Running FEP window  17: Lambda1 0.8000000000000002 Lambda2 0.8500000000000002 [dLambda 0.050000000000000044]
TCL: Setting parameter firsttimestep to 0
TCL: Setting parameter alchLambda to 0.8000000000000002
Info: NONBONDED TABLE R-SQUARED SPACING: 0.0625
Info: NONBONDED TABLE SIZE: 705 POINTS
TCL: Setting parameter alchLambda2 to 0.8500000000000002
Info: NONBONDED TABLE R-SQUARED SPACING: 0.0625
Info: NONBONDED TABLE SIZE: 705 POINTS
TCL: Running for 1500000 steps
ETITLE: TS BOND ANGLE DIHED IMPRP ELECT VDW BOUNDARY MISC KINETIC TOTAL TEMP POTENTIAL TOTALAVG TEMPAVG PRESSURE GPRESSURE VOLUME PRESSAVG GPRESSAVG
ENERGY: 0 1.8804 1.8243 1.7603 0.0000 -10697.6648 1360.4472 0.0000 0.0000 1781.7920 -7549.9607 300.2305 -9331.7527 -7549.9607 300.2305 -693.7667 -613.6836 30948.1959 -693.7667 -613.6836
ENERGY: 300000 4.3333 2.4382 0.2891 0.0000 -10923.9044 1562.7649 0.0000 0.0000 1774.2431 -7579.8358 298.9586 -9354.0789 -7586.1796 298.6612 1054.1753 1070.3319 30645.7605 215.9384 257.9720
ENERGY: 600000 1.1960 4.1135 0.1240 0.0000 -10833.4496 1437.0957 0.0000 0.0000 1766.9647 -7623.9557 297.7322 -9390.9204 -7571.9521 299.1140 -194.2119 -196.4224 30644.1193 29.7210 72.0763
ENERGY: 900000 1.7437 0.9182 0.2086 0.0000 -10726.9077 1404.3362 0.0000 0.0000 1784.9468 -7534.7542 300.7621 -9319.7010 -7569.3521 299.7624 -447.8469 -436.4485 31363.6251 -53.7791 -9.1639
ENERGY: 1200000 2.5467 4.8719 0.4694 0.0000 -10735.7232 1379.8456 0.0000 0.0000 1786.2573 -7561.7324 300.9829 -9347.9897 -7566.5254 300.3597 -1071.0213 -955.1752 31709.9691 -127.6911 -76.0897
ENERGY: 1500000 2.5475 3.5080 0.5989 0.0000 -10862.1422 1464.6634 0.0000 0.0000 1723.3937 -7667.4308 290.3905 -9390.8245 -7580.9818 299.9721 45.1653 64.6791 30724.5147 -174.3083 -127.4363
TCL: Running FEP window  18: Lambda1 0.8500000000000002 Lambda2 0.9000000000000002 [dLambda 0.050000000000000044]
TCL: Setting parameter firsttimestep to 0
TCL: Setting parameter alchLambda to 0.8500000000000002
Info: NONBONDED TABLE R-SQUARED SPACING: 0.0625
Info: NONBONDED TABLE SIZE: 705 POINTS
TCL: Setting parameter alchLambda2 to 0.9000000000000002
Info: NONBONDED TABLE R-SQUARED SPACING: 0.0625
Info: NONBONDED TABLE SIZE: 705 POINTS
TCL: Running for 1500000 steps
ETITLE: TS BOND ANGLE DIHED IMPRP ELECT VDW BOUNDARY MISC KINETIC TOTAL TEMP POTENTIAL TOTALAVG TEMPAVG PRESSURE GPRESSURE VOLUME PRESSAVG GPRESSAVG
ENERGY: 0 2.5475 3.5080 0.5989 0.0000 -10862.3671 1464.4535 0.0000 0.0000 1722.5289 -7668.7305 290.2448 -9391.2593 -7668.7305 290.2448 -17.8625 69.3429 30724.5147 -17.8625 69.3429
ENERGY: 300000 2.7578 2.4859 0.5243 0.0000 -10748.8448 1392.4137 0.0000 0.0000 1784.7697 -7565.8933 300.7323 -9350.6631 -7596.2295 297.9950 -499.7364 -421.2646 30935.3262 -121.7074 -33.5719
ENERGY: 600000 2.3470 3.7611 0.2009 0.0000 -10797.9992 1436.8746 0.0000 0.0000 1748.9219 -7605.8938 294.6920 -9354.8156 -7612.7033 296.7229 -418.1483 -279.4714 31402.1260 -54.9433 35.2099
ENERGY: 900000 4.5289 2.3191 0.2889 0.0000 -10866.4726 1442.9854 0.0000 0.0000 1848.4886 -7567.8616 311.4689 -9416.3502 -7605.2530 298.4511 179.6458 174.9135 30322.2506 -21.6176 58.7861
ENERGY: 1200000 3.4214 2.3425 0.2501 0.0000 -10736.3067 1349.8840 0.0000 0.0000 1800.0957 -7580.3130 303.3147 -9380.4087 -7593.2602 299.6165 -940.1468 -852.6738 31079.1617 1.3737 80.6118
ENERGY: 1500000 1.3823 1.8800 0.6143 0.0000 -10935.4855 1518.6080 0.0000 0.0000 1778.3829 -7634.6180 299.6561 -9413.0009 -7590.3243 299.6448 478.3908 608.2792 30557.2932 7.4744 91.5310
TCL: Running FEP window  19: Lambda1 0.9000000000000002 Lambda2 0.9500000000000003 [dLambda 0.050000000000000044]
TCL: Setting parameter firsttimestep to 0
TCL: Setting parameter alchLambda to 0.9000000000000002
Info: NONBONDED TABLE R-SQUARED SPACING: 0.0625
Info: NONBONDED TABLE SIZE: 705 POINTS
TCL: Setting parameter alchLambda2 to 0.9500000000000003
Info: NONBONDED TABLE R-SQUARED SPACING: 0.0625
Info: NONBONDED TABLE SIZE: 705 POINTS
TCL: Running for 1500000 steps
ETITLE: TS BOND ANGLE DIHED IMPRP ELECT VDW BOUNDARY MISC KINETIC TOTAL TEMP POTENTIAL TOTALAVG TEMPAVG PRESSURE GPRESSURE VOLUME PRESSAVG GPRESSAVG
ENERGY: 0 1.3823 1.8800 0.6143 0.0000 -10935.7777 1518.4708 0.0000 0.0000 1777.5258 -7635.9045 299.5117 -9413.4303 -7635.9045 299.5117 528.3055 611.4435 30557.2932 528.3055 611.4435
ENERGY: 300000 1.9708 2.5376 0.1789 0.0000 -10774.0643 1441.7979 0.0000 0.0000 1749.7706 -7577.8085 294.8350 -9327.5791 -7588.2991 295.9092 169.8552 300.9174 30587.3063 229.0788 308.8575
ENERGY: 600000 2.4295 1.9032 0.0262 0.0000 -10959.1173 1529.1029 0.0000 0.0000 1819.6745 -7605.9810 306.6137 -9425.6555 -7588.7240 298.2971 697.0975 754.6183 30208.6639 42.4797 109.4146
ENERGY: 900000 2.2942 1.4290 0.3764 0.0000 -10823.2810 1392.2509 0.0000 0.0000 1768.3447 -7658.5859 297.9647 -9426.9306 -7579.1158 299.4698 -910.7856 -838.4272 31011.3487 81.7410 138.7430
ENERGY: 1200000 1.0823 3.7074 1.1102 0.0000 -10869.2143 1480.1237 0.0000 0.0000 1803.4020 -7579.7887 303.8718 -9383.1907 -7580.5132 300.2543 -49.0511 78.8437 31076.3884 29.8729 90.8084
ENERGY: 1500000 0.9001 3.0828 0.8079 0.0000 -10654.1266 1329.6133 0.0000 0.0000 1805.9715 -7513.7510 304.3048 -9319.7225 -7579.4279 299.8776 -834.8722 -754.9491 30950.2670 -11.7072 55.6051
TCL: Running FEP window  20: Lambda1 0.9500000000000003 Lambda2 1.0    [dLambda 0.04999999999999971]
TCL: Setting parameter firsttimestep to 0
TCL: Setting parameter alchLambda to 0.9500000000000003
Info: NONBONDED TABLE R-SQUARED SPACING: 0.0625
Info: NONBONDED TABLE SIZE: 705 POINTS
TCL: Setting parameter alchLambda2 to 1.0
Info: NONBONDED TABLE R-SQUARED SPACING: 0.0625
Info: NONBONDED TABLE SIZE: 705 POINTS
TCL: Running for 1500000 steps
ETITLE: TS BOND ANGLE DIHED IMPRP ELECT VDW BOUNDARY MISC KINETIC TOTAL TEMP POTENTIAL TOTALAVG TEMPAVG PRESSURE GPRESSURE VOLUME PRESSAVG GPRESSAVG
ENERGY: 0 0.9001 3.0828 0.8079 0.0000 -10654.3889 1329.5552 0.0000 0.0000 1805.0886 -7514.9542 304.1560 -9320.0428 -7514.9542 304.1560 -835.2498 -746.5828 30950.2670 -835.2498 -746.5828
ENERGY: 300000 4.4773 5.1032 0.2925 0.0000 -10893.0186 1508.7597 0.0000 0.0000 1740.0354 -7634.3504 293.1946 -9374.3858 -7590.5938 297.0372 357.6253 376.7865 30672.5479 -146.2291 -103.7096
ENERGY: 600000 4.0380 1.5238 0.7322 0.0000 -10790.2162 1382.7516 0.0000 0.0000 1831.6206 -7569.5500 308.6266 -9401.1706 -7587.1329 300.7538 -601.5887 -482.6024 30467.2922 -218.8266 -162.5208
ENERGY: 900000 0.6879 7.9851 0.2860 0.0000 -10821.1165 1453.6666 0.0000 0.0000 1752.6124 -7605.8786 295.3138 -9358.4910 -7590.3319 299.8826 50.1990 111.8226 30625.8122 -83.3555 -26.0321
ENERGY: 1200000 2.2526 1.5178 0.1205 0.0000 -10895.9404 1520.6056 0.0000 0.0000 1706.4180 -7665.0259 287.5301 -9371.4439 -7612.9891 297.1951 442.2711 481.9406 30654.5413 -117.6597 -57.5794
ENERGY: 1500000 0.6931 1.5043 1.1092 0.0000 -10767.1894 1432.1001 0.0000 0.0000 1821.2063 -7510.5764 306.8718 -9331.7827 -7598.1706 298.4232 5.8722 85.9708 30765.2407 -8.0042 51.2830
TCL: Exiting due to exit command.
