Info: SIMULATION PARAMETERS:
Info: TIMESTEP               2
Info: NUMBER OF STEPS        0
Info: STEPS PER CYCLE        10
Info: PERIODIC CELL BASIS 1  30.8003 0 0
Info: PERIODIC CELL BASIS 2  0 30.0203 0
Info: PERIODIC CELL BASIS 3  0 0 32.3065
Info: PERIODIC CELL CENTER   0 0 0
Info: WRAPPING WATERS AROUND PERIODIC BOUNDARIES ON OUTPUT.
Info: WRAPPING ALL CLUSTERS AROUND PERIODIC BOUNDARIES ON OUTPUT.
Info: FIRST LDB TIMESTEP     50
Info: LAST LDB TIMESTEP     -1
Info: HOM BACKGROUND SCALING 1
Info: PME BACKGROUND SCALING 1
Info: MIN ATOMS PER PATCH    40
Info: EMPTY PATCH LOAD       40 ATOMS
Info: VELOCITY FILE          mobley_8764620_equil.vel
Info: CENTER OF MASS MOVING INITIALLY? NO
Info: DIELECTRIC             1
Info: EXCLUDE                SCALED ONE-FOUR
Info: 1-4 ELECTROSTATICS SCALED BY 0.833333
Info: MODIFIED 1-4 VDW PARAMETERS WILL BE USED
Info: DCD FILENAME           mobley_8764620_prod.dcd
Info: DCD FREQUENCY          100000
Info: DCD FIRST STEP         100000
Info: DCD FILE WILL CONTAIN UNIT CELL DATA
Info: XST FILENAME           mobley_8764620_prod.xst
Info: XST FREQUENCY          100000
Info: NO VELOCITY DCD OUTPUT
Info: NO FORCE DCD OUTPUT
Info: OUTPUT FILENAME        mobley_8764620_prod
Info: BINARY OUTPUT FILES WILL BE USED
Info: RESTART FILENAME       mobley_8764620_prod.restart
Info: RESTART FREQUENCY      100000
Info: BINARY RESTART FILES WILL BE USED
Info: CUTOFF                 9
Info: PAIRLIST DISTANCE      11
Info: PAIRLIST SHRINK RATE   0.01
Info: PAIRLIST GROW RATE     0.01
Info: PAIRLIST TRIGGER       0.3
Info: PAIRLISTS PER CYCLE    2
Info: PAIRLISTS ENABLED
Info: MARGIN                 2
Info: HYDROGEN GROUP CUTOFF  2.5
Info: PATCH DIMENSION        15.5
Info: ENERGY OUTPUT STEPS    100000
Info: ENERGY EVALUATION STEPS    100000
Info: OUTPUT ENERGY PRECISION 4
Info: CROSSTERM ENERGY INCLUDED IN DIHEDRAL
Info: TIMING OUTPUT STEPS    1000000
Info: PRESSURE OUTPUT STEPS  100000
Info: ALCHEMICAL FEP ON
Info: FEP CURRENT LAMBDA VALUE     1
Info: FEP COMPARISON LAMBDA VALUE  0.95
Info: FEP INTRA-ALCHEMICAL NON-BONDED INTERACTIONS WILL BE RETAINED
Info: FEP INTRA-ALCHEMICAL BONDED INTERACTIONS WILL BE RETAINED
Info: FEP VDW SHIFTING COEFFICIENT 5
Info: FEP ELEC. ACTIVE FOR ANNIHILATED PARTICLES BETWEEN LAMBDA = 0 AND LAMBDA = 0.5
Info: FEP ELEC. ACTIVE FOR EXNIHILATED PARTICLES BETWEEN LAMBDA = 0.5 AND LAMBDA = 1
Info: FEP VDW ACTIVE FOR ANNIHILATED PARTICLES BETWEEN LAMBDA = 0 AND LAMBDA = 1
Info: FEP VDW ACTIVE FOR EXNIHILATED PARTICLES BETWEEN LAMBDA = 0 AND LAMBDA = 1
Info: FEP BOND ACTIVE FOR ANNIHILATED PARTICLES BETWEEN LAMBDA = 1 AND LAMBDA = 1
Info: FEP BOND ACTIVE FOR EXNIHILATED PARTICLES BETWEEN LAMBDA = 0 AND LAMBDA = 0
Info: LANGEVIN DYNAMICS ACTIVE
Info: LANGEVIN TEMPERATURE   300
Info: LANGEVIN USING BBK INTEGRATOR
Info: LANGEVIN DAMPING COEFFICIENT IS 1 INVERSE PS
Info: LANGEVIN DYNAMICS APPLIED TO HYDROGENS
Info: LANGEVIN PISTON PRESSURE CONTROL ACTIVE
Info:        TARGET PRESSURE IS 1.01325 BAR
Info:     OSCILLATION PERIOD IS 50 FS
Info:             DECAY TIME IS 25 FS
Info:     PISTON TEMPERATURE IS 300 K
Info:       PRESSURE CONTROL IS GROUP-BASED
Info:    INITIAL STRAIN RATE IS -0.000421018 -0.000421018 -0.000421018
Info:       CELL FLUCTUATION IS ISOTROPIC
Info: PARTICLE MESH EWALD (PME) ACTIVE
Info: PME TOLERANCE               1e-06
Info: PME EWALD COEFFICIENT       0.348832
Info: PME INTERPOLATION ORDER     4
Info: PME GRID DIMENSIONS         32 32 36
Info: PME MAXIMUM GRID SPACING    1
Info: PME CALCULATION WILL BE PERFORMED ON GPU
Info: FULL ELECTROSTATIC EVALUATION FREQUENCY      2
Info: USING VERLET I (r-RESPA) MTS SCHEME.
Info: C1 SPLITTING OF LONG RANGE ELECTROSTATICS
Info: PLACING ATOMS IN PATCHES BY HYDROGEN GROUPS
Info: RIGID BONDS TO HYDROGEN : ALL
Info:         ERROR TOLERANCE : 1e-08
Info:          MAX ITERATIONS : 100
Info: RIGID WATER USING SETTLE ALGORITHM
Info: RANDOM NUMBER SEED     1743555211
Info: USE HYDROGEN BONDS?    NO
Info: Using AMBER format force field!
Info: AMBER PARM FILE        mobley_8764620.prmtop
Info: COORDINATE PDB         mobley_8764620.pdb
Info: Exclusions will be read from PARM file!
Info: SCNB (VDW SCALING)     2
Info: USING ARITHMETIC MEAN TO COMBINE L-J SIGMA PARAMETERS
Info: BINARY COORDINATES     mobley_8764620_equil.coor
Info: SUMMARY OF PARAMETERS:
Info: 8 BONDS
Info: 8 ANGLES
Info:   8 HARMONIC
Info:   0 COSINE-BASED
Info: 4 DIHEDRAL
Info: 0 IMPROPER
Info: 0 CROSSTERM
Info: 0 VDW
Info: 28 VDW_PAIRS
Info: 0 NBTHOLE_PAIRS
Info: To read alchdata from file: mobley_8764620.pdb
Info: To read alchflag data from column: 5
Info: STRUCTURE SUMMARY:
Info: 2931 ATOMS
Info: 2931 BONDS
Info: 17 ANGLES
Info: 27 DIHEDRALS
Info: 0 IMPROPERS
Info: 0 CROSSTERMS
Info: 2967 EXCLUSIONS
Info: 2923 RIGID BONDS
Info: ALCH: 0 ATOMS TO DISAPPEAR IN FINAL STATE
Info: ALCH: 12 ATOMS TO APPEAR IN FINAL STATE
Info: 5870 DEGREES OF FREEDOM
Info: 981 HYDROGEN GROUPS
Info: 3 ATOMS IN LARGEST HYDROGEN GROUP
Info: 981 MIGRATION GROUPS
Info: 3 ATOMS IN LARGEST MIGRATION GROUP
Info: TOTAL MASS = 17633.7 amu
Info: TOTAL CHARGE = 9.99831e-05 e
Info: MASS DENSITY = 0.980264 g/cm^3
Info: ATOM DENSITY = 0.0981198 atoms/A^3
Info: ADDED 0 IMPLICIT EXCLUSIONS
Info: NONBONDED TABLE R-SQUARED SPACING: 0.0625
Info: NONBONDED TABLE SIZE: 705 POINTS
Info: REMOVING COM VELOCITY -0.0334059 0.0204662 0.11488
Info: Use 3D box decompostion in PME FFT.
Info: Updated CUDA force table with 4096 elements.
Info: Updated CUDA LJ table with 7 x 7 elements.
Info: Found 15 unique exclusion lists needing 28 bytes
TCL: Running for 1500000 steps
ETITLE: TS BOND ANGLE DIHED IMPRP ELECT VDW BOUNDARY MISC KINETIC TOTAL TEMP POTENTIAL TOTALAVG TEMPAVG PRESSURE GPRESSURE VOLUME PRESSAVG GPRESSAVG
ENERGY: 0 5.0636 5.8816 2.3112 0.0000 -10759.8112 1527.3776 0.0000 0.0000 1749.1083 -7470.0688 299.8948 -9219.1771 -7470.0688 299.8948 1036.8347 1120.3005 29871.6432 1036.8347 1120.3005
ENERGY: 300000 3.0156 3.1145 2.8706 0.0000 -10529.6554 1359.8188 0.0000 0.0000 1724.2952 -7436.5408 295.6405 -9160.8360 -7438.4337 300.2772 -291.1361 -232.5268 30326.7358 321.1609 397.6911
ENERGY: 600000 1.1854 3.3142 3.5123 0.0000 -10631.5675 1384.0030 0.0000 0.0000 1784.7342 -7454.8184 306.0031 -9239.5526 -7431.6066 301.8550 -726.2347 -619.8470 30788.8807 -9.9898 77.1229
ENERGY: 900000 1.1990 4.2475 1.6058 0.0000 -10792.5933 1564.4736 0.0000 0.0000 1779.3402 -7441.7273 305.0783 -9221.0675 -7447.0696 300.4853 1039.5121 1037.9240 30325.0081 114.9233 191.3544
ENERGY: 1200000 1.3263 3.8030 1.6654 0.0000 -10596.1398 1335.0142 0.0000 0.0000 1758.0367 -7496.2941 301.4257 -9254.3308 -7468.5819 299.6106 -870.6691 -794.7407 30199.7374 81.5013 152.2829
ENERGY: 1500000 3.1676 2.7557 2.9241 0.0000 -10721.0482 1471.4070 0.0000 0.0000 1688.5706 -7552.2232 289.5153 -9240.7938 -7475.0016 299.1253 230.5493 269.9885 29993.6264 -9.0595 61.2268
TCL: Running FEP window   2: Lambda1 0.95   Lambda2 0.8999999999999999 [dLambda -0.050000000000000044]
TCL: Setting parameter firsttimestep to 0
TCL: Setting parameter alchLambda to 0.95
Info: NONBONDED TABLE R-SQUARED SPACING: 0.0625
Info: NONBONDED TABLE SIZE: 705 POINTS
TCL: Setting parameter alchLambda2 to 0.8999999999999999
Info: NONBONDED TABLE R-SQUARED SPACING: 0.0625
Info: NONBONDED TABLE SIZE: 705 POINTS
TCL: Running for 1500000 steps
ETITLE: TS BOND ANGLE DIHED IMPRP ELECT VDW BOUNDARY MISC KINETIC TOTAL TEMP POTENTIAL TOTALAVG TEMPAVG PRESSURE GPRESSURE VOLUME PRESSAVG GPRESSAVG
ENERGY: 0 3.1676 2.7557 2.9241 0.0000 -10719.2267 1469.8027 0.0000 0.0000 1687.7250 -7552.8516 289.3703 -9240.5766 -7552.8516 289.3703 156.8238 241.5975 29993.6264 156.8238 241.5975
ENERGY: 300000 3.1557 6.0384 1.1316 0.0000 -10738.4693 1450.2419 0.0000 0.0000 1750.6644 -7527.2373 300.1616 -9277.9017 -7511.5120 294.8933 76.5598 164.9309 30069.2709 14.5750 92.9871
ENERGY: 600000 2.3945 3.1260 1.3282 0.0000 -10622.6145 1382.1081 0.0000 0.0000 1724.6524 -7509.0052 295.7017 -9233.6575 -7499.5393 296.0468 -155.3557 -89.4217 30158.3075 19.1428 86.6883
ENERGY: 900000 2.9391 3.1117 1.3088 0.0000 -10629.9414 1421.5646 0.0000 0.0000 1733.8489 -7467.1682 297.2785 -9201.0171 -7489.5431 296.3503 49.3178 61.1646 30440.2210 -21.2858 45.3419
ENERGY: 1200000 3.9387 1.7427 0.3568 0.0000 -10604.9801 1383.8570 0.0000 0.0000 1719.3697 -7495.7151 294.7960 -9215.0848 -7484.0933 297.7810 -378.3447 -294.7776 29989.4913 -47.2534 22.3977
ENERGY: 1500000 4.1545 3.6028 1.2010 0.0000 -10571.5267 1413.5689 0.0000 0.0000 1703.6784 -7445.3212 292.1056 -9148.9996 -7485.7901 297.6382 160.6787 216.7477 30162.2425 -29.1336 38.3531
TCL: Running FEP window   3: Lambda1 0.8999999999999999 Lambda2 0.8499999999999999 [dLambda -0.050000000000000044]
TCL: Setting parameter firsttimestep to 0
TCL: Setting parameter alchLambda to 0.8999999999999999
Info: NONBONDED TABLE R-SQUARED SPACING: 0.0625
Info: NONBONDED TABLE SIZE: 705 POINTS
TCL: Setting parameter alchLambda2 to 0.8499999999999999
Info: NONBONDED TABLE R-SQUARED SPACING: 0.0625
Info: NONBONDED TABLE SIZE: 705 POINTS
TCL: Running for 1500000 steps
ETITLE: TS BOND ANGLE DIHED IMPRP ELECT VDW BOUNDARY MISC KINETIC TOTAL TEMP POTENTIAL TOTALAVG TEMPAVG PRESSURE GPRESSURE VOLUME PRESSAVG GPRESSAVG
ENERGY: 0 4.1545 3.6028 1.2010 0.0000 -10570.9431 1414.0028 0.0000 0.0000 1702.8810 -7445.1011 291.9689 -9147.9820 -7445.1011 291.9689 134.0195 211.6579 30162.2425 134.0195 211.6579
ENERGY: 300000 2.9072 6.5880 1.2971 0.0000 -10727.8361 1401.8922 0.0000 0.0000 1796.6588 -7518.4930 308.0476 -9315.1518 -7472.1576 301.1077 -184.4269 -99.6130 29835.4688 -276.6788 -236.7247
ENERGY: 600000 2.9942 2.3637 2.7239 0.0000 -10725.4170 1479.7700 0.0000 0.0000 1771.7673 -7465.7979 303.7798 -9237.5652 -7478.5134 301.1581 505.1476 489.5646 29962.9710 -71.4564 -35.3397
ENERGY: 900000 2.8568 5.2125 3.5499 0.0000 -10807.3632 1514.4435 0.0000 0.0000 1725.8050 -7555.4954 295.8993 -9281.3004 -7488.0763 300.4754 706.9784 697.8110 29932.8458 -83.0136 -50.7838
ENERGY: 1200000 4.7519 1.1386 1.0525 0.0000 -10700.7652 1506.0514 0.0000 0.0000 1742.9747 -7444.7960 298.8432 -9187.7708 -7479.0672 299.5110 673.1077 724.7594 29958.6499 26.1776 56.3387
ENERGY: 1500000 0.8931 1.0211 0.8750 0.0000 -10632.9623 1445.0300 0.0000 0.0000 1756.0082 -7429.1349 301.0779 -9185.1430 -7472.9892 299.9421 58.2793 145.6337 30332.2380 -50.2576 -15.3015
TCL: Running FEP window   4: Lambda1 0.8499999999999999 Lambda2 0.7999999999999998 [dLambda -0.050000000000000044]
TCL: Setting parameter firsttimestep to 0
TCL: Setting parameter alchLambda to 0.8499999999999999
Info: NONBONDED TABLE R-SQUARED SPACING: 0.0625
Info: NONBONDED TABLE SIZE: 705 POINTS
TCL: Setting parameter alchLambda2 to 0.7999999999999998
Info: NONBONDED TABLE R-SQUARED SPACING: 0.0625
Info: NONBONDED TABLE SIZE: 705 POINTS
TCL: Running for 1500000 steps
ETITLE: TS BOND ANGLE DIHED IMPRP ELECT VDW BOUNDARY MISC KINETIC TOTAL TEMP POTENTIAL TOTALAVG TEMPAVG PRESSURE GPRESSURE VOLUME PRESSAVG GPRESSAVG
ENERGY: 0 0.8931 1.0211 0.8750 0.0000 -10631.2561 1444.3026 0.0000 0.0000 1755.1189 -7429.0454 300.9254 -9184.1642 -7429.0454 300.9254 49.6839 129.3832 30332.2380 49.6839 129.3832
ENERGY: 300000 1.9152 2.3422 3.7617 0.0000 -10677.1620 1423.8407 0.0000 0.0000 1714.1728 -7531.1294 293.9049 -9245.3023 -7483.7037 298.8016 -162.1618 -112.8293 30312.1513 62.2548 140.3227
ENERGY: 600000 4.8416 1.4356 1.8710 0.0000 -10554.7924 1373.0410 0.0000 0.0000 1780.6515 -7392.9517 305.3031 -9173.6032 -7443.4054 301.5045 -386.1867 -289.6904 29944.5142 33.3737 98.6889
ENERGY: 900000 2.7957 4.3610 2.1322 0.0000 -10528.1144 1365.0427 0.0000 0.0000 1727.1147 -7426.6682 296.1239 -9153.7829 -7446.6096 301.7437 -441.0250 -384.2707 30261.8870 116.2197 171.7875
ENERGY: 1200000 4.0314 3.1555 0.8391 0.0000 -10577.6596 1350.5173 0.0000 0.0000 1800.7030 -7418.4133 308.7411 -9219.1163 -7441.9855 301.6681 -790.8134 -776.5939 30271.1525 43.4891 93.8510
ENERGY: 1500000 3.2712 2.1545 2.4780 0.0000 -10665.0299 1453.7074 0.0000 0.0000 1813.7510 -7389.6679 310.9782 -9203.4189 -7441.0465 302.3095 83.6323 171.5354 30335.1021 87.1665 138.4059
TCL: Running FEP window   5: Lambda1 0.7999999999999998 Lambda2 0.7499999999999998 [dLambda -0.050000000000000044]
TCL: Setting parameter firsttimestep to 0
TCL: Setting parameter alchLambda to 0.7999999999999998
Info: NONBONDED TABLE R-SQUARED SPACING: 0.0625
Info: NONBONDED TABLE SIZE: 705 POINTS
TCL: Setting parameter alchLambda2 to 0.7499999999999998
Info: NONBONDED TABLE R-SQUARED SPACING: 0.0625
Info: NONBONDED TABLE SIZE: 705 POINTS
TCL: Running for 1500000 steps
ETITLE: TS BOND ANGLE DIHED IMPRP ELECT VDW BOUNDARY MISC KINETIC TOTAL TEMP POTENTIAL TOTALAVG TEMPAVG PRESSURE GPRESSURE VOLUME PRESSAVG GPRESSAVG
ENERGY: 0 3.2712 2.1545 2.4780 0.0000 -10663.5103 1453.7504 0.0000 0.0000 1812.8794 -7388.9769 310.8288 -9201.8563 -7388.9769 310.8288 83.2958 166.7882 30335.1021 83.2958 166.7882
ENERGY: 300000 1.1988 2.3885 1.5182 0.0000 -10662.0288 1453.8809 0.0000 0.0000 1735.5147 -7467.5277 297.5641 -9203.0424 -7439.7973 304.4724 -40.9846 83.9584 30451.7179 322.8576 392.4184
ENERGY: 600000 5.0758 2.1863 2.1085 0.0000 -10666.8962 1431.7730 0.0000 0.0000 1777.8067 -7447.9458 304.8153 -9225.7526 -7445.5458 303.0815 74.6369 141.6680 29755.0044 74.0338 132.9799
ENERGY: 900000 2.1336 2.8377 1.7107 0.0000 -10483.3807 1340.0833 0.0000 0.0000 1736.9727 -7399.6427 297.8141 -9136.6154 -7434.8737 303.0215 -578.8148 -564.8955 30742.8502 -11.5441 45.1217
ENERGY: 1200000 1.3489 4.7199 2.7698 0.0000 -10558.6615 1394.0153 0.0000 0.0000 1741.0137 -7414.7938 298.5070 -9155.8075 -7423.7531 303.8674 185.3287 255.7435 29943.6763 25.3197 84.0266
ENERGY: 1500000 2.1761 2.3234 1.1780 0.0000 -10655.3075 1425.8756 0.0000 0.0000 1728.5338 -7495.2206 296.3672 -9223.7545 -7429.5575 303.3514 -91.4035 -18.5259 30405.1263 -26.4423 30.6289
TCL: Running FEP window   6: Lambda1 0.7499999999999998 Lambda2 0.6999999999999997 [dLambda -0.050000000000000044]
TCL: Setting parameter firsttimestep to 0
TCL: Setting parameter alchLambda to 0.7499999999999998
Info: NONBONDED TABLE R-SQUARED SPACING: 0.0625
Info: NONBONDED TABLE SIZE: 705 POINTS
TCL: Setting parameter alchLambda2 to 0.6999999999999997
Info: NONBONDED TABLE R-SQUARED SPACING: 0.0625
Info: NONBONDED TABLE SIZE: 705 POINTS
TCL: Running for 1500000 steps
ETITLE: TS BOND ANGLE DIHED IMPRP ELECT VDW BOUNDARY MISC KINETIC TOTAL TEMP POTENTIAL TOTALAVG TEMPAVG PRESSURE GPRESSURE VOLUME PRESSAVG GPRESSAVG
ENERGY: 0 2.1761 2.3234 1.1780 0.0000 -10654.8176 1425.1315 0.0000 0.0000 1727.6663 -7496.3423 296.2185 -9224.0086 -7496.3423 296.2185 -131.7361 -36.4093 30405.1263 -131.7361 -36.4093
ENERGY: 300000 3.9484 1.6615 2.7569 0.0000 -10756.7408 1470.8346 0.0000 0.0000 1727.9127 -7549.6267 296.2607 -9277.5394 -7491.7522 299.2341 0.1340 82.9500 30180.9009 -63.7091 21.3328
ENERGY: 600000 6.5763 4.7283 5.1555 0.0000 -10583.2641 1413.9892 0.0000 0.0000 1762.9893 -7389.8255 302.2748 -9152.8148 -7489.6126 299.0379 -450.1690 -270.0705 30658.1965 -232.8255 -153.1035
ENERGY: 900000 4.7915 4.0053 1.4763 0.0000 -10669.4739 1494.8940 0.0000 0.0000 1776.8566 -7387.4502 304.6524 -9164.3068 -7485.7846 299.4363 703.7292 824.2438 29818.0252 -142.3869 -66.8504
ENERGY: 1200000 3.6058 5.0953 1.2779 0.0000 -10776.8228 1510.9250 0.0000 0.0000 1695.7157 -7560.2031 290.7404 -9255.9188 -7487.6343 298.7042 636.1924 752.9688 29689.1084 -63.6969 0.4204
ENERGY: 1500000 2.0451 1.3110 1.9758 0.0000 -10746.7856 1467.8019 0.0000 0.0000 1725.8755 -7547.7761 295.9114 -9273.6517 -7486.1548 299.0353 57.4398 97.9243 30125.2395 -10.2882 55.7318
TCL: Running FEP window   7: Lambda1 0.6999999999999997 Lambda2 0.6499999999999997 [dLambda -0.050000000000000044]
TCL: Setting parameter firsttimestep to 0
TCL: Setting parameter alchLambda to 0.6999999999999997
Info: NONBONDED TABLE R-SQUARED SPACING: 0.0625
Info: NONBONDED TABLE SIZE: 705 POINTS
TCL: Setting parameter alchLambda2 to 0.6499999999999997
Info: NONBONDED TABLE R-SQUARED SPACING: 0.0625
Info: NONBONDED TABLE SIZE: 705 POINTS
TCL: Running for 1500000 steps
ETITLE: TS BOND ANGLE DIHED IMPRP ELECT VDW BOUNDARY MISC KINETIC TOTAL TEMP POTENTIAL TOTALAVG TEMPAVG PRESSURE GPRESSURE VOLUME PRESSAVG GPRESSAVG
ENERGY: 0 2.0451 1.3110 1.9758 0.0000 -10746.5635 1468.1570 0.0000 0.0000 1725.0313 -7548.0433 295.7667 -9273.0746 -7548.0433 295.7667 14.7089 91.3745 30125.2395 14.7089 91.3745
ENERGY: 300000 1.7184 3.0301 2.8268 0.0000 -10718.0301 1446.4752 0.0000 0.0000 1755.6033 -7508.3763 301.0084 -9263.9796 -7487.5547 300.9118 -96.0342 -38.0176 30120.0310 -231.1315 -148.3070
ENERGY: 600000 2.0446 3.0636 0.9259 0.0000 -10640.9401 1402.7932 0.0000 0.0000 1752.6868 -7479.4260 300.5084 -9232.1127 -7481.0963 300.5214 -518.8262 -474.7348 30557.9040 -366.8941 -295.0245
ENERGY: 900000 2.5544 3.7299 2.9865 0.0000 -10544.1563 1404.0587 0.0000 0.0000 1779.3385 -7351.4882 305.0780 -9130.8267 -7469.0829 300.3821 220.4421 309.6438 30091.4453 -217.0313 -138.8516
ENERGY: 1200000 1.2833 3.1304 1.6048 0.0000 -10478.7660 1387.8705 0.0000 0.0000 1731.6468 -7353.2302 296.9010 -9084.8770 -7450.6715 300.4378 85.7280 155.7168 30339.3770 -204.0057 -127.6450
ENERGY: 1500000 5.2682 2.2033 3.0559 0.0000 -10620.5515 1367.7920 0.0000 0.0000 1756.6990 -7485.5331 301.1963 -9242.2321 -7450.6426 299.7693 -737.6500 -783.2363 30417.5035 -287.6943 -209.9802
TCL: Running FEP window   8: Lambda1 0.6499999999999997 Lambda2 0.5999999999999996 [dLambda -0.050000000000000044]
TCL: Setting parameter firsttimestep to 0
TCL: Setting parameter alchLambda to 0.6499999999999997
Info: NONBONDED TABLE R-SQUARED SPACING: 0.0625
Info: NONBONDED TABLE SIZE: 705 POINTS
TCL: Setting parameter alchLambda2 to 0.5999999999999996
Info: NONBONDED TABLE R-SQUARED SPACING: 0.0625
Info: NONBONDED TABLE SIZE: 705 POINTS
TCL: Running for 1500000 steps
ETITLE: TS BOND ANGLE DIHED IMPRP ELECT VDW BOUNDARY MISC KINETIC TOTAL TEMP POTENTIAL TOTALAVG TEMPAVG PRESSURE GPRESSURE VOLUME PRESSAVG GPRESSAVG
ENERGY: 0 5.2682 2.2033 3.0559 0.0000 -10620.0830 1368.0984 0.0000 0.0000 1755.8665 -7485.5908 301.0536 -9241.4572 -7485.5908 301.0536 -865.1269 -786.9598 30417.5035 -865.1269 -786.9598
ENERGY: 300000 3.4176 2.5262 3.0577 0.0000 -10698.2729 1426.2501 0.0000 0.0000 1760.2096 -7502.8116 301.7982 -9263.0212 -7484.4053 300.1903 -86.4613 -51.2459 29755.8361 -78.3098 -24.0827
ENERGY: 600000 3.4525 1.3412 1.2551 0.0000 -10598.1521 1401.3002 0.0000 0.0000 1813.7629 -7377.0402 310.9802 -9190.8031 -7466.9985 299.4159 -128.5726 -167.7064 30320.2141 -176.2705 -128.8767
ENERGY: 900000 1.4471 2.5342 0.8732 0.0000 -10589.0814 1397.0973 0.0000 0.0000 1795.2052 -7391.9244 307.7984 -9187.1296 -7448.8772 300.5394 -137.0225 -95.8465 30208.9504 -166.4669 -107.8603
ENERGY: 1200000 1.5686 3.4475 3.0938 0.0000 -10738.5901 1428.4998 0.0000 0.0000 1705.2733 -7596.7072 292.3791 -9301.9805 -7459.8351 299.7841 -302.1040 -268.3852 29937.2604 -179.3862 -125.0265
ENERGY: 1500000 6.6902 2.9566 1.5287 0.0000 -10658.9713 1394.4637 0.0000 0.0000 1744.5212 -7508.8109 299.1083 -9253.3320 -7455.6040 299.9228 -460.2822 -458.6093 30049.4221 -211.1637 -164.4172
TCL: Running FEP window   9: Lambda1 0.5999999999999996 Lambda2 0.5499999999999996 [dLambda -0.050000000000000044]
TCL: Setting parameter firsttimestep to 0
TCL: Setting parameter alchLambda to 0.5999999999999996
Info: NONBONDED TABLE R-SQUARED SPACING: 0.0625
Info: NONBONDED TABLE SIZE: 705 POINTS
TCL: Setting parameter alchLambda2 to 0.5499999999999996
Info: NONBONDED TABLE R-SQUARED SPACING: 0.0625
Info: NONBONDED TABLE SIZE: 705 POINTS
TCL: Running for 1500000 steps
ETITLE: TS BOND ANGLE DIHED IMPRP ELECT VDW BOUNDARY MISC KINETIC TOTAL TEMP POTENTIAL TOTALAVG TEMPAVG PRESSURE GPRESSURE VOLUME PRESSAVG GPRESSAVG
ENERGY: 0 6.6902 2.9566 1.5287 0.0000 -10658.0679 1394.8328 0.0000 0.0000 1743.6303 -7508.4292 298.9556 -9252.0595 -7508.4292 298.9556 -552.4131 -459.8549 30049.4221 -552.4131 -459.8549
ENERGY: 300000 3.5045 3.0139 2.7540 0.0000 -10630.5802 1467.0035 0.0000 0.0000 1761.2849 -7393.0194 301.9826 -9154.3043 -7424.9592 299.5053 272.9571 298.2428 30341.2235 -73.8836 -36.5339
ENERGY: 600000 1.9137 1.8786 2.9296 0.0000 -10734.1476 1417.7603 0.0000 0.0000 1694.8959 -7614.7694 290.5998 -9309.6653 -7443.5816 301.0834 -627.0836 -588.4623 30192.3286 -187.5665 -143.8035
ENERGY: 900000 2.2604 5.3057 1.2322 0.0000 -10652.9881 1407.6375 0.0000 0.0000 1771.9482 -7464.6041 303.8109 -9236.5523 -7458.3705 301.7250 -354.2452 -270.4031 30087.6761 -169.1240 -111.7520
ENERGY: 1200000 3.9555 3.7379 1.9465 0.0000 -10767.3780 1498.5458 0.0000 0.0000 1751.6953 -7507.4971 300.3384 -9259.1924 -7465.0156 300.3031 440.2691 410.2562 30379.7922 -158.0118 -103.9766
ENERGY: 1500000 2.0087 4.5127 2.2936 0.0000 -10658.0398 1453.1491 0.0000 0.0000 1744.6545 -7451.4212 299.1312 -9196.0758 -7461.0323 299.9383 514.0794 555.9446 29949.7164 -105.6320 -49.6181
TCL: Running FEP window  10: Lambda1 0.5499999999999996 Lambda2 0.4999999999999996 [dLambda -0.04999999999999999]
TCL: Setting parameter firsttimestep to 0
TCL: Setting parameter alchLambda to 0.5499999999999996
Info: NONBONDED TABLE R-SQUARED SPACING: 0.0625
Info: NONBONDED TABLE SIZE: 705 POINTS
TCL: Setting parameter alchLambda2 to 0.4999999999999996
Info: NONBONDED TABLE R-SQUARED SPACING: 0.0625
Info: NONBONDED TABLE SIZE: 705 POINTS
TCL: Running for 1500000 steps
ETITLE: TS BOND ANGLE DIHED IMPRP ELECT VDW BOUNDARY MISC KINETIC TOTAL TEMP POTENTIAL TOTALAVG TEMPAVG PRESSURE GPRESSURE VOLUME PRESSAVG GPRESSAVG
ENERGY: 0 2.0087 4.5127 2.2936 0.0000 -10657.5813 1453.3330 0.0000 0.0000 1743.7554 -7451.6780 298.9770 -9195.4333 -7451.6780 298.9770 451.1732 551.7577 29949.7164 451.1732 551.7577
ENERGY: 300000 2.4052 2.8667 3.8648 0.0000 -10583.1260 1362.0125 0.0000 0.0000 1738.0298 -7473.9471 297.9954 -9211.9769 -7442.6679 300.6420 -746.4552 -648.4649 30326.5201 100.0544 167.4174
ENERGY: 600000 3.6650 2.7576 2.9904 0.0000 -10590.3915 1389.8511 0.0000 0.0000 1768.3211 -7422.8063 303.1890 -9191.1274 -7449.9735 300.1382 -281.1845 -187.3646 30394.2576 46.6198 128.2681
ENERGY: 900000 2.2801 3.3315 3.3942 0.0000 -10791.4262 1549.7260 0.0000 0.0000 1737.2453 -7495.4490 297.8609 -9232.6943 -7455.7012 300.8597 898.2088 910.9453 29718.6239 63.8308 131.2985
ENERGY: 1200000 1.1714 3.8940 2.1086 0.0000 -10603.6768 1383.5700 0.0000 0.0000 1714.0551 -7498.8778 293.8848 -9212.9329 -7455.5415 300.8561 -351.7246 -254.7061 29947.9811 -21.7001 46.0873
ENERGY: 1500000 2.9125 1.4311 1.5279 0.0000 -10598.2016 1380.6205 0.0000 0.0000 1728.8197 -7482.8900 296.4162 -9211.7097 -7450.7194 300.8006 -505.5202 -412.0327 29952.4976 42.5436 112.0436
TCL: Running FEP window  11: Lambda1 0.4999999999999996 Lambda2 0.4499999999999996 [dLambda -0.04999999999999999]
TCL: Setting parameter firsttimestep to 0
TCL: Setting parameter alchLambda to 0.4999999999999996
Info: NONBONDED TABLE R-SQUARED SPACING: 0.0625
Info: NONBONDED TABLE SIZE: 705 POINTS
TCL: Setting parameter alchLambda2 to 0.4499999999999996
Info: NONBONDED TABLE R-SQUARED SPACING: 0.0625
Info: NONBONDED TABLE SIZE: 705 POINTS
TCL: Running for 1500000 steps
ETITLE: TS BOND ANGLE DIHED IMPRP ELECT VDW BOUNDARY MISC KINETIC TOTAL TEMP POTENTIAL TOTALAVG TEMPAVG PRESSURE GPRESSURE VOLUME PRESSAVG GPRESSAVG
ENERGY: 0 2.9125 1.4311 1.5279 0.0000 -10597.9710 1380.9288 0.0000 0.0000 1727.9110 -7483.2596 296.2604 -9211.1707 -7483.2596 296.2604 -500.1430 -415.6547 29952.4976 -500.1430 -415.6547
ENERGY: 300000 1.8956 3.5911 1.8431 0.0000 -10602.6049 1402.2015 0.0000 0.0000 1738.9603 -7454.1132 298.1549 -9193.0735 -7481.7406 297.0691 -86.8892 -40.2170 30183.9923 -529.2184 -468.5439
ENERGY: 600000 3.5785 2.7583 4.2669 0.0000 -10655.4663 1487.1975 0.0000 0.0000 1752.6759 -7404.9892 300.5065 -9157.6651 -7449.1570 299.7311 588.7655 678.0025 30340.0849 -348.5000 -284.4657
ENERGY: 900000 2.0925 2.3226 3.0878 0.0000 -10553.6460 1395.6907 0.0000 0.0000 1798.3001 -7352.1524 308.3290 -9150.4525 -7430.2908 301.9927 -88.7695 -32.9100 30257.5694 -249.5069 -197.4464
ENERGY: 1200000 0.8955 3.3791 3.9589 0.0000 -10509.8647 1416.6961 0.0000 0.0000 1788.4503 -7296.4849 306.6403 -9084.9352 -7422.6153 301.9346 -65.8133 -45.6322 30725.1295 -221.1331 -176.6706
ENERGY: 1500000 2.2000 3.2953 3.9744 0.0000 -10669.6772 1400.7798 0.0000 0.0000 1736.3764 -7523.0513 297.7119 -9259.4277 -7434.2023 302.0382 -140.8634 -129.6750 29910.7962 -227.2382 -184.8206
TCL: Running FEP window  12: Lambda1 0.4499999999999996 Lambda2 0.39999999999999963 [dLambda -0.04999999999999999]
TCL: Setting parameter firsttimestep to 0
TCL: Setting parameter alchLambda to 0.4499999999999996
Info: NONBONDED TABLE R-SQUARED SPACING: 0.0625
Info: NONBONDED TABLE SIZE: 705 POINTS
TCL: Setting parameter alchLambda2 to 0.39999999999999963
Info: NONBONDED TABLE R-SQUARED SPACING: 0.0625
Info: NONBONDED TABLE SIZE: 705 POINTS
TCL: Running for 1500000 steps
ETITLE: TS BOND ANGLE DIHED IMPRP ELECT VDW BOUNDARY MISC KINETIC TOTAL TEMP POTENTIAL TOTALAVG TEMPAVG PRESSURE GPRESSURE VOLUME PRESSAVG GPRESSAVG
ENERGY: 0 2.2000 3.2953 3.9744 0.0000 -10669.6789 1401.3140 0.0000 0.0000 1735.5219 -7523.3732 297.5654 -9258.8951 -7523.3732 297.5654 -211.6397 -133.7657 29910.7962 -211.6397 -133.7657
ENERGY: 300000 1.9428 2.4199 1.9032 0.0000 -10600.0200 1385.7876 0.0000 0.0000 1753.3369 -7454.6296 300.6198 -9207.9665 -7459.0303 299.5487 -569.8705 -453.8605 30301.6764 -261.3164 -191.9141
ENERGY: 600000 2.4694 2.8018 2.0531 0.0000 -10684.4293 1404.9312 0.0000 0.0000 1760.3357 -7511.8381 301.8198 -9272.1738 -7463.9112 298.7899 -460.2616 -432.7465 30342.5733 -186.9281 -130.3891
ENERGY: 900000 3.5246 4.7018 1.0013 0.0000 -10515.6790 1357.4447 0.0000 0.0000 1780.3524 -7368.6543 305.2518 -9149.0067 -7447.8874 298.9604 -389.6593 -289.9048 30037.4952 -70.0919 -1.9264
ENERGY: 1200000 3.4868 1.8700 2.0053 0.0000 -10652.6772 1412.7077 0.0000 0.0000 1808.1806 -7424.4269 310.0231 -9232.6075 -7436.0409 300.4041 -272.8065 -227.0623 30294.5981 -35.6263 30.9846
ENERGY: 1500000 2.4713 3.2516 2.1902 0.0000 -10639.9095 1397.8535 0.0000 0.0000 1691.4659 -7542.6769 290.0117 -9234.1428 -7438.8683 299.6810 -544.2166 -546.9558 30116.5946 -143.8746 -78.8898
TCL: Running FEP window  13: Lambda1 0.39999999999999963 Lambda2 0.34999999999999964 [dLambda -0.04999999999999999]
TCL: Setting parameter firsttimestep to 0
TCL: Setting parameter alchLambda to 0.39999999999999963
Info: NONBONDED TABLE R-SQUARED SPACING: 0.0625
Info: NONBONDED TABLE SIZE: 705 POINTS
TCL: Setting parameter alchLambda2 to 0.34999999999999964
Info: NONBONDED TABLE R-SQUARED SPACING: 0.0625
Info: NONBONDED TABLE SIZE: 705 POINTS
TCL: Running for 1500000 steps
ETITLE: TS BOND ANGLE DIHED IMPRP ELECT VDW BOUNDARY MISC KINETIC TOTAL TEMP POTENTIAL TOTALAVG TEMPAVG PRESSURE GPRESSURE VOLUME PRESSAVG GPRESSAVG
ENERGY: 0 2.4713 3.2516 2.1902 0.0000 -10639.9086 1398.2605 0.0000 0.0000 1690.6450 -7543.0899 289.8710 -9233.7350 -7543.0899 289.8710 -625.6778 -549.7834 30116.5946 -625.6778 -549.7834
ENERGY: 300000 1.8971 4.4416 1.8916 0.0000 -10696.5029 1444.5152 0.0000 0.0000 1754.2542 -7489.5032 300.7771 -9243.7574 -7421.9533 299.8100 -135.3609 -69.8085 29996.9590 -64.6107 -2.9762
ENERGY: 600000 2.0507 2.0372 0.7265 0.0000 -10671.4362 1409.2464 0.0000 0.0000 1783.8178 -7473.5577 305.8460 -9257.3754 -7428.6701 300.2426 -0.6849 83.1260 29437.2811 -194.4460 -122.8938
ENERGY: 900000 6.6704 2.9654 1.0689 0.0000 -10648.6459 1408.1522 0.0000 0.0000 1794.3083 -7435.4807 307.6446 -9229.7890 -7435.8757 300.4694 -455.5814 -366.1524 29989.6164 -174.2993 -103.6671
ENERGY: 1200000 2.3216 2.7955 5.2053 0.0000 -10570.4187 1336.2995 0.0000 0.0000 1703.2513 -7520.5455 292.0324 -9223.7968 -7439.4559 299.7678 -897.6625 -833.3878 30280.2671 -222.4396 -150.1034
ENERGY: 1500000 2.0588 1.9268 1.5879 0.0000 -10642.8058 1388.7689 0.0000 0.0000 1720.7785 -7527.6849 295.0375 -9248.4634 -7438.3050 300.0375 -413.3991 -383.5165 30206.6575 -192.0626 -126.1421
TCL: Running FEP window  14: Lambda1 0.34999999999999964 Lambda2 0.29999999999999966 [dLambda -0.04999999999999999]
TCL: Setting parameter firsttimestep to 0
TCL: Setting parameter alchLambda to 0.34999999999999964
Info: NONBONDED TABLE R-SQUARED SPACING: 0.0625
Info: NONBONDED TABLE SIZE: 705 POINTS
TCL: Setting parameter alchLambda2 to 0.29999999999999966
Info: NONBONDED TABLE R-SQUARED SPACING: 0.0625
Info: NONBONDED TABLE SIZE: 705 POINTS
TCL: Running for 1500000 steps
ETITLE: TS BOND ANGLE DIHED IMPRP ELECT VDW BOUNDARY MISC KINETIC TOTAL TEMP POTENTIAL TOTALAVG TEMPAVG PRESSURE GPRESSURE VOLUME PRESSAVG GPRESSAVG
ENERGY: 0 2.0588 1.9268 1.5879 0.0000 -10642.8076 1389.2361 0.0000 0.0000 1719.8971 -7528.1009 294.8864 -9247.9980 -7528.1009 294.8864 -468.6718 -384.7724 30206.6575 -468.6718 -384.7724
ENERGY: 300000 3.7624 3.5331 2.9055 0.0000 -10659.4887 1445.0553 0.0000 0.0000 1763.9360 -7440.2964 302.4371 -9204.2324 -7466.7058 297.1752 83.3978 91.8599 30236.8577 -54.9809 -16.0482
ENERGY: 600000 2.4430 2.7936 3.2712 0.0000 -10640.2856 1451.0457 0.0000 0.0000 1739.7546 -7440.9775 298.2911 -9180.7321 -7455.2455 298.4636 -126.3782 -46.5985 30535.5436 35.4517 85.7250
ENERGY: 900000 2.1187 2.1488 3.3682 0.0000 -10719.6296 1503.3087 0.0000 0.0000 1749.2207 -7459.4645 299.9141 -9208.6852 -7447.7396 300.2357 348.2159 426.7085 30091.5454 125.6910 184.3717
ENERGY: 1200000 1.1868 2.2421 2.1632 0.0000 -10631.7392 1476.3153 0.0000 0.0000 1801.7026 -7348.1292 308.9124 -9149.8319 -7435.8100 300.5000 669.3925 706.4209 30065.2042 142.8661 198.5193
ENERGY: 1500000 2.3679 4.9002 3.0894 0.0000 -10639.4969 1414.5367 0.0000 0.0000 1758.3588 -7456.2438 301.4809 -9214.6027 -7435.4289 300.8442 -34.5350 31.7071 30059.1053 70.3160 127.4111
TCL: Running FEP window  15: Lambda1 0.29999999999999966 Lambda2 0.24999999999999967 [dLambda -0.04999999999999999]
TCL: Setting parameter firsttimestep to 0
TCL: Setting parameter alchLambda to 0.29999999999999966
Info: NONBONDED TABLE R-SQUARED SPACING: 0.0625
Info: NONBONDED TABLE SIZE: 705 POINTS
TCL: Setting parameter alchLambda2 to 0.24999999999999967
Info: NONBONDED TABLE R-SQUARED SPACING: 0.0625
Info: NONBONDED TABLE SIZE: 705 POINTS
TCL: Running for 1500000 steps
ETITLE: TS BOND ANGLE DIHED IMPRP ELECT VDW BOUNDARY MISC KINETIC TOTAL TEMP POTENTIAL TOTALAVG TEMPAVG PRESSURE GPRESSURE VOLUME PRESSAVG GPRESSAVG
ENERGY: 0 2.3679 4.9002 3.0894 0.0000 -10639.4959 1413.2637 0.0000 0.0000 1757.4548 -7458.4198 301.3259 -9215.8747 -7458.4198 301.3259 -56.1892 21.4919 30059.1053 -56.1892 21.4919
ENERGY: 300000 2.4816 4.0099 1.6442 0.0000 -10681.7928 1429.5506 0.0000 0.0000 1776.4005 -7467.7059 304.5742 -9244.1064 -7432.7293 303.1762 -318.3660 -186.2262 30266.4103 164.9040 252.3482
ENERGY: 600000 2.0630 3.2194 0.5226 0.0000 -10704.2319 1411.3197 0.0000 0.0000 1757.8828 -7529.2244 301.3993 -9287.1072 -7451.8816 304.1983 -309.7199 -207.8170 29696.7981 224.4472 311.8573
ENERGY: 900000 1.9991 2.5491 2.9186 0.0000 -10614.6392 1422.2562 0.0000 0.0000 1789.0929 -7395.8233 306.7504 -9184.9161 -7465.8355 302.6346 -45.2540 -9.7978 30260.3638 68.5196 141.3250
ENERGY: 1200000 6.4305 4.6175 2.3267 0.0000 -10441.2857 1285.7200 0.0000 0.0000 1728.4726 -7413.7184 296.3567 -9142.1910 -7451.2650 302.2244 -1396.4447 -1289.2241 30238.1432 -101.0568 -21.9817
ENERGY: 1500000 5.3190 5.0065 0.5811 0.0000 -10544.2439 1347.0613 0.0000 0.0000 1743.6176 -7442.6583 298.9534 -9186.2760 -7443.9413 302.0826 -514.6530 -503.5553 30118.9254 -222.8370 -153.1350
TCL: Running FEP window  16: Lambda1 0.24999999999999967 Lambda2 0.19999999999999968 [dLambda -0.04999999999999999]
TCL: Setting parameter firsttimestep to 0
TCL: Setting parameter alchLambda to 0.24999999999999967
Info: NONBONDED TABLE R-SQUARED SPACING: 0.0625
Info: NONBONDED TABLE SIZE: 705 POINTS
TCL: Setting parameter alchLambda2 to 0.19999999999999968
Info: NONBONDED TABLE R-SQUARED SPACING: 0.0625
Info: NONBONDED TABLE SIZE: 705 POINTS
TCL: Running for 1500000 steps
ETITLE: TS BOND ANGLE DIHED IMPRP ELECT VDW BOUNDARY MISC KINETIC TOTAL TEMP POTENTIAL TOTALAVG TEMPAVG PRESSURE GPRESSURE VOLUME PRESSAVG GPRESSAVG
ENERGY: 0 5.3190 5.0065 0.5811 0.0000 -10544.2427 1347.2365 0.0000 0.0000 1742.7533 -7443.3463 298.8052 -9186.0996 -7443.3463 298.8052 -596.4708 -510.3787 30118.9254 -596.4708 -510.3787
ENERGY: 300000 2.9701 2.5248 0.8546 0.0000 -10636.1874 1400.8845 0.0000 0.0000 1757.0416 -7471.9116 301.2551 -9228.9533 -7422.3582 302.5253 -345.1715 -316.4861 30278.4763 -397.3068 -344.6025
ENERGY: 600000 6.1149 2.9924 1.3151 0.0000 -10751.6547 1496.2549 0.0000 0.0000 1717.7840 -7527.1935 294.5241 -9244.9774 -7444.0534 301.5770 469.9221 547.3384 29776.5510 -271.0387 -199.9017
ENERGY: 900000 3.2969 4.1075 3.4066 0.0000 -10837.4548 1545.5869 0.0000 0.0000 1719.7813 -7561.2757 294.8665 -9281.0570 -7448.1548 301.6279 494.9866 597.8561 30223.5475 -214.1729 -143.4679
ENERGY: 1200000 3.0923 4.5030 2.0260 0.0000 -10610.3769 1399.8496 0.0000 0.0000 1736.6683 -7464.2378 297.7619 -9200.9060 -7454.8159 301.0614 -399.1927 -362.6977 30397.9335 -70.3003 -6.7685
ENERGY: 1500000 3.1298 1.8745 4.7045 0.0000 -10694.9856 1432.1146 0.0000 0.0000 1765.1891 -7487.9730 302.6520 -9253.1621 -7452.8009 300.9390 -242.7318 -187.7413 30136.0271 -7.9687 51.3095
TCL: Running FEP window  17: Lambda1 0.19999999999999968 Lambda2 0.1499999999999997 [dLambda -0.04999999999999999]
TCL: Setting parameter firsttimestep to 0
TCL: Setting parameter alchLambda to 0.19999999999999968
Info: NONBONDED TABLE R-SQUARED SPACING: 0.0625
Info: NONBONDED TABLE SIZE: 705 POINTS
TCL: Setting parameter alchLambda2 to 0.1499999999999997
Info: NONBONDED TABLE R-SQUARED SPACING: 0.0625
Info: NONBONDED TABLE SIZE: 705 POINTS
TCL: Running for 1500000 steps
ETITLE: TS BOND ANGLE DIHED IMPRP ELECT VDW BOUNDARY MISC KINETIC TOTAL TEMP POTENTIAL TOTALAVG TEMPAVG PRESSURE GPRESSURE VOLUME PRESSAVG GPRESSAVG
ENERGY: 0 3.1298 1.8745 4.7045 0.0000 -10694.9842 1432.6834 0.0000 0.0000 1764.3322 -7488.2596 302.5051 -9252.5919 -7488.2596 302.5051 -271.0092 -185.8096 30136.0271 -271.0092 -185.8096
ENERGY: 300000 1.8961 5.5547 1.3550 0.0000 -10602.1928 1349.6380 0.0000 0.0000 1824.1229 -7419.6262 312.7565 -9243.7491 -7448.5550 304.5243 -648.3202 -571.3906 30084.5472 -411.0100 -319.5015
ENERGY: 600000 1.5718 2.5289 2.6987 0.0000 -10518.0716 1320.0610 0.0000 0.0000 1673.7593 -7517.4519 286.9758 -9191.2112 -7445.5934 302.5636 -754.9757 -725.5056 29810.9150 -334.0800 -266.9664
ENERGY: 900000 4.2530 2.8245 1.4770 0.0000 -10811.8332 1510.6902 0.0000 0.0000 1739.4501 -7553.1383 298.2389 -9292.5884 -7453.7530 301.7556 393.6252 519.7286 29731.5325 -169.4125 -104.7821
ENERGY: 1200000 2.3139 2.8481 3.2921 0.0000 -10761.5008 1580.9507 0.0000 0.0000 1771.6602 -7400.4358 303.7615 -9172.0960 -7445.0332 301.1628 1250.1539 1419.5434 29978.4313 -76.2070 -2.1248
ENERGY: 1500000 0.4640 1.7710 1.6682 0.0000 -10704.0790 1478.8987 0.0000 0.0000 1740.0251 -7481.2520 298.3375 -9221.2771 -7451.7275 301.4933 262.5084 324.3357 30179.4103 -88.6631 -14.2306
TCL: Running FEP window  18: Lambda1 0.1499999999999997 Lambda2 0.09999999999999969 [dLambda -0.05 ]
TCL: Setting parameter firsttimestep to 0
TCL: Setting parameter alchLambda to 0.1499999999999997
Info: NONBONDED TABLE R-SQUARED SPACING: 0.0625
Info: NONBONDED TABLE SIZE: 705 POINTS
TCL: Setting parameter alchLambda2 to 0.09999999999999969
Info: NONBONDED TABLE R-SQUARED SPACING: 0.0625
Info: NONBONDED TABLE SIZE: 705 POINTS
TCL: Running for 1500000 steps
ETITLE: TS BOND ANGLE DIHED IMPRP ELECT VDW BOUNDARY MISC KINETIC TOTAL TEMP POTENTIAL TOTALAVG TEMPAVG PRESSURE GPRESSURE VOLUME PRESSAVG GPRESSAVG
ENERGY: 0 0.4640 1.7710 1.6682 0.0000 -10704.0799 1478.8096 0.0000 0.0000 1739.1593 -7482.2077 298.1890 -9221.3671 -7482.2077 298.1890 238.1756 322.7292 30179.4103 238.1756 322.7292
ENERGY: 300000 2.5588 5.7605 0.3214 0.0000 -10874.9304 1591.6767 0.0000 0.0000 1755.7080 -7518.9050 301.0264 -9274.6130 -7477.2360 300.1698 1398.2484 1487.4020 29700.0571 629.3225 708.9666
ENERGY: 600000 2.4589 1.2251 2.3840 0.0000 -10415.3092 1270.1143 0.0000 0.0000 1771.8523 -7367.2745 303.7944 -9139.1268 -7457.0035 299.4985 -1146.8054 -1076.1427 30627.9902 232.1366 298.2215
ENERGY: 900000 1.3524 1.6079 0.3910 0.0000 -10683.6930 1485.3676 0.0000 0.0000 1740.7131 -7454.2610 298.4554 -9194.9741 -7452.3276 299.7901 501.4036 578.1862 30057.3778 177.4299 244.4497
ENERGY: 1200000 4.3118 1.1996 4.1447 0.0000 -10529.3652 1353.8623 0.0000 0.0000 1709.9694 -7455.8774 293.1842 -9165.8468 -7444.9152 299.3586 -906.6440 -825.3940 30659.7366 126.6419 193.9978
ENERGY: 1500000 3.1141 2.6916 2.6838 0.0000 -10774.2320 1493.8337 0.0000 0.0000 1695.8054 -7576.1034 290.7557 -9271.9088 -7454.8378 299.1210 190.9439 259.1097 30059.0407 206.0029 276.5445
TCL: Running FEP window  19: Lambda1 0.09999999999999969 Lambda2 0.049999999999999684 [dLambda -0.05 ]
TCL: Setting parameter firsttimestep to 0
TCL: Setting parameter alchLambda to 0.09999999999999969
Info: NONBONDED TABLE R-SQUARED SPACING: 0.0625
Info: NONBONDED TABLE SIZE: 705 POINTS
TCL: Setting parameter alchLambda2 to 0.049999999999999684
Info: NONBONDED TABLE R-SQUARED SPACING: 0.0625
Info: NONBONDED TABLE SIZE: 705 POINTS
TCL: Running for 1500000 steps
ETITLE: TS BOND ANGLE DIHED IMPRP ELECT VDW BOUNDARY MISC KINETIC TOTAL TEMP POTENTIAL TOTALAVG TEMPAVG PRESSURE GPRESSURE VOLUME PRESSAVG GPRESSAVG
ENERGY: 0 3.1141 2.6916 2.6838 0.0000 -10774.2305 1493.8757 0.0000 0.0000 1694.9036 -7576.9617 290.6011 -9271.8652 -7576.9617 290.6011 160.4376 254.5002 30059.0407 160.4376 254.5002
ENERGY: 300000 3.3445 6.8757 2.4512 0.0000 -10626.0500 1370.2108 0.0000 0.0000 1699.0939 -7544.0740 291.3196 -9243.1679 -7523.0662 294.4108 -561.8342 -610.6089 29956.1460 144.5062 198.2464
ENERGY: 600000 2.1325 3.5318 1.1501 0.0000 -10687.0779 1430.0196 0.0000 0.0000 1734.9697 -7515.2741 297.4707 -9250.2438 -7510.0577 296.1179 -87.6623 -34.9918 29883.0293 136.5578 196.4555
ENERGY: 900000 1.7703 2.0005 2.4386 0.0000 -10761.0671 1507.2251 0.0000 0.0000 1752.5046 -7495.1281 300.4772 -9247.6327 -7502.8119 297.3301 511.2778 571.0274 29720.0450 95.2663 159.5200
ENERGY: 1200000 0.9684 2.4131 2.9594 0.0000 -10637.6848 1489.0726 0.0000 0.0000 1759.0186 -7383.2527 301.5940 -9142.2714 -7477.1241 299.8062 813.3580 852.9447 29822.7347 83.8005 151.9480
ENERGY: 1500000 1.6683 2.4361 2.7777 0.0000 -10728.6368 1492.8373 0.0000 0.0000 1690.1637 -7538.7537 289.7884 -9228.9174 -7479.5126 299.4954 515.5142 535.3077 29746.8853 151.9662 220.8647
TCL: Running FEP window  20: Lambda1 0.049999999999999684 Lambda2 0.0    [dLambda -0.049999999999999684]
TCL: Setting parameter firsttimestep to 0
TCL: Setting parameter alchLambda to 0.049999999999999684
Info: NONBONDED TABLE R-SQUARED SPACING: 0.0625
Info: NONBONDED TABLE SIZE: 705 POINTS
TCL: Setting parameter alchLambda2 to 0.0
Info: NONBONDED TABLE R-SQUARED SPACING: 0.0625
Info: NONBONDED TABLE SIZE: 705 POINTS
TCL: Running for 1500000 steps
ETITLE: TS BOND ANGLE DIHED IMPRP ELECT VDW BOUNDARY MISC KINETIC TOTAL TEMP POTENTIAL TOTALAVG TEMPAVG PRESSURE GPRESSURE VOLUME PRESSAVG GPRESSAVG
ENERGY: 0 1.6684 2.4361 2.7777 0.0000 -10728.6368 1492.4693 0.0000 0.0000 1689.3129 -7539.9725 289.6426 -9229.2854 -7539.9725 289.6426 458.0217 531.2853 29746.8853 458.0217 531.2853
ENERGY: 300000 3.0905 4.5792 1.9829 0.0000 -10577.2694 1444.9272 0.0000 0.0000 1784.6142 -7338.0754 305.9825 -9122.6896 -7447.6073 298.4006 38.7149 101.1823 30629.1720 44.8526 98.5079
ENERGY: 600000 4.0597 3.8937 4.7116 0.0000 -10637.7316 1512.7872 0.0000 0.0000 1767.8801 -7344.3993 303.1134 -9112.2794 -7444.4632 299.0368 1114.2876 1154.4308 29818.8265 354.5312 409.8989
ENERGY: 900000 2.5455 1.3809 2.4275 0.0000 -10763.9987 1538.1524 0.0000 0.0000 1791.9602 -7427.5321 307.2420 -9219.4923 -7444.1686 300.3495 917.8968 966.6945 29801.0123 289.1758 340.3124
ENERGY: 1200000 2.4891 0.9469 4.9142 0.0000 -10722.7472 1492.8625 0.0000 0.0000 1710.0002 -7511.5343 293.1895 -9221.5345 -7451.1434 299.7544 135.9748 202.4789 30134.6152 278.6902 331.3985
ENERGY: 1500000 5.9698 5.2761 2.3859 0.0000 -10487.4487 1361.6546 0.0000 0.0000 1807.0998 -7305.0624 309.8378 -9112.1622 -7440.9979 300.6844 -351.6605 -264.6534 30288.8036 133.6626 185.7083
TCL: Exiting due to exit command.
