Info: SIMULATION PARAMETERS:
Info: TIMESTEP               2
Info: NUMBER OF STEPS        0
Info: STEPS PER CYCLE        10
Info: PERIODIC CELL BASIS 1  31.7909 0 0
Info: PERIODIC CELL BASIS 2  0 29.711 0
Info: PERIODIC CELL BASIS 3  0 0 32.4047
Info: PERIODIC CELL CENTER   0 0 0
Info: WRAPPING WATERS AROUND PERIODIC BOUNDARIES ON OUTPUT.
Info: WRAPPING ALL CLUSTERS AROUND PERIODIC BOUNDARIES ON OUTPUT.
Info: FIRST LDB TIMESTEP     50
Info: LAST LDB TIMESTEP     -1
Info: HOM BACKGROUND SCALING 1
Info: PME BACKGROUND SCALING 1
Info: MIN ATOMS PER PATCH    40
Info: EMPTY PATCH LOAD       40 ATOMS
Info: VELOCITY FILE          mobley_4780078_equil.vel
Info: CENTER OF MASS MOVING INITIALLY? NO
Info: DIELECTRIC             1
Info: EXCLUDE                SCALED ONE-FOUR
Info: 1-4 ELECTROSTATICS SCALED BY 0.833333
Info: MODIFIED 1-4 VDW PARAMETERS WILL BE USED
Info: DCD FILENAME           mobley_4780078_prod.dcd
Info: DCD FREQUENCY          100000
Info: DCD FIRST STEP         100000
Info: DCD FILE WILL CONTAIN UNIT CELL DATA
Info: XST FILENAME           mobley_4780078_prod.xst
Info: XST FREQUENCY          100000
Info: NO VELOCITY DCD OUTPUT
Info: NO FORCE DCD OUTPUT
Info: OUTPUT FILENAME        mobley_4780078_prod
Info: BINARY OUTPUT FILES WILL BE USED
Info: RESTART FILENAME       mobley_4780078_prod.restart
Info: RESTART FREQUENCY      100000
Info: BINARY RESTART FILES WILL BE USED
Info: CUTOFF                 9
Info: PAIRLIST DISTANCE      11
Info: PAIRLIST SHRINK RATE   0.01
Info: PAIRLIST GROW RATE     0.01
Info: PAIRLIST TRIGGER       0.3
Info: PAIRLISTS PER CYCLE    2
Info: PAIRLISTS ENABLED
Info: MARGIN                 2
Info: HYDROGEN GROUP CUTOFF  2.5
Info: PATCH DIMENSION        15.5
Info: ENERGY OUTPUT STEPS    100000
Info: ENERGY EVALUATION STEPS    100000
Info: OUTPUT ENERGY PRECISION 4
Info: CROSSTERM ENERGY INCLUDED IN DIHEDRAL
Info: TIMING OUTPUT STEPS    1000000
Info: PRESSURE OUTPUT STEPS  100000
Info: ALCHEMICAL FEP ON
Info: FEP CURRENT LAMBDA VALUE     0
Info: FEP COMPARISON LAMBDA VALUE  0.05
Info: FEP INTRA-ALCHEMICAL NON-BONDED INTERACTIONS WILL BE RETAINED
Info: FEP INTRA-ALCHEMICAL BONDED INTERACTIONS WILL BE RETAINED
Info: FEP VDW SHIFTING COEFFICIENT 5
Info: FEP ELEC. ACTIVE FOR ANNIHILATED PARTICLES BETWEEN LAMBDA = 0 AND LAMBDA = 0.5
Info: FEP ELEC. ACTIVE FOR EXNIHILATED PARTICLES BETWEEN LAMBDA = 0.5 AND LAMBDA = 1
Info: FEP VDW ACTIVE FOR ANNIHILATED PARTICLES BETWEEN LAMBDA = 0 AND LAMBDA = 1
Info: FEP VDW ACTIVE FOR EXNIHILATED PARTICLES BETWEEN LAMBDA = 0 AND LAMBDA = 1
Info: FEP BOND ACTIVE FOR ANNIHILATED PARTICLES BETWEEN LAMBDA = 1 AND LAMBDA = 1
Info: FEP BOND ACTIVE FOR EXNIHILATED PARTICLES BETWEEN LAMBDA = 0 AND LAMBDA = 0
Info: LANGEVIN DYNAMICS ACTIVE
Info: LANGEVIN TEMPERATURE   300
Info: LANGEVIN USING BBK INTEGRATOR
Info: LANGEVIN DAMPING COEFFICIENT IS 1 INVERSE PS
Info: LANGEVIN DYNAMICS APPLIED TO HYDROGENS
Info: LANGEVIN PISTON PRESSURE CONTROL ACTIVE
Info:        TARGET PRESSURE IS 1.01325 BAR
Info:     OSCILLATION PERIOD IS 50 FS
Info:             DECAY TIME IS 25 FS
Info:     PISTON TEMPERATURE IS 300 K
Info:       PRESSURE CONTROL IS GROUP-BASED
Info:    INITIAL STRAIN RATE IS -0.000151051 -0.000151051 -0.000151051
Info:       CELL FLUCTUATION IS ISOTROPIC
Info: PARTICLE MESH EWALD (PME) ACTIVE
Info: PME TOLERANCE               1e-06
Info: PME EWALD COEFFICIENT       0.348832
Info: PME INTERPOLATION ORDER     4
Info: PME GRID DIMENSIONS         32 32 36
Info: PME MAXIMUM GRID SPACING    1
Info: PME CALCULATION WILL BE PERFORMED ON GPU
Info: FULL ELECTROSTATIC EVALUATION FREQUENCY      2
Info: USING VERLET I (r-RESPA) MTS SCHEME.
Info: C1 SPLITTING OF LONG RANGE ELECTROSTATICS
Info: PLACING ATOMS IN PATCHES BY HYDROGEN GROUPS
Info: RIGID BONDS TO HYDROGEN : ALL
Info:         ERROR TOLERANCE : 1e-08
Info:          MAX ITERATIONS : 100
Info: RIGID WATER USING SETTLE ALGORITHM
Info: RANDOM NUMBER SEED     1743610447
Info: USE HYDROGEN BONDS?    NO
Info: Using AMBER format force field!
Info: AMBER PARM FILE        mobley_4780078.prmtop
Info: COORDINATE PDB         mobley_4780078.pdb
Info: Exclusions will be read from PARM file!
Info: SCNB (VDW SCALING)     2
Info: USING ARITHMETIC MEAN TO COMBINE L-J SIGMA PARAMETERS
Info: BINARY COORDINATES     mobley_4780078_equil.coor
Info: SUMMARY OF PARAMETERS:
Info: 8 BONDS
Info: 7 ANGLES
Info:   7 HARMONIC
Info:   0 COSINE-BASED
Info: 4 DIHEDRAL
Info: 0 IMPROPER
Info: 0 CROSSTERM
Info: 0 VDW
Info: 28 VDW_PAIRS
Info: 0 NBTHOLE_PAIRS
Info: To read alchdata from file: mobley_4780078.pdb
Info: To read alchflag data from column: 5
Info: STRUCTURE SUMMARY:
Info: 2962 ATOMS
Info: 2962 BONDS
Info: 31 ANGLES
Info: 44 DIHEDRALS
Info: 0 IMPROPERS
Info: 0 CROSSTERMS
Info: 3028 EXCLUSIONS
Info: 2953 RIGID BONDS
Info: ALCH: 0 ATOMS TO DISAPPEAR IN FINAL STATE
Info: ALCH: 19 ATOMS TO APPEAR IN FINAL STATE
Info: 5933 DEGREES OF FREEDOM
Info: 990 HYDROGEN GROUPS
Info: 4 ATOMS IN LARGEST HYDROGEN GROUP
Info: 990 MIGRATION GROUPS
Info: 4 ATOMS IN LARGEST MIGRATION GROUP
Info: TOTAL MASS = 17795.9 amu
Info: TOTAL CHARGE = 2.23517e-08 e
Info: MASS DENSITY = 0.965494 g/cm^3
Info: ATOM DENSITY = 0.0967735 atoms/A^3
Info: ADDED 0 IMPLICIT EXCLUSIONS
Info: NONBONDED TABLE R-SQUARED SPACING: 0.0625
Info: NONBONDED TABLE SIZE: 705 POINTS
Info: REMOVING COM VELOCITY 0.312571 0.108427 0.0200265
Info: Use 3D box decompostion in PME FFT.
Info: Updated CUDA force table with 4096 elements.
Info: Updated CUDA LJ table with 7 x 7 elements.
Info: Found 21 unique exclusion lists needing 56 bytes
TCL: Running for 1500000 steps
ETITLE: TS BOND ANGLE DIHED IMPRP ELECT VDW BOUNDARY MISC KINETIC TOTAL TEMP POTENTIAL TOTALAVG TEMPAVG PRESSURE GPRESSURE VOLUME PRESSAVG GPRESSAVG
ENERGY: 0 1.7115 5.4912 3.3642 0.0000 -10640.0148 1408.4257 0.0000 0.0000 1779.7816 -7441.2406 301.9137 -9221.0222 -7441.2406 301.9137 -399.9365 -315.7527 30607.5542 -399.9365 -315.7527
ENERGY: 300000 3.8724 5.0806 4.1326 0.0000 -10620.7749 1366.8269 0.0000 0.0000 1779.2287 -7461.6337 301.8199 -9240.8624 -7483.1005 303.7550 -743.5590 -727.1726 30893.1156 -422.7030 -371.3152
ENERGY: 600000 3.4874 4.5864 1.3764 0.0000 -10680.8841 1404.2106 0.0000 0.0000 1757.8368 -7509.3865 298.1910 -9267.2233 -7485.5550 301.3070 -185.3891 -114.9115 30245.1958 -373.6419 -311.6114
ENERGY: 900000 3.5520 8.9286 3.8614 0.0000 -10547.5230 1346.6633 0.0000 0.0000 1720.3743 -7464.1435 291.8361 -9184.5178 -7495.0367 298.8674 -692.1193 -617.6402 30350.8040 -332.7550 -263.9028
ENERGY: 1200000 7.0109 6.4510 2.3141 0.0000 -10759.5361 1467.6490 0.0000 0.0000 1751.5201 -7524.5911 297.1195 -9276.1112 -7505.0236 298.7990 498.8763 497.3209 29680.5745 -163.5613 -106.0850
ENERGY: 1500000 2.7869 3.2960 6.6586 0.0000 -10867.1700 1638.1866 0.0000 0.0000 1785.0796 -7431.1624 302.8124 -9216.2420 -7496.9738 299.0083 1677.1136 1787.0694 30181.0779 -3.4871 55.5421
TCL: Running FEP window   2: Lambda1 0.05   Lambda2 0.1    [dLambda 0.05  ]
TCL: Setting parameter firsttimestep to 0
TCL: Setting parameter alchLambda to 0.05
Info: NONBONDED TABLE R-SQUARED SPACING: 0.0625
Info: NONBONDED TABLE SIZE: 705 POINTS
TCL: Setting parameter alchLambda2 to 0.1
Info: NONBONDED TABLE R-SQUARED SPACING: 0.0625
Info: NONBONDED TABLE SIZE: 705 POINTS
TCL: Running for 1500000 steps
ETITLE: TS BOND ANGLE DIHED IMPRP ELECT VDW BOUNDARY MISC KINETIC TOTAL TEMP POTENTIAL TOTALAVG TEMPAVG PRESSURE GPRESSURE VOLUME PRESSAVG GPRESSAVG
ENERGY: 0 2.7869 3.2960 6.6586 0.0000 -10867.1718 1641.3970 0.0000 0.0000 1784.2114 -7428.8220 302.6651 -9213.0334 -7428.8220 302.6651 1708.1814 1795.3153 30181.0779 1708.1814 1795.3153
ENERGY: 300000 1.8458 7.4330 3.1519 0.0000 -10669.4342 1426.5300 0.0000 0.0000 1776.9010 -7453.5723 301.4250 -9230.4734 -7494.3279 303.4801 89.0443 156.9692 29983.0028 613.0204 668.9312
ENERGY: 600000 1.8378 4.5983 2.7248 0.0000 -10676.7733 1405.8332 0.0000 0.0000 1760.7944 -7500.9848 298.6928 -9261.7792 -7498.9060 301.0312 -217.4566 -121.5986 30279.4142 306.4403 374.0778
ENERGY: 900000 0.5255 3.6330 1.7997 0.0000 -10679.6602 1471.5127 0.0000 0.0000 1752.2453 -7449.9440 297.2425 -9202.1893 -7504.9059 298.4755 540.6042 632.3948 30096.1388 274.8331 342.9942
ENERGY: 1200000 2.2433 5.8731 3.2759 0.0000 -10603.5296 1359.6767 0.0000 0.0000 1741.5582 -7490.9024 295.4296 -9232.4606 -7508.6555 298.0266 -804.0317 -757.4978 30823.8711 73.6261 141.1535
ENERGY: 1500000 3.1510 3.1534 6.2154 0.0000 -10688.2743 1380.6216 0.0000 0.0000 1782.0005 -7513.1323 302.2901 -9295.1328 -7506.7534 299.3554 -414.2806 -330.4173 30204.5870 9.0692 76.1950
TCL: Running FEP window   3: Lambda1 0.1    Lambda2 0.15000000000000002 [dLambda 0.05000000000000002]
TCL: Setting parameter firsttimestep to 0
TCL: Setting parameter alchLambda to 0.1
Info: NONBONDED TABLE R-SQUARED SPACING: 0.0625
Info: NONBONDED TABLE SIZE: 705 POINTS
TCL: Setting parameter alchLambda2 to 0.15000000000000002
Info: NONBONDED TABLE R-SQUARED SPACING: 0.0625
Info: NONBONDED TABLE SIZE: 705 POINTS
TCL: Running for 1500000 steps
ETITLE: TS BOND ANGLE DIHED IMPRP ELECT VDW BOUNDARY MISC KINETIC TOTAL TEMP POTENTIAL TOTALAVG TEMPAVG PRESSURE GPRESSURE VOLUME PRESSAVG GPRESSAVG
ENERGY: 0 3.1510 3.1534 6.2154 0.0000 -10688.2722 1381.2315 0.0000 0.0000 1781.1259 -7513.3949 302.1417 -9294.5208 -7513.3949 302.1417 -412.6016 -328.0937 30204.5870 -412.6016 -328.0937
ENERGY: 300000 3.5515 6.6335 2.5270 0.0000 -10851.1021 1488.8456 0.0000 0.0000 1774.3504 -7575.1941 300.9923 -9349.5445 -7532.2580 296.5949 133.5815 191.7715 30451.8765 -290.7098 -240.6267
ENERGY: 600000 3.8615 8.1916 1.3937 0.0000 -10761.9810 1462.9404 0.0000 0.0000 1729.9210 -7555.6728 293.4555 -9285.5938 -7524.6340 296.9112 -57.7464 -55.1826 30300.6946 -367.2538 -318.5145
ENERGY: 900000 1.8465 4.2462 4.4314 0.0000 -10694.0408 1436.3020 0.0000 0.0000 1774.1102 -7473.1045 300.9516 -9247.2147 -7505.3787 297.9539 69.5415 106.4779 30260.9655 -293.7955 -237.1895
ENERGY: 1200000 2.9001 9.7115 4.2305 0.0000 -10798.7563 1523.4804 0.0000 0.0000 1704.8745 -7553.5592 289.2068 -9258.4337 -7501.4947 298.8879 618.1620 679.0060 30338.2511 -237.8828 -173.3792
ENERGY: 1500000 1.9747 3.5534 1.5058 0.0000 -10589.7527 1419.4863 0.0000 0.0000 1744.7188 -7418.5136 295.9658 -9163.2324 -7498.0473 298.3407 133.7121 147.1862 30248.1243 -254.3172 -194.9455
TCL: Running FEP window   4: Lambda1 0.15000000000000002 Lambda2 0.2    [dLambda 0.04999999999999999]
TCL: Setting parameter firsttimestep to 0
TCL: Setting parameter alchLambda to 0.15000000000000002
Info: NONBONDED TABLE R-SQUARED SPACING: 0.0625
Info: NONBONDED TABLE SIZE: 705 POINTS
TCL: Setting parameter alchLambda2 to 0.2
Info: NONBONDED TABLE R-SQUARED SPACING: 0.0625
Info: NONBONDED TABLE SIZE: 705 POINTS
TCL: Running for 1500000 steps
ETITLE: TS BOND ANGLE DIHED IMPRP ELECT VDW BOUNDARY MISC KINETIC TOTAL TEMP POTENTIAL TOTALAVG TEMPAVG PRESSURE GPRESSURE VOLUME PRESSAVG GPRESSAVG
ENERGY: 0 1.9748 3.5534 1.5058 0.0000 -10589.7527 1423.1253 0.0000 0.0000 1743.7956 -7415.7978 295.8092 -9159.5934 -7415.7978 295.8092 75.1954 160.0228 30248.1243 75.1954 160.0228
ENERGY: 300000 4.2561 4.9640 2.2477 0.0000 -10668.7618 1426.5330 0.0000 0.0000 1748.5233 -7482.2376 296.6111 -9230.7610 -7469.6562 297.4822 -281.6271 -160.9551 30586.5043 -66.4592 4.5228
ENERGY: 600000 4.3397 7.6836 3.0928 0.0000 -10788.8720 1509.1919 0.0000 0.0000 1800.7228 -7463.8413 305.4660 -9264.5641 -7488.3276 298.3222 536.3947 596.6643 30241.6273 -53.1009 23.5861
ENERGY: 900000 6.5455 7.0889 3.5388 0.0000 -10805.1878 1488.0529 0.0000 0.0000 1784.9577 -7515.0040 302.7917 -9299.9617 -7494.2549 299.6319 -248.4170 -156.5384 30791.1700 -142.2350 -67.8147
ENERGY: 1200000 4.2319 4.8354 2.9657 0.0000 -10568.3447 1314.0533 0.0000 0.0000 1743.5302 -7498.7283 295.7641 -9242.2585 -7491.6744 299.3036 -1435.2901 -1288.2599 30848.7942 -178.9010 -100.7675
ENERGY: 1500000 1.5688 7.9285 2.9116 0.0000 -10607.5397 1391.3478 0.0000 0.0000 1769.1900 -7434.5930 300.1169 -9203.7830 -7490.5885 299.2568 -43.4855 -12.4893 30286.6229 -203.7937 -136.2691
TCL: Running FEP window   5: Lambda1 0.2    Lambda2 0.25   [dLambda 0.04999999999999999]
TCL: Setting parameter firsttimestep to 0
TCL: Setting parameter alchLambda to 0.2
Info: NONBONDED TABLE R-SQUARED SPACING: 0.0625
Info: NONBONDED TABLE SIZE: 705 POINTS
TCL: Setting parameter alchLambda2 to 0.25
Info: NONBONDED TABLE R-SQUARED SPACING: 0.0625
Info: NONBONDED TABLE SIZE: 705 POINTS
TCL: Running for 1500000 steps
ETITLE: TS BOND ANGLE DIHED IMPRP ELECT VDW BOUNDARY MISC KINETIC TOTAL TEMP POTENTIAL TOTALAVG TEMPAVG PRESSURE GPRESSURE VOLUME PRESSAVG GPRESSAVG
ENERGY: 0 1.5688 7.9285 2.9116 0.0000 -10607.5387 1391.0718 0.0000 0.0000 1768.3351 -7435.7229 299.9719 -9204.0580 -7435.7229 299.9719 -90.0672 -9.3820 30286.6229 -90.0672 -9.3820
ENERGY: 300000 3.0849 6.4632 3.4457 0.0000 -10670.8495 1384.4607 0.0000 0.0000 1708.7232 -7564.6719 289.8596 -9273.3951 -7554.0733 292.3525 -666.9323 -633.8639 30373.6000 25.1173 64.2307
ENERGY: 600000 2.8051 5.4165 1.9160 0.0000 -10810.5749 1454.8858 0.0000 0.0000 1821.1122 -7524.4394 308.9248 -9345.5515 -7544.8945 297.5627 -64.2498 -3.0174 30202.7811 -157.1576 -99.2763
ENERGY: 900000 2.8892 4.7715 4.2026 0.0000 -10859.6502 1488.5462 0.0000 0.0000 1785.9160 -7573.3247 302.9543 -9359.2407 -7541.5856 300.4464 195.8912 224.7846 30273.3899 28.8758 95.7002
ENERGY: 1200000 1.5771 6.3765 3.1606 0.0000 -10645.7122 1391.5050 0.0000 0.0000 1779.2781 -7463.8150 301.8282 -9243.0931 -7518.7454 301.3590 -487.0914 -456.9139 30648.5844 6.2918 74.4232
ENERGY: 1500000 2.2183 8.1089 3.4603 0.0000 -10796.7405 1471.2268 0.0000 0.0000 1752.8389 -7558.8872 297.3432 -9311.7261 -7515.4935 301.2003 201.2044 266.9103 30052.0097 -11.2880 56.9352
TCL: Running FEP window   6: Lambda1 0.25   Lambda2 0.3    [dLambda 0.04999999999999999]
TCL: Setting parameter firsttimestep to 0
TCL: Setting parameter alchLambda to 0.25
Info: NONBONDED TABLE R-SQUARED SPACING: 0.0625
Info: NONBONDED TABLE SIZE: 705 POINTS
TCL: Setting parameter alchLambda2 to 0.3
Info: NONBONDED TABLE R-SQUARED SPACING: 0.0625
Info: NONBONDED TABLE SIZE: 705 POINTS
TCL: Running for 1500000 steps
ETITLE: TS BOND ANGLE DIHED IMPRP ELECT VDW BOUNDARY MISC KINETIC TOTAL TEMP POTENTIAL TOTALAVG TEMPAVG PRESSURE GPRESSURE VOLUME PRESSAVG GPRESSAVG
ENERGY: 0 2.2183 8.1089 3.4603 0.0000 -10796.7398 1471.9122 0.0000 0.0000 1751.9498 -7559.0903 297.1924 -9311.0401 -7559.0903 297.1924 192.3457 274.7956 30052.0097 192.3457 274.7956
ENERGY: 300000 2.4526 6.4255 4.1994 0.0000 -10715.7709 1491.2145 0.0000 0.0000 1838.6666 -7372.8123 311.9026 -9211.4789 -7467.4378 304.2029 298.8823 397.3494 30792.1077 122.9598 201.4729
ENERGY: 600000 3.1943 7.2929 1.2988 0.0000 -10691.9579 1365.8942 0.0000 0.0000 1773.8913 -7540.3863 300.9144 -9314.2776 -7458.8993 305.5399 -1057.2598 -992.5564 30734.5675 -120.6331 -44.5249
ENERGY: 900000 2.7806 8.4515 3.7637 0.0000 -10785.8305 1470.5097 0.0000 0.0000 1782.2812 -7518.0437 302.3377 -9300.3249 -7475.6327 304.4726 187.4183 245.6617 30352.1679 -25.7939 54.4556
ENERGY: 1200000 2.5136 5.7738 1.3215 0.0000 -10642.2289 1358.5435 0.0000 0.0000 1780.2037 -7493.8729 301.9852 -9274.0766 -7489.7431 303.4041 -398.6872 -299.3790 30311.8713 -125.1045 -46.5028
ENERGY: 1500000 2.3063 6.0608 2.7389 0.0000 -10932.1087 1548.3862 0.0000 0.0000 1733.4861 -7639.1304 294.0603 -9372.6165 -7504.5020 302.3932 571.0964 687.6573 29808.0245 -28.4133 52.5733
TCL: Running FEP window   7: Lambda1 0.3    Lambda2 0.35   [dLambda 0.04999999999999999]
TCL: Setting parameter firsttimestep to 0
TCL: Setting parameter alchLambda to 0.3
Info: NONBONDED TABLE R-SQUARED SPACING: 0.0625
Info: NONBONDED TABLE SIZE: 705 POINTS
TCL: Setting parameter alchLambda2 to 0.35
Info: NONBONDED TABLE R-SQUARED SPACING: 0.0625
Info: NONBONDED TABLE SIZE: 705 POINTS
TCL: Running for 1500000 steps
ETITLE: TS BOND ANGLE DIHED IMPRP ELECT VDW BOUNDARY MISC KINETIC TOTAL TEMP POTENTIAL TOTALAVG TEMPAVG PRESSURE GPRESSURE VOLUME PRESSAVG GPRESSAVG
ENERGY: 0 2.3063 6.0608 2.7389 0.0000 -10932.1084 1548.7901 0.0000 0.0000 1732.5847 -7639.6275 293.9074 -9372.2122 -7639.6275 293.9074 608.3186 699.2708 29808.0245 608.3186 699.2708
ENERGY: 300000 2.7117 7.9473 2.8951 0.0000 -10570.1729 1319.7966 0.0000 0.0000 1802.3917 -7434.4304 305.7491 -9236.8222 -7490.2300 300.7940 -793.7221 -766.3679 30298.5739 -49.7791 -3.9864
ENERGY: 600000 2.1946 9.5421 2.0709 0.0000 -10741.3899 1491.2637 0.0000 0.0000 1760.6397 -7475.6789 298.6665 -9236.3186 -7478.5942 302.4233 382.6651 418.8317 30423.8482 -94.8550 -43.2577
ENERGY: 900000 1.0299 4.5606 1.8384 0.0000 -10765.4736 1485.8035 0.0000 0.0000 1797.6086 -7474.6327 304.9377 -9272.2413 -7492.0354 302.8786 355.8739 449.5297 30237.1226 -14.2371 56.0682
ENERGY: 1200000 2.9413 5.3758 0.9786 0.0000 -10797.8345 1462.3247 0.0000 0.0000 1810.3749 -7515.8392 307.1034 -9326.2141 -7490.1485 302.8916 -34.4623 48.9037 30286.5938 13.1282 82.7800
ENERGY: 1500000 2.1865 5.4871 2.9156 0.0000 -10458.5978 1320.4260 0.0000 0.0000 1735.9465 -7391.6361 294.4777 -9127.5826 -7486.3227 301.9316 -505.0817 -512.7527 30637.5310 -18.1735 43.3428
TCL: Running FEP window   8: Lambda1 0.35   Lambda2 0.39999999999999997 [dLambda 0.04999999999999999]
TCL: Setting parameter firsttimestep to 0
TCL: Setting parameter alchLambda to 0.35
Info: NONBONDED TABLE R-SQUARED SPACING: 0.0625
Info: NONBONDED TABLE SIZE: 705 POINTS
TCL: Setting parameter alchLambda2 to 0.39999999999999997
Info: NONBONDED TABLE R-SQUARED SPACING: 0.0625
Info: NONBONDED TABLE SIZE: 705 POINTS
TCL: Running for 1500000 steps
ETITLE: TS BOND ANGLE DIHED IMPRP ELECT VDW BOUNDARY MISC KINETIC TOTAL TEMP POTENTIAL TOTALAVG TEMPAVG PRESSURE GPRESSURE VOLUME PRESSAVG GPRESSAVG
ENERGY: 0 2.1865 5.4871 2.9156 0.0000 -10458.5992 1320.8262 0.0000 0.0000 1735.0523 -7392.1314 294.3260 -9127.1837 -7392.1314 294.3260 -596.8198 -503.2286 30637.5310 -596.8198 -503.2286
ENERGY: 300000 2.9463 4.2105 1.1070 0.0000 -10786.5884 1471.5932 0.0000 0.0000 1807.6903 -7499.0411 306.6480 -9306.7314 -7439.7310 303.0197 257.6171 318.1530 30168.9101 -163.0612 -84.0376
ENERGY: 600000 2.7738 4.3931 9.3391 0.0000 -10628.7662 1398.7208 0.0000 0.0000 1751.8065 -7461.7329 297.1681 -9213.5394 -7462.7682 301.5821 -274.1513 -234.4542 30569.2245 -211.2985 -157.2609
ENERGY: 900000 2.0759 5.9911 2.4184 0.0000 -10755.3330 1448.2455 0.0000 0.0000 1773.7849 -7522.8171 300.8964 -9296.6021 -7483.7460 301.4638 381.1012 441.2682 29742.1829 -76.4379 -22.6772
ENERGY: 1200000 3.9624 5.6029 1.9098 0.0000 -10697.4686 1455.1228 0.0000 0.0000 1790.5463 -7440.3243 303.7397 -9230.8706 -7478.0995 302.1183 381.7600 378.0376 30283.1246 -117.5881 -63.7700
ENERGY: 1500000 2.1128 8.2960 2.8231 0.0000 -10738.9261 1435.8978 0.0000 0.0000 1782.2875 -7507.5089 302.3387 -9289.7964 -7477.8254 301.7690 -62.7208 -93.3130 30242.6860 -111.0809 -66.0414
TCL: Running FEP window   9: Lambda1 0.39999999999999997 Lambda2 0.44999999999999996 [dLambda 0.04999999999999999]
TCL: Setting parameter firsttimestep to 0
TCL: Setting parameter alchLambda to 0.39999999999999997
Info: NONBONDED TABLE R-SQUARED SPACING: 0.0625
Info: NONBONDED TABLE SIZE: 705 POINTS
TCL: Setting parameter alchLambda2 to 0.44999999999999996
Info: NONBONDED TABLE R-SQUARED SPACING: 0.0625
Info: NONBONDED TABLE SIZE: 705 POINTS
TCL: Running for 1500000 steps
ETITLE: TS BOND ANGLE DIHED IMPRP ELECT VDW BOUNDARY MISC KINETIC TOTAL TEMP POTENTIAL TOTALAVG TEMPAVG PRESSURE GPRESSURE VOLUME PRESSAVG GPRESSAVG
ENERGY: 0 2.1128 8.2960 2.8231 0.0000 -10738.9257 1435.7416 0.0000 0.0000 1781.4053 -7508.5469 302.1891 -9289.9522 -7508.5469 302.1891 -161.7544 -87.7971 30242.6860 -161.7544 -87.7971
ENERGY: 300000 3.4200 8.5714 3.8284 0.0000 -10754.4461 1425.6230 0.0000 0.0000 1834.5077 -7478.4955 311.1971 -9313.0033 -7524.0050 303.6174 -176.5886 -120.3558 29984.1172 91.3600 149.2313
ENERGY: 600000 2.4795 5.6460 2.2035 0.0000 -10766.6419 1542.2247 0.0000 0.0000 1761.3961 -7452.6921 298.7948 -9214.0882 -7516.4257 300.3824 1077.0793 1154.4278 30101.0103 123.6609 168.2373
ENERGY: 900000 2.7538 5.0108 4.0451 0.0000 -10760.0223 1436.1862 0.0000 0.0000 1777.6889 -7534.3374 301.5587 -9312.0263 -7507.5508 302.0000 -77.3043 -89.5968 30153.7994 166.8162 209.9044
ENERGY: 1200000 2.2285 6.0287 2.1971 0.0000 -10620.5232 1365.7975 0.0000 0.0000 1783.3868 -7460.8845 302.5252 -9244.2713 -7491.4627 302.8471 -717.3813 -623.4959 30750.9206 113.2640 169.5018
ENERGY: 1500000 2.3534 5.8533 3.8343 0.0000 -10721.0335 1406.8274 0.0000 0.0000 1784.1079 -7518.0572 302.6475 -9302.1651 -7496.2929 302.0764 -647.2301 -585.7672 30737.2925 36.5139 96.8243
TCL: Running FEP window  10: Lambda1 0.44999999999999996 Lambda2 0.49999999999999994 [dLambda 0.04999999999999999]
TCL: Setting parameter firsttimestep to 0
TCL: Setting parameter alchLambda to 0.44999999999999996
Info: NONBONDED TABLE R-SQUARED SPACING: 0.0625
Info: NONBONDED TABLE SIZE: 705 POINTS
TCL: Setting parameter alchLambda2 to 0.49999999999999994
Info: NONBONDED TABLE R-SQUARED SPACING: 0.0625
Info: NONBONDED TABLE SIZE: 705 POINTS
TCL: Running for 1500000 steps
ETITLE: TS BOND ANGLE DIHED IMPRP ELECT VDW BOUNDARY MISC KINETIC TOTAL TEMP POTENTIAL TOTALAVG TEMPAVG PRESSURE GPRESSURE VOLUME PRESSAVG GPRESSAVG
ENERGY: 0 2.3534 5.8533 3.8343 0.0000 -10721.0326 1407.1230 0.0000 0.0000 1783.2095 -7518.6592 302.4951 -9301.8686 -7518.6592 302.4951 -654.0617 -576.7648 30737.2925 -654.0617 -576.7648
ENERGY: 300000 3.4831 8.4235 1.1047 0.0000 -10847.6812 1498.7855 0.0000 0.0000 1778.6374 -7557.2470 301.7196 -9335.8844 -7509.9736 300.6106 431.9086 475.6108 29867.3755 -181.8738 -136.0295
ENERGY: 600000 2.2197 10.3540 2.8728 0.0000 -10841.3093 1480.6993 0.0000 0.0000 1785.7906 -7559.3729 302.9330 -9345.1635 -7512.8756 300.9555 469.9505 472.0428 30058.7098 -123.1237 -85.3833
ENERGY: 900000 2.7665 6.7476 2.3844 0.0000 -10822.3606 1500.6021 0.0000 0.0000 1778.0269 -7531.8332 301.6160 -9309.8600 -7521.9630 299.5707 373.6745 400.2080 30375.1164 -107.9012 -66.5028
ENERGY: 1200000 2.4249 3.9679 2.5385 0.0000 -10761.3731 1401.6257 0.0000 0.0000 1789.2087 -7561.6074 303.5128 -9350.8161 -7522.2074 299.2441 -351.8522 -362.1746 30307.3597 -111.6111 -80.5360
ENERGY: 1500000 3.9130 7.0807 1.9653 0.0000 -10778.6770 1470.5994 0.0000 0.0000 1793.9973 -7501.1213 304.3251 -9295.1186 -7522.3925 299.5245 -42.9476 -6.4726 30641.0240 -56.2244 -23.6443
TCL: Running FEP window  11: Lambda1 0.49999999999999994 Lambda2 0.5499999999999999 [dLambda 0.04999999999999999]
TCL: Setting parameter firsttimestep to 0
TCL: Setting parameter alchLambda to 0.49999999999999994
Info: NONBONDED TABLE R-SQUARED SPACING: 0.0625
Info: NONBONDED TABLE SIZE: 705 POINTS
TCL: Setting parameter alchLambda2 to 0.5499999999999999
Info: NONBONDED TABLE R-SQUARED SPACING: 0.0625
Info: NONBONDED TABLE SIZE: 705 POINTS
TCL: Running for 1500000 steps
ETITLE: TS BOND ANGLE DIHED IMPRP ELECT VDW BOUNDARY MISC KINETIC TOTAL TEMP POTENTIAL TOTALAVG TEMPAVG PRESSURE GPRESSURE VOLUME PRESSAVG GPRESSAVG
ENERGY: 0 3.9130 7.0807 1.9654 0.0000 -10778.6784 1471.1545 0.0000 0.0000 1793.1291 -7501.4358 304.1778 -9294.5649 -7501.4358 304.1778 -67.0446 3.0469 30641.0240 -67.0446 3.0469
ENERGY: 300000 3.0240 8.3561 3.8769 0.0000 -10696.6673 1401.9165 0.0000 0.0000 1810.5727 -7468.9211 307.1369 -9279.4937 -7475.6243 303.4186 -628.5969 -579.0243 31003.7268 -422.4890 -342.2921
ENERGY: 600000 5.6665 5.5415 2.7566 0.0000 -10725.7821 1432.3585 0.0000 0.0000 1756.3342 -7523.1248 297.9361 -9279.4590 -7487.2611 300.5288 -245.5014 -221.9462 30631.4962 -414.2367 -358.0557
ENERGY: 900000 4.5597 10.2156 4.0474 0.0000 -10696.4694 1449.1811 0.0000 0.0000 1830.9986 -7397.4670 310.6019 -9228.4656 -7482.7022 301.0428 93.5203 112.3878 30536.2106 -348.9144 -293.7246
ENERGY: 1200000 1.8453 7.5866 2.1598 0.0000 -10775.0884 1467.8611 0.0000 0.0000 1747.3206 -7548.3152 296.4071 -9295.6357 -7491.3793 299.6752 314.0474 396.6675 30055.8955 -132.4069 -75.7829
ENERGY: 1500000 2.8684 10.0776 2.7407 0.0000 -10740.9552 1432.9007 0.0000 0.0000 1767.4383 -7524.9296 299.8198 -9292.3679 -7479.7462 300.0239 -64.6144 -26.2262 30454.2292 -85.6659 -29.2020
TCL: Running FEP window  12: Lambda1 0.5499999999999999 Lambda2 0.6    [dLambda 0.050000000000000044]
TCL: Setting parameter firsttimestep to 0
TCL: Setting parameter alchLambda to 0.5499999999999999
Info: NONBONDED TABLE R-SQUARED SPACING: 0.0625
Info: NONBONDED TABLE SIZE: 705 POINTS
TCL: Setting parameter alchLambda2 to 0.6
Info: NONBONDED TABLE R-SQUARED SPACING: 0.0625
Info: NONBONDED TABLE SIZE: 705 POINTS
TCL: Running for 1500000 steps
ETITLE: TS BOND ANGLE DIHED IMPRP ELECT VDW BOUNDARY MISC KINETIC TOTAL TEMP POTENTIAL TOTALAVG TEMPAVG PRESSURE GPRESSURE VOLUME PRESSAVG GPRESSAVG
ENERGY: 0 2.8684 10.0776 2.7407 0.0000 -10741.3600 1433.1323 0.0000 0.0000 1766.6168 -7525.9242 299.6804 -9292.5410 -7525.9242 299.6804 -104.0408 -20.0043 30454.2292 -104.0408 -20.0043
ENERGY: 300000 2.4202 7.7776 4.1311 0.0000 -10779.6435 1521.0686 0.0000 0.0000 1756.4370 -7487.8090 297.9536 -9244.2460 -7490.9649 300.8644 616.2979 632.9523 30680.2524 12.7609 57.6928
ENERGY: 600000 4.2370 5.7487 1.2786 0.0000 -10632.1805 1353.1360 0.0000 0.0000 1745.8442 -7521.9360 296.1567 -9267.7802 -7494.5752 301.9418 -720.4825 -674.8946 30711.5724 53.3983 117.6394
ENERGY: 900000 2.5524 7.1268 3.6892 0.0000 -10664.3355 1403.8734 0.0000 0.0000 1772.0566 -7475.0372 300.6032 -9247.0937 -7505.2760 301.2157 -124.0404 -62.1752 30573.0938 6.9303 72.9991
ENERGY: 1200000 1.8449 7.6415 5.8344 0.0000 -10735.0759 1429.1907 0.0000 0.0000 1811.0403 -7479.5240 307.2162 -9290.5643 -7495.0441 302.1195 -164.5130 -45.7208 30453.8183 -70.1443 -5.4588
ENERGY: 1500000 2.2022 4.4382 1.2687 0.0000 -10616.0276 1436.9375 0.0000 0.0000 1757.2379 -7413.9431 298.0894 -9171.1810 -7491.8356 301.4078 159.2536 170.6981 30560.1773 -34.2523 26.1727
TCL: Running FEP window  13: Lambda1 0.6    Lambda2 0.65   [dLambda 0.050000000000000044]
TCL: Setting parameter firsttimestep to 0
TCL: Setting parameter alchLambda to 0.6
Info: NONBONDED TABLE R-SQUARED SPACING: 0.0625
Info: NONBONDED TABLE SIZE: 705 POINTS
TCL: Setting parameter alchLambda2 to 0.65
Info: NONBONDED TABLE R-SQUARED SPACING: 0.0625
Info: NONBONDED TABLE SIZE: 705 POINTS
TCL: Running for 1500000 steps
ETITLE: TS BOND ANGLE DIHED IMPRP ELECT VDW BOUNDARY MISC KINETIC TOTAL TEMP POTENTIAL TOTALAVG TEMPAVG PRESSURE GPRESSURE VOLUME PRESSAVG GPRESSAVG
ENERGY: 0 2.2022 4.4382 1.2687 0.0000 -10616.0580 1437.4694 0.0000 0.0000 1756.3176 -7414.3619 297.9333 -9170.6795 -7414.3619 297.9333 95.9489 183.3077 30560.1773 95.9489 183.3077
ENERGY: 300000 2.3451 4.3424 2.5685 0.0000 -10711.6768 1444.6662 0.0000 0.0000 1788.2762 -7469.4785 303.3546 -9257.7547 -7455.6048 300.9137 163.8788 252.4417 30193.4881 -66.1098 8.2252
ENERGY: 600000 2.6200 5.4628 2.6607 0.0000 -10748.0271 1438.2620 0.0000 0.0000 1736.9381 -7562.0836 294.6459 -9299.0218 -7484.6171 299.1717 -168.5865 -74.7465 30341.4644 45.2570 111.6723
ENERGY: 900000 2.4656 5.3643 1.4156 0.0000 -10563.5425 1334.4238 0.0000 0.0000 1754.8981 -7464.9751 297.6925 -9219.8732 -7477.1486 298.8966 -892.1773 -798.7475 30839.5734 -111.4676 -37.5886
ENERGY: 1200000 2.7940 9.2498 2.1531 0.0000 -10752.9444 1456.7453 0.0000 0.0000 1794.6086 -7487.3935 304.4288 -9282.0021 -7468.3663 300.3282 116.1550 187.7100 30185.0630 -35.1154 33.2450
ENERGY: 1500000 4.3504 7.1620 2.5506 0.0000 -10709.4445 1439.2353 0.0000 0.0000 1743.0597 -7513.0865 295.6843 -9256.1462 -7478.1623 299.8308 -155.4528 -126.8821 30430.7547 -27.6663 37.4089
TCL: Running FEP window  14: Lambda1 0.65   Lambda2 0.7000000000000001 [dLambda 0.050000000000000044]
TCL: Setting parameter firsttimestep to 0
TCL: Setting parameter alchLambda to 0.65
Info: NONBONDED TABLE R-SQUARED SPACING: 0.0625
Info: NONBONDED TABLE SIZE: 705 POINTS
TCL: Setting parameter alchLambda2 to 0.7000000000000001
Info: NONBONDED TABLE R-SQUARED SPACING: 0.0625
Info: NONBONDED TABLE SIZE: 705 POINTS
TCL: Running for 1500000 steps
ETITLE: TS BOND ANGLE DIHED IMPRP ELECT VDW BOUNDARY MISC KINETIC TOTAL TEMP POTENTIAL TOTALAVG TEMPAVG PRESSURE GPRESSURE VOLUME PRESSAVG GPRESSAVG
ENERGY: 0 4.3504 7.1620 2.5506 0.0000 -10711.2848 1439.2615 0.0000 0.0000 1742.1787 -7515.7817 295.5349 -9257.9604 -7515.7817 295.5349 -203.3148 -124.4189 30430.7547 -203.3148 -124.4189
ENERGY: 300000 3.7502 4.8194 3.5747 0.0000 -10795.5257 1443.1169 0.0000 0.0000 1745.4392 -7594.8253 296.0880 -9340.2645 -7527.1960 300.3929 -159.2805 -130.1631 30416.4285 -63.2367 6.1741
ENERGY: 600000 3.5748 10.7756 4.7528 0.0000 -10809.6312 1508.2796 0.0000 0.0000 1737.6174 -7544.6311 294.7611 -9282.2485 -7524.0861 297.3631 473.7633 587.7640 30247.4230 52.4166 112.7294
ENERGY: 900000 2.3760 7.5568 2.5498 0.0000 -10778.9355 1454.8964 0.0000 0.0000 1733.3277 -7578.2288 294.0334 -9311.5565 -7520.4243 299.0912 30.0968 118.7454 30693.5916 98.8569 155.1523
ENERGY: 1200000 1.7558 8.9228 2.8132 0.0000 -10809.5545 1511.7904 0.0000 0.0000 1785.6202 -7498.6522 302.9041 -9284.2723 -7515.9648 299.1465 734.3802 762.1644 30274.1142 -4.8576 49.3504
ENERGY: 1500000 1.6450 4.0435 1.2201 0.0000 -10675.5121 1393.7592 0.0000 0.0000 1729.7268 -7545.1177 293.4226 -9274.8444 -7513.3883 298.8530 -567.5726 -447.0628 30626.9764 -152.2807 -96.1155
TCL: Running FEP window  15: Lambda1 0.7000000000000001 Lambda2 0.7500000000000001 [dLambda 0.050000000000000044]
TCL: Setting parameter firsttimestep to 0
TCL: Setting parameter alchLambda to 0.7000000000000001
Info: NONBONDED TABLE R-SQUARED SPACING: 0.0625
Info: NONBONDED TABLE SIZE: 705 POINTS
TCL: Setting parameter alchLambda2 to 0.7500000000000001
Info: NONBONDED TABLE R-SQUARED SPACING: 0.0625
Info: NONBONDED TABLE SIZE: 705 POINTS
TCL: Running for 1500000 steps
ETITLE: TS BOND ANGLE DIHED IMPRP ELECT VDW BOUNDARY MISC KINETIC TOTAL TEMP POTENTIAL TOTALAVG TEMPAVG PRESSURE GPRESSURE VOLUME PRESSAVG GPRESSAVG
ENERGY: 0 1.6450 4.0435 1.2201 0.0000 -10676.1545 1394.4217 0.0000 0.0000 1728.8088 -7546.0154 293.2669 -9274.8242 -7546.0154 293.2669 -505.3075 -433.6572 30626.9764 -505.3075 -433.6572
ENERGY: 300000 1.6059 9.7121 3.6374 0.0000 -10711.3080 1427.4564 0.0000 0.0000 1767.0652 -7501.8310 299.7565 -9268.8962 -7473.1922 299.3027 -321.3888 -242.5311 30803.7041 -180.1305 -110.3190
ENERGY: 600000 3.8084 3.9460 4.0870 0.0000 -10775.2898 1451.8766 0.0000 0.0000 1795.5088 -7516.0630 304.5815 -9311.5718 -7485.5333 298.9672 -204.1871 -132.6534 30679.6724 -227.2795 -155.2094
ENERGY: 900000 2.4612 4.2044 3.5337 0.0000 -10776.7507 1412.7006 0.0000 0.0000 1733.7924 -7620.0584 294.1123 -9353.8508 -7505.4374 298.1852 -241.4373 -204.5449 30402.6833 -196.1661 -133.6249
ENERGY: 1200000 2.3524 4.9275 2.0786 0.0000 -10735.0750 1437.4114 0.0000 0.0000 1779.6646 -7508.6405 301.8938 -9288.3051 -7504.0313 299.3517 -357.8336 -273.1612 31030.8288 -159.2187 -96.7391
ENERGY: 1500000 4.8638 10.9202 3.1201 0.0000 -10769.3176 1515.3991 0.0000 0.0000 1801.0076 -7434.0067 305.5143 -9235.0144 -7509.8502 299.3212 857.8760 908.9226 30050.0855 -134.0857 -72.7597
TCL: Running FEP window  16: Lambda1 0.7500000000000001 Lambda2 0.8000000000000002 [dLambda 0.050000000000000044]
TCL: Setting parameter firsttimestep to 0
TCL: Setting parameter alchLambda to 0.7500000000000001
Info: NONBONDED TABLE R-SQUARED SPACING: 0.0625
Info: NONBONDED TABLE SIZE: 705 POINTS
TCL: Setting parameter alchLambda2 to 0.8000000000000002
Info: NONBONDED TABLE R-SQUARED SPACING: 0.0625
Info: NONBONDED TABLE SIZE: 705 POINTS
TCL: Running for 1500000 steps
ETITLE: TS BOND ANGLE DIHED IMPRP ELECT VDW BOUNDARY MISC KINETIC TOTAL TEMP POTENTIAL TOTALAVG TEMPAVG PRESSURE GPRESSURE VOLUME PRESSAVG GPRESSAVG
ENERGY: 0 4.8638 10.9202 3.1201 0.0000 -10770.3010 1514.9195 0.0000 0.0000 1800.0872 -7436.3902 305.3582 -9236.4774 -7436.3902 305.3582 833.0634 911.3207 30050.0855 833.0634 911.3207
ENERGY: 300000 2.7535 6.5941 3.7857 0.0000 -10788.0583 1440.2071 0.0000 0.0000 1750.3470 -7584.3709 296.9205 -9334.7179 -7496.2355 299.9968 -262.7493 -251.7296 30722.5593 -76.0931 -25.4898
ENERGY: 600000 2.5251 4.5676 1.9547 0.0000 -10837.5554 1524.2550 0.0000 0.0000 1694.9926 -7609.2603 287.5305 -9304.2529 -7536.0255 296.2241 685.7090 792.1432 30329.1476 53.0681 112.7908
ENERGY: 900000 1.2073 7.3449 2.9197 0.0000 -10674.7472 1376.2316 0.0000 0.0000 1758.6882 -7528.3555 298.3355 -9287.0437 -7526.5534 297.8877 -505.3272 -512.6531 30448.2116 -64.3020 -9.9887
ENERGY: 1200000 3.0995 7.3708 4.8752 0.0000 -10744.2662 1528.6494 0.0000 0.0000 1745.9821 -7454.2891 296.1801 -9200.2712 -7515.3837 298.5599 862.6536 983.6950 30305.8489 -1.5848 57.0179
ENERGY: 1500000 3.9937 5.4783 1.0070 0.0000 -10762.1296 1522.6917 0.0000 0.0000 1765.0651 -7463.8939 299.4172 -9228.9589 -7508.3631 298.7210 781.2427 775.6940 30338.1757 82.7502 140.5591
TCL: Running FEP window  17: Lambda1 0.8000000000000002 Lambda2 0.8500000000000002 [dLambda 0.050000000000000044]
TCL: Setting parameter firsttimestep to 0
TCL: Setting parameter alchLambda to 0.8000000000000002
Info: NONBONDED TABLE R-SQUARED SPACING: 0.0625
Info: NONBONDED TABLE SIZE: 705 POINTS
TCL: Setting parameter alchLambda2 to 0.8500000000000002
Info: NONBONDED TABLE R-SQUARED SPACING: 0.0625
Info: NONBONDED TABLE SIZE: 705 POINTS
TCL: Running for 1500000 steps
ETITLE: TS BOND ANGLE DIHED IMPRP ELECT VDW BOUNDARY MISC KINETIC TOTAL TEMP POTENTIAL TOTALAVG TEMPAVG PRESSURE GPRESSURE VOLUME PRESSAVG GPRESSAVG
ENERGY: 0 3.9937 5.4783 1.0070 0.0000 -10762.8733 1522.4922 0.0000 0.0000 1764.2009 -7465.7012 299.2706 -9229.9021 -7465.7012 299.2706 694.8639 778.6904 30338.1757 694.8639 778.6904
ENERGY: 300000 5.1382 6.7123 6.9071 0.0000 -10682.2381 1406.4745 0.0000 0.0000 1763.8417 -7493.1643 299.2097 -9257.0060 -7462.0859 299.4202 -294.5385 -251.1270 30572.1730 9.6936 66.5825
ENERGY: 600000 2.8104 7.5973 1.7292 0.0000 -10753.8835 1505.5402 0.0000 0.0000 1754.5795 -7481.6270 297.6385 -9236.2065 -7504.9647 299.0519 642.5556 692.2922 30553.5881 175.2965 226.4966
ENERGY: 900000 5.9597 7.3513 2.7807 0.0000 -10716.4279 1391.6417 0.0000 0.0000 1751.0020 -7557.6924 297.0316 -9308.6945 -7505.0905 299.2077 -277.6540 -244.7700 30080.4530 147.5127 199.4333
ENERGY: 1200000 4.8019 5.5704 2.0172 0.0000 -10757.7172 1483.8362 0.0000 0.0000 1763.3190 -7498.1726 299.1210 -9261.4915 -7510.4109 299.0839 258.2800 371.1243 30680.4820 62.9972 122.8736
ENERGY: 1500000 3.6956 3.9505 5.1395 0.0000 -10632.1582 1439.7834 0.0000 0.0000 1801.2921 -7378.2971 305.5626 -9179.5892 -7509.4055 299.5311 231.9227 225.3718 30457.3017 110.5373 162.6287
TCL: Running FEP window  18: Lambda1 0.8500000000000002 Lambda2 0.9000000000000002 [dLambda 0.050000000000000044]
TCL: Setting parameter firsttimestep to 0
TCL: Setting parameter alchLambda to 0.8500000000000002
Info: NONBONDED TABLE R-SQUARED SPACING: 0.0625
Info: NONBONDED TABLE SIZE: 705 POINTS
TCL: Setting parameter alchLambda2 to 0.9000000000000002
Info: NONBONDED TABLE R-SQUARED SPACING: 0.0625
Info: NONBONDED TABLE SIZE: 705 POINTS
TCL: Running for 1500000 steps
ETITLE: TS BOND ANGLE DIHED IMPRP ELECT VDW BOUNDARY MISC KINETIC TOTAL TEMP POTENTIAL TOTALAVG TEMPAVG PRESSURE GPRESSURE VOLUME PRESSAVG GPRESSAVG
ENERGY: 0 3.6956 3.9505 5.1395 0.0000 -10632.7173 1439.1376 0.0000 0.0000 1800.3849 -7380.4091 305.4087 -9180.7940 -7380.4091 305.4087 151.6820 225.7575 30457.3017 151.6820 225.7575
ENERGY: 300000 3.8841 8.7226 3.1786 0.0000 -10797.0944 1459.8266 0.0000 0.0000 1772.8596 -7548.6229 300.7394 -9321.4825 -7490.0871 304.6654 117.4920 161.8295 30091.3436 310.4556 363.0433
ENERGY: 600000 2.8512 6.3916 2.7358 0.0000 -10790.1956 1419.3042 0.0000 0.0000 1772.5593 -7586.3535 300.6885 -9358.9128 -7498.1145 303.6078 -75.2071 -44.8307 30070.2052 39.4711 102.2769
ENERGY: 900000 4.4263 9.1258 4.1934 0.0000 -10746.7625 1422.7013 0.0000 0.0000 1759.1757 -7547.1401 298.4182 -9306.3157 -7503.1074 302.6936 -534.0257 -478.6825 30885.2703 -118.4144 -55.4633
ENERGY: 1200000 4.7097 4.8901 4.5805 0.0000 -10743.8452 1473.8737 0.0000 0.0000 1754.5175 -7501.2737 297.6280 -9255.7912 -7509.4913 302.9830 64.5240 133.9860 30847.7135 -74.0013 -10.3004
ENERGY: 1500000 3.6428 3.6115 1.5126 0.0000 -10719.0613 1412.9893 0.0000 0.0000 1745.8661 -7551.4390 296.1604 -9297.3051 -7504.2071 302.6783 -204.2301 -190.3025 30849.0058 -87.4185 -24.1311
TCL: Running FEP window  19: Lambda1 0.9000000000000002 Lambda2 0.9500000000000003 [dLambda 0.050000000000000044]
TCL: Setting parameter firsttimestep to 0
TCL: Setting parameter alchLambda to 0.9000000000000002
Info: NONBONDED TABLE R-SQUARED SPACING: 0.0625
Info: NONBONDED TABLE SIZE: 705 POINTS
TCL: Setting parameter alchLambda2 to 0.9500000000000003
Info: NONBONDED TABLE R-SQUARED SPACING: 0.0625
Info: NONBONDED TABLE SIZE: 705 POINTS
TCL: Running for 1500000 steps
ETITLE: TS BOND ANGLE DIHED IMPRP ELECT VDW BOUNDARY MISC KINETIC TOTAL TEMP POTENTIAL TOTALAVG TEMPAVG PRESSURE GPRESSURE VOLUME PRESSAVG GPRESSAVG
ENERGY: 0 3.6428 3.6115 1.5126 0.0000 -10721.4535 1415.6317 0.0000 0.0000 1745.0232 -7552.0318 296.0174 -9297.0549 -7552.0318 296.0174 -228.5870 -153.8325 30849.0058 -228.5870 -153.8325
ENERGY: 300000 5.4010 5.8665 2.4692 0.0000 -10619.7697 1330.4218 0.0000 0.0000 1750.7280 -7524.8832 296.9851 -9275.6112 -7533.1943 297.6212 -1232.1230 -1191.9567 31023.9737 -391.7307 -341.6520
ENERGY: 600000 1.1641 6.2466 2.3401 0.0000 -10723.6967 1395.3059 0.0000 0.0000 1775.3400 -7543.3000 301.1602 -9318.6400 -7535.7476 296.7682 -531.4311 -433.5465 30586.8197 -268.7612 -211.6897
ENERGY: 900000 2.2158 6.7960 1.4188 0.0000 -10779.5016 1473.1957 0.0000 0.0000 1794.1841 -7501.6912 304.3568 -9295.8753 -7539.6895 297.8572 341.8644 390.4681 30511.3559 -95.2577 -27.8028
ENERGY: 1200000 4.1749 9.7097 3.0602 0.0000 -10743.0361 1438.5865 0.0000 0.0000 1726.0511 -7561.4537 292.7991 -9287.5048 -7537.7258 297.1910 -338.6903 -286.8004 30708.2705 76.5888 143.1245
ENERGY: 1500000 4.6175 5.0022 3.7569 0.0000 -10545.5813 1406.2677 0.0000 0.0000 1806.3447 -7319.5922 306.4197 -9125.9370 -7518.4243 298.0322 -20.7586 51.6648 30993.3870 66.1627 137.2768
TCL: Running FEP window  20: Lambda1 0.9500000000000003 Lambda2 1.0    [dLambda 0.04999999999999971]
TCL: Setting parameter firsttimestep to 0
TCL: Setting parameter alchLambda to 0.9500000000000003
Info: NONBONDED TABLE R-SQUARED SPACING: 0.0625
Info: NONBONDED TABLE SIZE: 705 POINTS
TCL: Setting parameter alchLambda2 to 1.0
Info: NONBONDED TABLE R-SQUARED SPACING: 0.0625
Info: NONBONDED TABLE SIZE: 705 POINTS
TCL: Running for 1500000 steps
ETITLE: TS BOND ANGLE DIHED IMPRP ELECT VDW BOUNDARY MISC KINETIC TOTAL TEMP POTENTIAL TOTALAVG TEMPAVG PRESSURE GPRESSURE VOLUME PRESSAVG GPRESSAVG
ENERGY: 0 4.6175 5.0022 3.7569 0.0000 -10547.1868 1406.0826 0.0000 0.0000 1805.4502 -7322.2773 306.2680 -9127.7276 -7322.2773 306.2680 -28.3400 55.0133 30993.3870 -28.3400 55.0133
ENERGY: 300000 2.7893 4.9010 0.9888 0.0000 -10775.8170 1407.7991 0.0000 0.0000 1805.5964 -7553.7425 306.2927 -9359.3389 -7479.5256 302.8781 -385.9871 -357.4288 30179.4062 39.0164 102.6759
ENERGY: 600000 1.8765 3.6534 2.8866 0.0000 -10639.1317 1389.2438 0.0000 0.0000 1792.2399 -7449.2315 304.0270 -9241.4714 -7477.2723 302.3976 -434.6613 -386.6852 30664.7145 71.7302 130.9533
ENERGY: 900000 2.9367 14.1229 5.5922 0.0000 -10687.9250 1324.0722 0.0000 0.0000 1746.1469 -7595.0542 296.2080 -9341.2011 -7505.3399 301.1672 -1048.3326 -988.5730 30414.5962 -57.9802 9.7619
ENERGY: 1200000 1.8343 7.2213 6.3091 0.0000 -10714.1993 1449.5950 0.0000 0.0000 1764.9727 -7484.2669 299.4015 -9249.2396 -7506.3028 301.0666 34.9661 101.2566 30503.6883 -11.0990 50.2831
ENERGY: 1500000 2.3227 5.8929 0.9677 0.0000 -10592.6194 1348.0933 0.0000 0.0000 1799.6424 -7435.7005 305.2827 -9235.3429 -7505.9118 301.1901 -824.6883 -788.4280 30900.9066 -11.8781 50.2935
TCL: Exiting due to exit command.
