Info: SIMULATION PARAMETERS:
Info: TIMESTEP               2
Info: NUMBER OF STEPS        0
Info: STEPS PER CYCLE        10
Info: PERIODIC CELL BASIS 1  32.3096 0 0
Info: PERIODIC CELL BASIS 2  0 34.1965 0
Info: PERIODIC CELL BASIS 3  0 0 27.6802
Info: PERIODIC CELL CENTER   0 0 0
Info: WRAPPING WATERS AROUND PERIODIC BOUNDARIES ON OUTPUT.
Info: WRAPPING ALL CLUSTERS AROUND PERIODIC BOUNDARIES ON OUTPUT.
Info: FIRST LDB TIMESTEP     50
Info: LAST LDB TIMESTEP     -1
Info: HOM BACKGROUND SCALING 1
Info: PME BACKGROUND SCALING 1
Info: MIN ATOMS PER PATCH    40
Info: EMPTY PATCH LOAD       40 ATOMS
Info: VELOCITY FILE          mobley_637522_equil.vel
Info: CENTER OF MASS MOVING INITIALLY? NO
Info: DIELECTRIC             1
Info: EXCLUDE                SCALED ONE-FOUR
Info: 1-4 ELECTROSTATICS SCALED BY 0.833333
Info: MODIFIED 1-4 VDW PARAMETERS WILL BE USED
Info: DCD FILENAME           mobley_637522_prod.dcd
Info: DCD FREQUENCY          100000
Info: DCD FIRST STEP         100000
Info: DCD FILE WILL CONTAIN UNIT CELL DATA
Info: XST FILENAME           mobley_637522_prod.xst
Info: XST FREQUENCY          100000
Info: NO VELOCITY DCD OUTPUT
Info: NO FORCE DCD OUTPUT
Info: OUTPUT FILENAME        mobley_637522_prod
Info: BINARY OUTPUT FILES WILL BE USED
Info: RESTART FILENAME       mobley_637522_prod.restart
Info: RESTART FREQUENCY      100000
Info: BINARY RESTART FILES WILL BE USED
Info: CUTOFF                 9
Info: PAIRLIST DISTANCE      11
Info: PAIRLIST SHRINK RATE   0.01
Info: PAIRLIST GROW RATE     0.01
Info: PAIRLIST TRIGGER       0.3
Info: PAIRLISTS PER CYCLE    2
Info: PAIRLISTS ENABLED
Info: MARGIN                 2
Info: HYDROGEN GROUP CUTOFF  2.5
Info: PATCH DIMENSION        15.5
Info: ENERGY OUTPUT STEPS    100000
Info: ENERGY EVALUATION STEPS    100000
Info: OUTPUT ENERGY PRECISION 4
Info: CROSSTERM ENERGY INCLUDED IN DIHEDRAL
Info: TIMING OUTPUT STEPS    1000000
Info: PRESSURE OUTPUT STEPS  100000
Info: ALCHEMICAL FEP ON
Info: FEP CURRENT LAMBDA VALUE     0
Info: FEP COMPARISON LAMBDA VALUE  0.05
Info: FEP INTRA-ALCHEMICAL NON-BONDED INTERACTIONS WILL BE RETAINED
Info: FEP INTRA-ALCHEMICAL BONDED INTERACTIONS WILL BE RETAINED
Info: FEP VDW SHIFTING COEFFICIENT 5
Info: FEP ELEC. ACTIVE FOR ANNIHILATED PARTICLES BETWEEN LAMBDA = 0 AND LAMBDA = 0.5
Info: FEP ELEC. ACTIVE FOR EXNIHILATED PARTICLES BETWEEN LAMBDA = 0.5 AND LAMBDA = 1
Info: FEP VDW ACTIVE FOR ANNIHILATED PARTICLES BETWEEN LAMBDA = 0 AND LAMBDA = 1
Info: FEP VDW ACTIVE FOR EXNIHILATED PARTICLES BETWEEN LAMBDA = 0 AND LAMBDA = 1
Info: FEP BOND ACTIVE FOR ANNIHILATED PARTICLES BETWEEN LAMBDA = 1 AND LAMBDA = 1
Info: FEP BOND ACTIVE FOR EXNIHILATED PARTICLES BETWEEN LAMBDA = 0 AND LAMBDA = 0
Info: LANGEVIN DYNAMICS ACTIVE
Info: LANGEVIN TEMPERATURE   300
Info: LANGEVIN USING BBK INTEGRATOR
Info: LANGEVIN DAMPING COEFFICIENT IS 1 INVERSE PS
Info: LANGEVIN DYNAMICS APPLIED TO HYDROGENS
Info: LANGEVIN PISTON PRESSURE CONTROL ACTIVE
Info:        TARGET PRESSURE IS 1.01325 BAR
Info:     OSCILLATION PERIOD IS 50 FS
Info:             DECAY TIME IS 25 FS
Info:     PISTON TEMPERATURE IS 300 K
Info:       PRESSURE CONTROL IS GROUP-BASED
Info:    INITIAL STRAIN RATE IS -0.000178085 -0.000178085 -0.000178085
Info:       CELL FLUCTUATION IS ISOTROPIC
Info: PARTICLE MESH EWALD (PME) ACTIVE
Info: PME TOLERANCE               1e-06
Info: PME EWALD COEFFICIENT       0.348832
Info: PME INTERPOLATION ORDER     4
Info: PME GRID DIMENSIONS         36 36 28
Info: PME MAXIMUM GRID SPACING    1
Info: PME CALCULATION WILL BE PERFORMED ON GPU
Info: FULL ELECTROSTATIC EVALUATION FREQUENCY      2
Info: USING VERLET I (r-RESPA) MTS SCHEME.
Info: C1 SPLITTING OF LONG RANGE ELECTROSTATICS
Info: PLACING ATOMS IN PATCHES BY HYDROGEN GROUPS
Info: RIGID BONDS TO HYDROGEN : ALL
Info:         ERROR TOLERANCE : 1e-08
Info:          MAX ITERATIONS : 100
Info: RIGID WATER USING SETTLE ALGORITHM
Info: RANDOM NUMBER SEED     1743655717
Info: USE HYDROGEN BONDS?    NO
Info: Using AMBER format force field!
Info: AMBER PARM FILE        mobley_637522.prmtop
Info: COORDINATE PDB         mobley_637522.pdb
Info: Exclusions will be read from PARM file!
Info: SCNB (VDW SCALING)     2
Info: USING ARITHMETIC MEAN TO COMBINE L-J SIGMA PARAMETERS
Info: BINARY COORDINATES     mobley_637522_equil.coor
Info: SUMMARY OF PARAMETERS:
Info: 4 BONDS
Info: 2 ANGLES
Info:   2 HARMONIC
Info:   0 COSINE-BASED
Info: 2 DIHEDRAL
Info: 0 IMPROPER
Info: 0 CROSSTERM
Info: 0 VDW
Info: 10 VDW_PAIRS
Info: 0 NBTHOLE_PAIRS
Info: To read alchdata from file: mobley_637522.pdb
Info: To read alchflag data from column: 5
Info: STRUCTURE SUMMARY:
Info: 2970 ATOMS
Info: 2972 BONDS
Info: 42 ANGLES
Info: 78 DIHEDRALS
Info: 0 IMPROPERS
Info: 0 CROSSTERMS
Info: 3069 EXCLUSIONS
Info: 2956 RIGID BONDS
Info: ALCH: 0 ATOMS TO DISAPPEAR IN FINAL STATE
Info: ALCH: 24 ATOMS TO APPEAR IN FINAL STATE
Info: 5954 DEGREES OF FREEDOM
Info: 996 HYDROGEN GROUPS
Info: 3 ATOMS IN LARGEST HYDROGEN GROUP
Info: 996 MIGRATION GROUPS
Info: 3 ATOMS IN LARGEST MIGRATION GROUP
Info: TOTAL MASS = 17869.9 amu
Info: TOTAL CHARGE = -2.98023e-08 e
Info: MASS DENSITY = 0.970286 g/cm^3
Info: ATOM DENSITY = 0.0971123 atoms/A^3
Info: ADDED 0 IMPLICIT EXCLUSIONS
Info: NONBONDED TABLE R-SQUARED SPACING: 0.0625
Info: NONBONDED TABLE SIZE: 705 POINTS
Info: REDUCING NUMBER OF PATCHES TO IMPROVE LOAD BALANCE
Info: REMOVING COM VELOCITY -0.0781669 0.0859178 -0.063102
Info: Use 3D box decompostion in PME FFT.
Info: Updated CUDA force table with 4096 elements.
Info: Updated CUDA LJ table with 4 x 4 elements.
Info: Found 22 unique exclusion lists needing 72 bytes
TCL: Running for 1500000 steps
ETITLE: TS BOND ANGLE DIHED IMPRP ELECT VDW BOUNDARY MISC KINETIC TOTAL TEMP POTENTIAL TOTALAVG TEMPAVG PRESSURE GPRESSURE VOLUME PRESSAVG GPRESSAVG
ENERGY: 0 6.3582 7.8647 4.5330 0.0000 -10756.4531 1493.0293 0.0000 0.0000 1758.4053 -7486.2627 297.2354 -9244.6679 -7486.2627 297.2354 6.1592 100.5510 30583.1637 6.1592 100.5510
ENERGY: 300000 3.6193 3.8396 6.5316 0.0000 -10704.5229 1383.9747 0.0000 0.0000 1753.7065 -7552.8512 296.4411 -9306.5577 -7538.7804 296.2119 -620.1555 -530.2219 30103.0462 -81.1536 -12.8192
ENERGY: 600000 4.6642 4.8614 5.4936 0.0000 -10685.5998 1487.3618 0.0000 0.0000 1719.4090 -7463.8097 290.6436 -9183.2188 -7526.4777 295.7323 256.0014 388.7663 30457.4426 40.3436 108.7135
ENERGY: 900000 3.4768 12.4510 8.1523 0.0000 -10781.4353 1461.2310 0.0000 0.0000 1790.1160 -7506.0083 302.5957 -9296.1243 -7516.5085 297.7137 25.6905 97.6269 30199.0302 2.7535 67.4943
ENERGY: 1200000 2.4053 4.7373 6.1222 0.0000 -10797.2082 1535.4447 0.0000 0.0000 1739.6355 -7508.8632 294.0626 -9248.4987 -7509.4031 297.6883 887.0901 885.9210 29966.3852 72.2860 131.2840
ENERGY: 1500000 5.3780 6.9797 11.2482 0.0000 -10697.1348 1423.5253 0.0000 0.0000 1757.5583 -7492.4453 297.0922 -9250.0036 -7500.3584 298.3826 129.3889 198.5187 29736.8746 67.8224 122.6082
TCL: Running FEP window   2: Lambda1 0.05   Lambda2 0.1    [dLambda 0.05  ]
TCL: Setting parameter firsttimestep to 0
TCL: Setting parameter alchLambda to 0.05
Info: NONBONDED TABLE R-SQUARED SPACING: 0.0625
Info: NONBONDED TABLE SIZE: 705 POINTS
TCL: Setting parameter alchLambda2 to 0.1
Info: NONBONDED TABLE R-SQUARED SPACING: 0.0625
Info: NONBONDED TABLE SIZE: 705 POINTS
TCL: Running for 1500000 steps
ETITLE: TS BOND ANGLE DIHED IMPRP ELECT VDW BOUNDARY MISC KINETIC TOTAL TEMP POTENTIAL TOTALAVG TEMPAVG PRESSURE GPRESSURE VOLUME PRESSAVG GPRESSAVG
ENERGY: 0 5.3780 6.9797 11.2482 0.0000 -10697.1360 1427.7652 0.0000 0.0000 1756.6768 -7489.0881 296.9432 -9245.7649 -7489.0881 296.9432 133.7726 210.1872 29736.8746 133.7726 210.1872
ENERGY: 300000 7.4107 8.8276 5.0527 0.0000 -10694.0358 1394.9654 0.0000 0.0000 1793.1526 -7484.6268 303.1090 -9277.7794 -7470.4325 298.2761 -509.1703 -371.9478 30056.1912 -184.8085 -98.2913
ENERGY: 600000 2.3989 2.6528 7.7195 0.0000 -10873.5581 1495.9581 0.0000 0.0000 1834.3456 -7530.4833 310.0721 -9364.8288 -7482.6399 299.2947 296.8197 381.6266 29878.2054 -170.4211 -83.7804
ENERGY: 900000 3.6038 5.0648 3.2038 0.0000 -10874.8790 1621.4986 0.0000 0.0000 1769.9917 -7471.5163 299.1939 -9241.5080 -7482.6987 299.3414 1414.1721 1457.9435 30156.0829 17.1503 109.2552
ENERGY: 1200000 4.0855 5.4000 5.9312 0.0000 -10546.0874 1351.8455 0.0000 0.0000 1781.8652 -7396.9600 301.2010 -9178.8252 -7465.4799 299.9034 -640.0152 -585.3010 30553.1992 -8.2733 68.8622
ENERGY: 1500000 4.7122 4.3809 6.7588 0.0000 -10718.6850 1475.5251 0.0000 0.0000 1762.6559 -7464.6522 297.9539 -9227.3080 -7460.2851 300.2203 156.5568 158.1813 30436.1358 40.4947 114.7649
TCL: Running FEP window   3: Lambda1 0.1    Lambda2 0.15000000000000002 [dLambda 0.05000000000000002]
TCL: Setting parameter firsttimestep to 0
TCL: Setting parameter alchLambda to 0.1
Info: NONBONDED TABLE R-SQUARED SPACING: 0.0625
Info: NONBONDED TABLE SIZE: 705 POINTS
TCL: Setting parameter alchLambda2 to 0.15000000000000002
Info: NONBONDED TABLE R-SQUARED SPACING: 0.0625
Info: NONBONDED TABLE SIZE: 705 POINTS
TCL: Running for 1500000 steps
ETITLE: TS BOND ANGLE DIHED IMPRP ELECT VDW BOUNDARY MISC KINETIC TOTAL TEMP POTENTIAL TOTALAVG TEMPAVG PRESSURE GPRESSURE VOLUME PRESSAVG GPRESSAVG
ENERGY: 0 4.7122 4.3809 6.7588 0.0000 -10718.6856 1479.7794 0.0000 0.0000 1761.7688 -7461.2855 297.8040 -9223.0543 -7461.2855 297.8040 101.9705 177.6967 30436.1358 101.9705 177.6967
ENERGY: 300000 2.9025 9.6459 6.3596 0.0000 -10732.9365 1453.7042 0.0000 0.0000 1822.8256 -7437.4988 308.1248 -9260.3244 -7456.9786 301.0237 -32.7629 26.3316 30540.6326 141.3217 202.9928
ENERGY: 600000 2.9480 6.3792 7.9760 0.0000 -10763.5888 1497.4782 0.0000 0.0000 1761.1712 -7487.6362 297.7029 -9248.8074 -7476.5332 299.6565 169.1419 271.6262 30451.6216 402.3649 466.4607
ENERGY: 900000 8.8486 4.5466 5.9056 0.0000 -10866.4818 1517.3464 0.0000 0.0000 1785.7055 -7544.1290 301.8501 -9329.8345 -7482.1927 300.3203 417.5974 502.4576 30316.6639 336.1927 401.4582
ENERGY: 1200000 3.3239 5.4370 7.8957 0.0000 -10860.1455 1549.9945 0.0000 0.0000 1799.6526 -7493.8419 304.2077 -9293.4945 -7481.8431 299.3970 692.6397 761.6121 30496.5562 313.0156 381.6488
ENERGY: 1500000 4.9773 8.1546 9.1998 0.0000 -10707.1684 1387.8413 0.0000 0.0000 1750.4593 -7546.5361 295.8922 -9296.9954 -7487.5234 299.6088 -749.6668 -664.5793 30319.3569 226.4025 290.7107
TCL: Running FEP window   4: Lambda1 0.15000000000000002 Lambda2 0.2    [dLambda 0.04999999999999999]
TCL: Setting parameter firsttimestep to 0
TCL: Setting parameter alchLambda to 0.15000000000000002
Info: NONBONDED TABLE R-SQUARED SPACING: 0.0625
Info: NONBONDED TABLE SIZE: 705 POINTS
TCL: Setting parameter alchLambda2 to 0.2
Info: NONBONDED TABLE R-SQUARED SPACING: 0.0625
Info: NONBONDED TABLE SIZE: 705 POINTS
TCL: Running for 1500000 steps
ETITLE: TS BOND ANGLE DIHED IMPRP ELECT VDW BOUNDARY MISC KINETIC TOTAL TEMP POTENTIAL TOTALAVG TEMPAVG PRESSURE GPRESSURE VOLUME PRESSAVG GPRESSAVG
ENERGY: 0 4.9773 8.1546 9.1998 0.0000 -10707.1701 1391.8481 0.0000 0.0000 1749.5730 -7543.4173 295.7424 -9292.9903 -7543.4173 295.7424 -726.3515 -646.5278 30319.3569 -726.3515 -646.5278
ENERGY: 300000 8.1187 4.0411 6.9413 0.0000 -10686.3344 1434.8701 0.0000 0.0000 1769.5930 -7462.7701 299.1265 -9232.3631 -7469.9479 304.4913 -252.1949 -170.0138 30726.4251 -47.7253 -15.6105
ENERGY: 600000 4.2096 4.1934 5.5010 0.0000 -10628.4535 1434.4013 0.0000 0.0000 1818.2227 -7361.9256 307.3468 -9180.1482 -7440.6122 303.6117 110.8765 215.6375 30139.0223 -211.9604 -173.8069
ENERGY: 900000 6.7988 4.3290 6.3771 0.0000 -10628.9431 1350.5829 0.0000 0.0000 1710.9950 -7549.8603 289.2213 -9260.8553 -7450.3008 302.6945 -843.4319 -781.0224 30321.9451 -210.2854 -172.7728
ENERGY: 1200000 10.7571 4.7002 7.7898 0.0000 -10721.2098 1462.4281 0.0000 0.0000 1844.3356 -7391.1989 311.7608 -9235.5346 -7442.0382 305.2360 -2.1477 18.5035 30479.2089 -139.7123 -94.2104
ENERGY: 1500000 7.3054 8.7477 6.8753 0.0000 -10734.1978 1467.4808 0.0000 0.0000 1743.6995 -7500.0891 294.7496 -9243.7885 -7447.7765 304.0822 -29.4147 42.9649 30369.4633 -207.1904 -161.0023
TCL: Running FEP window   5: Lambda1 0.2    Lambda2 0.25   [dLambda 0.04999999999999999]
TCL: Setting parameter firsttimestep to 0
TCL: Setting parameter alchLambda to 0.2
Info: NONBONDED TABLE R-SQUARED SPACING: 0.0625
Info: NONBONDED TABLE SIZE: 705 POINTS
TCL: Setting parameter alchLambda2 to 0.25
Info: NONBONDED TABLE R-SQUARED SPACING: 0.0625
Info: NONBONDED TABLE SIZE: 705 POINTS
TCL: Running for 1500000 steps
ETITLE: TS BOND ANGLE DIHED IMPRP ELECT VDW BOUNDARY MISC KINETIC TOTAL TEMP POTENTIAL TOTALAVG TEMPAVG PRESSURE GPRESSURE VOLUME PRESSAVG GPRESSAVG
ENERGY: 0 7.3054 8.7477 6.8753 0.0000 -10734.1974 1468.3256 0.0000 0.0000 1742.8043 -7500.1391 294.5983 -9242.9434 -7500.1391 294.5983 -34.4429 54.0272 30369.4633 -34.4429 54.0272
ENERGY: 300000 3.9882 8.3888 7.3839 0.0000 -10721.6768 1435.6403 0.0000 0.0000 1720.7313 -7545.5444 290.8671 -9266.2757 -7486.8902 296.4475 -214.3549 -150.8437 30247.6747 -265.4587 -154.1186
ENERGY: 600000 4.2642 7.1330 5.1914 0.0000 -10673.9096 1396.6345 0.0000 0.0000 1741.5034 -7519.1831 294.3784 -9260.6865 -7479.6584 298.0220 -341.8215 -278.1642 30037.0965 -230.7229 -147.5079
ENERGY: 900000 4.1226 4.9108 11.0961 0.0000 -10713.7894 1405.0620 0.0000 0.0000 1834.1152 -7454.4827 310.0332 -9288.5980 -7472.9610 300.0733 -399.9212 -323.5808 30226.3558 -110.1605 -34.7944
ENERGY: 1200000 3.4109 4.5389 7.7490 0.0000 -10747.4299 1483.2296 0.0000 0.0000 1800.8079 -7447.6936 304.4030 -9248.5015 -7483.8911 299.3174 747.4341 845.4522 30118.7810 1.4477 83.6973
ENERGY: 1500000 1.6342 8.4735 6.5992 0.0000 -10761.8483 1476.6317 0.0000 0.0000 1820.2024 -7448.3073 307.6814 -9268.5098 -7471.6841 300.7781 155.6286 263.9443 30423.3887 40.7326 124.0886
TCL: Running FEP window   6: Lambda1 0.25   Lambda2 0.3    [dLambda 0.04999999999999999]
TCL: Setting parameter firsttimestep to 0
TCL: Setting parameter alchLambda to 0.25
Info: NONBONDED TABLE R-SQUARED SPACING: 0.0625
Info: NONBONDED TABLE SIZE: 705 POINTS
TCL: Setting parameter alchLambda2 to 0.3
Info: NONBONDED TABLE R-SQUARED SPACING: 0.0625
Info: NONBONDED TABLE SIZE: 705 POINTS
TCL: Running for 1500000 steps
ETITLE: TS BOND ANGLE DIHED IMPRP ELECT VDW BOUNDARY MISC KINETIC TOTAL TEMP POTENTIAL TOTALAVG TEMPAVG PRESSURE GPRESSURE VOLUME PRESSAVG GPRESSAVG
ENERGY: 0 1.6342 8.4735 6.5991 0.0000 -10761.8481 1476.4803 0.0000 0.0000 1819.3556 -7449.3053 307.5383 -9268.6610 -7449.3053 307.5383 192.1510 269.4000 30423.3887 192.1510 269.4000
ENERGY: 300000 10.1378 5.9199 8.6788 0.0000 -10885.9089 1515.7616 0.0000 0.0000 1778.1182 -7567.2926 300.5676 -9345.4108 -7461.0655 306.0010 103.8927 163.9913 30463.5767 422.6837 495.1089
ENERGY: 600000 7.3711 6.5727 5.5730 0.0000 -10729.8183 1500.2276 0.0000 0.0000 1763.5251 -7446.5488 298.1008 -9210.0739 -7481.9170 303.9109 588.9966 618.3509 30511.5033 359.7932 434.0360
ENERGY: 900000 5.5339 4.9653 6.4793 0.0000 -10802.3626 1558.3185 0.0000 0.0000 1777.3082 -7449.7575 300.4307 -9227.0657 -7478.2467 303.8677 712.9246 849.6949 30533.7444 326.6110 395.2761
ENERGY: 1200000 5.1624 4.9555 5.8599 0.0000 -10780.9358 1491.1025 0.0000 0.0000 1758.8946 -7514.9609 297.3181 -9273.8555 -7479.2961 302.7074 306.4853 392.2047 29955.8130 245.2159 312.0666
ENERGY: 1500000 8.1068 6.4846 5.2140 0.0000 -10673.9152 1414.7720 0.0000 0.0000 1795.6977 -7443.6399 303.5392 -9239.3377 -7486.0028 302.1825 -752.0986 -656.0201 30998.1395 103.5883 173.1131
TCL: Running FEP window   7: Lambda1 0.3    Lambda2 0.35   [dLambda 0.04999999999999999]
TCL: Setting parameter firsttimestep to 0
TCL: Setting parameter alchLambda to 0.3
Info: NONBONDED TABLE R-SQUARED SPACING: 0.0625
Info: NONBONDED TABLE SIZE: 705 POINTS
TCL: Setting parameter alchLambda2 to 0.35
Info: NONBONDED TABLE R-SQUARED SPACING: 0.0625
Info: NONBONDED TABLE SIZE: 705 POINTS
TCL: Running for 1500000 steps
ETITLE: TS BOND ANGLE DIHED IMPRP ELECT VDW BOUNDARY MISC KINETIC TOTAL TEMP POTENTIAL TOTALAVG TEMPAVG PRESSURE GPRESSURE VOLUME PRESSAVG GPRESSAVG
ENERGY: 0 8.1068 6.4846 5.2140 0.0000 -10673.9151 1415.1464 0.0000 0.0000 1794.7999 -7444.1634 303.3874 -9238.9632 -7444.1634 303.3874 -736.7081 -648.7299 30998.1395 -736.7081 -648.7299
ENERGY: 300000 7.7990 2.9445 6.5583 0.0000 -10797.6654 1471.5550 0.0000 0.0000 1771.9652 -7536.8433 299.5275 -9308.8085 -7495.7199 299.9133 -216.5770 -226.2399 30815.5072 -159.3994 -102.1150
ENERGY: 600000 7.4547 8.3566 4.1330 0.0000 -10642.4748 1439.4622 0.0000 0.0000 1734.1222 -7448.9461 293.1307 -9183.0683 -7469.6318 299.9790 -20.7843 57.3882 30500.2141 113.1874 192.0654
ENERGY: 900000 6.5751 5.1280 10.8813 0.0000 -10767.8531 1493.6846 0.0000 0.0000 1768.4699 -7483.1143 298.9367 -9251.5842 -7469.7363 299.1306 388.8715 426.7762 30081.4547 230.5079 304.2022
ENERGY: 1200000 8.6158 5.2071 2.6841 0.0000 -10617.9778 1403.3992 0.0000 0.0000 1754.8101 -7443.2615 296.6277 -9198.0716 -7471.6672 299.0988 -317.2307 -210.5463 30829.5782 137.7130 212.5317
ENERGY: 1500000 3.2042 4.3651 3.5901 0.0000 -10834.6676 1503.2375 0.0000 0.0000 1829.6788 -7490.5919 309.2833 -9320.2707 -7466.6533 299.9619 638.2871 728.4366 30161.3820 137.8341 210.3054
TCL: Running FEP window   8: Lambda1 0.35   Lambda2 0.39999999999999997 [dLambda 0.04999999999999999]
TCL: Setting parameter firsttimestep to 0
TCL: Setting parameter alchLambda to 0.35
Info: NONBONDED TABLE R-SQUARED SPACING: 0.0625
Info: NONBONDED TABLE SIZE: 705 POINTS
TCL: Setting parameter alchLambda2 to 0.39999999999999997
Info: NONBONDED TABLE R-SQUARED SPACING: 0.0625
Info: NONBONDED TABLE SIZE: 705 POINTS
TCL: Running for 1500000 steps
ETITLE: TS BOND ANGLE DIHED IMPRP ELECT VDW BOUNDARY MISC KINETIC TOTAL TEMP POTENTIAL TOTALAVG TEMPAVG PRESSURE GPRESSURE VOLUME PRESSAVG GPRESSAVG
ENERGY: 0 3.2042 4.3651 3.5901 0.0000 -10834.6672 1504.1988 0.0000 0.0000 1828.8154 -7490.4937 309.1373 -9319.3091 -7490.4937 309.1373 651.6267 740.4775 30161.3820 651.6267 740.4775
ENERGY: 300000 3.5173 2.7252 5.6723 0.0000 -10770.6986 1493.8236 0.0000 0.0000 1799.3128 -7465.6474 304.1503 -9264.9602 -7494.7200 303.6729 145.0976 214.9159 30551.9505 40.4724 115.8160
ENERGY: 600000 7.0340 8.6836 5.7324 0.0000 -10766.8091 1437.7129 0.0000 0.0000 1760.6881 -7546.9581 297.6213 -9307.6462 -7507.8328 301.0419 -205.7580 -163.4136 30111.2608 152.8835 223.2892
ENERGY: 900000 3.6154 4.8716 9.4440 0.0000 -10516.1970 1361.7380 0.0000 0.0000 1811.5471 -7324.9809 306.2183 -9136.5280 -7481.3565 301.1765 -618.2652 -550.9882 31030.1033 71.1311 139.4323
ENERGY: 1200000 2.8502 5.7037 2.3255 0.0000 -10703.2547 1403.0088 0.0000 0.0000 1761.3575 -7528.0091 297.7344 -9289.3665 -7487.0529 300.9685 -527.0946 -398.1636 30485.3763 -1.9424 67.8284
ENERGY: 1500000 4.8809 5.8053 8.7779 0.0000 -10646.7522 1368.0674 0.0000 0.0000 1837.2638 -7421.9570 310.5654 -9259.2208 -7478.4911 301.7376 -577.6244 -505.3460 30670.5091 -17.3391 45.8687
TCL: Running FEP window   9: Lambda1 0.39999999999999997 Lambda2 0.44999999999999996 [dLambda 0.04999999999999999]
TCL: Setting parameter firsttimestep to 0
TCL: Setting parameter alchLambda to 0.39999999999999997
Info: NONBONDED TABLE R-SQUARED SPACING: 0.0625
Info: NONBONDED TABLE SIZE: 705 POINTS
TCL: Setting parameter alchLambda2 to 0.44999999999999996
Info: NONBONDED TABLE R-SQUARED SPACING: 0.0625
Info: NONBONDED TABLE SIZE: 705 POINTS
TCL: Running for 1500000 steps
ETITLE: TS BOND ANGLE DIHED IMPRP ELECT VDW BOUNDARY MISC KINETIC TOTAL TEMP POTENTIAL TOTALAVG TEMPAVG PRESSURE GPRESSURE VOLUME PRESSAVG GPRESSAVG
ENERGY: 0 4.8809 5.8053 8.7779 0.0000 -10646.7506 1368.1112 0.0000 0.0000 1836.3846 -7422.7906 310.4168 -9259.1752 -7422.7906 310.4168 -577.3471 -500.1694 30670.5091 -577.3471 -500.1694
ENERGY: 300000 4.9427 4.4019 7.4168 0.0000 -10553.6188 1303.5187 0.0000 0.0000 1753.7152 -7479.6236 296.4426 -9233.3388 -7460.8986 298.2528 -1218.2499 -1125.3879 30500.4735 -406.1075 -327.3711
ENERGY: 600000 6.6902 6.0031 5.5204 0.0000 -10653.0385 1419.1940 0.0000 0.0000 1788.3732 -7427.2576 302.3011 -9215.6308 -7453.3389 299.8383 -271.8178 -197.5823 30982.0482 -402.4004 -319.6398
ENERGY: 900000 8.2500 5.8682 8.0644 0.0000 -10823.3591 1521.2128 0.0000 0.0000 1786.6993 -7493.2645 302.0181 -9279.9638 -7460.0025 300.0477 569.2918 680.7546 30204.2819 -304.1110 -217.6302
ENERGY: 1200000 2.3809 4.3680 3.9143 0.0000 -10799.8774 1513.0792 0.0000 0.0000 1799.1288 -7477.0063 304.1192 -9276.1351 -7461.7417 300.8569 746.0401 796.0377 30239.3666 -221.1658 -139.2497
ENERGY: 1500000 8.4366 6.2758 6.9769 0.0000 -10565.2182 1436.3241 0.0000 0.0000 1811.3787 -7295.8262 306.1899 -9107.2048 -7450.3753 301.9645 216.3873 231.5265 30399.1454 -96.3590 -20.2867
TCL: Running FEP window  10: Lambda1 0.44999999999999996 Lambda2 0.49999999999999994 [dLambda 0.04999999999999999]
TCL: Setting parameter firsttimestep to 0
TCL: Setting parameter alchLambda to 0.44999999999999996
Info: NONBONDED TABLE R-SQUARED SPACING: 0.0625
Info: NONBONDED TABLE SIZE: 705 POINTS
TCL: Setting parameter alchLambda2 to 0.49999999999999994
Info: NONBONDED TABLE R-SQUARED SPACING: 0.0625
Info: NONBONDED TABLE SIZE: 705 POINTS
TCL: Running for 1500000 steps
ETITLE: TS BOND ANGLE DIHED IMPRP ELECT VDW BOUNDARY MISC KINETIC TOTAL TEMP POTENTIAL TOTALAVG TEMPAVG PRESSURE GPRESSURE VOLUME PRESSAVG GPRESSAVG
ENERGY: 0 8.4366 6.2758 6.9769 0.0000 -10565.2170 1436.4603 0.0000 0.0000 1810.5363 -7296.5311 306.0475 -9107.0674 -7296.5311 306.0475 160.1464 239.3287 30399.1454 160.1464 239.3287
ENERGY: 300000 6.1969 4.6151 4.2377 0.0000 -10887.3199 1589.9826 0.0000 0.0000 1792.9575 -7489.3300 303.0760 -9282.2875 -7466.2671 301.5384 1048.3720 1120.8179 30512.4608 314.3409 395.7249
ENERGY: 600000 3.3732 6.5998 2.7563 0.0000 -10749.2780 1439.9685 0.0000 0.0000 1792.8936 -7503.6868 303.0652 -9296.5803 -7466.5557 301.5870 -135.3656 -161.2272 30618.0631 94.1886 146.7484
ENERGY: 900000 4.9595 6.3868 6.5373 0.0000 -10760.3057 1487.4322 0.0000 0.0000 1804.4374 -7450.5524 305.0165 -9254.9898 -7476.8864 301.4181 263.0284 285.6952 30323.7766 118.4566 167.7575
ENERGY: 1200000 4.6312 6.8051 8.5272 0.0000 -10635.0376 1414.9224 0.0000 0.0000 1811.9436 -7388.2081 306.2854 -9200.1517 -7456.5619 302.2209 -335.9836 -278.2444 31086.5924 173.2735 229.5987
ENERGY: 1500000 3.2775 6.6979 4.2092 0.0000 -10817.8906 1488.1182 0.0000 0.0000 1783.2463 -7532.3414 301.4345 -9315.5878 -7458.2465 302.5484 133.5513 197.4326 30559.1574 70.0180 123.7298
TCL: Running FEP window  11: Lambda1 0.49999999999999994 Lambda2 0.5499999999999999 [dLambda 0.04999999999999999]
TCL: Setting parameter firsttimestep to 0
TCL: Setting parameter alchLambda to 0.49999999999999994
Info: NONBONDED TABLE R-SQUARED SPACING: 0.0625
Info: NONBONDED TABLE SIZE: 705 POINTS
TCL: Setting parameter alchLambda2 to 0.5499999999999999
Info: NONBONDED TABLE R-SQUARED SPACING: 0.0625
Info: NONBONDED TABLE SIZE: 705 POINTS
TCL: Running for 1500000 steps
ETITLE: TS BOND ANGLE DIHED IMPRP ELECT VDW BOUNDARY MISC KINETIC TOTAL TEMP POTENTIAL TOTALAVG TEMPAVG PRESSURE GPRESSURE VOLUME PRESSAVG GPRESSAVG
ENERGY: 0 3.2775 6.6979 4.2092 0.0000 -10817.8907 1487.3476 0.0000 0.0000 1782.3875 -7533.9710 301.2893 -9316.3585 -7533.9710 301.2893 126.6998 197.5012 30559.1574 126.6998 197.5012
ENERGY: 300000 5.6300 4.0202 8.9238 0.0000 -10713.9769 1505.7940 0.0000 0.0000 1765.1834 -7424.4254 298.3812 -9189.6088 -7472.9207 298.1945 655.8224 701.0585 30637.4705 220.8699 263.4429
ENERGY: 600000 4.6724 4.8694 8.3337 0.0000 -10706.2596 1403.5640 0.0000 0.0000 1741.3035 -7543.5167 294.3446 -9284.8202 -7483.3752 297.8812 -281.1355 -216.6403 30513.0646 43.7622 86.9956
ENERGY: 900000 3.5763 4.7367 4.8429 0.0000 -10701.5630 1432.6456 0.0000 0.0000 1763.2344 -7492.5270 298.0517 -9255.7615 -7478.0472 299.3539 -291.7182 -223.7349 30738.5119 136.6832 190.5183
ENERGY: 1200000 5.9972 3.6700 6.5857 0.0000 -10639.6258 1432.5555 0.0000 0.0000 1819.0644 -7371.7529 307.4890 -9190.8173 -7468.2145 300.5600 -63.5557 -8.2245 30950.7764 115.0141 163.1222
ENERGY: 1500000 7.7468 9.0200 4.4068 0.0000 -10626.1457 1404.4682 0.0000 0.0000 1809.0012 -7391.5027 305.7880 -9200.5039 -7459.4910 300.8311 -260.9471 -192.7277 30575.2172 62.8153 120.3871
TCL: Running FEP window  12: Lambda1 0.5499999999999999 Lambda2 0.6    [dLambda 0.050000000000000044]
TCL: Setting parameter firsttimestep to 0
TCL: Setting parameter alchLambda to 0.5499999999999999
Info: NONBONDED TABLE R-SQUARED SPACING: 0.0625
Info: NONBONDED TABLE SIZE: 705 POINTS
TCL: Setting parameter alchLambda2 to 0.6
Info: NONBONDED TABLE R-SQUARED SPACING: 0.0625
Info: NONBONDED TABLE SIZE: 705 POINTS
TCL: Running for 1500000 steps
ETITLE: TS BOND ANGLE DIHED IMPRP ELECT VDW BOUNDARY MISC KINETIC TOTAL TEMP POTENTIAL TOTALAVG TEMPAVG PRESSURE GPRESSURE VOLUME PRESSAVG GPRESSAVG
ENERGY: 0 7.7468 9.0200 4.4068 0.0000 -10626.1194 1404.3313 0.0000 0.0000 1808.0911 -7392.5234 305.6341 -9200.6145 -7392.5234 305.6341 -263.0020 -184.2243 30575.2172 -263.0020 -184.2243
ENERGY: 300000 5.2269 6.4391 6.2309 0.0000 -10622.4582 1374.4237 0.0000 0.0000 1790.6099 -7439.5276 302.6792 -9230.1375 -7454.7744 303.1161 -548.0148 -502.9445 30784.2009 -210.3897 -134.1519
ENERGY: 600000 4.7295 7.1900 6.3390 0.0000 -10565.2023 1414.4882 0.0000 0.0000 1805.8505 -7326.6051 305.2554 -9132.4557 -7435.0962 300.8813 57.8153 124.2407 30868.1495 -313.4522 -234.6025
ENERGY: 900000 4.8060 3.7173 8.9919 0.0000 -10661.0468 1404.4438 0.0000 0.0000 1834.6216 -7404.4662 310.1188 -9239.0878 -7431.8037 302.8528 -17.6629 79.9711 30293.6904 -128.5802 -58.7501
ENERGY: 1200000 5.8568 8.3369 6.9832 0.0000 -10544.1457 1379.3590 0.0000 0.0000 1830.2262 -7313.3836 309.3758 -9143.6098 -7424.6939 303.5326 -394.4087 -255.6142 30807.4985 -85.8927 -13.0717
ENERGY: 1500000 4.5677 4.6109 6.3170 0.0000 -10651.2109 1395.0657 0.0000 0.0000 1767.6740 -7472.9757 298.8021 -9240.6497 -7433.6376 302.4096 -539.8752 -483.3661 30965.8529 -120.3744 -49.7080
TCL: Running FEP window  13: Lambda1 0.6    Lambda2 0.65   [dLambda 0.050000000000000044]
TCL: Setting parameter firsttimestep to 0
TCL: Setting parameter alchLambda to 0.6
Info: NONBONDED TABLE R-SQUARED SPACING: 0.0625
Info: NONBONDED TABLE SIZE: 705 POINTS
TCL: Setting parameter alchLambda2 to 0.65
Info: NONBONDED TABLE R-SQUARED SPACING: 0.0625
Info: NONBONDED TABLE SIZE: 705 POINTS
TCL: Running for 1500000 steps
ETITLE: TS BOND ANGLE DIHED IMPRP ELECT VDW BOUNDARY MISC KINETIC TOTAL TEMP POTENTIAL TOTALAVG TEMPAVG PRESSURE GPRESSURE VOLUME PRESSAVG GPRESSAVG
ENERGY: 0 4.5677 4.6109 6.3170 0.0000 -10650.9696 1395.1505 0.0000 0.0000 1766.7938 -7473.5297 298.6534 -9240.3236 -7473.5297 298.6534 -552.5373 -471.3771 30965.8529 -552.5373 -471.3771
ENERGY: 300000 3.5421 7.6881 7.9851 0.0000 -10705.0466 1450.8776 0.0000 0.0000 1769.7035 -7465.2501 299.1452 -9234.9537 -7475.6718 299.9305 53.8583 184.5992 30415.2263 -216.0033 -138.8513
ENERGY: 600000 5.4030 7.2352 3.2117 0.0000 -10626.4086 1372.3413 0.0000 0.0000 1747.9188 -7490.2986 295.4628 -9238.2174 -7466.9455 298.7623 -710.0308 -666.5370 31006.2459 -261.1816 -190.8177
ENERGY: 900000 6.8528 5.6488 6.7857 0.0000 -10677.5631 1418.5948 0.0000 0.0000 1770.8258 -7468.8552 299.3349 -9239.6810 -7475.3797 299.6184 -141.9034 -65.4790 30586.8505 -67.4918 8.7794
ENERGY: 1200000 5.0088 6.4702 7.1437 0.0000 -10872.0912 1595.7031 0.0000 0.0000 1778.6410 -7479.1243 300.6560 -9257.7653 -7479.5742 300.0082 1439.6306 1549.7926 29805.2427 97.4093 172.9053
ENERGY: 1500000 6.6321 10.3296 8.6594 0.0000 -10809.6021 1507.0682 0.0000 0.0000 1780.7843 -7496.1285 301.0183 -9276.9129 -7478.3482 300.4427 155.4364 174.1950 30668.7409 113.7262 182.7000
TCL: Running FEP window  14: Lambda1 0.65   Lambda2 0.7000000000000001 [dLambda 0.050000000000000044]
TCL: Setting parameter firsttimestep to 0
TCL: Setting parameter alchLambda to 0.65
Info: NONBONDED TABLE R-SQUARED SPACING: 0.0625
Info: NONBONDED TABLE SIZE: 705 POINTS
TCL: Setting parameter alchLambda2 to 0.7000000000000001
Info: NONBONDED TABLE R-SQUARED SPACING: 0.0625
Info: NONBONDED TABLE SIZE: 705 POINTS
TCL: Running for 1500000 steps
ETITLE: TS BOND ANGLE DIHED IMPRP ELECT VDW BOUNDARY MISC KINETIC TOTAL TEMP POTENTIAL TOTALAVG TEMPAVG PRESSURE GPRESSURE VOLUME PRESSAVG GPRESSAVG
ENERGY: 0 6.6321 10.3296 8.6594 0.0000 -10809.9101 1507.0263 0.0000 0.0000 1779.8861 -7497.3767 300.8665 -9277.2628 -7497.3767 300.8665 89.4377 185.9454 30668.7409 89.4377 185.9454
ENERGY: 300000 3.7668 6.8733 7.2950 0.0000 -10858.7399 1480.4622 0.0000 0.0000 1763.2247 -7597.1179 298.0501 -9360.3426 -7532.3068 298.6007 220.2333 229.7071 30027.8366 -382.5830 -306.0868
ENERGY: 600000 4.6216 6.1765 4.0741 0.0000 -10767.1315 1420.5920 0.0000 0.0000 1755.9924 -7575.6749 296.8275 -9331.6673 -7531.4048 298.7459 -582.0662 -573.0073 31000.1688 -156.0123 -79.3694
ENERGY: 900000 6.7247 5.2437 6.9084 0.0000 -10724.5800 1439.0953 0.0000 0.0000 1744.3028 -7522.3052 294.8516 -9266.6080 -7507.6641 299.1589 -187.8770 -88.0969 30804.3998 -166.7269 -92.4323
ENERGY: 1200000 3.5212 4.4545 4.2488 0.0000 -10648.6994 1364.5543 0.0000 0.0000 1772.4321 -7499.4886 299.6064 -9271.9206 -7502.0443 298.5411 -607.3191 -603.6100 30447.0369 -213.9516 -152.7188
ENERGY: 1500000 6.7060 7.3592 6.6421 0.0000 -10644.9465 1385.1590 0.0000 0.0000 1813.4831 -7425.5972 306.5456 -9239.0803 -7492.1044 298.9278 -580.7189 -461.6657 30508.1924 -215.9285 -157.7148
TCL: Running FEP window  15: Lambda1 0.7000000000000001 Lambda2 0.7500000000000001 [dLambda 0.050000000000000044]
TCL: Setting parameter firsttimestep to 0
TCL: Setting parameter alchLambda to 0.7000000000000001
Info: NONBONDED TABLE R-SQUARED SPACING: 0.0625
Info: NONBONDED TABLE SIZE: 705 POINTS
TCL: Setting parameter alchLambda2 to 0.7500000000000001
Info: NONBONDED TABLE R-SQUARED SPACING: 0.0625
Info: NONBONDED TABLE SIZE: 705 POINTS
TCL: Running for 1500000 steps
ETITLE: TS BOND ANGLE DIHED IMPRP ELECT VDW BOUNDARY MISC KINETIC TOTAL TEMP POTENTIAL TOTALAVG TEMPAVG PRESSURE GPRESSURE VOLUME PRESSAVG GPRESSAVG
ENERGY: 0 6.7060 7.3592 6.6421 0.0000 -10645.3533 1385.0564 0.0000 0.0000 1812.6220 -7426.9676 306.4000 -9239.5897 -7426.9676 306.4000 -536.2262 -455.5206 30508.1924 -536.2262 -455.5206
ENERGY: 300000 10.2661 6.1307 6.6055 0.0000 -10737.1620 1456.7215 0.0000 0.0000 1852.6901 -7404.7482 313.1730 -9257.4383 -7467.9029 301.9454 43.2282 129.5751 30489.5636 -164.5933 -109.3274
ENERGY: 600000 3.7122 4.1046 3.5681 0.0000 -10861.8638 1524.1918 0.0000 0.0000 1703.5845 -7622.7025 287.9687 -9326.2870 -7505.3528 298.6823 521.3949 631.8218 30288.5026 -154.8220 -89.6064
ENERGY: 900000 5.5523 3.8480 4.5291 0.0000 -10764.5091 1437.3724 0.0000 0.0000 1802.5135 -7510.6939 304.6913 -9313.2074 -7497.4848 298.9237 -278.8610 -253.2488 30656.9077 -115.1585 -49.7607
ENERGY: 1200000 3.7055 5.0771 9.1768 0.0000 -10740.0562 1407.2819 0.0000 0.0000 1796.3990 -7518.4160 303.6577 -9314.8150 -7496.0263 299.7773 -587.5960 -560.3418 30772.7496 -68.8895 -8.8334
ENERGY: 1500000 5.6114 7.7445 7.1900 0.0000 -10705.6270 1388.1084 0.0000 0.0000 1722.7432 -7574.2296 291.2072 -9296.9728 -7498.7260 299.3641 -513.4131 -479.2003 30413.4949 -61.7939 -4.9633
TCL: Running FEP window  16: Lambda1 0.7500000000000001 Lambda2 0.8000000000000002 [dLambda 0.050000000000000044]
TCL: Setting parameter firsttimestep to 0
TCL: Setting parameter alchLambda to 0.7500000000000001
Info: NONBONDED TABLE R-SQUARED SPACING: 0.0625
Info: NONBONDED TABLE SIZE: 705 POINTS
TCL: Setting parameter alchLambda2 to 0.8000000000000002
Info: NONBONDED TABLE R-SQUARED SPACING: 0.0625
Info: NONBONDED TABLE SIZE: 705 POINTS
TCL: Running for 1500000 steps
ETITLE: TS BOND ANGLE DIHED IMPRP ELECT VDW BOUNDARY MISC KINETIC TOTAL TEMP POTENTIAL TOTALAVG TEMPAVG PRESSURE GPRESSURE VOLUME PRESSAVG GPRESSAVG
ENERGY: 0 5.6114 7.7445 7.1900 0.0000 -10706.2579 1387.3440 0.0000 0.0000 1721.8965 -7576.4715 291.0641 -9298.3680 -7576.4715 291.0641 -562.1257 -474.3945 30413.4949 -562.1257 -474.3945
ENERGY: 300000 6.6791 8.0458 3.7000 0.0000 -10647.0336 1377.2126 0.0000 0.0000 1731.5334 -7519.8626 292.6931 -9251.3960 -7489.7017 294.9139 -537.3509 -496.9206 30618.1136 122.0033 186.7535
ENERGY: 600000 4.7158 5.6651 6.9066 0.0000 -10684.9667 1388.4920 0.0000 0.0000 1769.3734 -7509.8139 299.0894 -9279.1873 -7484.1989 297.4445 -322.0903 -209.2907 30161.8663 -119.4503 -57.1965
ENERGY: 900000 5.5570 6.9832 4.2476 0.0000 -10738.9121 1452.0542 0.0000 0.0000 1811.4823 -7458.5879 306.2074 -9270.0701 -7466.9843 298.5844 453.4362 500.7282 30301.0845 40.3466 102.6138
ENERGY: 1200000 4.3169 5.4460 8.4826 0.0000 -10711.5088 1433.4398 0.0000 0.0000 1788.8588 -7470.9648 302.3832 -9259.8236 -7463.1709 300.2832 -93.7653 -42.6034 30477.4166 30.8329 89.1412
ENERGY: 1500000 2.2909 2.8073 9.4147 0.0000 -10706.9662 1437.4586 0.0000 0.0000 1766.8289 -7488.1658 298.6593 -9254.9947 -7469.1456 299.7973 257.2224 306.0975 30407.8083 10.9986 69.8734
TCL: Running FEP window  17: Lambda1 0.8000000000000002 Lambda2 0.8500000000000002 [dLambda 0.050000000000000044]
TCL: Setting parameter firsttimestep to 0
TCL: Setting parameter alchLambda to 0.8000000000000002
Info: NONBONDED TABLE R-SQUARED SPACING: 0.0625
Info: NONBONDED TABLE SIZE: 705 POINTS
TCL: Setting parameter alchLambda2 to 0.8500000000000002
Info: NONBONDED TABLE R-SQUARED SPACING: 0.0625
Info: NONBONDED TABLE SIZE: 705 POINTS
TCL: Running for 1500000 steps
ETITLE: TS BOND ANGLE DIHED IMPRP ELECT VDW BOUNDARY MISC KINETIC TOTAL TEMP POTENTIAL TOTALAVG TEMPAVG PRESSURE GPRESSURE VOLUME PRESSAVG GPRESSAVG
ENERGY: 0 2.2909 2.8073 9.4147 0.0000 -10707.8132 1438.4420 0.0000 0.0000 1765.9389 -7488.9193 298.5089 -9254.8582 -7488.9193 298.5089 237.5603 331.3471 30407.8083 237.5603 331.3471
ENERGY: 300000 5.1785 3.7748 5.8886 0.0000 -10722.5705 1477.3675 0.0000 0.0000 1745.3900 -7484.9710 295.0353 -9230.3610 -7495.4901 298.2140 449.9930 491.8029 30534.5217 184.2562 243.4176
ENERGY: 600000 5.9741 6.4696 13.0455 0.0000 -10783.7982 1415.0677 0.0000 0.0000 1760.0957 -7583.1457 297.5211 -9343.2414 -7490.5820 298.5316 -475.0498 -401.9527 30208.8441 206.2433 265.6791
ENERGY: 900000 3.2120 5.6254 4.4209 0.0000 -10695.3936 1417.0644 0.0000 0.0000 1753.1928 -7511.8780 296.3543 -9265.0709 -7489.9495 298.8814 -5.7333 63.0417 30135.6492 230.3405 291.6968
ENERGY: 1200000 5.7679 3.0484 3.0767 0.0000 -10617.4572 1391.4744 0.0000 0.0000 1762.4003 -7451.6895 297.9107 -9214.0898 -7474.6517 299.9615 -44.1183 80.2401 30303.1586 294.3014 359.5410
ENERGY: 1500000 5.2688 3.5561 7.9114 0.0000 -10740.6279 1447.9971 0.0000 0.0000 1741.7561 -7534.1383 294.4211 -9275.8944 -7485.2658 299.2612 7.5916 1.5838 30674.6184 219.7821 280.7075
TCL: Running FEP window  18: Lambda1 0.8500000000000002 Lambda2 0.9000000000000002 [dLambda 0.050000000000000044]
TCL: Setting parameter firsttimestep to 0
TCL: Setting parameter alchLambda to 0.8500000000000002
Info: NONBONDED TABLE R-SQUARED SPACING: 0.0625
Info: NONBONDED TABLE SIZE: 705 POINTS
TCL: Setting parameter alchLambda2 to 0.9000000000000002
Info: NONBONDED TABLE R-SQUARED SPACING: 0.0625
Info: NONBONDED TABLE SIZE: 705 POINTS
TCL: Running for 1500000 steps
ETITLE: TS BOND ANGLE DIHED IMPRP ELECT VDW BOUNDARY MISC KINETIC TOTAL TEMP POTENTIAL TOTALAVG TEMPAVG PRESSURE GPRESSURE VOLUME PRESSAVG GPRESSAVG
ENERGY: 0 5.2688 3.5561 7.9114 0.0000 -10741.5721 1447.3325 0.0000 0.0000 1740.8378 -7536.6655 294.2658 -9277.5033 -7536.6655 294.2658 -72.4358 7.7304 30674.6184 -72.4358 7.7304
ENERGY: 300000 5.2498 6.2071 5.2027 0.0000 -10691.0118 1495.2179 0.0000 0.0000 1746.6748 -7432.4595 295.2525 -9179.1343 -7498.8546 295.4536 665.5619 664.7141 30752.8140 556.1661 619.7254
ENERGY: 600000 2.8006 6.0013 4.2430 0.0000 -10610.0233 1356.7300 0.0000 0.0000 1779.7680 -7460.4804 300.8465 -9240.2484 -7499.3483 297.3623 -854.7290 -788.5079 30962.6751 86.8450 151.7006
ENERGY: 900000 5.0885 5.1735 4.1576 0.0000 -10855.3680 1538.4431 0.0000 0.0000 1750.3681 -7552.1374 295.8768 -9302.5054 -7518.2134 297.2508 813.1175 842.9616 30107.0454 50.5951 115.4289
ENERGY: 1200000 3.9620 4.5435 8.3580 0.0000 -10604.6518 1394.0784 0.0000 0.0000 1803.9403 -7389.7697 304.9325 -9193.7099 -7502.0803 298.6164 -83.5875 -59.1000 30697.9454 -4.6285 59.2600
ENERGY: 1500000 4.8115 3.5004 5.0423 0.0000 -10651.4002 1408.7728 0.0000 0.0000 1759.9494 -7469.3239 297.4964 -9229.2733 -7494.6919 299.2319 56.1028 123.7530 30689.8254 -16.4277 54.0361
TCL: Running FEP window  19: Lambda1 0.9000000000000002 Lambda2 0.9500000000000003 [dLambda 0.050000000000000044]
TCL: Setting parameter firsttimestep to 0
TCL: Setting parameter alchLambda to 0.9000000000000002
Info: NONBONDED TABLE R-SQUARED SPACING: 0.0625
Info: NONBONDED TABLE SIZE: 705 POINTS
TCL: Setting parameter alchLambda2 to 0.9500000000000003
Info: NONBONDED TABLE R-SQUARED SPACING: 0.0625
Info: NONBONDED TABLE SIZE: 705 POINTS
TCL: Running for 1500000 steps
ETITLE: TS BOND ANGLE DIHED IMPRP ELECT VDW BOUNDARY MISC KINETIC TOTAL TEMP POTENTIAL TOTALAVG TEMPAVG PRESSURE GPRESSURE VOLUME PRESSAVG GPRESSAVG
ENERGY: 0 4.8115 3.5004 5.0423 0.0000 -10652.2026 1409.2290 0.0000 0.0000 1759.0792 -7470.5403 297.3493 -9229.6195 -7470.5403 297.3493 68.3088 149.4356 30689.8254 68.3088 149.4356
ENERGY: 300000 6.8159 7.3553 6.6299 0.0000 -10552.1917 1357.3068 0.0000 0.0000 1819.5613 -7354.5225 307.5730 -9174.0837 -7466.6653 297.9302 -478.6753 -431.1657 30817.9282 81.5736 138.9619
ENERGY: 600000 3.1165 3.6375 5.8802 0.0000 -10708.1864 1419.4434 0.0000 0.0000 1750.4056 -7525.7033 295.8832 -9276.1089 -7476.6763 297.4417 -251.4843 -219.2856 30692.7797 -58.6671 2.6575
ENERGY: 900000 7.4909 6.9747 10.2975 0.0000 -10798.9701 1523.2998 0.0000 0.0000 1799.5599 -7451.3474 304.1920 -9250.9073 -7479.1092 298.7989 673.1914 785.3626 30300.6792 -62.3349 4.1239
ENERGY: 1200000 3.9892 5.7877 3.7720 0.0000 -10651.2599 1460.9477 0.0000 0.0000 1774.6231 -7402.1401 299.9768 -9176.7632 -7470.7973 298.7495 135.6468 179.4390 30983.3485 -78.3491 -13.5862
ENERGY: 1500000 6.6878 6.5509 11.2654 0.0000 -10700.6816 1411.9197 0.0000 0.0000 1775.1305 -7489.1273 300.0626 -9264.2578 -7468.9886 299.3539 -326.6576 -256.8948 30489.7725 -27.3695 38.5058
TCL: Running FEP window  20: Lambda1 0.9500000000000003 Lambda2 1.0    [dLambda 0.04999999999999971]
TCL: Setting parameter firsttimestep to 0
TCL: Setting parameter alchLambda to 0.9500000000000003
Info: NONBONDED TABLE R-SQUARED SPACING: 0.0625
Info: NONBONDED TABLE SIZE: 705 POINTS
TCL: Setting parameter alchLambda2 to 1.0
Info: NONBONDED TABLE R-SQUARED SPACING: 0.0625
Info: NONBONDED TABLE SIZE: 705 POINTS
TCL: Running for 1500000 steps
ETITLE: TS BOND ANGLE DIHED IMPRP ELECT VDW BOUNDARY MISC KINETIC TOTAL TEMP POTENTIAL TOTALAVG TEMPAVG PRESSURE GPRESSURE VOLUME PRESSAVG GPRESSAVG
ENERGY: 0 6.6878 6.5509 11.2654 0.0000 -10702.2152 1412.1798 0.0000 0.0000 1774.2611 -7491.2703 299.9156 -9265.5314 -7491.2703 299.9156 -331.9786 -240.9730 30489.7725 -331.9786 -240.9730
ENERGY: 300000 5.8521 3.8235 7.5615 0.0000 -10458.2274 1264.4134 0.0000 0.0000 1751.5511 -7425.0256 296.0768 -9176.5768 -7475.2443 296.5420 -1142.9586 -1065.1395 30439.0062 -246.3800 -169.2341
ENERGY: 600000 6.8446 3.0935 6.7172 0.0000 -10687.4410 1416.6839 0.0000 0.0000 1743.1030 -7510.9988 294.6488 -9254.1019 -7497.5834 295.4950 -245.9703 -167.8964 30539.9110 -26.1930 42.6103
ENERGY: 900000 5.1963 8.2859 6.0515 0.0000 -10656.1922 1395.0171 0.0000 0.0000 1769.9169 -7471.7244 299.1813 -9241.6414 -7493.1411 296.1226 -302.2822 -284.5120 30829.0663 -200.6483 -147.1168
ENERGY: 1200000 5.8267 7.2266 2.1162 0.0000 -10697.3075 1432.1094 0.0000 0.0000 1796.0249 -7454.0036 303.5945 -9250.0285 -7478.9992 297.7885 -88.7620 -39.3697 30500.9486 -149.8067 -95.0976
ENERGY: 1500000 12.5359 5.4300 7.4330 0.0000 -10780.0565 1422.6727 0.0000 0.0000 1831.4797 -7500.5053 309.5877 -9331.9850 -7478.7655 299.3486 -201.5475 -126.4786 30057.1250 -195.1010 -136.7702
TCL: Exiting due to exit command.
