Info: SIMULATION PARAMETERS:
Info: TIMESTEP               2
Info: NUMBER OF STEPS        0
Info: STEPS PER CYCLE        10
Info: PERIODIC CELL BASIS 1  31.1392 0 0
Info: PERIODIC CELL BASIS 2  0 29.7267 0
Info: PERIODIC CELL BASIS 3  0 0 33.3332
Info: PERIODIC CELL CENTER   0 0 0
Info: WRAPPING WATERS AROUND PERIODIC BOUNDARIES ON OUTPUT.
Info: WRAPPING ALL CLUSTERS AROUND PERIODIC BOUNDARIES ON OUTPUT.
Info: FIRST LDB TIMESTEP     50
Info: LAST LDB TIMESTEP     -1
Info: HOM BACKGROUND SCALING 1
Info: PME BACKGROUND SCALING 1
Info: MIN ATOMS PER PATCH    40
Info: EMPTY PATCH LOAD       40 ATOMS
Info: VELOCITY FILE          mobley_5520946_equil.vel
Info: CENTER OF MASS MOVING INITIALLY? NO
Info: DIELECTRIC             1
Info: EXCLUDE                SCALED ONE-FOUR
Info: 1-4 ELECTROSTATICS SCALED BY 0.833333
Info: MODIFIED 1-4 VDW PARAMETERS WILL BE USED
Info: DCD FILENAME           mobley_5520946_prod.dcd
Info: DCD FREQUENCY          100000
Info: DCD FIRST STEP         100000
Info: DCD FILE WILL CONTAIN UNIT CELL DATA
Info: XST FILENAME           mobley_5520946_prod.xst
Info: XST FREQUENCY          100000
Info: NO VELOCITY DCD OUTPUT
Info: NO FORCE DCD OUTPUT
Info: OUTPUT FILENAME        mobley_5520946_prod
Info: BINARY OUTPUT FILES WILL BE USED
Info: RESTART FILENAME       mobley_5520946_prod.restart
Info: RESTART FREQUENCY      100000
Info: BINARY RESTART FILES WILL BE USED
Info: CUTOFF                 9
Info: PAIRLIST DISTANCE      11
Info: PAIRLIST SHRINK RATE   0.01
Info: PAIRLIST GROW RATE     0.01
Info: PAIRLIST TRIGGER       0.3
Info: PAIRLISTS PER CYCLE    2
Info: PAIRLISTS ENABLED
Info: MARGIN                 2
Info: HYDROGEN GROUP CUTOFF  2.5
Info: PATCH DIMENSION        15.5
Info: ENERGY OUTPUT STEPS    100000
Info: ENERGY EVALUATION STEPS    100000
Info: OUTPUT ENERGY PRECISION 4
Info: CROSSTERM ENERGY INCLUDED IN DIHEDRAL
Info: TIMING OUTPUT STEPS    1000000
Info: PRESSURE OUTPUT STEPS  100000
Info: ALCHEMICAL FEP ON
Info: FEP CURRENT LAMBDA VALUE     0
Info: FEP COMPARISON LAMBDA VALUE  0.05
Info: FEP INTRA-ALCHEMICAL NON-BONDED INTERACTIONS WILL BE RETAINED
Info: FEP INTRA-ALCHEMICAL BONDED INTERACTIONS WILL BE RETAINED
Info: FEP VDW SHIFTING COEFFICIENT 5
Info: FEP ELEC. ACTIVE FOR ANNIHILATED PARTICLES BETWEEN LAMBDA = 0 AND LAMBDA = 0.5
Info: FEP ELEC. ACTIVE FOR EXNIHILATED PARTICLES BETWEEN LAMBDA = 0.5 AND LAMBDA = 1
Info: FEP VDW ACTIVE FOR ANNIHILATED PARTICLES BETWEEN LAMBDA = 0 AND LAMBDA = 1
Info: FEP VDW ACTIVE FOR EXNIHILATED PARTICLES BETWEEN LAMBDA = 0 AND LAMBDA = 1
Info: FEP BOND ACTIVE FOR ANNIHILATED PARTICLES BETWEEN LAMBDA = 1 AND LAMBDA = 1
Info: FEP BOND ACTIVE FOR EXNIHILATED PARTICLES BETWEEN LAMBDA = 0 AND LAMBDA = 0
Info: LANGEVIN DYNAMICS ACTIVE
Info: LANGEVIN TEMPERATURE   300
Info: LANGEVIN USING BBK INTEGRATOR
Info: LANGEVIN DAMPING COEFFICIENT IS 1 INVERSE PS
Info: LANGEVIN DYNAMICS APPLIED TO HYDROGENS
Info: LANGEVIN PISTON PRESSURE CONTROL ACTIVE
Info:        TARGET PRESSURE IS 1.01325 BAR
Info:     OSCILLATION PERIOD IS 50 FS
Info:             DECAY TIME IS 25 FS
Info:     PISTON TEMPERATURE IS 300 K
Info:       PRESSURE CONTROL IS GROUP-BASED
Info:    INITIAL STRAIN RATE IS 0.000181045 0.000181045 0.000181045
Info:       CELL FLUCTUATION IS ISOTROPIC
Info: PARTICLE MESH EWALD (PME) ACTIVE
Info: PME TOLERANCE               1e-06
Info: PME EWALD COEFFICIENT       0.348832
Info: PME INTERPOLATION ORDER     4
Info: PME GRID DIMENSIONS         32 32 36
Info: PME MAXIMUM GRID SPACING    1
Info: PME CALCULATION WILL BE PERFORMED ON GPU
Info: FULL ELECTROSTATIC EVALUATION FREQUENCY      2
Info: USING VERLET I (r-RESPA) MTS SCHEME.
Info: C1 SPLITTING OF LONG RANGE ELECTROSTATICS
Info: PLACING ATOMS IN PATCHES BY HYDROGEN GROUPS
Info: RIGID BONDS TO HYDROGEN : ALL
Info:         ERROR TOLERANCE : 1e-08
Info:          MAX ITERATIONS : 100
Info: RIGID WATER USING SETTLE ALGORITHM
Info: RANDOM NUMBER SEED     1743548311
Info: USE HYDROGEN BONDS?    NO
Info: Using AMBER format force field!
Info: AMBER PARM FILE        mobley_5520946.prmtop
Info: COORDINATE PDB         mobley_5520946.pdb
Info: Exclusions will be read from PARM file!
Info: SCNB (VDW SCALING)     2
Info: USING ARITHMETIC MEAN TO COMBINE L-J SIGMA PARAMETERS
Info: BINARY COORDINATES     mobley_5520946_equil.coor
Info: SUMMARY OF PARAMETERS:
Info: 6 BONDS
Info: 4 ANGLES
Info:   4 HARMONIC
Info:   0 COSINE-BASED
Info: 3 DIHEDRAL
Info: 0 IMPROPER
Info: 0 CROSSTERM
Info: 0 VDW
Info: 21 VDW_PAIRS
Info: 0 NBTHOLE_PAIRS
Info: To read alchdata from file: mobley_5520946.pdb
Info: To read alchflag data from column: 5
Info: STRUCTURE SUMMARY:
Info: 2950 ATOMS
Info: 2950 BONDS
Info: 19 ANGLES
Info: 32 DIHEDRALS
Info: 0 IMPROPERS
Info: 0 CROSSTERMS
Info: 2992 EXCLUSIONS
Info: 2943 RIGID BONDS
Info: ALCH: 0 ATOMS TO DISAPPEAR IN FINAL STATE
Info: ALCH: 13 ATOMS TO APPEAR IN FINAL STATE
Info: 5907 DEGREES OF FREEDOM
Info: 986 HYDROGEN GROUPS
Info: 3 ATOMS IN LARGEST HYDROGEN GROUP
Info: 986 MIGRATION GROUPS
Info: 3 ATOMS IN LARGEST MIGRATION GROUP
Info: TOTAL MASS = 17747.8 amu
Info: TOTAL CHARGE = -2.04891e-08 e
Info: MASS DENSITY = 0.955154 g/cm^3
Info: ATOM DENSITY = 0.0956073 atoms/A^3
Info: ADDED 0 IMPLICIT EXCLUSIONS
Info: NONBONDED TABLE R-SQUARED SPACING: 0.0625
Info: NONBONDED TABLE SIZE: 705 POINTS
Info: REMOVING COM VELOCITY 0.0311709 0.171581 0.147505
Info: Use 3D box decompostion in PME FFT.
Info: Updated CUDA force table with 4096 elements.
Info: Updated CUDA LJ table with 6 x 6 elements.
Info: Found 15 unique exclusion lists needing 28 bytes
TCL: Running for 1500000 steps
ETITLE: TS BOND ANGLE DIHED IMPRP ELECT VDW BOUNDARY MISC KINETIC TOTAL TEMP POTENTIAL TOTALAVG TEMPAVG PRESSURE GPRESSURE VOLUME PRESSAVG GPRESSAVG
ENERGY: 0 1.0517 4.7709 2.4042 0.0000 -10631.4414 1422.6443 0.0000 0.0000 1747.6981 -7452.8721 297.7761 -9200.5702 -7452.8721 297.7761 -105.4734 -27.8923 30855.3881 -105.4734 -27.8923
ENERGY: 300000 3.5244 4.1369 1.9907 0.0000 -10629.2800 1395.2537 0.0000 0.0000 1795.2286 -7429.1457 305.8744 -9224.3744 -7456.8773 299.6673 -447.4251 -343.2314 30247.6235 -226.4855 -145.7249
ENERGY: 600000 3.7104 3.4204 1.8653 0.0000 -10684.7320 1407.2885 0.0000 0.0000 1748.4855 -7519.9619 297.9103 -9268.4474 -7487.2570 298.9745 -497.3715 -346.3507 30062.1114 -180.3837 -106.9524
ENERGY: 900000 2.3839 4.6309 2.5530 0.0000 -10682.7535 1432.3909 0.0000 0.0000 1877.6736 -7363.1212 319.9216 -9240.7948 -7472.4313 302.5087 82.8118 182.0039 29916.9153 -203.2929 -134.4680
ENERGY: 1200000 2.4728 3.8832 3.5768 0.0000 -10652.2285 1441.7697 0.0000 0.0000 1735.9456 -7464.5805 295.7737 -9200.5260 -7477.8523 300.6218 167.8107 275.0092 30013.5799 -211.1547 -142.1077
ENERGY: 1500000 1.6369 1.9849 1.9604 0.0000 -10749.0640 1408.3348 0.0000 0.0000 1755.9090 -7579.2379 299.1751 -9335.1470 -7480.6420 300.8710 -472.1305 -427.9130 29881.1511 -219.8151 -162.3318
TCL: Running FEP window   2: Lambda1 0.05   Lambda2 0.1    [dLambda 0.05  ]
TCL: Setting parameter firsttimestep to 0
TCL: Setting parameter alchLambda to 0.05
Info: NONBONDED TABLE R-SQUARED SPACING: 0.0625
Info: NONBONDED TABLE SIZE: 705 POINTS
TCL: Setting parameter alchLambda2 to 0.1
Info: NONBONDED TABLE R-SQUARED SPACING: 0.0625
Info: NONBONDED TABLE SIZE: 705 POINTS
TCL: Running for 1500000 steps
ETITLE: TS BOND ANGLE DIHED IMPRP ELECT VDW BOUNDARY MISC KINETIC TOTAL TEMP POTENTIAL TOTALAVG TEMPAVG PRESSURE GPRESSURE VOLUME PRESSAVG GPRESSAVG
ENERGY: 0 1.6369 1.9849 1.9604 0.0000 -10749.0649 1412.2310 0.0000 0.0000 1755.0123 -7576.2393 299.0223 -9331.2516 -7576.2393 299.0223 -511.2761 -421.8168 29881.1511 -511.2761 -421.8168
ENERGY: 300000 2.7175 3.2090 0.9922 0.0000 -10709.2971 1433.6259 0.0000 0.0000 1769.3143 -7499.4380 301.4591 -9268.7524 -7526.7539 300.7369 -502.9043 -390.4142 30523.9298 -511.2702 -421.7745
ENERGY: 600000 4.2851 4.6668 1.7504 0.0000 -10690.4316 1418.6562 0.0000 0.0000 1783.5097 -7477.5634 303.8777 -9261.0731 -7520.7397 301.1897 -309.9101 -228.6970 29921.6927 -412.3981 -334.9325
ENERGY: 900000 2.5420 2.6680 2.1641 0.0000 -10813.6878 1500.7428 0.0000 0.0000 1754.4769 -7551.0940 298.9311 -9305.5709 -7503.2355 301.9029 382.5630 471.3681 30037.1519 -229.5590 -151.9934
ENERGY: 1200000 2.7438 1.8348 2.4326 0.0000 -10671.5334 1450.8514 0.0000 0.0000 1660.4681 -7553.2028 282.9137 -9213.6709 -7496.6426 299.7252 -35.3435 29.1976 30511.3024 -219.0949 -136.3643
ENERGY: 1500000 1.4560 3.9102 3.3224 0.0000 -10837.4878 1541.5444 0.0000 0.0000 1748.1352 -7539.1196 297.8506 -9287.2548 -7493.4051 299.1785 700.7916 787.5621 29974.9901 -161.2900 -77.7932
TCL: Running FEP window   3: Lambda1 0.1    Lambda2 0.15000000000000002 [dLambda 0.05000000000000002]
TCL: Setting parameter firsttimestep to 0
TCL: Setting parameter alchLambda to 0.1
Info: NONBONDED TABLE R-SQUARED SPACING: 0.0625
Info: NONBONDED TABLE SIZE: 705 POINTS
TCL: Setting parameter alchLambda2 to 0.15000000000000002
Info: NONBONDED TABLE R-SQUARED SPACING: 0.0625
Info: NONBONDED TABLE SIZE: 705 POINTS
TCL: Running for 1500000 steps
ETITLE: TS BOND ANGLE DIHED IMPRP ELECT VDW BOUNDARY MISC KINETIC TOTAL TEMP POTENTIAL TOTALAVG TEMPAVG PRESSURE GPRESSURE VOLUME PRESSAVG GPRESSAVG
ENERGY: 0 1.4560 3.9102 3.3224 0.0000 -10837.4882 1544.3298 0.0000 0.0000 1747.2314 -7537.2384 297.6966 -9284.4698 -7537.2384 297.6966 698.8921 795.0183 29974.9901 698.8921 795.0183
ENERGY: 300000 1.4296 4.2415 3.6037 0.0000 -10644.2600 1382.3483 0.0000 0.0000 1701.5094 -7551.1275 289.9064 -9252.6369 -7515.8930 292.7022 -289.6469 -223.8573 29975.3291 -175.7766 -119.3595
ENERGY: 600000 3.3396 2.1904 1.5384 0.0000 -10638.5122 1374.5467 0.0000 0.0000 1727.0038 -7529.8934 294.2502 -9256.8972 -7516.5545 296.5128 -306.0572 -246.0148 29907.1218 -90.2204 -49.1757
ENERGY: 900000 2.1787 1.8234 0.4540 0.0000 -10631.5746 1457.4571 0.0000 0.0000 1753.7720 -7415.8894 298.8110 -9169.6614 -7503.2064 296.6417 517.4049 581.3087 30048.6033 -2.4629 31.7649
ENERGY: 1200000 5.3249 3.9274 2.2417 0.0000 -10740.7159 1469.8902 0.0000 0.0000 1769.7935 -7489.5382 301.5407 -9259.3317 -7494.7063 297.5572 19.3761 160.1918 30154.2334 15.3084 67.0719
ENERGY: 1500000 0.9496 6.3785 1.2684 0.0000 -10791.0027 1495.6281 0.0000 0.0000 1711.8124 -7574.9657 291.6618 -9286.7781 -7494.2462 297.4996 220.4895 279.3528 30095.5857 134.5862 193.2817
TCL: Running FEP window   4: Lambda1 0.15000000000000002 Lambda2 0.2    [dLambda 0.04999999999999999]
TCL: Setting parameter firsttimestep to 0
TCL: Setting parameter alchLambda to 0.15000000000000002
Info: NONBONDED TABLE R-SQUARED SPACING: 0.0625
Info: NONBONDED TABLE SIZE: 705 POINTS
TCL: Setting parameter alchLambda2 to 0.2
Info: NONBONDED TABLE R-SQUARED SPACING: 0.0625
Info: NONBONDED TABLE SIZE: 705 POINTS
TCL: Running for 1500000 steps
ETITLE: TS BOND ANGLE DIHED IMPRP ELECT VDW BOUNDARY MISC KINETIC TOTAL TEMP POTENTIAL TOTALAVG TEMPAVG PRESSURE GPRESSURE VOLUME PRESSAVG GPRESSAVG
ENERGY: 0 0.9496 6.3785 1.2684 0.0000 -10791.0034 1496.0349 0.0000 0.0000 1710.9164 -7575.4556 291.5092 -9286.3720 -7575.4556 291.5092 210.2738 287.1512 30095.5857 210.2738 287.1512
ENERGY: 300000 1.5737 4.8270 3.0437 0.0000 -10748.8362 1523.1343 0.0000 0.0000 1713.0757 -7503.1818 291.8771 -9216.2575 -7523.3651 297.2772 851.7895 865.6715 29752.8697 87.2229 153.9507
ENERGY: 600000 0.9588 3.5046 3.3105 0.0000 -10657.1543 1459.8767 0.0000 0.0000 1765.5456 -7423.9581 300.8170 -9189.5037 -7489.5007 298.8656 276.6335 338.9015 30391.4482 17.1077 82.3821
ENERGY: 900000 3.6981 2.6574 7.3186 0.0000 -10561.7384 1337.6748 0.0000 0.0000 1777.0780 -7433.3115 302.7819 -9210.3894 -7490.2131 298.6070 -902.5628 -821.8089 30607.7626 18.2507 78.5974
ENERGY: 1200000 1.1841 2.5756 2.1368 0.0000 -10666.1010 1431.0459 0.0000 0.0000 1794.0329 -7435.1257 305.6707 -9229.1586 -7488.4741 298.9425 -43.0185 -8.8110 30338.6755 92.1698 154.5303
ENERGY: 1500000 2.0011 7.2089 6.1981 0.0000 -10608.3122 1377.1766 0.0000 0.0000 1783.7972 -7431.9304 303.9267 -9215.7275 -7489.7867 298.6301 -401.0601 -378.1660 30053.4279 77.3016 141.0050
TCL: Running FEP window   5: Lambda1 0.2    Lambda2 0.25   [dLambda 0.04999999999999999]
TCL: Setting parameter firsttimestep to 0
TCL: Setting parameter alchLambda to 0.2
Info: NONBONDED TABLE R-SQUARED SPACING: 0.0625
Info: NONBONDED TABLE SIZE: 705 POINTS
TCL: Setting parameter alchLambda2 to 0.25
Info: NONBONDED TABLE R-SQUARED SPACING: 0.0625
Info: NONBONDED TABLE SIZE: 705 POINTS
TCL: Running for 1500000 steps
ETITLE: TS BOND ANGLE DIHED IMPRP ELECT VDW BOUNDARY MISC KINETIC TOTAL TEMP POTENTIAL TOTALAVG TEMPAVG PRESSURE GPRESSURE VOLUME PRESSAVG GPRESSAVG
ENERGY: 0 2.0011 7.2089 6.1981 0.0000 -10608.3125 1377.8266 0.0000 0.0000 1782.9432 -7432.1345 303.7812 -9215.0777 -7432.1345 303.7812 -453.6914 -369.7237 30053.4279 -453.6914 -369.7237
ENERGY: 300000 2.2706 3.1170 0.8343 0.0000 -10782.9574 1535.4484 0.0000 0.0000 1760.5708 -7480.7164 299.9694 -9241.2871 -7496.3879 302.3386 587.7501 599.8559 30427.3220 -141.6383 -95.2154
ENERGY: 600000 2.5937 4.1427 3.1740 0.0000 -10662.6384 1405.7115 0.0000 0.0000 1790.6318 -7456.3847 305.0912 -9247.0165 -7474.4075 302.7793 -416.4704 -372.1012 30553.0788 -102.2748 -46.6476
ENERGY: 900000 2.9977 3.8381 2.5500 0.0000 -10634.1195 1383.1475 0.0000 0.0000 1765.0180 -7476.5682 300.7271 -9241.5862 -7479.2814 302.0493 -217.1279 -186.8036 30076.6225 -174.3017 -113.6160
ENERGY: 1200000 4.4130 2.3751 1.0041 0.0000 -10738.0013 1492.3744 0.0000 0.0000 1766.2251 -7471.6097 300.9327 -9237.8347 -7476.2965 301.1953 487.0866 601.5142 30102.0332 -163.7236 -104.7365
ENERGY: 1500000 3.8650 2.8577 2.0173 0.0000 -10725.2940 1461.0994 0.0000 0.0000 1749.4545 -7506.0000 298.0753 -9255.4545 -7471.9055 300.8872 95.7588 147.9066 30342.6260 -123.9130 -65.8342
TCL: Running FEP window   6: Lambda1 0.25   Lambda2 0.3    [dLambda 0.04999999999999999]
TCL: Setting parameter firsttimestep to 0
TCL: Setting parameter alchLambda to 0.25
Info: NONBONDED TABLE R-SQUARED SPACING: 0.0625
Info: NONBONDED TABLE SIZE: 705 POINTS
TCL: Setting parameter alchLambda2 to 0.3
Info: NONBONDED TABLE R-SQUARED SPACING: 0.0625
Info: NONBONDED TABLE SIZE: 705 POINTS
TCL: Running for 1500000 steps
ETITLE: TS BOND ANGLE DIHED IMPRP ELECT VDW BOUNDARY MISC KINETIC TOTAL TEMP POTENTIAL TOTALAVG TEMPAVG PRESSURE GPRESSURE VOLUME PRESSAVG GPRESSAVG
ENERGY: 0 3.8650 2.8577 2.0173 0.0000 -10725.2920 1462.1295 0.0000 0.0000 1748.5936 -7505.8287 297.9287 -9254.4223 -7505.8287 297.9287 81.6569 155.6276 30342.6260 81.6569 155.6276
ENERGY: 300000 1.7106 3.7012 1.8406 0.0000 -10657.7867 1413.0057 0.0000 0.0000 1735.9478 -7501.5808 295.7741 -9237.5286 -7517.7768 295.3060 -363.5490 -240.7991 30486.9538 335.4951 417.7736
ENERGY: 600000 2.3623 2.4669 2.2144 0.0000 -10683.9094 1447.4254 0.0000 0.0000 1758.9929 -7470.4474 299.7005 -9229.4404 -7495.6750 296.7206 46.3064 108.5679 30286.3837 151.8478 231.6668
ENERGY: 900000 0.9608 7.3384 1.0380 0.0000 -10578.7006 1411.0151 0.0000 0.0000 1807.3448 -7351.0036 307.9388 -9158.3484 -7482.2680 298.5273 -207.6448 -116.2301 30678.0952 42.9354 123.2767
ENERGY: 1200000 2.7177 2.7209 2.8925 0.0000 -10638.1284 1388.0133 0.0000 0.0000 1808.0103 -7433.7737 308.0522 -9241.7841 -7483.4673 298.7972 -549.3618 -490.0158 30433.0985 24.1078 98.7985
ENERGY: 1500000 4.2332 2.5907 4.3641 0.0000 -10464.0453 1322.7123 0.0000 0.0000 1692.1730 -7437.9720 288.3156 -9130.1450 -7477.1256 297.8855 -836.1079 -706.1112 30521.6620 -37.2038 43.4209
TCL: Running FEP window   7: Lambda1 0.3    Lambda2 0.35   [dLambda 0.04999999999999999]
TCL: Setting parameter firsttimestep to 0
TCL: Setting parameter alchLambda to 0.3
Info: NONBONDED TABLE R-SQUARED SPACING: 0.0625
Info: NONBONDED TABLE SIZE: 705 POINTS
TCL: Setting parameter alchLambda2 to 0.35
Info: NONBONDED TABLE R-SQUARED SPACING: 0.0625
Info: NONBONDED TABLE SIZE: 705 POINTS
TCL: Running for 1500000 steps
ETITLE: TS BOND ANGLE DIHED IMPRP ELECT VDW BOUNDARY MISC KINETIC TOTAL TEMP POTENTIAL TOTALAVG TEMPAVG PRESSURE GPRESSURE VOLUME PRESSAVG GPRESSAVG
ENERGY: 0 4.2332 2.5907 4.3641 0.0000 -10464.0445 1323.1288 0.0000 0.0000 1691.3186 -7438.4092 288.1700 -9129.7277 -7438.4092 288.1700 -760.2871 -698.3478 30521.6620 -760.2871 -698.3478
ENERGY: 300000 1.7698 8.2393 1.5267 0.0000 -10757.8417 1531.8698 0.0000 0.0000 1746.8544 -7467.5817 297.6323 -9214.4361 -7470.4743 298.6665 714.3616 724.5645 30305.8337 -143.4906 -98.6727
ENERGY: 600000 2.1375 2.0866 3.3020 0.0000 -10721.5463 1471.7511 0.0000 0.0000 1817.1525 -7425.1166 309.6099 -9242.2691 -7465.5725 300.9564 310.5491 408.1572 30176.1787 15.9505 81.5183
ENERGY: 900000 1.9759 3.4372 1.3681 0.0000 -10802.1460 1522.3395 0.0000 0.0000 1764.0114 -7509.0138 300.5556 -9273.0252 -7475.5035 301.1237 501.4292 567.0154 30161.2224 10.9363 74.3124
ENERGY: 1200000 1.3218 4.5985 4.7160 0.0000 -10787.7536 1498.5158 0.0000 0.0000 1736.5410 -7542.0605 295.8751 -9278.6016 -7480.1815 300.0356 342.8942 407.0389 30388.3311 1.5038 66.8171
ENERGY: 1500000 3.5252 3.7152 4.4419 0.0000 -10708.1995 1484.2080 0.0000 0.0000 1755.7581 -7456.5511 299.1494 -9212.3093 -7477.1920 300.0132 406.5915 473.5039 30240.4487 -10.6355 51.4344
TCL: Running FEP window   8: Lambda1 0.35   Lambda2 0.39999999999999997 [dLambda 0.04999999999999999]
TCL: Setting parameter firsttimestep to 0
TCL: Setting parameter alchLambda to 0.35
Info: NONBONDED TABLE R-SQUARED SPACING: 0.0625
Info: NONBONDED TABLE SIZE: 705 POINTS
TCL: Setting parameter alchLambda2 to 0.39999999999999997
Info: NONBONDED TABLE R-SQUARED SPACING: 0.0625
Info: NONBONDED TABLE SIZE: 705 POINTS
TCL: Running for 1500000 steps
ETITLE: TS BOND ANGLE DIHED IMPRP ELECT VDW BOUNDARY MISC KINETIC TOTAL TEMP POTENTIAL TOTALAVG TEMPAVG PRESSURE GPRESSURE VOLUME PRESSAVG GPRESSAVG
ENERGY: 0 3.5252 3.7152 4.4419 0.0000 -10708.1992 1484.3192 0.0000 0.0000 1754.9252 -7457.2726 299.0075 -9212.1978 -7457.2726 299.0075 394.5234 478.9857 30240.4487 394.5234 478.9857
ENERGY: 300000 3.4986 2.5369 1.4332 0.0000 -10634.2599 1415.1823 0.0000 0.0000 1776.3762 -7435.2326 302.6623 -9211.6089 -7453.6929 303.0934 -354.6515 -344.7302 30785.8860 45.4368 97.8291
ENERGY: 600000 4.9169 4.2344 2.7832 0.0000 -10651.3703 1382.9273 0.0000 0.0000 1726.3522 -7530.1564 294.1391 -9256.5086 -7482.6574 299.5098 -409.0682 -376.7576 30254.6596 -163.8301 -105.7629
ENERGY: 900000 1.4758 4.9486 3.0965 0.0000 -10593.9648 1411.2089 0.0000 0.0000 1750.8126 -7422.4223 298.3067 -9173.2349 -7466.5124 300.6213 -57.2844 -89.8904 30509.1858 -102.6327 -45.7650
ENERGY: 1200000 4.2967 3.3311 2.9830 0.0000 -10608.2301 1446.3039 0.0000 0.0000 1716.7672 -7434.5482 292.5060 -9151.3154 -7457.7298 300.6887 166.9803 246.2900 30482.5734 -68.1608 -16.1038
ENERGY: 1500000 2.1473 2.8265 3.2811 0.0000 -10646.6555 1406.2281 0.0000 0.0000 1773.6652 -7458.5073 302.2004 -9232.1725 -7468.9784 300.5446 -136.7901 -98.5339 30257.3632 -49.8967 3.2656
TCL: Running FEP window   9: Lambda1 0.39999999999999997 Lambda2 0.44999999999999996 [dLambda 0.04999999999999999]
TCL: Setting parameter firsttimestep to 0
TCL: Setting parameter alchLambda to 0.39999999999999997
Info: NONBONDED TABLE R-SQUARED SPACING: 0.0625
Info: NONBONDED TABLE SIZE: 705 POINTS
TCL: Setting parameter alchLambda2 to 0.44999999999999996
Info: NONBONDED TABLE R-SQUARED SPACING: 0.0625
Info: NONBONDED TABLE SIZE: 705 POINTS
TCL: Running for 1500000 steps
ETITLE: TS BOND ANGLE DIHED IMPRP ELECT VDW BOUNDARY MISC KINETIC TOTAL TEMP POTENTIAL TOTALAVG TEMPAVG PRESSURE GPRESSURE VOLUME PRESSAVG GPRESSAVG
ENERGY: 0 2.1473 2.8265 3.2811 0.0000 -10646.6554 1406.3983 0.0000 0.0000 1772.7564 -7459.2460 302.0456 -9232.0023 -7459.2460 302.0456 -171.0494 -92.9832 30257.3632 -171.0494 -92.9832
ENERGY: 300000 0.6726 2.9419 3.0628 0.0000 -10717.9264 1460.4456 0.0000 0.0000 1738.5716 -7512.2319 296.2211 -9250.8035 -7495.5627 299.8472 151.0810 210.7598 30363.5238 45.5297 139.1885
ENERGY: 600000 0.4893 5.4717 1.2433 0.0000 -10691.7931 1424.9037 0.0000 0.0000 1730.1965 -7529.4886 294.7941 -9259.6851 -7495.7471 298.1579 -3.2150 12.5455 29980.7856 46.9773 134.7221
ENERGY: 900000 0.1983 2.1481 1.6206 0.0000 -10690.2148 1422.4941 0.0000 0.0000 1704.4942 -7559.2594 290.4149 -9263.7536 -7497.1329 298.3605 -277.9563 -245.7020 30608.3560 10.0856 89.5055
ENERGY: 1200000 2.0226 2.5715 2.6825 0.0000 -10732.0424 1490.0278 0.0000 0.0000 1687.5350 -7547.2030 287.5254 -9234.7380 -7505.1829 297.7900 222.9226 283.6575 30398.5938 -39.5243 40.6564
ENERGY: 1500000 2.2264 6.3655 2.7305 0.0000 -10660.1632 1351.9974 0.0000 0.0000 1744.7844 -7552.0589 297.2797 -9296.8434 -7512.5004 297.8132 -983.4591 -843.7519 30202.0045 -88.0707 -6.5709
TCL: Running FEP window  10: Lambda1 0.44999999999999996 Lambda2 0.49999999999999994 [dLambda 0.04999999999999999]
TCL: Setting parameter firsttimestep to 0
TCL: Setting parameter alchLambda to 0.44999999999999996
Info: NONBONDED TABLE R-SQUARED SPACING: 0.0625
Info: NONBONDED TABLE SIZE: 705 POINTS
TCL: Setting parameter alchLambda2 to 0.49999999999999994
Info: NONBONDED TABLE R-SQUARED SPACING: 0.0625
Info: NONBONDED TABLE SIZE: 705 POINTS
TCL: Running for 1500000 steps
ETITLE: TS BOND ANGLE DIHED IMPRP ELECT VDW BOUNDARY MISC KINETIC TOTAL TEMP POTENTIAL TOTALAVG TEMPAVG PRESSURE GPRESSURE VOLUME PRESSAVG GPRESSAVG
ENERGY: 0 2.2264 6.3655 2.7305 0.0000 -10660.1623 1351.5806 0.0000 0.0000 1743.8988 -7553.3605 297.1288 -9297.2593 -7553.3605 297.1288 -936.2957 -846.8911 30202.0045 -936.2957 -846.8911
ENERGY: 300000 6.4552 3.6533 4.4235 0.0000 -10689.8382 1435.7317 0.0000 0.0000 1737.7458 -7501.8286 296.0804 -9239.5745 -7476.1231 301.5833 -249.8304 -197.5215 30192.5517 -380.7288 -310.0624
ENERGY: 600000 1.6306 1.3210 3.8897 0.0000 -10642.0640 1397.8724 0.0000 0.0000 1679.2361 -7558.1141 286.1114 -9237.3503 -7480.7399 298.7881 -542.6573 -456.4639 30490.3186 -233.0532 -159.1545
ENERGY: 900000 1.1133 2.1282 3.5443 0.0000 -10792.6997 1473.2873 0.0000 0.0000 1734.4289 -7578.1977 295.5153 -9312.6266 -7487.8728 297.5706 36.6049 92.7147 30378.1543 -256.7926 -185.4256
ENERGY: 1200000 1.6196 4.0623 3.9564 0.0000 -10955.1857 1630.5020 0.0000 0.0000 1745.2674 -7569.7781 297.3619 -9315.0455 -7483.1261 298.3658 1015.4996 1108.6367 30503.7861 -95.9284 -22.8650
ENERGY: 1500000 3.7555 4.2622 1.3486 0.0000 -10657.2314 1480.3292 0.0000 0.0000 1836.7484 -7330.7876 312.9487 -9167.5360 -7481.3517 299.2388 307.6803 428.7079 30398.8177 -24.3692 47.7751
TCL: Running FEP window  11: Lambda1 0.49999999999999994 Lambda2 0.5499999999999999 [dLambda 0.04999999999999999]
TCL: Setting parameter firsttimestep to 0
TCL: Setting parameter alchLambda to 0.49999999999999994
Info: NONBONDED TABLE R-SQUARED SPACING: 0.0625
Info: NONBONDED TABLE SIZE: 705 POINTS
TCL: Setting parameter alchLambda2 to 0.5499999999999999
Info: NONBONDED TABLE R-SQUARED SPACING: 0.0625
Info: NONBONDED TABLE SIZE: 705 POINTS
TCL: Running for 1500000 steps
ETITLE: TS BOND ANGLE DIHED IMPRP ELECT VDW BOUNDARY MISC KINETIC TOTAL TEMP POTENTIAL TOTALAVG TEMPAVG PRESSURE GPRESSURE VOLUME PRESSAVG GPRESSAVG
ENERGY: 0 3.7555 4.2622 1.3486 0.0000 -10657.2319 1480.1146 0.0000 0.0000 1835.8776 -7331.8735 312.8003 -9167.7511 -7331.8735 312.8003 334.5231 433.3917 30398.8177 334.5231 433.3917
ENERGY: 300000 5.2155 2.6158 1.3690 0.0000 -10604.2606 1354.4869 0.0000 0.0000 1726.5585 -7514.0150 294.1743 -9240.5734 -7437.7318 304.8697 -938.6268 -791.4829 30444.7539 -246.7234 -158.1683
ENERGY: 600000 1.2248 3.8265 2.2105 0.0000 -10626.2504 1421.1290 0.0000 0.0000 1790.7370 -7407.1227 305.1091 -9197.8598 -7428.7744 304.4067 -169.7662 -178.1404 30709.3823 -259.3916 -191.6020
ENERGY: 900000 1.1523 5.4832 2.2914 0.0000 -10806.1810 1472.1460 0.0000 0.0000 1755.8764 -7569.2317 299.1695 -9325.1080 -7435.4529 303.9490 91.8687 141.9646 30050.6736 -62.4821 -6.7072
ENERGY: 1200000 2.6791 2.1058 3.4060 0.0000 -10597.4798 1376.6944 0.0000 0.0000 1739.7628 -7472.8317 296.4241 -9212.5945 -7452.1742 302.1327 -679.0853 -640.8815 30860.7709 -86.8037 -29.9866
ENERGY: 1500000 2.0867 4.2743 3.9857 0.0000 -10727.4648 1437.8456 0.0000 0.0000 1729.6358 -7549.6367 294.6986 -9279.2725 -7462.8747 301.1428 -326.4122 -247.2351 30075.0731 -161.7113 -101.1530
TCL: Running FEP window  12: Lambda1 0.5499999999999999 Lambda2 0.6    [dLambda 0.050000000000000044]
TCL: Setting parameter firsttimestep to 0
TCL: Setting parameter alchLambda to 0.5499999999999999
Info: NONBONDED TABLE R-SQUARED SPACING: 0.0625
Info: NONBONDED TABLE SIZE: 705 POINTS
TCL: Setting parameter alchLambda2 to 0.6
Info: NONBONDED TABLE R-SQUARED SPACING: 0.0625
Info: NONBONDED TABLE SIZE: 705 POINTS
TCL: Running for 1500000 steps
ETITLE: TS BOND ANGLE DIHED IMPRP ELECT VDW BOUNDARY MISC KINETIC TOTAL TEMP POTENTIAL TOTALAVG TEMPAVG PRESSURE GPRESSURE VOLUME PRESSAVG GPRESSAVG
ENERGY: 0 2.0867 4.2743 3.9857 0.0000 -10727.1741 1437.9317 0.0000 0.0000 1728.7380 -7550.1576 294.5456 -9278.8957 -7550.1576 294.5456 -334.7386 -240.7111 30075.0731 -334.7386 -240.7111
ENERGY: 300000 0.9217 4.6657 1.8119 0.0000 -10753.3065 1430.3005 0.0000 0.0000 1761.1074 -7554.4992 300.0608 -9315.6066 -7512.6794 300.4698 59.3377 83.1406 29943.2321 -247.1392 -195.8006
ENERGY: 600000 0.9610 0.8028 2.1539 0.0000 -10732.6888 1436.0549 0.0000 0.0000 1788.6884 -7504.0280 304.7601 -9292.7163 -7505.7667 300.3902 -208.9154 -182.6224 30764.9350 -352.5432 -300.5377
ENERGY: 900000 4.0216 1.9083 3.6123 0.0000 -10710.9605 1391.8640 0.0000 0.0000 1762.9497 -7546.6045 300.3747 -9309.5542 -7515.4631 299.3391 -653.4126 -554.1913 30166.9500 -383.7649 -324.2031
ENERGY: 1200000 0.3863 2.7872 4.1532 0.0000 -10422.2806 1284.9991 0.0000 0.0000 1773.8866 -7356.0683 302.2381 -9129.9548 -7503.0373 299.6551 -1023.7679 -981.7933 30708.2512 -454.8388 -399.0227
ENERGY: 1500000 6.6321 3.7590 1.0295 0.0000 -10673.4817 1388.3475 0.0000 0.0000 1787.6052 -7486.1084 304.5755 -9273.7136 -7499.5869 300.3894 -660.1277 -627.7089 30500.7632 -393.5966 -335.0557
TCL: Running FEP window  13: Lambda1 0.6    Lambda2 0.65   [dLambda 0.050000000000000044]
TCL: Setting parameter firsttimestep to 0
TCL: Setting parameter alchLambda to 0.6
Info: NONBONDED TABLE R-SQUARED SPACING: 0.0625
Info: NONBONDED TABLE SIZE: 705 POINTS
TCL: Setting parameter alchLambda2 to 0.65
Info: NONBONDED TABLE R-SQUARED SPACING: 0.0625
Info: NONBONDED TABLE SIZE: 705 POINTS
TCL: Running for 1500000 steps
ETITLE: TS BOND ANGLE DIHED IMPRP ELECT VDW BOUNDARY MISC KINETIC TOTAL TEMP POTENTIAL TOTALAVG TEMPAVG PRESSURE GPRESSURE VOLUME PRESSAVG GPRESSAVG
ENERGY: 0 6.6321 3.7590 1.0295 0.0000 -10673.3011 1388.0998 0.0000 0.0000 1786.7413 -7487.0393 304.4284 -9273.7806 -7487.0393 304.4284 -702.3603 -621.5241 30500.7632 -702.3603 -621.5241
ENERGY: 300000 1.9474 4.2895 3.1173 0.0000 -10599.2149 1366.5095 0.0000 0.0000 1756.5697 -7466.7814 299.2876 -9223.3511 -7498.7754 300.7585 -537.0117 -500.0944 30813.2666 -461.5659 -414.6824
ENERGY: 600000 0.8054 2.1060 0.5722 0.0000 -10642.4473 1388.9969 0.0000 0.0000 1729.7212 -7520.2456 294.7132 -9249.9668 -7480.8890 298.9500 -458.2225 -301.7649 30353.6807 -613.3673 -552.8273
ENERGY: 900000 2.1506 2.5320 3.5366 0.0000 -10743.3030 1453.9169 0.0000 0.0000 1820.0789 -7461.0881 310.1085 -9281.1669 -7475.3821 300.0741 130.9523 124.3901 30437.0282 -390.8361 -337.4736
ENERGY: 1200000 2.0802 1.4534 4.2230 0.0000 -10638.4651 1353.3513 0.0000 0.0000 1757.3805 -7519.9767 299.4258 -9277.3572 -7494.5619 299.6333 -946.5318 -794.7510 30611.3294 -318.0875 -255.9949
ENERGY: 1500000 1.4663 3.2921 3.3414 0.0000 -10545.3698 1329.0750 0.0000 0.0000 1783.9710 -7424.2241 303.9563 -9208.1951 -7483.9823 300.3725 -711.1660 -677.0709 30651.2242 -381.7063 -319.9534
TCL: Running FEP window  14: Lambda1 0.65   Lambda2 0.7000000000000001 [dLambda 0.050000000000000044]
TCL: Setting parameter firsttimestep to 0
TCL: Setting parameter alchLambda to 0.65
Info: NONBONDED TABLE R-SQUARED SPACING: 0.0625
Info: NONBONDED TABLE SIZE: 705 POINTS
TCL: Setting parameter alchLambda2 to 0.7000000000000001
Info: NONBONDED TABLE R-SQUARED SPACING: 0.0625
Info: NONBONDED TABLE SIZE: 705 POINTS
TCL: Running for 1500000 steps
ETITLE: TS BOND ANGLE DIHED IMPRP ELECT VDW BOUNDARY MISC KINETIC TOTAL TEMP POTENTIAL TOTALAVG TEMPAVG PRESSURE GPRESSURE VOLUME PRESSAVG GPRESSAVG
ENERGY: 0 1.4663 3.2921 3.3414 0.0000 -10545.5507 1329.1666 0.0000 0.0000 1783.1339 -7425.1505 303.8137 -9208.2844 -7425.1505 303.8137 -744.7593 -669.4095 30651.2242 -744.7593 -669.4095
ENERGY: 300000 1.2544 3.4740 1.7962 0.0000 -10664.3304 1380.4925 0.0000 0.0000 1759.9992 -7517.3140 299.8720 -9277.3133 -7442.5435 302.4874 -447.6195 -358.5234 30209.3427 -440.9243 -357.6330
ENERGY: 600000 3.0266 4.2111 2.2041 0.0000 -10757.1800 1427.2315 0.0000 0.0000 1790.9599 -7529.5466 305.1471 -9320.5066 -7470.9709 303.2877 -218.5687 -95.6116 30155.9192 -339.4714 -269.1445
ENERGY: 900000 3.6396 2.6575 3.5924 0.0000 -10685.4771 1452.3278 0.0000 0.0000 1761.0616 -7462.1982 300.0530 -9223.2598 -7471.8046 303.8167 263.0623 353.0302 30206.4189 -193.9277 -123.3662
ENERGY: 1200000 1.3431 2.4198 1.2704 0.0000 -10690.2015 1393.1476 0.0000 0.0000 1774.6907 -7517.3298 302.3751 -9292.0206 -7462.5631 304.4904 -335.2310 -279.1980 30290.1950 -316.2965 -245.4352
ENERGY: 1500000 1.9141 3.5361 4.8506 0.0000 -10560.8628 1326.7566 0.0000 0.0000 1812.4177 -7411.3879 308.8031 -9223.8056 -7464.2611 303.7834 -753.8519 -687.6681 30340.4747 -270.2523 -200.3256
TCL: Running FEP window  15: Lambda1 0.7000000000000001 Lambda2 0.7500000000000001 [dLambda 0.050000000000000044]
TCL: Setting parameter firsttimestep to 0
TCL: Setting parameter alchLambda to 0.7000000000000001
Info: NONBONDED TABLE R-SQUARED SPACING: 0.0625
Info: NONBONDED TABLE SIZE: 705 POINTS
TCL: Setting parameter alchLambda2 to 0.7500000000000001
Info: NONBONDED TABLE R-SQUARED SPACING: 0.0625
Info: NONBONDED TABLE SIZE: 705 POINTS
TCL: Running for 1500000 steps
ETITLE: TS BOND ANGLE DIHED IMPRP ELECT VDW BOUNDARY MISC KINETIC TOTAL TEMP POTENTIAL TOTALAVG TEMPAVG PRESSURE GPRESSURE VOLUME PRESSAVG GPRESSAVG
ENERGY: 0 1.9141 3.5361 4.8506 0.0000 -10560.9613 1326.5298 0.0000 0.0000 1811.5374 -7412.5934 308.6532 -9224.1308 -7412.5934 308.6532 -777.7080 -682.4403 30340.4747 -777.7080 -682.4403
ENERGY: 300000 0.2722 3.8996 2.1021 0.0000 -10647.7915 1423.0788 0.0000 0.0000 1756.4832 -7461.9557 299.2729 -9218.4389 -7426.8106 305.1854 -50.9756 -3.9079 30444.0662 -408.4688 -346.7659
ENERGY: 600000 0.9673 2.4712 1.4135 0.0000 -10864.8952 1531.4041 0.0000 0.0000 1765.8846 -7562.7544 300.8748 -9328.6390 -7456.0190 303.9576 558.4800 611.1272 30246.0583 -262.3132 -210.0960
ENERGY: 900000 4.1771 1.4064 3.3407 0.0000 -10637.2980 1427.6464 0.0000 0.0000 1683.0615 -7517.6658 286.7632 -9200.7273 -7469.3783 302.0177 235.8109 269.6893 29978.1208 -194.0093 -143.3430
ENERGY: 1200000 2.7274 2.0395 3.0933 0.0000 -10582.9625 1377.7811 0.0000 0.0000 1753.2993 -7444.0219 298.7304 -9197.3213 -7470.2965 301.3085 -398.9859 -341.0147 30367.4564 -243.2898 -191.1654
ENERGY: 1500000 2.7375 1.2437 4.6170 0.0000 -10629.9823 1422.0046 0.0000 0.0000 1811.6724 -7387.7071 308.6761 -9199.3795 -7465.4075 301.9128 -41.5043 16.0961 30602.0910 -274.3876 -215.8387
TCL: Running FEP window  16: Lambda1 0.7500000000000001 Lambda2 0.8000000000000002 [dLambda 0.050000000000000044]
TCL: Setting parameter firsttimestep to 0
TCL: Setting parameter alchLambda to 0.7500000000000001
Info: NONBONDED TABLE R-SQUARED SPACING: 0.0625
Info: NONBONDED TABLE SIZE: 705 POINTS
TCL: Setting parameter alchLambda2 to 0.8000000000000002
Info: NONBONDED TABLE R-SQUARED SPACING: 0.0625
Info: NONBONDED TABLE SIZE: 705 POINTS
TCL: Running for 1500000 steps
ETITLE: TS BOND ANGLE DIHED IMPRP ELECT VDW BOUNDARY MISC KINETIC TOTAL TEMP POTENTIAL TOTALAVG TEMPAVG PRESSURE GPRESSURE VOLUME PRESSAVG GPRESSAVG
ENERGY: 0 2.7375 1.2437 4.6170 0.0000 -10630.3108 1421.8788 0.0000 0.0000 1810.8263 -7389.0075 308.5320 -9199.8339 -7389.0075 308.5320 -67.4296 23.2942 30602.0910 -67.4296 23.2942
ENERGY: 300000 2.1484 3.7084 2.2844 0.0000 -10611.9036 1373.7264 0.0000 0.0000 1729.4061 -7500.6300 294.6595 -9230.0361 -7481.7697 301.5603 -793.7832 -754.1611 30983.1841 -205.3212 -153.7936
ENERGY: 600000 4.3600 2.0335 2.9115 0.0000 -10664.7242 1383.4149 0.0000 0.0000 1733.9329 -7538.0714 295.4308 -9272.0043 -7509.2215 299.2901 -638.6607 -561.7922 30296.5091 -294.1995 -232.5030
ENERGY: 900000 1.4131 4.0403 1.7928 0.0000 -10674.1288 1420.0509 0.0000 0.0000 1752.3564 -7494.4754 298.5698 -9246.8318 -7513.2836 299.0361 -247.0476 -192.6197 30668.4823 -253.5007 -187.8339
ENERGY: 1200000 0.9917 3.2468 0.7331 0.0000 -10695.5962 1432.0423 0.0000 0.0000 1758.3855 -7500.1968 299.5970 -9258.5823 -7508.7943 299.4606 -29.8769 19.1170 30426.0596 -281.8787 -223.5270
ENERGY: 1500000 3.6555 2.1077 1.1248 0.0000 -10748.3709 1471.4423 0.0000 0.0000 1747.3524 -7522.6882 297.7172 -9270.0406 -7497.8416 300.2621 -55.1847 26.4109 30495.1188 -220.0345 -164.2030
TCL: Running FEP window  17: Lambda1 0.8000000000000002 Lambda2 0.8500000000000002 [dLambda 0.050000000000000044]
TCL: Setting parameter firsttimestep to 0
TCL: Setting parameter alchLambda to 0.8000000000000002
Info: NONBONDED TABLE R-SQUARED SPACING: 0.0625
Info: NONBONDED TABLE SIZE: 705 POINTS
TCL: Setting parameter alchLambda2 to 0.8500000000000002
Info: NONBONDED TABLE R-SQUARED SPACING: 0.0625
Info: NONBONDED TABLE SIZE: 705 POINTS
TCL: Running for 1500000 steps
ETITLE: TS BOND ANGLE DIHED IMPRP ELECT VDW BOUNDARY MISC KINETIC TOTAL TEMP POTENTIAL TOTALAVG TEMPAVG PRESSURE GPRESSURE VOLUME PRESSAVG GPRESSAVG
ENERGY: 0 3.6555 2.1077 1.1248 0.0000 -10749.3149 1472.3788 0.0000 0.0000 1746.5251 -7523.5230 297.5762 -9270.0481 -7523.5230 297.5762 -23.9204 41.3578 30495.1188 -23.9204 41.3578
ENERGY: 300000 0.7116 2.7301 1.7038 0.0000 -10772.4218 1473.3250 0.0000 0.0000 1758.2938 -7535.6575 299.5814 -9293.9513 -7522.8014 299.3673 194.2776 277.1371 30384.6616 171.4229 264.5947
ENERGY: 600000 3.1709 2.0633 1.8939 0.0000 -10725.4205 1462.2738 0.0000 0.0000 1738.6091 -7517.4095 296.2275 -9256.0186 -7514.2199 299.2812 -20.9213 30.4133 30615.8954 214.2396 283.8906
ENERGY: 900000 3.9522 5.0784 1.8758 0.0000 -10692.4175 1436.9898 0.0000 0.0000 1770.5041 -7474.0172 301.6618 -9244.5213 -7496.5697 301.0237 -118.8856 -36.0735 30217.8263 119.6950 194.9298
ENERGY: 1200000 0.9002 4.0121 3.2967 0.0000 -10739.1350 1444.2178 0.0000 0.0000 1722.4328 -7564.2754 293.4713 -9286.7082 -7499.5132 300.6688 -23.0989 61.7962 30291.0805 11.2843 82.4537
ENERGY: 1500000 1.8186 3.6320 2.2862 0.0000 -10867.0603 1620.6021 0.0000 0.0000 1824.6046 -7414.1167 310.8796 -9238.7213 -7488.4820 301.0193 1703.9128 1774.3558 29880.3059 65.2533 136.4572
TCL: Running FEP window  18: Lambda1 0.8500000000000002 Lambda2 0.9000000000000002 [dLambda 0.050000000000000044]
TCL: Setting parameter firsttimestep to 0
TCL: Setting parameter alchLambda to 0.8500000000000002
Info: NONBONDED TABLE R-SQUARED SPACING: 0.0625
Info: NONBONDED TABLE SIZE: 705 POINTS
TCL: Setting parameter alchLambda2 to 0.9000000000000002
Info: NONBONDED TABLE R-SQUARED SPACING: 0.0625
Info: NONBONDED TABLE SIZE: 705 POINTS
TCL: Running for 1500000 steps
ETITLE: TS BOND ANGLE DIHED IMPRP ELECT VDW BOUNDARY MISC KINETIC TOTAL TEMP POTENTIAL TOTALAVG TEMPAVG PRESSURE GPRESSURE VOLUME PRESSAVG GPRESSAVG
ENERGY: 0 1.8186 3.6320 2.2862 0.0000 -10867.9049 1621.1978 0.0000 0.0000 1823.7228 -7415.2475 310.7293 -9238.9703 -7415.2475 310.7293 1705.3466 1785.4020 29880.3059 1705.3466 1785.4020
ENERGY: 300000 1.7052 4.0728 4.7551 0.0000 -10673.4429 1416.1478 0.0000 0.0000 1798.2938 -7448.4681 306.3967 -9246.7619 -7444.2149 303.3216 -178.1698 -119.1989 30355.7051 485.8929 543.2939
ENERGY: 600000 1.3213 5.7095 7.0267 0.0000 -10764.2096 1494.9552 0.0000 0.0000 1771.6092 -7483.5877 301.8501 -9255.1969 -7480.5096 302.9271 370.9011 397.7613 30227.9913 398.5042 444.5833
ENERGY: 900000 2.8756 3.8976 3.4571 0.0000 -10559.5136 1374.1478 0.0000 0.0000 1769.3211 -7405.8145 301.4603 -9175.1356 -7473.2558 301.9555 -487.7119 -390.3084 30756.8637 318.2164 374.7165
ENERGY: 1200000 1.2235 4.5930 2.5987 0.0000 -10643.7565 1395.0000 0.0000 0.0000 1775.4349 -7464.9065 302.5019 -9240.3414 -7482.8612 302.0408 -68.2387 -20.7828 30004.8209 271.3433 321.6994
ENERGY: 1500000 1.1795 6.2393 1.9375 0.0000 -10662.2185 1436.1288 0.0000 0.0000 1828.5877 -7388.1457 311.5582 -9216.7334 -7476.2846 301.8596 -24.1918 -44.4472 30893.6205 183.9486 234.0078
TCL: Running FEP window  19: Lambda1 0.9000000000000002 Lambda2 0.9500000000000003 [dLambda 0.050000000000000044]
TCL: Setting parameter firsttimestep to 0
TCL: Setting parameter alchLambda to 0.9000000000000002
Info: NONBONDED TABLE R-SQUARED SPACING: 0.0625
Info: NONBONDED TABLE SIZE: 705 POINTS
TCL: Setting parameter alchLambda2 to 0.9500000000000003
Info: NONBONDED TABLE R-SQUARED SPACING: 0.0625
Info: NONBONDED TABLE SIZE: 705 POINTS
TCL: Running for 1500000 steps
ETITLE: TS BOND ANGLE DIHED IMPRP ELECT VDW BOUNDARY MISC KINETIC TOTAL TEMP POTENTIAL TOTALAVG TEMPAVG PRESSURE GPRESSURE VOLUME PRESSAVG GPRESSAVG
ENERGY: 0 1.1795 6.2393 1.9375 0.0000 -10662.9977 1436.6561 0.0000 0.0000 1827.7184 -7389.2669 311.4101 -9216.9853 -7389.2669 311.4101 -111.0138 -27.4254 30893.6205 -111.0138 -27.4254
ENERGY: 300000 0.8618 2.9862 0.5472 0.0000 -10632.1936 1367.8751 0.0000 0.0000 1746.1081 -7513.8151 297.5052 -9259.9232 -7479.0905 303.3821 -736.4033 -663.6745 30685.5054 94.0096 161.7322
ENERGY: 600000 7.1802 2.8920 3.2439 0.0000 -10791.1007 1501.6313 0.0000 0.0000 1818.5145 -7457.6389 309.8419 -9276.1534 -7487.9515 302.0990 223.8878 309.3552 30088.1929 -142.0969 -81.5724
ENERGY: 900000 0.5060 3.5193 1.9464 0.0000 -10680.6450 1405.6776 0.0000 0.0000 1772.5011 -7496.4945 302.0021 -9268.9956 -7481.1310 301.7514 -170.1256 -115.7184 30407.9654 -99.6685 -40.8379
ENERGY: 1200000 1.2785 2.4614 6.2412 0.0000 -10724.4760 1439.0982 0.0000 0.0000 1835.1939 -7440.2028 312.6838 -9275.3967 -7487.7115 302.2805 39.7589 98.4925 30555.8460 -144.7689 -82.3197
ENERGY: 1500000 3.8214 5.0422 4.7336 0.0000 -10622.3211 1408.2096 0.0000 0.0000 1729.3100 -7471.2042 294.6431 -9200.5143 -7487.5605 301.3401 -375.9503 -259.1535 30645.1492 -193.1949 -122.0276
TCL: Running FEP window  20: Lambda1 0.9500000000000003 Lambda2 1.0    [dLambda 0.04999999999999971]
TCL: Setting parameter firsttimestep to 0
TCL: Setting parameter alchLambda to 0.9500000000000003
Info: NONBONDED TABLE R-SQUARED SPACING: 0.0625
Info: NONBONDED TABLE SIZE: 705 POINTS
TCL: Setting parameter alchLambda2 to 1.0
Info: NONBONDED TABLE R-SQUARED SPACING: 0.0625
Info: NONBONDED TABLE SIZE: 705 POINTS
TCL: Running for 1500000 steps
ETITLE: TS BOND ANGLE DIHED IMPRP ELECT VDW BOUNDARY MISC KINETIC TOTAL TEMP POTENTIAL TOTALAVG TEMPAVG PRESSURE GPRESSURE VOLUME PRESSAVG GPRESSAVG
ENERGY: 0 3.8214 5.0422 4.7336 0.0000 -10623.1572 1408.5016 0.0000 0.0000 1728.4395 -7472.6188 294.4948 -9201.0583 -7472.6188 294.4948 -328.3837 -247.8689 30645.1492 -328.3837 -247.8689
ENERGY: 300000 2.6171 1.9709 2.8039 0.0000 -10780.3467 1456.2718 0.0000 0.0000 1784.0438 -7532.6392 303.9687 -9316.6830 -7517.8534 299.9133 -296.8879 -237.5199 30779.3654 -378.5832 -314.8682
ENERGY: 600000 1.3038 3.0898 2.8754 0.0000 -10682.2336 1414.6048 0.0000 0.0000 1785.3117 -7475.0481 304.1848 -9260.3598 -7519.4444 300.3402 93.9852 150.3011 30010.7069 -204.1393 -132.5820
ENERGY: 900000 4.7831 3.4107 1.9489 0.0000 -10561.7694 1362.1112 0.0000 0.0000 1717.7258 -7471.7897 292.6693 -9189.5155 -7517.2041 299.2969 -703.3006 -588.0642 30768.6817 -261.3435 -184.1138
ENERGY: 1200000 2.2060 8.5198 1.7440 0.0000 -10648.8675 1371.3053 0.0000 0.0000 1766.6069 -7498.4855 300.9978 -9265.0924 -7512.3446 299.9836 -666.3402 -635.8174 30679.6746 -267.3628 -193.8893
ENERGY: 1500000 2.8955 5.3750 3.9456 0.0000 -10690.5770 1474.6252 0.0000 0.0000 1719.9595 -7483.7763 293.0499 -9203.7358 -7511.5386 299.4496 502.0904 492.8329 30391.0900 -185.3632 -115.0456
TCL: Exiting due to exit command.
