Info: SIMULATION PARAMETERS:
Info: TIMESTEP               2
Info: NUMBER OF STEPS        0
Info: STEPS PER CYCLE        10
Info: PERIODIC CELL BASIS 1  31.6239 0 0
Info: PERIODIC CELL BASIS 2  0 29.9507 0
Info: PERIODIC CELL BASIS 3  0 0 31.529
Info: PERIODIC CELL CENTER   0 0 0
Info: WRAPPING WATERS AROUND PERIODIC BOUNDARIES ON OUTPUT.
Info: WRAPPING ALL CLUSTERS AROUND PERIODIC BOUNDARIES ON OUTPUT.
Info: FIRST LDB TIMESTEP     50
Info: LAST LDB TIMESTEP     -1
Info: HOM BACKGROUND SCALING 1
Info: PME BACKGROUND SCALING 1
Info: MIN ATOMS PER PATCH    40
Info: EMPTY PATCH LOAD       40 ATOMS
Info: VELOCITY FILE          mobley_2689721_equil.vel
Info: CENTER OF MASS MOVING INITIALLY? NO
Info: DIELECTRIC             1
Info: EXCLUDE                SCALED ONE-FOUR
Info: 1-4 ELECTROSTATICS SCALED BY 0.833333
Info: MODIFIED 1-4 VDW PARAMETERS WILL BE USED
Info: DCD FILENAME           mobley_2689721_prod.dcd
Info: DCD FREQUENCY          100000
Info: DCD FIRST STEP         100000
Info: DCD FILE WILL CONTAIN UNIT CELL DATA
Info: XST FILENAME           mobley_2689721_prod.xst
Info: XST FREQUENCY          100000
Info: NO VELOCITY DCD OUTPUT
Info: NO FORCE DCD OUTPUT
Info: OUTPUT FILENAME        mobley_2689721_prod
Info: BINARY OUTPUT FILES WILL BE USED
Info: RESTART FILENAME       mobley_2689721_prod.restart
Info: RESTART FREQUENCY      100000
Info: BINARY RESTART FILES WILL BE USED
Info: CUTOFF                 9
Info: PAIRLIST DISTANCE      11
Info: PAIRLIST SHRINK RATE   0.01
Info: PAIRLIST GROW RATE     0.01
Info: PAIRLIST TRIGGER       0.3
Info: PAIRLISTS PER CYCLE    2
Info: PAIRLISTS ENABLED
Info: MARGIN                 2
Info: HYDROGEN GROUP CUTOFF  2.5
Info: PATCH DIMENSION        15.5
Info: ENERGY OUTPUT STEPS    100000
Info: ENERGY EVALUATION STEPS    100000
Info: OUTPUT ENERGY PRECISION 4
Info: CROSSTERM ENERGY INCLUDED IN DIHEDRAL
Info: TIMING OUTPUT STEPS    1000000
Info: PRESSURE OUTPUT STEPS  100000
Info: ALCHEMICAL FEP ON
Info: FEP CURRENT LAMBDA VALUE     1
Info: FEP COMPARISON LAMBDA VALUE  0.95
Info: FEP INTRA-ALCHEMICAL NON-BONDED INTERACTIONS WILL BE RETAINED
Info: FEP INTRA-ALCHEMICAL BONDED INTERACTIONS WILL BE RETAINED
Info: FEP VDW SHIFTING COEFFICIENT 5
Info: FEP ELEC. ACTIVE FOR ANNIHILATED PARTICLES BETWEEN LAMBDA = 0 AND LAMBDA = 0.5
Info: FEP ELEC. ACTIVE FOR EXNIHILATED PARTICLES BETWEEN LAMBDA = 0.5 AND LAMBDA = 1
Info: FEP VDW ACTIVE FOR ANNIHILATED PARTICLES BETWEEN LAMBDA = 0 AND LAMBDA = 1
Info: FEP VDW ACTIVE FOR EXNIHILATED PARTICLES BETWEEN LAMBDA = 0 AND LAMBDA = 1
Info: FEP BOND ACTIVE FOR ANNIHILATED PARTICLES BETWEEN LAMBDA = 1 AND LAMBDA = 1
Info: FEP BOND ACTIVE FOR EXNIHILATED PARTICLES BETWEEN LAMBDA = 0 AND LAMBDA = 0
Info: LANGEVIN DYNAMICS ACTIVE
Info: LANGEVIN TEMPERATURE   300
Info: LANGEVIN USING BBK INTEGRATOR
Info: LANGEVIN DAMPING COEFFICIENT IS 1 INVERSE PS
Info: LANGEVIN DYNAMICS APPLIED TO HYDROGENS
Info: LANGEVIN PISTON PRESSURE CONTROL ACTIVE
Info:        TARGET PRESSURE IS 1.01325 BAR
Info:     OSCILLATION PERIOD IS 50 FS
Info:             DECAY TIME IS 25 FS
Info:     PISTON TEMPERATURE IS 300 K
Info:       PRESSURE CONTROL IS GROUP-BASED
Info:    INITIAL STRAIN RATE IS 9.4657e-05 9.4657e-05 9.4657e-05
Info:       CELL FLUCTUATION IS ISOTROPIC
Info: PARTICLE MESH EWALD (PME) ACTIVE
Info: PME TOLERANCE               1e-06
Info: PME EWALD COEFFICIENT       0.348832
Info: PME INTERPOLATION ORDER     4
Info: PME GRID DIMENSIONS         32 32 32
Info: PME MAXIMUM GRID SPACING    1
Info: PME CALCULATION WILL BE PERFORMED ON GPU
Info: FULL ELECTROSTATIC EVALUATION FREQUENCY      2
Info: USING VERLET I (r-RESPA) MTS SCHEME.
Info: C1 SPLITTING OF LONG RANGE ELECTROSTATICS
Info: PLACING ATOMS IN PATCHES BY HYDROGEN GROUPS
Info: RIGID BONDS TO HYDROGEN : ALL
Info:         ERROR TOLERANCE : 1e-08
Info:          MAX ITERATIONS : 100
Info: RIGID WATER USING SETTLE ALGORITHM
Info: RANDOM NUMBER SEED     1743611290
Info: USE HYDROGEN BONDS?    NO
Info: Using AMBER format force field!
Info: AMBER PARM FILE        mobley_2689721.prmtop
Info: COORDINATE PDB         mobley_2689721.pdb
Info: Exclusions will be read from PARM file!
Info: SCNB (VDW SCALING)     2
Info: USING ARITHMETIC MEAN TO COMBINE L-J SIGMA PARAMETERS
Info: BINARY COORDINATES     mobley_2689721_equil.coor
Info: SUMMARY OF PARAMETERS:
Info: 4 BONDS
Info: 3 ANGLES
Info:   3 HARMONIC
Info:   0 COSINE-BASED
Info: 5 DIHEDRAL
Info: 0 IMPROPER
Info: 0 CROSSTERM
Info: 0 VDW
Info: 10 VDW_PAIRS
Info: 0 NBTHOLE_PAIRS
Info: To read alchdata from file: mobley_2689721.pdb
Info: To read alchflag data from column: 5
Info: STRUCTURE SUMMARY:
Info: 2916 ATOMS
Info: 2916 BONDS
Info: 36 ANGLES
Info: 66 DIHEDRALS
Info: 0 IMPROPERS
Info: 0 CROSSTERMS
Info: 3003 EXCLUSIONS
Info: 2910 RIGID BONDS
Info: ALCH: 0 ATOMS TO DISAPPEAR IN FINAL STATE
Info: ALCH: 18 ATOMS TO APPEAR IN FINAL STATE
Info: 5838 DEGREES OF FREEDOM
Info: 972 HYDROGEN GROUPS
Info: 3 ATOMS IN LARGEST HYDROGEN GROUP
Info: 972 MIGRATION GROUPS
Info: 3 ATOMS IN LARGEST MIGRATION GROUP
Info: TOTAL MASS = 17487.6 amu
Info: TOTAL CHARGE = 0.000499971 e
Info: MASS DENSITY = 0.972426 g/cm^3
Info: ATOM DENSITY = 0.097646 atoms/A^3
Info: ADDED 0 IMPLICIT EXCLUSIONS
Info: NONBONDED TABLE R-SQUARED SPACING: 0.0625
Info: NONBONDED TABLE SIZE: 705 POINTS
Info: REMOVING COM VELOCITY 0.0948081 0.107703 -0.000844209
Info: Use 3D box decompostion in PME FFT.
Info: Updated CUDA force table with 4096 elements.
Info: Updated CUDA LJ table with 4 x 4 elements.
Info: Found 21 unique exclusion lists needing 56 bytes
TCL: Running for 1500000 steps
ETITLE: TS BOND ANGLE DIHED IMPRP ELECT VDW BOUNDARY MISC KINETIC TOTAL TEMP POTENTIAL TOTALAVG TEMPAVG PRESSURE GPRESSURE VOLUME PRESSAVG GPRESSAVG
ENERGY: 0 3.3153 7.8407 3.5841 0.0000 -10577.0522 1427.2874 0.0000 0.0000 1701.0252 -7433.9995 293.2493 -9135.0247 -7433.9995 293.2493 84.8335 180.5866 29862.9695 84.8335 180.5866
ENERGY: 300000 0.9550 11.3641 3.9110 0.0000 -10502.3254 1327.0515 0.0000 0.0000 1740.5963 -7418.4474 300.0712 -9159.0437 -7425.9500 300.5528 -952.7272 -837.2235 30171.8197 -428.5258 -358.7421
ENERGY: 600000 0.1913 7.2474 3.2479 0.0000 -10524.3523 1406.7461 0.0000 0.0000 1721.5500 -7385.3695 296.7877 -9106.9195 -7393.8388 299.3139 -14.2886 20.3117 30024.8940 -341.0718 -270.6951
ENERGY: 900000 2.6872 5.6426 3.1193 0.0000 -10389.6794 1346.9046 0.0000 0.0000 1713.7823 -7317.5434 295.4486 -9031.3257 -7374.5569 298.5711 -401.4814 -374.2387 30167.3441 -231.5899 -167.4390
ENERGY: 1200000 3.1647 11.1802 3.5071 0.0000 -10441.1452 1327.2283 0.0000 0.0000 1760.0162 -7336.0488 303.4191 -9096.0650 -7373.6149 298.8133 -705.1032 -649.0184 30174.0007 -277.2913 -213.7653
ENERGY: 1500000 2.8966 5.8883 3.3780 0.0000 -10402.1865 1372.1802 0.0000 0.0000 1754.4373 -7263.4060 302.4574 -9017.8433 -7362.0017 300.2538 -378.5347 -350.4192 30499.1204 -168.4481 -112.9296
TCL: Running FEP window   2: Lambda1 0.95   Lambda2 0.8999999999999999 [dLambda -0.050000000000000044]
TCL: Setting parameter firsttimestep to 0
TCL: Setting parameter alchLambda to 0.95
Info: NONBONDED TABLE R-SQUARED SPACING: 0.0625
Info: NONBONDED TABLE SIZE: 705 POINTS
TCL: Setting parameter alchLambda2 to 0.8999999999999999
Info: NONBONDED TABLE R-SQUARED SPACING: 0.0625
Info: NONBONDED TABLE SIZE: 705 POINTS
TCL: Running for 1500000 steps
ETITLE: TS BOND ANGLE DIHED IMPRP ELECT VDW BOUNDARY MISC KINETIC TOTAL TEMP POTENTIAL TOTALAVG TEMPAVG PRESSURE GPRESSURE VOLUME PRESSAVG GPRESSAVG
ENERGY: 0 2.8966 5.8883 3.3780 0.0000 -10402.1722 1372.1391 0.0000 0.0000 1753.5309 -7264.3393 302.3011 -9017.8701 -7264.3393 302.3011 -451.1056 -361.3313 30499.1204 -451.1056 -361.3313
ENERGY: 300000 1.5753 5.1686 3.2443 0.0000 -10604.1047 1459.9402 0.0000 0.0000 1706.3629 -7427.8134 294.1695 -9134.1763 -7353.1511 299.7198 73.9614 129.8416 30520.9904 -400.3885 -322.2069
ENERGY: 600000 1.5874 7.9216 3.2745 0.0000 -10488.4977 1380.5899 0.0000 0.0000 1782.0346 -7313.0898 307.2150 -9095.1243 -7352.7743 299.9534 -32.2902 -12.6488 29801.0669 -238.4472 -166.5972
ENERGY: 900000 0.6521 6.7165 3.6689 0.0000 -10347.3363 1312.7293 0.0000 0.0000 1772.6796 -7250.8900 305.6023 -9023.5696 -7352.6399 301.1732 -518.0502 -427.0841 29960.0772 -205.9710 -144.2923
ENERGY: 1200000 0.7066 8.0797 3.3329 0.0000 -10642.9490 1417.9425 0.0000 0.0000 1726.6604 -7486.2269 297.6687 -9212.8873 -7379.0141 301.0005 -241.4649 -142.8015 29704.2681 -172.7407 -100.1758
ENERGY: 1500000 2.2293 9.0417 4.4465 0.0000 -10678.3399 1508.4774 0.0000 0.0000 1711.4547 -7442.6903 295.0473 -9154.1450 -7387.8601 300.0239 662.9607 672.3428 29729.9958 -74.6396 -14.1574
TCL: Running FEP window   3: Lambda1 0.8999999999999999 Lambda2 0.8499999999999999 [dLambda -0.050000000000000044]
TCL: Setting parameter firsttimestep to 0
TCL: Setting parameter alchLambda to 0.8999999999999999
Info: NONBONDED TABLE R-SQUARED SPACING: 0.0625
Info: NONBONDED TABLE SIZE: 705 POINTS
TCL: Setting parameter alchLambda2 to 0.8499999999999999
Info: NONBONDED TABLE R-SQUARED SPACING: 0.0625
Info: NONBONDED TABLE SIZE: 705 POINTS
TCL: Running for 1500000 steps
ETITLE: TS BOND ANGLE DIHED IMPRP ELECT VDW BOUNDARY MISC KINETIC TOTAL TEMP POTENTIAL TOTALAVG TEMPAVG PRESSURE GPRESSURE VOLUME PRESSAVG GPRESSAVG
ENERGY: 0 2.2293 9.0417 4.4465 0.0000 -10678.3471 1508.7571 0.0000 0.0000 1710.5842 -7443.2884 294.8973 -9153.8726 -7443.2884 294.8973 587.6647 669.5211 29729.9958 587.6647 669.5211
ENERGY: 300000 3.0533 11.9518 3.0387 0.0000 -10808.8780 1583.1386 0.0000 0.0000 1750.4990 -7457.1967 301.7784 -9207.6957 -7397.7047 296.4482 1147.3086 1235.9245 29559.1824 500.7094 569.2879
ENERGY: 600000 1.9510 9.0892 2.8888 0.0000 -10563.6077 1413.7855 0.0000 0.0000 1718.3101 -7417.5831 296.2292 -9135.8932 -7396.4734 297.2110 -135.4038 -90.9619 30134.9952 161.9314 224.4584
ENERGY: 900000 1.6629 6.1174 3.6396 0.0000 -10564.9246 1409.7739 0.0000 0.0000 1723.8418 -7419.8889 297.1828 -9143.7307 -7385.5554 298.9034 -177.9611 -139.3307 30018.1995 277.2269 330.2251
ENERGY: 1200000 1.0427 11.1736 3.7178 0.0000 -10527.5345 1422.3428 0.0000 0.0000 1803.1130 -7286.1446 310.8488 -9089.2576 -7376.6347 300.1076 -27.6507 74.2972 30510.7546 137.5941 195.3694
ENERGY: 1500000 1.8424 9.6220 3.6596 0.0000 -10583.7744 1321.0255 0.0000 0.0000 1735.5651 -7512.0598 299.2039 -9247.6249 -7384.6428 298.8752 -1090.2685 -1044.5456 29999.1644 38.1216 101.5259
TCL: Running FEP window   4: Lambda1 0.8499999999999999 Lambda2 0.7999999999999998 [dLambda -0.050000000000000044]
TCL: Setting parameter firsttimestep to 0
TCL: Setting parameter alchLambda to 0.8499999999999999
Info: NONBONDED TABLE R-SQUARED SPACING: 0.0625
Info: NONBONDED TABLE SIZE: 705 POINTS
TCL: Setting parameter alchLambda2 to 0.7999999999999998
Info: NONBONDED TABLE R-SQUARED SPACING: 0.0625
Info: NONBONDED TABLE SIZE: 705 POINTS
TCL: Running for 1500000 steps
ETITLE: TS BOND ANGLE DIHED IMPRP ELECT VDW BOUNDARY MISC KINETIC TOTAL TEMP POTENTIAL TOTALAVG TEMPAVG PRESSURE GPRESSURE VOLUME PRESSAVG GPRESSAVG
ENERGY: 0 1.8424 9.6220 3.6596 0.0000 -10583.7672 1321.3512 0.0000 0.0000 1734.7030 -7512.5890 299.0552 -9247.2920 -7512.5890 299.0552 -1127.1128 -1054.6027 29999.1644 -1127.1128 -1054.6027
ENERGY: 300000 0.8156 7.0321 3.0614 0.0000 -10571.3676 1407.4385 0.0000 0.0000 1736.3259 -7416.6942 299.3350 -9153.0200 -7415.9607 299.5092 -135.9093 -89.0943 29928.2213 -295.6027 -253.7545
ENERGY: 600000 1.5965 9.8601 3.4079 0.0000 -10553.5839 1414.3919 0.0000 0.0000 1750.6239 -7373.7037 301.7999 -9124.3276 -7395.8359 300.3282 176.3822 273.0409 29659.8903 12.9269 70.5981
ENERGY: 900000 1.9815 7.3037 3.4934 0.0000 -10620.5831 1449.6366 0.0000 0.0000 1804.6788 -7353.4891 311.1188 -9158.1679 -7385.7195 301.5726 3.5800 64.4025 30260.3545 9.4519 61.6991
ENERGY: 1200000 1.2296 5.9755 3.8529 0.0000 -10631.6836 1442.6058 0.0000 0.0000 1734.6992 -7443.3205 299.0546 -9178.0198 -7385.8761 301.2557 135.5774 163.0452 29872.0114 66.0244 115.1693
ENERGY: 1500000 2.0034 10.3899 3.4181 0.0000 -10431.9152 1363.0726 0.0000 0.0000 1757.1144 -7295.9169 302.9189 -9053.0313 -7371.7683 301.6934 -70.6136 -20.3790 29929.5288 -10.6513 35.4807
TCL: Running FEP window   5: Lambda1 0.7999999999999998 Lambda2 0.7499999999999998 [dLambda -0.050000000000000044]
TCL: Setting parameter firsttimestep to 0
TCL: Setting parameter alchLambda to 0.7999999999999998
Info: NONBONDED TABLE R-SQUARED SPACING: 0.0625
Info: NONBONDED TABLE SIZE: 705 POINTS
TCL: Setting parameter alchLambda2 to 0.7499999999999998
Info: NONBONDED TABLE R-SQUARED SPACING: 0.0625
Info: NONBONDED TABLE SIZE: 705 POINTS
TCL: Running for 1500000 steps
ETITLE: TS BOND ANGLE DIHED IMPRP ELECT VDW BOUNDARY MISC KINETIC TOTAL TEMP POTENTIAL TOTALAVG TEMPAVG PRESSURE GPRESSURE VOLUME PRESSAVG GPRESSAVG
ENERGY: 0 2.0034 10.3899 3.4181 0.0000 -10431.9214 1363.3152 0.0000 0.0000 1756.2754 -7296.5195 302.7742 -9052.7949 -7296.5195 302.7742 -118.9618 -27.8508 29929.5288 -118.9618 -27.8508
ENERGY: 300000 2.2309 11.2827 4.6406 0.0000 -10837.4212 1602.9536 0.0000 0.0000 1739.9377 -7476.3756 299.9577 -9216.3133 -7335.6337 305.7453 1101.7196 1142.7400 29787.9240 292.7293 363.8652
ENERGY: 600000 0.7903 7.1495 3.2013 0.0000 -10391.5506 1319.9117 0.0000 0.0000 1735.8154 -7324.6824 299.2470 -9060.4979 -7349.0170 301.8995 -826.3497 -789.6126 30556.1028 137.6621 202.5623
ENERGY: 900000 0.4705 9.4531 3.7456 0.0000 -10571.1409 1485.9471 0.0000 0.0000 1724.7131 -7346.8115 297.3330 -9071.5246 -7361.6241 300.5960 677.4117 764.0160 29662.3086 196.1530 250.4173
ENERGY: 1200000 2.0282 8.9691 4.5654 0.0000 -10509.2422 1380.3092 0.0000 0.0000 1735.6705 -7377.6999 299.2220 -9113.3704 -7375.3995 299.8867 -343.1522 -320.0278 29843.5724 127.7829 174.6344
ENERGY: 1500000 1.0203 9.4607 4.8035 0.0000 -10658.1327 1509.8249 0.0000 0.0000 1693.5254 -7439.4980 291.9564 -9133.0234 -7374.4861 299.6593 496.1721 626.9281 29848.0333 130.1707 185.5672
TCL: Running FEP window   6: Lambda1 0.7499999999999998 Lambda2 0.6999999999999997 [dLambda -0.050000000000000044]
TCL: Setting parameter firsttimestep to 0
TCL: Setting parameter alchLambda to 0.7499999999999998
Info: NONBONDED TABLE R-SQUARED SPACING: 0.0625
Info: NONBONDED TABLE SIZE: 705 POINTS
TCL: Setting parameter alchLambda2 to 0.6999999999999997
Info: NONBONDED TABLE R-SQUARED SPACING: 0.0625
Info: NONBONDED TABLE SIZE: 705 POINTS
TCL: Running for 1500000 steps
ETITLE: TS BOND ANGLE DIHED IMPRP ELECT VDW BOUNDARY MISC KINETIC TOTAL TEMP POTENTIAL TOTALAVG TEMPAVG PRESSURE GPRESSURE VOLUME PRESSAVG GPRESSAVG
ENERGY: 0 1.0203 9.4607 4.8035 0.0000 -10658.1377 1510.4129 0.0000 0.0000 1692.6889 -7439.7513 291.8122 -9132.4403 -7439.7513 291.8122 531.5420 625.1450 29848.0333 531.5420 625.1450
ENERGY: 300000 1.1055 6.1516 3.6961 0.0000 -10558.3271 1423.6687 0.0000 0.0000 1751.4915 -7372.2137 301.9495 -9123.7052 -7408.0169 297.7512 -217.7773 -63.3716 30115.7999 103.8719 199.7463
ENERGY: 600000 2.0618 5.6871 3.1219 0.0000 -10604.7730 1455.4090 0.0000 0.0000 1745.4513 -7393.0419 300.9082 -9138.4932 -7378.3506 299.7637 148.0855 291.0969 29843.2589 125.4984 218.0862
ENERGY: 900000 1.0854 7.4871 3.4134 0.0000 -10585.9546 1418.2851 0.0000 0.0000 1767.5043 -7388.1794 304.7100 -9155.6837 -7373.1827 301.4070 -45.8444 20.6076 30000.4549 120.9888 208.6533
ENERGY: 1200000 1.1229 7.5631 4.1712 0.0000 -10633.1579 1462.2956 0.0000 0.0000 1763.6829 -7394.3223 304.0513 -9158.0052 -7386.6045 300.4923 387.0297 396.1793 29703.4843 18.4520 92.6562
ENERGY: 1500000 1.1818 9.7136 4.6411 0.0000 -10496.2671 1402.2915 0.0000 0.0000 1708.2599 -7370.1792 294.4966 -9078.4390 -7393.3840 299.9770 -317.9875 -235.9608 30614.7682 0.5606 71.4301
TCL: Running FEP window   7: Lambda1 0.6999999999999997 Lambda2 0.6499999999999997 [dLambda -0.050000000000000044]
TCL: Setting parameter firsttimestep to 0
TCL: Setting parameter alchLambda to 0.6999999999999997
Info: NONBONDED TABLE R-SQUARED SPACING: 0.0625
Info: NONBONDED TABLE SIZE: 705 POINTS
TCL: Setting parameter alchLambda2 to 0.6499999999999997
Info: NONBONDED TABLE R-SQUARED SPACING: 0.0625
Info: NONBONDED TABLE SIZE: 705 POINTS
TCL: Running for 1500000 steps
ETITLE: TS BOND ANGLE DIHED IMPRP ELECT VDW BOUNDARY MISC KINETIC TOTAL TEMP POTENTIAL TOTALAVG TEMPAVG PRESSURE GPRESSURE VOLUME PRESSAVG GPRESSAVG
ENERGY: 0 1.1818 9.7136 4.6411 0.0000 -10496.2792 1402.0226 0.0000 0.0000 1707.3982 -7371.3219 294.3480 -9078.7201 -7371.3219 294.3480 -336.4085 -249.0593 30614.7682 -336.4085 -249.0593
ENERGY: 300000 2.0209 9.1286 3.1154 0.0000 -10483.8740 1369.2856 0.0000 0.0000 1799.5517 -7300.7718 310.2349 -9100.3234 -7362.7476 301.8881 -47.9308 55.6210 29421.2816 -242.7752 -147.8547
ENERGY: 600000 0.6903 10.1767 2.9972 0.0000 -10590.4703 1477.4671 0.0000 0.0000 1788.5394 -7310.5996 308.3364 -9099.1390 -7368.9769 301.6820 610.3661 620.3575 30013.0807 -55.1697 26.0627
ENERGY: 900000 1.6102 8.6935 3.2226 0.0000 -10284.5203 1247.2471 0.0000 0.0000 1732.8192 -7290.9277 298.7305 -9023.7469 -7373.6998 300.3430 -1002.5792 -978.5538 30127.8904 -128.8950 -57.8000
ENERGY: 1200000 3.1467 6.1686 4.2389 0.0000 -10359.5193 1304.3317 0.0000 0.0000 1769.8515 -7271.7818 305.1147 -9041.6333 -7372.5139 300.4171 -759.5952 -653.1011 29978.5118 -219.3731 -144.3425
ENERGY: 1500000 4.6957 7.8444 3.2930 0.0000 -10577.9413 1428.0247 0.0000 0.0000 1663.1808 -7470.9028 286.7251 -9134.0835 -7374.2743 299.8723 94.9788 165.8964 29982.2696 -175.3376 -102.1759
TCL: Running FEP window   8: Lambda1 0.6499999999999997 Lambda2 0.5999999999999996 [dLambda -0.050000000000000044]
TCL: Setting parameter firsttimestep to 0
TCL: Setting parameter alchLambda to 0.6499999999999997
Info: NONBONDED TABLE R-SQUARED SPACING: 0.0625
Info: NONBONDED TABLE SIZE: 705 POINTS
TCL: Setting parameter alchLambda2 to 0.5999999999999996
Info: NONBONDED TABLE R-SQUARED SPACING: 0.0625
Info: NONBONDED TABLE SIZE: 705 POINTS
TCL: Running for 1500000 steps
ETITLE: TS BOND ANGLE DIHED IMPRP ELECT VDW BOUNDARY MISC KINETIC TOTAL TEMP POTENTIAL TOTALAVG TEMPAVG PRESSURE GPRESSURE VOLUME PRESSAVG GPRESSAVG
ENERGY: 0 4.6957 7.8444 3.2930 0.0000 -10577.9478 1428.4658 0.0000 0.0000 1662.3185 -7471.3305 286.5765 -9133.6489 -7471.3305 286.5765 69.6745 162.6683 29982.2696 69.6745 162.6683
ENERGY: 300000 1.1708 8.1142 3.4105 0.0000 -10460.9218 1417.6231 0.0000 0.0000 1794.3248 -7236.2784 309.3338 -9030.6032 -7370.3353 297.7113 130.9717 262.2841 30342.2260 -180.8413 -91.9058
ENERGY: 600000 1.2254 6.5888 4.3422 0.0000 -10383.1584 1302.7654 0.0000 0.0000 1743.5256 -7324.7109 300.5762 -9068.2365 -7374.9430 299.6987 -857.2757 -817.5118 30462.5804 -170.1790 -91.4912
ENERGY: 900000 0.9464 5.7907 3.1784 0.0000 -10593.0630 1431.4950 0.0000 0.0000 1706.6620 -7444.9905 294.2211 -9151.6525 -7372.5246 300.1314 -145.9344 -29.1503 29918.9452 -57.8045 20.1814
ENERGY: 1200000 0.9132 9.5905 3.3027 0.0000 -10552.7076 1398.4941 0.0000 0.0000 1752.2978 -7388.1095 302.0885 -9140.4072 -7378.8329 299.3314 -299.4914 -250.2973 30148.3934 -70.7341 1.2123
ENERGY: 1500000 1.4570 7.1602 3.0377 0.0000 -10547.4339 1369.5204 0.0000 0.0000 1718.7823 -7447.4763 296.3106 -9166.2586 -7389.5045 298.9524 -759.8702 -641.0235 30055.3724 -212.2527 -135.4144
TCL: Running FEP window   9: Lambda1 0.5999999999999996 Lambda2 0.5499999999999996 [dLambda -0.050000000000000044]
TCL: Setting parameter firsttimestep to 0
TCL: Setting parameter alchLambda to 0.5999999999999996
Info: NONBONDED TABLE R-SQUARED SPACING: 0.0625
Info: NONBONDED TABLE SIZE: 705 POINTS
TCL: Setting parameter alchLambda2 to 0.5499999999999996
Info: NONBONDED TABLE R-SQUARED SPACING: 0.0625
Info: NONBONDED TABLE SIZE: 705 POINTS
TCL: Running for 1500000 steps
ETITLE: TS BOND ANGLE DIHED IMPRP ELECT VDW BOUNDARY MISC KINETIC TOTAL TEMP POTENTIAL TOTALAVG TEMPAVG PRESSURE GPRESSURE VOLUME PRESSAVG GPRESSAVG
ENERGY: 0 1.4570 7.1602 3.0377 0.0000 -10547.4745 1370.0597 0.0000 0.0000 1717.8716 -7447.8884 296.1536 -9165.7600 -7447.8884 296.1536 -731.3118 -641.7416 30055.3724 -731.3118 -641.7416
ENERGY: 300000 1.6107 6.9964 3.0374 0.0000 -10644.7250 1472.1465 0.0000 0.0000 1745.9076 -7415.0263 300.9869 -9160.9339 -7369.1600 304.3848 274.4491 414.8110 29806.3386 301.9381 399.9930
ENERGY: 600000 2.1474 9.2535 3.7452 0.0000 -10706.6301 1538.9485 0.0000 0.0000 1715.1150 -7437.4206 295.6784 -9152.5356 -7369.7157 303.1947 763.7018 846.6073 30097.3329 305.9728 372.2612
ENERGY: 900000 0.8475 6.2853 3.1727 0.0000 -10443.5426 1406.3945 0.0000 0.0000 1797.6835 -7229.1590 309.9128 -9026.8426 -7353.6893 303.5172 209.3173 299.4799 29902.9864 245.9308 308.7321
ENERGY: 1200000 0.4370 5.5187 3.0876 0.0000 -10428.3136 1360.6043 0.0000 0.0000 1696.2608 -7362.4052 292.4280 -9058.6659 -7359.4173 301.7811 -298.9904 -275.2792 30190.6983 173.5889 230.3364
ENERGY: 1500000 2.2654 7.7858 3.2083 0.0000 -10553.3795 1417.1876 0.0000 0.0000 1706.8689 -7416.0635 294.2568 -9122.9325 -7376.8438 300.9869 -248.3903 -207.9177 30297.6177 136.7895 188.2420
TCL: Running FEP window  10: Lambda1 0.5499999999999996 Lambda2 0.4999999999999996 [dLambda -0.04999999999999999]
TCL: Setting parameter firsttimestep to 0
TCL: Setting parameter alchLambda to 0.5499999999999996
Info: NONBONDED TABLE R-SQUARED SPACING: 0.0625
Info: NONBONDED TABLE SIZE: 705 POINTS
TCL: Setting parameter alchLambda2 to 0.4999999999999996
Info: NONBONDED TABLE R-SQUARED SPACING: 0.0625
Info: NONBONDED TABLE SIZE: 705 POINTS
TCL: Running for 1500000 steps
ETITLE: TS BOND ANGLE DIHED IMPRP ELECT VDW BOUNDARY MISC KINETIC TOTAL TEMP POTENTIAL TOTALAVG TEMPAVG PRESSURE GPRESSURE VOLUME PRESSAVG GPRESSAVG
ENERGY: 0 2.2654 7.7858 3.2083 0.0000 -10553.3075 1417.6274 0.0000 0.0000 1705.9756 -7416.4451 294.1028 -9122.4207 -7416.4451 294.1028 -308.7519 -214.3099 30297.6177 -308.7519 -214.3099
ENERGY: 300000 1.6372 6.4955 3.3946 0.0000 -10466.6049 1361.9692 0.0000 0.0000 1734.6328 -7358.4756 299.0431 -9093.1084 -7408.0691 296.2659 -618.9399 -521.7776 30314.3737 -305.8203 -211.8330
ENERGY: 600000 0.8267 6.5932 3.4490 0.0000 -10428.4428 1310.6695 0.0000 0.0000 1703.8106 -7403.0937 293.7295 -9106.9044 -7396.1098 297.8591 -935.9153 -856.6128 30330.5397 -424.9592 -336.3769
ENERGY: 900000 2.5470 10.5879 3.0259 0.0000 -10516.7393 1369.8110 0.0000 0.0000 1653.2940 -7477.4735 285.0207 -9130.7675 -7396.4335 296.9745 -557.4292 -543.5559 30450.4310 -209.4407 -140.8693
ENERGY: 1200000 2.3292 6.9673 3.0904 0.0000 -10402.6028 1328.8415 0.0000 0.0000 1687.7415 -7373.6329 290.9593 -9061.3744 -7382.6152 297.8994 -584.0252 -536.3571 29936.6992 -190.2555 -129.7919
ENERGY: 1500000 1.1715 6.8642 3.2175 0.0000 -10567.7371 1485.6720 0.0000 0.0000 1722.5315 -7348.2804 296.9569 -9070.8119 -7385.5826 297.6137 552.4914 601.2453 30027.9642 -128.0418 -69.2028
TCL: Running FEP window  11: Lambda1 0.4999999999999996 Lambda2 0.4499999999999996 [dLambda -0.04999999999999999]
TCL: Setting parameter firsttimestep to 0
TCL: Setting parameter alchLambda to 0.4999999999999996
Info: NONBONDED TABLE R-SQUARED SPACING: 0.0625
Info: NONBONDED TABLE SIZE: 705 POINTS
TCL: Setting parameter alchLambda2 to 0.4499999999999996
Info: NONBONDED TABLE R-SQUARED SPACING: 0.0625
Info: NONBONDED TABLE SIZE: 705 POINTS
TCL: Running for 1500000 steps
ETITLE: TS BOND ANGLE DIHED IMPRP ELECT VDW BOUNDARY MISC KINETIC TOTAL TEMP POTENTIAL TOTALAVG TEMPAVG PRESSURE GPRESSURE VOLUME PRESSAVG GPRESSAVG
ENERGY: 0 1.1715 6.8642 3.2175 0.0000 -10567.7424 1485.7061 0.0000 0.0000 1721.6362 -7349.1470 296.8026 -9070.7832 -7349.1470 296.8026 519.4566 596.0610 30027.9642 519.4566 596.0610
ENERGY: 300000 1.6903 5.1004 3.2223 0.0000 -10543.8152 1429.0418 0.0000 0.0000 1713.9550 -7390.8054 295.4784 -9104.7604 -7381.1576 299.1081 -245.5153 -155.4598 30370.2728 191.2951 263.9119
ENERGY: 600000 1.7130 10.9099 3.2288 0.0000 -10466.9661 1360.8283 0.0000 0.0000 1806.2617 -7284.0244 311.3916 -9090.2861 -7346.9423 304.0651 -521.9412 -423.5642 30094.0096 38.2432 101.4046
ENERGY: 900000 1.6514 6.1528 3.7202 0.0000 -10587.4330 1417.7409 0.0000 0.0000 1707.5961 -7450.5716 294.3821 -9158.1677 -7357.3501 303.5875 -228.0777 -236.8329 30171.9050 62.9317 115.9858
ENERGY: 1200000 1.3480 12.4347 3.9550 0.0000 -10536.6872 1429.3629 0.0000 0.0000 1774.2781 -7315.3085 305.8778 -9089.5866 -7358.1220 302.3911 -39.2108 29.6646 30375.6407 -41.6430 17.0311
ENERGY: 1500000 1.8468 8.8591 3.3046 0.0000 -10566.0736 1461.1563 0.0000 0.0000 1742.7466 -7348.1603 300.4419 -9090.9069 -7372.0220 301.0626 416.8550 502.4479 29859.8972 -93.9996 -35.8326
TCL: Running FEP window  12: Lambda1 0.4499999999999996 Lambda2 0.39999999999999963 [dLambda -0.04999999999999999]
TCL: Setting parameter firsttimestep to 0
TCL: Setting parameter alchLambda to 0.4499999999999996
Info: NONBONDED TABLE R-SQUARED SPACING: 0.0625
Info: NONBONDED TABLE SIZE: 705 POINTS
TCL: Setting parameter alchLambda2 to 0.39999999999999963
Info: NONBONDED TABLE R-SQUARED SPACING: 0.0625
Info: NONBONDED TABLE SIZE: 705 POINTS
TCL: Running for 1500000 steps
ETITLE: TS BOND ANGLE DIHED IMPRP ELECT VDW BOUNDARY MISC KINETIC TOTAL TEMP POTENTIAL TOTALAVG TEMPAVG PRESSURE GPRESSURE VOLUME PRESSAVG GPRESSAVG
ENERGY: 0 1.8468 8.8591 3.3046 0.0000 -10566.0737 1461.2958 0.0000 0.0000 1741.8361 -7348.9313 300.2850 -9090.7674 -7348.9313 300.2850 420.7015 499.0911 29859.8972 420.7015 499.0911
ENERGY: 300000 1.4690 8.9660 3.5901 0.0000 -10436.9809 1306.4777 0.0000 0.0000 1741.0595 -7375.4186 300.1511 -9116.4781 -7368.0963 297.5070 -971.1377 -942.5511 30013.0476 -362.9268 -318.4140
ENERGY: 600000 1.9111 17.8384 3.1673 0.0000 -10555.5558 1424.8679 0.0000 0.0000 1700.6143 -7407.1568 293.1785 -9107.7711 -7370.5823 297.5017 -77.8027 110.2700 29705.7056 -226.8079 -177.3482
ENERGY: 900000 0.4545 10.8143 3.1091 0.0000 -10428.1341 1352.9032 0.0000 0.0000 1820.2391 -7240.6140 313.8013 -9060.8531 -7367.1840 299.7352 -396.6109 -263.4690 30129.2893 -240.4047 -181.9484
ENERGY: 1200000 2.1453 11.3840 4.3048 0.0000 -10636.9865 1470.0688 0.0000 0.0000 1751.7733 -7397.3105 301.9981 -9149.0838 -7378.0495 300.2202 358.6641 411.9771 29712.8831 -182.1775 -117.3712
ENERGY: 1500000 1.5204 5.4524 3.2029 0.0000 -10498.6881 1400.9840 0.0000 0.0000 1764.8293 -7322.6991 304.2489 -9087.5283 -7377.6674 299.9949 -121.1900 -49.9894 30073.3034 -125.3668 -60.3583
TCL: Running FEP window  13: Lambda1 0.39999999999999963 Lambda2 0.34999999999999964 [dLambda -0.04999999999999999]
TCL: Setting parameter firsttimestep to 0
TCL: Setting parameter alchLambda to 0.39999999999999963
Info: NONBONDED TABLE R-SQUARED SPACING: 0.0625
Info: NONBONDED TABLE SIZE: 705 POINTS
TCL: Setting parameter alchLambda2 to 0.34999999999999964
Info: NONBONDED TABLE R-SQUARED SPACING: 0.0625
Info: NONBONDED TABLE SIZE: 705 POINTS
TCL: Running for 1500000 steps
ETITLE: TS BOND ANGLE DIHED IMPRP ELECT VDW BOUNDARY MISC KINETIC TOTAL TEMP POTENTIAL TOTALAVG TEMPAVG PRESSURE GPRESSURE VOLUME PRESSAVG GPRESSAVG
ENERGY: 0 1.5204 5.4524 3.2029 0.0000 -10498.6880 1401.3546 0.0000 0.0000 1763.9737 -7323.1840 304.1014 -9087.1576 -7323.1840 304.1014 -134.2546 -53.3229 30073.3034 -134.2546 -53.3229
ENERGY: 300000 1.9195 9.1742 3.5167 0.0000 -10485.4215 1393.8992 0.0000 0.0000 1726.0229 -7350.8889 297.5588 -9076.9119 -7337.9529 299.8955 -195.1167 -162.3058 30119.2625 39.8291 101.9837
ENERGY: 600000 2.8462 3.8579 3.6078 0.0000 -10483.4731 1460.1822 0.0000 0.0000 1734.3665 -7278.6125 298.9972 -9012.9790 -7333.7836 300.6064 413.2817 495.0968 30386.8437 44.8654 118.9524
ENERGY: 900000 0.9297 12.5212 3.6917 0.0000 -10440.3239 1402.2594 0.0000 0.0000 1752.1864 -7268.7356 302.0693 -9020.9220 -7321.7790 302.4418 -47.4168 50.2290 30595.2556 86.1370 156.1356
ENERGY: 1200000 2.5428 5.2396 3.3938 0.0000 -10392.8914 1384.6658 0.0000 0.0000 1765.8307 -7231.2188 304.4215 -8997.0495 -7328.5808 301.2969 334.1064 287.1739 29525.4535 52.4657 105.7173
ENERGY: 1500000 2.5330 9.1798 5.0928 0.0000 -10535.0124 1398.4443 0.0000 0.0000 1753.1042 -7366.6584 302.2275 -9119.7626 -7341.8605 300.6362 -171.1973 -141.3987 29981.0556 28.7069 82.8936
TCL: Running FEP window  14: Lambda1 0.34999999999999964 Lambda2 0.29999999999999966 [dLambda -0.04999999999999999]
TCL: Setting parameter firsttimestep to 0
TCL: Setting parameter alchLambda to 0.34999999999999964
Info: NONBONDED TABLE R-SQUARED SPACING: 0.0625
Info: NONBONDED TABLE SIZE: 705 POINTS
TCL: Setting parameter alchLambda2 to 0.29999999999999966
Info: NONBONDED TABLE R-SQUARED SPACING: 0.0625
Info: NONBONDED TABLE SIZE: 705 POINTS
TCL: Running for 1500000 steps
ETITLE: TS BOND ANGLE DIHED IMPRP ELECT VDW BOUNDARY MISC KINETIC TOTAL TEMP POTENTIAL TOTALAVG TEMPAVG PRESSURE GPRESSURE VOLUME PRESSAVG GPRESSAVG
ENERGY: 0 2.5330 9.1798 5.0928 0.0000 -10535.0134 1398.5809 0.0000 0.0000 1752.2567 -7367.3702 302.0814 -9119.6269 -7367.3702 302.0814 -214.4649 -145.5171 29981.0556 -214.4649 -145.5171
ENERGY: 300000 1.0063 8.2295 3.1671 0.0000 -10616.3023 1457.7200 0.0000 0.0000 1727.2478 -7418.9315 297.7700 -9146.1794 -7376.6033 301.5711 -51.1790 2.0707 30354.9894 -312.9886 -232.3624
ENERGY: 600000 3.2428 4.9968 3.1255 0.0000 -10597.6466 1438.4193 0.0000 0.0000 1718.0574 -7429.8047 296.1856 -9147.8622 -7404.8039 301.8319 -260.8416 -129.3617 30010.0430 -102.5860 -31.7805
ENERGY: 900000 0.5170 7.4755 3.7557 0.0000 -10409.9912 1350.7151 0.0000 0.0000 1722.9976 -7324.5304 297.0373 -9047.5279 -7393.3381 301.0623 -580.7866 -530.6547 30317.7107 -150.4545 -94.2069
ENERGY: 1200000 3.2563 9.5119 3.3618 0.0000 -10577.0481 1453.4975 0.0000 0.0000 1756.2819 -7351.1387 302.7754 -9107.4207 -7383.7994 301.3336 322.7066 373.8209 29857.6885 -88.5682 -29.6684
ENERGY: 1500000 1.0549 7.8488 3.4068 0.0000 -10709.8907 1489.5010 0.0000 0.0000 1726.0696 -7482.0095 297.5669 -9208.0791 -7383.9185 301.3096 301.7425 395.5732 29384.0429 -13.4383 46.3832
TCL: Running FEP window  15: Lambda1 0.29999999999999966 Lambda2 0.24999999999999967 [dLambda -0.04999999999999999]
TCL: Setting parameter firsttimestep to 0
TCL: Setting parameter alchLambda to 0.29999999999999966
Info: NONBONDED TABLE R-SQUARED SPACING: 0.0625
Info: NONBONDED TABLE SIZE: 705 POINTS
TCL: Setting parameter alchLambda2 to 0.24999999999999967
Info: NONBONDED TABLE R-SQUARED SPACING: 0.0625
Info: NONBONDED TABLE SIZE: 705 POINTS
TCL: Running for 1500000 steps
ETITLE: TS BOND ANGLE DIHED IMPRP ELECT VDW BOUNDARY MISC KINETIC TOTAL TEMP POTENTIAL TOTALAVG TEMPAVG PRESSURE GPRESSURE VOLUME PRESSAVG GPRESSAVG
ENERGY: 0 1.0549 7.8488 3.4068 0.0000 -10709.8917 1489.8183 0.0000 0.0000 1725.2166 -7482.5461 297.4198 -9207.7628 -7482.5461 297.4198 298.9772 391.7401 29384.0429 298.9772 391.7401
ENERGY: 300000 1.7549 10.4023 3.3768 0.0000 -10498.9670 1390.0792 0.0000 0.0000 1757.6612 -7335.6926 303.0131 -9093.3538 -7405.2766 298.3893 -66.7161 -74.2620 29760.0755 -287.9928 -244.5376
ENERGY: 600000 3.0324 7.6602 3.7500 0.0000 -10587.1980 1381.0942 0.0000 0.0000 1815.3590 -7376.3022 312.9600 -9191.6612 -7389.4999 301.3460 -407.2219 -348.9406 29718.1436 -260.1587 -194.7593
ENERGY: 900000 0.9601 12.3884 3.6386 0.0000 -10556.5656 1393.2170 0.0000 0.0000 1733.8567 -7412.5047 298.9094 -9146.3614 -7378.2102 301.0888 -435.4923 -464.6757 30035.3745 -313.2697 -261.4242
ENERGY: 1200000 0.8240 6.5158 3.1608 0.0000 -10612.1685 1492.9548 0.0000 0.0000 1745.7616 -7362.9516 300.9617 -9108.7131 -7370.4162 301.5468 595.0646 657.0716 29752.6087 -256.1357 -195.4496
ENERGY: 1500000 5.1628 7.5991 3.2223 0.0000 -10577.2868 1404.1405 0.0000 0.0000 1709.0785 -7448.0836 294.6377 -9157.1621 -7376.6822 301.1389 -466.0710 -368.7701 29973.2931 -280.7650 -221.4212
TCL: Running FEP window  16: Lambda1 0.24999999999999967 Lambda2 0.19999999999999968 [dLambda -0.04999999999999999]
TCL: Setting parameter firsttimestep to 0
TCL: Setting parameter alchLambda to 0.24999999999999967
Info: NONBONDED TABLE R-SQUARED SPACING: 0.0625
Info: NONBONDED TABLE SIZE: 705 POINTS
TCL: Setting parameter alchLambda2 to 0.19999999999999968
Info: NONBONDED TABLE R-SQUARED SPACING: 0.0625
Info: NONBONDED TABLE SIZE: 705 POINTS
TCL: Running for 1500000 steps
ETITLE: TS BOND ANGLE DIHED IMPRP ELECT VDW BOUNDARY MISC KINETIC TOTAL TEMP POTENTIAL TOTALAVG TEMPAVG PRESSURE GPRESSURE VOLUME PRESSAVG GPRESSAVG
ENERGY: 0 5.1628 7.5991 3.2223 0.0000 -10577.2864 1403.6861 0.0000 0.0000 1708.1503 -7449.4658 294.4777 -9157.6161 -7449.4658 294.4777 -460.8566 -373.5413 29973.2931 -460.8566 -373.5413
ENERGY: 300000 0.6977 9.3198 3.8695 0.0000 -10525.6820 1430.1543 0.0000 0.0000 1758.7903 -7322.8505 303.2078 -9081.6408 -7365.1693 301.6851 -52.0583 85.2397 30284.4492 -126.5455 -33.1447
ENERGY: 600000 1.9301 8.9922 3.2961 0.0000 -10636.1251 1464.5481 0.0000 0.0000 1753.8278 -7403.5308 302.3523 -9157.3587 -7381.7693 300.9136 240.3893 309.4643 29818.3054 -101.9210 -34.9496
ENERGY: 900000 0.2115 10.0097 3.2075 0.0000 -10532.2319 1379.4080 0.0000 0.0000 1731.1646 -7408.2306 298.4452 -9139.3952 -7390.2692 300.7991 -290.6765 -174.9252 29582.9675 -20.6001 48.2146
ENERGY: 1200000 2.0137 7.8201 3.4984 0.0000 -10535.4648 1337.3828 0.0000 0.0000 1775.7917 -7408.9581 306.1388 -9184.7498 -7375.7913 301.2825 -901.8731 -778.5674 29789.1317 -105.2950 -33.1808
ENERGY: 1500000 0.3118 15.2551 3.1795 0.0000 -10706.1504 1549.0706 0.0000 0.0000 1679.2372 -7459.0962 289.4932 -9138.3334 -7377.4385 300.4737 875.8426 931.8338 29839.0930 -55.7296 12.0940
TCL: Running FEP window  17: Lambda1 0.19999999999999968 Lambda2 0.1499999999999997 [dLambda -0.04999999999999999]
TCL: Setting parameter firsttimestep to 0
TCL: Setting parameter alchLambda to 0.19999999999999968
Info: NONBONDED TABLE R-SQUARED SPACING: 0.0625
Info: NONBONDED TABLE SIZE: 705 POINTS
TCL: Setting parameter alchLambda2 to 0.1499999999999997
Info: NONBONDED TABLE R-SQUARED SPACING: 0.0625
Info: NONBONDED TABLE SIZE: 705 POINTS
TCL: Running for 1500000 steps
ETITLE: TS BOND ANGLE DIHED IMPRP ELECT VDW BOUNDARY MISC KINETIC TOTAL TEMP POTENTIAL TOTALAVG TEMPAVG PRESSURE GPRESSURE VOLUME PRESSAVG GPRESSAVG
ENERGY: 0 0.3118 15.2551 3.1795 0.0000 -10706.1493 1548.9255 0.0000 0.0000 1678.3415 -7460.1359 289.3388 -9138.4774 -7460.1359 289.3388 851.9641 929.3988 29839.0930 851.9641 929.3988
ENERGY: 300000 1.8077 7.1763 3.6110 0.0000 -10550.1367 1455.2870 0.0000 0.0000 1748.8253 -7333.4293 301.4899 -9082.2546 -7399.9702 297.0601 145.4220 221.1347 30090.2958 260.4095 337.5406
ENERGY: 600000 1.4258 7.3547 3.0574 0.0000 -10710.4701 1569.5293 0.0000 0.0000 1784.2769 -7344.8261 307.6016 -9129.1030 -7384.6676 298.5323 1313.7072 1353.6566 29502.0494 372.2835 450.4798
ENERGY: 900000 0.9372 7.2778 3.6927 0.0000 -10665.1841 1579.1911 0.0000 0.0000 1740.3604 -7333.7248 300.0306 -9074.0852 -7381.2656 299.8312 1404.9232 1466.3891 29768.5492 401.1657 483.3517
ENERGY: 1200000 1.4231 5.5311 2.8835 0.0000 -10570.0954 1383.3030 0.0000 0.0000 1761.6745 -7415.2803 303.7050 -9176.9548 -7374.4632 301.0250 -428.9562 -341.7013 29640.9306 266.9991 345.3406
ENERGY: 1500000 3.4235 9.1307 3.5934 0.0000 -10593.8257 1420.4425 0.0000 0.0000 1799.2025 -7358.0332 310.1747 -9157.2357 -7378.0810 301.7995 -0.1738 -51.4358 29802.7719 270.9429 341.0990
TCL: Running FEP window  18: Lambda1 0.1499999999999997 Lambda2 0.09999999999999969 [dLambda -0.05 ]
TCL: Setting parameter firsttimestep to 0
TCL: Setting parameter alchLambda to 0.1499999999999997
Info: NONBONDED TABLE R-SQUARED SPACING: 0.0625
Info: NONBONDED TABLE SIZE: 705 POINTS
TCL: Setting parameter alchLambda2 to 0.09999999999999969
Info: NONBONDED TABLE R-SQUARED SPACING: 0.0625
Info: NONBONDED TABLE SIZE: 705 POINTS
TCL: Running for 1500000 steps
ETITLE: TS BOND ANGLE DIHED IMPRP ELECT VDW BOUNDARY MISC KINETIC TOTAL TEMP POTENTIAL TOTALAVG TEMPAVG PRESSURE GPRESSURE VOLUME PRESSAVG GPRESSAVG
ENERGY: 0 3.4235 9.1307 3.5934 0.0000 -10593.8243 1420.2100 0.0000 0.0000 1798.3601 -7359.1067 310.0294 -9157.4667 -7359.1067 310.0294 -120.4977 -56.4297 29802.7719 -120.4977 -56.4297
ENERGY: 300000 2.2544 7.8868 3.8133 0.0000 -10466.0047 1368.4823 0.0000 0.0000 1692.1861 -7391.3819 291.7255 -9083.5680 -7349.6559 306.0809 -467.3182 -336.1098 30126.7774 -224.5997 -165.9621
ENERGY: 600000 1.9730 8.2247 3.5306 0.0000 -10545.3999 1441.8507 0.0000 0.0000 1745.1979 -7344.6230 300.8645 -9089.8209 -7343.5849 304.6785 278.4263 319.1965 29747.2135 -8.9567 47.4184
ENERGY: 900000 1.8371 8.8791 3.3426 0.0000 -10323.5803 1310.0473 0.0000 0.0000 1771.4141 -7228.0602 305.3841 -8999.4742 -7327.0915 304.0518 -702.4284 -623.4425 30082.1331 -124.6081 -54.4237
ENERGY: 1200000 6.2770 7.5488 3.9769 0.0000 -10526.6960 1364.4774 0.0000 0.0000 1788.9023 -7355.5136 308.3990 -9144.4159 -7343.0549 303.0136 -905.6549 -751.1714 30100.8886 -187.6517 -111.8169
ENERGY: 1500000 0.3205 5.8587 3.2159 0.0000 -10634.2601 1463.8705 0.0000 0.0000 1705.1769 -7455.8177 293.9651 -9160.9945 -7350.7696 302.4797 381.5452 463.3051 29653.7927 -127.5015 -46.8594
TCL: Running FEP window  19: Lambda1 0.09999999999999969 Lambda2 0.049999999999999684 [dLambda -0.05 ]
TCL: Setting parameter firsttimestep to 0
TCL: Setting parameter alchLambda to 0.09999999999999969
Info: NONBONDED TABLE R-SQUARED SPACING: 0.0625
Info: NONBONDED TABLE SIZE: 705 POINTS
TCL: Setting parameter alchLambda2 to 0.049999999999999684
Info: NONBONDED TABLE R-SQUARED SPACING: 0.0625
Info: NONBONDED TABLE SIZE: 705 POINTS
TCL: Running for 1500000 steps
ETITLE: TS BOND ANGLE DIHED IMPRP ELECT VDW BOUNDARY MISC KINETIC TOTAL TEMP POTENTIAL TOTALAVG TEMPAVG PRESSURE GPRESSURE VOLUME PRESSAVG GPRESSAVG
ENERGY: 0 0.3205 5.8587 3.2159 0.0000 -10634.2606 1464.2140 0.0000 0.0000 1704.2942 -7456.3572 293.8129 -9160.6515 -7456.3572 293.8129 378.2559 462.9511 29653.7927 378.2559 462.9511
ENERGY: 300000 1.6247 6.9398 3.2992 0.0000 -10693.0448 1468.6991 0.0000 0.0000 1717.0889 -7495.3932 296.0187 -9212.4821 -7449.5444 295.6350 160.8677 277.0381 29517.6191 353.7477 430.9502
ENERGY: 600000 1.4850 6.7303 3.0369 0.0000 -10534.5738 1346.7268 0.0000 0.0000 1756.0428 -7420.5520 302.7341 -9176.5947 -7427.4686 297.2725 -647.6626 -671.4431 29747.8261 42.7994 97.7132
ENERGY: 900000 0.7077 5.4656 3.0119 0.0000 -10594.4686 1444.0550 0.0000 0.0000 1751.9253 -7389.3032 302.0243 -9141.2284 -7412.9719 299.0760 77.8210 116.9412 30018.7249 38.8212 102.0327
ENERGY: 1200000 0.8924 8.5595 5.5101 0.0000 -10728.3427 1550.7441 0.0000 0.0000 1760.8676 -7401.7690 303.5659 -9162.6366 -7402.0629 299.7035 877.4754 958.9300 29716.3899 162.9953 233.6136
ENERGY: 1500000 1.7313 5.6633 2.9817 0.0000 -10549.6112 1399.4040 0.0000 0.0000 1739.4831 -7400.3478 299.8793 -9139.8310 -7397.8166 299.8931 -261.1142 -193.8062 29771.0789 130.7714 197.3873
TCL: Running FEP window  20: Lambda1 0.049999999999999684 Lambda2 0.0    [dLambda -0.049999999999999684]
TCL: Setting parameter firsttimestep to 0
TCL: Setting parameter alchLambda to 0.049999999999999684
Info: NONBONDED TABLE R-SQUARED SPACING: 0.0625
Info: NONBONDED TABLE SIZE: 705 POINTS
TCL: Setting parameter alchLambda2 to 0.0
Info: NONBONDED TABLE R-SQUARED SPACING: 0.0625
Info: NONBONDED TABLE SIZE: 705 POINTS
TCL: Running for 1500000 steps
ETITLE: TS BOND ANGLE DIHED IMPRP ELECT VDW BOUNDARY MISC KINETIC TOTAL TEMP POTENTIAL TOTALAVG TEMPAVG PRESSURE GPRESSURE VOLUME PRESSAVG GPRESSAVG
ENERGY: 0 1.7313 5.6633 2.9817 0.0000 -10549.6109 1398.2852 0.0000 0.0000 1738.6568 -7402.2928 299.7369 -9140.9495 -7402.2928 299.7369 -289.4147 -198.1190 29771.0789 -289.4147 -198.1190
ENERGY: 300000 1.3567 10.0950 3.5585 0.0000 -10280.7787 1253.2613 0.0000 0.0000 1806.7329 -7205.7743 311.4729 -9012.5072 -7356.6975 300.5364 -1000.8717 -975.4369 29845.0449 -456.3434 -404.1998
ENERGY: 600000 1.1728 8.1078 3.8396 0.0000 -10561.8956 1443.7676 0.0000 0.0000 1701.7389 -7403.2690 293.3724 -9105.0079 -7348.8569 299.7878 26.3716 157.2334 30002.4352 -198.3928 -122.7639
ENERGY: 900000 2.3147 9.9050 3.3963 0.0000 -10686.7782 1506.3338 0.0000 0.0000 1747.4138 -7417.4147 301.2465 -9164.8284 -7343.6989 300.3772 422.2689 520.8393 29912.2605 -123.4525 -49.1266
ENERGY: 1200000 1.5679 8.6002 3.0805 0.0000 -10562.2825 1475.9769 0.0000 0.0000 1752.0119 -7321.0451 302.0392 -9073.0570 -7354.3706 299.6434 484.9075 501.2464 29940.8611 -176.5128 -105.8901
ENERGY: 1500000 0.9795 9.3044 3.6532 0.0000 -10613.4822 1416.9079 0.0000 0.0000 1733.8605 -7448.7766 298.9100 -9182.6371 -7360.3517 299.9317 -317.1973 -265.7510 29933.5727 -273.5191 -203.8733
TCL: Exiting due to exit command.
