Info: SIMULATION PARAMETERS:
Info: TIMESTEP               2
Info: NUMBER OF STEPS        0
Info: STEPS PER CYCLE        10
Info: PERIODIC CELL BASIS 1  30.7906 0 0
Info: PERIODIC CELL BASIS 2  0 29.3191 0
Info: PERIODIC CELL BASIS 3  0 0 32.96
Info: PERIODIC CELL CENTER   0 0 0
Info: WRAPPING WATERS AROUND PERIODIC BOUNDARIES ON OUTPUT.
Info: WRAPPING ALL CLUSTERS AROUND PERIODIC BOUNDARIES ON OUTPUT.
Info: FIRST LDB TIMESTEP     50
Info: LAST LDB TIMESTEP     -1
Info: HOM BACKGROUND SCALING 1
Info: PME BACKGROUND SCALING 1
Info: MIN ATOMS PER PATCH    40
Info: EMPTY PATCH LOAD       40 ATOMS
Info: VELOCITY FILE          mobley_2925352_equil.vel
Info: CENTER OF MASS MOVING INITIALLY? NO
Info: DIELECTRIC             1
Info: EXCLUDE                SCALED ONE-FOUR
Info: 1-4 ELECTROSTATICS SCALED BY 0.833333
Info: MODIFIED 1-4 VDW PARAMETERS WILL BE USED
Info: DCD FILENAME           mobley_2925352_prod.dcd
Info: DCD FREQUENCY          100000
Info: DCD FIRST STEP         100000
Info: DCD FILE WILL CONTAIN UNIT CELL DATA
Info: XST FILENAME           mobley_2925352_prod.xst
Info: XST FREQUENCY          100000
Info: NO VELOCITY DCD OUTPUT
Info: NO FORCE DCD OUTPUT
Info: OUTPUT FILENAME        mobley_2925352_prod
Info: BINARY OUTPUT FILES WILL BE USED
Info: RESTART FILENAME       mobley_2925352_prod.restart
Info: RESTART FREQUENCY      100000
Info: BINARY RESTART FILES WILL BE USED
Info: CUTOFF                 9
Info: PAIRLIST DISTANCE      11
Info: PAIRLIST SHRINK RATE   0.01
Info: PAIRLIST GROW RATE     0.01
Info: PAIRLIST TRIGGER       0.3
Info: PAIRLISTS PER CYCLE    2
Info: PAIRLISTS ENABLED
Info: MARGIN                 2
Info: HYDROGEN GROUP CUTOFF  2.5
Info: PATCH DIMENSION        15.5
Info: ENERGY OUTPUT STEPS    100000
Info: ENERGY EVALUATION STEPS    100000
Info: OUTPUT ENERGY PRECISION 4
Info: CROSSTERM ENERGY INCLUDED IN DIHEDRAL
Info: TIMING OUTPUT STEPS    1000000
Info: PRESSURE OUTPUT STEPS  100000
Info: ALCHEMICAL FEP ON
Info: FEP CURRENT LAMBDA VALUE     0
Info: FEP COMPARISON LAMBDA VALUE  0.05
Info: FEP INTRA-ALCHEMICAL NON-BONDED INTERACTIONS WILL BE RETAINED
Info: FEP INTRA-ALCHEMICAL BONDED INTERACTIONS WILL BE RETAINED
Info: FEP VDW SHIFTING COEFFICIENT 5
Info: FEP ELEC. ACTIVE FOR ANNIHILATED PARTICLES BETWEEN LAMBDA = 0 AND LAMBDA = 0.5
Info: FEP ELEC. ACTIVE FOR EXNIHILATED PARTICLES BETWEEN LAMBDA = 0.5 AND LAMBDA = 1
Info: FEP VDW ACTIVE FOR ANNIHILATED PARTICLES BETWEEN LAMBDA = 0 AND LAMBDA = 1
Info: FEP VDW ACTIVE FOR EXNIHILATED PARTICLES BETWEEN LAMBDA = 0 AND LAMBDA = 1
Info: FEP BOND ACTIVE FOR ANNIHILATED PARTICLES BETWEEN LAMBDA = 1 AND LAMBDA = 1
Info: FEP BOND ACTIVE FOR EXNIHILATED PARTICLES BETWEEN LAMBDA = 0 AND LAMBDA = 0
Info: LANGEVIN DYNAMICS ACTIVE
Info: LANGEVIN TEMPERATURE   300
Info: LANGEVIN USING BBK INTEGRATOR
Info: LANGEVIN DAMPING COEFFICIENT IS 1 INVERSE PS
Info: LANGEVIN DYNAMICS APPLIED TO HYDROGENS
Info: LANGEVIN PISTON PRESSURE CONTROL ACTIVE
Info:        TARGET PRESSURE IS 1.01325 BAR
Info:     OSCILLATION PERIOD IS 50 FS
Info:             DECAY TIME IS 25 FS
Info:     PISTON TEMPERATURE IS 300 K
Info:       PRESSURE CONTROL IS GROUP-BASED
Info:    INITIAL STRAIN RATE IS -0.000705684 -0.000705684 -0.000705684
Info:       CELL FLUCTUATION IS ISOTROPIC
Info: PARTICLE MESH EWALD (PME) ACTIVE
Info: PME TOLERANCE               1e-06
Info: PME EWALD COEFFICIENT       0.348832
Info: PME INTERPOLATION ORDER     4
Info: PME GRID DIMENSIONS         32 32 36
Info: PME MAXIMUM GRID SPACING    1
Info: PME CALCULATION WILL BE PERFORMED ON GPU
Info: FULL ELECTROSTATIC EVALUATION FREQUENCY      2
Info: USING VERLET I (r-RESPA) MTS SCHEME.
Info: C1 SPLITTING OF LONG RANGE ELECTROSTATICS
Info: PLACING ATOMS IN PATCHES BY HYDROGEN GROUPS
Info: RIGID BONDS TO HYDROGEN : ALL
Info:         ERROR TOLERANCE : 1e-08
Info:          MAX ITERATIONS : 100
Info: RIGID WATER USING SETTLE ALGORITHM
Info: RANDOM NUMBER SEED     1743579011
Info: USE HYDROGEN BONDS?    NO
Info: Using AMBER format force field!
Info: AMBER PARM FILE        mobley_2925352.prmtop
Info: COORDINATE PDB         mobley_2925352.pdb
Info: Exclusions will be read from PARM file!
Info: SCNB (VDW SCALING)     2
Info: USING ARITHMETIC MEAN TO COMBINE L-J SIGMA PARAMETERS
Info: BINARY COORDINATES     mobley_2925352_equil.coor
Info: SUMMARY OF PARAMETERS:
Info: 8 BONDS
Info: 7 ANGLES
Info:   7 HARMONIC
Info:   0 COSINE-BASED
Info: 4 DIHEDRAL
Info: 0 IMPROPER
Info: 0 CROSSTERM
Info: 0 VDW
Info: 28 VDW_PAIRS
Info: 0 NBTHOLE_PAIRS
Info: To read alchdata from file: mobley_2925352.pdb
Info: To read alchflag data from column: 5
Info: STRUCTURE SUMMARY:
Info: 2923 ATOMS
Info: 2923 BONDS
Info: 25 ANGLES
Info: 38 DIHEDRALS
Info: 0 IMPROPERS
Info: 0 CROSSTERMS
Info: 2977 EXCLUSIONS
Info: 2915 RIGID BONDS
Info: ALCH: 0 ATOMS TO DISAPPEAR IN FINAL STATE
Info: ALCH: 16 ATOMS TO APPEAR IN FINAL STATE
Info: 5854 DEGREES OF FREEDOM
Info: 977 HYDROGEN GROUPS
Info: 4 ATOMS IN LARGEST HYDROGEN GROUP
Info: 977 MIGRATION GROUPS
Info: 4 ATOMS IN LARGEST MIGRATION GROUP
Info: TOTAL MASS = 17565.6 amu
Info: TOTAL CHARGE = 0.00010002 e
Info: MASS DENSITY = 0.980317 g/cm^3
Info: ATOM DENSITY = 0.0982363 atoms/A^3
Info: ADDED 0 IMPLICIT EXCLUSIONS
Info: NONBONDED TABLE R-SQUARED SPACING: 0.0625
Info: NONBONDED TABLE SIZE: 705 POINTS
Info: REMOVING COM VELOCITY -0.0961776 0.0704615 -0.183067
Info: Use 3D box decompostion in PME FFT.
Info: Updated CUDA force table with 4096 elements.
Info: Updated CUDA LJ table with 7 x 7 elements.
Info: Found 18 unique exclusion lists needing 44 bytes
TCL: Running for 1500000 steps
ETITLE: TS BOND ANGLE DIHED IMPRP ELECT VDW BOUNDARY MISC KINETIC TOTAL TEMP POTENTIAL TOTALAVG TEMPAVG PRESSURE GPRESSURE VOLUME PRESSAVG GPRESSAVG
ENERGY: 0 2.7925 4.7514 6.1766 0.0000 -10730.1151 1488.4247 0.0000 0.0000 1681.6129 -7546.3571 289.1104 -9227.9700 -7546.3571 289.1104 283.9342 359.2415 29754.7705 283.9342 359.2415
ENERGY: 300000 4.0143 3.9100 4.9382 0.0000 -10552.9545 1454.9727 0.0000 0.0000 1738.2531 -7346.8663 298.8482 -9085.1193 -7459.2930 292.9757 226.9318 324.3570 30045.2679 51.7702 109.4923
ENERGY: 600000 2.2509 6.7774 4.8957 0.0000 -10597.8853 1496.8840 0.0000 0.0000 1758.8866 -7328.1908 302.3956 -9087.0774 -7414.9444 296.9107 831.9406 923.1300 29771.0926 256.8689 319.3931
ENERGY: 900000 3.7266 2.6370 2.1983 0.0000 -10496.1856 1338.8811 0.0000 0.0000 1768.6782 -7380.0643 304.0790 -9148.7425 -7404.3195 299.3065 -750.9790 -744.0254 30441.8532 104.5160 165.9102
ENERGY: 1200000 3.5220 2.7792 3.6034 0.0000 -10540.5956 1426.8202 0.0000 0.0000 1782.8990 -7320.9717 306.5240 -9103.8708 -7401.3867 300.0314 254.8514 283.5713 29851.1557 47.0180 104.0876
ENERGY: 1500000 2.3770 5.3582 1.1678 0.0000 -10623.0110 1409.4297 0.0000 0.0000 1720.2924 -7484.3858 295.7603 -9204.6782 -7409.7171 299.9726 -48.6435 -33.9568 29598.5288 -18.8002 39.6547
TCL: Running FEP window   2: Lambda1 0.05   Lambda2 0.1    [dLambda 0.05  ]
TCL: Setting parameter firsttimestep to 0
TCL: Setting parameter alchLambda to 0.05
Info: NONBONDED TABLE R-SQUARED SPACING: 0.0625
Info: NONBONDED TABLE SIZE: 705 POINTS
TCL: Setting parameter alchLambda2 to 0.1
Info: NONBONDED TABLE R-SQUARED SPACING: 0.0625
Info: NONBONDED TABLE SIZE: 705 POINTS
TCL: Running for 1500000 steps
ETITLE: TS BOND ANGLE DIHED IMPRP ELECT VDW BOUNDARY MISC KINETIC TOTAL TEMP POTENTIAL TOTALAVG TEMPAVG PRESSURE GPRESSURE VOLUME PRESSAVG GPRESSAVG
ENERGY: 0 2.3770 5.3582 1.1678 0.0000 -10623.0119 1410.7269 0.0000 0.0000 1719.4206 -7483.9613 295.6105 -9203.3819 -7483.9613 295.6105 -122.0415 -27.1166 29598.5288 -122.0415 -27.1166
ENERGY: 300000 4.1072 3.3142 4.8978 0.0000 -10580.5382 1404.2157 0.0000 0.0000 1794.3915 -7369.6118 308.4998 -9164.0033 -7434.3534 300.4336 -287.5497 -251.8415 29756.2349 -348.4141 -281.2898
ENERGY: 600000 0.4383 5.8337 2.5908 0.0000 -10572.6016 1416.6481 0.0000 0.0000 1728.1089 -7418.9818 297.1042 -9147.0907 -7412.2052 298.7216 -26.6002 37.9945 29872.5498 -270.4578 -208.3662
ENERGY: 900000 1.5586 6.3601 1.3648 0.0000 -10683.0663 1480.2342 0.0000 0.0000 1758.6857 -7434.8628 302.3611 -9193.5485 -7417.8408 298.3621 334.1239 383.1216 29933.8765 -173.9749 -106.9888
ENERGY: 1200000 2.2365 5.1251 1.8187 0.0000 -10603.8556 1452.1248 0.0000 0.0000 1754.0644 -7388.4861 301.5666 -9142.5505 -7421.5823 298.9457 214.5806 256.4466 29870.9160 -181.8803 -119.7716
ENERGY: 1500000 1.8830 6.7399 1.2114 0.0000 -10603.7856 1427.9145 0.0000 0.0000 1728.7787 -7437.2581 297.2193 -9166.0367 -7434.1496 298.1075 -100.6016 -65.0919 30332.2654 -160.7089 -97.3228
TCL: Running FEP window   3: Lambda1 0.1    Lambda2 0.15000000000000002 [dLambda 0.05000000000000002]
TCL: Setting parameter firsttimestep to 0
TCL: Setting parameter alchLambda to 0.1
Info: NONBONDED TABLE R-SQUARED SPACING: 0.0625
Info: NONBONDED TABLE SIZE: 705 POINTS
TCL: Setting parameter alchLambda2 to 0.15000000000000002
Info: NONBONDED TABLE R-SQUARED SPACING: 0.0625
Info: NONBONDED TABLE SIZE: 705 POINTS
TCL: Running for 1500000 steps
ETITLE: TS BOND ANGLE DIHED IMPRP ELECT VDW BOUNDARY MISC KINETIC TOTAL TEMP POTENTIAL TOTALAVG TEMPAVG PRESSURE GPRESSURE VOLUME PRESSAVG GPRESSAVG
ENERGY: 0 1.8830 6.7399 1.2114 0.0000 -10603.7844 1428.0552 0.0000 0.0000 1727.8993 -7437.9957 297.0681 -9165.8950 -7437.9957 297.0681 -150.5817 -58.6283 30332.2654 -150.5817 -58.6283
ENERGY: 300000 1.4054 5.2976 3.3280 0.0000 -10629.4164 1430.1728 0.0000 0.0000 1800.4112 -7388.8014 309.5347 -9189.2126 -7438.7289 298.9109 179.9073 235.4567 29607.7454 321.6699 374.9992
ENERGY: 600000 2.2632 3.0309 3.5902 0.0000 -10632.8972 1478.2167 0.0000 0.0000 1733.4467 -7412.3496 298.0219 -9145.7962 -7418.4540 300.0073 459.9302 503.3061 30295.3401 349.0918 407.1240
ENERGY: 900000 2.9597 6.5178 2.8573 0.0000 -10662.6138 1512.5819 0.0000 0.0000 1709.1603 -7428.5368 293.8465 -9137.6971 -7422.0269 299.8258 756.0202 815.5635 29717.1873 415.6606 480.6287
ENERGY: 1200000 0.7615 3.4199 6.3167 0.0000 -10529.2610 1363.9423 0.0000 0.0000 1749.1366 -7405.6841 300.7194 -9154.8207 -7407.9529 300.6474 -310.0107 -272.8664 29831.0183 245.8625 307.5232
ENERGY: 1500000 3.1492 3.8136 7.8632 0.0000 -10633.0609 1425.2663 0.0000 0.0000 1785.1762 -7407.7923 306.9154 -9192.9685 -7419.3984 301.1753 -236.2717 -190.0968 30265.9207 232.8819 294.8844
TCL: Running FEP window   4: Lambda1 0.15000000000000002 Lambda2 0.2    [dLambda 0.04999999999999999]
TCL: Setting parameter firsttimestep to 0
TCL: Setting parameter alchLambda to 0.15000000000000002
Info: NONBONDED TABLE R-SQUARED SPACING: 0.0625
Info: NONBONDED TABLE SIZE: 705 POINTS
TCL: Setting parameter alchLambda2 to 0.2
Info: NONBONDED TABLE R-SQUARED SPACING: 0.0625
Info: NONBONDED TABLE SIZE: 705 POINTS
TCL: Running for 1500000 steps
ETITLE: TS BOND ANGLE DIHED IMPRP ELECT VDW BOUNDARY MISC KINETIC TOTAL TEMP POTENTIAL TOTALAVG TEMPAVG PRESSURE GPRESSURE VOLUME PRESSAVG GPRESSAVG
ENERGY: 0 3.1492 3.8136 7.8632 0.0000 -10633.0611 1428.7542 0.0000 0.0000 1784.3273 -7405.1536 306.7695 -9189.4809 -7405.1536 306.7695 -266.5746 -181.7346 30265.9207 -266.5746 -181.7346
ENERGY: 300000 2.9452 3.0037 1.3487 0.0000 -10573.9010 1426.3044 0.0000 0.0000 1787.9664 -7352.3326 307.3952 -9140.2990 -7400.6136 301.4947 15.5985 35.0324 30052.8488 -231.2875 -197.7630
ENERGY: 600000 2.3007 7.2735 3.1905 0.0000 -10617.5965 1398.6734 0.0000 0.0000 1721.1389 -7485.0194 295.9059 -9206.1584 -7410.4038 301.8973 -403.6018 -427.6658 30146.1751 -363.0388 -329.5255
ENERGY: 900000 3.1614 7.0398 4.4958 0.0000 -10566.9841 1428.0662 0.0000 0.0000 1780.4005 -7343.8204 306.0944 -9124.2209 -7402.4337 301.6266 181.5689 264.8660 29939.0876 -151.2704 -111.1692
ENERGY: 1200000 0.9103 3.3016 3.9711 0.0000 -10477.1266 1311.4330 0.0000 0.0000 1719.8778 -7437.6327 295.6891 -9157.5104 -7426.2886 298.9224 -617.9825 -611.0436 30088.3358 -192.0470 -146.0268
ENERGY: 1500000 4.9549 4.5801 3.0670 0.0000 -10541.9601 1357.0378 0.0000 0.0000 1746.5765 -7425.7439 300.2792 -9172.3203 -7426.9661 299.2492 -384.8190 -332.8733 29839.4135 -89.5553 -40.8098
TCL: Running FEP window   5: Lambda1 0.2    Lambda2 0.25   [dLambda 0.04999999999999999]
TCL: Setting parameter firsttimestep to 0
TCL: Setting parameter alchLambda to 0.2
Info: NONBONDED TABLE R-SQUARED SPACING: 0.0625
Info: NONBONDED TABLE SIZE: 705 POINTS
TCL: Setting parameter alchLambda2 to 0.25
Info: NONBONDED TABLE R-SQUARED SPACING: 0.0625
Info: NONBONDED TABLE SIZE: 705 POINTS
TCL: Running for 1500000 steps
ETITLE: TS BOND ANGLE DIHED IMPRP ELECT VDW BOUNDARY MISC KINETIC TOTAL TEMP POTENTIAL TOTALAVG TEMPAVG PRESSURE GPRESSURE VOLUME PRESSAVG GPRESSAVG
ENERGY: 0 4.9549 4.5801 3.0670 0.0000 -10541.9596 1357.1590 0.0000 0.0000 1745.7008 -7426.4978 300.1287 -9172.1986 -7426.4978 300.1287 -411.6654 -329.0639 29839.4135 -411.6654 -329.0639
ENERGY: 300000 1.5926 4.0895 4.4968 0.0000 -10556.7363 1410.6766 0.0000 0.0000 1780.4570 -7355.4239 306.1041 -9135.8809 -7386.9905 305.6440 115.4753 155.9472 29666.8700 118.6230 178.2104
ENERGY: 600000 2.2717 3.1617 4.3611 0.0000 -10621.7167 1431.5562 0.0000 0.0000 1699.1695 -7481.1966 292.1288 -9180.3661 -7404.9313 303.5204 9.3015 63.1008 30170.6634 36.6709 103.4200
ENERGY: 900000 0.9595 2.6669 2.8884 0.0000 -10554.8193 1419.7341 0.0000 0.0000 1762.1938 -7366.3765 302.9642 -9128.5703 -7407.8742 302.4851 -223.6190 -86.2691 30378.0333 41.7767 105.2475
ENERGY: 1200000 1.9378 7.2495 4.4922 0.0000 -10586.2351 1406.2684 0.0000 0.0000 1761.3581 -7404.9291 302.8205 -9166.2872 -7410.2273 301.7535 -534.0405 -430.7561 30444.7851 -21.0162 43.5180
ENERGY: 1500000 1.8985 4.5346 3.1265 0.0000 -10608.9313 1393.4180 0.0000 0.0000 1800.9723 -7404.9813 309.6312 -9205.9536 -7412.3963 302.0597 -385.4395 -305.4859 29951.7713 -2.9573 59.7680
TCL: Running FEP window   6: Lambda1 0.25   Lambda2 0.3    [dLambda 0.04999999999999999]
TCL: Setting parameter firsttimestep to 0
TCL: Setting parameter alchLambda to 0.25
Info: NONBONDED TABLE R-SQUARED SPACING: 0.0625
Info: NONBONDED TABLE SIZE: 705 POINTS
TCL: Setting parameter alchLambda2 to 0.3
Info: NONBONDED TABLE R-SQUARED SPACING: 0.0625
Info: NONBONDED TABLE SIZE: 705 POINTS
TCL: Running for 1500000 steps
ETITLE: TS BOND ANGLE DIHED IMPRP ELECT VDW BOUNDARY MISC KINETIC TOTAL TEMP POTENTIAL TOTALAVG TEMPAVG PRESSURE GPRESSURE VOLUME PRESSAVG GPRESSAVG
ENERGY: 0 1.8985 4.5346 3.1265 0.0000 -10608.9314 1394.9824 0.0000 0.0000 1800.0910 -7404.2984 309.4797 -9204.3894 -7404.2984 309.4797 -377.4532 -291.1804 29951.7713 -377.4532 -291.1804
ENERGY: 300000 3.7285 4.6836 2.6469 0.0000 -10633.1496 1473.8221 0.0000 0.0000 1768.8464 -7379.4221 304.1080 -9148.2685 -7396.2705 304.3199 483.2970 513.6617 29914.2155 -109.8293 -41.0323
ENERGY: 600000 2.1356 2.2538 4.5301 0.0000 -10627.9636 1410.4593 0.0000 0.0000 1769.9304 -7438.6544 304.2943 -9208.5847 -7387.2278 302.5684 -231.7878 -233.3759 29824.9931 -192.0545 -129.0889
ENERGY: 900000 1.5797 3.2445 2.5842 0.0000 -10662.4579 1452.9570 0.0000 0.0000 1824.0798 -7378.0127 313.6039 -9202.0925 -7386.3642 304.2863 394.2001 373.3524 29922.6527 5.6683 54.7223
ENERGY: 1200000 2.1471 4.1978 3.9635 0.0000 -10655.7071 1481.0506 0.0000 0.0000 1764.9712 -7399.3769 303.4417 -9164.3482 -7386.3331 303.6688 809.0700 870.8703 29270.5409 20.6708 80.7545
ENERGY: 1500000 2.5509 1.8056 1.7464 0.0000 -10593.9128 1410.8836 0.0000 0.0000 1776.3713 -7400.5550 305.4017 -9176.9263 -7398.9711 303.4805 -60.3781 -20.2962 29802.0040 144.4028 197.0305
TCL: Running FEP window   7: Lambda1 0.3    Lambda2 0.35   [dLambda 0.04999999999999999]
TCL: Setting parameter firsttimestep to 0
TCL: Setting parameter alchLambda to 0.3
Info: NONBONDED TABLE R-SQUARED SPACING: 0.0625
Info: NONBONDED TABLE SIZE: 705 POINTS
TCL: Setting parameter alchLambda2 to 0.35
Info: NONBONDED TABLE R-SQUARED SPACING: 0.0625
Info: NONBONDED TABLE SIZE: 705 POINTS
TCL: Running for 1500000 steps
ETITLE: TS BOND ANGLE DIHED IMPRP ELECT VDW BOUNDARY MISC KINETIC TOTAL TEMP POTENTIAL TOTALAVG TEMPAVG PRESSURE GPRESSURE VOLUME PRESSAVG GPRESSAVG
ENERGY: 0 2.5509 1.8056 1.7464 0.0000 -10593.9124 1410.9425 0.0000 0.0000 1775.5173 -7401.3497 305.2548 -9176.8670 -7401.3497 305.2548 -86.4490 -16.5689 29802.0040 -86.4490 -16.5689
ENERGY: 300000 2.2832 1.5522 2.1858 0.0000 -10364.0180 1308.6999 0.0000 0.0000 1742.1626 -7307.1343 299.5204 -9049.2969 -7372.9557 300.6201 -799.3664 -765.4828 30550.5336 -279.6982 -217.0573
ENERGY: 600000 2.1683 5.2230 1.9705 0.0000 -10826.0430 1495.6703 0.0000 0.0000 1717.5022 -7603.5087 295.2806 -9321.0109 -7411.6844 300.5045 91.2074 185.0512 29439.9548 -89.6451 -17.4199
ENERGY: 900000 2.7064 5.0978 4.5372 0.0000 -10728.6155 1489.8406 0.0000 0.0000 1743.1835 -7483.2500 299.6959 -9226.4335 -7425.2173 299.1077 121.3025 133.4191 29924.8865 -130.0137 -53.8670
ENERGY: 1200000 1.6653 3.5414 5.4299 0.0000 -10685.9220 1511.0826 0.0000 0.0000 1729.4966 -7434.7061 297.3428 -9164.2027 -7428.1791 299.3688 738.5400 824.1501 29644.0830 -101.0131 -27.1565
ENERGY: 1500000 2.0986 3.3926 1.9947 0.0000 -10465.2790 1354.4313 0.0000 0.0000 1712.0950 -7391.2667 294.3510 -9103.3618 -7427.9363 299.2390 -637.9086 -600.9939 30454.4903 -124.7799 -54.7225
TCL: Running FEP window   8: Lambda1 0.35   Lambda2 0.39999999999999997 [dLambda 0.04999999999999999]
TCL: Setting parameter firsttimestep to 0
TCL: Setting parameter alchLambda to 0.35
Info: NONBONDED TABLE R-SQUARED SPACING: 0.0625
Info: NONBONDED TABLE SIZE: 705 POINTS
TCL: Setting parameter alchLambda2 to 0.39999999999999997
Info: NONBONDED TABLE R-SQUARED SPACING: 0.0625
Info: NONBONDED TABLE SIZE: 705 POINTS
TCL: Running for 1500000 steps
ETITLE: TS BOND ANGLE DIHED IMPRP ELECT VDW BOUNDARY MISC KINETIC TOTAL TEMP POTENTIAL TOTALAVG TEMPAVG PRESSURE GPRESSURE VOLUME PRESSAVG GPRESSAVG
ENERGY: 0 2.0986 3.3926 1.9947 0.0000 -10465.2793 1354.7016 0.0000 0.0000 1711.2131 -7391.8787 294.1994 -9103.0917 -7391.8787 294.1994 -667.4589 -597.2065 30454.4903 -667.4589 -597.2065
ENERGY: 300000 1.0914 7.1867 2.4021 0.0000 -10575.9796 1417.1341 0.0000 0.0000 1743.7253 -7404.4401 299.7890 -9148.1654 -7410.5598 300.2053 -136.7011 -73.5220 30013.4119 -25.4204 33.8075
ENERGY: 600000 3.1021 6.0268 3.7461 0.0000 -10593.7143 1412.5973 0.0000 0.0000 1759.3974 -7408.8447 302.4834 -9168.2421 -7397.0591 301.8559 -282.3494 -211.6975 30242.1460 -184.3766 -112.7116
ENERGY: 900000 0.1709 3.8116 2.7974 0.0000 -10482.9943 1346.8327 0.0000 0.0000 1745.2263 -7384.1554 300.0471 -9129.3817 -7408.1581 301.2358 -799.9784 -749.5685 30709.8583 -303.7628 -236.9154
ENERGY: 1200000 1.6702 3.2482 1.5632 0.0000 -10604.0210 1421.2864 0.0000 0.0000 1744.4177 -7431.8353 299.9081 -9176.2530 -7406.2332 301.1501 115.8276 189.0346 29657.0666 -299.5055 -228.7834
ENERGY: 1500000 2.0891 5.1471 1.5761 0.0000 -10505.1513 1405.6145 0.0000 0.0000 1765.7495 -7324.9751 303.5755 -9090.7246 -7396.9125 301.7432 91.1004 75.6820 30268.1617 -265.2590 -204.0644
TCL: Running FEP window   9: Lambda1 0.39999999999999997 Lambda2 0.44999999999999996 [dLambda 0.04999999999999999]
TCL: Setting parameter firsttimestep to 0
TCL: Setting parameter alchLambda to 0.39999999999999997
Info: NONBONDED TABLE R-SQUARED SPACING: 0.0625
Info: NONBONDED TABLE SIZE: 705 POINTS
TCL: Setting parameter alchLambda2 to 0.44999999999999996
Info: NONBONDED TABLE R-SQUARED SPACING: 0.0625
Info: NONBONDED TABLE SIZE: 705 POINTS
TCL: Running for 1500000 steps
ETITLE: TS BOND ANGLE DIHED IMPRP ELECT VDW BOUNDARY MISC KINETIC TOTAL TEMP POTENTIAL TOTALAVG TEMPAVG PRESSURE GPRESSURE VOLUME PRESSAVG GPRESSAVG
ENERGY: 0 2.0891 5.1471 1.5761 0.0000 -10505.1497 1405.2282 0.0000 0.0000 1764.8575 -7326.2517 303.4222 -9091.1093 -7326.2517 303.4222 -8.2328 79.2677 30268.1617 -8.2328 79.2677
ENERGY: 300000 0.8418 5.7227 2.8188 0.0000 -10539.7139 1404.9799 0.0000 0.0000 1752.6790 -7372.6717 301.3284 -9125.3507 -7402.8596 301.6137 -356.7597 -271.2485 30419.1032 193.0907 277.9541
ENERGY: 600000 1.4580 3.3347 2.6105 0.0000 -10592.0027 1399.9868 0.0000 0.0000 1719.2922 -7465.3205 295.5884 -9184.6126 -7390.6523 301.7363 -512.1910 -425.0720 30008.0239 72.5023 140.7927
ENERGY: 900000 1.0693 3.4966 2.0283 0.0000 -10461.0740 1330.5243 0.0000 0.0000 1735.6917 -7388.2639 298.4079 -9123.9556 -7395.9825 302.1992 -760.7030 -746.4080 30170.5179 -92.3599 -39.2231
ENERGY: 1200000 2.4289 4.1823 1.4299 0.0000 -10627.8932 1478.2876 0.0000 0.0000 1748.0135 -7393.5510 300.5263 -9141.5645 -7403.0051 302.6145 267.8511 287.3612 30385.8423 -16.3215 38.3897
ENERGY: 1500000 1.8044 4.4479 1.7985 0.0000 -10581.1858 1394.1260 0.0000 0.0000 1746.1106 -7432.8984 300.1991 -9179.0090 -7410.0750 302.0416 -505.8956 -386.3768 29967.0495 -13.6703 44.5055
TCL: Running FEP window  10: Lambda1 0.44999999999999996 Lambda2 0.49999999999999994 [dLambda 0.04999999999999999]
TCL: Setting parameter firsttimestep to 0
TCL: Setting parameter alchLambda to 0.44999999999999996
Info: NONBONDED TABLE R-SQUARED SPACING: 0.0625
Info: NONBONDED TABLE SIZE: 705 POINTS
TCL: Setting parameter alchLambda2 to 0.49999999999999994
Info: NONBONDED TABLE R-SQUARED SPACING: 0.0625
Info: NONBONDED TABLE SIZE: 705 POINTS
TCL: Running for 1500000 steps
ETITLE: TS BOND ANGLE DIHED IMPRP ELECT VDW BOUNDARY MISC KINETIC TOTAL TEMP POTENTIAL TOTALAVG TEMPAVG PRESSURE GPRESSURE VOLUME PRESSAVG GPRESSAVG
ENERGY: 0 1.8044 4.4479 1.7985 0.0000 -10581.1857 1394.1753 0.0000 0.0000 1745.2428 -7433.7169 300.0499 -9178.9597 -7433.7169 300.0499 -470.9029 -376.7251 29967.0495 -470.9029 -376.7251
ENERGY: 300000 1.2410 2.7400 1.7182 0.0000 -10607.2035 1450.8031 0.0000 0.0000 1748.9575 -7401.7438 300.6886 -9150.7012 -7426.1156 300.9151 160.7743 191.2673 30289.3685 -156.6288 -74.6278
ENERGY: 600000 3.6612 6.8119 1.6481 0.0000 -10528.5567 1380.7673 0.0000 0.0000 1742.2017 -7393.4665 299.5271 -9135.6683 -7429.6075 301.8971 -284.3983 -214.4731 30507.5546 -54.7635 24.4267
ENERGY: 900000 3.8214 9.2477 1.8765 0.0000 -10577.6022 1426.4104 0.0000 0.0000 1771.0638 -7365.1825 304.4892 -9136.2462 -7428.5701 300.9574 -156.3974 -131.8736 30526.1140 -67.8571 0.8899
ENERGY: 1200000 0.9087 9.2762 2.2521 0.0000 -10543.4995 1400.5065 0.0000 0.0000 1755.3982 -7375.1579 301.7959 -9130.5561 -7419.5331 300.3980 -82.5648 -50.9369 30033.1271 -92.2007 -32.0507
ENERGY: 1500000 3.2872 5.9760 3.2212 0.0000 -10624.8867 1408.0941 0.0000 0.0000 1747.3163 -7456.9920 300.4064 -9204.3083 -7424.5299 300.2237 -239.3112 -188.8630 29823.2073 -57.1677 4.1616
TCL: Running FEP window  11: Lambda1 0.49999999999999994 Lambda2 0.5499999999999999 [dLambda 0.04999999999999999]
TCL: Setting parameter firsttimestep to 0
TCL: Setting parameter alchLambda to 0.49999999999999994
Info: NONBONDED TABLE R-SQUARED SPACING: 0.0625
Info: NONBONDED TABLE SIZE: 705 POINTS
TCL: Setting parameter alchLambda2 to 0.5499999999999999
Info: NONBONDED TABLE R-SQUARED SPACING: 0.0625
Info: NONBONDED TABLE SIZE: 705 POINTS
TCL: Running for 1500000 steps
ETITLE: TS BOND ANGLE DIHED IMPRP ELECT VDW BOUNDARY MISC KINETIC TOTAL TEMP POTENTIAL TOTALAVG TEMPAVG PRESSURE GPRESSURE VOLUME PRESSAVG GPRESSAVG
ENERGY: 0 3.2872 5.9760 3.2212 0.0000 -10624.8834 1407.7229 0.0000 0.0000 1746.4668 -7458.2093 300.2604 -9204.6761 -7458.2093 300.2604 -273.6473 -184.2464 29823.2073 -273.6473 -184.2464
ENERGY: 300000 4.2291 3.0359 2.6993 0.0000 -10704.4522 1495.6655 0.0000 0.0000 1713.3917 -7485.4307 294.5739 -9198.8224 -7415.2595 297.3852 707.2113 800.3227 29444.6144 284.8934 370.1341
ENERGY: 600000 5.6028 4.9561 5.0697 0.0000 -10558.8764 1419.3250 0.0000 0.0000 1702.3238 -7421.5989 292.6711 -9123.9227 -7407.8460 296.6488 23.7900 71.0449 29904.5864 160.7962 228.4693
ENERGY: 900000 1.3111 5.0622 3.0618 0.0000 -10642.9631 1430.0666 0.0000 0.0000 1780.8892 -7422.5722 306.1784 -9203.4614 -7399.3871 298.5733 -174.6249 -161.9566 30218.4105 105.9222 167.2706
ENERGY: 1200000 3.8607 3.0298 4.7118 0.0000 -10572.2027 1403.5487 0.0000 0.0000 1751.0733 -7405.9784 301.0523 -9157.0517 -7406.3202 298.7126 -216.0147 -161.0748 30189.5586 55.6101 121.3136
ENERGY: 1500000 1.2457 5.2512 6.2350 0.0000 -10582.9220 1428.2949 0.0000 0.0000 1775.9936 -7365.9016 305.3367 -9141.8952 -7404.0396 299.6841 -150.3932 -70.1318 30572.9536 -32.0533 34.8358
TCL: Running FEP window  12: Lambda1 0.5499999999999999 Lambda2 0.6    [dLambda 0.050000000000000044]
TCL: Setting parameter firsttimestep to 0
TCL: Setting parameter alchLambda to 0.5499999999999999
Info: NONBONDED TABLE R-SQUARED SPACING: 0.0625
Info: NONBONDED TABLE SIZE: 705 POINTS
TCL: Setting parameter alchLambda2 to 0.6
Info: NONBONDED TABLE R-SQUARED SPACING: 0.0625
Info: NONBONDED TABLE SIZE: 705 POINTS
TCL: Running for 1500000 steps
ETITLE: TS BOND ANGLE DIHED IMPRP ELECT VDW BOUNDARY MISC KINETIC TOTAL TEMP POTENTIAL TOTALAVG TEMPAVG PRESSURE GPRESSURE VOLUME PRESSAVG GPRESSAVG
ENERGY: 0 1.2457 5.2512 6.2350 0.0000 -10582.6057 1427.7267 0.0000 0.0000 1775.1342 -7367.0128 305.1890 -9142.1470 -7367.0128 305.1890 -157.9276 -71.6877 30572.9536 -157.9276 -71.6877
ENERGY: 300000 2.5948 3.9712 5.8804 0.0000 -10560.5261 1412.1795 0.0000 0.0000 1790.4048 -7345.4955 307.8144 -9135.9003 -7366.4783 304.2154 -154.1820 -83.6425 30214.1136 113.0006 194.7977
ENERGY: 600000 2.0043 8.1938 4.2423 0.0000 -10566.6104 1363.6120 0.0000 0.0000 1801.4298 -7387.1282 309.7098 -9188.5580 -7372.6265 305.4831 -537.9219 -460.7267 30130.5727 -55.9072 19.3538
ENERGY: 900000 1.2195 6.2079 2.2397 0.0000 -10618.9475 1423.4513 0.0000 0.0000 1780.2115 -7405.6176 306.0619 -9185.8291 -7390.4654 303.3373 -106.0359 -9.6265 30127.9504 7.8755 79.0222
ENERGY: 1200000 5.5962 2.5222 4.3184 0.0000 -10589.1426 1416.6696 0.0000 0.0000 1740.3076 -7419.7287 299.2014 -9160.0363 -7398.5143 302.2637 -385.7375 -293.4526 30257.1351 -6.4804 65.6394
ENERGY: 1500000 1.2974 3.3810 3.3830 0.0000 -10520.7546 1380.3097 0.0000 0.0000 1741.4962 -7390.8874 299.4058 -9132.3836 -7406.3766 301.3279 -407.8471 -414.4722 30161.4219 35.4136 98.7769
TCL: Running FEP window  13: Lambda1 0.6    Lambda2 0.65   [dLambda 0.050000000000000044]
TCL: Setting parameter firsttimestep to 0
TCL: Setting parameter alchLambda to 0.6
Info: NONBONDED TABLE R-SQUARED SPACING: 0.0625
Info: NONBONDED TABLE SIZE: 705 POINTS
TCL: Setting parameter alchLambda2 to 0.65
Info: NONBONDED TABLE R-SQUARED SPACING: 0.0625
Info: NONBONDED TABLE SIZE: 705 POINTS
TCL: Running for 1500000 steps
ETITLE: TS BOND ANGLE DIHED IMPRP ELECT VDW BOUNDARY MISC KINETIC TOTAL TEMP POTENTIAL TOTALAVG TEMPAVG PRESSURE GPRESSURE VOLUME PRESSAVG GPRESSAVG
ENERGY: 0 1.2974 3.3810 3.3830 0.0000 -10521.0154 1379.9474 0.0000 0.0000 1740.5919 -7392.4148 299.2503 -9133.0067 -7392.4148 299.2503 -491.1998 -409.0893 30161.4219 -491.1998 -409.0893
ENERGY: 300000 2.9287 4.6224 1.7554 0.0000 -10697.0532 1475.0010 0.0000 0.0000 1708.5760 -7504.1695 293.7460 -9212.7456 -7392.6308 300.8757 234.6863 241.1824 29770.1884 79.7460 146.1794
ENERGY: 600000 1.1291 4.9754 2.6751 0.0000 -10556.1127 1345.9107 0.0000 0.0000 1737.7723 -7463.6500 298.7656 -9201.4223 -7416.6737 300.7975 -801.0060 -747.0036 30274.8644 -51.3233 13.8993
ENERGY: 900000 2.9303 3.9341 3.4558 0.0000 -10465.2243 1294.7530 0.0000 0.0000 1655.3614 -7504.7898 284.5971 -9160.1512 -7424.3376 299.4818 -1101.5244 -1076.4325 30283.3814 -171.1008 -113.9288
ENERGY: 1200000 1.3968 3.3529 2.0903 0.0000 -10653.1050 1504.9257 0.0000 0.0000 1793.5907 -7347.7485 308.3621 -9141.3392 -7432.7178 298.9883 708.4055 801.1225 29924.7984 -112.7434 -52.8324
ENERGY: 1500000 1.4319 3.6451 2.4013 0.0000 -10660.2108 1482.2093 0.0000 0.0000 1756.9964 -7413.5268 302.0706 -9170.5232 -7428.7129 299.7407 268.4811 361.2829 30204.2896 -32.8496 31.1810
TCL: Running FEP window  14: Lambda1 0.65   Lambda2 0.7000000000000001 [dLambda 0.050000000000000044]
TCL: Setting parameter firsttimestep to 0
TCL: Setting parameter alchLambda to 0.65
Info: NONBONDED TABLE R-SQUARED SPACING: 0.0625
Info: NONBONDED TABLE SIZE: 705 POINTS
TCL: Setting parameter alchLambda2 to 0.7000000000000001
Info: NONBONDED TABLE R-SQUARED SPACING: 0.0625
Info: NONBONDED TABLE SIZE: 705 POINTS
TCL: Running for 1500000 steps
ETITLE: TS BOND ANGLE DIHED IMPRP ELECT VDW BOUNDARY MISC KINETIC TOTAL TEMP POTENTIAL TOTALAVG TEMPAVG PRESSURE GPRESSURE VOLUME PRESSAVG GPRESSAVG
ENERGY: 0 1.4319 3.6451 2.4013 0.0000 -10661.1355 1482.6072 0.0000 0.0000 1756.1593 -7414.8907 301.9267 -9171.0501 -7414.8907 301.9267 282.8510 373.5255 30204.2896 282.8510 373.5255
ENERGY: 300000 1.5764 3.9320 6.9725 0.0000 -10592.1999 1453.7408 0.0000 0.0000 1728.5026 -7397.4755 297.1719 -9125.9781 -7430.2346 298.5657 285.5091 357.5941 30144.4437 128.4428 220.8031
ENERGY: 600000 1.3862 3.8493 2.5582 0.0000 -10537.7247 1414.2737 0.0000 0.0000 1761.7532 -7353.9041 302.8885 -9115.6573 -7409.0557 298.2160 -80.8095 0.0785 30206.9173 -39.7274 36.4182
ENERGY: 900000 1.5215 4.1171 5.2050 0.0000 -10678.3980 1493.1884 0.0000 0.0000 1776.4168 -7397.9492 305.4095 -9174.3660 -7410.1350 300.5717 522.9457 585.1737 30041.0271 -21.5479 55.3321
ENERGY: 1200000 1.8778 5.1847 2.2870 0.0000 -10876.5466 1553.0874 0.0000 0.0000 1771.4297 -7542.6799 304.5521 -9314.1096 -7423.0231 299.7605 783.1095 834.5565 29727.4360 -36.7707 29.8028
ENERGY: 1500000 3.8982 3.5743 2.7732 0.0000 -10549.2756 1420.4061 0.0000 0.0000 1730.8744 -7387.7494 297.5796 -9118.6238 -7419.5232 299.7436 -122.5199 -28.7434 30142.6156 -21.8992 45.9400
TCL: Running FEP window  15: Lambda1 0.7000000000000001 Lambda2 0.7500000000000001 [dLambda 0.050000000000000044]
TCL: Setting parameter firsttimestep to 0
TCL: Setting parameter alchLambda to 0.7000000000000001
Info: NONBONDED TABLE R-SQUARED SPACING: 0.0625
Info: NONBONDED TABLE SIZE: 705 POINTS
TCL: Setting parameter alchLambda2 to 0.7500000000000001
Info: NONBONDED TABLE R-SQUARED SPACING: 0.0625
Info: NONBONDED TABLE SIZE: 705 POINTS
TCL: Running for 1500000 steps
ETITLE: TS BOND ANGLE DIHED IMPRP ELECT VDW BOUNDARY MISC KINETIC TOTAL TEMP POTENTIAL TOTALAVG TEMPAVG PRESSURE GPRESSURE VOLUME PRESSAVG GPRESSAVG
ENERGY: 0 3.8982 3.5743 2.7732 0.0000 -10550.3052 1420.5187 0.0000 0.0000 1730.0277 -7389.5131 297.4341 -9119.5408 -7389.5131 297.4341 -105.2128 -21.8657 30142.6156 -105.2128 -21.8657
ENERGY: 300000 1.1364 3.1853 1.8522 0.0000 -10636.6634 1417.1112 0.0000 0.0000 1742.8761 -7470.5022 299.6430 -9213.3783 -7446.5087 298.0910 46.8793 124.6396 29878.5210 -242.6662 -171.3772
ENERGY: 600000 2.2991 6.4303 2.2580 0.0000 -10788.6012 1502.2284 0.0000 0.0000 1752.6899 -7522.6955 301.3303 -9275.3854 -7448.6039 299.6236 458.2862 525.9505 29675.2114 -152.4219 -88.5122
ENERGY: 900000 1.9220 5.2882 1.4888 0.0000 -10505.0450 1356.0936 0.0000 0.0000 1746.3626 -7393.8898 300.2424 -9140.2524 -7436.7082 300.3881 -603.7126 -576.7010 30488.1214 -253.7657 -198.8630
ENERGY: 1200000 0.7530 2.6549 6.8848 0.0000 -10494.7378 1401.7024 0.0000 0.0000 1778.6907 -7304.0521 305.8004 -9082.7428 -7434.9187 299.5211 100.5285 143.6136 30362.0636 -158.1180 -97.5135
ENERGY: 1500000 0.5302 4.8913 2.2559 0.0000 -10604.9562 1411.3850 0.0000 0.0000 1707.4685 -7478.4254 293.5556 -9185.8939 -7430.6070 299.2012 -134.4559 -30.7820 29923.8413 -169.8808 -118.5209
TCL: Running FEP window  16: Lambda1 0.7500000000000001 Lambda2 0.8000000000000002 [dLambda 0.050000000000000044]
TCL: Setting parameter firsttimestep to 0
TCL: Setting parameter alchLambda to 0.7500000000000001
Info: NONBONDED TABLE R-SQUARED SPACING: 0.0625
Info: NONBONDED TABLE SIZE: 705 POINTS
TCL: Setting parameter alchLambda2 to 0.8000000000000002
Info: NONBONDED TABLE R-SQUARED SPACING: 0.0625
Info: NONBONDED TABLE SIZE: 705 POINTS
TCL: Running for 1500000 steps
ETITLE: TS BOND ANGLE DIHED IMPRP ELECT VDW BOUNDARY MISC KINETIC TOTAL TEMP POTENTIAL TOTALAVG TEMPAVG PRESSURE GPRESSURE VOLUME PRESSAVG GPRESSAVG
ENERGY: 0 0.5302 4.8913 2.2559 0.0000 -10606.0268 1411.0849 0.0000 0.0000 1706.6004 -7480.6641 293.4064 -9187.2645 -7480.6641 293.4064 -109.2014 -27.0054 29923.8413 -109.2014 -27.0054
ENERGY: 300000 5.2651 1.8854 4.1739 0.0000 -10563.3748 1419.8453 0.0000 0.0000 1761.1874 -7371.0178 302.7912 -9132.2051 -7422.0304 299.6184 -63.1736 -8.7029 30033.0359 -73.1781 -3.4130
ENERGY: 600000 3.6603 2.2613 1.5767 0.0000 -10526.3599 1353.1220 0.0000 0.0000 1753.0491 -7412.6905 301.3920 -9165.7397 -7424.6651 299.5537 -529.0858 -468.5361 30078.6878 -187.8130 -114.8477
ENERGY: 900000 0.7968 3.8990 1.8976 0.0000 -10608.8932 1436.8972 0.0000 0.0000 1833.0965 -7332.3062 315.1541 -9165.4027 -7412.2297 302.0847 326.6589 375.7294 30089.9313 -171.2580 -107.6981
ENERGY: 1200000 0.7731 4.1393 3.4999 0.0000 -10593.3497 1476.7516 0.0000 0.0000 1824.6724 -7283.5135 313.7058 -9108.1859 -7404.1398 303.0437 508.8383 631.5372 30170.9394 -176.4468 -113.3080
ENERGY: 1500000 4.7227 4.1616 3.4998 0.0000 -10543.6416 1401.4528 0.0000 0.0000 1713.4966 -7416.3080 294.5920 -9129.8046 -7408.3647 302.8464 -118.9351 -82.2618 29987.4572 -104.2216 -45.4181
TCL: Running FEP window  17: Lambda1 0.8000000000000002 Lambda2 0.8500000000000002 [dLambda 0.050000000000000044]
TCL: Setting parameter firsttimestep to 0
TCL: Setting parameter alchLambda to 0.8000000000000002
Info: NONBONDED TABLE R-SQUARED SPACING: 0.0625
Info: NONBONDED TABLE SIZE: 705 POINTS
TCL: Setting parameter alchLambda2 to 0.8500000000000002
Info: NONBONDED TABLE R-SQUARED SPACING: 0.0625
Info: NONBONDED TABLE SIZE: 705 POINTS
TCL: Running for 1500000 steps
ETITLE: TS BOND ANGLE DIHED IMPRP ELECT VDW BOUNDARY MISC KINETIC TOTAL TEMP POTENTIAL TOTALAVG TEMPAVG PRESSURE GPRESSURE VOLUME PRESSAVG GPRESSAVG
ENERGY: 0 4.7227 4.1616 3.4998 0.0000 -10545.2878 1403.4682 0.0000 0.0000 1712.6292 -7416.8063 294.4428 -9129.4355 -7416.8063 294.4428 -137.0294 -53.3310 29987.4572 -137.0294 -53.3310
ENERGY: 300000 2.8739 3.9710 2.6010 0.0000 -10624.5653 1442.4078 0.0000 0.0000 1748.8822 -7423.8293 300.6756 -9172.7115 -7430.2950 298.0545 133.6929 196.3310 29890.6024 95.6738 168.4839
ENERGY: 600000 1.8239 2.9854 8.5277 0.0000 -10618.0034 1335.6478 0.0000 0.0000 1711.7391 -7557.2795 294.2898 -9269.0186 -7464.7393 296.9985 -839.4488 -735.5082 29750.8415 -25.1511 56.8960
ENERGY: 900000 3.2621 5.0548 4.0299 0.0000 -10679.3859 1384.3135 0.0000 0.0000 1706.6908 -7576.0348 293.4219 -9282.7256 -7468.1591 297.8820 -812.0772 -708.1401 30091.9502 -118.4668 -40.8190
ENERGY: 1200000 2.5513 5.6954 4.6112 0.0000 -10591.4956 1401.0242 0.0000 0.0000 1695.5187 -7482.0947 291.5011 -9177.6134 -7473.5574 296.6227 -427.8522 -390.4569 30304.4879 -155.3423 -85.7415
ENERGY: 1500000 3.8420 3.1185 4.3831 0.0000 -10443.1693 1363.5262 0.0000 0.0000 1774.0475 -7294.2520 305.0022 -9068.2995 -7458.9146 297.8510 -407.7318 -302.5154 30200.4436 -167.7129 -99.7305
TCL: Running FEP window  18: Lambda1 0.8500000000000002 Lambda2 0.9000000000000002 [dLambda 0.050000000000000044]
TCL: Setting parameter firsttimestep to 0
TCL: Setting parameter alchLambda to 0.8500000000000002
Info: NONBONDED TABLE R-SQUARED SPACING: 0.0625
Info: NONBONDED TABLE SIZE: 705 POINTS
TCL: Setting parameter alchLambda2 to 0.9000000000000002
Info: NONBONDED TABLE R-SQUARED SPACING: 0.0625
Info: NONBONDED TABLE SIZE: 705 POINTS
TCL: Running for 1500000 steps
ETITLE: TS BOND ANGLE DIHED IMPRP ELECT VDW BOUNDARY MISC KINETIC TOTAL TEMP POTENTIAL TOTALAVG TEMPAVG PRESSURE GPRESSURE VOLUME PRESSAVG GPRESSAVG
ENERGY: 0 3.8420 3.1185 4.3831 0.0000 -10444.8230 1363.4175 0.0000 0.0000 1773.1637 -7296.8982 304.8502 -9070.0619 -7296.8982 304.8502 -383.5436 -297.1145 30200.4436 -383.5436 -297.1145
ENERGY: 300000 2.8161 2.1173 5.6274 0.0000 -10625.7712 1414.8044 0.0000 0.0000 1764.5378 -7435.8682 303.3672 -9200.4060 -7416.6729 300.0285 -82.7335 7.5231 29947.4967 -400.0673 -309.1340
ENERGY: 600000 2.8850 4.0364 3.1599 0.0000 -10546.4434 1402.0922 0.0000 0.0000 1768.6563 -7365.6137 304.0753 -9134.2700 -7404.4974 300.7706 46.0581 82.4902 29987.2308 -122.0233 -42.8346
ENERGY: 900000 3.2789 5.2014 3.4658 0.0000 -10524.2853 1352.5884 0.0000 0.0000 1751.2595 -7408.4912 301.0843 -9159.7507 -7409.1984 300.2645 -680.8418 -655.8080 30381.9996 -220.7893 -150.0314
ENERGY: 1200000 1.1725 4.4433 6.0189 0.0000 -10637.4250 1460.8563 0.0000 0.0000 1731.6608 -7433.2733 297.7148 -9164.9341 -7416.3892 298.9130 205.6199 320.5941 30161.0226 -127.9870 -63.3041
ENERGY: 1500000 1.8323 3.3973 3.8998 0.0000 -10724.4967 1533.5515 0.0000 0.0000 1731.1203 -7450.6955 297.6219 -9181.8158 -7408.3215 300.0194 1038.8816 1182.8840 29629.8047 -60.6320 11.8953
TCL: Running FEP window  19: Lambda1 0.9000000000000002 Lambda2 0.9500000000000003 [dLambda 0.050000000000000044]
TCL: Setting parameter firsttimestep to 0
TCL: Setting parameter alchLambda to 0.9000000000000002
Info: NONBONDED TABLE R-SQUARED SPACING: 0.0625
Info: NONBONDED TABLE SIZE: 705 POINTS
TCL: Setting parameter alchLambda2 to 0.9500000000000003
Info: NONBONDED TABLE R-SQUARED SPACING: 0.0625
Info: NONBONDED TABLE SIZE: 705 POINTS
TCL: Running for 1500000 steps
ETITLE: TS BOND ANGLE DIHED IMPRP ELECT VDW BOUNDARY MISC KINETIC TOTAL TEMP POTENTIAL TOTALAVG TEMPAVG PRESSURE GPRESSURE VOLUME PRESSAVG GPRESSAVG
ENERGY: 0 1.8323 3.3973 3.8998 0.0000 -10726.4757 1534.0553 0.0000 0.0000 1730.2728 -7453.0182 297.4762 -9183.2911 -7453.0182 297.4762 1100.8512 1192.8945 29629.8047 1100.8512 1192.8945
ENERGY: 300000 1.3791 7.4329 3.7686 0.0000 -10699.9792 1482.5485 0.0000 0.0000 1720.2252 -7484.6251 295.7488 -9204.8503 -7459.9252 297.9525 93.3960 113.3602 30772.2000 566.1122 633.3106
ENERGY: 600000 3.2675 1.5879 2.2078 0.0000 -10674.3883 1479.5241 0.0000 0.0000 1783.5040 -7404.2969 306.6280 -9187.8010 -7436.4178 298.4925 138.6900 189.8581 30379.0525 268.5016 331.2195
ENERGY: 900000 1.6381 4.2374 5.2820 0.0000 -10485.4802 1359.6804 0.0000 0.0000 1709.0876 -7405.5548 293.8340 -9114.6424 -7449.9801 297.8760 -622.5564 -622.9610 30666.0004 61.8837 111.9117
ENERGY: 1200000 2.4460 7.2963 2.2617 0.0000 -10699.7839 1545.1465 0.0000 0.0000 1778.2410 -7364.3924 305.7231 -9142.6333 -7443.7272 298.2583 1425.3061 1500.6380 29371.0973 211.6697 261.5990
ENERGY: 1500000 0.5304 3.7328 3.5021 0.0000 -10608.3766 1396.3973 0.0000 0.0000 1742.6681 -7461.5459 299.6073 -9204.2140 -7441.4089 298.2441 -84.0569 69.6724 29651.7766 231.6896 290.9104
TCL: Running FEP window  20: Lambda1 0.9500000000000003 Lambda2 1.0    [dLambda 0.04999999999999971]
TCL: Setting parameter firsttimestep to 0
TCL: Setting parameter alchLambda to 0.9500000000000003
Info: NONBONDED TABLE R-SQUARED SPACING: 0.0625
Info: NONBONDED TABLE SIZE: 705 POINTS
TCL: Setting parameter alchLambda2 to 1.0
Info: NONBONDED TABLE R-SQUARED SPACING: 0.0625
Info: NONBONDED TABLE SIZE: 705 POINTS
TCL: Running for 1500000 steps
ETITLE: TS BOND ANGLE DIHED IMPRP ELECT VDW BOUNDARY MISC KINETIC TOTAL TEMP POTENTIAL TOTALAVG TEMPAVG PRESSURE GPRESSURE VOLUME PRESSAVG GPRESSAVG
ENERGY: 0 0.5304 3.7328 3.5021 0.0000 -10610.6500 1398.6830 0.0000 0.0000 1741.8157 -7462.3859 299.4607 -9204.2017 -7462.3859 299.4607 20.7564 102.2796 29651.7766 20.7564 102.2796
ENERGY: 300000 1.6213 4.1076 3.5273 0.0000 -10768.9768 1531.7326 0.0000 0.0000 1726.6720 -7501.3160 296.8572 -9227.9880 -7427.5150 300.2143 688.7595 725.6143 30111.1148 351.8086 401.8619
ENERGY: 600000 3.4780 2.7874 2.5012 0.0000 -10644.7906 1460.7144 0.0000 0.0000 1787.3021 -7388.0075 307.2810 -9175.3096 -7423.6111 300.0910 181.4862 283.5936 30412.8300 185.4902 242.9968
ENERGY: 900000 1.5130 5.1424 4.5722 0.0000 -10540.1455 1389.5874 0.0000 0.0000 1738.1208 -7401.2097 298.8255 -9139.3305 -7431.9044 299.3539 -197.2561 -165.8770 30197.3094 107.3486 169.8960
ENERGY: 1200000 3.5746 4.9839 1.8909 0.0000 -10753.9139 1461.2945 0.0000 0.0000 1734.1490 -7548.0209 298.1426 -9282.1699 -7445.9088 299.6462 23.6625 108.9612 29966.5934 51.1815 113.1306
ENERGY: 1500000 2.0599 9.8359 7.0890 0.0000 -10788.3650 1518.0065 0.0000 0.0000 1847.6310 -7403.7427 317.6530 -9251.3738 -7441.1289 300.7446 698.1992 738.5910 29905.7686 169.6244 232.3458
TCL: Exiting due to exit command.
