Info: SIMULATION PARAMETERS:
Info: TIMESTEP               2
Info: NUMBER OF STEPS        0
Info: STEPS PER CYCLE        10
Info: PERIODIC CELL BASIS 1  30.9298 0 0
Info: PERIODIC CELL BASIS 2  0 30.1466 0
Info: PERIODIC CELL BASIS 3  0 0 32.3417
Info: PERIODIC CELL CENTER   0 0 0
Info: WRAPPING WATERS AROUND PERIODIC BOUNDARIES ON OUTPUT.
Info: WRAPPING ALL CLUSTERS AROUND PERIODIC BOUNDARIES ON OUTPUT.
Info: FIRST LDB TIMESTEP     50
Info: LAST LDB TIMESTEP     -1
Info: HOM BACKGROUND SCALING 1
Info: PME BACKGROUND SCALING 1
Info: MIN ATOMS PER PATCH    40
Info: EMPTY PATCH LOAD       40 ATOMS
Info: VELOCITY FILE          mobley_9028462_equil.vel
Info: CENTER OF MASS MOVING INITIALLY? NO
Info: DIELECTRIC             1
Info: EXCLUDE                SCALED ONE-FOUR
Info: 1-4 ELECTROSTATICS SCALED BY 0.833333
Info: MODIFIED 1-4 VDW PARAMETERS WILL BE USED
Info: DCD FILENAME           mobley_9028462_prod.dcd
Info: DCD FREQUENCY          100000
Info: DCD FIRST STEP         100000
Info: DCD FILE WILL CONTAIN UNIT CELL DATA
Info: XST FILENAME           mobley_9028462_prod.xst
Info: XST FREQUENCY          100000
Info: NO VELOCITY DCD OUTPUT
Info: NO FORCE DCD OUTPUT
Info: OUTPUT FILENAME        mobley_9028462_prod
Info: BINARY OUTPUT FILES WILL BE USED
Info: RESTART FILENAME       mobley_9028462_prod.restart
Info: RESTART FREQUENCY      100000
Info: BINARY RESTART FILES WILL BE USED
Info: CUTOFF                 9
Info: PAIRLIST DISTANCE      11
Info: PAIRLIST SHRINK RATE   0.01
Info: PAIRLIST GROW RATE     0.01
Info: PAIRLIST TRIGGER       0.3
Info: PAIRLISTS PER CYCLE    2
Info: PAIRLISTS ENABLED
Info: MARGIN                 2
Info: HYDROGEN GROUP CUTOFF  2.5
Info: PATCH DIMENSION        15.5
Info: ENERGY OUTPUT STEPS    100000
Info: ENERGY EVALUATION STEPS    100000
Info: OUTPUT ENERGY PRECISION 4
Info: CROSSTERM ENERGY INCLUDED IN DIHEDRAL
Info: TIMING OUTPUT STEPS    1000000
Info: PRESSURE OUTPUT STEPS  100000
Info: ALCHEMICAL FEP ON
Info: FEP CURRENT LAMBDA VALUE     0
Info: FEP COMPARISON LAMBDA VALUE  0.05
Info: FEP INTRA-ALCHEMICAL NON-BONDED INTERACTIONS WILL BE RETAINED
Info: FEP INTRA-ALCHEMICAL BONDED INTERACTIONS WILL BE RETAINED
Info: FEP VDW SHIFTING COEFFICIENT 5
Info: FEP ELEC. ACTIVE FOR ANNIHILATED PARTICLES BETWEEN LAMBDA = 0 AND LAMBDA = 0.5
Info: FEP ELEC. ACTIVE FOR EXNIHILATED PARTICLES BETWEEN LAMBDA = 0.5 AND LAMBDA = 1
Info: FEP VDW ACTIVE FOR ANNIHILATED PARTICLES BETWEEN LAMBDA = 0 AND LAMBDA = 1
Info: FEP VDW ACTIVE FOR EXNIHILATED PARTICLES BETWEEN LAMBDA = 0 AND LAMBDA = 1
Info: FEP BOND ACTIVE FOR ANNIHILATED PARTICLES BETWEEN LAMBDA = 1 AND LAMBDA = 1
Info: FEP BOND ACTIVE FOR EXNIHILATED PARTICLES BETWEEN LAMBDA = 0 AND LAMBDA = 0
Info: LANGEVIN DYNAMICS ACTIVE
Info: LANGEVIN TEMPERATURE   300
Info: LANGEVIN USING BBK INTEGRATOR
Info: LANGEVIN DAMPING COEFFICIENT IS 1 INVERSE PS
Info: LANGEVIN DYNAMICS APPLIED TO HYDROGENS
Info: LANGEVIN PISTON PRESSURE CONTROL ACTIVE
Info:        TARGET PRESSURE IS 1.01325 BAR
Info:     OSCILLATION PERIOD IS 50 FS
Info:             DECAY TIME IS 25 FS
Info:     PISTON TEMPERATURE IS 300 K
Info:       PRESSURE CONTROL IS GROUP-BASED
Info:    INITIAL STRAIN RATE IS -0.000114794 -0.000114794 -0.000114794
Info:       CELL FLUCTUATION IS ISOTROPIC
Info: PARTICLE MESH EWALD (PME) ACTIVE
Info: PME TOLERANCE               1e-06
Info: PME EWALD COEFFICIENT       0.348832
Info: PME INTERPOLATION ORDER     4
Info: PME GRID DIMENSIONS         32 32 36
Info: PME MAXIMUM GRID SPACING    1
Info: PME CALCULATION WILL BE PERFORMED ON GPU
Info: FULL ELECTROSTATIC EVALUATION FREQUENCY      2
Info: USING VERLET I (r-RESPA) MTS SCHEME.
Info: C1 SPLITTING OF LONG RANGE ELECTROSTATICS
Info: PLACING ATOMS IN PATCHES BY HYDROGEN GROUPS
Info: RIGID BONDS TO HYDROGEN : ALL
Info:         ERROR TOLERANCE : 1e-08
Info:          MAX ITERATIONS : 100
Info: RIGID WATER USING SETTLE ALGORITHM
Info: RANDOM NUMBER SEED     1743516067
Info: USE HYDROGEN BONDS?    NO
Info: Using AMBER format force field!
Info: AMBER PARM FILE        mobley_9028462.prmtop
Info: COORDINATE PDB         mobley_9028462.pdb
Info: Exclusions will be read from PARM file!
Info: SCNB (VDW SCALING)     2
Info: USING ARITHMETIC MEAN TO COMBINE L-J SIGMA PARAMETERS
Info: BINARY COORDINATES     mobley_9028462_equil.coor
Info: SUMMARY OF PARAMETERS:
Info: 8 BONDS
Info: 8 ANGLES
Info:   8 HARMONIC
Info:   0 COSINE-BASED
Info: 7 DIHEDRAL
Info: 0 IMPROPER
Info: 0 CROSSTERM
Info: 0 VDW
Info: 36 VDW_PAIRS
Info: 0 NBTHOLE_PAIRS
Info: To read alchdata from file: mobley_9028462.pdb
Info: To read alchflag data from column: 5
Info: STRUCTURE SUMMARY:
Info: 2924 ATOMS
Info: 2923 BONDS
Info: 16 ANGLES
Info: 15 DIHEDRALS
Info: 0 IMPROPERS
Info: 0 CROSSTERMS
Info: 2950 EXCLUSIONS
Info: 2916 RIGID BONDS
Info: ALCH: 0 ATOMS TO DISAPPEAR IN FINAL STATE
Info: ALCH: 11 ATOMS TO APPEAR IN FINAL STATE
Info: 5856 DEGREES OF FREEDOM
Info: 979 HYDROGEN GROUPS
Info: 4 ATOMS IN LARGEST HYDROGEN GROUP
Info: 979 MIGRATION GROUPS
Info: 4 ATOMS IN LARGEST MIGRATION GROUP
Info: TOTAL MASS = 17621.6 amu
Info: TOTAL CHARGE = -8.9407e-08 e
Info: MASS DENSITY = 0.970344 g/cm^3
Info: ATOM DENSITY = 0.0969614 atoms/A^3
Info: ADDED 0 IMPLICIT EXCLUSIONS
Info: NONBONDED TABLE R-SQUARED SPACING: 0.0625
Info: NONBONDED TABLE SIZE: 705 POINTS
Info: REMOVING COM VELOCITY -0.00539963 -0.0733642 -0.204732
Info: Use 3D box decompostion in PME FFT.
Info: Updated CUDA force table with 4096 elements.
Info: Updated CUDA LJ table with 8 x 8 elements.
Info: Found 14 unique exclusion lists needing 20 bytes
TCL: Running for 1500000 steps
ETITLE: TS BOND ANGLE DIHED IMPRP ELECT VDW BOUNDARY MISC KINETIC TOTAL TEMP POTENTIAL TOTALAVG TEMPAVG PRESSURE GPRESSURE VOLUME PRESSAVG GPRESSAVG
ENERGY: 0 0.9389 4.8656 1.1935 0.0000 -10505.7813 1403.2192 0.0000 0.0000 1669.1951 -7426.3690 286.8775 -9095.5642 -7426.3690 286.8775 14.4976 97.9731 30156.3317 14.4976 97.9731
ENERGY: 300000 4.2721 8.6496 0.3539 0.0000 -10661.6426 1442.7212 0.0000 0.0000 1697.5334 -7508.1124 291.7478 -9205.6458 -7437.7563 293.3430 -146.4691 -65.9865 29724.5788 -186.8931 -118.6268
ENERGY: 600000 1.4848 2.3857 0.3517 0.0000 -10652.2262 1480.9625 0.0000 0.0000 1715.9300 -7451.1114 294.9096 -9167.0415 -7403.6781 296.1167 652.0805 721.6302 29508.2091 83.7691 153.6887
ENERGY: 900000 1.9520 4.3792 0.3132 0.0000 -10619.6841 1517.0793 0.0000 0.0000 1833.5888 -7262.3715 315.1311 -9095.9604 -7376.5731 300.2089 1078.7995 1079.8369 29600.4361 157.6009 216.2598
ENERGY: 1200000 1.3517 6.5943 0.3204 0.0000 -10620.9680 1391.4707 0.0000 0.0000 1765.7843 -7455.4467 303.4778 -9221.2310 -7383.1892 300.9168 -540.4947 -488.5363 29827.5058 -46.7149 10.0552
ENERGY: 1500000 2.7371 5.5057 2.8817 0.0000 -10633.1731 1464.4288 0.0000 0.0000 1734.7779 -7422.8419 298.1489 -9157.6198 -7380.8734 300.9809 430.8103 469.6736 29816.6406 54.1126 108.4266
TCL: Running FEP window   2: Lambda1 0.05   Lambda2 0.1    [dLambda 0.05  ]
TCL: Setting parameter firsttimestep to 0
TCL: Setting parameter alchLambda to 0.05
Info: NONBONDED TABLE R-SQUARED SPACING: 0.0625
Info: NONBONDED TABLE SIZE: 705 POINTS
TCL: Setting parameter alchLambda2 to 0.1
Info: NONBONDED TABLE R-SQUARED SPACING: 0.0625
Info: NONBONDED TABLE SIZE: 705 POINTS
TCL: Running for 1500000 steps
ETITLE: TS BOND ANGLE DIHED IMPRP ELECT VDW BOUNDARY MISC KINETIC TOTAL TEMP POTENTIAL TOTALAVG TEMPAVG PRESSURE GPRESSURE VOLUME PRESSAVG GPRESSAVG
ENERGY: 0 2.7371 5.5057 2.8817 0.0000 -10633.1719 1464.2411 0.0000 0.0000 1733.8969 -7423.9094 297.9975 -9157.8063 -7423.9094 297.9975 384.6141 471.0404 29816.6406 384.6141 471.0404
ENERGY: 300000 2.4946 4.7990 0.6038 0.0000 -10544.0769 1407.6517 0.0000 0.0000 1734.8403 -7393.6874 298.1596 -9128.5278 -7366.7057 302.5423 -414.3321 -306.5319 29962.9232 78.5507 166.4855
ENERGY: 600000 4.6760 3.9394 0.3681 0.0000 -10463.5570 1376.7337 0.0000 0.0000 1745.0114 -7332.8285 299.9077 -9077.8398 -7365.0386 301.9197 -574.6116 -486.1165 30382.0138 -127.3679 -45.3927
ENERGY: 900000 3.8746 3.9745 0.4552 0.0000 -10555.8528 1437.7159 0.0000 0.0000 1742.0585 -7367.7742 299.4002 -9109.8327 -7363.7524 300.5322 351.1344 396.4865 29713.4380 -63.3229 3.1834
ENERGY: 1200000 4.5155 9.1895 1.5417 0.0000 -10555.3282 1408.8791 0.0000 0.0000 1750.2853 -7380.9172 300.8141 -9131.2025 -7367.0050 300.9709 -173.6513 -88.3431 29945.9473 -37.8573 23.3128
ENERGY: 1500000 4.3145 3.1373 1.3144 0.0000 -10517.3707 1432.0832 0.0000 0.0000 1696.8986 -7379.6228 291.6387 -9076.5214 -7371.5560 300.2924 140.5440 188.9565 30008.2412 -39.6846 24.9714
TCL: Running FEP window   3: Lambda1 0.1    Lambda2 0.15000000000000002 [dLambda 0.05000000000000002]
TCL: Setting parameter firsttimestep to 0
TCL: Setting parameter alchLambda to 0.1
Info: NONBONDED TABLE R-SQUARED SPACING: 0.0625
Info: NONBONDED TABLE SIZE: 705 POINTS
TCL: Setting parameter alchLambda2 to 0.15000000000000002
Info: NONBONDED TABLE R-SQUARED SPACING: 0.0625
Info: NONBONDED TABLE SIZE: 705 POINTS
TCL: Running for 1500000 steps
ETITLE: TS BOND ANGLE DIHED IMPRP ELECT VDW BOUNDARY MISC KINETIC TOTAL TEMP POTENTIAL TOTALAVG TEMPAVG PRESSURE GPRESSURE VOLUME PRESSAVG GPRESSAVG
ENERGY: 0 4.3145 3.1373 1.3144 0.0000 -10517.3722 1432.2197 0.0000 0.0000 1696.0013 -7380.3850 291.4845 -9076.3863 -7380.3850 291.4845 104.6103 191.6831 30008.2412 104.6103 191.6831
ENERGY: 300000 3.0193 4.0531 1.2138 0.0000 -10527.2012 1338.2594 0.0000 0.0000 1773.6592 -7406.9963 304.8313 -9180.6555 -7394.9820 297.1074 -1042.9795 -916.4907 30097.4626 -233.7677 -167.3031
ENERGY: 600000 2.1834 5.0477 1.0350 0.0000 -10542.5295 1415.7563 0.0000 0.0000 1788.5793 -7329.9279 307.3955 -9118.5072 -7376.7339 299.1760 336.8487 416.2954 29384.6488 -13.5812 51.5875
ENERGY: 900000 2.2689 3.2280 0.4092 0.0000 -10624.2621 1490.6812 0.0000 0.0000 1723.1978 -7404.4770 296.1587 -9127.6748 -7375.4804 298.3824 335.3796 386.1320 30035.3099 -42.8850 19.1280
ENERGY: 1200000 1.1926 4.7121 1.1465 0.0000 -10633.2424 1533.8539 0.0000 0.0000 1763.8930 -7328.4443 303.1528 -9092.3373 -7371.3077 298.4289 1133.7056 1183.2107 29787.5645 48.2854 108.3859
ENERGY: 1500000 2.0436 4.3450 1.1861 0.0000 -10554.8834 1451.2651 0.0000 0.0000 1725.3746 -7370.6689 296.5328 -9096.0435 -7379.7290 297.8829 222.9408 252.3627 29778.7157 -17.9124 40.9577
TCL: Running FEP window   4: Lambda1 0.15000000000000002 Lambda2 0.2    [dLambda 0.04999999999999999]
TCL: Setting parameter firsttimestep to 0
TCL: Setting parameter alchLambda to 0.15000000000000002
Info: NONBONDED TABLE R-SQUARED SPACING: 0.0625
Info: NONBONDED TABLE SIZE: 705 POINTS
TCL: Setting parameter alchLambda2 to 0.2
Info: NONBONDED TABLE R-SQUARED SPACING: 0.0625
Info: NONBONDED TABLE SIZE: 705 POINTS
TCL: Running for 1500000 steps
ETITLE: TS BOND ANGLE DIHED IMPRP ELECT VDW BOUNDARY MISC KINETIC TOTAL TEMP POTENTIAL TOTALAVG TEMPAVG PRESSURE GPRESSURE VOLUME PRESSAVG GPRESSAVG
ENERGY: 0 2.0436 4.3450 1.1861 0.0000 -10554.8834 1453.3438 0.0000 0.0000 1724.5113 -7369.4535 296.3844 -9093.9648 -7369.4535 296.3844 174.5140 262.2042 29778.7157 174.5140 262.2042
ENERGY: 300000 1.4125 2.4480 1.0716 0.0000 -10707.8102 1478.5466 0.0000 0.0000 1773.4179 -7450.9135 304.7898 -9224.3314 -7381.2936 300.8372 149.4627 192.8500 29752.5882 -13.4784 63.1864
ENERGY: 600000 1.3342 4.8312 0.3782 0.0000 -10552.8991 1445.7901 0.0000 0.0000 1727.0819 -7373.4835 296.8262 -9100.5654 -7392.4267 299.2687 200.9807 235.0499 30123.2075 120.1921 179.3150
ENERGY: 900000 1.0106 4.8043 1.2322 0.0000 -10561.8406 1378.1328 0.0000 0.0000 1787.9348 -7388.7258 307.2847 -9176.6607 -7384.3049 299.8994 -606.9938 -566.8529 30500.3809 72.1139 138.2259
ENERGY: 1200000 4.5468 5.7553 1.1781 0.0000 -10624.1104 1478.9633 0.0000 0.0000 1736.6800 -7396.9869 298.4758 -9133.6668 -7380.8639 299.7695 436.8547 526.4703 29530.5268 67.1471 130.6035
ENERGY: 1500000 2.7459 5.1338 0.0374 0.0000 -10407.6079 1358.3236 0.0000 0.0000 1704.2141 -7337.1532 292.8960 -9041.3673 -7378.4767 300.4139 -358.6171 -276.9632 30079.4389 87.2819 154.8534
TCL: Running FEP window   5: Lambda1 0.2    Lambda2 0.25   [dLambda 0.04999999999999999]
TCL: Setting parameter firsttimestep to 0
TCL: Setting parameter alchLambda to 0.2
Info: NONBONDED TABLE R-SQUARED SPACING: 0.0625
Info: NONBONDED TABLE SIZE: 705 POINTS
TCL: Setting parameter alchLambda2 to 0.25
Info: NONBONDED TABLE R-SQUARED SPACING: 0.0625
Info: NONBONDED TABLE SIZE: 705 POINTS
TCL: Running for 1500000 steps
ETITLE: TS BOND ANGLE DIHED IMPRP ELECT VDW BOUNDARY MISC KINETIC TOTAL TEMP POTENTIAL TOTALAVG TEMPAVG PRESSURE GPRESSURE VOLUME PRESSAVG GPRESSAVG
ENERGY: 0 2.7459 5.1338 0.0374 0.0000 -10407.6090 1358.1673 0.0000 0.0000 1703.3566 -7338.1680 292.7487 -9041.5246 -7338.1680 292.7487 -365.9386 -273.8902 30079.4389 -365.9386 -273.8902
ENERGY: 300000 0.6525 3.6392 0.5790 0.0000 -10665.2684 1485.7642 0.0000 0.0000 1765.1524 -7409.4812 303.3692 -9174.6335 -7407.1949 297.9278 522.0652 549.3593 29847.2217 -57.2784 5.4001
ENERGY: 600000 3.1429 6.2747 0.3835 0.0000 -10393.6999 1310.1032 0.0000 0.0000 1715.2617 -7358.5338 294.7947 -9073.7955 -7381.3251 298.9450 -807.2408 -748.9902 30083.0114 -94.4233 -36.6818
ENERGY: 900000 4.8499 5.9672 0.5208 0.0000 -10417.9629 1351.8868 0.0000 0.0000 1730.8955 -7323.8428 297.4816 -9054.7383 -7381.0258 298.3596 -680.0224 -620.1870 30512.6717 -74.1391 -14.8885
ENERGY: 1200000 5.3242 2.3061 0.8417 0.0000 -10748.1818 1507.5577 0.0000 0.0000 1789.5145 -7442.6376 307.5562 -9232.1521 -7394.1060 298.4291 403.6307 503.2037 29891.8595 -114.0763 -55.8690
ENERGY: 1500000 1.5050 2.7938 1.0359 0.0000 -10678.7691 1559.1907 0.0000 0.0000 1728.0477 -7386.1958 296.9922 -9114.2436 -7396.1353 297.6900 1103.7730 1175.7077 29806.4016 -31.3199 22.4559
TCL: Running FEP window   6: Lambda1 0.25   Lambda2 0.3    [dLambda 0.04999999999999999]
TCL: Setting parameter firsttimestep to 0
TCL: Setting parameter alchLambda to 0.25
Info: NONBONDED TABLE R-SQUARED SPACING: 0.0625
Info: NONBONDED TABLE SIZE: 705 POINTS
TCL: Setting parameter alchLambda2 to 0.3
Info: NONBONDED TABLE R-SQUARED SPACING: 0.0625
Info: NONBONDED TABLE SIZE: 705 POINTS
TCL: Running for 1500000 steps
ETITLE: TS BOND ANGLE DIHED IMPRP ELECT VDW BOUNDARY MISC KINETIC TOTAL TEMP POTENTIAL TOTALAVG TEMPAVG PRESSURE GPRESSURE VOLUME PRESSAVG GPRESSAVG
ENERGY: 0 1.5050 2.7938 1.0359 0.0000 -10678.7693 1559.6474 0.0000 0.0000 1727.1697 -7386.6175 296.8413 -9113.7872 -7386.6175 296.8413 1095.7743 1181.2039 29806.4016 1095.7743 1181.2039
ENERGY: 300000 3.7171 1.4002 0.5547 0.0000 -10495.7078 1392.0203 0.0000 0.0000 1726.0703 -7371.9452 296.6524 -9098.0155 -7397.9176 297.7259 -438.6948 -348.7877 30128.9124 277.6457 351.2128
ENERGY: 600000 2.0419 3.7360 0.0845 0.0000 -10498.2982 1380.9235 0.0000 0.0000 1734.6548 -7376.8575 298.1277 -9111.5124 -7387.0462 297.6945 -409.6315 -353.3791 30017.2917 112.8053 176.0064
ENERGY: 900000 1.5224 4.9486 0.8851 0.0000 -10495.1114 1365.9461 0.0000 0.0000 1756.1818 -7365.6274 301.8275 -9121.8092 -7382.2328 299.1174 -543.7317 -510.9087 30224.5422 -61.0149 -5.9713
ENERGY: 1200000 0.1526 4.3008 0.1218 0.0000 -10571.7876 1444.2414 0.0000 0.0000 1731.7174 -7391.2535 297.6229 -9122.9709 -7383.8115 298.1647 277.9915 345.8950 29711.3074 4.8723 70.7095
ENERGY: 1500000 4.2500 5.5672 0.7639 0.0000 -10570.6101 1453.5269 0.0000 0.0000 1754.6488 -7351.8534 301.5640 -9106.5022 -7384.4964 297.8137 -5.4536 24.6048 30373.4989 63.4280 121.6756
TCL: Running FEP window   7: Lambda1 0.3    Lambda2 0.35   [dLambda 0.04999999999999999]
TCL: Setting parameter firsttimestep to 0
TCL: Setting parameter alchLambda to 0.3
Info: NONBONDED TABLE R-SQUARED SPACING: 0.0625
Info: NONBONDED TABLE SIZE: 705 POINTS
TCL: Setting parameter alchLambda2 to 0.35
Info: NONBONDED TABLE R-SQUARED SPACING: 0.0625
Info: NONBONDED TABLE SIZE: 705 POINTS
TCL: Running for 1500000 steps
ETITLE: TS BOND ANGLE DIHED IMPRP ELECT VDW BOUNDARY MISC KINETIC TOTAL TEMP POTENTIAL TOTALAVG TEMPAVG PRESSURE GPRESSURE VOLUME PRESSAVG GPRESSAVG
ENERGY: 0 4.2500 5.5671 0.7639 0.0000 -10570.6089 1453.7773 0.0000 0.0000 1753.8197 -7352.4309 301.4215 -9106.2506 -7352.4309 301.4215 -53.2146 29.7449 30373.4989 -53.2146 29.7449
ENERGY: 300000 1.4625 5.6575 0.5510 0.0000 -10585.1404 1393.2756 0.0000 0.0000 1735.5829 -7448.6108 298.2872 -9184.1937 -7433.9368 300.8797 -626.3088 -534.5709 30309.0888 -200.1509 -133.1435
ENERGY: 600000 0.6340 4.4671 1.3714 0.0000 -10583.9496 1471.2988 0.0000 0.0000 1733.4127 -7372.7656 297.9143 -9106.1783 -7399.7062 301.2279 634.1722 679.7834 29636.9078 -263.1982 -199.2083
ENERGY: 900000 2.7080 2.3838 0.1887 0.0000 -10436.9345 1343.6342 0.0000 0.0000 1763.4765 -7324.5434 303.0812 -9088.0199 -7390.0048 301.4198 -587.3257 -560.2250 30037.0473 -209.8593 -148.1241
ENERGY: 1200000 0.8782 5.9321 0.6519 0.0000 -10488.4819 1412.2147 0.0000 0.0000 1749.5641 -7319.2409 300.6901 -9068.8050 -7376.8683 301.3726 271.4301 318.2451 29599.2533 -163.2684 -104.3333
ENERGY: 1500000 1.4912 4.4143 1.0903 0.0000 -10438.6840 1313.3715 0.0000 0.0000 1726.2412 -7392.0755 296.6817 -9118.3167 -7380.1968 301.4728 -979.9631 -910.4437 30143.3355 -156.6977 -100.2183
TCL: Running FEP window   8: Lambda1 0.35   Lambda2 0.39999999999999997 [dLambda 0.04999999999999999]
TCL: Setting parameter firsttimestep to 0
TCL: Setting parameter alchLambda to 0.35
Info: NONBONDED TABLE R-SQUARED SPACING: 0.0625
Info: NONBONDED TABLE SIZE: 705 POINTS
TCL: Setting parameter alchLambda2 to 0.39999999999999997
Info: NONBONDED TABLE R-SQUARED SPACING: 0.0625
Info: NONBONDED TABLE SIZE: 705 POINTS
TCL: Running for 1500000 steps
ETITLE: TS BOND ANGLE DIHED IMPRP ELECT VDW BOUNDARY MISC KINETIC TOTAL TEMP POTENTIAL TOTALAVG TEMPAVG PRESSURE GPRESSURE VOLUME PRESSAVG GPRESSAVG
ENERGY: 0 1.4912 4.4143 1.0903 0.0000 -10438.6828 1313.4420 0.0000 0.0000 1725.3733 -7392.8717 296.5326 -9118.2449 -7392.8717 296.5326 -982.5392 -907.5367 30143.3355 -982.5392 -907.5367
ENERGY: 300000 1.3183 2.2758 0.9673 0.0000 -10438.0772 1382.7915 0.0000 0.0000 1731.8367 -7318.8876 297.6434 -9050.7243 -7352.9508 299.9134 -229.4031 -221.2382 30441.5858 -446.3293 -401.9892
ENERGY: 600000 3.1696 4.3595 0.8389 0.0000 -10613.5586 1454.0799 0.0000 0.0000 1727.2984 -7423.8123 296.8634 -9151.1107 -7369.5600 299.0610 67.4696 58.9943 30210.6407 -480.7260 -434.7393
ENERGY: 900000 1.8555 2.6980 0.8270 0.0000 -10470.8879 1412.3413 0.0000 0.0000 1761.5340 -7291.6320 302.7474 -9053.1660 -7365.0185 299.6532 -13.1942 123.2807 30154.1405 -335.9522 -279.5644
ENERGY: 1200000 1.3961 3.5827 0.7879 0.0000 -10469.4975 1361.5839 0.0000 0.0000 1690.9662 -7411.1806 290.6192 -9102.1468 -7373.0313 298.3318 -684.5529 -607.5093 30354.9188 -305.0400 -246.3900
ENERGY: 1500000 2.1328 3.6490 0.1781 0.0000 -10528.8664 1370.9585 0.0000 0.0000 1804.1085 -7347.8394 310.0644 -9151.9479 -7367.8164 299.2122 -873.2651 -840.4850 30427.6273 -312.1869 -256.3801
TCL: Running FEP window   9: Lambda1 0.39999999999999997 Lambda2 0.44999999999999996 [dLambda 0.04999999999999999]
TCL: Setting parameter firsttimestep to 0
TCL: Setting parameter alchLambda to 0.39999999999999997
Info: NONBONDED TABLE R-SQUARED SPACING: 0.0625
Info: NONBONDED TABLE SIZE: 705 POINTS
TCL: Setting parameter alchLambda2 to 0.44999999999999996
Info: NONBONDED TABLE R-SQUARED SPACING: 0.0625
Info: NONBONDED TABLE SIZE: 705 POINTS
TCL: Running for 1500000 steps
ETITLE: TS BOND ANGLE DIHED IMPRP ELECT VDW BOUNDARY MISC KINETIC TOTAL TEMP POTENTIAL TOTALAVG TEMPAVG PRESSURE GPRESSURE VOLUME PRESSAVG GPRESSAVG
ENERGY: 0 2.1328 3.6491 0.1781 0.0000 -10528.8666 1371.4736 0.0000 0.0000 1803.2691 -7348.1639 309.9202 -9151.4330 -7348.1639 309.9202 -918.1218 -834.2791 30427.6273 -918.1218 -834.2791
ENERGY: 300000 1.2605 8.3258 0.1665 0.0000 -10467.4439 1389.3467 0.0000 0.0000 1727.2821 -7341.0624 296.8606 -9068.3444 -7383.4329 299.7597 -398.2419 -393.9348 30656.8070 -470.1602 -407.7869
ENERGY: 600000 2.3421 7.8906 0.4330 0.0000 -10544.1590 1361.2951 0.0000 0.0000 1712.1343 -7460.0637 294.2572 -9172.1980 -7381.6597 299.9490 -812.7867 -733.5671 30011.8360 -430.0428 -360.8946
ENERGY: 900000 2.9413 1.9244 0.4369 0.0000 -10375.8397 1322.5589 0.0000 0.0000 1727.6247 -7320.3534 296.9195 -9047.9781 -7375.4640 299.4575 -930.6385 -917.1169 30744.9149 -485.7460 -418.1890
ENERGY: 1200000 1.6901 2.0584 0.1359 0.0000 -10479.1625 1404.7253 0.0000 0.0000 1751.2273 -7319.3253 300.9760 -9070.5526 -7371.2742 300.2401 -59.4521 12.3304 30169.3732 -403.8636 -333.8035
ENERGY: 1500000 2.7910 3.8846 0.7177 0.0000 -10474.7019 1399.2545 0.0000 0.0000 1764.4900 -7303.5641 303.2554 -9068.0541 -7366.4742 299.9684 -318.6777 -248.1093 30378.3229 -456.9345 -381.6023
TCL: Running FEP window  10: Lambda1 0.44999999999999996 Lambda2 0.49999999999999994 [dLambda 0.04999999999999999]
TCL: Setting parameter firsttimestep to 0
TCL: Setting parameter alchLambda to 0.44999999999999996
Info: NONBONDED TABLE R-SQUARED SPACING: 0.0625
Info: NONBONDED TABLE SIZE: 705 POINTS
TCL: Setting parameter alchLambda2 to 0.49999999999999994
Info: NONBONDED TABLE R-SQUARED SPACING: 0.0625
Info: NONBONDED TABLE SIZE: 705 POINTS
TCL: Running for 1500000 steps
ETITLE: TS BOND ANGLE DIHED IMPRP ELECT VDW BOUNDARY MISC KINETIC TOTAL TEMP POTENTIAL TOTALAVG TEMPAVG PRESSURE GPRESSURE VOLUME PRESSAVG GPRESSAVG
ENERGY: 0 2.7910 3.8846 0.7177 0.0000 -10474.7042 1398.8672 0.0000 0.0000 1763.6219 -7304.8218 303.1062 -9068.4436 -7304.8218 303.1062 -327.2344 -243.5356 30378.3229 -327.2344 -243.5356
ENERGY: 300000 6.7173 5.0484 0.8621 0.0000 -10589.7561 1409.9350 0.0000 0.0000 1722.9463 -7444.2470 296.1154 -9167.1933 -7344.7057 301.6195 -279.6575 -219.1317 30214.4621 -160.2980 -90.5673
ENERGY: 600000 1.6850 7.1316 1.0693 0.0000 -10594.7036 1463.6658 0.0000 0.0000 1720.3208 -7400.8312 295.6642 -9121.1519 -7361.8773 301.0059 248.4143 427.8127 29915.7284 -178.9703 -87.2532
ENERGY: 900000 5.8509 3.4919 1.4595 0.0000 -10421.3855 1325.1980 0.0000 0.0000 1727.2627 -7358.1225 296.8573 -9085.3852 -7353.3140 301.1595 -963.9195 -952.6495 30367.2081 -275.4735 -201.4623
ENERGY: 1200000 1.8315 4.2916 0.8006 0.0000 -10554.2390 1403.9129 0.0000 0.0000 1685.6270 -7457.7754 289.7015 -9143.4024 -7370.5853 299.4228 -323.1777 -259.7916 29980.5220 -270.6411 -198.5409
ENERGY: 1500000 3.9678 3.9241 0.3187 0.0000 -10519.9994 1434.5511 0.0000 0.0000 1743.4310 -7333.8068 299.6361 -9077.2378 -7357.1695 300.2686 27.5892 86.3228 30403.5228 -186.1105 -117.0036
TCL: Running FEP window  11: Lambda1 0.49999999999999994 Lambda2 0.5499999999999999 [dLambda 0.04999999999999999]
TCL: Setting parameter firsttimestep to 0
TCL: Setting parameter alchLambda to 0.49999999999999994
Info: NONBONDED TABLE R-SQUARED SPACING: 0.0625
Info: NONBONDED TABLE SIZE: 705 POINTS
TCL: Setting parameter alchLambda2 to 0.5499999999999999
Info: NONBONDED TABLE R-SQUARED SPACING: 0.0625
Info: NONBONDED TABLE SIZE: 705 POINTS
TCL: Running for 1500000 steps
ETITLE: TS BOND ANGLE DIHED IMPRP ELECT VDW BOUNDARY MISC KINETIC TOTAL TEMP POTENTIAL TOTALAVG TEMPAVG PRESSURE GPRESSURE VOLUME PRESSAVG GPRESSAVG
ENERGY: 0 3.9678 3.9241 0.3187 0.0000 -10519.9997 1434.7561 0.0000 0.0000 1742.5210 -7334.5120 299.4797 -9077.0330 -7334.5120 299.4797 -4.2951 89.0462 30403.5228 -4.2951 89.0462
ENERGY: 300000 1.3800 4.8892 0.5180 0.0000 -10451.4641 1347.2542 0.0000 0.0000 1799.3460 -7298.0767 309.2459 -9097.4227 -7347.5508 302.1673 -892.1132 -826.9769 30655.2206 -384.1537 -306.2157
ENERGY: 600000 0.9390 2.8831 0.6499 0.0000 -10408.8334 1356.8108 0.0000 0.0000 1806.7454 -7240.8051 310.5176 -9047.5505 -7334.7354 301.8004 -170.1319 -87.7429 30046.7631 -301.6148 -227.8149
ENERGY: 900000 0.8900 4.7969 0.3945 0.0000 -10559.4143 1420.1085 0.0000 0.0000 1714.6416 -7418.5828 294.6882 -9133.2244 -7347.3774 301.6867 -49.3095 -34.5870 30220.8817 -139.3438 -70.0740
ENERGY: 1200000 8.1351 3.2920 0.8036 0.0000 -10525.7927 1397.9992 0.0000 0.0000 1784.7562 -7330.8067 306.7384 -9115.5629 -7341.9160 302.3476 -351.2277 -242.4876 30250.0567 -152.5574 -87.7949
ENERGY: 1500000 3.4352 4.0190 1.3943 0.0000 -10375.0947 1295.3307 0.0000 0.0000 1734.7567 -7336.1588 298.1452 -9070.9154 -7343.6464 302.8418 -998.9053 -961.5448 30403.2640 -196.4588 -132.0409
TCL: Running FEP window  12: Lambda1 0.5499999999999999 Lambda2 0.6    [dLambda 0.050000000000000044]
TCL: Setting parameter firsttimestep to 0
TCL: Setting parameter alchLambda to 0.5499999999999999
Info: NONBONDED TABLE R-SQUARED SPACING: 0.0625
Info: NONBONDED TABLE SIZE: 705 POINTS
TCL: Setting parameter alchLambda2 to 0.6
Info: NONBONDED TABLE R-SQUARED SPACING: 0.0625
Info: NONBONDED TABLE SIZE: 705 POINTS
TCL: Running for 1500000 steps
ETITLE: TS BOND ANGLE DIHED IMPRP ELECT VDW BOUNDARY MISC KINETIC TOTAL TEMP POTENTIAL TOTALAVG TEMPAVG PRESSURE GPRESSURE VOLUME PRESSAVG GPRESSAVG
ENERGY: 0 3.4352 4.0190 1.3943 0.0000 -10374.8033 1295.1914 0.0000 0.0000 1733.8604 -7336.9030 297.9912 -9070.7634 -7336.9030 297.9912 -1041.6740 -959.8397 30403.2640 -1041.6740 -959.8397
ENERGY: 300000 2.7272 4.0264 0.2770 0.0000 -10493.2498 1366.6154 0.0000 0.0000 1797.6047 -7321.9991 308.9467 -9119.6037 -7358.1592 303.4108 -288.9916 -256.5019 29870.6633 -431.3204 -371.7860
ENERGY: 600000 0.8802 1.5715 0.5653 0.0000 -10693.0447 1534.8370 0.0000 0.0000 1796.9475 -7358.2431 308.8337 -9155.1906 -7356.2498 304.2457 1154.2496 1265.3025 29348.4619 -175.3953 -101.7596
ENERGY: 900000 3.0271 4.8076 1.8068 0.0000 -10455.2667 1368.0114 0.0000 0.0000 1728.6712 -7348.9425 297.0994 -9077.6137 -7370.2642 302.4095 -614.8849 -542.7020 30584.6052 -250.9848 -172.1488
ENERGY: 1200000 3.6438 4.8830 0.9415 0.0000 -10667.2132 1460.8302 0.0000 0.0000 1762.6736 -7434.2411 302.9432 -9196.9147 -7369.5445 301.9635 68.3999 163.0938 29713.3046 -152.7009 -75.9517
ENERGY: 1500000 2.4082 4.0936 1.8903 0.0000 -10625.8430 1473.3640 0.0000 0.0000 1790.9953 -7353.0917 307.8107 -9144.0869 -7372.0409 302.0245 468.6032 544.0583 29865.7810 -78.4654 -5.4590
TCL: Running FEP window  13: Lambda1 0.6    Lambda2 0.65   [dLambda 0.050000000000000044]
TCL: Setting parameter firsttimestep to 0
TCL: Setting parameter alchLambda to 0.6
Info: NONBONDED TABLE R-SQUARED SPACING: 0.0625
Info: NONBONDED TABLE SIZE: 705 POINTS
TCL: Setting parameter alchLambda2 to 0.65
Info: NONBONDED TABLE R-SQUARED SPACING: 0.0625
Info: NONBONDED TABLE SIZE: 705 POINTS
TCL: Running for 1500000 steps
ETITLE: TS BOND ANGLE DIHED IMPRP ELECT VDW BOUNDARY MISC KINETIC TOTAL TEMP POTENTIAL TOTALAVG TEMPAVG PRESSURE GPRESSURE VOLUME PRESSAVG GPRESSAVG
ENERGY: 0 2.4082 4.0936 1.8903 0.0000 -10625.9849 1473.5247 0.0000 0.0000 1790.1381 -7353.9300 307.6634 -9144.0682 -7353.9300 307.6634 484.3001 552.9688 29865.7810 484.3001 552.9688
ENERGY: 300000 1.3225 4.3035 1.7172 0.0000 -10535.3726 1421.7559 0.0000 0.0000 1714.2730 -7392.0004 294.6248 -9106.2734 -7388.0848 297.9554 -161.3186 -115.2771 30299.2504 379.5517 449.5945
ENERGY: 600000 4.1218 4.1289 0.5651 0.0000 -10584.4788 1457.6202 0.0000 0.0000 1741.4982 -7376.5445 299.3039 -9118.0427 -7385.6854 299.0870 262.1014 319.3827 29892.3008 228.9544 303.8765
ENERGY: 900000 4.7821 5.1520 0.3369 0.0000 -10541.7833 1451.5689 0.0000 0.0000 1774.6924 -7305.2511 305.0088 -9079.9434 -7382.5612 299.2994 -33.2980 3.8498 30777.5561 126.7661 197.6409
ENERGY: 1200000 3.7989 4.4941 0.1952 0.0000 -10513.9162 1428.8009 0.0000 0.0000 1688.3773 -7388.2498 290.1742 -9076.6271 -7385.2187 298.2094 -43.4602 12.4909 30277.7166 -10.9753 62.9599
ENERGY: 1500000 3.0863 2.7542 1.6444 0.0000 -10508.9643 1419.4825 0.0000 0.0000 1724.0204 -7357.9763 296.3001 -9081.9968 -7379.0161 299.1167 -204.7287 -162.2035 30626.8111 -21.1615 46.7511
TCL: Running FEP window  14: Lambda1 0.65   Lambda2 0.7000000000000001 [dLambda 0.050000000000000044]
TCL: Setting parameter firsttimestep to 0
TCL: Setting parameter alchLambda to 0.65
Info: NONBONDED TABLE R-SQUARED SPACING: 0.0625
Info: NONBONDED TABLE SIZE: 705 POINTS
TCL: Setting parameter alchLambda2 to 0.7000000000000001
Info: NONBONDED TABLE R-SQUARED SPACING: 0.0625
Info: NONBONDED TABLE SIZE: 705 POINTS
TCL: Running for 1500000 steps
ETITLE: TS BOND ANGLE DIHED IMPRP ELECT VDW BOUNDARY MISC KINETIC TOTAL TEMP POTENTIAL TOTALAVG TEMPAVG PRESSURE GPRESSURE VOLUME PRESSAVG GPRESSAVG
ENERGY: 0 3.0863 2.7542 1.6444 0.0000 -10509.5618 1419.1097 0.0000 0.0000 1723.1003 -7359.8669 296.1419 -9082.9672 -7359.8669 296.1419 -249.9157 -161.2752 30626.8111 -249.9157 -161.2752
ENERGY: 300000 1.8763 3.0269 0.1098 0.0000 -10577.7183 1459.0422 0.0000 0.0000 1705.3903 -7408.2729 293.0982 -9113.6631 -7337.7671 300.0962 153.0545 252.1771 30170.5589 -61.0859 15.8668
ENERGY: 600000 2.0403 5.8302 1.0715 0.0000 -10557.7731 1447.8916 0.0000 0.0000 1750.8039 -7350.1356 300.9032 -9100.9395 -7349.0443 300.9414 138.4964 251.5644 30166.7729 163.8138 252.2008
ENERGY: 900000 2.2924 7.5695 0.7299 0.0000 -10588.5914 1436.6547 0.0000 0.0000 1768.3228 -7373.0220 303.9141 -9141.3448 -7361.4310 300.5378 219.0044 221.7872 30463.2287 239.6974 314.8275
ENERGY: 1200000 2.7595 3.8517 0.8876 0.0000 -10686.1614 1484.4311 0.0000 0.0000 1714.9887 -7479.2427 294.7478 -9194.2314 -7371.1657 300.1586 -13.5555 30.8651 30137.1401 225.6439 298.2388
ENERGY: 1500000 2.3496 5.0395 0.2277 0.0000 -10552.4155 1406.7782 0.0000 0.0000 1740.8783 -7397.1421 299.1973 -9138.0205 -7388.8946 299.0748 -338.5868 -225.1075 30007.8648 129.8024 206.1160
TCL: Running FEP window  15: Lambda1 0.7000000000000001 Lambda2 0.7500000000000001 [dLambda 0.050000000000000044]
TCL: Setting parameter firsttimestep to 0
TCL: Setting parameter alchLambda to 0.7000000000000001
Info: NONBONDED TABLE R-SQUARED SPACING: 0.0625
Info: NONBONDED TABLE SIZE: 705 POINTS
TCL: Setting parameter alchLambda2 to 0.7500000000000001
Info: NONBONDED TABLE R-SQUARED SPACING: 0.0625
Info: NONBONDED TABLE SIZE: 705 POINTS
TCL: Running for 1500000 steps
ETITLE: TS BOND ANGLE DIHED IMPRP ELECT VDW BOUNDARY MISC KINETIC TOTAL TEMP POTENTIAL TOTALAVG TEMPAVG PRESSURE GPRESSURE VOLUME PRESSAVG GPRESSAVG
ENERGY: 0 2.3496 5.0395 0.2277 0.0000 -10552.3161 1406.5399 0.0000 0.0000 1740.0720 -7398.0873 299.0588 -9138.1594 -7398.0873 299.0588 -306.7655 -220.4132 30007.8648 -306.7655 -220.4132
ENERGY: 300000 2.3992 4.6810 0.3191 0.0000 -10489.4388 1357.2141 0.0000 0.0000 1714.8329 -7409.9926 294.7210 -9124.8255 -7408.9702 296.8982 -566.2508 -418.1512 29866.9120 -139.8353 -52.0666
ENERGY: 600000 3.4408 6.7729 1.5910 0.0000 -10603.5386 1406.0695 0.0000 0.0000 1745.9579 -7439.7065 300.0704 -9185.6644 -7402.8891 298.1582 -283.5729 -264.7506 29924.0504 -145.0536 -74.2225
ENERGY: 900000 3.3140 3.6549 0.2385 0.0000 -10484.0978 1385.1573 0.0000 0.0000 1710.8870 -7380.8461 294.0429 -9091.7331 -7388.5342 298.5002 -240.6470 -80.2195 30056.6059 -170.6054 -98.9025
ENERGY: 1200000 3.6467 3.0750 0.2235 0.0000 -10626.8439 1428.0899 0.0000 0.0000 1755.1355 -7436.6733 301.6477 -9191.8088 -7384.4169 299.3972 15.9493 68.6999 29598.5374 -111.3225 -33.3906
ENERGY: 1500000 1.9553 1.7116 0.2040 0.0000 -10431.4536 1335.8521 0.0000 0.0000 1725.5518 -7366.1788 296.5632 -9091.7307 -7378.8746 299.9962 -872.2093 -765.8974 30298.1928 -148.6222 -67.9200
TCL: Running FEP window  16: Lambda1 0.7500000000000001 Lambda2 0.8000000000000002 [dLambda 0.050000000000000044]
TCL: Setting parameter firsttimestep to 0
TCL: Setting parameter alchLambda to 0.7500000000000001
Info: NONBONDED TABLE R-SQUARED SPACING: 0.0625
Info: NONBONDED TABLE SIZE: 705 POINTS
TCL: Setting parameter alchLambda2 to 0.8000000000000002
Info: NONBONDED TABLE R-SQUARED SPACING: 0.0625
Info: NONBONDED TABLE SIZE: 705 POINTS
TCL: Running for 1500000 steps
ETITLE: TS BOND ANGLE DIHED IMPRP ELECT VDW BOUNDARY MISC KINETIC TOTAL TEMP POTENTIAL TOTALAVG TEMPAVG PRESSURE GPRESSURE VOLUME PRESSAVG GPRESSAVG
ENERGY: 0 1.9553 1.7116 0.2040 0.0000 -10431.7700 1335.2834 0.0000 0.0000 1724.7061 -7367.9098 296.4179 -9092.6158 -7367.9098 296.4179 -841.1814 -763.2040 30298.1928 -841.1814 -763.2040
ENERGY: 300000 5.6418 3.9945 1.3705 0.0000 -10583.0354 1437.2724 0.0000 0.0000 1826.6789 -7308.0773 313.9435 -9134.7562 -7346.6549 301.5475 93.8820 86.6304 30278.4685 -401.1872 -342.2026
ENERGY: 600000 2.9878 5.8804 0.6227 0.0000 -10487.8307 1359.0002 0.0000 0.0000 1677.0225 -7442.3171 288.2227 -9119.3396 -7354.2963 299.8058 -573.1094 -482.3373 29901.2125 -190.7956 -142.6420
ENERGY: 900000 5.5492 8.4801 1.0694 0.0000 -10576.6095 1448.0712 0.0000 0.0000 1749.6798 -7363.7598 300.7100 -9113.4396 -7369.0958 298.5933 330.5917 355.2424 29981.4889 -90.8791 -44.8639
ENERGY: 1200000 1.9593 3.7353 0.6580 0.0000 -10506.8031 1435.4610 0.0000 0.0000 1744.7599 -7320.2296 299.8645 -9064.9895 -7362.6266 299.1665 -60.0515 -16.3006 30735.1704 -68.9261 -18.7932
ENERGY: 1500000 1.1304 2.7737 0.6011 0.0000 -10663.8025 1512.3768 0.0000 0.0000 1739.0814 -7407.8390 298.8885 -9146.9204 -7370.9011 298.9470 332.1621 382.0045 30488.7297 -58.6906 -9.8237
TCL: Running FEP window  17: Lambda1 0.8000000000000002 Lambda2 0.8500000000000002 [dLambda 0.050000000000000044]
TCL: Setting parameter firsttimestep to 0
TCL: Setting parameter alchLambda to 0.8000000000000002
Info: NONBONDED TABLE R-SQUARED SPACING: 0.0625
Info: NONBONDED TABLE SIZE: 705 POINTS
TCL: Setting parameter alchLambda2 to 0.8500000000000002
Info: NONBONDED TABLE R-SQUARED SPACING: 0.0625
Info: NONBONDED TABLE SIZE: 705 POINTS
TCL: Running for 1500000 steps
ETITLE: TS BOND ANGLE DIHED IMPRP ELECT VDW BOUNDARY MISC KINETIC TOTAL TEMP POTENTIAL TOTALAVG TEMPAVG PRESSURE GPRESSURE VOLUME PRESSAVG GPRESSAVG
ENERGY: 0 1.1304 2.7737 0.6011 0.0000 -10664.1774 1512.6513 0.0000 0.0000 1738.1777 -7408.8433 298.7332 -9147.0209 -7408.8433 298.7332 317.2987 392.3992 30488.7297 317.2987 392.3992
ENERGY: 300000 3.3565 5.8272 0.6226 0.0000 -10499.8700 1388.7072 0.0000 0.0000 1671.1993 -7430.1572 287.2219 -9101.3565 -7409.9329 298.3345 -141.1508 -103.7867 29871.1657 214.6265 280.3034
ENERGY: 600000 2.9397 3.7963 0.8143 0.0000 -10602.6036 1388.4331 0.0000 0.0000 1727.7880 -7478.8321 296.9476 -9206.6202 -7411.5890 299.1522 -559.5819 -521.2696 30054.9361 -32.1346 33.2945
ENERGY: 900000 2.9214 4.4035 0.7422 0.0000 -10592.9155 1494.2723 0.0000 0.0000 1793.5896 -7296.9864 308.2566 -9090.5760 -7402.1093 299.2669 511.0721 605.7330 30418.2395 -52.8742 17.4025
ENERGY: 1200000 0.9987 1.9136 0.1214 0.0000 -10562.0049 1424.8351 0.0000 0.0000 1743.5183 -7390.6178 299.6511 -9134.1360 -7414.6107 298.6562 55.6993 150.5490 30109.7161 -79.5139 -6.3136
ENERGY: 1500000 4.8302 3.4086 0.3537 0.0000 -10672.9372 1490.2594 0.0000 0.0000 1708.8233 -7465.2620 293.6882 -9174.0853 -7414.2259 298.8055 -49.3846 45.8933 30491.0263 -56.8864 16.6542
TCL: Running FEP window  18: Lambda1 0.8500000000000002 Lambda2 0.9000000000000002 [dLambda 0.050000000000000044]
TCL: Setting parameter firsttimestep to 0
TCL: Setting parameter alchLambda to 0.8500000000000002
Info: NONBONDED TABLE R-SQUARED SPACING: 0.0625
Info: NONBONDED TABLE SIZE: 705 POINTS
TCL: Setting parameter alchLambda2 to 0.9000000000000002
Info: NONBONDED TABLE R-SQUARED SPACING: 0.0625
Info: NONBONDED TABLE SIZE: 705 POINTS
TCL: Running for 1500000 steps
ETITLE: TS BOND ANGLE DIHED IMPRP ELECT VDW BOUNDARY MISC KINETIC TOTAL TEMP POTENTIAL TOTALAVG TEMPAVG PRESSURE GPRESSURE VOLUME PRESSAVG GPRESSAVG
ENERGY: 0 4.8302 3.4086 0.3537 0.0000 -10673.4674 1490.3582 0.0000 0.0000 1707.9514 -7466.5654 293.5383 -9174.5168 -7466.5654 293.5383 -35.6974 54.7779 30491.0263 -35.6974 54.7779
ENERGY: 300000 6.1859 4.1360 2.0261 0.0000 -10496.6234 1405.8546 0.0000 0.0000 1691.0353 -7387.3855 290.6310 -9078.4208 -7437.2427 296.2972 -298.8047 -219.2490 30431.8381 -1.9302 70.6320
ENERGY: 600000 0.2269 5.5597 1.0235 0.0000 -10588.4958 1402.2503 0.0000 0.0000 1819.6446 -7359.7909 312.7346 -9179.4355 -7409.8762 298.6726 -380.2389 -223.5513 30233.7130 10.4747 88.6857
ENERGY: 900000 3.3791 6.2257 1.1529 0.0000 -10478.0561 1361.5080 0.0000 0.0000 1755.2436 -7350.5469 301.6662 -9105.7905 -7398.3674 299.5103 -610.5759 -486.5258 30196.9333 -91.6968 -18.8294
ENERGY: 1200000 2.5414 3.1786 0.3514 0.0000 -10664.1027 1507.9540 0.0000 0.0000 1697.8639 -7452.2135 291.8046 -9150.0774 -7403.8315 299.4279 728.1675 779.0762 29645.7345 18.6157 84.8561
ENERGY: 1500000 4.2513 2.9723 0.0572 0.0000 -10502.1352 1346.2823 0.0000 0.0000 1731.8565 -7416.7155 297.6468 -9148.5720 -7397.1697 300.3005 -817.7830 -748.6555 30072.6037 -94.4118 -29.4599
TCL: Running FEP window  19: Lambda1 0.9000000000000002 Lambda2 0.9500000000000003 [dLambda 0.050000000000000044]
TCL: Setting parameter firsttimestep to 0
TCL: Setting parameter alchLambda to 0.9000000000000002
Info: NONBONDED TABLE R-SQUARED SPACING: 0.0625
Info: NONBONDED TABLE SIZE: 705 POINTS
TCL: Setting parameter alchLambda2 to 0.9500000000000003
Info: NONBONDED TABLE R-SQUARED SPACING: 0.0625
Info: NONBONDED TABLE SIZE: 705 POINTS
TCL: Running for 1500000 steps
ETITLE: TS BOND ANGLE DIHED IMPRP ELECT VDW BOUNDARY MISC KINETIC TOTAL TEMP POTENTIAL TOTALAVG TEMPAVG PRESSURE GPRESSURE VOLUME PRESSAVG GPRESSAVG
ENERGY: 0 4.2513 2.9723 0.0572 0.0000 -10503.1312 1346.4364 0.0000 0.0000 1731.0125 -7418.4015 297.5017 -9149.4140 -7418.4015 297.5017 -834.7666 -739.1153 30072.6037 -834.7666 -739.1153
ENERGY: 300000 1.6811 4.6317 1.8179 0.0000 -10732.9823 1554.6996 0.0000 0.0000 1738.1107 -7432.0413 298.7217 -9170.1520 -7454.9928 297.1444 950.8472 1039.1449 30041.4747 -133.0337 -52.2486
ENERGY: 600000 1.0427 3.1413 0.6532 0.0000 -10593.1718 1447.9108 0.0000 0.0000 1724.1541 -7416.2696 296.3230 -9140.4238 -7425.5733 298.7455 270.5364 305.9668 29979.9839 72.3779 133.9022
ENERGY: 900000 1.0500 3.9485 1.7181 0.0000 -10661.0037 1461.6297 0.0000 0.0000 1739.9068 -7452.7506 299.0304 -9192.6574 -7418.7137 298.2070 103.2264 213.9934 29996.7847 108.3550 173.3409
ENERGY: 1200000 0.3704 5.9513 1.0487 0.0000 -10460.0031 1342.0635 0.0000 0.0000 1768.5372 -7342.0320 303.9510 -9110.5693 -7415.5959 299.3198 -478.8716 -474.6534 30017.9771 -6.1695 55.2677
ENERGY: 1500000 1.2485 3.2936 0.5300 0.0000 -10659.4553 1498.8213 0.0000 0.0000 1756.3914 -7399.1706 301.8635 -9155.5620 -7404.6093 300.7202 720.0062 749.6370 29852.2433 -46.6877 18.6665
TCL: Running FEP window  20: Lambda1 0.9500000000000003 Lambda2 1.0    [dLambda 0.04999999999999971]
TCL: Setting parameter firsttimestep to 0
TCL: Setting parameter alchLambda to 0.9500000000000003
Info: NONBONDED TABLE R-SQUARED SPACING: 0.0625
Info: NONBONDED TABLE SIZE: 705 POINTS
TCL: Setting parameter alchLambda2 to 1.0
Info: NONBONDED TABLE R-SQUARED SPACING: 0.0625
Info: NONBONDED TABLE SIZE: 705 POINTS
TCL: Running for 1500000 steps
ETITLE: TS BOND ANGLE DIHED IMPRP ELECT VDW BOUNDARY MISC KINETIC TOTAL TEMP POTENTIAL TOTALAVG TEMPAVG PRESSURE GPRESSURE VOLUME PRESSAVG GPRESSAVG
ENERGY: 0 1.2485 3.2936 0.5300 0.0000 -10660.4454 1499.2571 0.0000 0.0000 1755.5222 -7400.5941 301.7141 -9156.1163 -7400.5941 301.7141 685.8761 764.5892 29852.2433 685.8761 764.5892
ENERGY: 300000 1.6304 2.6398 1.7317 0.0000 -10437.9736 1364.5411 0.0000 0.0000 1737.2307 -7330.2000 298.5704 -9067.4306 -7363.8263 300.2695 -206.0889 -130.6810 30089.0186 -7.2153 65.9971
ENERGY: 600000 2.3047 3.9910 1.7274 0.0000 -10532.8383 1391.6448 0.0000 0.0000 1769.0678 -7364.1026 304.0421 -9133.1704 -7371.5737 300.4639 -39.4069 -24.1274 29733.8011 -183.7431 -110.3891
ENERGY: 900000 0.8502 4.2292 0.5787 0.0000 -10530.6793 1412.9618 0.0000 0.0000 1784.4149 -7327.6446 306.6798 -9112.0595 -7367.6563 301.5313 -190.0346 -91.0463 30828.4842 -150.3131 -73.2160
ENERGY: 1200000 4.0517 3.8142 0.4616 0.0000 -10595.7095 1396.1344 0.0000 0.0000 1721.1694 -7470.0780 295.8101 -9191.2474 -7370.0605 301.2677 -117.2679 -49.1084 29701.0962 -73.2419 3.4450
ENERGY: 1500000 3.0947 5.3242 0.4537 0.0000 -10589.9153 1432.1244 0.0000 0.0000 1728.7242 -7420.1941 297.1085 -9148.9184 -7378.7366 301.1368 -18.1423 42.7230 29879.4632 -116.1922 -42.9225
TCL: Exiting due to exit command.
