Info: SIMULATION PARAMETERS:
Info: TIMESTEP               2
Info: NUMBER OF STEPS        0
Info: STEPS PER CYCLE        10
Info: PERIODIC CELL BASIS 1  31.8432 0 0
Info: PERIODIC CELL BASIS 2  0 31.7205 0
Info: PERIODIC CELL BASIS 3  0 0 28.9523
Info: PERIODIC CELL CENTER   0 0 0
Info: WRAPPING WATERS AROUND PERIODIC BOUNDARIES ON OUTPUT.
Info: WRAPPING ALL CLUSTERS AROUND PERIODIC BOUNDARIES ON OUTPUT.
Info: FIRST LDB TIMESTEP     50
Info: LAST LDB TIMESTEP     -1
Info: HOM BACKGROUND SCALING 1
Info: PME BACKGROUND SCALING 1
Info: MIN ATOMS PER PATCH    40
Info: EMPTY PATCH LOAD       40 ATOMS
Info: VELOCITY FILE          mobley_3715043_equil.vel
Info: CENTER OF MASS MOVING INITIALLY? NO
Info: DIELECTRIC             1
Info: EXCLUDE                SCALED ONE-FOUR
Info: 1-4 ELECTROSTATICS SCALED BY 0.833333
Info: MODIFIED 1-4 VDW PARAMETERS WILL BE USED
Info: DCD FILENAME           mobley_3715043_prod.dcd
Info: DCD FREQUENCY          100000
Info: DCD FIRST STEP         100000
Info: DCD FILE WILL CONTAIN UNIT CELL DATA
Info: XST FILENAME           mobley_3715043_prod.xst
Info: XST FREQUENCY          100000
Info: NO VELOCITY DCD OUTPUT
Info: NO FORCE DCD OUTPUT
Info: OUTPUT FILENAME        mobley_3715043_prod
Info: BINARY OUTPUT FILES WILL BE USED
Info: RESTART FILENAME       mobley_3715043_prod.restart
Info: RESTART FREQUENCY      100000
Info: BINARY RESTART FILES WILL BE USED
Info: CUTOFF                 9
Info: PAIRLIST DISTANCE      11
Info: PAIRLIST SHRINK RATE   0.01
Info: PAIRLIST GROW RATE     0.01
Info: PAIRLIST TRIGGER       0.3
Info: PAIRLISTS PER CYCLE    2
Info: PAIRLISTS ENABLED
Info: MARGIN                 2
Info: HYDROGEN GROUP CUTOFF  2.5
Info: PATCH DIMENSION        15.5
Info: ENERGY OUTPUT STEPS    100000
Info: ENERGY EVALUATION STEPS    100000
Info: OUTPUT ENERGY PRECISION 4
Info: CROSSTERM ENERGY INCLUDED IN DIHEDRAL
Info: TIMING OUTPUT STEPS    1000000
Info: PRESSURE OUTPUT STEPS  100000
Info: ALCHEMICAL FEP ON
Info: FEP CURRENT LAMBDA VALUE     0
Info: FEP COMPARISON LAMBDA VALUE  0.05
Info: FEP INTRA-ALCHEMICAL NON-BONDED INTERACTIONS WILL BE RETAINED
Info: FEP INTRA-ALCHEMICAL BONDED INTERACTIONS WILL BE RETAINED
Info: FEP VDW SHIFTING COEFFICIENT 5
Info: FEP ELEC. ACTIVE FOR ANNIHILATED PARTICLES BETWEEN LAMBDA = 0 AND LAMBDA = 0.5
Info: FEP ELEC. ACTIVE FOR EXNIHILATED PARTICLES BETWEEN LAMBDA = 0.5 AND LAMBDA = 1
Info: FEP VDW ACTIVE FOR ANNIHILATED PARTICLES BETWEEN LAMBDA = 0 AND LAMBDA = 1
Info: FEP VDW ACTIVE FOR EXNIHILATED PARTICLES BETWEEN LAMBDA = 0 AND LAMBDA = 1
Info: FEP BOND ACTIVE FOR ANNIHILATED PARTICLES BETWEEN LAMBDA = 1 AND LAMBDA = 1
Info: FEP BOND ACTIVE FOR EXNIHILATED PARTICLES BETWEEN LAMBDA = 0 AND LAMBDA = 0
Info: LANGEVIN DYNAMICS ACTIVE
Info: LANGEVIN TEMPERATURE   300
Info: LANGEVIN USING BBK INTEGRATOR
Info: LANGEVIN DAMPING COEFFICIENT IS 1 INVERSE PS
Info: LANGEVIN DYNAMICS APPLIED TO HYDROGENS
Info: LANGEVIN PISTON PRESSURE CONTROL ACTIVE
Info:        TARGET PRESSURE IS 1.01325 BAR
Info:     OSCILLATION PERIOD IS 50 FS
Info:             DECAY TIME IS 25 FS
Info:     PISTON TEMPERATURE IS 300 K
Info:       PRESSURE CONTROL IS GROUP-BASED
Info:    INITIAL STRAIN RATE IS -0.000935862 -0.000935862 -0.000935862
Info:       CELL FLUCTUATION IS ISOTROPIC
Info: PARTICLE MESH EWALD (PME) ACTIVE
Info: PME TOLERANCE               1e-06
Info: PME EWALD COEFFICIENT       0.348832
Info: PME INTERPOLATION ORDER     4
Info: PME GRID DIMENSIONS         32 32 32
Info: PME MAXIMUM GRID SPACING    1
Info: PME CALCULATION WILL BE PERFORMED ON GPU
Info: FULL ELECTROSTATIC EVALUATION FREQUENCY      2
Info: USING VERLET I (r-RESPA) MTS SCHEME.
Info: C1 SPLITTING OF LONG RANGE ELECTROSTATICS
Info: PLACING ATOMS IN PATCHES BY HYDROGEN GROUPS
Info: RIGID BONDS TO HYDROGEN : ALL
Info:         ERROR TOLERANCE : 1e-08
Info:          MAX ITERATIONS : 100
Info: RIGID WATER USING SETTLE ALGORITHM
Info: RANDOM NUMBER SEED     1743640641
Info: USE HYDROGEN BONDS?    NO
Info: Using AMBER format force field!
Info: AMBER PARM FILE        mobley_3715043.prmtop
Info: COORDINATE PDB         mobley_3715043.pdb
Info: Exclusions will be read from PARM file!
Info: SCNB (VDW SCALING)     2
Info: USING ARITHMETIC MEAN TO COMBINE L-J SIGMA PARAMETERS
Info: BINARY COORDINATES     mobley_3715043_equil.coor
Info: SUMMARY OF PARAMETERS:
Info: 6 BONDS
Info: 5 ANGLES
Info:   5 HARMONIC
Info:   0 COSINE-BASED
Info: 3 DIHEDRAL
Info: 0 IMPROPER
Info: 0 CROSSTERM
Info: 0 VDW
Info: 21 VDW_PAIRS
Info: 0 NBTHOLE_PAIRS
Info: To read alchdata from file: mobley_3715043.pdb
Info: To read alchflag data from column: 5
Info: STRUCTURE SUMMARY:
Info: 2904 ATOMS
Info: 2905 BONDS
Info: 42 ANGLES
Info: 66 DIHEDRALS
Info: 0 IMPROPERS
Info: 0 CROSSTERMS
Info: 2997 EXCLUSIONS
Info: 2892 RIGID BONDS
Info: ALCH: 0 ATOMS TO DISAPPEAR IN FINAL STATE
Info: ALCH: 24 ATOMS TO APPEAR IN FINAL STATE
Info: 5820 DEGREES OF FREEDOM
Info: 972 HYDROGEN GROUPS
Info: 4 ATOMS IN LARGEST HYDROGEN GROUP
Info: 972 MIGRATION GROUPS
Info: 4 ATOMS IN LARGEST MIGRATION GROUP
Info: TOTAL MASS = 17451.6 amu
Info: TOTAL CHARGE = -0.000100028 e
Info: MASS DENSITY = 0.990952 g/cm^3
Info: ATOM DENSITY = 0.0993014 atoms/A^3
Info: ADDED 0 IMPLICIT EXCLUSIONS
Info: NONBONDED TABLE R-SQUARED SPACING: 0.0625
Info: NONBONDED TABLE SIZE: 705 POINTS
Info: REDUCING NUMBER OF PATCHES TO IMPROVE LOAD BALANCE
Info: REMOVING COM VELOCITY 0.0873315 -0.102433 -0.0048969
Info: Use 3D box decompostion in PME FFT.
Info: Updated CUDA force table with 4096 elements.
Info: Updated CUDA LJ table with 6 x 6 elements.
Info: Found 24 unique exclusion lists needing 80 bytes
TCL: Running for 1500000 steps
ETITLE: TS BOND ANGLE DIHED IMPRP ELECT VDW BOUNDARY MISC KINETIC TOTAL TEMP POTENTIAL TOTALAVG TEMPAVG PRESSURE GPRESSURE VOLUME PRESSAVG GPRESSAVG
ENERGY: 0 3.3074 5.3161 3.3023 0.0000 -10616.3457 1494.4175 0.0000 0.0000 1707.4934 -7402.5089 295.2748 -9110.0023 -7402.5089 295.2748 625.5461 712.1748 29244.3129 625.5461 712.1748
ENERGY: 300000 4.9426 7.9616 3.6787 0.0000 -10356.4796 1344.8702 0.0000 0.0000 1708.9858 -7286.0406 295.5329 -8995.0265 -7339.7008 297.7122 -433.6044 -430.5962 29750.5799 105.5548 171.9112
ENERGY: 600000 5.0880 13.5844 3.7009 0.0000 -10547.5280 1453.3061 0.0000 0.0000 1751.8554 -7319.9932 302.9463 -9071.8487 -7316.3503 301.0453 398.0636 440.9278 29244.1940 3.3177 74.7231
ENERGY: 900000 2.0153 8.5012 4.9698 0.0000 -10415.8811 1339.4075 0.0000 0.0000 1792.2856 -7268.7017 309.9378 -9060.9873 -7312.5639 301.6491 -622.4983 -451.0949 29815.0243 2.9735 91.8153
ENERGY: 1200000 4.5531 5.5730 3.4367 0.0000 -10320.5729 1334.2841 0.0000 0.0000 1707.6705 -7265.0554 295.3055 -8972.7259 -7320.9416 300.0980 -719.6457 -559.2871 30062.9154 -62.7502 35.3824
ENERGY: 1500000 6.5774 5.9975 2.3850 0.0000 -10403.9014 1401.4322 0.0000 0.0000 1714.3430 -7273.1663 296.4593 -8987.5093 -7319.2629 299.7499 -54.4275 -27.1692 29805.5913 -44.2302 42.3722
TCL: Running FEP window   2: Lambda1 0.05   Lambda2 0.1    [dLambda 0.05  ]
TCL: Setting parameter firsttimestep to 0
TCL: Setting parameter alchLambda to 0.05
Info: NONBONDED TABLE R-SQUARED SPACING: 0.0625
Info: NONBONDED TABLE SIZE: 705 POINTS
TCL: Setting parameter alchLambda2 to 0.1
Info: NONBONDED TABLE R-SQUARED SPACING: 0.0625
Info: NONBONDED TABLE SIZE: 705 POINTS
TCL: Running for 1500000 steps
ETITLE: TS BOND ANGLE DIHED IMPRP ELECT VDW BOUNDARY MISC KINETIC TOTAL TEMP POTENTIAL TOTALAVG TEMPAVG PRESSURE GPRESSURE VOLUME PRESSAVG GPRESSAVG
ENERGY: 0 6.5775 5.9975 2.3850 0.0000 -10403.9005 1408.0447 0.0000 0.0000 1713.4876 -7267.4082 296.3114 -8980.8958 -7267.4082 296.3114 -106.1199 -19.6707 29805.5913 -106.1199 -19.6707
ENERGY: 300000 2.5160 9.0806 3.2953 0.0000 -10403.7598 1348.6338 0.0000 0.0000 1712.6009 -7327.6331 296.1581 -9040.2340 -7309.7828 296.6820 -646.9037 -635.7410 30032.2918 -312.1692 -286.2224
ENERGY: 600000 7.1737 9.5761 4.9693 0.0000 -10403.2753 1364.7397 0.0000 0.0000 1694.5242 -7322.2922 293.0321 -9016.8164 -7323.5964 296.4153 -383.0679 -351.6356 29622.2259 -280.8088 -238.1618
ENERGY: 900000 5.1632 9.3663 6.3247 0.0000 -10452.3240 1388.1692 0.0000 0.0000 1759.2447 -7284.0560 304.2241 -9043.3006 -7322.5506 297.5609 -190.8435 -150.1219 29571.4633 -141.9710 -99.6940
ENERGY: 1200000 7.5470 5.1734 4.3164 0.0000 -10601.1458 1516.4213 0.0000 0.0000 1750.8245 -7316.8632 302.7680 -9067.6877 -7325.2808 297.9837 515.5681 631.9193 29617.2474 -30.9748 20.2327
ENERGY: 1500000 2.7248 5.8479 7.0136 0.0000 -10579.6931 1492.2515 0.0000 0.0000 1710.1640 -7361.6913 295.7367 -9071.8553 -7325.8791 298.0341 579.9234 625.2928 29637.3738 -18.8516 38.1340
TCL: Running FEP window   3: Lambda1 0.1    Lambda2 0.15000000000000002 [dLambda 0.05000000000000002]
TCL: Setting parameter firsttimestep to 0
TCL: Setting parameter alchLambda to 0.1
Info: NONBONDED TABLE R-SQUARED SPACING: 0.0625
Info: NONBONDED TABLE SIZE: 705 POINTS
TCL: Setting parameter alchLambda2 to 0.15000000000000002
Info: NONBONDED TABLE R-SQUARED SPACING: 0.0625
Info: NONBONDED TABLE SIZE: 705 POINTS
TCL: Running for 1500000 steps
ETITLE: TS BOND ANGLE DIHED IMPRP ELECT VDW BOUNDARY MISC KINETIC TOTAL TEMP POTENTIAL TOTALAVG TEMPAVG PRESSURE GPRESSURE VOLUME PRESSAVG GPRESSAVG
ENERGY: 0 2.7247 5.8479 7.0136 0.0000 -10579.6920 1494.4594 0.0000 0.0000 1709.2737 -7360.3727 295.5827 -9069.6464 -7360.3727 295.5827 563.1013 637.1441 29637.3738 563.1013 637.1441
ENERGY: 300000 6.0147 8.2411 5.4939 0.0000 -10457.1621 1431.1393 0.0000 0.0000 1729.0173 -7277.2558 298.9969 -9006.2731 -7332.8431 298.4458 346.3504 404.8284 29398.8156 364.3131 422.5115
ENERGY: 600000 8.5666 9.7604 3.4108 0.0000 -10394.3426 1384.6298 0.0000 0.0000 1686.4664 -7301.5086 291.6387 -8987.9750 -7319.5830 299.3180 -173.6045 -70.5730 29630.5051 52.3398 111.7345
ENERGY: 900000 7.9537 7.8652 4.3386 0.0000 -10450.3998 1372.8832 0.0000 0.0000 1781.1514 -7276.2077 308.0124 -9057.3590 -7317.4779 300.4759 -392.4429 -293.0336 29432.8529 80.3129 146.0806
ENERGY: 1200000 5.2242 6.7272 2.2076 0.0000 -10324.8836 1320.0590 0.0000 0.0000 1748.2050 -7242.4606 302.3150 -8990.6656 -7318.6387 300.7462 -736.8898 -721.6598 30010.6452 12.3520 77.9819
ENERGY: 1500000 3.1824 6.0742 6.3626 0.0000 -10559.5782 1409.3368 0.0000 0.0000 1731.2192 -7403.4030 299.3777 -9134.6222 -7315.8596 301.2504 -294.3832 -254.6438 29255.9966 1.7748 63.1969
TCL: Running FEP window   4: Lambda1 0.15000000000000002 Lambda2 0.2    [dLambda 0.04999999999999999]
TCL: Setting parameter firsttimestep to 0
TCL: Setting parameter alchLambda to 0.15000000000000002
Info: NONBONDED TABLE R-SQUARED SPACING: 0.0625
Info: NONBONDED TABLE SIZE: 705 POINTS
TCL: Setting parameter alchLambda2 to 0.2
Info: NONBONDED TABLE R-SQUARED SPACING: 0.0625
Info: NONBONDED TABLE SIZE: 705 POINTS
TCL: Running for 1500000 steps
ETITLE: TS BOND ANGLE DIHED IMPRP ELECT VDW BOUNDARY MISC KINETIC TOTAL TEMP POTENTIAL TOTALAVG TEMPAVG PRESSURE GPRESSURE VOLUME PRESSAVG GPRESSAVG
ENERGY: 0 3.1824 6.0742 6.3626 0.0000 -10559.5790 1411.5461 0.0000 0.0000 1730.3724 -7402.0411 299.2313 -9132.4136 -7402.0411 299.2313 -326.8729 -239.8911 29255.9966 -326.8729 -239.8911
ENERGY: 300000 4.3981 9.4157 6.4616 0.0000 -10660.5727 1566.0919 0.0000 0.0000 1746.7407 -7327.4646 302.0618 -9074.2053 -7319.3755 300.0256 888.4600 983.2650 29704.9280 68.1849 148.0012
ENERGY: 600000 6.7737 9.8963 2.8492 0.0000 -10465.3644 1397.8004 0.0000 0.0000 1745.0842 -7302.9604 301.7754 -9048.0447 -7313.0612 299.6725 -656.6394 -611.5995 30254.0841 -255.8016 -195.2173
ENERGY: 900000 9.4775 7.3286 2.9262 0.0000 -10401.3543 1374.5422 0.0000 0.0000 1768.5809 -7238.4990 305.8386 -9007.0798 -7308.9289 300.6513 -384.0644 -306.3569 29487.7037 -135.8841 -72.6847
ENERGY: 1200000 3.9275 5.0035 3.7045 0.0000 -10576.3555 1421.6327 0.0000 0.0000 1716.1227 -7425.9645 296.7671 -9142.0873 -7317.1772 299.9691 -56.4063 81.6365 29321.6220 -136.5801 -69.8753
ENERGY: 1500000 5.5376 6.7406 7.0276 0.0000 -10572.8161 1451.9724 0.0000 0.0000 1797.3740 -7304.1640 310.8178 -9101.5379 -7321.8501 300.2294 -277.4054 -214.4078 30253.8176 -142.8806 -79.2198
TCL: Running FEP window   5: Lambda1 0.2    Lambda2 0.25   [dLambda 0.04999999999999999]
TCL: Setting parameter firsttimestep to 0
TCL: Setting parameter alchLambda to 0.2
Info: NONBONDED TABLE R-SQUARED SPACING: 0.0625
Info: NONBONDED TABLE SIZE: 705 POINTS
TCL: Setting parameter alchLambda2 to 0.25
Info: NONBONDED TABLE R-SQUARED SPACING: 0.0625
Info: NONBONDED TABLE SIZE: 705 POINTS
TCL: Running for 1500000 steps
ETITLE: TS BOND ANGLE DIHED IMPRP ELECT VDW BOUNDARY MISC KINETIC TOTAL TEMP POTENTIAL TOTALAVG TEMPAVG PRESSURE GPRESSURE VOLUME PRESSAVG GPRESSAVG
ENERGY: 0 5.5376 6.7406 7.0276 0.0000 -10572.8160 1451.4189 0.0000 0.0000 1796.4975 -7305.5938 310.6662 -9102.0913 -7305.5938 310.6662 -290.0438 -213.6182 30253.8176 -290.0438 -213.6182
ENERGY: 300000 2.5212 7.0038 8.1966 0.0000 -10402.4225 1371.8354 0.0000 0.0000 1683.4005 -7329.4650 291.1085 -9012.8655 -7308.7641 303.4141 -221.5090 -197.9114 30021.1913 -113.6991 -37.3962
ENERGY: 600000 4.6421 7.0374 7.3138 0.0000 -10521.9587 1459.6838 0.0000 0.0000 1738.5227 -7304.7589 300.6407 -9043.2816 -7291.6001 301.6924 247.5245 302.1978 29833.4330 2.7683 80.9582
ENERGY: 900000 4.1244 7.7351 2.2355 0.0000 -10457.0312 1361.1197 0.0000 0.0000 1750.3162 -7331.5003 302.6801 -9081.8165 -7305.7668 299.8115 -715.2304 -697.7533 30282.0025 -110.2353 -34.2980
ENERGY: 1200000 5.1645 7.9550 2.6965 0.0000 -10500.1556 1391.0536 0.0000 0.0000 1783.3229 -7309.9631 308.3879 -9093.2860 -7306.9594 299.6973 -370.7076 -227.5295 29631.6982 -51.6172 24.7110
ENERGY: 1500000 5.1836 7.3249 7.1451 0.0000 -10455.8399 1453.7951 0.0000 0.0000 1700.9007 -7281.4905 294.1348 -8982.3912 -7303.8083 299.4396 332.3221 434.9528 29776.6934 15.6580 91.0390
TCL: Running FEP window   6: Lambda1 0.25   Lambda2 0.3    [dLambda 0.04999999999999999]
TCL: Setting parameter firsttimestep to 0
TCL: Setting parameter alchLambda to 0.25
Info: NONBONDED TABLE R-SQUARED SPACING: 0.0625
Info: NONBONDED TABLE SIZE: 705 POINTS
TCL: Setting parameter alchLambda2 to 0.3
Info: NONBONDED TABLE R-SQUARED SPACING: 0.0625
Info: NONBONDED TABLE SIZE: 705 POINTS
TCL: Running for 1500000 steps
ETITLE: TS BOND ANGLE DIHED IMPRP ELECT VDW BOUNDARY MISC KINETIC TOTAL TEMP POTENTIAL TOTALAVG TEMPAVG PRESSURE GPRESSURE VOLUME PRESSAVG GPRESSAVG
ENERGY: 0 5.1836 7.3249 7.1451 0.0000 -10455.8378 1453.9313 0.0000 0.0000 1700.0161 -7282.2367 293.9818 -8982.2529 -7282.2367 293.9818 339.5572 443.1785 29776.6934 339.5572 443.1785
ENERGY: 300000 3.3138 9.5286 5.3721 0.0000 -10418.9603 1347.4752 0.0000 0.0000 1747.7594 -7305.5113 302.2380 -9053.2707 -7279.8801 300.0968 -276.1389 -238.8227 29535.2269 73.2599 134.6874
ENERGY: 600000 4.2239 4.6525 3.5494 0.0000 -10501.3006 1414.7775 0.0000 0.0000 1709.0815 -7365.0158 295.5495 -9074.0973 -7318.7529 298.4425 -61.7470 -78.0707 29556.8404 -51.1366 3.7831
ENERGY: 900000 3.8827 8.0694 3.1067 0.0000 -10358.4660 1360.7160 0.0000 0.0000 1752.4629 -7230.2285 303.0514 -8982.6913 -7308.9332 298.5314 -101.7484 -76.2853 29410.8752 -14.3900 31.7006
ENERGY: 1200000 8.9619 9.2262 2.7034 0.0000 -10416.7085 1394.9343 0.0000 0.0000 1718.2723 -7282.6105 297.1388 -9000.8828 -7305.0197 299.7303 -325.4914 -236.6492 30204.2252 -43.3377 6.3728
ENERGY: 1500000 5.8699 8.8060 5.2051 0.0000 -10466.6260 1433.6530 0.0000 0.0000 1714.3561 -7298.7359 296.4616 -9013.0919 -7306.0582 299.4110 -221.8000 -160.2414 30247.6238 -92.6585 -42.7742
TCL: Running FEP window   7: Lambda1 0.3    Lambda2 0.35   [dLambda 0.04999999999999999]
TCL: Setting parameter firsttimestep to 0
TCL: Setting parameter alchLambda to 0.3
Info: NONBONDED TABLE R-SQUARED SPACING: 0.0625
Info: NONBONDED TABLE SIZE: 705 POINTS
TCL: Setting parameter alchLambda2 to 0.35
Info: NONBONDED TABLE R-SQUARED SPACING: 0.0625
Info: NONBONDED TABLE SIZE: 705 POINTS
TCL: Running for 1500000 steps
ETITLE: TS BOND ANGLE DIHED IMPRP ELECT VDW BOUNDARY MISC KINETIC TOTAL TEMP POTENTIAL TOTALAVG TEMPAVG PRESSURE GPRESSURE VOLUME PRESSAVG GPRESSAVG
ENERGY: 0 5.8699 8.8060 5.2051 0.0000 -10466.6256 1434.5568 0.0000 0.0000 1713.4722 -7298.7156 296.3087 -9012.1878 -7298.7156 296.3087 -218.8867 -153.2197 30247.6238 -218.8867 -153.2197
ENERGY: 300000 3.4574 6.3152 4.2120 0.0000 -10473.3262 1371.9540 0.0000 0.0000 1704.2799 -7383.1077 294.7191 -9087.3876 -7332.5392 298.2176 -209.5165 -195.1430 29572.4918 -67.7260 -12.5131
ENERGY: 600000 4.0844 6.3123 4.9693 0.0000 -10514.1629 1396.9227 0.0000 0.0000 1715.9601 -7385.9142 296.7390 -9101.8742 -7323.9828 300.6539 -233.9332 -205.6870 29726.5541 41.5199 81.7702
ENERGY: 900000 5.5046 10.1291 3.6926 0.0000 -10563.8183 1435.8687 0.0000 0.0000 1718.5975 -7390.0258 297.1951 -9108.6233 -7317.2706 300.8464 36.6085 86.5114 29816.3809 6.5213 52.6402
ENERGY: 1200000 3.8857 11.8418 6.5136 0.0000 -10394.8264 1372.8035 0.0000 0.0000 1730.5444 -7269.2374 299.2610 -8999.7818 -7312.1051 300.6338 -305.4699 -262.3193 29945.9823 -93.9947 -46.0326
ENERGY: 1500000 7.5804 8.6484 5.2232 0.0000 -10499.3127 1429.7493 0.0000 0.0000 1795.5923 -7252.5191 310.5097 -9048.1115 -7299.1016 301.5929 -77.5062 -31.8104 29916.5988 -92.9071 -46.3431
TCL: Running FEP window   8: Lambda1 0.35   Lambda2 0.39999999999999997 [dLambda 0.04999999999999999]
TCL: Setting parameter firsttimestep to 0
TCL: Setting parameter alchLambda to 0.35
Info: NONBONDED TABLE R-SQUARED SPACING: 0.0625
Info: NONBONDED TABLE SIZE: 705 POINTS
TCL: Setting parameter alchLambda2 to 0.39999999999999997
Info: NONBONDED TABLE R-SQUARED SPACING: 0.0625
Info: NONBONDED TABLE SIZE: 705 POINTS
TCL: Running for 1500000 steps
ETITLE: TS BOND ANGLE DIHED IMPRP ELECT VDW BOUNDARY MISC KINETIC TOTAL TEMP POTENTIAL TOTALAVG TEMPAVG PRESSURE GPRESSURE VOLUME PRESSAVG GPRESSAVG
ENERGY: 0 7.5803 8.6484 5.2232 0.0000 -10499.3139 1429.8021 0.0000 0.0000 1794.7285 -7253.3314 310.3603 -9048.0599 -7253.3314 310.3603 -110.2467 -26.1206 29916.5988 -110.2467 -26.1206
ENERGY: 300000 4.1471 9.2680 3.4350 0.0000 -10414.0572 1360.3062 0.0000 0.0000 1695.2544 -7341.6466 293.1584 -9036.9010 -7306.0088 301.3818 -649.8653 -602.8262 29965.8616 -371.0713 -308.1197
ENERGY: 600000 3.6926 12.0916 3.2356 0.0000 -10441.1656 1389.4467 0.0000 0.0000 1695.1687 -7337.5305 293.1435 -9032.6992 -7305.8908 299.5083 -347.9571 -345.1740 30124.1388 -190.8881 -131.1087
ENERGY: 900000 4.8962 5.0777 2.2861 0.0000 -10485.2979 1428.3190 0.0000 0.0000 1729.6158 -7315.1030 299.1004 -9044.7189 -7301.1133 299.2343 136.0365 174.9564 29459.0987 -240.3960 -185.5476
ENERGY: 1200000 2.1589 10.8934 6.4247 0.0000 -10614.4839 1538.7190 0.0000 0.0000 1731.2665 -7325.0214 299.3859 -9056.2879 -7304.1421 299.9492 943.2453 1033.3952 29541.0707 -8.1708 48.6734
ENERGY: 1500000 3.4897 8.1652 3.1764 0.0000 -10541.4664 1422.7923 0.0000 0.0000 1753.7240 -7350.1188 303.2694 -9103.8428 -7315.6562 299.9137 14.6785 85.4856 29693.7289 -32.9105 23.6905
TCL: Running FEP window   9: Lambda1 0.39999999999999997 Lambda2 0.44999999999999996 [dLambda 0.04999999999999999]
TCL: Setting parameter firsttimestep to 0
TCL: Setting parameter alchLambda to 0.39999999999999997
Info: NONBONDED TABLE R-SQUARED SPACING: 0.0625
Info: NONBONDED TABLE SIZE: 705 POINTS
TCL: Setting parameter alchLambda2 to 0.44999999999999996
Info: NONBONDED TABLE R-SQUARED SPACING: 0.0625
Info: NONBONDED TABLE SIZE: 705 POINTS
TCL: Running for 1500000 steps
ETITLE: TS BOND ANGLE DIHED IMPRP ELECT VDW BOUNDARY MISC KINETIC TOTAL TEMP POTENTIAL TOTALAVG TEMPAVG PRESSURE GPRESSURE VOLUME PRESSAVG GPRESSAVG
ENERGY: 0 3.4897 8.1652 3.1764 0.0000 -10541.4655 1423.6138 0.0000 0.0000 1752.8720 -7350.1483 303.1221 -9103.0203 -7350.1483 303.1221 7.2821 97.2458 29693.7289 7.2821 97.2458
ENERGY: 300000 8.1420 5.3253 3.9751 0.0000 -10539.6172 1436.5779 0.0000 0.0000 1724.7173 -7360.8796 298.2533 -9085.5969 -7366.1597 297.9323 81.8750 145.3776 29612.3869 -143.3887 -84.9111
ENERGY: 600000 5.1322 8.4863 2.6723 0.0000 -10454.7491 1382.3504 0.0000 0.0000 1738.7952 -7317.3128 300.6878 -9056.1079 -7332.7307 298.1445 -312.6914 -264.3563 29670.2660 -259.1703 -187.4329
ENERGY: 900000 9.1403 6.9602 4.8958 0.0000 -10487.5192 1403.4629 0.0000 0.0000 1717.2103 -7345.8497 296.9552 -9063.0600 -7324.9390 298.7742 -349.5123 -287.1684 29596.4382 -278.0374 -219.2538
ENERGY: 1200000 4.7376 5.9187 4.4800 0.0000 -10570.4701 1465.4494 0.0000 0.0000 1706.9441 -7382.9403 295.1798 -9089.8844 -7328.5956 298.5735 149.0531 194.2281 29712.3203 -189.9766 -134.2676
ENERGY: 1500000 3.7934 5.5789 4.8310 0.0000 -10603.6904 1520.4546 0.0000 0.0000 1698.2370 -7370.7955 293.6741 -9069.0325 -7325.4069 298.0202 608.5604 703.6646 29808.1470 -113.4583 -53.4514
TCL: Running FEP window  10: Lambda1 0.44999999999999996 Lambda2 0.49999999999999994 [dLambda 0.04999999999999999]
TCL: Setting parameter firsttimestep to 0
TCL: Setting parameter alchLambda to 0.44999999999999996
Info: NONBONDED TABLE R-SQUARED SPACING: 0.0625
Info: NONBONDED TABLE SIZE: 705 POINTS
TCL: Setting parameter alchLambda2 to 0.49999999999999994
Info: NONBONDED TABLE R-SQUARED SPACING: 0.0625
Info: NONBONDED TABLE SIZE: 705 POINTS
TCL: Running for 1500000 steps
ETITLE: TS BOND ANGLE DIHED IMPRP ELECT VDW BOUNDARY MISC KINETIC TOTAL TEMP POTENTIAL TOTALAVG TEMPAVG PRESSURE GPRESSURE VOLUME PRESSAVG GPRESSAVG
ENERGY: 0 3.7934 5.5789 4.8310 0.0000 -10603.6892 1520.3762 0.0000 0.0000 1697.3654 -7371.7442 293.5234 -9069.1097 -7371.7442 293.5234 622.7035 710.9049 29808.1470 622.7035 710.9049
ENERGY: 300000 7.1386 8.4620 2.7909 0.0000 -10446.7795 1330.3476 0.0000 0.0000 1745.0173 -7353.0232 301.7638 -9098.0404 -7366.8760 299.9774 -790.5306 -756.7559 29487.2074 329.2653 355.3113
ENERGY: 600000 6.1594 11.1536 7.4477 0.0000 -10508.1766 1453.5477 0.0000 0.0000 1741.4086 -7288.4595 301.1398 -9029.8681 -7331.5679 299.7867 166.3792 255.1045 30037.8588 240.5400 287.5833
ENERGY: 900000 5.1321 8.0164 8.1484 0.0000 -10527.9164 1390.1167 0.0000 0.0000 1739.3006 -7377.2022 300.7752 -9116.5028 -7334.9326 299.6969 -356.2384 -310.9189 29471.7833 26.8982 73.8941
ENERGY: 1200000 5.7059 6.0373 3.4218 0.0000 -10440.5807 1416.1441 0.0000 0.0000 1754.2910 -7254.9807 303.3675 -9009.2717 -7321.8628 299.3517 89.2012 142.5050 30191.3772 47.9628 96.5489
ENERGY: 1500000 3.8747 8.7467 5.9423 0.0000 -10527.3987 1432.9755 0.0000 0.0000 1771.4314 -7304.4282 306.3316 -9075.8596 -7313.1354 300.1428 242.8049 298.2035 29650.5423 -11.4318 40.0565
TCL: Running FEP window  11: Lambda1 0.49999999999999994 Lambda2 0.5499999999999999 [dLambda 0.04999999999999999]
TCL: Setting parameter firsttimestep to 0
TCL: Setting parameter alchLambda to 0.49999999999999994
Info: NONBONDED TABLE R-SQUARED SPACING: 0.0625
Info: NONBONDED TABLE SIZE: 705 POINTS
TCL: Setting parameter alchLambda2 to 0.5499999999999999
Info: NONBONDED TABLE R-SQUARED SPACING: 0.0625
Info: NONBONDED TABLE SIZE: 705 POINTS
TCL: Running for 1500000 steps
ETITLE: TS BOND ANGLE DIHED IMPRP ELECT VDW BOUNDARY MISC KINETIC TOTAL TEMP POTENTIAL TOTALAVG TEMPAVG PRESSURE GPRESSURE VOLUME PRESSAVG GPRESSAVG
ENERGY: 0 3.8747 8.7467 5.9423 0.0000 -10527.3990 1433.0203 0.0000 0.0000 1770.5442 -7305.2709 306.1781 -9075.8150 -7305.2709 306.1781 206.3628 311.1171 29650.5423 206.3628 311.1171
ENERGY: 300000 6.6565 8.6234 7.3995 0.0000 -10494.2505 1462.4623 0.0000 0.0000 1778.1923 -7230.9165 307.5007 -9009.1088 -7277.4435 304.4424 348.8531 390.9831 29962.0484 -38.1365 38.2986
ENERGY: 600000 4.3553 13.7279 3.5234 0.0000 -10385.9658 1323.7232 0.0000 0.0000 1716.9805 -7323.6553 296.9154 -9040.6359 -7312.8548 301.3281 -752.9868 -673.5839 29889.3671 -185.4749 -99.5079
ENERGY: 900000 6.0802 5.6442 3.8688 0.0000 -10476.8627 1448.6450 0.0000 0.0000 1766.3455 -7246.2790 305.4521 -9012.6245 -7303.3443 301.5929 358.2577 384.6181 29979.6022 -113.0736 -33.6732
ENERGY: 1200000 4.8959 9.1312 6.1621 0.0000 -10561.0958 1495.6227 0.0000 0.0000 1687.5651 -7357.7187 291.8287 -9045.2838 -7301.7685 300.2351 627.6508 701.8944 29937.2179 -34.4552 30.5478
ENERGY: 1500000 3.9172 5.1488 2.3302 0.0000 -10370.5821 1404.9418 0.0000 0.0000 1776.0792 -7178.1651 307.1353 -8954.2442 -7296.5379 299.6171 197.6299 295.5232 29860.5527 -45.9032 19.8119
TCL: Running FEP window  12: Lambda1 0.5499999999999999 Lambda2 0.6    [dLambda 0.050000000000000044]
TCL: Setting parameter firsttimestep to 0
TCL: Setting parameter alchLambda to 0.5499999999999999
Info: NONBONDED TABLE R-SQUARED SPACING: 0.0625
Info: NONBONDED TABLE SIZE: 705 POINTS
TCL: Setting parameter alchLambda2 to 0.6
Info: NONBONDED TABLE R-SQUARED SPACING: 0.0625
Info: NONBONDED TABLE SIZE: 705 POINTS
TCL: Running for 1500000 steps
ETITLE: TS BOND ANGLE DIHED IMPRP ELECT VDW BOUNDARY MISC KINETIC TOTAL TEMP POTENTIAL TOTALAVG TEMPAVG PRESSURE GPRESSURE VOLUME PRESSAVG GPRESSAVG
ENERGY: 0 3.9172 5.1488 2.3302 0.0000 -10369.9359 1404.3511 0.0000 0.0000 1775.2451 -7178.9436 306.9910 -8954.1887 -7178.9436 306.9910 213.7630 298.4574 29860.5527 213.7630 298.4574
ENERGY: 300000 9.1352 10.0200 3.9393 0.0000 -10506.2703 1434.9932 0.0000 0.0000 1693.7233 -7354.4593 292.8936 -9048.1826 -7289.7848 300.4474 -276.9987 -278.5450 30266.4119 -103.2128 -78.8550
ENERGY: 600000 9.0219 7.5288 4.0025 0.0000 -10424.2366 1396.4781 0.0000 0.0000 1740.1892 -7267.0161 300.9289 -9007.2053 -7286.5897 302.5792 -244.9372 -224.2067 30393.0151 -99.1513 -59.8516
ENERGY: 900000 4.8796 5.1339 7.4097 0.0000 -10367.0679 1290.9879 0.0000 0.0000 1743.4917 -7315.1651 301.5000 -9058.6568 -7283.1353 303.2184 -852.9654 -846.9894 29755.5891 -162.6725 -116.5639
ENERGY: 1200000 4.3347 7.6647 2.6008 0.0000 -10498.6405 1390.8050 0.0000 0.0000 1715.9062 -7377.3292 296.7296 -9093.2354 -7288.4651 302.4469 -531.0976 -438.5614 30236.9080 -121.2333 -80.1981
ENERGY: 1500000 4.1197 9.2221 5.1179 0.0000 -10557.7126 1452.9908 0.0000 0.0000 1725.5606 -7360.7016 298.3992 -9086.2622 -7295.0245 302.0629 282.1845 360.6519 29798.8413 -104.6114 -61.9818
TCL: Running FEP window  13: Lambda1 0.6    Lambda2 0.65   [dLambda 0.050000000000000044]
TCL: Setting parameter firsttimestep to 0
TCL: Setting parameter alchLambda to 0.6
Info: NONBONDED TABLE R-SQUARED SPACING: 0.0625
Info: NONBONDED TABLE SIZE: 705 POINTS
TCL: Setting parameter alchLambda2 to 0.65
Info: NONBONDED TABLE R-SQUARED SPACING: 0.0625
Info: NONBONDED TABLE SIZE: 705 POINTS
TCL: Running for 1500000 steps
ETITLE: TS BOND ANGLE DIHED IMPRP ELECT VDW BOUNDARY MISC KINETIC TOTAL TEMP POTENTIAL TOTALAVG TEMPAVG PRESSURE GPRESSURE VOLUME PRESSAVG GPRESSAVG
ENERGY: 0 4.1197 9.2221 5.1179 0.0000 -10558.2652 1453.6091 0.0000 0.0000 1724.7191 -7361.4774 298.2536 -9086.1964 -7361.4774 298.2536 305.8836 373.0362 29798.8413 305.8836 373.0362
ENERGY: 300000 4.2567 7.0166 2.2888 0.0000 -10471.9231 1403.5624 0.0000 0.0000 1706.0214 -7348.7771 295.0203 -9054.7985 -7308.9599 299.2969 108.7156 106.0023 29917.5830 432.4066 477.1262
ENERGY: 600000 4.4909 7.6626 5.2920 0.0000 -10598.6381 1421.8665 0.0000 0.0000 1722.0327 -7437.2935 297.7891 -9159.3262 -7354.2069 298.6803 -49.5104 48.3450 29483.8011 317.0454 377.9132
ENERGY: 900000 5.4238 7.5583 6.7652 0.0000 -10413.0942 1347.8635 0.0000 0.0000 1761.8962 -7283.5873 304.6826 -9045.4835 -7336.0378 299.9072 -527.7072 -466.5275 29812.6983 241.3474 301.3463
ENERGY: 1200000 3.2845 10.9557 2.9198 0.0000 -10316.1758 1356.9908 0.0000 0.0000 1765.3532 -7176.6717 305.2805 -8942.0249 -7324.3427 300.0557 -354.0400 -331.0170 30389.5710 117.6560 177.8562
ENERGY: 1500000 5.9264 8.5667 5.4221 0.0000 -10427.0738 1390.9358 0.0000 0.0000 1709.6132 -7306.6097 295.6414 -9016.2229 -7323.8730 299.9661 -68.1374 -24.1880 29690.6613 187.9253 247.5539
TCL: Running FEP window  14: Lambda1 0.65   Lambda2 0.7000000000000001 [dLambda 0.050000000000000044]
TCL: Setting parameter firsttimestep to 0
TCL: Setting parameter alchLambda to 0.65
Info: NONBONDED TABLE R-SQUARED SPACING: 0.0625
Info: NONBONDED TABLE SIZE: 705 POINTS
TCL: Setting parameter alchLambda2 to 0.7000000000000001
Info: NONBONDED TABLE R-SQUARED SPACING: 0.0625
Info: NONBONDED TABLE SIZE: 705 POINTS
TCL: Running for 1500000 steps
ETITLE: TS BOND ANGLE DIHED IMPRP ELECT VDW BOUNDARY MISC KINETIC TOTAL TEMP POTENTIAL TOTALAVG TEMPAVG PRESSURE GPRESSURE VOLUME PRESSAVG GPRESSAVG
ENERGY: 0 5.9264 8.5667 5.4221 0.0000 -10428.1803 1391.5621 0.0000 0.0000 1708.7341 -7307.9690 295.4894 -9016.7031 -7307.9690 295.4894 -96.9460 -9.2196 29690.6613 -96.9460 -9.2196
ENERGY: 300000 5.6972 10.0091 3.4308 0.0000 -10459.8875 1423.1502 0.0000 0.0000 1768.5235 -7249.0767 305.8287 -9017.6002 -7312.8142 297.0910 132.1206 185.5034 30127.7886 114.7488 188.6139
ENERGY: 600000 3.3399 6.4776 3.8393 0.0000 -10458.9861 1392.1078 0.0000 0.0000 1800.2242 -7252.9973 311.3107 -9053.2215 -7305.3587 299.3358 4.5784 26.5050 29787.1037 57.6184 106.5917
ENERGY: 900000 4.5179 5.8456 5.8308 0.0000 -10478.6769 1423.7658 0.0000 0.0000 1740.1688 -7298.5480 300.9253 -9038.7168 -7308.2060 299.6416 250.9628 266.1540 29708.2688 95.3164 150.3688
ENERGY: 1200000 9.6664 8.3744 4.7175 0.0000 -10499.6103 1382.4228 0.0000 0.0000 1619.2778 -7475.1514 280.0198 -9094.4292 -7323.9571 298.1431 -584.8231 -502.8687 29954.5337 -25.6007 37.7552
ENERGY: 1500000 5.0975 9.5893 5.3668 0.0000 -10448.6999 1416.3332 0.0000 0.0000 1719.1292 -7293.1838 297.2870 -9012.3130 -7316.3185 298.4810 -52.3187 -11.6481 30109.5505 -51.6489 11.2622
TCL: Running FEP window  15: Lambda1 0.7000000000000001 Lambda2 0.7500000000000001 [dLambda 0.050000000000000044]
TCL: Setting parameter firsttimestep to 0
TCL: Setting parameter alchLambda to 0.7000000000000001
Info: NONBONDED TABLE R-SQUARED SPACING: 0.0625
Info: NONBONDED TABLE SIZE: 705 POINTS
TCL: Setting parameter alchLambda2 to 0.7500000000000001
Info: NONBONDED TABLE R-SQUARED SPACING: 0.0625
Info: NONBONDED TABLE SIZE: 705 POINTS
TCL: Running for 1500000 steps
ETITLE: TS BOND ANGLE DIHED IMPRP ELECT VDW BOUNDARY MISC KINETIC TOTAL TEMP POTENTIAL TOTALAVG TEMPAVG PRESSURE GPRESSURE VOLUME PRESSAVG GPRESSAVG
ENERGY: 0 5.0975 9.5893 5.3668 0.0000 -10449.5434 1415.9025 0.0000 0.0000 1718.2503 -7295.3369 297.1350 -9013.5873 -7295.3369 297.1350 -93.7370 -4.8691 30109.5505 -93.7370 -4.8691
ENERGY: 300000 4.0772 7.1747 4.9549 0.0000 -10448.6886 1357.2749 0.0000 0.0000 1726.0742 -7349.1327 298.4880 -9075.2069 -7332.6137 299.8400 -365.6329 -252.3579 29625.1766 -229.1859 -166.3308
ENERGY: 600000 3.4700 9.2932 3.2082 0.0000 -10508.1822 1410.7806 0.0000 0.0000 1711.0502 -7370.3800 295.8899 -9081.4302 -7323.5712 300.2907 -57.5170 19.1433 29777.6179 -120.9168 -65.1906
ENERGY: 900000 5.7828 9.2720 6.1754 0.0000 -10412.1494 1417.3007 0.0000 0.0000 1709.3381 -7264.2803 295.5938 -8973.6184 -7307.0174 299.6079 66.3265 144.3574 30184.2204 -242.2049 -181.3411
ENERGY: 1200000 3.2070 8.9324 6.6765 0.0000 -10405.1798 1295.7864 0.0000 0.0000 1690.4392 -7400.1383 292.3257 -9090.5775 -7312.3923 300.1075 -966.1371 -920.3611 29532.8839 -324.1197 -267.0534
ENERGY: 1500000 3.1384 7.4180 3.0574 0.0000 -10451.4459 1335.5373 0.0000 0.0000 1755.9301 -7346.3647 303.6509 -9102.2948 -7318.7536 299.7911 -733.2146 -693.7127 29995.6975 -332.8435 -277.5414
TCL: Running FEP window  16: Lambda1 0.7500000000000001 Lambda2 0.8000000000000002 [dLambda 0.050000000000000044]
TCL: Setting parameter firsttimestep to 0
TCL: Setting parameter alchLambda to 0.7500000000000001
Info: NONBONDED TABLE R-SQUARED SPACING: 0.0625
Info: NONBONDED TABLE SIZE: 705 POINTS
TCL: Setting parameter alchLambda2 to 0.8000000000000002
Info: NONBONDED TABLE R-SQUARED SPACING: 0.0625
Info: NONBONDED TABLE SIZE: 705 POINTS
TCL: Running for 1500000 steps
ETITLE: TS BOND ANGLE DIHED IMPRP ELECT VDW BOUNDARY MISC KINETIC TOTAL TEMP POTENTIAL TOTALAVG TEMPAVG PRESSURE GPRESSURE VOLUME PRESSAVG GPRESSAVG
ENERGY: 0 3.1384 7.4180 3.0574 0.0000 -10452.2116 1335.7721 0.0000 0.0000 1755.0561 -7347.7696 303.4998 -9102.8257 -7347.7696 303.4998 -755.7492 -681.0148 29995.6975 -755.7492 -681.0148
ENERGY: 300000 2.6983 10.4093 3.7219 0.0000 -10411.3401 1320.9931 0.0000 0.0000 1699.1354 -7374.3821 293.8295 -9073.5175 -7347.6454 297.8091 -727.9139 -676.7602 29940.2818 -696.5109 -626.0845
ENERGY: 600000 5.3854 3.9870 3.5169 0.0000 -10595.3131 1487.2878 0.0000 0.0000 1739.7814 -7355.3547 300.8584 -9095.1361 -7331.0690 301.3906 501.9018 572.9404 29863.3476 -220.8909 -158.7802
ENERGY: 900000 2.3876 8.2313 5.0792 0.0000 -10449.9337 1456.3267 0.0000 0.0000 1777.5635 -7200.3453 307.3920 -8977.9089 -7312.0742 302.0569 881.6099 1012.4690 29499.2839 37.0089 108.6310
ENERGY: 1200000 3.1018 6.6373 3.6520 0.0000 -10507.2618 1448.1615 0.0000 0.0000 1702.5233 -7343.1858 294.4154 -9045.7092 -7314.9105 301.5086 422.3080 388.4173 30139.4690 79.8704 136.2211
ENERGY: 1500000 6.1867 10.7797 4.1025 0.0000 -10376.2631 1307.7857 0.0000 0.0000 1700.5976 -7346.8110 294.0824 -9047.4086 -7311.9762 301.5787 -905.6287 -886.2085 30160.2668 34.5925 88.1621
TCL: Running FEP window  17: Lambda1 0.8000000000000002 Lambda2 0.8500000000000002 [dLambda 0.050000000000000044]
TCL: Setting parameter firsttimestep to 0
TCL: Setting parameter alchLambda to 0.8000000000000002
Info: NONBONDED TABLE R-SQUARED SPACING: 0.0625
Info: NONBONDED TABLE SIZE: 705 POINTS
TCL: Setting parameter alchLambda2 to 0.8500000000000002
Info: NONBONDED TABLE R-SQUARED SPACING: 0.0625
Info: NONBONDED TABLE SIZE: 705 POINTS
TCL: Running for 1500000 steps
ETITLE: TS BOND ANGLE DIHED IMPRP ELECT VDW BOUNDARY MISC KINETIC TOTAL TEMP POTENTIAL TOTALAVG TEMPAVG PRESSURE GPRESSURE VOLUME PRESSAVG GPRESSAVG
ENERGY: 0 6.1867 10.7797 4.1025 0.0000 -10376.3230 1308.0130 0.0000 0.0000 1699.7148 -7347.5263 293.9297 -9047.2411 -7347.5263 293.9297 -936.2850 -871.7310 30160.2668 -936.2850 -871.7310
ENERGY: 300000 2.6846 5.3269 4.7408 0.0000 -10354.7724 1314.9121 0.0000 0.0000 1723.0234 -7304.0846 297.9604 -9027.1080 -7323.7204 296.0828 -617.0389 -522.1975 29717.4813 -311.2451 -247.6515
ENERGY: 600000 5.2209 8.8501 1.7603 0.0000 -10530.0451 1445.4568 0.0000 0.0000 1688.9641 -7379.7929 292.0706 -9068.7570 -7329.8046 296.6360 18.5745 82.7770 30073.2555 -285.0082 -223.8033
ENERGY: 900000 7.6744 6.9876 4.5773 0.0000 -10509.4488 1407.1450 0.0000 0.0000 1705.2422 -7377.8222 294.8855 -9083.0644 -7317.5507 299.0578 -482.2698 -389.3787 29858.8716 -309.1763 -239.0220
ENERGY: 1200000 4.1927 4.5572 3.9556 0.0000 -10609.3797 1530.2650 0.0000 0.0000 1748.7550 -7317.6542 302.4101 -9066.4091 -7315.5851 299.7941 963.6148 982.4881 30003.6385 -81.8748 -16.1654
ENERGY: 1500000 4.5850 8.7891 3.0164 0.0000 -10511.8293 1469.3700 0.0000 0.0000 1726.2377 -7299.8312 298.5163 -9026.0689 -7312.9750 299.8418 494.7574 514.3841 29805.0319 -22.8997 34.6373
TCL: Running FEP window  18: Lambda1 0.8500000000000002 Lambda2 0.9000000000000002 [dLambda 0.050000000000000044]
TCL: Setting parameter firsttimestep to 0
TCL: Setting parameter alchLambda to 0.8500000000000002
Info: NONBONDED TABLE R-SQUARED SPACING: 0.0625
Info: NONBONDED TABLE SIZE: 705 POINTS
TCL: Setting parameter alchLambda2 to 0.9000000000000002
Info: NONBONDED TABLE R-SQUARED SPACING: 0.0625
Info: NONBONDED TABLE SIZE: 705 POINTS
TCL: Running for 1500000 steps
ETITLE: TS BOND ANGLE DIHED IMPRP ELECT VDW BOUNDARY MISC KINETIC TOTAL TEMP POTENTIAL TOTALAVG TEMPAVG PRESSURE GPRESSURE VOLUME PRESSAVG GPRESSAVG
ENERGY: 0 4.5850 8.7891 3.0164 0.0000 -10512.8158 1470.6554 0.0000 0.0000 1725.3449 -7300.4251 298.3619 -9025.7699 -7300.4251 298.3619 465.5612 543.1512 29805.0319 465.5612 543.1512
ENERGY: 300000 4.0540 5.8555 4.6713 0.0000 -10435.8790 1415.8503 0.0000 0.0000 1780.0621 -7225.3857 307.8241 -9005.4478 -7278.8129 303.0547 343.9550 354.0457 29845.9681 506.9705 595.6729
ENERGY: 600000 3.3973 9.1076 5.4426 0.0000 -10520.6302 1388.5889 0.0000 0.0000 1736.6709 -7377.4228 300.3205 -9114.0937 -7301.5234 301.6029 -364.5865 -251.3825 29672.4076 218.2471 307.4099
ENERGY: 900000 5.4462 5.5009 5.9766 0.0000 -10422.7742 1400.3606 0.0000 0.0000 1751.6195 -7253.8704 302.9055 -9005.4899 -7303.1533 300.8252 -311.2738 -239.4988 30499.6154 147.9271 219.2591
ENERGY: 1200000 5.2098 8.1429 2.9852 0.0000 -10557.0661 1483.9050 0.0000 0.0000 1740.1442 -7316.6790 300.9211 -9056.8231 -7306.3548 300.7788 731.3634 745.5350 29489.1109 167.5487 238.9676
ENERGY: 1500000 3.8109 5.6478 7.1141 0.0000 -10513.7095 1445.9407 0.0000 0.0000 1707.2967 -7343.8993 295.2408 -9051.1960 -7313.7392 299.9619 -15.1692 95.5841 30101.9184 116.2237 190.5811
TCL: Running FEP window  19: Lambda1 0.9000000000000002 Lambda2 0.9500000000000003 [dLambda 0.050000000000000044]
TCL: Setting parameter firsttimestep to 0
TCL: Setting parameter alchLambda to 0.9000000000000002
Info: NONBONDED TABLE R-SQUARED SPACING: 0.0625
Info: NONBONDED TABLE SIZE: 705 POINTS
TCL: Setting parameter alchLambda2 to 0.9500000000000003
Info: NONBONDED TABLE R-SQUARED SPACING: 0.0625
Info: NONBONDED TABLE SIZE: 705 POINTS
TCL: Running for 1500000 steps
ETITLE: TS BOND ANGLE DIHED IMPRP ELECT VDW BOUNDARY MISC KINETIC TOTAL TEMP POTENTIAL TOTALAVG TEMPAVG PRESSURE GPRESSURE VOLUME PRESSAVG GPRESSAVG
ENERGY: 0 3.8109 5.6478 7.1141 0.0000 -10514.5814 1445.5084 0.0000 0.0000 1706.4350 -7346.0652 295.0918 -9052.5002 -7346.0652 295.0918 17.6934 104.6136 30101.9184 17.6934 104.6136
ENERGY: 300000 5.5366 12.3968 6.8332 0.0000 -10515.2884 1362.0641 0.0000 0.0000 1813.0802 -7315.3776 313.5338 -9128.4577 -7298.3293 302.8345 -707.8276 -646.3454 30273.5499 -324.4233 -250.6004
ENERGY: 600000 7.5195 7.9323 1.8732 0.0000 -10525.2319 1443.9899 0.0000 0.0000 1751.9637 -7311.9533 302.9650 -9063.9170 -7319.6702 301.9634 360.5412 350.9911 29773.9314 -88.4379 -46.3392
ENERGY: 900000 3.4138 6.9942 2.2945 0.0000 -10518.0628 1366.6725 0.0000 0.0000 1736.2635 -7402.4243 300.2500 -9138.6878 -7328.1638 302.0073 -568.6557 -482.7913 29904.3695 -273.4983 -225.1672
ENERGY: 1200000 2.3872 6.1206 4.5863 0.0000 -10560.0764 1511.7426 0.0000 0.0000 1702.8246 -7332.4151 294.4675 -9035.2397 -7331.0800 301.0720 1268.0052 1318.9836 29404.0914 -75.6667 -20.6886
ENERGY: 1500000 1.9425 6.3019 2.7590 0.0000 -10368.8602 1369.7496 0.0000 0.0000 1748.4060 -7239.7013 302.3498 -8988.1073 -7327.3095 300.5460 47.5192 111.0669 29845.0134 14.7444 70.0150
TCL: Running FEP window  20: Lambda1 0.9500000000000003 Lambda2 1.0    [dLambda 0.04999999999999971]
TCL: Setting parameter firsttimestep to 0
TCL: Setting parameter alchLambda to 0.9500000000000003
Info: NONBONDED TABLE R-SQUARED SPACING: 0.0625
Info: NONBONDED TABLE SIZE: 705 POINTS
TCL: Setting parameter alchLambda2 to 1.0
Info: NONBONDED TABLE R-SQUARED SPACING: 0.0625
Info: NONBONDED TABLE SIZE: 705 POINTS
TCL: Running for 1500000 steps
ETITLE: TS BOND ANGLE DIHED IMPRP ELECT VDW BOUNDARY MISC KINETIC TOTAL TEMP POTENTIAL TOTALAVG TEMPAVG PRESSURE GPRESSURE VOLUME PRESSAVG GPRESSAVG
ENERGY: 0 1.9425 6.3018 2.7590 0.0000 -10370.0294 1369.5018 0.0000 0.0000 1747.5665 -7241.9578 302.2046 -8989.5243 -7241.9578 302.2046 37.0731 121.3286 29845.0134 37.0731 121.3286
ENERGY: 300000 6.0847 6.9833 4.4212 0.0000 -10382.2554 1354.9238 0.0000 0.0000 1780.6465 -7229.1959 307.9251 -9009.8424 -7223.3963 307.5719 -392.1199 -286.5277 29971.7762 -201.8011 -114.2496
ENERGY: 600000 6.5155 9.9469 6.3618 0.0000 -10482.9202 1365.9044 0.0000 0.0000 1725.5325 -7368.6593 298.3943 -9094.1917 -7265.2028 304.5198 -268.2401 -252.1257 29836.2366 -86.2510 -6.1014
ENERGY: 900000 5.5095 5.2277 3.5229 0.0000 -10471.0629 1406.1606 0.0000 0.0000 1721.0468 -7329.5954 297.6186 -9050.6422 -7278.9939 303.3568 -86.3695 -8.7473 29994.0209 -18.4334 57.6991
ENERGY: 1200000 4.3533 5.5024 3.0022 0.0000 -10530.2480 1371.3390 0.0000 0.0000 1723.5127 -7422.5384 298.0450 -9146.0511 -7298.8496 301.8917 -441.0093 -377.0846 29660.5182 21.3473 95.2657
ENERGY: 1500000 3.8643 6.2965 3.9939 0.0000 -10578.3363 1466.9256 0.0000 0.0000 1763.4785 -7333.7775 304.9563 -9097.2560 -7302.9700 301.5531 409.9058 508.6601 29651.7298 0.6589 77.0739
TCL: Exiting due to exit command.
