Info: SIMULATION PARAMETERS:
Info: TIMESTEP               2
Info: NUMBER OF STEPS        0
Info: STEPS PER CYCLE        10
Info: PERIODIC CELL BASIS 1  30.9533 0 0
Info: PERIODIC CELL BASIS 2  0 29.474 0
Info: PERIODIC CELL BASIS 3  0 0 33.2996
Info: PERIODIC CELL CENTER   0 0 0
Info: WRAPPING WATERS AROUND PERIODIC BOUNDARIES ON OUTPUT.
Info: WRAPPING ALL CLUSTERS AROUND PERIODIC BOUNDARIES ON OUTPUT.
Info: FIRST LDB TIMESTEP     50
Info: LAST LDB TIMESTEP     -1
Info: HOM BACKGROUND SCALING 1
Info: PME BACKGROUND SCALING 1
Info: MIN ATOMS PER PATCH    40
Info: EMPTY PATCH LOAD       40 ATOMS
Info: VELOCITY FILE          mobley_3234716_equil.vel
Info: CENTER OF MASS MOVING INITIALLY? NO
Info: DIELECTRIC             1
Info: EXCLUDE                SCALED ONE-FOUR
Info: 1-4 ELECTROSTATICS SCALED BY 0.833333
Info: MODIFIED 1-4 VDW PARAMETERS WILL BE USED
Info: DCD FILENAME           mobley_3234716_prod.dcd
Info: DCD FREQUENCY          100000
Info: DCD FIRST STEP         100000
Info: DCD FILE WILL CONTAIN UNIT CELL DATA
Info: XST FILENAME           mobley_3234716_prod.xst
Info: XST FREQUENCY          100000
Info: NO VELOCITY DCD OUTPUT
Info: NO FORCE DCD OUTPUT
Info: OUTPUT FILENAME        mobley_3234716_prod
Info: BINARY OUTPUT FILES WILL BE USED
Info: RESTART FILENAME       mobley_3234716_prod.restart
Info: RESTART FREQUENCY      100000
Info: BINARY RESTART FILES WILL BE USED
Info: CUTOFF                 9
Info: PAIRLIST DISTANCE      11
Info: PAIRLIST SHRINK RATE   0.01
Info: PAIRLIST GROW RATE     0.01
Info: PAIRLIST TRIGGER       0.3
Info: PAIRLISTS PER CYCLE    2
Info: PAIRLISTS ENABLED
Info: MARGIN                 2
Info: HYDROGEN GROUP CUTOFF  2.5
Info: PATCH DIMENSION        15.5
Info: ENERGY OUTPUT STEPS    100000
Info: ENERGY EVALUATION STEPS    100000
Info: OUTPUT ENERGY PRECISION 4
Info: CROSSTERM ENERGY INCLUDED IN DIHEDRAL
Info: TIMING OUTPUT STEPS    1000000
Info: PRESSURE OUTPUT STEPS  100000
Info: ALCHEMICAL FEP ON
Info: FEP CURRENT LAMBDA VALUE     0
Info: FEP COMPARISON LAMBDA VALUE  0.05
Info: FEP INTRA-ALCHEMICAL NON-BONDED INTERACTIONS WILL BE RETAINED
Info: FEP INTRA-ALCHEMICAL BONDED INTERACTIONS WILL BE RETAINED
Info: FEP VDW SHIFTING COEFFICIENT 5
Info: FEP ELEC. ACTIVE FOR ANNIHILATED PARTICLES BETWEEN LAMBDA = 0 AND LAMBDA = 0.5
Info: FEP ELEC. ACTIVE FOR EXNIHILATED PARTICLES BETWEEN LAMBDA = 0.5 AND LAMBDA = 1
Info: FEP VDW ACTIVE FOR ANNIHILATED PARTICLES BETWEEN LAMBDA = 0 AND LAMBDA = 1
Info: FEP VDW ACTIVE FOR EXNIHILATED PARTICLES BETWEEN LAMBDA = 0 AND LAMBDA = 1
Info: FEP BOND ACTIVE FOR ANNIHILATED PARTICLES BETWEEN LAMBDA = 1 AND LAMBDA = 1
Info: FEP BOND ACTIVE FOR EXNIHILATED PARTICLES BETWEEN LAMBDA = 0 AND LAMBDA = 0
Info: LANGEVIN DYNAMICS ACTIVE
Info: LANGEVIN TEMPERATURE   300
Info: LANGEVIN USING BBK INTEGRATOR
Info: LANGEVIN DAMPING COEFFICIENT IS 1 INVERSE PS
Info: LANGEVIN DYNAMICS APPLIED TO HYDROGENS
Info: LANGEVIN PISTON PRESSURE CONTROL ACTIVE
Info:        TARGET PRESSURE IS 1.01325 BAR
Info:     OSCILLATION PERIOD IS 50 FS
Info:             DECAY TIME IS 25 FS
Info:     PISTON TEMPERATURE IS 300 K
Info:       PRESSURE CONTROL IS GROUP-BASED
Info:    INITIAL STRAIN RATE IS -0.000159675 -0.000159675 -0.000159675
Info:       CELL FLUCTUATION IS ISOTROPIC
Info: PARTICLE MESH EWALD (PME) ACTIVE
Info: PME TOLERANCE               1e-06
Info: PME EWALD COEFFICIENT       0.348832
Info: PME INTERPOLATION ORDER     4
Info: PME GRID DIMENSIONS         32 32 36
Info: PME MAXIMUM GRID SPACING    1
Info: PME CALCULATION WILL BE PERFORMED ON GPU
Info: FULL ELECTROSTATIC EVALUATION FREQUENCY      2
Info: USING VERLET I (r-RESPA) MTS SCHEME.
Info: C1 SPLITTING OF LONG RANGE ELECTROSTATICS
Info: PLACING ATOMS IN PATCHES BY HYDROGEN GROUPS
Info: RIGID BONDS TO HYDROGEN : ALL
Info:         ERROR TOLERANCE : 1e-08
Info:          MAX ITERATIONS : 100
Info: RIGID WATER USING SETTLE ALGORITHM
Info: RANDOM NUMBER SEED     1743598840
Info: USE HYDROGEN BONDS?    NO
Info: Using AMBER format force field!
Info: AMBER PARM FILE        mobley_3234716.prmtop
Info: COORDINATE PDB         mobley_3234716.pdb
Info: Exclusions will be read from PARM file!
Info: SCNB (VDW SCALING)     2
Info: USING ARITHMETIC MEAN TO COMBINE L-J SIGMA PARAMETERS
Info: BINARY COORDINATES     mobley_3234716_equil.coor
Info: SUMMARY OF PARAMETERS:
Info: 6 BONDS
Info: 5 ANGLES
Info:   5 HARMONIC
Info:   0 COSINE-BASED
Info: 3 DIHEDRAL
Info: 0 IMPROPER
Info: 0 CROSSTERM
Info: 0 VDW
Info: 21 VDW_PAIRS
Info: 0 NBTHOLE_PAIRS
Info: To read alchdata from file: mobley_3234716.pdb
Info: To read alchflag data from column: 5
Info: STRUCTURE SUMMARY:
Info: 2928 ATOMS
Info: 2928 BONDS
Info: 30 ANGLES
Info: 42 DIHEDRALS
Info: 0 IMPROPERS
Info: 0 CROSSTERMS
Info: 2991 EXCLUSIONS
Info: 2920 RIGID BONDS
Info: ALCH: 0 ATOMS TO DISAPPEAR IN FINAL STATE
Info: ALCH: 18 ATOMS TO APPEAR IN FINAL STATE
Info: 5864 DEGREES OF FREEDOM
Info: 978 HYDROGEN GROUPS
Info: 4 ATOMS IN LARGEST HYDROGEN GROUP
Info: 978 MIGRATION GROUPS
Info: 4 ATOMS IN LARGEST MIGRATION GROUP
Info: TOTAL MASS = 17581.7 amu
Info: TOTAL CHARGE = 0.000100061 e
Info: MASS DENSITY = 0.961026 g/cm^3
Info: ATOM DENSITY = 0.0963799 atoms/A^3
Info: ADDED 0 IMPLICIT EXCLUSIONS
Info: NONBONDED TABLE R-SQUARED SPACING: 0.0625
Info: NONBONDED TABLE SIZE: 705 POINTS
Info: REMOVING COM VELOCITY -0.0270666 -0.0859098 0.26443
Info: Use 3D box decompostion in PME FFT.
Info: Updated CUDA force table with 4096 elements.
Info: Updated CUDA LJ table with 6 x 6 elements.
Info: Found 20 unique exclusion lists needing 48 bytes
TCL: Running for 1500000 steps
ETITLE: TS BOND ANGLE DIHED IMPRP ELECT VDW BOUNDARY MISC KINETIC TOTAL TEMP POTENTIAL TOTALAVG TEMPAVG PRESSURE GPRESSURE VOLUME PRESSAVG GPRESSAVG
ENERGY: 0 1.6051 6.8009 5.5037 0.0000 -10567.0395 1409.7530 0.0000 0.0000 1722.3130 -7421.0638 295.6028 -9143.3768 -7421.0638 295.6028 -513.5639 -443.2445 30379.7731 -513.5639 -443.2445
ENERGY: 300000 2.0082 6.0668 2.8970 0.0000 -10609.7743 1383.2042 0.0000 0.0000 1779.9880 -7435.6100 305.5016 -9215.5979 -7429.6759 303.9940 -674.3708 -521.4962 29897.7713 -603.4192 -487.1267
ENERGY: 600000 2.3364 6.1207 1.8057 0.0000 -10733.3078 1492.4108 0.0000 0.0000 1772.8267 -7457.8075 304.2725 -9230.6342 -7432.6040 302.3762 294.5582 389.0315 29973.8498 -279.3474 -166.7332
ENERGY: 900000 2.1000 6.1083 2.6615 0.0000 -10618.0014 1406.5323 0.0000 0.0000 1712.3275 -7488.2719 293.8889 -9200.5994 -7432.0562 301.5350 -438.4621 -377.9119 30089.8350 -284.1362 -191.5735
ENERGY: 1200000 1.2253 4.1654 3.5245 0.0000 -10460.3399 1428.4220 0.0000 0.0000 1741.9779 -7281.0248 298.9779 -9023.0027 -7416.4857 301.0652 354.9330 393.8958 30311.0268 -98.8589 -19.3382
ENERGY: 1500000 1.4488 6.8535 1.5157 0.0000 -10582.1580 1399.5705 0.0000 0.0000 1774.8219 -7397.9477 304.6149 -9172.7695 -7404.3089 301.8394 -25.5135 19.4157 29633.8910 -114.1368 -43.7404
TCL: Running FEP window   2: Lambda1 0.05   Lambda2 0.1    [dLambda 0.05  ]
TCL: Setting parameter firsttimestep to 0
TCL: Setting parameter alchLambda to 0.05
Info: NONBONDED TABLE R-SQUARED SPACING: 0.0625
Info: NONBONDED TABLE SIZE: 705 POINTS
TCL: Setting parameter alchLambda2 to 0.1
Info: NONBONDED TABLE R-SQUARED SPACING: 0.0625
Info: NONBONDED TABLE SIZE: 705 POINTS
TCL: Running for 1500000 steps
ETITLE: TS BOND ANGLE DIHED IMPRP ELECT VDW BOUNDARY MISC KINETIC TOTAL TEMP POTENTIAL TOTALAVG TEMPAVG PRESSURE GPRESSURE VOLUME PRESSAVG GPRESSAVG
ENERGY: 0 1.4487 6.8535 1.5157 0.0000 -10582.1595 1401.1035 0.0000 0.0000 1773.9155 -7397.3225 304.4594 -9171.2380 -7397.3225 304.4594 -43.9058 24.7075 29633.8910 -43.9058 24.7075
ENERGY: 300000 1.1807 12.0284 3.0748 0.0000 -10695.3283 1526.8665 0.0000 0.0000 1774.6510 -7377.5269 304.5856 -9152.1779 -7421.6186 299.1136 1323.9309 1419.9405 28876.9243 526.0272 609.0007
ENERGY: 600000 2.2680 9.2224 2.2500 0.0000 -10559.8338 1428.6280 0.0000 0.0000 1730.3437 -7387.1216 296.9811 -9117.4653 -7403.7333 299.1304 56.8817 79.9006 30187.7659 357.1053 424.5457
ENERGY: 900000 2.9066 6.6250 2.1121 0.0000 -10557.0972 1446.1149 0.0000 0.0000 1714.7700 -7384.5686 294.3082 -9099.3386 -7418.9063 298.0314 268.3021 346.6183 30180.0345 229.4448 286.2045
ENERGY: 1200000 3.4293 5.2905 3.3573 0.0000 -10548.9101 1361.2154 0.0000 0.0000 1794.2969 -7381.3207 307.9575 -9175.6176 -7406.3511 300.0006 -793.9704 -653.7905 30051.5189 76.8084 135.5063
ENERGY: 1500000 5.2082 4.3722 2.5912 0.0000 -10425.4066 1325.7561 0.0000 0.0000 1690.4724 -7397.0064 290.1379 -9087.4788 -7404.5659 298.7058 -1024.3734 -927.5996 30342.9282 92.5999 155.6719
TCL: Running FEP window   3: Lambda1 0.1    Lambda2 0.15000000000000002 [dLambda 0.05000000000000002]
TCL: Setting parameter firsttimestep to 0
TCL: Setting parameter alchLambda to 0.1
Info: NONBONDED TABLE R-SQUARED SPACING: 0.0625
Info: NONBONDED TABLE SIZE: 705 POINTS
TCL: Setting parameter alchLambda2 to 0.15000000000000002
Info: NONBONDED TABLE R-SQUARED SPACING: 0.0625
Info: NONBONDED TABLE SIZE: 705 POINTS
TCL: Running for 1500000 steps
ETITLE: TS BOND ANGLE DIHED IMPRP ELECT VDW BOUNDARY MISC KINETIC TOTAL TEMP POTENTIAL TOTALAVG TEMPAVG PRESSURE GPRESSURE VOLUME PRESSAVG GPRESSAVG
ENERGY: 0 5.2082 4.3722 2.5912 0.0000 -10425.4060 1331.6611 0.0000 0.0000 1689.5685 -7392.0047 289.9828 -9081.5732 -7392.0047 289.9828 -1019.5000 -917.6008 30342.9282 -1019.5000 -917.6008
ENERGY: 300000 5.4480 4.7879 4.1414 0.0000 -10412.3756 1268.1174 0.0000 0.0000 1794.5880 -7335.2928 308.0074 -9129.8808 -7340.8560 304.4650 -1168.8163 -1073.7596 29803.7166 -686.4671 -568.8257
ENERGY: 600000 2.0847 3.8887 3.5175 0.0000 -10525.0383 1363.8418 0.0000 0.0000 1743.9130 -7407.7926 299.3100 -9151.7056 -7359.6435 304.0139 -364.9436 -375.5219 30113.0914 -436.7562 -353.0478
ENERGY: 900000 4.4490 7.3383 2.7123 0.0000 -10753.3768 1549.4106 0.0000 0.0000 1732.7835 -7456.6830 297.3998 -9189.4665 -7376.3477 302.7871 791.9036 805.8361 29875.2711 -244.6524 -173.9182
ENERGY: 1200000 3.0030 4.9790 4.0694 0.0000 -10644.9092 1496.2287 0.0000 0.0000 1798.4430 -7338.1861 308.6691 -9136.6291 -7380.7895 302.6410 528.7625 600.7679 30290.2203 -219.7387 -147.4799
ENERGY: 1500000 1.1981 7.2444 1.7321 0.0000 -10602.7574 1453.7522 0.0000 0.0000 1691.0712 -7447.7594 290.2407 -9138.8306 -7382.9835 302.2226 4.0011 67.1645 30348.9514 -168.9386 -91.7595
TCL: Running FEP window   4: Lambda1 0.15000000000000002 Lambda2 0.2    [dLambda 0.04999999999999999]
TCL: Setting parameter firsttimestep to 0
TCL: Setting parameter alchLambda to 0.15000000000000002
Info: NONBONDED TABLE R-SQUARED SPACING: 0.0625
Info: NONBONDED TABLE SIZE: 705 POINTS
TCL: Setting parameter alchLambda2 to 0.2
Info: NONBONDED TABLE R-SQUARED SPACING: 0.0625
Info: NONBONDED TABLE SIZE: 705 POINTS
TCL: Running for 1500000 steps
ETITLE: TS BOND ANGLE DIHED IMPRP ELECT VDW BOUNDARY MISC KINETIC TOTAL TEMP POTENTIAL TOTALAVG TEMPAVG PRESSURE GPRESSURE VOLUME PRESSAVG GPRESSAVG
ENERGY: 0 1.1981 7.2444 1.7321 0.0000 -10602.7580 1453.6519 0.0000 0.0000 1690.1796 -7448.7521 290.0877 -9138.9317 -7448.7521 290.0877 -15.6704 71.9829 30348.9514 -15.6704 71.9829
ENERGY: 300000 1.4979 5.2781 1.3776 0.0000 -10709.2711 1480.4913 0.0000 0.0000 1765.7636 -7454.8625 303.0603 -9220.6262 -7419.7182 299.8789 470.8939 570.2532 29455.9843 280.5159 380.5569
ENERGY: 600000 2.9086 8.6315 1.8481 0.0000 -10380.0330 1331.2607 0.0000 0.0000 1736.5405 -7298.8437 298.0447 -9035.3842 -7399.8184 297.9652 -496.6678 -449.0051 30453.5277 122.2182 207.5189
ENERGY: 900000 1.9614 5.6248 1.5246 0.0000 -10779.6222 1562.4583 0.0000 0.0000 1701.3344 -7506.7188 292.0022 -9208.0532 -7407.0806 297.5004 1044.4625 1069.0763 29737.8437 162.0999 236.4307
ENERGY: 1200000 2.9114 6.6631 4.3253 0.0000 -10594.8384 1411.0626 0.0000 0.0000 1733.5675 -7436.3085 297.5344 -9169.8760 -7414.5098 297.7539 -99.8944 -68.6307 29877.9283 50.0339 120.5951
ENERGY: 1500000 3.5041 4.6700 3.2932 0.0000 -10583.1743 1427.8202 0.0000 0.0000 1675.0220 -7468.8647 287.4862 -9143.8867 -7411.9410 297.3189 28.5940 80.4888 29790.7447 11.0247 77.5712
TCL: Running FEP window   5: Lambda1 0.2    Lambda2 0.25   [dLambda 0.04999999999999999]
TCL: Setting parameter firsttimestep to 0
TCL: Setting parameter alchLambda to 0.2
Info: NONBONDED TABLE R-SQUARED SPACING: 0.0625
Info: NONBONDED TABLE SIZE: 705 POINTS
TCL: Setting parameter alchLambda2 to 0.25
Info: NONBONDED TABLE R-SQUARED SPACING: 0.0625
Info: NONBONDED TABLE SIZE: 705 POINTS
TCL: Running for 1500000 steps
ETITLE: TS BOND ANGLE DIHED IMPRP ELECT VDW BOUNDARY MISC KINETIC TOTAL TEMP POTENTIAL TOTALAVG TEMPAVG PRESSURE GPRESSURE VOLUME PRESSAVG GPRESSAVG
ENERGY: 0 3.5041 4.6700 3.2932 0.0000 -10583.1750 1428.7878 0.0000 0.0000 1674.1527 -7468.7671 287.3370 -9142.9198 -7468.7671 287.3370 5.8851 91.0765 29790.7447 5.8851 91.0765
ENERGY: 300000 2.7271 11.9578 4.4007 0.0000 -10518.2951 1371.5615 0.0000 0.0000 1808.3351 -7319.3129 310.3669 -9127.6480 -7395.4942 297.9275 -117.8730 -78.8741 29916.1724 -188.9757 -123.3722
ENERGY: 600000 3.4088 5.1111 1.8735 0.0000 -10319.0769 1265.1586 0.0000 0.0000 1730.4545 -7313.0704 297.0001 -9043.5249 -7395.7783 296.8079 -1291.2311 -1245.0745 30802.5304 -416.1741 -348.4642
ENERGY: 900000 1.1969 4.6779 5.5598 0.0000 -10733.5254 1498.8820 0.0000 0.0000 1812.3701 -7410.8387 311.0594 -9223.2088 -7391.7958 299.5409 370.5343 360.9384 30037.4421 -150.0280 -89.1437
ENERGY: 1200000 4.6115 11.1328 2.2675 0.0000 -10595.8655 1438.4015 0.0000 0.0000 1788.7627 -7350.6896 307.0076 -9139.4523 -7385.3451 301.0339 -22.4532 26.2669 30168.3937 -115.3053 -58.5805
ENERGY: 1500000 6.2800 3.7842 4.2205 0.0000 -10694.9958 1437.4158 0.0000 0.0000 1803.0032 -7440.2920 309.4517 -9243.2952 -7394.9979 301.3176 -542.1436 -433.2546 30265.9556 -170.2426 -109.5977
TCL: Running FEP window   6: Lambda1 0.25   Lambda2 0.3    [dLambda 0.04999999999999999]
TCL: Setting parameter firsttimestep to 0
TCL: Setting parameter alchLambda to 0.25
Info: NONBONDED TABLE R-SQUARED SPACING: 0.0625
Info: NONBONDED TABLE SIZE: 705 POINTS
TCL: Setting parameter alchLambda2 to 0.3
Info: NONBONDED TABLE R-SQUARED SPACING: 0.0625
Info: NONBONDED TABLE SIZE: 705 POINTS
TCL: Running for 1500000 steps
ETITLE: TS BOND ANGLE DIHED IMPRP ELECT VDW BOUNDARY MISC KINETIC TOTAL TEMP POTENTIAL TOTALAVG TEMPAVG PRESSURE GPRESSURE VOLUME PRESSAVG GPRESSAVG
ENERGY: 0 6.2800 3.7842 4.2205 0.0000 -10694.9974 1438.0691 0.0000 0.0000 1802.1386 -7440.5050 309.3033 -9242.6436 -7440.5050 309.3033 -521.6791 -427.4827 30265.9556 -521.6791 -427.4827
ENERGY: 300000 3.3505 4.8550 1.0027 0.0000 -10787.9094 1531.3675 0.0000 0.0000 1769.5240 -7477.8097 303.7056 -9247.3337 -7408.8538 307.9813 680.5388 797.0047 29481.2332 26.1863 127.3988
ENERGY: 600000 3.3575 7.2043 2.0700 0.0000 -10462.2773 1332.1925 0.0000 0.0000 1778.9434 -7338.5096 305.3223 -9117.4530 -7378.1353 306.3907 -856.6304 -750.7902 30099.1136 -44.4514 49.9993
ENERGY: 900000 2.5564 5.3177 1.9721 0.0000 -10488.9104 1309.5251 0.0000 0.0000 1744.5491 -7424.9900 299.4192 -9169.5391 -7385.8162 305.1244 -1197.1041 -1113.4172 30352.4905 -193.6102 -103.4287
ENERGY: 1200000 4.3775 4.2012 0.7285 0.0000 -10625.1823 1453.9519 0.0000 0.0000 1755.2862 -7406.6370 301.2620 -9161.9232 -7380.3173 304.7312 308.9276 455.2925 29969.3405 -131.2062 -33.5652
ENERGY: 1500000 1.5719 6.1671 2.4637 0.0000 -10552.0014 1389.6300 0.0000 0.0000 1742.3996 -7409.7690 299.0503 -9152.1686 -7382.3110 304.3013 -167.8849 -127.5860 29719.5814 -158.5165 -70.4953
TCL: Running FEP window   7: Lambda1 0.3    Lambda2 0.35   [dLambda 0.04999999999999999]
TCL: Setting parameter firsttimestep to 0
TCL: Setting parameter alchLambda to 0.3
Info: NONBONDED TABLE R-SQUARED SPACING: 0.0625
Info: NONBONDED TABLE SIZE: 705 POINTS
TCL: Setting parameter alchLambda2 to 0.35
Info: NONBONDED TABLE R-SQUARED SPACING: 0.0625
Info: NONBONDED TABLE SIZE: 705 POINTS
TCL: Running for 1500000 steps
ETITLE: TS BOND ANGLE DIHED IMPRP ELECT VDW BOUNDARY MISC KINETIC TOTAL TEMP POTENTIAL TOTALAVG TEMPAVG PRESSURE GPRESSURE VOLUME PRESSAVG GPRESSAVG
ENERGY: 0 1.5719 6.1671 2.4637 0.0000 -10552.0012 1389.8027 0.0000 0.0000 1741.5325 -7410.4632 298.9014 -9151.9957 -7410.4632 298.9014 -201.9914 -118.6098 29719.5814 -201.9914 -118.6098
ENERGY: 300000 1.3579 7.0845 2.2679 0.0000 -10641.0845 1392.2004 0.0000 0.0000 1741.4622 -7496.7116 298.8894 -9238.1738 -7439.1430 299.1452 -525.6202 -431.0227 29726.2721 -212.1424 -156.1429
ENERGY: 600000 2.8235 9.5912 2.1676 0.0000 -10486.6917 1395.8204 0.0000 0.0000 1764.8320 -7311.4569 302.9004 -9076.2889 -7399.1995 301.4638 -211.1810 -164.4614 30507.4742 -57.3814 -6.6149
ENERGY: 900000 4.0021 7.5535 1.8023 0.0000 -10677.4821 1475.8086 0.0000 0.0000 1734.6432 -7453.6725 297.7190 -9188.3156 -7415.6055 299.9794 349.2717 339.8290 29912.0986 -93.3597 -52.0944
ENERGY: 1200000 3.8641 5.9519 1.4998 0.0000 -10553.0958 1367.0485 0.0000 0.0000 1759.1743 -7415.5573 301.9293 -9174.7316 -7420.8818 300.9164 -525.1032 -443.6532 29866.8279 -169.8785 -127.3238
ENERGY: 1500000 2.6692 6.4931 3.2078 0.0000 -10553.4348 1398.6283 0.0000 0.0000 1686.7694 -7455.6671 289.5024 -9142.4364 -7411.1861 300.7456 -136.4500 -94.9507 30037.9325 -179.0440 -130.9370
TCL: Running FEP window   8: Lambda1 0.35   Lambda2 0.39999999999999997 [dLambda 0.04999999999999999]
TCL: Setting parameter firsttimestep to 0
TCL: Setting parameter alchLambda to 0.35
Info: NONBONDED TABLE R-SQUARED SPACING: 0.0625
Info: NONBONDED TABLE SIZE: 705 POINTS
TCL: Setting parameter alchLambda2 to 0.39999999999999997
Info: NONBONDED TABLE R-SQUARED SPACING: 0.0625
Info: NONBONDED TABLE SIZE: 705 POINTS
TCL: Running for 1500000 steps
ETITLE: TS BOND ANGLE DIHED IMPRP ELECT VDW BOUNDARY MISC KINETIC TOTAL TEMP POTENTIAL TOTALAVG TEMPAVG PRESSURE GPRESSURE VOLUME PRESSAVG GPRESSAVG
ENERGY: 0 2.6692 6.4931 3.2077 0.0000 -10553.4349 1398.7360 0.0000 0.0000 1685.8954 -7456.4335 289.3524 -9142.3289 -7456.4335 289.3524 -188.9746 -89.7755 30037.9325 -188.9746 -89.7755
ENERGY: 300000 1.7234 6.3638 2.7821 0.0000 -10654.4063 1455.1636 0.0000 0.0000 1730.6857 -7457.6877 297.0398 -9188.3734 -7450.9921 297.5251 349.6746 352.9541 29717.0239 -201.4224 -129.4466
ENERGY: 600000 2.2583 7.4206 2.2263 0.0000 -10529.9269 1397.7524 0.0000 0.0000 1767.8445 -7352.4247 303.4174 -9120.2693 -7429.9316 298.2231 -76.4404 2.2022 30033.1314 -196.1771 -124.9846
ENERGY: 900000 2.1558 4.7478 1.2422 0.0000 -10550.7098 1391.8160 0.0000 0.0000 1752.7633 -7397.9847 300.8290 -9150.7481 -7426.6844 298.7176 -83.8553 -74.3499 29926.6130 -139.1126 -81.1660
ENERGY: 1200000 3.3005 4.5450 5.2437 0.0000 -10562.8317 1402.1338 0.0000 0.0000 1741.5404 -7406.0683 298.9028 -9147.6087 -7417.0945 299.2348 -281.6064 -206.5985 30053.2455 -193.3369 -129.1305
ENERGY: 1500000 1.5427 5.3687 2.7673 0.0000 -10498.7957 1366.1994 0.0000 0.0000 1721.0772 -7401.8403 295.3907 -9122.9175 -7411.3571 298.8216 -619.4364 -544.6364 30443.4546 -241.8302 -175.7789
TCL: Running FEP window   9: Lambda1 0.39999999999999997 Lambda2 0.44999999999999996 [dLambda 0.04999999999999999]
TCL: Setting parameter firsttimestep to 0
TCL: Setting parameter alchLambda to 0.39999999999999997
Info: NONBONDED TABLE R-SQUARED SPACING: 0.0625
Info: NONBONDED TABLE SIZE: 705 POINTS
TCL: Setting parameter alchLambda2 to 0.44999999999999996
Info: NONBONDED TABLE R-SQUARED SPACING: 0.0625
Info: NONBONDED TABLE SIZE: 705 POINTS
TCL: Running for 1500000 steps
ETITLE: TS BOND ANGLE DIHED IMPRP ELECT VDW BOUNDARY MISC KINETIC TOTAL TEMP POTENTIAL TOTALAVG TEMPAVG PRESSURE GPRESSURE VOLUME PRESSAVG GPRESSAVG
ENERGY: 0 1.5427 5.3687 2.7673 0.0000 -10498.7967 1366.1563 0.0000 0.0000 1720.2429 -7402.7188 295.2475 -9122.9617 -7402.7188 295.2475 -641.8329 -538.8844 30443.4546 -641.8329 -538.8844
ENERGY: 300000 1.0518 4.6512 3.7530 0.0000 -10471.3141 1336.1749 0.0000 0.0000 1744.4527 -7381.2305 299.4026 -9125.6832 -7412.6042 297.4966 -829.0623 -763.6452 30579.6325 -143.4695 -63.1328
ENERGY: 600000 3.1714 5.7180 2.7788 0.0000 -10454.0377 1372.7640 0.0000 0.0000 1721.9002 -7347.7053 295.5319 -9069.6056 -7377.3600 298.8498 -460.3438 -395.9262 30291.3323 -248.4369 -176.7756
ENERGY: 900000 1.5589 3.4998 2.4967 0.0000 -10594.6710 1412.6992 0.0000 0.0000 1768.2137 -7406.2025 303.4808 -9174.4162 -7374.7736 299.8656 -38.3546 19.1676 29753.0372 -158.9976 -87.6313
ENERGY: 1200000 5.9795 4.9995 3.3231 0.0000 -10437.4086 1348.0049 0.0000 0.0000 1779.2154 -7295.8863 305.3690 -9075.1017 -7378.4204 299.8036 -509.4844 -417.6195 30019.2473 -173.3768 -102.8364
ENERGY: 1500000 3.2408 6.4556 2.4382 0.0000 -10598.9953 1420.3736 0.0000 0.0000 1765.7219 -7400.7653 303.0531 -9166.4872 -7384.5658 300.1643 -379.6464 -260.2179 30294.1794 -94.4192 -24.0510
TCL: Running FEP window  10: Lambda1 0.44999999999999996 Lambda2 0.49999999999999994 [dLambda 0.04999999999999999]
TCL: Setting parameter firsttimestep to 0
TCL: Setting parameter alchLambda to 0.44999999999999996
Info: NONBONDED TABLE R-SQUARED SPACING: 0.0625
Info: NONBONDED TABLE SIZE: 705 POINTS
TCL: Setting parameter alchLambda2 to 0.49999999999999994
Info: NONBONDED TABLE R-SQUARED SPACING: 0.0625
Info: NONBONDED TABLE SIZE: 705 POINTS
TCL: Running for 1500000 steps
ETITLE: TS BOND ANGLE DIHED IMPRP ELECT VDW BOUNDARY MISC KINETIC TOTAL TEMP POTENTIAL TOTALAVG TEMPAVG PRESSURE GPRESSURE VOLUME PRESSAVG GPRESSAVG
ENERGY: 0 3.2408 6.4556 2.4382 0.0000 -10598.9957 1419.7652 0.0000 0.0000 1764.8323 -7402.2637 302.9004 -9167.0959 -7402.2637 302.9004 -332.6725 -256.7832 30294.1794 -332.6725 -256.7832
ENERGY: 300000 1.8399 3.2403 4.0904 0.0000 -10510.1080 1370.3534 0.0000 0.0000 1747.6789 -7382.9051 299.9564 -9130.5840 -7379.1650 302.2942 -268.4956 -254.1876 30206.1160 -23.6706 26.7923
ENERGY: 600000 6.2601 5.6673 4.4297 0.0000 -10540.6618 1379.6282 0.0000 0.0000 1688.2544 -7456.4220 289.7573 -9144.6764 -7395.6190 300.5253 -723.3906 -657.0918 30753.8788 -198.8337 -132.3176
ENERGY: 900000 2.0618 5.0644 1.8624 0.0000 -10797.7132 1517.9349 0.0000 0.0000 1756.8954 -7513.8944 301.5382 -9270.7898 -7402.5506 302.0110 850.0107 880.8308 29241.5748 -52.5825 10.0799
ENERGY: 1200000 2.1782 8.8482 2.8432 0.0000 -10533.6692 1366.9101 0.0000 0.0000 1791.1946 -7361.6948 307.4250 -9152.8894 -7410.6925 302.2002 -546.9227 -538.6286 30466.0309 -81.2417 -22.0835
ENERGY: 1500000 2.9067 6.7562 1.0277 0.0000 -10465.7093 1358.2190 0.0000 0.0000 1743.8744 -7352.9253 299.3034 -9096.7997 -7404.0365 302.1551 -505.7654 -374.8084 30586.8031 -151.8314 -88.1064
TCL: Running FEP window  11: Lambda1 0.49999999999999994 Lambda2 0.5499999999999999 [dLambda 0.04999999999999999]
TCL: Setting parameter firsttimestep to 0
TCL: Setting parameter alchLambda to 0.49999999999999994
Info: NONBONDED TABLE R-SQUARED SPACING: 0.0625
Info: NONBONDED TABLE SIZE: 705 POINTS
TCL: Setting parameter alchLambda2 to 0.5499999999999999
Info: NONBONDED TABLE R-SQUARED SPACING: 0.0625
Info: NONBONDED TABLE SIZE: 705 POINTS
TCL: Running for 1500000 steps
ETITLE: TS BOND ANGLE DIHED IMPRP ELECT VDW BOUNDARY MISC KINETIC TOTAL TEMP POTENTIAL TOTALAVG TEMPAVG PRESSURE GPRESSURE VOLUME PRESSAVG GPRESSAVG
ENERGY: 0 2.9067 6.7562 1.0277 0.0000 -10465.7083 1357.9373 0.0000 0.0000 1743.0019 -7354.0785 299.1536 -9097.0804 -7354.0785 299.1536 -471.0849 -372.0025 30586.8031 -471.0849 -372.0025
ENERGY: 300000 2.1072 5.7366 3.5307 0.0000 -10693.0061 1475.7272 0.0000 0.0000 1715.5376 -7490.3669 294.4399 -9205.9044 -7431.3445 299.9679 563.9960 583.0494 29684.7634 -152.1009 -73.5735
ENERGY: 600000 5.1058 5.1803 1.4402 0.0000 -10641.2637 1423.6382 0.0000 0.0000 1754.5111 -7451.3880 301.1290 -9205.8992 -7437.2947 300.7941 -163.4430 -103.5117 30105.9760 -212.0117 -151.1524
ENERGY: 900000 4.8890 6.5888 2.5013 0.0000 -10548.0995 1416.8730 0.0000 0.0000 1753.9840 -7363.2634 301.0385 -9117.2474 -7408.4151 302.1010 293.6022 311.5730 29910.4535 -81.5704 -19.6014
ENERGY: 1200000 1.3076 10.2905 0.4227 0.0000 -10752.1155 1509.8569 0.0000 0.0000 1748.4815 -7481.7564 300.0941 -9230.2379 -7414.6852 300.9934 748.3939 854.2945 29467.0556 -70.7863 -7.9366
ENERGY: 1500000 1.5770 8.1082 2.9387 0.0000 -10576.8948 1396.3172 0.0000 0.0000 1720.3870 -7447.5666 295.2722 -9167.9537 -7422.0083 300.7746 -248.5166 -234.7274 29954.3873 -175.4997 -117.7640
TCL: Running FEP window  12: Lambda1 0.5499999999999999 Lambda2 0.6    [dLambda 0.050000000000000044]
TCL: Setting parameter firsttimestep to 0
TCL: Setting parameter alchLambda to 0.5499999999999999
Info: NONBONDED TABLE R-SQUARED SPACING: 0.0625
Info: NONBONDED TABLE SIZE: 705 POINTS
TCL: Setting parameter alchLambda2 to 0.6
Info: NONBONDED TABLE R-SQUARED SPACING: 0.0625
Info: NONBONDED TABLE SIZE: 705 POINTS
TCL: Running for 1500000 steps
ETITLE: TS BOND ANGLE DIHED IMPRP ELECT VDW BOUNDARY MISC KINETIC TOTAL TEMP POTENTIAL TOTALAVG TEMPAVG PRESSURE GPRESSURE VOLUME PRESSAVG GPRESSAVG
ENERGY: 0 1.5770 8.1082 2.9387 0.0000 -10576.8670 1397.0207 0.0000 0.0000 1719.5233 -7447.6991 295.1240 -9167.2225 -7447.6991 295.1240 -297.9675 -216.6565 29954.3873 -297.9675 -216.6565
ENERGY: 300000 2.7649 5.1225 1.9866 0.0000 -10622.0954 1453.5207 0.0000 0.0000 1771.5461 -7387.1546 304.0527 -9158.7006 -7419.7219 300.1077 180.9179 259.0979 30154.5957 62.4601 142.3299
ENERGY: 600000 2.8839 9.5845 3.0038 0.0000 -10533.4391 1366.8684 0.0000 0.0000 1697.5403 -7453.5582 291.3510 -9151.0985 -7425.5468 298.4364 -519.8763 -512.4524 30263.6981 -6.8355 62.8757
ENERGY: 900000 2.5807 9.1988 2.2430 0.0000 -10623.4752 1404.3434 0.0000 0.0000 1752.8119 -7452.2974 300.8373 -9205.1093 -7422.9285 299.3956 -416.6619 -340.3524 29969.8439 -122.5698 -56.6580
ENERGY: 1200000 4.0545 4.1379 1.8501 0.0000 -10529.9338 1344.0326 0.0000 0.0000 1719.4851 -7456.3735 295.1174 -9175.8586 -7425.4132 298.8610 -1088.1048 -1049.5323 30879.0220 -180.4135 -126.7876
ENERGY: 1500000 3.2987 4.6076 1.2292 0.0000 -10516.8191 1394.8808 0.0000 0.0000 1750.4512 -7362.3516 300.4322 -9112.8028 -7413.2978 299.3839 -102.9905 -52.5606 30161.4087 -147.0224 -90.0978
TCL: Running FEP window  13: Lambda1 0.6    Lambda2 0.65   [dLambda 0.050000000000000044]
TCL: Setting parameter firsttimestep to 0
TCL: Setting parameter alchLambda to 0.6
Info: NONBONDED TABLE R-SQUARED SPACING: 0.0625
Info: NONBONDED TABLE SIZE: 705 POINTS
TCL: Setting parameter alchLambda2 to 0.65
Info: NONBONDED TABLE R-SQUARED SPACING: 0.0625
Info: NONBONDED TABLE SIZE: 705 POINTS
TCL: Running for 1500000 steps
ETITLE: TS BOND ANGLE DIHED IMPRP ELECT VDW BOUNDARY MISC KINETIC TOTAL TEMP POTENTIAL TOTALAVG TEMPAVG PRESSURE GPRESSURE VOLUME PRESSAVG GPRESSAVG
ENERGY: 0 3.2987 4.6076 1.2292 0.0000 -10516.8966 1396.1245 0.0000 0.0000 1749.5810 -7362.0555 300.2828 -9111.6365 -7362.0555 300.2828 -117.0258 -31.8742 30161.4087 -117.0258 -31.8742
ENERGY: 300000 1.3429 6.5249 3.7051 0.0000 -10724.3787 1517.3967 0.0000 0.0000 1743.1644 -7452.2446 299.1815 -9195.4091 -7387.5312 303.4594 581.6662 607.1000 30191.7366 67.6367 123.6704
ENERGY: 600000 3.9152 8.3249 2.9041 0.0000 -10414.3676 1262.8892 0.0000 0.0000 1824.8682 -7311.4660 313.2045 -9136.3342 -7389.7171 305.1277 -1170.3564 -1163.0393 30463.3760 -121.9101 -60.2188
ENERGY: 900000 1.4404 7.7590 4.5954 0.0000 -10446.3266 1377.4268 0.0000 0.0000 1788.9348 -7266.1703 307.0372 -9055.1051 -7389.7113 304.5511 -155.6884 -102.8967 30265.4551 -108.4414 -44.2978
ENERGY: 1200000 2.2341 5.0230 3.1007 0.0000 -10577.4059 1444.2230 0.0000 0.0000 1761.4087 -7361.4163 302.3128 -9122.8250 -7379.1748 304.2812 344.6117 377.9390 29952.9609 -91.2010 -29.7576
ENERGY: 1500000 2.8087 4.2796 3.4007 0.0000 -10561.6754 1399.1823 0.0000 0.0000 1758.4718 -7393.5323 301.8087 -9152.0040 -7381.0941 303.6576 -66.4718 -20.7811 30030.9936 -54.8584 5.5904
TCL: Running FEP window  14: Lambda1 0.65   Lambda2 0.7000000000000001 [dLambda 0.050000000000000044]
TCL: Setting parameter firsttimestep to 0
TCL: Setting parameter alchLambda to 0.65
Info: NONBONDED TABLE R-SQUARED SPACING: 0.0625
Info: NONBONDED TABLE SIZE: 705 POINTS
TCL: Setting parameter alchLambda2 to 0.7000000000000001
Info: NONBONDED TABLE R-SQUARED SPACING: 0.0625
Info: NONBONDED TABLE SIZE: 705 POINTS
TCL: Running for 1500000 steps
ETITLE: TS BOND ANGLE DIHED IMPRP ELECT VDW BOUNDARY MISC KINETIC TOTAL TEMP POTENTIAL TOTALAVG TEMPAVG PRESSURE GPRESSURE VOLUME PRESSAVG GPRESSAVG
ENERGY: 0 2.8087 4.2796 3.4007 0.0000 -10561.6589 1399.0549 0.0000 0.0000 1757.5879 -7394.5271 301.6570 -9152.1150 -7394.5271 301.6570 -96.8734 -13.4092 30030.9936 -96.8734 -13.4092
ENERGY: 300000 1.3409 3.9330 2.0579 0.0000 -10590.4951 1404.2328 0.0000 0.0000 1726.9097 -7452.0208 296.3917 -9178.9304 -7422.6298 299.7235 -103.9443 -79.9619 30021.9971 -58.3064 -0.9301
ENERGY: 600000 0.8228 8.8945 2.3954 0.0000 -10572.3330 1409.3918 0.0000 0.0000 1748.8240 -7402.0046 300.1529 -9150.8286 -7419.8669 299.9905 -46.7957 82.9338 30106.9736 26.5303 89.8180
ENERGY: 900000 4.6400 5.7455 1.7750 0.0000 -10617.2808 1483.1332 0.0000 0.0000 1722.0335 -7399.9536 295.5548 -9121.9871 -7407.8270 300.4815 558.0668 555.7975 30046.6135 -3.8252 48.9776
ENERGY: 1200000 4.1683 5.0004 3.5724 0.0000 -10801.5267 1595.2016 0.0000 0.0000 1661.8609 -7531.7231 285.2273 -9193.5840 -7412.0585 299.8815 1337.6774 1423.1738 29772.8186 126.7840 183.1489
ENERGY: 1500000 1.9752 4.2400 1.9587 0.0000 -10607.9710 1376.2893 0.0000 0.0000 1761.5422 -7461.9656 302.3357 -9223.5078 -7414.0513 300.7389 -634.6188 -614.7590 30278.0092 54.7204 108.3145
TCL: Running FEP window  15: Lambda1 0.7000000000000001 Lambda2 0.7500000000000001 [dLambda 0.050000000000000044]
TCL: Setting parameter firsttimestep to 0
TCL: Setting parameter alchLambda to 0.7000000000000001
Info: NONBONDED TABLE R-SQUARED SPACING: 0.0625
Info: NONBONDED TABLE SIZE: 705 POINTS
TCL: Setting parameter alchLambda2 to 0.7500000000000001
Info: NONBONDED TABLE R-SQUARED SPACING: 0.0625
Info: NONBONDED TABLE SIZE: 705 POINTS
TCL: Running for 1500000 steps
ETITLE: TS BOND ANGLE DIHED IMPRP ELECT VDW BOUNDARY MISC KINETIC TOTAL TEMP POTENTIAL TOTALAVG TEMPAVG PRESSURE GPRESSURE VOLUME PRESSAVG GPRESSAVG
ENERGY: 0 1.9752 4.2400 1.9587 0.0000 -10608.1472 1376.2405 0.0000 0.0000 1760.6499 -7463.0829 302.1826 -9223.7328 -7463.0829 302.1826 -679.1698 -605.8286 30278.0092 -679.1698 -605.8286
ENERGY: 300000 3.5142 5.1963 4.7203 0.0000 -10612.9156 1494.6402 0.0000 0.0000 1725.7922 -7379.0524 296.1999 -9104.8446 -7424.4828 298.3605 463.8316 518.3261 30163.0134 35.9480 93.1801
ENERGY: 600000 0.9883 4.0648 2.4774 0.0000 -10592.1398 1436.0637 0.0000 0.0000 1715.5556 -7432.9900 294.4430 -9148.5456 -7441.9837 296.9917 92.1448 177.5502 30208.2063 23.9115 92.3954
ENERGY: 900000 1.0840 7.1377 2.1709 0.0000 -10452.5847 1345.5475 0.0000 0.0000 1759.3709 -7337.2736 301.9631 -9096.6445 -7415.8619 298.5562 -442.4856 -430.8956 30596.8620 66.7862 132.6790
ENERGY: 1200000 2.2311 2.9054 0.9221 0.0000 -10408.2804 1305.9875 0.0000 0.0000 1793.1288 -7303.1055 307.7570 -9096.2343 -7407.6850 298.8962 -792.9469 -710.0318 30351.5874 -71.8764 -3.6359
ENERGY: 1500000 5.1592 6.4625 5.6828 0.0000 -10456.9499 1382.0913 0.0000 0.0000 1767.7559 -7289.7981 303.4022 -9057.5540 -7398.8326 299.3762 21.9790 68.8485 30099.6387 -73.2121 -9.2436
TCL: Running FEP window  16: Lambda1 0.7500000000000001 Lambda2 0.8000000000000002 [dLambda 0.050000000000000044]
TCL: Setting parameter firsttimestep to 0
TCL: Setting parameter alchLambda to 0.7500000000000001
Info: NONBONDED TABLE R-SQUARED SPACING: 0.0625
Info: NONBONDED TABLE SIZE: 705 POINTS
TCL: Setting parameter alchLambda2 to 0.8000000000000002
Info: NONBONDED TABLE R-SQUARED SPACING: 0.0625
Info: NONBONDED TABLE SIZE: 705 POINTS
TCL: Running for 1500000 steps
ETITLE: TS BOND ANGLE DIHED IMPRP ELECT VDW BOUNDARY MISC KINETIC TOTAL TEMP POTENTIAL TOTALAVG TEMPAVG PRESSURE GPRESSURE VOLUME PRESSAVG GPRESSAVG
ENERGY: 0 5.1592 6.4625 5.6828 0.0000 -10457.5996 1383.3061 0.0000 0.0000 1766.8711 -7290.1179 303.2503 -9056.9889 -7290.1179 303.2503 14.2106 92.8241 30099.6387 14.2106 92.8241
ENERGY: 300000 2.2967 5.9105 0.9965 0.0000 -10649.8776 1504.9720 0.0000 0.0000 1728.9389 -7406.7630 296.7400 -9135.7019 -7417.4108 298.2196 1012.3222 1082.5550 29581.3356 34.7073 122.3947
ENERGY: 600000 2.5392 4.7326 1.2735 0.0000 -10604.9057 1414.5732 0.0000 0.0000 1752.7047 -7429.0825 300.8189 -9181.7872 -7428.5653 299.3214 -159.6531 -82.9837 30137.4502 -149.5826 -78.5953
ENERGY: 900000 0.9365 5.5382 3.7523 0.0000 -10578.2453 1408.3026 0.0000 0.0000 1731.1040 -7428.6118 297.1116 -9159.7158 -7416.8909 298.7092 -33.0936 35.2329 30137.9085 -195.6173 -124.8018
ENERGY: 1200000 2.4922 7.1786 4.9837 0.0000 -10565.9494 1418.8708 0.0000 0.0000 1765.9958 -7366.4283 303.1001 -9132.4241 -7406.9500 299.6245 238.3368 322.0239 29679.2089 -150.1806 -76.8009
ENERGY: 1500000 1.6617 5.5193 4.8196 0.0000 -10643.6125 1428.8472 0.0000 0.0000 1762.9508 -7439.8138 302.5775 -9202.7646 -7414.4159 299.1100 121.1182 235.4521 29637.3082 -95.4631 -20.8248
TCL: Running FEP window  17: Lambda1 0.8000000000000002 Lambda2 0.8500000000000002 [dLambda 0.050000000000000044]
TCL: Setting parameter firsttimestep to 0
TCL: Setting parameter alchLambda to 0.8000000000000002
Info: NONBONDED TABLE R-SQUARED SPACING: 0.0625
Info: NONBONDED TABLE SIZE: 705 POINTS
TCL: Setting parameter alchLambda2 to 0.8500000000000002
Info: NONBONDED TABLE R-SQUARED SPACING: 0.0625
Info: NONBONDED TABLE SIZE: 705 POINTS
TCL: Running for 1500000 steps
ETITLE: TS BOND ANGLE DIHED IMPRP ELECT VDW BOUNDARY MISC KINETIC TOTAL TEMP POTENTIAL TOTALAVG TEMPAVG PRESSURE GPRESSURE VOLUME PRESSAVG GPRESSAVG
ENERGY: 0 1.6617 5.5194 4.8196 0.0000 -10643.7661 1428.4444 0.0000 0.0000 1762.0834 -7441.2376 302.4286 -9203.3210 -7441.2376 302.4286 144.6916 236.5358 29637.3082 144.6916 236.5358
ENERGY: 300000 3.6073 7.2896 2.6304 0.0000 -10490.7358 1326.3926 0.0000 0.0000 1743.8982 -7406.9178 299.3075 -9150.8160 -7431.4408 299.8743 -973.8322 -888.7320 30519.7323 -340.2917 -260.6166
ENERGY: 600000 2.1694 4.5134 2.9158 0.0000 -10568.4110 1335.4870 0.0000 0.0000 1780.2719 -7443.0535 305.5503 -9223.3254 -7442.5316 299.8399 -842.1488 -838.3630 30144.0207 -349.8441 -272.2192
ENERGY: 900000 1.0508 3.0064 3.2301 0.0000 -10392.4434 1307.1496 0.0000 0.0000 1761.0142 -7316.9924 302.2451 -9078.0066 -7443.7592 299.0048 -886.5361 -841.4663 30566.4691 -315.5183 -250.8108
ENERGY: 1200000 2.6011 5.8481 2.0138 0.0000 -10673.1046 1412.2555 0.0000 0.0000 1749.5170 -7500.8692 300.2718 -9250.3861 -7449.4303 299.1308 -327.7895 -247.9468 30080.7918 -350.1862 -284.7835
ENERGY: 1500000 1.6350 3.8228 2.6460 0.0000 -10628.7021 1474.0513 0.0000 0.0000 1756.3539 -7390.1930 301.4453 -9146.5469 -7444.3782 299.0140 505.2718 567.7884 30012.3817 -296.8806 -230.1278
TCL: Running FEP window  18: Lambda1 0.8500000000000002 Lambda2 0.9000000000000002 [dLambda 0.050000000000000044]
TCL: Setting parameter firsttimestep to 0
TCL: Setting parameter alchLambda to 0.8500000000000002
Info: NONBONDED TABLE R-SQUARED SPACING: 0.0625
Info: NONBONDED TABLE SIZE: 705 POINTS
TCL: Setting parameter alchLambda2 to 0.9000000000000002
Info: NONBONDED TABLE R-SQUARED SPACING: 0.0625
Info: NONBONDED TABLE SIZE: 705 POINTS
TCL: Running for 1500000 steps
ETITLE: TS BOND ANGLE DIHED IMPRP ELECT VDW BOUNDARY MISC KINETIC TOTAL TEMP POTENTIAL TOTALAVG TEMPAVG PRESSURE GPRESSURE VOLUME PRESSAVG GPRESSAVG
ENERGY: 0 1.6350 3.8228 2.6460 0.0000 -10629.1967 1475.7428 0.0000 0.0000 1755.5463 -7389.8037 301.3066 -9145.3500 -7389.8037 301.3066 520.4069 601.1249 30012.3817 520.4069 601.1249
ENERGY: 300000 3.1389 4.4944 3.2402 0.0000 -10549.2417 1371.2938 0.0000 0.0000 1799.1801 -7367.8944 308.7956 -9167.0745 -7391.5805 303.4396 -230.6867 -189.2684 30010.5656 4.0786 61.6756
ENERGY: 600000 3.0971 3.3410 2.9743 0.0000 -10438.9252 1322.6342 0.0000 0.0000 1688.3836 -7418.4950 289.7794 -9106.8786 -7402.5078 300.8881 -636.6029 -558.5282 30081.0662 -10.0101 58.6238
ENERGY: 900000 2.8237 4.4015 3.0108 0.0000 -10643.3888 1423.5944 0.0000 0.0000 1747.3002 -7462.2581 299.8914 -9209.5583 -7402.0596 301.7025 -368.5541 -334.3777 30356.1700 -123.9741 -55.8122
ENERGY: 1200000 2.4191 6.9715 1.1859 0.0000 -10504.4258 1359.2827 0.0000 0.0000 1728.1034 -7406.4631 296.5966 -9134.5666 -7396.4184 302.1104 -367.8692 -375.0964 30473.4619 -163.6795 -101.3291
ENERGY: 1500000 1.1153 6.5564 3.1900 0.0000 -10683.1607 1496.4584 0.0000 0.0000 1728.5394 -7447.3011 296.6714 -9175.8405 -7400.5248 302.1204 557.9407 615.3593 29905.4454 -124.4153 -68.7401
TCL: Running FEP window  19: Lambda1 0.9000000000000002 Lambda2 0.9500000000000003 [dLambda 0.050000000000000044]
TCL: Setting parameter firsttimestep to 0
TCL: Setting parameter alchLambda to 0.9000000000000002
Info: NONBONDED TABLE R-SQUARED SPACING: 0.0625
Info: NONBONDED TABLE SIZE: 705 POINTS
TCL: Setting parameter alchLambda2 to 0.9500000000000003
Info: NONBONDED TABLE R-SQUARED SPACING: 0.0625
Info: NONBONDED TABLE SIZE: 705 POINTS
TCL: Running for 1500000 steps
ETITLE: TS BOND ANGLE DIHED IMPRP ELECT VDW BOUNDARY MISC KINETIC TOTAL TEMP POTENTIAL TOTALAVG TEMPAVG PRESSURE GPRESSURE VOLUME PRESSAVG GPRESSAVG
ENERGY: 0 1.1153 6.5564 3.1900 0.0000 -10683.5586 1496.1954 0.0000 0.0000 1727.6930 -7448.8086 296.5262 -9176.5016 -7448.8086 296.5262 531.1668 625.2364 29905.4454 531.1668 625.2364
ENERGY: 300000 1.7201 5.2707 0.7443 0.0000 -10517.6432 1345.1967 0.0000 0.0000 1750.4711 -7414.2403 300.4356 -9164.7114 -7450.1816 301.1544 -702.5333 -607.1074 30121.1519 -177.2968 -97.0606
ENERGY: 600000 2.3696 4.3638 1.8482 0.0000 -10513.9445 1358.4143 0.0000 0.0000 1706.6175 -7440.3309 292.9089 -9146.9485 -7471.4720 298.2737 -536.9433 -501.8292 30344.9373 -109.9428 -43.4473
ENERGY: 900000 2.8509 2.3906 4.2169 0.0000 -10566.8124 1368.2237 0.0000 0.0000 1709.9810 -7479.1493 293.4862 -9189.1303 -7439.4008 298.5190 -419.4817 -347.4412 29949.9966 -166.9683 -95.2820
ENERGY: 1200000 1.8251 3.4262 2.0470 0.0000 -10643.6813 1443.7192 0.0000 0.0000 1732.0200 -7460.6438 297.2688 -9192.6638 -7429.5892 299.6811 243.7716 245.7449 29807.9036 -96.1086 -20.3395
ENERGY: 1500000 3.4252 8.0774 2.9550 0.0000 -10610.9969 1383.9488 0.0000 0.0000 1749.0372 -7463.5533 300.1895 -9212.5906 -7430.5576 300.2760 -696.0895 -612.7690 30554.3301 -128.2912 -51.8798
TCL: Running FEP window  20: Lambda1 0.9500000000000003 Lambda2 1.0    [dLambda 0.04999999999999971]
TCL: Setting parameter firsttimestep to 0
TCL: Setting parameter alchLambda to 0.9500000000000003
Info: NONBONDED TABLE R-SQUARED SPACING: 0.0625
Info: NONBONDED TABLE SIZE: 705 POINTS
TCL: Setting parameter alchLambda2 to 1.0
Info: NONBONDED TABLE R-SQUARED SPACING: 0.0625
Info: NONBONDED TABLE SIZE: 705 POINTS
TCL: Running for 1500000 steps
ETITLE: TS BOND ANGLE DIHED IMPRP ELECT VDW BOUNDARY MISC KINETIC TOTAL TEMP POTENTIAL TOTALAVG TEMPAVG PRESSURE GPRESSURE VOLUME PRESSAVG GPRESSAVG
ENERGY: 0 3.4252 8.0774 2.9550 0.0000 -10611.7659 1383.9512 0.0000 0.0000 1748.1618 -7465.1953 300.0392 -9213.3571 -7465.1953 300.0392 -686.0321 -603.1795 30554.3301 -686.0321 -603.1795
ENERGY: 300000 1.1439 6.9718 6.4950 0.0000 -10524.7799 1381.1077 0.0000 0.0000 1767.3966 -7361.6649 303.3405 -9129.0615 -7388.9055 304.4977 -187.0098 -108.0875 30124.3883 -244.1104 -180.1920
ENERGY: 600000 1.5198 5.1843 1.7053 0.0000 -10601.3220 1478.0760 0.0000 0.0000 1761.4976 -7353.3390 302.3281 -9114.8366 -7390.1825 302.6354 374.6125 376.4555 30765.1974 -8.9343 47.1343
ENERGY: 900000 1.8637 10.2534 2.1532 0.0000 -10571.1805 1414.9230 0.0000 0.0000 1737.4205 -7404.5667 298.1957 -9141.9873 -7387.5484 302.4414 -374.5521 -287.1507 30796.7895 -80.4579 -15.3341
ENERGY: 1200000 3.5122 6.4340 5.1640 0.0000 -10606.1937 1459.3216 0.0000 0.0000 1729.2402 -7402.5216 296.7917 -9131.7618 -7392.6209 301.1176 515.0146 617.7643 30179.3827 -38.8091 29.0478
ENERGY: 1500000 1.4371 5.1701 2.7522 0.0000 -10572.4376 1422.5849 0.0000 0.0000 1775.3770 -7365.1163 304.7102 -9140.4933 -7391.2713 301.8931 -176.0094 -93.5631 30726.8437 -35.7395 39.2560
TCL: Exiting due to exit command.
