Info: SIMULATION PARAMETERS:
Info: TIMESTEP               2
Info: NUMBER OF STEPS        0
Info: STEPS PER CYCLE        10
Info: PERIODIC CELL BASIS 1  32.1211 0 0
Info: PERIODIC CELL BASIS 2  0 30.3318 0
Info: PERIODIC CELL BASIS 3  0 0 31.7448
Info: PERIODIC CELL CENTER   0 0 0
Info: WRAPPING WATERS AROUND PERIODIC BOUNDARIES ON OUTPUT.
Info: WRAPPING ALL CLUSTERS AROUND PERIODIC BOUNDARIES ON OUTPUT.
Info: FIRST LDB TIMESTEP     50
Info: LAST LDB TIMESTEP     -1
Info: HOM BACKGROUND SCALING 1
Info: PME BACKGROUND SCALING 1
Info: MIN ATOMS PER PATCH    40
Info: EMPTY PATCH LOAD       40 ATOMS
Info: VELOCITY FILE          mobley_2371092_equil.vel
Info: CENTER OF MASS MOVING INITIALLY? NO
Info: DIELECTRIC             1
Info: EXCLUDE                SCALED ONE-FOUR
Info: 1-4 ELECTROSTATICS SCALED BY 0.833333
Info: MODIFIED 1-4 VDW PARAMETERS WILL BE USED
Info: DCD FILENAME           mobley_2371092_prod.dcd
Info: DCD FREQUENCY          100000
Info: DCD FIRST STEP         100000
Info: DCD FILE WILL CONTAIN UNIT CELL DATA
Info: XST FILENAME           mobley_2371092_prod.xst
Info: XST FREQUENCY          100000
Info: NO VELOCITY DCD OUTPUT
Info: NO FORCE DCD OUTPUT
Info: OUTPUT FILENAME        mobley_2371092_prod
Info: BINARY OUTPUT FILES WILL BE USED
Info: RESTART FILENAME       mobley_2371092_prod.restart
Info: RESTART FREQUENCY      100000
Info: BINARY RESTART FILES WILL BE USED
Info: CUTOFF                 9
Info: PAIRLIST DISTANCE      11
Info: PAIRLIST SHRINK RATE   0.01
Info: PAIRLIST GROW RATE     0.01
Info: PAIRLIST TRIGGER       0.3
Info: PAIRLISTS PER CYCLE    2
Info: PAIRLISTS ENABLED
Info: MARGIN                 2
Info: HYDROGEN GROUP CUTOFF  2.5
Info: PATCH DIMENSION        15.5
Info: ENERGY OUTPUT STEPS    100000
Info: ENERGY EVALUATION STEPS    100000
Info: OUTPUT ENERGY PRECISION 4
Info: CROSSTERM ENERGY INCLUDED IN DIHEDRAL
Info: TIMING OUTPUT STEPS    1000000
Info: PRESSURE OUTPUT STEPS  100000
Info: ALCHEMICAL FEP ON
Info: FEP CURRENT LAMBDA VALUE     1
Info: FEP COMPARISON LAMBDA VALUE  0.95
Info: FEP INTRA-ALCHEMICAL NON-BONDED INTERACTIONS WILL BE RETAINED
Info: FEP INTRA-ALCHEMICAL BONDED INTERACTIONS WILL BE RETAINED
Info: FEP VDW SHIFTING COEFFICIENT 5
Info: FEP ELEC. ACTIVE FOR ANNIHILATED PARTICLES BETWEEN LAMBDA = 0 AND LAMBDA = 0.5
Info: FEP ELEC. ACTIVE FOR EXNIHILATED PARTICLES BETWEEN LAMBDA = 0.5 AND LAMBDA = 1
Info: FEP VDW ACTIVE FOR ANNIHILATED PARTICLES BETWEEN LAMBDA = 0 AND LAMBDA = 1
Info: FEP VDW ACTIVE FOR EXNIHILATED PARTICLES BETWEEN LAMBDA = 0 AND LAMBDA = 1
Info: FEP BOND ACTIVE FOR ANNIHILATED PARTICLES BETWEEN LAMBDA = 1 AND LAMBDA = 1
Info: FEP BOND ACTIVE FOR EXNIHILATED PARTICLES BETWEEN LAMBDA = 0 AND LAMBDA = 0
Info: LANGEVIN DYNAMICS ACTIVE
Info: LANGEVIN TEMPERATURE   300
Info: LANGEVIN USING BBK INTEGRATOR
Info: LANGEVIN DAMPING COEFFICIENT IS 1 INVERSE PS
Info: LANGEVIN DYNAMICS APPLIED TO HYDROGENS
Info: LANGEVIN PISTON PRESSURE CONTROL ACTIVE
Info:        TARGET PRESSURE IS 1.01325 BAR
Info:     OSCILLATION PERIOD IS 50 FS
Info:             DECAY TIME IS 25 FS
Info:     PISTON TEMPERATURE IS 300 K
Info:       PRESSURE CONTROL IS GROUP-BASED
Info:    INITIAL STRAIN RATE IS -3.75568e-05 -3.75568e-05 -3.75568e-05
Info:       CELL FLUCTUATION IS ISOTROPIC
Info: PARTICLE MESH EWALD (PME) ACTIVE
Info: PME TOLERANCE               1e-06
Info: PME EWALD COEFFICIENT       0.348832
Info: PME INTERPOLATION ORDER     4
Info: PME GRID DIMENSIONS         36 32 32
Info: PME MAXIMUM GRID SPACING    1
Info: PME CALCULATION WILL BE PERFORMED ON GPU
Info: FULL ELECTROSTATIC EVALUATION FREQUENCY      2
Info: USING VERLET I (r-RESPA) MTS SCHEME.
Info: C1 SPLITTING OF LONG RANGE ELECTROSTATICS
Info: PLACING ATOMS IN PATCHES BY HYDROGEN GROUPS
Info: RIGID BONDS TO HYDROGEN : ALL
Info:         ERROR TOLERANCE : 1e-08
Info:          MAX ITERATIONS : 100
Info: RIGID WATER USING SETTLE ALGORITHM
Info: RANDOM NUMBER SEED     1743601878
Info: USE HYDROGEN BONDS?    NO
Info: Using AMBER format force field!
Info: AMBER PARM FILE        mobley_2371092.prmtop
Info: COORDINATE PDB         mobley_2371092.pdb
Info: Exclusions will be read from PARM file!
Info: SCNB (VDW SCALING)     2
Info: USING ARITHMETIC MEAN TO COMBINE L-J SIGMA PARAMETERS
Info: BINARY COORDINATES     mobley_2371092_equil.coor
Info: SUMMARY OF PARAMETERS:
Info: 8 BONDS
Info: 9 ANGLES
Info:   9 HARMONIC
Info:   0 COSINE-BASED
Info: 4 DIHEDRAL
Info: 0 IMPROPER
Info: 0 CROSSTERM
Info: 0 VDW
Info: 36 VDW_PAIRS
Info: 0 NBTHOLE_PAIRS
Info: To read alchdata from file: mobley_2371092.pdb
Info: To read alchflag data from column: 5
Info: STRUCTURE SUMMARY:
Info: 2987 ATOMS
Info: 2987 BONDS
Info: 28 ANGLES
Info: 37 DIHEDRALS
Info: 0 IMPROPERS
Info: 0 CROSSTERMS
Info: 3044 EXCLUSIONS
Info: 2979 RIGID BONDS
Info: ALCH: 0 ATOMS TO DISAPPEAR IN FINAL STATE
Info: ALCH: 17 ATOMS TO APPEAR IN FINAL STATE
Info: 5982 DEGREES OF FREEDOM
Info: 998 HYDROGEN GROUPS
Info: 4 ATOMS IN LARGEST HYDROGEN GROUP
Info: 998 MIGRATION GROUPS
Info: 4 ATOMS IN LARGEST MIGRATION GROUP
Info: TOTAL MASS = 17943 amu
Info: TOTAL CHARGE = 0.00029997 e
Info: MASS DENSITY = 0.963368 g/cm^3
Info: ATOM DENSITY = 0.0965769 atoms/A^3
Info: ADDED 0 IMPLICIT EXCLUSIONS
Info: NONBONDED TABLE R-SQUARED SPACING: 0.0625
Info: NONBONDED TABLE SIZE: 705 POINTS
Info: REMOVING COM VELOCITY 0.0700466 0.196914 -0.0100548
Info: Use 3D box decompostion in PME FFT.
Info: Updated CUDA force table with 4096 elements.
Info: Updated CUDA LJ table with 8 x 8 elements.
Info: Found 15 unique exclusion lists needing 32 bytes
TCL: Running for 1500000 steps
ETITLE: TS BOND ANGLE DIHED IMPRP ELECT VDW BOUNDARY MISC KINETIC TOTAL TEMP POTENTIAL TOTALAVG TEMPAVG PRESSURE GPRESSURE VOLUME PRESSAVG GPRESSAVG
ENERGY: 0 3.6242 3.3336 1.9212 0.0000 -10830.9126 1434.8383 0.0000 0.0000 1793.8689 -7593.3263 301.8107 -9387.1952 -7593.3263 301.8107 -249.0527 -157.9634 30928.7072 -249.0527 -157.9634
ENERGY: 300000 1.4884 8.1653 1.7928 0.0000 -10802.4936 1421.0916 0.0000 0.0000 1756.7806 -7613.1749 295.5708 -9369.9555 -7579.5292 299.2995 -86.9807 -81.9955 30275.2489 12.4338 67.9947
ENERGY: 600000 0.7139 10.3474 1.2769 0.0000 -10762.4455 1379.7211 0.0000 0.0000 1754.3750 -7616.0112 295.1660 -9370.3862 -7602.6320 295.5260 -589.4075 -519.6153 30737.2910 -270.9157 -201.8017
ENERGY: 900000 1.7237 7.8016 1.6526 0.0000 -10648.5017 1352.6576 0.0000 0.0000 1769.4261 -7515.2401 297.6983 -9284.6662 -7584.8157 297.1391 -827.4007 -767.1854 31574.0565 -286.5911 -226.2777
ENERGY: 1200000 2.0150 3.7755 2.4051 0.0000 -10975.0830 1451.2537 0.0000 0.0000 1769.9592 -7745.6746 297.7880 -9515.6338 -7604.0275 296.7574 -94.9309 -38.3179 30197.3850 -264.8148 -202.6363
ENERGY: 1500000 3.6147 6.0772 1.7712 0.0000 -10735.5450 1326.5845 0.0000 0.0000 1770.0897 -7627.4077 297.8100 -9397.4974 -7598.2554 297.2105 -786.7348 -711.3244 30282.5484 -243.5134 -178.1797
TCL: Running FEP window   2: Lambda1 0.95   Lambda2 0.8999999999999999 [dLambda -0.050000000000000044]
TCL: Setting parameter firsttimestep to 0
TCL: Setting parameter alchLambda to 0.95
Info: NONBONDED TABLE R-SQUARED SPACING: 0.0625
Info: NONBONDED TABLE SIZE: 705 POINTS
TCL: Setting parameter alchLambda2 to 0.8999999999999999
Info: NONBONDED TABLE R-SQUARED SPACING: 0.0625
Info: NONBONDED TABLE SIZE: 705 POINTS
TCL: Running for 1500000 steps
ETITLE: TS BOND ANGLE DIHED IMPRP ELECT VDW BOUNDARY MISC KINETIC TOTAL TEMP POTENTIAL TOTALAVG TEMPAVG PRESSURE GPRESSURE VOLUME PRESSAVG GPRESSAVG
ENERGY: 0 3.6147 6.0772 1.7712 0.0000 -10734.0433 1326.1654 0.0000 0.0000 1769.1816 -7627.2332 297.6572 -9396.4148 -7627.2332 297.6572 -813.2928 -730.7572 30282.5484 -813.2928 -730.7572
ENERGY: 300000 2.3172 5.2086 3.2072 0.0000 -10722.3319 1429.5396 0.0000 0.0000 1776.2400 -7505.8191 298.8447 -9282.0591 -7576.2436 296.8664 121.0403 171.6635 30575.7673 -82.4436 -4.9530
ENERGY: 600000 2.1148 5.4032 3.5263 0.0000 -10824.3797 1493.7440 0.0000 0.0000 1824.8725 -7494.7190 307.0270 -9319.5915 -7581.1184 297.5709 566.2412 585.6746 30472.9647 125.1931 175.8860
ENERGY: 900000 3.5781 6.4858 1.1900 0.0000 -10814.9595 1471.2530 0.0000 0.0000 1759.0258 -7573.4268 295.9485 -9332.4526 -7574.2174 298.7541 -85.2660 -38.2340 31070.9970 107.0126 155.9649
ENERGY: 1200000 4.0162 9.1675 1.8240 0.0000 -10722.7912 1399.8691 0.0000 0.0000 1799.4699 -7508.4445 302.7531 -9307.9144 -7569.5915 299.4214 -322.0816 -249.9154 31201.1458 120.2441 170.2789
ENERGY: 1500000 4.6176 4.7394 2.6554 0.0000 -10690.8284 1358.7717 0.0000 0.0000 1786.2328 -7533.8115 300.5260 -9320.0443 -7568.8901 300.3375 -648.3173 -565.6905 31085.2206 45.5556 96.8974
TCL: Running FEP window   3: Lambda1 0.8999999999999999 Lambda2 0.8499999999999999 [dLambda -0.050000000000000044]
TCL: Setting parameter firsttimestep to 0
TCL: Setting parameter alchLambda to 0.8999999999999999
Info: NONBONDED TABLE R-SQUARED SPACING: 0.0625
Info: NONBONDED TABLE SIZE: 705 POINTS
TCL: Setting parameter alchLambda2 to 0.8499999999999999
Info: NONBONDED TABLE R-SQUARED SPACING: 0.0625
Info: NONBONDED TABLE SIZE: 705 POINTS
TCL: Running for 1500000 steps
ETITLE: TS BOND ANGLE DIHED IMPRP ELECT VDW BOUNDARY MISC KINETIC TOTAL TEMP POTENTIAL TOTALAVG TEMPAVG PRESSURE GPRESSURE VOLUME PRESSAVG GPRESSAVG
ENERGY: 0 4.6176 4.7394 2.6554 0.0000 -10690.2766 1358.9059 0.0000 0.0000 1785.3033 -7534.0550 300.3696 -9319.3583 -7534.0550 300.3696 -660.8753 -575.4774 31085.2206 -660.8753 -575.4774
ENERGY: 300000 4.4974 4.5101 2.0751 0.0000 -10714.7157 1353.3347 0.0000 0.0000 1818.8677 -7531.4307 306.0167 -9350.2984 -7546.0395 303.5216 -747.7435 -666.0283 30664.0240 -290.5038 -221.5517
ENERGY: 600000 5.0707 6.1616 2.1335 0.0000 -10752.9831 1436.2132 0.0000 0.0000 1801.4345 -7501.9696 303.0836 -9303.4041 -7555.2007 302.7035 57.1873 138.1326 30494.4194 -156.7025 -92.9506
ENERGY: 900000 1.8703 4.2596 3.7648 0.0000 -10724.1809 1337.6567 0.0000 0.0000 1846.0650 -7530.5644 310.5925 -9376.6294 -7554.9204 303.2994 -954.2646 -934.8769 31019.3043 -169.6253 -115.8330
ENERGY: 1200000 2.5002 6.1225 2.4960 0.0000 -10923.3507 1481.0434 0.0000 0.0000 1792.4790 -7638.7095 301.5769 -9431.1885 -7566.0855 302.8845 -94.8381 -27.6607 30714.8825 -145.0933 -91.4005
ENERGY: 1500000 0.6522 4.7760 3.2439 0.0000 -10819.8616 1482.4633 0.0000 0.0000 1816.9352 -7511.7911 305.6915 -9328.7263 -7563.2292 302.2871 384.5827 519.2621 30779.8590 -194.2545 -133.2854
TCL: Running FEP window   4: Lambda1 0.8499999999999999 Lambda2 0.7999999999999998 [dLambda -0.050000000000000044]
TCL: Setting parameter firsttimestep to 0
TCL: Setting parameter alchLambda to 0.8499999999999999
Info: NONBONDED TABLE R-SQUARED SPACING: 0.0625
Info: NONBONDED TABLE SIZE: 705 POINTS
TCL: Setting parameter alchLambda2 to 0.7999999999999998
Info: NONBONDED TABLE R-SQUARED SPACING: 0.0625
Info: NONBONDED TABLE SIZE: 705 POINTS
TCL: Running for 1500000 steps
ETITLE: TS BOND ANGLE DIHED IMPRP ELECT VDW BOUNDARY MISC KINETIC TOTAL TEMP POTENTIAL TOTALAVG TEMPAVG PRESSURE GPRESSURE VOLUME PRESSAVG GPRESSAVG
ENERGY: 0 0.6522 4.7760 3.2439 0.0000 -10818.6645 1481.8901 0.0000 0.0000 1816.0148 -7512.0876 305.5367 -9328.1023 -7512.0876 305.5367 419.5103 501.7120 30779.8590 419.5103 501.7120
ENERGY: 300000 3.4458 8.9868 0.7450 0.0000 -10856.1652 1482.7017 0.0000 0.0000 1789.3249 -7570.9609 301.0462 -9360.2858 -7594.8179 299.9206 122.5726 239.3526 30665.1546 -155.8528 -72.3641
ENERGY: 600000 4.6842 2.6900 2.7032 0.0000 -10824.2638 1439.4760 0.0000 0.0000 1795.6976 -7579.0128 302.1184 -9374.7104 -7593.9581 299.2667 -78.1182 5.8375 30861.2304 -142.3954 -48.1657
ENERGY: 900000 2.0495 3.6820 2.7919 0.0000 -10806.9149 1470.8301 0.0000 0.0000 1799.6102 -7527.9513 302.7767 -9327.5615 -7579.6925 299.7306 77.4907 123.2517 30900.6334 -107.6218 -27.4798
ENERGY: 1200000 2.2372 6.7590 1.0382 0.0000 -10874.4009 1429.8275 0.0000 0.0000 1835.2388 -7599.3002 308.7710 -9434.5390 -7565.1369 301.2767 -139.2170 -179.3007 30418.5724 -86.7257 -14.9295
ENERGY: 1500000 2.5236 3.2606 2.9257 0.0000 -10900.3499 1510.2519 0.0000 0.0000 1797.7100 -7583.6781 302.4570 -9381.3882 -7562.3193 301.2507 461.2479 524.8471 30478.3463 -63.4431 4.6842
TCL: Running FEP window   5: Lambda1 0.7999999999999998 Lambda2 0.7499999999999998 [dLambda -0.050000000000000044]
TCL: Setting parameter firsttimestep to 0
TCL: Setting parameter alchLambda to 0.7999999999999998
Info: NONBONDED TABLE R-SQUARED SPACING: 0.0625
Info: NONBONDED TABLE SIZE: 705 POINTS
TCL: Setting parameter alchLambda2 to 0.7499999999999998
Info: NONBONDED TABLE R-SQUARED SPACING: 0.0625
Info: NONBONDED TABLE SIZE: 705 POINTS
TCL: Running for 1500000 steps
ETITLE: TS BOND ANGLE DIHED IMPRP ELECT VDW BOUNDARY MISC KINETIC TOTAL TEMP POTENTIAL TOTALAVG TEMPAVG PRESSURE GPRESSURE VOLUME PRESSAVG GPRESSAVG
ENERGY: 0 2.5236 3.2606 2.9257 0.0000 -10899.0605 1510.4151 0.0000 0.0000 1796.8012 -7583.1344 302.3041 -9379.9356 -7583.1344 302.3041 422.0808 519.4238 30478.3463 422.0808 519.4238
ENERGY: 300000 2.3758 4.5758 2.9188 0.0000 -10759.6713 1436.5311 0.0000 0.0000 1794.1891 -7519.0807 301.8646 -9313.2698 -7510.4722 302.8486 -15.7541 41.5676 30819.3748 195.8969 238.5338
ENERGY: 600000 2.3069 5.1229 3.0694 0.0000 -10809.2481 1452.8676 0.0000 0.0000 1753.1395 -7592.7418 294.9582 -9345.8813 -7559.7817 303.4967 251.6483 283.1791 30552.7888 310.1913 345.3193
ENERGY: 900000 1.4523 4.0734 1.1258 0.0000 -10872.4525 1486.2376 0.0000 0.0000 1808.4709 -7571.0926 304.2674 -9379.5635 -7554.4437 303.2456 345.4045 406.3177 30520.6093 272.3171 317.4016
ENERGY: 1200000 3.0275 11.0396 3.8671 0.0000 -10861.4832 1483.3976 0.0000 0.0000 1765.8909 -7594.2605 297.1036 -9360.1514 -7565.9017 302.1807 -63.6434 9.1657 31393.3500 143.7397 191.4583
ENERGY: 1500000 2.8604 4.8154 0.3374 0.0000 -11006.8920 1647.5553 0.0000 0.0000 1770.3547 -7580.9689 297.8546 -9351.3235 -7568.1870 301.2410 1439.2774 1533.0818 30586.4319 174.2648 221.7544
TCL: Running FEP window   6: Lambda1 0.7499999999999998 Lambda2 0.6999999999999997 [dLambda -0.050000000000000044]
TCL: Setting parameter firsttimestep to 0
TCL: Setting parameter alchLambda to 0.7499999999999998
Info: NONBONDED TABLE R-SQUARED SPACING: 0.0625
Info: NONBONDED TABLE SIZE: 705 POINTS
TCL: Setting parameter alchLambda2 to 0.6999999999999997
Info: NONBONDED TABLE R-SQUARED SPACING: 0.0625
Info: NONBONDED TABLE SIZE: 705 POINTS
TCL: Running for 1500000 steps
ETITLE: TS BOND ANGLE DIHED IMPRP ELECT VDW BOUNDARY MISC KINETIC TOTAL TEMP POTENTIAL TOTALAVG TEMPAVG PRESSURE GPRESSURE VOLUME PRESSAVG GPRESSAVG
ENERGY: 0 2.8604 4.8154 0.3374 0.0000 -11005.6017 1647.6484 0.0000 0.0000 1769.4773 -7580.4628 297.7070 -9349.9402 -7580.4628 297.7070 1430.1829 1527.5672 30586.4319 1430.1829 1527.5672
ENERGY: 300000 4.1560 6.3078 3.1295 0.0000 -10738.1554 1387.3905 0.0000 0.0000 1774.8285 -7562.3432 298.6073 -9337.1716 -7595.3716 299.3861 -337.1849 -255.2082 30603.5447 343.6943 412.3966
ENERGY: 600000 3.7926 5.7145 1.8993 0.0000 -10711.9964 1354.4028 0.0000 0.0000 1817.4668 -7528.7204 305.7810 -9346.1872 -7585.7004 301.4821 -873.2185 -838.5732 30976.0991 -247.9942 -183.3366
ENERGY: 900000 1.4141 6.6465 2.9703 0.0000 -10894.8884 1476.2122 0.0000 0.0000 1733.1572 -7674.4881 291.5963 -9407.6453 -7602.8285 299.2939 80.0373 93.3943 30675.0456 -110.7493 -62.4346
ENERGY: 1200000 1.4671 6.0649 1.2171 0.0000 -10766.0351 1446.2389 0.0000 0.0000 1784.2317 -7526.8154 300.1893 -9311.0471 -7604.2115 299.8377 150.8756 210.8352 30573.5791 -156.2580 -112.6247
ENERGY: 1500000 2.9242 4.9432 1.5103 0.0000 -10745.8862 1392.4921 0.0000 0.0000 1767.5687 -7576.4477 297.3858 -9344.0164 -7594.5619 300.8701 -246.8645 -149.2396 30617.8334 -155.2755 -104.2479
TCL: Running FEP window   7: Lambda1 0.6999999999999997 Lambda2 0.6499999999999997 [dLambda -0.050000000000000044]
TCL: Setting parameter firsttimestep to 0
TCL: Setting parameter alchLambda to 0.6999999999999997
Info: NONBONDED TABLE R-SQUARED SPACING: 0.0625
Info: NONBONDED TABLE SIZE: 705 POINTS
TCL: Setting parameter alchLambda2 to 0.6499999999999997
Info: NONBONDED TABLE R-SQUARED SPACING: 0.0625
Info: NONBONDED TABLE SIZE: 705 POINTS
TCL: Running for 1500000 steps
ETITLE: TS BOND ANGLE DIHED IMPRP ELECT VDW BOUNDARY MISC KINETIC TOTAL TEMP POTENTIAL TOTALAVG TEMPAVG PRESSURE GPRESSURE VOLUME PRESSAVG GPRESSAVG
ENERGY: 0 2.9242 4.9432 1.5103 0.0000 -10745.5054 1392.8541 0.0000 0.0000 1766.6906 -7576.5831 297.2381 -9343.2737 -7576.5831 297.2381 -228.9874 -153.3932 30617.8334 -228.9874 -153.3932
ENERGY: 300000 2.3850 3.0183 2.2518 0.0000 -10845.2019 1461.0396 0.0000 0.0000 1854.9006 -7521.6065 312.0791 -9376.5071 -7568.3739 297.8554 265.9718 309.8748 30149.1605 -449.2608 -386.4652
ENERGY: 600000 3.0313 6.6904 2.3894 0.0000 -11037.9629 1554.8137 0.0000 0.0000 1833.9379 -7637.1003 308.5522 -9471.0381 -7602.0231 298.1608 475.2712 516.3598 30564.8309 -329.6270 -281.8215
ENERGY: 900000 1.3829 5.4377 3.2893 0.0000 -10782.7886 1500.0206 0.0000 0.0000 1716.4820 -7556.1762 288.7907 -9272.6581 -7584.7609 299.2348 279.1864 335.3533 31345.7824 -204.0086 -151.9115
ENERGY: 1200000 1.8380 3.4416 1.2668 0.0000 -10941.2182 1533.9044 0.0000 0.0000 1817.2151 -7583.5523 305.7386 -9400.7674 -7576.4471 299.6461 691.4857 751.9743 30304.6381 -251.3281 -201.3506
ENERGY: 1500000 4.4085 4.2368 1.1856 0.0000 -10848.0810 1491.4548 0.0000 0.0000 1784.7932 -7562.0021 300.2838 -9346.7953 -7578.2637 299.9720 123.3002 262.2865 31483.6651 -190.9780 -140.2070
TCL: Running FEP window   8: Lambda1 0.6499999999999997 Lambda2 0.5999999999999996 [dLambda -0.050000000000000044]
TCL: Setting parameter firsttimestep to 0
TCL: Setting parameter alchLambda to 0.6499999999999997
Info: NONBONDED TABLE R-SQUARED SPACING: 0.0625
Info: NONBONDED TABLE SIZE: 705 POINTS
TCL: Setting parameter alchLambda2 to 0.5999999999999996
Info: NONBONDED TABLE R-SQUARED SPACING: 0.0625
Info: NONBONDED TABLE SIZE: 705 POINTS
TCL: Running for 1500000 steps
ETITLE: TS BOND ANGLE DIHED IMPRP ELECT VDW BOUNDARY MISC KINETIC TOTAL TEMP POTENTIAL TOTALAVG TEMPAVG PRESSURE GPRESSURE VOLUME PRESSAVG GPRESSAVG
ENERGY: 0 4.4085 4.2368 1.1856 0.0000 -10847.8298 1491.8682 0.0000 0.0000 1783.8952 -7562.2354 300.1327 -9346.1306 -7562.2354 300.1327 154.9030 258.3327 31483.6651 154.9030 258.3327
ENERGY: 300000 1.7173 9.2978 2.1588 0.0000 -10874.0523 1489.9008 0.0000 0.0000 1769.9350 -7601.0426 297.7839 -9370.9775 -7606.4830 297.3137 322.6831 358.1772 30385.5579 331.5453 400.7028
ENERGY: 600000 3.7930 7.6114 4.4000 0.0000 -10819.6214 1419.7863 0.0000 0.0000 1752.1473 -7631.8834 294.7913 -9384.0307 -7597.6497 298.5032 -331.4197 -281.1168 30254.4303 184.6646 251.7951
ENERGY: 900000 3.4510 5.2270 2.2432 0.0000 -10863.3441 1540.6701 0.0000 0.0000 1811.8157 -7499.9371 304.8302 -9311.7528 -7568.2966 300.0607 534.4481 620.0030 31142.1173 201.7335 273.4705
ENERGY: 1200000 4.0440 6.3460 1.8391 0.0000 -10832.5197 1441.2784 0.0000 0.0000 1780.8410 -7598.1712 299.6188 -9379.0122 -7564.2771 300.2930 -595.6832 -519.0009 31223.4354 100.6003 169.4841
ENERGY: 1500000 1.5367 8.3301 0.9506 0.0000 -10877.3504 1481.3451 0.0000 0.0000 1761.8497 -7623.3382 296.4236 -9385.1879 -7569.1844 300.2191 56.8013 134.8086 30708.1659 65.7476 142.8978
TCL: Running FEP window   9: Lambda1 0.5999999999999996 Lambda2 0.5499999999999996 [dLambda -0.050000000000000044]
TCL: Setting parameter firsttimestep to 0
TCL: Setting parameter alchLambda to 0.5999999999999996
Info: NONBONDED TABLE R-SQUARED SPACING: 0.0625
Info: NONBONDED TABLE SIZE: 705 POINTS
TCL: Setting parameter alchLambda2 to 0.5499999999999996
Info: NONBONDED TABLE R-SQUARED SPACING: 0.0625
Info: NONBONDED TABLE SIZE: 705 POINTS
TCL: Running for 1500000 steps
ETITLE: TS BOND ANGLE DIHED IMPRP ELECT VDW BOUNDARY MISC KINETIC TOTAL TEMP POTENTIAL TOTALAVG TEMPAVG PRESSURE GPRESSURE VOLUME PRESSAVG GPRESSAVG
ENERGY: 0 1.5367 8.3301 0.9506 0.0000 -10877.0276 1481.6250 0.0000 0.0000 1760.9534 -7623.6318 296.2728 -9384.5852 -7623.6318 296.2728 23.5515 129.3475 30708.1659 23.5515 129.3475
ENERGY: 300000 0.6427 9.4281 1.5247 0.0000 -10786.5099 1387.3395 0.0000 0.0000 1748.1864 -7639.3884 294.1248 -9387.5749 -7620.2118 292.1160 -505.5498 -511.7608 30836.1226 -200.6577 -155.8564
ENERGY: 600000 1.5950 4.6380 1.0227 0.0000 -10770.0086 1405.7039 0.0000 0.0000 1804.1729 -7552.8762 303.5443 -9357.0490 -7605.6875 295.7866 -261.5807 -223.8478 30514.4598 -273.1829 -229.0889
ENERGY: 900000 4.0491 7.4049 3.2645 0.0000 -10918.7065 1473.2960 0.0000 0.0000 1805.9523 -7624.7397 303.8437 -9430.6920 -7608.9117 297.3760 -82.6484 -75.3937 30877.3932 -141.5776 -104.2194
ENERGY: 1200000 2.2486 4.0072 2.5260 0.0000 -10955.7538 1519.9589 0.0000 0.0000 1742.2996 -7684.7136 293.1344 -9427.0132 -7618.9790 298.0246 198.9797 300.5025 30702.5390 2.8676 46.1426
ENERGY: 1500000 2.4404 5.3738 2.3287 0.0000 -10908.6830 1464.2205 0.0000 0.0000 1786.0869 -7648.2327 300.5014 -9434.3196 -7615.6188 298.3911 -84.7403 -54.4508 30580.8748 -110.6607 -61.2723
TCL: Running FEP window  10: Lambda1 0.5499999999999996 Lambda2 0.4999999999999996 [dLambda -0.04999999999999999]
TCL: Setting parameter firsttimestep to 0
TCL: Setting parameter alchLambda to 0.5499999999999996
Info: NONBONDED TABLE R-SQUARED SPACING: 0.0625
Info: NONBONDED TABLE SIZE: 705 POINTS
TCL: Setting parameter alchLambda2 to 0.4999999999999996
Info: NONBONDED TABLE R-SQUARED SPACING: 0.0625
Info: NONBONDED TABLE SIZE: 705 POINTS
TCL: Running for 1500000 steps
ETITLE: TS BOND ANGLE DIHED IMPRP ELECT VDW BOUNDARY MISC KINETIC TOTAL TEMP POTENTIAL TOTALAVG TEMPAVG PRESSURE GPRESSURE VOLUME PRESSAVG GPRESSAVG
ENERGY: 0 2.4404 5.3738 2.3287 0.0000 -10908.4530 1464.7435 0.0000 0.0000 1785.2056 -7648.3610 300.3532 -9433.5666 -7648.3610 300.3532 -141.1658 -55.2653 30580.8748 -141.1658 -55.2653
ENERGY: 300000 1.7157 4.0760 1.9476 0.0000 -10788.8008 1415.7578 0.0000 0.0000 1774.1090 -7591.1948 298.4862 -9365.3038 -7568.8245 302.1691 -445.9353 -404.6924 30977.7180 -78.8768 -24.4513
ENERGY: 600000 1.5692 9.9165 0.7714 0.0000 -10862.0940 1449.7978 0.0000 0.0000 1727.6631 -7672.3759 290.6719 -9400.0390 -7568.5911 301.3541 -310.3017 -217.6085 30550.3054 -45.1870 20.1351
ENERGY: 900000 6.4642 5.2471 3.8717 0.0000 -10846.9058 1465.9021 0.0000 0.0000 1810.4608 -7554.9599 304.6022 -9365.4207 -7553.7036 302.2759 -194.3373 -85.5512 30732.4908 -131.8369 -64.3657
ENERGY: 1200000 3.9175 5.8927 1.0841 0.0000 -10900.9452 1503.7493 0.0000 0.0000 1788.8152 -7597.4864 300.9605 -9386.3016 -7569.6775 301.4027 460.7401 461.1133 30253.2739 -97.2583 -42.1569
ENERGY: 1500000 2.5247 3.1930 3.2177 0.0000 -10741.8528 1383.4814 0.0000 0.0000 1855.2653 -7494.1707 312.1404 -9349.4360 -7562.7795 302.4893 -618.0817 -542.0924 30782.2084 -182.7686 -125.4192
TCL: Running FEP window  11: Lambda1 0.4999999999999996 Lambda2 0.4499999999999996 [dLambda -0.04999999999999999]
TCL: Setting parameter firsttimestep to 0
TCL: Setting parameter alchLambda to 0.4999999999999996
Info: NONBONDED TABLE R-SQUARED SPACING: 0.0625
Info: NONBONDED TABLE SIZE: 705 POINTS
TCL: Setting parameter alchLambda2 to 0.4499999999999996
Info: NONBONDED TABLE R-SQUARED SPACING: 0.0625
Info: NONBONDED TABLE SIZE: 705 POINTS
TCL: Running for 1500000 steps
ETITLE: TS BOND ANGLE DIHED IMPRP ELECT VDW BOUNDARY MISC KINETIC TOTAL TEMP POTENTIAL TOTALAVG TEMPAVG PRESSURE GPRESSURE VOLUME PRESSAVG GPRESSAVG
ENERGY: 0 2.5247 3.1930 3.2177 0.0000 -10741.9361 1384.2240 0.0000 0.0000 1854.3841 -7494.3926 311.9921 -9348.7766 -7494.3926 311.9921 -631.2496 -545.3062 30782.2084 -631.2496 -545.3062
ENERGY: 300000 3.2601 7.2300 4.6611 0.0000 -10833.0477 1404.9261 0.0000 0.0000 1803.9948 -7608.9755 303.5144 -9412.9704 -7526.7117 308.3297 -888.1742 -789.1486 31106.7249 -315.9601 -216.8836
ENERGY: 600000 2.7431 8.0389 4.8114 0.0000 -10829.2206 1448.7935 0.0000 0.0000 1827.0657 -7537.7680 307.3959 -9364.8337 -7559.2638 305.1694 -35.6526 52.5983 30805.0243 -191.3688 -93.3896
ENERGY: 900000 3.5113 6.8991 2.6082 0.0000 -10708.7575 1368.4216 0.0000 0.0000 1835.0505 -7492.2668 308.7394 -9327.3173 -7567.5646 304.2249 -552.1978 -552.5202 30595.1906 -161.3651 -76.8512
ENERGY: 1200000 4.8046 5.5310 0.7228 0.0000 -10908.5386 1469.0305 0.0000 0.0000 1822.4504 -7605.9993 306.6194 -9428.4497 -7573.3899 302.9051 109.7452 161.6591 30406.6710 -186.7938 -109.4780
ENERGY: 1500000 1.3743 4.1741 2.7930 0.0000 -10873.1424 1453.1751 0.0000 0.0000 1778.8296 -7632.7963 299.2804 -9411.6259 -7571.6944 302.2738 -175.6933 -98.8719 30669.9061 -83.7475 -10.8017
TCL: Running FEP window  12: Lambda1 0.4499999999999996 Lambda2 0.39999999999999963 [dLambda -0.04999999999999999]
TCL: Setting parameter firsttimestep to 0
TCL: Setting parameter alchLambda to 0.4499999999999996
Info: NONBONDED TABLE R-SQUARED SPACING: 0.0625
Info: NONBONDED TABLE SIZE: 705 POINTS
TCL: Setting parameter alchLambda2 to 0.39999999999999963
Info: NONBONDED TABLE R-SQUARED SPACING: 0.0625
Info: NONBONDED TABLE SIZE: 705 POINTS
TCL: Running for 1500000 steps
ETITLE: TS BOND ANGLE DIHED IMPRP ELECT VDW BOUNDARY MISC KINETIC TOTAL TEMP POTENTIAL TOTALAVG TEMPAVG PRESSURE GPRESSURE VOLUME PRESSAVG GPRESSAVG
ENERGY: 0 1.3743 4.1741 2.7930 0.0000 -10873.1418 1453.2990 0.0000 0.0000 1777.9661 -7633.5353 299.1352 -9411.5014 -7633.5353 299.1352 -193.8166 -100.7535 30669.9061 -193.8166 -100.7535
ENERGY: 300000 1.3237 6.9678 2.0128 0.0000 -10831.9742 1434.6194 0.0000 0.0000 1734.0609 -7652.9896 291.7483 -9387.0505 -7578.8861 298.1144 -288.2878 -227.6529 30510.0788 -314.7150 -240.5788
ENERGY: 600000 2.2763 5.1528 0.9016 0.0000 -10735.5169 1436.6860 0.0000 0.0000 1749.3929 -7541.1071 294.3278 -9290.5001 -7549.5198 298.3483 -240.9005 -134.9424 30815.0430 -419.5501 -352.0435
ENERGY: 900000 0.8122 8.9473 1.9789 0.0000 -10898.5565 1490.7241 0.0000 0.0000 1777.7173 -7618.3767 299.0933 -9396.0940 -7563.2805 299.8976 168.8030 229.7593 30497.4255 -296.2198 -231.6752
ENERGY: 1200000 1.8730 7.2301 2.0185 0.0000 -10917.7653 1491.1318 0.0000 0.0000 1783.0815 -7632.4302 299.9958 -9415.5117 -7570.4357 300.4443 65.6121 181.8965 30813.6751 -177.8633 -114.4353
ENERGY: 1500000 3.8818 5.7206 1.3399 0.0000 -10871.4345 1527.2784 0.0000 0.0000 1811.5192 -7521.6944 304.7803 -9333.2137 -7565.6716 300.3616 686.8138 754.1842 30370.5063 -104.8934 -38.3205
TCL: Running FEP window  13: Lambda1 0.39999999999999963 Lambda2 0.34999999999999964 [dLambda -0.04999999999999999]
TCL: Setting parameter firsttimestep to 0
TCL: Setting parameter alchLambda to 0.39999999999999963
Info: NONBONDED TABLE R-SQUARED SPACING: 0.0625
Info: NONBONDED TABLE SIZE: 705 POINTS
TCL: Setting parameter alchLambda2 to 0.34999999999999964
Info: NONBONDED TABLE R-SQUARED SPACING: 0.0625
Info: NONBONDED TABLE SIZE: 705 POINTS
TCL: Running for 1500000 steps
ETITLE: TS BOND ANGLE DIHED IMPRP ELECT VDW BOUNDARY MISC KINETIC TOTAL TEMP POTENTIAL TOTALAVG TEMPAVG PRESSURE GPRESSURE VOLUME PRESSAVG GPRESSAVG
ENERGY: 0 3.8818 5.7206 1.3399 0.0000 -10871.4349 1527.3328 0.0000 0.0000 1810.5833 -7522.5764 304.6229 -9333.1597 -7522.5764 304.6229 659.9271 750.1601 30370.5063 659.9271 750.1601
ENERGY: 300000 3.4077 5.3530 2.6895 0.0000 -10853.6093 1458.4325 0.0000 0.0000 1743.4883 -7640.2382 293.3344 -9383.7265 -7604.4352 297.5332 -240.3681 -140.2373 30484.4378 -247.4449 -150.3962
ENERGY: 600000 4.5719 5.5380 2.8632 0.0000 -10958.9917 1510.3874 0.0000 0.0000 1727.5409 -7708.0903 290.6513 -9435.6313 -7616.0392 299.0913 14.6880 85.9078 30719.3013 -227.4711 -151.0488
ENERGY: 900000 3.4500 6.4721 2.2606 0.0000 -10880.1867 1511.1065 0.0000 0.0000 1793.0452 -7563.8522 301.6722 -9356.8974 -7611.5125 298.1684 227.4527 285.8487 30830.5966 -177.6296 -100.5777
ENERGY: 1200000 1.7457 7.0208 2.3920 0.0000 -10683.0142 1424.5443 0.0000 0.0000 1747.9761 -7499.3353 294.0895 -9247.3114 -7601.7769 297.9927 -77.9944 -50.1436 31074.9444 -205.1749 -133.8703
ENERGY: 1500000 2.3429 5.0736 2.2002 0.0000 -10975.1007 1551.1767 0.0000 0.0000 1756.2410 -7658.0664 295.4800 -9414.3073 -7595.0576 298.0717 553.3062 618.3209 30473.8575 -85.7684 -17.8644
TCL: Running FEP window  14: Lambda1 0.34999999999999964 Lambda2 0.29999999999999966 [dLambda -0.04999999999999999]
TCL: Setting parameter firsttimestep to 0
TCL: Setting parameter alchLambda to 0.34999999999999964
Info: NONBONDED TABLE R-SQUARED SPACING: 0.0625
Info: NONBONDED TABLE SIZE: 705 POINTS
TCL: Setting parameter alchLambda2 to 0.29999999999999966
Info: NONBONDED TABLE R-SQUARED SPACING: 0.0625
Info: NONBONDED TABLE SIZE: 705 POINTS
TCL: Running for 1500000 steps
ETITLE: TS BOND ANGLE DIHED IMPRP ELECT VDW BOUNDARY MISC KINETIC TOTAL TEMP POTENTIAL TOTALAVG TEMPAVG PRESSURE GPRESSURE VOLUME PRESSAVG GPRESSAVG
ENERGY: 0 2.3429 5.0736 2.2002 0.0000 -10975.1015 1551.5914 0.0000 0.0000 1755.3637 -7658.5297 295.3324 -9413.8934 -7658.5297 295.3324 543.9979 617.7212 30473.8575 543.9979 617.7212
ENERGY: 300000 2.5437 7.4237 3.6509 0.0000 -10732.2282 1446.4472 0.0000 0.0000 1803.8911 -7468.2716 303.4969 -9272.1627 -7587.8311 298.3801 -205.8166 -85.2642 30990.1660 -48.0847 41.7531
ENERGY: 600000 2.9545 9.9166 1.5571 0.0000 -10863.7154 1488.3197 0.0000 0.0000 1803.7292 -7557.2383 303.4697 -9360.9674 -7567.7270 299.5322 164.9543 255.3212 30754.1256 -138.3181 -40.0643
ENERGY: 900000 3.0135 7.3470 4.4512 0.0000 -10799.5344 1496.7250 0.0000 0.0000 1708.6629 -7579.3348 287.4752 -9287.9978 -7574.4492 297.1008 297.9941 363.3789 30879.6589 -108.9499 -14.1536
ENERGY: 1200000 1.9530 11.7868 0.8468 0.0000 -10814.7970 1471.3053 0.0000 0.0000 1751.3264 -7577.5787 294.6531 -9328.9051 -7572.6575 297.6236 367.5138 345.4922 30672.8850 -11.7554 74.8001
ENERGY: 1500000 2.5547 5.3128 2.5980 0.0000 -10781.7487 1422.1750 0.0000 0.0000 1779.9180 -7569.1902 299.4636 -9349.1083 -7571.1157 298.2987 -174.5527 -139.8156 30916.4367 66.5203 141.8714
TCL: Running FEP window  15: Lambda1 0.29999999999999966 Lambda2 0.24999999999999967 [dLambda -0.04999999999999999]
TCL: Setting parameter firsttimestep to 0
TCL: Setting parameter alchLambda to 0.29999999999999966
Info: NONBONDED TABLE R-SQUARED SPACING: 0.0625
Info: NONBONDED TABLE SIZE: 705 POINTS
TCL: Setting parameter alchLambda2 to 0.24999999999999967
Info: NONBONDED TABLE R-SQUARED SPACING: 0.0625
Info: NONBONDED TABLE SIZE: 705 POINTS
TCL: Running for 1500000 steps
ETITLE: TS BOND ANGLE DIHED IMPRP ELECT VDW BOUNDARY MISC KINETIC TOTAL TEMP POTENTIAL TOTALAVG TEMPAVG PRESSURE GPRESSURE VOLUME PRESSAVG GPRESSAVG
ENERGY: 0 2.5547 5.3127 2.5980 0.0000 -10781.7468 1422.3838 0.0000 0.0000 1779.0371 -7569.8606 299.3153 -9348.8977 -7569.8606 299.3153 -238.7428 -141.7350 30916.4367 -238.7428 -141.7350
ENERGY: 300000 4.1678 5.7772 2.1394 0.0000 -10880.1727 1483.5626 0.0000 0.0000 1785.3901 -7599.1355 300.3842 -9384.5256 -7614.4706 299.8772 79.7969 156.0386 30600.5312 -60.2595 38.8235
ENERGY: 600000 3.6499 4.7298 4.3025 0.0000 -10731.7341 1439.2883 0.0000 0.0000 1729.5959 -7550.1676 290.9971 -9279.7635 -7586.3059 298.4790 -133.1282 -87.4146 30592.1071 -250.8479 -153.6105
ENERGY: 900000 1.6837 2.6760 1.5212 0.0000 -10771.8452 1461.3968 0.0000 0.0000 1807.3335 -7497.2341 304.0761 -9304.5676 -7587.9885 300.0015 -16.8448 10.7344 31209.5192 -311.3602 -220.9965
ENERGY: 1200000 2.5265 5.3042 1.6782 0.0000 -10864.6607 1438.4291 0.0000 0.0000 1799.5826 -7617.1402 302.7720 -9416.7227 -7587.5307 301.0333 -524.0266 -465.7049 30845.7599 -271.1444 -195.1034
ENERGY: 1500000 3.5405 6.7922 2.8220 0.0000 -10701.9141 1356.4485 0.0000 0.0000 1779.3582 -7552.9527 299.3694 -9332.3109 -7589.7547 300.7484 -968.3080 -910.7882 31204.5955 -216.2893 -145.6712
TCL: Running FEP window  16: Lambda1 0.24999999999999967 Lambda2 0.19999999999999968 [dLambda -0.04999999999999999]
TCL: Setting parameter firsttimestep to 0
TCL: Setting parameter alchLambda to 0.24999999999999967
Info: NONBONDED TABLE R-SQUARED SPACING: 0.0625
Info: NONBONDED TABLE SIZE: 705 POINTS
TCL: Setting parameter alchLambda2 to 0.19999999999999968
Info: NONBONDED TABLE R-SQUARED SPACING: 0.0625
Info: NONBONDED TABLE SIZE: 705 POINTS
TCL: Running for 1500000 steps
ETITLE: TS BOND ANGLE DIHED IMPRP ELECT VDW BOUNDARY MISC KINETIC TOTAL TEMP POTENTIAL TOTALAVG TEMPAVG PRESSURE GPRESSURE VOLUME PRESSAVG GPRESSAVG
ENERGY: 0 3.5405 6.7922 2.8220 0.0000 -10701.9157 1356.4639 0.0000 0.0000 1778.4535 -7553.8436 299.2172 -9332.2971 -7553.8436 299.2172 -996.2132 -913.5769 31204.5955 -996.2132 -913.5769
ENERGY: 300000 1.1910 8.5168 1.7463 0.0000 -10810.8609 1445.6512 0.0000 0.0000 1815.5243 -7538.2313 305.4542 -9353.7556 -7573.7116 301.8906 -156.8757 -112.2197 30932.4669 -39.1786 -1.3721
ENERGY: 600000 3.1060 5.7271 2.7201 0.0000 -10860.0769 1499.8379 0.0000 0.0000 1818.5836 -7530.1022 305.9689 -9348.6858 -7568.9376 302.3052 442.7510 502.1400 30257.9705 -6.9067 39.2712
ENERGY: 900000 4.1038 7.2023 0.8980 0.0000 -10847.1058 1461.9593 0.0000 0.0000 1752.6308 -7620.3116 294.8726 -9372.9424 -7568.7006 301.4916 55.2701 102.8112 30597.4113 -55.9253 -5.2319
ENERGY: 1200000 4.5013 8.0338 1.5672 0.0000 -10847.4999 1450.1099 0.0000 0.0000 1695.4757 -7687.8120 285.2565 -9383.2877 -7566.6857 300.8799 -143.9077 -123.0324 30170.3885 -55.7818 -10.7808
ENERGY: 1500000 1.2660 5.3492 3.7985 0.0000 -10766.8533 1411.1424 0.0000 0.0000 1789.0829 -7556.2142 301.0055 -9345.2971 -7562.3507 301.2507 -241.2502 -241.1996 30807.1457 -66.5563 -22.1440
TCL: Running FEP window  17: Lambda1 0.19999999999999968 Lambda2 0.1499999999999997 [dLambda -0.04999999999999999]
TCL: Setting parameter firsttimestep to 0
TCL: Setting parameter alchLambda to 0.19999999999999968
Info: NONBONDED TABLE R-SQUARED SPACING: 0.0625
Info: NONBONDED TABLE SIZE: 705 POINTS
TCL: Setting parameter alchLambda2 to 0.1499999999999997
Info: NONBONDED TABLE R-SQUARED SPACING: 0.0625
Info: NONBONDED TABLE SIZE: 705 POINTS
TCL: Running for 1500000 steps
ETITLE: TS BOND ANGLE DIHED IMPRP ELECT VDW BOUNDARY MISC KINETIC TOTAL TEMP POTENTIAL TOTALAVG TEMPAVG PRESSURE GPRESSURE VOLUME PRESSAVG GPRESSAVG
ENERGY: 0 1.2660 5.3492 3.7985 0.0000 -10766.8538 1411.4135 0.0000 0.0000 1788.2084 -7556.8181 300.8584 -9345.0265 -7556.8181 300.8584 -322.7618 -243.8396 30807.1457 -322.7618 -243.8396
ENERGY: 300000 1.0298 6.0491 0.8968 0.0000 -10760.0149 1417.0700 0.0000 0.0000 1732.3446 -7602.6246 291.4595 -9334.9692 -7576.8622 298.1429 -399.0172 -289.4659 30645.1304 -401.5127 -319.1692
ENERGY: 600000 1.9069 6.1119 2.7878 0.0000 -10833.3194 1424.0763 0.0000 0.0000 1728.3206 -7670.1159 290.7825 -9398.4365 -7597.0161 295.5582 -388.1314 -322.4771 30272.1713 -505.2965 -433.3554
ENERGY: 900000 6.9558 4.0705 1.6939 0.0000 -10826.9586 1450.0949 0.0000 0.0000 1787.6776 -7576.4660 300.7691 -9364.1436 -7595.1129 295.4261 -318.2131 -237.6179 30496.0053 -317.2488 -245.9046
ENERGY: 1200000 2.7400 10.8252 4.9692 0.0000 -10881.1493 1481.3995 0.0000 0.0000 1828.3624 -7552.8529 307.6141 -9381.2153 -7592.5544 297.7743 342.3105 424.4376 30534.8467 -337.8100 -271.2211
ENERGY: 1500000 3.4165 4.8820 0.8510 0.0000 -10804.9757 1510.7555 0.0000 0.0000 1748.0931 -7536.9776 294.1091 -9285.0707 -7579.5880 297.7205 471.8266 504.8731 30792.2645 -341.9663 -270.6260
TCL: Running FEP window  18: Lambda1 0.1499999999999997 Lambda2 0.09999999999999969 [dLambda -0.05 ]
TCL: Setting parameter firsttimestep to 0
TCL: Setting parameter alchLambda to 0.1499999999999997
Info: NONBONDED TABLE R-SQUARED SPACING: 0.0625
Info: NONBONDED TABLE SIZE: 705 POINTS
TCL: Setting parameter alchLambda2 to 0.09999999999999969
Info: NONBONDED TABLE R-SQUARED SPACING: 0.0625
Info: NONBONDED TABLE SIZE: 705 POINTS
TCL: Running for 1500000 steps
ETITLE: TS BOND ANGLE DIHED IMPRP ELECT VDW BOUNDARY MISC KINETIC TOTAL TEMP POTENTIAL TOTALAVG TEMPAVG PRESSURE GPRESSURE VOLUME PRESSAVG GPRESSAVG
ENERGY: 0 3.4165 4.8820 0.8510 0.0000 -10804.9751 1510.2292 0.0000 0.0000 1747.2011 -7538.3952 293.9591 -9285.5963 -7538.3952 293.9591 420.0976 499.4797 30792.2645 420.0976 499.4797
ENERGY: 300000 5.4888 6.8786 2.0287 0.0000 -10948.0151 1542.3529 0.0000 0.0000 1807.9651 -7583.3010 304.1824 -9391.2660 -7556.6023 301.4301 601.6622 665.3215 30255.2375 442.7167 521.7918
ENERGY: 600000 3.8478 6.7576 2.1625 0.0000 -10851.7859 1449.8561 0.0000 0.0000 1834.0663 -7555.0957 308.5738 -9389.1620 -7554.9083 303.1530 -312.4263 -276.3894 30853.0351 158.1625 214.4390
ENERGY: 900000 2.3887 6.3409 2.4988 0.0000 -10827.1674 1452.1544 0.0000 0.0000 1804.4531 -7559.3315 303.5915 -9363.7846 -7555.3391 302.7841 -4.4574 58.9057 30681.4941 51.7632 118.7098
ENERGY: 1200000 5.5775 4.2167 1.3531 0.0000 -10927.5521 1476.4660 0.0000 0.0000 1767.4797 -7672.4591 297.3709 -9439.9388 -7569.0736 302.4150 -386.7368 -314.0097 30809.0898 -5.9728 58.7515
ENERGY: 1500000 1.1870 3.6400 1.2945 0.0000 -10857.3031 1409.3684 0.0000 0.0000 1809.4316 -7632.3817 304.4291 -9441.8132 -7574.1624 301.7836 -528.4351 -486.2597 30673.2480 -23.6694 35.3648
TCL: Running FEP window  19: Lambda1 0.09999999999999969 Lambda2 0.049999999999999684 [dLambda -0.05 ]
TCL: Setting parameter firsttimestep to 0
TCL: Setting parameter alchLambda to 0.09999999999999969
Info: NONBONDED TABLE R-SQUARED SPACING: 0.0625
Info: NONBONDED TABLE SIZE: 705 POINTS
TCL: Setting parameter alchLambda2 to 0.049999999999999684
Info: NONBONDED TABLE R-SQUARED SPACING: 0.0625
Info: NONBONDED TABLE SIZE: 705 POINTS
TCL: Running for 1500000 steps
ETITLE: TS BOND ANGLE DIHED IMPRP ELECT VDW BOUNDARY MISC KINETIC TOTAL TEMP POTENTIAL TOTALAVG TEMPAVG PRESSURE GPRESSURE VOLUME PRESSAVG GPRESSAVG
ENERGY: 0 1.1870 3.6400 1.2945 0.0000 -10857.3048 1408.3006 0.0000 0.0000 1808.5443 -7634.3385 304.2798 -9442.8828 -7634.3385 304.2798 -551.4322 -493.8750 30673.2480 -551.4322 -493.8750
ENERGY: 300000 2.8313 3.6609 1.5076 0.0000 -10784.2715 1454.7160 0.0000 0.0000 1783.3292 -7538.2265 300.0375 -9321.5557 -7565.9844 299.2773 117.3240 214.9398 30709.3304 -122.3229 -42.9633
ENERGY: 600000 3.6274 8.6913 1.3629 0.0000 -10948.0833 1585.5732 0.0000 0.0000 1829.1125 -7519.7160 307.7403 -9348.8285 -7573.1224 300.6985 1164.6008 1284.7014 30174.6982 206.2858 292.3977
ENERGY: 900000 0.5698 7.6143 7.1367 0.0000 -10906.1446 1491.5732 0.0000 0.0000 1823.5870 -7575.6636 306.8107 -9399.2506 -7570.8451 301.1737 227.2949 307.0357 30389.7505 168.8520 249.1980
ENERGY: 1200000 3.8613 12.3543 3.0869 0.0000 -10862.8381 1454.4974 0.0000 0.0000 1833.8943 -7555.1440 308.5448 -9389.0383 -7562.4219 301.2696 -305.0434 -229.1600 30600.8970 74.5050 152.7173
ENERGY: 1500000 1.4979 7.8375 1.0030 0.0000 -10807.7617 1446.8466 0.0000 0.0000 1803.1177 -7547.4589 303.3668 -9350.5766 -7565.8767 301.2148 -127.3181 10.6370 30519.6956 -32.2527 51.7002
TCL: Running FEP window  20: Lambda1 0.049999999999999684 Lambda2 0.0    [dLambda -0.049999999999999684]
TCL: Setting parameter firsttimestep to 0
TCL: Setting parameter alchLambda to 0.049999999999999684
Info: NONBONDED TABLE R-SQUARED SPACING: 0.0625
Info: NONBONDED TABLE SIZE: 705 POINTS
TCL: Setting parameter alchLambda2 to 0.0
Info: NONBONDED TABLE R-SQUARED SPACING: 0.0625
Info: NONBONDED TABLE SIZE: 705 POINTS
TCL: Running for 1500000 steps
ETITLE: TS BOND ANGLE DIHED IMPRP ELECT VDW BOUNDARY MISC KINETIC TOTAL TEMP POTENTIAL TOTALAVG TEMPAVG PRESSURE GPRESSURE VOLUME PRESSAVG GPRESSAVG
ENERGY: 0 1.4979 7.8375 1.0030 0.0000 -10807.7628 1446.5668 0.0000 0.0000 1802.2238 -7548.6337 303.2164 -9350.8576 -7548.6337 303.2164 -81.7205 6.3524 30519.6956 -81.7205 6.3524
ENERGY: 300000 2.2263 6.0854 3.7150 0.0000 -10693.2323 1366.0700 0.0000 0.0000 1772.0452 -7543.0903 298.1390 -9315.1355 -7563.7416 300.3716 -758.1668 -736.0749 31399.3914 -146.2317 -91.3794
ENERGY: 600000 2.6579 8.3893 2.1774 0.0000 -10831.0437 1433.3683 0.0000 0.0000 1790.2775 -7594.1732 301.2065 -9384.4508 -7566.7635 300.2586 -314.3905 -281.0304 30542.7453 -188.3189 -127.8354
ENERGY: 900000 4.0888 11.8884 2.4327 0.0000 -10779.2886 1505.1368 0.0000 0.0000 1818.7269 -7437.0150 305.9930 -9255.7418 -7544.5210 301.4288 870.5085 832.8314 30286.1701 27.0451 67.7290
ENERGY: 1200000 2.2477 7.1949 2.0032 0.0000 -10699.8447 1387.1948 0.0000 0.0000 1765.0446 -7536.1595 296.9612 -9301.2041 -7542.0980 300.4981 -438.9009 -367.1463 30575.3881 -87.0501 -44.5770
ENERGY: 1500000 1.4795 6.9521 0.5176 0.0000 -10827.5139 1461.5826 0.0000 0.0000 1727.1761 -7629.8060 290.5900 -9356.9821 -7562.1620 299.6166 -57.8013 40.9015 30457.2645 -106.4794 -51.7630
TCL: Exiting due to exit command.
