Info: SIMULATION PARAMETERS:
Info: TIMESTEP               2
Info: NUMBER OF STEPS        0
Info: STEPS PER CYCLE        10
Info: PERIODIC CELL BASIS 1  31.5997 0 0
Info: PERIODIC CELL BASIS 2  0 29.5324 0
Info: PERIODIC CELL BASIS 3  0 0 31.8718
Info: PERIODIC CELL CENTER   0 0 0
Info: WRAPPING WATERS AROUND PERIODIC BOUNDARIES ON OUTPUT.
Info: WRAPPING ALL CLUSTERS AROUND PERIODIC BOUNDARIES ON OUTPUT.
Info: FIRST LDB TIMESTEP     50
Info: LAST LDB TIMESTEP     -1
Info: HOM BACKGROUND SCALING 1
Info: PME BACKGROUND SCALING 1
Info: MIN ATOMS PER PATCH    40
Info: EMPTY PATCH LOAD       40 ATOMS
Info: VELOCITY FILE          mobley_9257453_equil.vel
Info: CENTER OF MASS MOVING INITIALLY? NO
Info: DIELECTRIC             1
Info: EXCLUDE                SCALED ONE-FOUR
Info: 1-4 ELECTROSTATICS SCALED BY 0.833333
Info: MODIFIED 1-4 VDW PARAMETERS WILL BE USED
Info: DCD FILENAME           mobley_9257453_prod.dcd
Info: DCD FREQUENCY          100000
Info: DCD FIRST STEP         100000
Info: DCD FILE WILL CONTAIN UNIT CELL DATA
Info: XST FILENAME           mobley_9257453_prod.xst
Info: XST FREQUENCY          100000
Info: NO VELOCITY DCD OUTPUT
Info: NO FORCE DCD OUTPUT
Info: OUTPUT FILENAME        mobley_9257453_prod
Info: BINARY OUTPUT FILES WILL BE USED
Info: RESTART FILENAME       mobley_9257453_prod.restart
Info: RESTART FREQUENCY      100000
Info: BINARY RESTART FILES WILL BE USED
Info: CUTOFF                 9
Info: PAIRLIST DISTANCE      11
Info: PAIRLIST SHRINK RATE   0.01
Info: PAIRLIST GROW RATE     0.01
Info: PAIRLIST TRIGGER       0.3
Info: PAIRLISTS PER CYCLE    2
Info: PAIRLISTS ENABLED
Info: MARGIN                 2
Info: HYDROGEN GROUP CUTOFF  2.5
Info: PATCH DIMENSION        15.5
Info: ENERGY OUTPUT STEPS    100000
Info: ENERGY EVALUATION STEPS    100000
Info: OUTPUT ENERGY PRECISION 4
Info: CROSSTERM ENERGY INCLUDED IN DIHEDRAL
Info: TIMING OUTPUT STEPS    1000000
Info: PRESSURE OUTPUT STEPS  100000
Info: ALCHEMICAL FEP ON
Info: FEP CURRENT LAMBDA VALUE     1
Info: FEP COMPARISON LAMBDA VALUE  0.95
Info: FEP INTRA-ALCHEMICAL NON-BONDED INTERACTIONS WILL BE RETAINED
Info: FEP INTRA-ALCHEMICAL BONDED INTERACTIONS WILL BE RETAINED
Info: FEP VDW SHIFTING COEFFICIENT 5
Info: FEP ELEC. ACTIVE FOR ANNIHILATED PARTICLES BETWEEN LAMBDA = 0 AND LAMBDA = 0.5
Info: FEP ELEC. ACTIVE FOR EXNIHILATED PARTICLES BETWEEN LAMBDA = 0.5 AND LAMBDA = 1
Info: FEP VDW ACTIVE FOR ANNIHILATED PARTICLES BETWEEN LAMBDA = 0 AND LAMBDA = 1
Info: FEP VDW ACTIVE FOR EXNIHILATED PARTICLES BETWEEN LAMBDA = 0 AND LAMBDA = 1
Info: FEP BOND ACTIVE FOR ANNIHILATED PARTICLES BETWEEN LAMBDA = 1 AND LAMBDA = 1
Info: FEP BOND ACTIVE FOR EXNIHILATED PARTICLES BETWEEN LAMBDA = 0 AND LAMBDA = 0
Info: LANGEVIN DYNAMICS ACTIVE
Info: LANGEVIN TEMPERATURE   300
Info: LANGEVIN USING BBK INTEGRATOR
Info: LANGEVIN DAMPING COEFFICIENT IS 1 INVERSE PS
Info: LANGEVIN DYNAMICS APPLIED TO HYDROGENS
Info: LANGEVIN PISTON PRESSURE CONTROL ACTIVE
Info:        TARGET PRESSURE IS 1.01325 BAR
Info:     OSCILLATION PERIOD IS 50 FS
Info:             DECAY TIME IS 25 FS
Info:     PISTON TEMPERATURE IS 300 K
Info:       PRESSURE CONTROL IS GROUP-BASED
Info:    INITIAL STRAIN RATE IS -0.000254296 -0.000254296 -0.000254296
Info:       CELL FLUCTUATION IS ISOTROPIC
Info: PARTICLE MESH EWALD (PME) ACTIVE
Info: PME TOLERANCE               1e-06
Info: PME EWALD COEFFICIENT       0.348832
Info: PME INTERPOLATION ORDER     4
Info: PME GRID DIMENSIONS         32 32 32
Info: PME MAXIMUM GRID SPACING    1
Info: PME CALCULATION WILL BE PERFORMED ON GPU
Info: FULL ELECTROSTATIC EVALUATION FREQUENCY      2
Info: USING VERLET I (r-RESPA) MTS SCHEME.
Info: C1 SPLITTING OF LONG RANGE ELECTROSTATICS
Info: PLACING ATOMS IN PATCHES BY HYDROGEN GROUPS
Info: RIGID BONDS TO HYDROGEN : ALL
Info:         ERROR TOLERANCE : 1e-08
Info:          MAX ITERATIONS : 100
Info: RIGID WATER USING SETTLE ALGORITHM
Info: RANDOM NUMBER SEED     1743571166
Info: USE HYDROGEN BONDS?    NO
Info: Using AMBER format force field!
Info: AMBER PARM FILE        mobley_9257453.prmtop
Info: COORDINATE PDB         mobley_9257453.pdb
Info: Exclusions will be read from PARM file!
Info: SCNB (VDW SCALING)     2
Info: USING ARITHMETIC MEAN TO COMBINE L-J SIGMA PARAMETERS
Info: BINARY COORDINATES     mobley_9257453_equil.coor
Info: SUMMARY OF PARAMETERS:
Info: 7 BONDS
Info: 5 ANGLES
Info:   5 HARMONIC
Info:   0 COSINE-BASED
Info: 3 DIHEDRAL
Info: 0 IMPROPER
Info: 0 CROSSTERM
Info: 0 VDW
Info: 21 VDW_PAIRS
Info: 0 NBTHOLE_PAIRS
Info: To read alchdata from file: mobley_9257453.pdb
Info: To read alchflag data from column: 5
Info: STRUCTURE SUMMARY:
Info: 2926 ATOMS
Info: 2926 BONDS
Info: 19 ANGLES
Info: 32 DIHEDRALS
Info: 0 IMPROPERS
Info: 0 CROSSTERMS
Info: 2968 EXCLUSIONS
Info: 2917 RIGID BONDS
Info: ALCH: 0 ATOMS TO DISAPPEAR IN FINAL STATE
Info: ALCH: 13 ATOMS TO APPEAR IN FINAL STATE
Info: 5861 DEGREES OF FREEDOM
Info: 980 HYDROGEN GROUPS
Info: 3 ATOMS IN LARGEST HYDROGEN GROUP
Info: 980 MIGRATION GROUPS
Info: 3 ATOMS IN LARGEST MIGRATION GROUP
Info: TOTAL MASS = 17656.5 amu
Info: TOTAL CHARGE = 2.42144e-08 e
Info: MASS DENSITY = 0.985769 g/cm^3
Info: ATOM DENSITY = 0.098375 atoms/A^3
Info: ADDED 0 IMPLICIT EXCLUSIONS
Info: NONBONDED TABLE R-SQUARED SPACING: 0.0625
Info: NONBONDED TABLE SIZE: 705 POINTS
Info: REMOVING COM VELOCITY 0.162705 0.0421671 -0.00462909
Info: Use 3D box decompostion in PME FFT.
Info: Updated CUDA force table with 4096 elements.
Info: Updated CUDA LJ table with 6 x 6 elements.
Info: Found 16 unique exclusion lists needing 32 bytes
TCL: Running for 1500000 steps
ETITLE: TS BOND ANGLE DIHED IMPRP ELECT VDW BOUNDARY MISC KINETIC TOTAL TEMP POTENTIAL TOTALAVG TEMPAVG PRESSURE GPRESSURE VOLUME PRESSAVG GPRESSAVG
ENERGY: 0 3.0507 3.8261 1.6298 0.0000 -10692.7583 1415.9776 0.0000 0.0000 1756.8645 -7511.4096 301.6872 -9268.2741 -7511.4096 301.6872 -241.3676 -161.5122 29743.3198 -241.3676 -161.5122
ENERGY: 300000 2.9498 3.5983 0.8922 0.0000 -10471.1056 1364.5194 0.0000 0.0000 1744.1909 -7354.9551 299.5109 -9099.1460 -7442.6243 301.7988 -113.4720 -98.8101 30127.7271 -162.8051 -117.1275
ENERGY: 600000 4.8490 2.1825 1.6634 0.0000 -10725.9615 1490.3971 0.0000 0.0000 1756.5192 -7470.3504 301.6279 -9226.8696 -7445.2245 301.8324 555.0968 670.8103 30034.3588 -28.5763 24.0468
ENERGY: 900000 1.7480 1.1996 2.1370 0.0000 -10534.6747 1383.1837 0.0000 0.0000 1766.8582 -7379.5483 303.4033 -9146.4065 -7453.5348 300.9475 -224.8051 -144.0535 30376.9514 -107.1303 -52.9854
ENERGY: 1200000 3.7880 1.5845 2.9880 0.0000 -10554.0404 1355.7505 0.0000 0.0000 1777.8081 -7412.1213 305.2837 -9189.9295 -7447.7798 301.3798 -663.8416 -575.8762 30649.4402 -94.8722 -34.4245
ENERGY: 1500000 1.9962 2.2844 5.7363 0.0000 -10518.0550 1378.3643 0.0000 0.0000 1768.6991 -7360.9747 303.7195 -9129.6738 -7435.9130 302.1522 279.0356 337.0373 29563.9626 -46.4594 15.0577
TCL: Running FEP window   2: Lambda1 0.95   Lambda2 0.8999999999999999 [dLambda -0.050000000000000044]
TCL: Setting parameter firsttimestep to 0
TCL: Setting parameter alchLambda to 0.95
Info: NONBONDED TABLE R-SQUARED SPACING: 0.0625
Info: NONBONDED TABLE SIZE: 705 POINTS
TCL: Setting parameter alchLambda2 to 0.8999999999999999
Info: NONBONDED TABLE R-SQUARED SPACING: 0.0625
Info: NONBONDED TABLE SIZE: 705 POINTS
TCL: Running for 1500000 steps
ETITLE: TS BOND ANGLE DIHED IMPRP ELECT VDW BOUNDARY MISC KINETIC TOTAL TEMP POTENTIAL TOTALAVG TEMPAVG PRESSURE GPRESSURE VOLUME PRESSAVG GPRESSAVG
ENERGY: 0 1.9962 2.2844 5.7363 0.0000 -10515.7954 1375.7467 0.0000 0.0000 1767.8313 -7362.2005 303.5704 -9130.0318 -7362.2005 303.5704 202.6779 297.1366 29563.9626 202.6779 297.1366
ENERGY: 300000 3.3330 1.7737 2.4705 0.0000 -10534.9258 1382.6384 0.0000 0.0000 1775.6601 -7369.0501 304.9148 -9144.7102 -7406.0750 301.4365 -218.1966 -177.0280 30554.5938 195.4684 252.4584
ENERGY: 600000 2.3993 3.9206 1.1020 0.0000 -10517.5961 1333.0850 0.0000 0.0000 1779.4919 -7397.5972 305.5728 -9177.0891 -7415.1177 304.0869 -582.1567 -492.3701 30158.8365 254.7062 320.0893
ENERGY: 900000 2.5888 2.1975 3.9326 0.0000 -10515.7715 1341.3065 0.0000 0.0000 1772.1223 -7393.6238 304.3073 -9165.7461 -7421.1568 302.7900 -553.5390 -532.0741 30109.4648 109.6918 172.9730
ENERGY: 1200000 1.0778 5.5998 2.9144 0.0000 -10676.1285 1385.1132 0.0000 0.0000 1746.1061 -7535.3172 299.8398 -9281.4233 -7431.2164 302.9277 -148.1333 -138.4362 29462.5717 67.2409 128.3618
ENERGY: 1500000 2.0224 0.9347 3.5891 0.0000 -10676.5644 1482.2690 0.0000 0.0000 1779.6725 -7408.0766 305.6038 -9187.7492 -7426.2579 302.7293 516.9098 629.2679 30097.9974 126.9911 190.7807
TCL: Running FEP window   3: Lambda1 0.8999999999999999 Lambda2 0.8499999999999999 [dLambda -0.050000000000000044]
TCL: Setting parameter firsttimestep to 0
TCL: Setting parameter alchLambda to 0.8999999999999999
Info: NONBONDED TABLE R-SQUARED SPACING: 0.0625
Info: NONBONDED TABLE SIZE: 705 POINTS
TCL: Setting parameter alchLambda2 to 0.8499999999999999
Info: NONBONDED TABLE R-SQUARED SPACING: 0.0625
Info: NONBONDED TABLE SIZE: 705 POINTS
TCL: Running for 1500000 steps
ETITLE: TS BOND ANGLE DIHED IMPRP ELECT VDW BOUNDARY MISC KINETIC TOTAL TEMP POTENTIAL TOTALAVG TEMPAVG PRESSURE GPRESSURE VOLUME PRESSAVG GPRESSAVG
ENERGY: 0 2.0224 0.9347 3.5891 0.0000 -10674.6719 1481.7060 0.0000 0.0000 1778.7928 -7407.6268 305.4527 -9186.4197 -7407.6268 305.4527 527.4491 613.8408 30097.9974 527.4491 613.8408
ENERGY: 300000 3.2077 2.2776 1.1209 0.0000 -10631.7134 1435.0764 0.0000 0.0000 1758.4826 -7431.5482 301.9651 -9190.0308 -7387.6867 303.0718 25.8475 100.2625 30217.1471 330.0390 401.1424
ENERGY: 600000 3.0020 1.7723 2.9675 0.0000 -10543.2777 1341.9496 0.0000 0.0000 1759.3243 -7434.2619 302.1096 -9193.5863 -7401.8253 303.4107 -583.5277 -504.9038 29812.4899 113.7597 174.9344
ENERGY: 900000 3.4199 2.0151 4.9647 0.0000 -10513.3809 1377.7160 0.0000 0.0000 1741.8599 -7383.4053 299.1107 -9125.2652 -7406.3419 302.1329 -250.5741 -206.7405 30609.3936 -57.9111 -1.3589
ENERGY: 1200000 2.8995 5.7586 7.7911 0.0000 -10487.9018 1341.4556 0.0000 0.0000 1790.8630 -7339.1339 307.5254 -9129.9969 -7416.5462 301.6293 -420.6783 -342.8404 30194.2063 -120.7861 -62.9268
ENERGY: 1500000 6.2667 3.7905 1.7399 0.0000 -10571.9042 1428.5951 0.0000 0.0000 1759.9044 -7371.6076 302.2092 -9131.5119 -7417.2839 302.5753 94.1065 163.7317 30232.2018 -27.0349 30.3019
TCL: Running FEP window   4: Lambda1 0.8499999999999999 Lambda2 0.7999999999999998 [dLambda -0.050000000000000044]
TCL: Setting parameter firsttimestep to 0
TCL: Setting parameter alchLambda to 0.8499999999999999
Info: NONBONDED TABLE R-SQUARED SPACING: 0.0625
Info: NONBONDED TABLE SIZE: 705 POINTS
TCL: Setting parameter alchLambda2 to 0.7999999999999998
Info: NONBONDED TABLE R-SQUARED SPACING: 0.0625
Info: NONBONDED TABLE SIZE: 705 POINTS
TCL: Running for 1500000 steps
ETITLE: TS BOND ANGLE DIHED IMPRP ELECT VDW BOUNDARY MISC KINETIC TOTAL TEMP POTENTIAL TOTALAVG TEMPAVG PRESSURE GPRESSURE VOLUME PRESSAVG GPRESSAVG
ENERGY: 0 6.2667 3.7905 1.7399 0.0000 -10570.9750 1428.4404 0.0000 0.0000 1759.0349 -7371.7026 302.0599 -9130.7375 -7371.7026 302.0599 69.1376 151.5926 30232.2018 69.1376 151.5926
ENERGY: 300000 4.3038 1.0643 2.4397 0.0000 -10690.6444 1475.2583 0.0000 0.0000 1710.4939 -7497.0842 293.7245 -9207.5782 -7443.1650 298.2594 244.6881 304.0381 30069.3145 -33.7773 15.4442
ENERGY: 600000 8.3882 2.2077 0.7396 0.0000 -10607.1405 1388.8052 0.0000 0.0000 1756.9597 -7450.0401 301.7036 -9206.9998 -7440.1668 298.4694 -409.6224 -364.4908 30366.6831 -160.3844 -118.5593
ENERGY: 900000 1.2877 7.0542 1.2980 0.0000 -10582.5463 1399.0275 0.0000 0.0000 1711.5173 -7462.3616 293.9003 -9173.8789 -7424.7801 299.0918 -517.3016 -438.4617 30774.7825 -150.7893 -107.1829
ENERGY: 1200000 3.6363 4.5555 2.6486 0.0000 -10809.8379 1526.3099 0.0000 0.0000 1744.4852 -7528.2024 299.5615 -9272.6876 -7433.4326 298.7318 464.8312 486.9730 30161.6943 -95.2405 -53.6208
ENERGY: 1500000 2.9201 1.5049 4.7142 0.0000 -10677.3954 1441.1624 0.0000 0.0000 1737.7415 -7489.3523 298.4035 -9227.0938 -7439.1575 298.6529 -1.5690 75.1287 30236.3569 -120.4236 -74.9571
TCL: Running FEP window   5: Lambda1 0.7999999999999998 Lambda2 0.7499999999999998 [dLambda -0.050000000000000044]
TCL: Setting parameter firsttimestep to 0
TCL: Setting parameter alchLambda to 0.7999999999999998
Info: NONBONDED TABLE R-SQUARED SPACING: 0.0625
Info: NONBONDED TABLE SIZE: 705 POINTS
TCL: Setting parameter alchLambda2 to 0.7499999999999998
Info: NONBONDED TABLE R-SQUARED SPACING: 0.0625
Info: NONBONDED TABLE SIZE: 705 POINTS
TCL: Running for 1500000 steps
ETITLE: TS BOND ANGLE DIHED IMPRP ELECT VDW BOUNDARY MISC KINETIC TOTAL TEMP POTENTIAL TOTALAVG TEMPAVG PRESSURE GPRESSURE VOLUME PRESSAVG GPRESSAVG
ENERGY: 0 2.9201 1.5049 4.7142 0.0000 -10676.1643 1441.3493 0.0000 0.0000 1736.8704 -7488.8053 298.2539 -9225.6757 -7488.8053 298.2539 -3.1796 70.1876 30236.3569 -3.1796 70.1876
ENERGY: 300000 4.4258 3.3683 2.6705 0.0000 -10577.1772 1418.0256 0.0000 0.0000 1733.4421 -7415.2450 297.6652 -9148.6872 -7453.4921 301.7032 308.0088 411.1882 29940.7345 -319.9808 -236.4111
ENERGY: 600000 2.3582 2.5892 2.6457 0.0000 -10601.8261 1433.6344 0.0000 0.0000 1708.9331 -7451.6655 293.4565 -9160.5986 -7420.8963 301.6756 -15.8711 57.2968 30303.3918 -245.2617 -169.9610
ENERGY: 900000 2.3117 1.8080 2.3158 0.0000 -10674.1315 1528.4245 0.0000 0.0000 1663.4231 -7475.8485 285.6416 -9139.2716 -7429.6022 299.6797 894.8050 940.6226 30179.6302 -57.0611 5.8440
ENERGY: 1200000 2.1350 6.3163 2.4644 0.0000 -10507.8572 1359.0164 0.0000 0.0000 1740.6726 -7397.2524 298.9068 -9137.9250 -7439.0652 299.7953 -424.4035 -357.5055 30139.6384 -155.9942 -90.5308
ENERGY: 1500000 1.2913 2.2995 1.4531 0.0000 -10646.0758 1426.7003 0.0000 0.0000 1736.4085 -7477.9231 298.1746 -9214.3316 -7435.9295 300.2901 58.5412 59.0319 29918.6438 -199.7683 -141.9272
TCL: Running FEP window   6: Lambda1 0.7499999999999998 Lambda2 0.6999999999999997 [dLambda -0.050000000000000044]
TCL: Setting parameter firsttimestep to 0
TCL: Setting parameter alchLambda to 0.7499999999999998
Info: NONBONDED TABLE R-SQUARED SPACING: 0.0625
Info: NONBONDED TABLE SIZE: 705 POINTS
TCL: Setting parameter alchLambda2 to 0.6999999999999997
Info: NONBONDED TABLE R-SQUARED SPACING: 0.0625
Info: NONBONDED TABLE SIZE: 705 POINTS
TCL: Running for 1500000 steps
ETITLE: TS BOND ANGLE DIHED IMPRP ELECT VDW BOUNDARY MISC KINETIC TOTAL TEMP POTENTIAL TOTALAVG TEMPAVG PRESSURE GPRESSURE VOLUME PRESSAVG GPRESSAVG
ENERGY: 0 1.2913 2.2995 1.4531 0.0000 -10643.9552 1425.6449 0.0000 0.0000 1735.5280 -7477.7385 298.0233 -9213.2664 -7477.7385 298.0233 -31.2919 45.4489 29918.6438 -31.2919 45.4489
ENERGY: 300000 2.3985 2.7554 2.9316 0.0000 -10666.2928 1439.9263 0.0000 0.0000 1773.6663 -7444.6147 304.5724 -9218.2809 -7465.3258 299.2527 30.3240 64.1499 30191.2722 -174.6525 -121.2507
ENERGY: 600000 0.9886 5.9926 2.9783 0.0000 -10680.6457 1461.8900 0.0000 0.0000 1729.1621 -7479.6342 296.9302 -9208.7963 -7466.4783 299.0965 371.6439 398.8114 29892.1615 -25.9141 30.1702
ENERGY: 900000 3.2524 3.2535 2.9726 0.0000 -10607.5583 1424.6653 0.0000 0.0000 1731.2772 -7442.1373 297.2934 -9173.4145 -7462.2103 299.4703 -170.1266 -134.2255 30387.7020 -166.6545 -112.6511
ENERGY: 1200000 2.9593 2.6617 6.8097 0.0000 -10651.5115 1392.0332 0.0000 0.0000 1755.1155 -7491.9320 301.3869 -9247.0475 -7466.5681 300.2236 -489.5376 -441.5134 29972.6166 -154.4162 -100.8361
ENERGY: 1500000 1.8369 5.2362 1.9703 0.0000 -10679.0052 1487.9308 0.0000 0.0000 1712.9962 -7469.0348 294.1542 -9182.0310 -7451.4291 300.0910 445.2915 576.4358 29955.3764 -83.2410 -26.2805
TCL: Running FEP window   7: Lambda1 0.6999999999999997 Lambda2 0.6499999999999997 [dLambda -0.050000000000000044]
TCL: Setting parameter firsttimestep to 0
TCL: Setting parameter alchLambda to 0.6999999999999997
Info: NONBONDED TABLE R-SQUARED SPACING: 0.0625
Info: NONBONDED TABLE SIZE: 705 POINTS
TCL: Setting parameter alchLambda2 to 0.6499999999999997
Info: NONBONDED TABLE R-SQUARED SPACING: 0.0625
Info: NONBONDED TABLE SIZE: 705 POINTS
TCL: Running for 1500000 steps
ETITLE: TS BOND ANGLE DIHED IMPRP ELECT VDW BOUNDARY MISC KINETIC TOTAL TEMP POTENTIAL TOTALAVG TEMPAVG PRESSURE GPRESSURE VOLUME PRESSAVG GPRESSAVG
ENERGY: 0 1.8369 5.2362 1.9703 0.0000 -10678.6869 1487.9579 0.0000 0.0000 1712.1539 -7469.5317 294.0096 -9181.6856 -7469.5317 294.0096 490.0494 568.2995 29955.3764 490.0494 568.2995
ENERGY: 300000 2.2886 2.6825 0.8278 0.0000 -10562.3124 1429.8098 0.0000 0.0000 1775.6839 -7351.0198 304.9189 -9126.7037 -7423.6588 298.8972 457.8935 534.0507 29793.6393 111.3715 157.3703
ENERGY: 600000 4.9378 1.1866 3.1984 0.0000 -10467.6821 1301.4990 0.0000 0.0000 1766.3337 -7390.5266 303.3133 -9156.8603 -7428.9785 299.3037 -978.7680 -939.0211 30664.6695 -180.9335 -128.9235
ENERGY: 900000 2.0417 3.4374 8.7352 0.0000 -10571.1226 1397.0276 0.0000 0.0000 1790.3983 -7369.4824 307.4456 -9159.8807 -7433.2547 301.0904 -313.6659 -274.9894 30171.1110 -116.6249 -67.5698
ENERGY: 1200000 3.1198 3.5511 1.8853 0.0000 -10650.9413 1427.4228 0.0000 0.0000 1659.8143 -7555.1481 285.0219 -9214.9623 -7438.4215 299.3068 -327.4948 -226.7757 30383.3061 -120.4000 -62.4568
ENERGY: 1500000 2.9957 3.7840 4.7263 0.0000 -10385.8669 1313.7926 0.0000 0.0000 1764.9655 -7295.6028 303.0783 -9060.5683 -7429.8892 299.0550 -361.9744 -338.5995 30255.1946 -90.4384 -40.4168
TCL: Running FEP window   8: Lambda1 0.6499999999999997 Lambda2 0.5999999999999996 [dLambda -0.050000000000000044]
TCL: Setting parameter firsttimestep to 0
TCL: Setting parameter alchLambda to 0.6499999999999997
Info: NONBONDED TABLE R-SQUARED SPACING: 0.0625
Info: NONBONDED TABLE SIZE: 705 POINTS
TCL: Setting parameter alchLambda2 to 0.5999999999999996
Info: NONBONDED TABLE R-SQUARED SPACING: 0.0625
Info: NONBONDED TABLE SIZE: 705 POINTS
TCL: Running for 1500000 steps
ETITLE: TS BOND ANGLE DIHED IMPRP ELECT VDW BOUNDARY MISC KINETIC TOTAL TEMP POTENTIAL TOTALAVG TEMPAVG PRESSURE GPRESSURE VOLUME PRESSAVG GPRESSAVG
ENERGY: 0 2.9957 3.7840 4.7263 0.0000 -10385.4947 1314.5436 0.0000 0.0000 1764.1210 -7295.3241 302.9333 -9059.4451 -7295.3241 302.9333 -409.8106 -337.3335 30255.1946 -409.8106 -337.3335
ENERGY: 300000 3.1206 2.2299 3.9846 0.0000 -10557.5511 1402.4919 0.0000 0.0000 1743.7044 -7402.0198 299.4274 -9145.7242 -7424.2893 300.5341 -150.5655 -86.3125 30562.4026 -673.5953 -605.7825
ENERGY: 600000 1.2430 2.0935 2.1691 0.0000 -10632.5960 1494.5062 0.0000 0.0000 1797.9165 -7334.6678 308.7366 -9132.5844 -7395.6532 303.1284 904.1001 944.5365 29755.6532 -103.8212 -39.4882
ENERGY: 900000 5.3824 3.0665 1.7702 0.0000 -10530.1238 1420.6063 0.0000 0.0000 1734.1547 -7365.1437 297.7875 -9099.2984 -7412.0240 301.4488 -189.4410 -145.1638 30599.3999 -124.5883 -64.0310
ENERGY: 1200000 3.4054 3.6189 4.6770 0.0000 -10660.9112 1459.7246 0.0000 0.0000 1763.5684 -7425.9169 302.8384 -9189.4852 -7424.3273 301.0004 250.5485 238.1962 30013.7372 -64.1567 -11.7275
ENERGY: 1500000 2.1944 1.2738 3.2984 0.0000 -10591.3521 1434.4136 0.0000 0.0000 1739.0360 -7411.1359 298.6257 -9150.1719 -7421.4230 300.9450 19.0753 128.4921 30468.9835 20.8189 77.4979
TCL: Running FEP window   9: Lambda1 0.5999999999999996 Lambda2 0.5499999999999996 [dLambda -0.050000000000000044]
TCL: Setting parameter firsttimestep to 0
TCL: Setting parameter alchLambda to 0.5999999999999996
Info: NONBONDED TABLE R-SQUARED SPACING: 0.0625
Info: NONBONDED TABLE SIZE: 705 POINTS
TCL: Setting parameter alchLambda2 to 0.5499999999999996
Info: NONBONDED TABLE R-SQUARED SPACING: 0.0625
Info: NONBONDED TABLE SIZE: 705 POINTS
TCL: Running for 1500000 steps
ETITLE: TS BOND ANGLE DIHED IMPRP ELECT VDW BOUNDARY MISC KINETIC TOTAL TEMP POTENTIAL TOTALAVG TEMPAVG PRESSURE GPRESSURE VOLUME PRESSAVG GPRESSAVG
ENERGY: 0 2.1944 1.2738 3.2984 0.0000 -10590.4674 1434.7083 0.0000 0.0000 1738.1973 -7410.7953 298.4817 -9148.9926 -7410.7953 298.4817 41.4162 125.1096 30468.9835 41.4162 125.1096
ENERGY: 300000 4.0139 4.6635 4.8618 0.0000 -10609.1655 1427.2394 0.0000 0.0000 1739.1441 -7429.2428 298.6443 -9168.3869 -7427.1979 300.9657 -109.9611 -61.6858 30195.3470 165.0211 225.6033
ENERGY: 600000 2.9637 2.2851 2.4656 0.0000 -10716.9516 1481.8250 0.0000 0.0000 1695.8467 -7531.5655 291.2093 -9227.4122 -7433.7822 299.3977 406.1690 461.9713 29587.4763 83.1539 136.9283
ENERGY: 900000 4.8933 3.2810 4.3631 0.0000 -10624.5859 1394.3633 0.0000 0.0000 1763.5340 -7454.1511 302.8325 -9217.6852 -7434.3630 299.2573 -464.6166 -412.1525 30362.3217 68.0886 123.2312
ENERGY: 1200000 1.7061 2.9274 1.4427 0.0000 -10774.5898 1519.8354 0.0000 0.0000 1750.7190 -7497.9592 300.6319 -9248.6782 -7451.9198 299.9115 676.9603 704.9006 29891.8520 99.3930 148.5370
ENERGY: 1500000 2.9489 6.4232 4.2122 0.0000 -10597.1908 1427.4865 0.0000 0.0000 1706.7913 -7449.3287 293.0887 -9156.1200 -7449.6605 299.7408 -152.6203 -111.6867 30965.7094 82.7739 138.9759
TCL: Running FEP window  10: Lambda1 0.5499999999999996 Lambda2 0.4999999999999996 [dLambda -0.04999999999999999]
TCL: Setting parameter firsttimestep to 0
TCL: Setting parameter alchLambda to 0.5499999999999996
Info: NONBONDED TABLE R-SQUARED SPACING: 0.0625
Info: NONBONDED TABLE SIZE: 705 POINTS
TCL: Setting parameter alchLambda2 to 0.4999999999999996
Info: NONBONDED TABLE R-SQUARED SPACING: 0.0625
Info: NONBONDED TABLE SIZE: 705 POINTS
TCL: Running for 1500000 steps
ETITLE: TS BOND ANGLE DIHED IMPRP ELECT VDW BOUNDARY MISC KINETIC TOTAL TEMP POTENTIAL TOTALAVG TEMPAVG PRESSURE GPRESSURE VOLUME PRESSAVG GPRESSAVG
ENERGY: 0 2.9489 6.4232 4.2122 0.0000 -10596.3030 1426.9100 0.0000 0.0000 1705.9062 -7449.9024 292.9367 -9155.8086 -7449.9024 292.9367 -202.4850 -123.2417 30965.7094 -202.4850 -123.2417
ENERGY: 300000 1.8967 4.5660 3.6734 0.0000 -10614.0372 1385.8990 0.0000 0.0000 1761.3857 -7456.6164 302.4636 -9218.0021 -7415.7537 302.5168 -253.9561 -179.5523 29833.9397 45.2430 137.9878
ENERGY: 600000 3.0996 8.7958 2.1053 0.0000 -10574.9947 1413.1761 0.0000 0.0000 1756.2200 -7391.5980 301.5766 -9147.8180 -7422.8152 301.4274 235.7230 238.0459 29795.1766 -4.4189 70.5283
ENERGY: 900000 3.9220 2.1315 4.2672 0.0000 -10696.9113 1397.2450 0.0000 0.0000 1733.9849 -7555.3607 297.7584 -9289.3456 -7436.3184 300.3615 -756.8854 -723.5454 30362.5881 -82.0051 -12.9947
ENERGY: 1200000 3.7088 4.3247 1.7666 0.0000 -10709.7816 1519.0792 0.0000 0.0000 1749.6589 -7431.2433 300.4499 -9180.9022 -7433.1447 300.1414 710.8345 812.6137 29919.9919 30.4861 91.8798
ENERGY: 1500000 2.5762 2.5185 1.4209 0.0000 -10764.5564 1512.0482 0.0000 0.0000 1728.6447 -7517.3479 296.8414 -9245.9926 -7441.5941 300.1232 852.3300 841.3308 29859.4677 54.0959 107.2659
TCL: Running FEP window  11: Lambda1 0.4999999999999996 Lambda2 0.4499999999999996 [dLambda -0.04999999999999999]
TCL: Setting parameter firsttimestep to 0
TCL: Setting parameter alchLambda to 0.4999999999999996
Info: NONBONDED TABLE R-SQUARED SPACING: 0.0625
Info: NONBONDED TABLE SIZE: 705 POINTS
TCL: Setting parameter alchLambda2 to 0.4499999999999996
Info: NONBONDED TABLE R-SQUARED SPACING: 0.0625
Info: NONBONDED TABLE SIZE: 705 POINTS
TCL: Running for 1500000 steps
ETITLE: TS BOND ANGLE DIHED IMPRP ELECT VDW BOUNDARY MISC KINETIC TOTAL TEMP POTENTIAL TOTALAVG TEMPAVG PRESSURE GPRESSURE VOLUME PRESSAVG GPRESSAVG
ENERGY: 0 2.5762 2.5185 1.4209 0.0000 -10764.1084 1512.5512 0.0000 0.0000 1727.8107 -7517.2309 296.6981 -9245.0416 -7517.2309 296.6981 751.5809 842.7200 29859.4677 751.5809 842.7200
ENERGY: 300000 3.4689 1.7690 2.3099 0.0000 -10632.8519 1455.1077 0.0000 0.0000 1711.9068 -7458.2896 293.9671 -9170.1964 -7444.1494 299.5916 261.1364 312.2304 29923.5605 102.2896 141.7987
ENERGY: 600000 3.5720 2.3214 2.5846 0.0000 -10657.4125 1423.7057 0.0000 0.0000 1702.9878 -7522.2411 292.4356 -9225.2289 -7431.8659 300.5115 -404.7455 -343.2400 30240.0061 -67.3515 -19.9113
ENERGY: 900000 4.1271 2.9146 7.6784 0.0000 -10556.2905 1449.6987 0.0000 0.0000 1724.9975 -7366.8743 296.2151 -9091.8717 -7434.6386 299.4622 390.5524 451.7743 30232.3678 -4.5059 48.7181
ENERGY: 1200000 2.0736 1.8877 3.5965 0.0000 -10743.4832 1521.5161 0.0000 0.0000 1729.6762 -7484.7331 297.0185 -9214.4093 -7433.8047 299.3170 508.3389 628.4393 29852.9886 -13.4079 41.3106
ENERGY: 1500000 3.7931 1.7072 2.6441 0.0000 -10491.5611 1329.8090 0.0000 0.0000 1757.0520 -7396.5556 301.7194 -9153.6076 -7429.9386 300.6059 -586.8991 -523.2411 30009.3983 -102.2039 -54.4305
TCL: Running FEP window  12: Lambda1 0.4499999999999996 Lambda2 0.39999999999999963 [dLambda -0.04999999999999999]
TCL: Setting parameter firsttimestep to 0
TCL: Setting parameter alchLambda to 0.4499999999999996
Info: NONBONDED TABLE R-SQUARED SPACING: 0.0625
Info: NONBONDED TABLE SIZE: 705 POINTS
TCL: Setting parameter alchLambda2 to 0.39999999999999963
Info: NONBONDED TABLE R-SQUARED SPACING: 0.0625
Info: NONBONDED TABLE SIZE: 705 POINTS
TCL: Running for 1500000 steps
ETITLE: TS BOND ANGLE DIHED IMPRP ELECT VDW BOUNDARY MISC KINETIC TOTAL TEMP POTENTIAL TOTALAVG TEMPAVG PRESSURE GPRESSURE VOLUME PRESSAVG GPRESSAVG
ENERGY: 0 3.7931 1.7072 2.6441 0.0000 -10491.5607 1329.6526 0.0000 0.0000 1756.1961 -7397.5677 301.5724 -9153.7637 -7397.5677 301.5724 -613.7134 -530.2057 30009.3983 -613.7134 -530.2057
ENERGY: 300000 1.8167 2.1977 4.4173 0.0000 -10570.1019 1422.5447 0.0000 0.0000 1755.8322 -7383.2933 301.5100 -9139.1255 -7393.2336 300.4880 120.4513 221.2577 30137.3909 -375.4796 -293.6977
ENERGY: 600000 1.4361 3.5352 2.5405 0.0000 -10630.0280 1484.2562 0.0000 0.0000 1770.1030 -7368.1570 303.9605 -9138.2600 -7397.0408 301.5657 411.8136 516.8295 30286.8237 -35.7157 41.4461
ENERGY: 900000 2.1953 2.8271 3.5506 0.0000 -10620.5767 1456.7981 0.0000 0.0000 1730.5605 -7424.6450 297.1703 -9155.2055 -7394.1153 301.9566 573.6305 670.7593 29836.4630 -19.7960 54.7755
ENERGY: 1200000 4.5231 3.4028 2.5331 0.0000 -10521.3253 1374.3952 0.0000 0.0000 1797.1491 -7339.3220 308.6049 -9136.4711 -7383.4477 302.5623 -265.5105 -208.1840 30462.3300 -109.6560 -43.9318
ENERGY: 1500000 3.5856 2.6305 3.4118 0.0000 -10633.5684 1450.7450 0.0000 0.0000 1762.6392 -7410.5562 302.6789 -9173.1954 -7394.6217 302.3722 202.1999 205.3595 30143.8344 -69.7857 -14.0776
TCL: Running FEP window  13: Lambda1 0.39999999999999963 Lambda2 0.34999999999999964 [dLambda -0.04999999999999999]
TCL: Setting parameter firsttimestep to 0
TCL: Setting parameter alchLambda to 0.39999999999999963
Info: NONBONDED TABLE R-SQUARED SPACING: 0.0625
Info: NONBONDED TABLE SIZE: 705 POINTS
TCL: Setting parameter alchLambda2 to 0.34999999999999964
Info: NONBONDED TABLE R-SQUARED SPACING: 0.0625
Info: NONBONDED TABLE SIZE: 705 POINTS
TCL: Running for 1500000 steps
ETITLE: TS BOND ANGLE DIHED IMPRP ELECT VDW BOUNDARY MISC KINETIC TOTAL TEMP POTENTIAL TOTALAVG TEMPAVG PRESSURE GPRESSURE VOLUME PRESSAVG GPRESSAVG
ENERGY: 0 3.5856 2.6305 3.4118 0.0000 -10633.5683 1451.1741 0.0000 0.0000 1761.7688 -7410.9975 302.5294 -9172.7663 -7410.9975 302.5294 127.5620 201.8518 30143.8344 127.5620 201.8518
ENERGY: 300000 1.2795 3.0578 1.7524 0.0000 -10382.0398 1269.0675 0.0000 0.0000 1745.1747 -7361.7078 299.6799 -9106.8826 -7415.6145 300.7317 -1050.4836 -987.0216 30442.2561 -49.7990 8.4761
ENERGY: 600000 5.0832 3.4205 3.3516 0.0000 -10618.9568 1444.0737 0.0000 0.0000 1734.8085 -7428.2193 297.8998 -9163.0277 -7424.2722 299.0860 56.8996 102.1031 30354.4412 -148.2530 -94.2668
ENERGY: 900000 1.2456 3.0335 7.3860 0.0000 -10635.2867 1432.8220 0.0000 0.0000 1696.2999 -7494.4997 291.2871 -9190.7996 -7421.9216 298.5197 114.5878 145.7784 29786.8992 -117.8357 -67.7339
ENERGY: 1200000 6.1489 2.9037 5.0121 0.0000 -10621.3235 1365.1933 0.0000 0.0000 1663.2305 -7578.8351 285.6085 -9242.0655 -7444.1597 296.8982 -1005.1480 -938.0277 30102.8423 -233.5927 -180.8746
ENERGY: 1500000 4.4634 3.0810 3.2446 0.0000 -10586.1070 1358.1832 0.0000 0.0000 1768.3338 -7448.8010 303.6567 -9217.1348 -7438.6123 297.8985 -1102.0662 -987.7173 30551.3524 -342.6404 -284.9266
TCL: Running FEP window  14: Lambda1 0.34999999999999964 Lambda2 0.29999999999999966 [dLambda -0.04999999999999999]
TCL: Setting parameter firsttimestep to 0
TCL: Setting parameter alchLambda to 0.34999999999999964
Info: NONBONDED TABLE R-SQUARED SPACING: 0.0625
Info: NONBONDED TABLE SIZE: 705 POINTS
TCL: Setting parameter alchLambda2 to 0.29999999999999966
Info: NONBONDED TABLE R-SQUARED SPACING: 0.0625
Info: NONBONDED TABLE SIZE: 705 POINTS
TCL: Running for 1500000 steps
ETITLE: TS BOND ANGLE DIHED IMPRP ELECT VDW BOUNDARY MISC KINETIC TOTAL TEMP POTENTIAL TOTALAVG TEMPAVG PRESSURE GPRESSURE VOLUME PRESSAVG GPRESSAVG
ENERGY: 0 4.4634 3.0809 3.2446 0.0000 -10586.1059 1358.0221 0.0000 0.0000 1767.4667 -7449.8282 303.5078 -9217.2949 -7449.8282 303.5078 -1066.3021 -993.8092 30551.3524 -1066.3021 -993.8092
ENERGY: 300000 1.6493 1.6677 3.8544 0.0000 -10731.0018 1504.3076 0.0000 0.0000 1747.2377 -7472.2852 300.0341 -9219.5229 -7444.5309 302.2159 355.5811 438.4336 30178.3444 -163.8375 -58.4451
ENERGY: 600000 1.7891 2.7688 3.6921 0.0000 -10594.2987 1396.5903 0.0000 0.0000 1719.6578 -7469.8005 295.2981 -9189.4583 -7427.0661 302.4652 -386.5804 -345.7846 30288.3087 -230.0000 -151.5229
ENERGY: 900000 3.9319 2.2685 2.2638 0.0000 -10753.5551 1503.1878 0.0000 0.0000 1781.1697 -7460.7334 305.8609 -9241.9031 -7448.5677 300.7984 486.3169 537.5841 30015.1130 -67.1817 9.5620
ENERGY: 1200000 2.6878 3.8948 3.7324 0.0000 -10660.4162 1451.2115 0.0000 0.0000 1749.1488 -7449.7409 300.3623 -9198.8897 -7437.9121 301.8657 295.8338 298.6143 29791.8508 -7.3971 62.8703
ENERGY: 1500000 2.7390 0.7500 3.1599 0.0000 -10586.5920 1383.2326 0.0000 0.0000 1746.3275 -7450.3829 299.8778 -9196.7104 -7431.2275 301.1607 -410.4194 -349.9335 30069.2271 -27.8765 35.4465
TCL: Running FEP window  15: Lambda1 0.29999999999999966 Lambda2 0.24999999999999967 [dLambda -0.04999999999999999]
TCL: Setting parameter firsttimestep to 0
TCL: Setting parameter alchLambda to 0.29999999999999966
Info: NONBONDED TABLE R-SQUARED SPACING: 0.0625
Info: NONBONDED TABLE SIZE: 705 POINTS
TCL: Setting parameter alchLambda2 to 0.24999999999999967
Info: NONBONDED TABLE R-SQUARED SPACING: 0.0625
Info: NONBONDED TABLE SIZE: 705 POINTS
TCL: Running for 1500000 steps
ETITLE: TS BOND ANGLE DIHED IMPRP ELECT VDW BOUNDARY MISC KINETIC TOTAL TEMP POTENTIAL TOTALAVG TEMPAVG PRESSURE GPRESSURE VOLUME PRESSAVG GPRESSAVG
ENERGY: 0 2.7390 0.7500 3.1599 0.0000 -10586.5927 1383.5116 0.0000 0.0000 1745.4686 -7450.9635 299.7303 -9196.4322 -7450.9635 299.7303 -445.6629 -355.4451 30069.2271 -445.6629 -355.4451
ENERGY: 300000 2.5333 2.7224 4.9456 0.0000 -10583.3925 1425.9839 0.0000 0.0000 1753.1612 -7394.0461 301.0513 -9147.2073 -7423.5632 298.9064 -71.6681 -18.2840 30310.9389 -113.5206 -68.4346
ENERGY: 600000 2.6753 1.9175 4.5658 0.0000 -10684.1511 1490.4140 0.0000 0.0000 1747.5032 -7437.0752 300.0797 -9184.5784 -7415.1618 300.8283 236.5337 359.3448 30144.1391 -180.9780 -146.8278
ENERGY: 900000 3.7541 2.7534 3.3115 0.0000 -10723.0700 1447.8597 0.0000 0.0000 1751.4162 -7513.9751 300.7516 -9265.3913 -7419.1553 300.9470 -276.1386 -209.8233 30341.4275 -95.3385 -59.1402
ENERGY: 1200000 4.0048 3.6268 4.1254 0.0000 -10629.6597 1393.7875 0.0000 0.0000 1713.0136 -7511.1015 294.1572 -9224.1152 -7433.9135 300.7549 -460.6386 -459.1652 30554.8982 -46.9085 -13.4016
ENERGY: 1500000 3.8783 5.9918 2.3385 0.0000 -10625.1554 1444.8384 0.0000 0.0000 1786.5756 -7381.5328 306.7892 -9168.1084 -7432.5390 301.2455 235.0913 309.8574 29731.3574 39.6663 77.4145
TCL: Running FEP window  16: Lambda1 0.24999999999999967 Lambda2 0.19999999999999968 [dLambda -0.04999999999999999]
TCL: Setting parameter firsttimestep to 0
TCL: Setting parameter alchLambda to 0.24999999999999967
Info: NONBONDED TABLE R-SQUARED SPACING: 0.0625
Info: NONBONDED TABLE SIZE: 705 POINTS
TCL: Setting parameter alchLambda2 to 0.19999999999999968
Info: NONBONDED TABLE R-SQUARED SPACING: 0.0625
Info: NONBONDED TABLE SIZE: 705 POINTS
TCL: Running for 1500000 steps
ETITLE: TS BOND ANGLE DIHED IMPRP ELECT VDW BOUNDARY MISC KINETIC TOTAL TEMP POTENTIAL TOTALAVG TEMPAVG PRESSURE GPRESSURE VOLUME PRESSAVG GPRESSAVG
ENERGY: 0 3.8783 5.9918 2.3385 0.0000 -10625.1563 1445.2177 0.0000 0.0000 1785.7080 -7382.0220 306.6402 -9167.7300 -7382.0220 306.6402 209.1188 308.6200 29731.3574 209.1188 308.6200
ENERGY: 300000 0.5523 4.0337 3.7102 0.0000 -10638.8640 1439.3030 0.0000 0.0000 1676.4208 -7514.8440 287.8735 -9191.2648 -7442.2716 300.2308 36.2213 107.7066 30080.3175 147.7665 211.9218
ENERGY: 600000 3.0419 2.1981 3.6363 0.0000 -10548.2416 1382.8472 0.0000 0.0000 1743.5076 -7413.0105 299.3936 -9156.5181 -7452.2099 298.9102 -387.3852 -393.0448 30337.0876 -29.6594 30.5676
ENERGY: 900000 4.1465 1.6013 2.5569 0.0000 -10630.9796 1438.5402 0.0000 0.0000 1758.6563 -7425.4784 301.9949 -9184.1347 -7445.5790 298.6477 -71.5383 -26.4822 30192.9740 44.1930 98.6787
ENERGY: 1200000 1.6594 2.7327 3.4874 0.0000 -10560.4833 1381.7016 0.0000 0.0000 1762.5239 -7408.3783 302.6591 -9170.9022 -7436.4892 299.4296 -488.1146 -432.3401 30134.0952 52.6258 110.9364
ENERGY: 1500000 1.7327 2.7029 2.6822 0.0000 -10425.9295 1264.6297 0.0000 0.0000 1753.7224 -7400.4597 301.1477 -9154.1821 -7434.2458 299.6929 -1536.3958 -1474.9929 30434.2149 -69.2378 -11.4197
TCL: Running FEP window  17: Lambda1 0.19999999999999968 Lambda2 0.1499999999999997 [dLambda -0.04999999999999999]
TCL: Setting parameter firsttimestep to 0
TCL: Setting parameter alchLambda to 0.19999999999999968
Info: NONBONDED TABLE R-SQUARED SPACING: 0.0625
Info: NONBONDED TABLE SIZE: 705 POINTS
TCL: Setting parameter alchLambda2 to 0.1499999999999997
Info: NONBONDED TABLE R-SQUARED SPACING: 0.0625
Info: NONBONDED TABLE SIZE: 705 POINTS
TCL: Running for 1500000 steps
ETITLE: TS BOND ANGLE DIHED IMPRP ELECT VDW BOUNDARY MISC KINETIC TOTAL TEMP POTENTIAL TOTALAVG TEMPAVG PRESSURE GPRESSURE VOLUME PRESSAVG GPRESSAVG
ENERGY: 0 1.7327 2.7029 2.6822 0.0000 -10425.9294 1264.5893 0.0000 0.0000 1752.8568 -7401.3655 300.9990 -9154.2223 -7401.3655 300.9990 -1551.6814 -1479.1517 30434.2149 -1551.6814 -1479.1517
ENERGY: 300000 3.8905 2.6630 1.8212 0.0000 -10692.0665 1515.5718 0.0000 0.0000 1761.4487 -7406.6713 302.4744 -9168.1200 -7425.7733 299.0853 404.9052 455.4007 30443.4292 -555.1547 -475.6717
ENERGY: 600000 1.1185 4.1438 5.1198 0.0000 -10658.9043 1458.2598 0.0000 0.0000 1788.9536 -7401.3088 307.1975 -9190.2625 -7422.4135 300.9112 353.5233 374.0273 29947.9539 -435.4174 -371.3909
ENERGY: 900000 3.7275 2.4132 7.4779 0.0000 -10745.6088 1502.8689 0.0000 0.0000 1740.5854 -7488.5358 298.8918 -9229.1213 -7432.6861 300.1066 723.0295 778.2832 29333.0705 -164.6074 -108.4144
ENERGY: 1200000 5.2622 2.2972 4.4902 0.0000 -10617.9697 1446.0403 0.0000 0.0000 1717.5026 -7442.3770 294.9280 -9159.8797 -7426.7273 299.5395 323.1669 453.5995 29808.4763 -92.1317 -32.8609
ENERGY: 1500000 3.2624 1.9605 3.5884 0.0000 -10561.8349 1380.2474 0.0000 0.0000 1775.6408 -7397.1354 304.9115 -9172.7762 -7425.6581 299.6605 -299.6232 -183.5844 30043.1374 -108.9687 -49.8924
TCL: Running FEP window  18: Lambda1 0.1499999999999997 Lambda2 0.09999999999999969 [dLambda -0.05 ]
TCL: Setting parameter firsttimestep to 0
TCL: Setting parameter alchLambda to 0.1499999999999997
Info: NONBONDED TABLE R-SQUARED SPACING: 0.0625
Info: NONBONDED TABLE SIZE: 705 POINTS
TCL: Setting parameter alchLambda2 to 0.09999999999999969
Info: NONBONDED TABLE R-SQUARED SPACING: 0.0625
Info: NONBONDED TABLE SIZE: 705 POINTS
TCL: Running for 1500000 steps
ETITLE: TS BOND ANGLE DIHED IMPRP ELECT VDW BOUNDARY MISC KINETIC TOTAL TEMP POTENTIAL TOTALAVG TEMPAVG PRESSURE GPRESSURE VOLUME PRESSAVG GPRESSAVG
ENERGY: 0 3.2625 1.9605 3.5884 0.0000 -10561.8361 1380.7330 0.0000 0.0000 1774.7778 -7397.5139 304.7633 -9172.2917 -7397.5139 304.7633 -266.2730 -183.5251 30043.1374 -266.2730 -183.5251
ENERGY: 300000 3.6831 2.3516 3.2785 0.0000 -10491.4519 1325.2968 0.0000 0.0000 1728.2194 -7428.6225 296.7683 -9156.8419 -7411.8097 301.6399 -994.0302 -930.9619 30504.8586 -520.4088 -472.1515
ENERGY: 600000 2.1730 2.7020 2.1551 0.0000 -10679.8688 1458.1705 0.0000 0.0000 1761.8645 -7452.8038 302.5458 -9214.6683 -7420.9013 300.4336 40.2727 91.3346 30232.6079 -484.5519 -423.2363
ENERGY: 900000 1.5796 1.6602 1.9006 0.0000 -10569.9918 1426.3713 0.0000 0.0000 1793.7941 -7344.6860 308.0288 -9138.4802 -7413.3342 301.5352 -434.9619 -408.6255 31045.1542 -313.7381 -250.8427
ENERGY: 1200000 1.6792 2.4934 2.9559 0.0000 -10704.3637 1503.0415 0.0000 0.0000 1794.5772 -7399.6165 308.1632 -9194.1937 -7409.6381 301.6405 850.2117 940.5912 29815.8031 -150.9067 -81.4470
ENERGY: 1500000 6.9646 1.7002 0.9251 0.0000 -10635.5651 1392.1251 0.0000 0.0000 1764.2099 -7469.6401 302.9486 -9233.8500 -7425.3919 301.0301 -550.2606 -487.9974 30028.0395 -176.1671 -106.5857
TCL: Running FEP window  19: Lambda1 0.09999999999999969 Lambda2 0.049999999999999684 [dLambda -0.05 ]
TCL: Setting parameter firsttimestep to 0
TCL: Setting parameter alchLambda to 0.09999999999999969
Info: NONBONDED TABLE R-SQUARED SPACING: 0.0625
Info: NONBONDED TABLE SIZE: 705 POINTS
TCL: Setting parameter alchLambda2 to 0.049999999999999684
Info: NONBONDED TABLE R-SQUARED SPACING: 0.0625
Info: NONBONDED TABLE SIZE: 705 POINTS
TCL: Running for 1500000 steps
ETITLE: TS BOND ANGLE DIHED IMPRP ELECT VDW BOUNDARY MISC KINETIC TOTAL TEMP POTENTIAL TOTALAVG TEMPAVG PRESSURE GPRESSURE VOLUME PRESSAVG GPRESSAVG
ENERGY: 0 6.9646 1.7002 0.9252 0.0000 -10635.5645 1392.0424 0.0000 0.0000 1763.3197 -7470.6125 302.7957 -9233.9322 -7470.6125 302.7957 -572.4622 -493.7844 30028.0395 -572.4622 -493.7844
ENERGY: 300000 1.1414 3.5186 3.1082 0.0000 -10638.9437 1391.9550 0.0000 0.0000 1762.1891 -7477.0313 302.6016 -9239.2204 -7458.4839 302.9560 -504.4774 -438.5938 29993.9004 -408.9301 -330.8036
ENERGY: 600000 4.4683 2.6555 2.9077 0.0000 -10546.0101 1450.4697 0.0000 0.0000 1703.4198 -7382.0889 292.5098 -9085.5088 -7438.2527 301.2511 377.7258 399.7879 30133.8462 -224.0148 -145.9309
ENERGY: 900000 3.2916 1.4059 4.5412 0.0000 -10620.7345 1434.4186 0.0000 0.0000 1730.9674 -7446.1098 297.2402 -9177.0772 -7431.0618 301.9206 369.7193 394.1959 29128.9089 -166.7118 -99.8088
ENERGY: 1200000 3.7110 7.1712 6.2053 0.0000 -10561.7810 1376.4909 0.0000 0.0000 1749.6952 -7418.5075 300.4561 -9168.2027 -7435.5047 301.1684 -423.4086 -384.2061 29968.5590 -116.8071 -49.4058
ENERGY: 1500000 4.4685 1.9159 2.4207 0.0000 -10516.7613 1373.7253 0.0000 0.0000 1774.3720 -7359.8590 304.6936 -9134.2309 -7432.3409 301.4614 -742.7650 -685.7967 30540.3980 -93.8150 -23.4481
TCL: Running FEP window  20: Lambda1 0.049999999999999684 Lambda2 0.0    [dLambda -0.049999999999999684]
TCL: Setting parameter firsttimestep to 0
TCL: Setting parameter alchLambda to 0.049999999999999684
Info: NONBONDED TABLE R-SQUARED SPACING: 0.0625
Info: NONBONDED TABLE SIZE: 705 POINTS
TCL: Setting parameter alchLambda2 to 0.0
Info: NONBONDED TABLE R-SQUARED SPACING: 0.0625
Info: NONBONDED TABLE SIZE: 705 POINTS
TCL: Running for 1500000 steps
ETITLE: TS BOND ANGLE DIHED IMPRP ELECT VDW BOUNDARY MISC KINETIC TOTAL TEMP POTENTIAL TOTALAVG TEMPAVG PRESSURE GPRESSURE VOLUME PRESSAVG GPRESSAVG
ENERGY: 0 4.4685 1.9159 2.4207 0.0000 -10516.7607 1372.5527 0.0000 0.0000 1773.4950 -7361.9079 304.5430 -9135.4030 -7361.9079 304.5430 -772.8839 -695.7703 30540.3980 -772.8839 -695.7703
ENERGY: 300000 3.8764 2.1742 4.0590 0.0000 -10743.6297 1496.6272 0.0000 0.0000 1723.2831 -7513.6098 295.9207 -9236.8929 -7431.9931 302.0043 93.5567 123.4070 30202.4842 -91.0094 -39.0151
ENERGY: 600000 1.6184 2.0254 2.5911 0.0000 -10723.6707 1485.2035 0.0000 0.0000 1713.9188 -7518.3135 294.3126 -9232.2323 -7436.7030 302.0715 23.3186 33.2704 30486.7110 -126.8623 -90.9346
ENERGY: 900000 1.7015 4.6442 4.9028 0.0000 -10530.7489 1370.1081 0.0000 0.0000 1764.6934 -7384.6990 303.0316 -9149.3924 -7426.4301 301.4425 -655.8479 -591.1627 30516.5428 -177.8040 -135.0532
ENERGY: 1200000 2.3275 1.9536 3.6420 0.0000 -10633.0278 1430.7067 0.0000 0.0000 1766.1437 -7428.2542 303.2807 -9194.3979 -7427.7028 300.4992 265.3727 318.5730 29778.8061 -125.5942 -74.5507
ENERGY: 1500000 2.6597 1.2699 3.2559 0.0000 -10679.8202 1478.8303 0.0000 0.0000 1790.7146 -7403.0898 307.4999 -9193.8044 -7422.8445 301.3235 348.6647 412.7412 29918.5399 -120.7259 -74.7510
TCL: Exiting due to exit command.
