Info: SIMULATION PARAMETERS:
Info: TIMESTEP               2
Info: NUMBER OF STEPS        0
Info: STEPS PER CYCLE        10
Info: PERIODIC CELL BASIS 1  31.9908 0 0
Info: PERIODIC CELL BASIS 2  0 30.8277 0
Info: PERIODIC CELL BASIS 3  0 0 31.7402
Info: PERIODIC CELL CENTER   0 0 0
Info: WRAPPING WATERS AROUND PERIODIC BOUNDARIES ON OUTPUT.
Info: WRAPPING ALL CLUSTERS AROUND PERIODIC BOUNDARIES ON OUTPUT.
Info: FIRST LDB TIMESTEP     50
Info: LAST LDB TIMESTEP     -1
Info: HOM BACKGROUND SCALING 1
Info: PME BACKGROUND SCALING 1
Info: MIN ATOMS PER PATCH    40
Info: EMPTY PATCH LOAD       40 ATOMS
Info: VELOCITY FILE          mobley_8048190_equil.vel
Info: CENTER OF MASS MOVING INITIALLY? NO
Info: DIELECTRIC             1
Info: EXCLUDE                SCALED ONE-FOUR
Info: 1-4 ELECTROSTATICS SCALED BY 0.833333
Info: MODIFIED 1-4 VDW PARAMETERS WILL BE USED
Info: DCD FILENAME           mobley_8048190_prod.dcd
Info: DCD FREQUENCY          100000
Info: DCD FIRST STEP         100000
Info: DCD FILE WILL CONTAIN UNIT CELL DATA
Info: XST FILENAME           mobley_8048190_prod.xst
Info: XST FREQUENCY          100000
Info: NO VELOCITY DCD OUTPUT
Info: NO FORCE DCD OUTPUT
Info: OUTPUT FILENAME        mobley_8048190_prod
Info: BINARY OUTPUT FILES WILL BE USED
Info: RESTART FILENAME       mobley_8048190_prod.restart
Info: RESTART FREQUENCY      100000
Info: BINARY RESTART FILES WILL BE USED
Info: CUTOFF                 9
Info: PAIRLIST DISTANCE      11
Info: PAIRLIST SHRINK RATE   0.01
Info: PAIRLIST GROW RATE     0.01
Info: PAIRLIST TRIGGER       0.3
Info: PAIRLISTS PER CYCLE    2
Info: PAIRLISTS ENABLED
Info: MARGIN                 2
Info: HYDROGEN GROUP CUTOFF  2.5
Info: PATCH DIMENSION        15.5
Info: ENERGY OUTPUT STEPS    100000
Info: ENERGY EVALUATION STEPS    100000
Info: OUTPUT ENERGY PRECISION 4
Info: CROSSTERM ENERGY INCLUDED IN DIHEDRAL
Info: TIMING OUTPUT STEPS    1000000
Info: PRESSURE OUTPUT STEPS  100000
Info: ALCHEMICAL FEP ON
Info: FEP CURRENT LAMBDA VALUE     0
Info: FEP COMPARISON LAMBDA VALUE  0.05
Info: FEP INTRA-ALCHEMICAL NON-BONDED INTERACTIONS WILL BE RETAINED
Info: FEP INTRA-ALCHEMICAL BONDED INTERACTIONS WILL BE RETAINED
Info: FEP VDW SHIFTING COEFFICIENT 5
Info: FEP ELEC. ACTIVE FOR ANNIHILATED PARTICLES BETWEEN LAMBDA = 0 AND LAMBDA = 0.5
Info: FEP ELEC. ACTIVE FOR EXNIHILATED PARTICLES BETWEEN LAMBDA = 0.5 AND LAMBDA = 1
Info: FEP VDW ACTIVE FOR ANNIHILATED PARTICLES BETWEEN LAMBDA = 0 AND LAMBDA = 1
Info: FEP VDW ACTIVE FOR EXNIHILATED PARTICLES BETWEEN LAMBDA = 0 AND LAMBDA = 1
Info: FEP BOND ACTIVE FOR ANNIHILATED PARTICLES BETWEEN LAMBDA = 1 AND LAMBDA = 1
Info: FEP BOND ACTIVE FOR EXNIHILATED PARTICLES BETWEEN LAMBDA = 0 AND LAMBDA = 0
Info: LANGEVIN DYNAMICS ACTIVE
Info: LANGEVIN TEMPERATURE   300
Info: LANGEVIN USING BBK INTEGRATOR
Info: LANGEVIN DAMPING COEFFICIENT IS 1 INVERSE PS
Info: LANGEVIN DYNAMICS APPLIED TO HYDROGENS
Info: LANGEVIN PISTON PRESSURE CONTROL ACTIVE
Info:        TARGET PRESSURE IS 1.01325 BAR
Info:     OSCILLATION PERIOD IS 50 FS
Info:             DECAY TIME IS 25 FS
Info:     PISTON TEMPERATURE IS 300 K
Info:       PRESSURE CONTROL IS GROUP-BASED
Info:    INITIAL STRAIN RATE IS 0.000216092 0.000216092 0.000216092
Info:       CELL FLUCTUATION IS ISOTROPIC
Info: PARTICLE MESH EWALD (PME) ACTIVE
Info: PME TOLERANCE               1e-06
Info: PME EWALD COEFFICIENT       0.348832
Info: PME INTERPOLATION ORDER     4
Info: PME GRID DIMENSIONS         32 32 32
Info: PME MAXIMUM GRID SPACING    1
Info: PME CALCULATION WILL BE PERFORMED ON GPU
Info: FULL ELECTROSTATIC EVALUATION FREQUENCY      2
Info: USING VERLET I (r-RESPA) MTS SCHEME.
Info: C1 SPLITTING OF LONG RANGE ELECTROSTATICS
Info: PLACING ATOMS IN PATCHES BY HYDROGEN GROUPS
Info: RIGID BONDS TO HYDROGEN : ALL
Info:         ERROR TOLERANCE : 1e-08
Info:          MAX ITERATIONS : 100
Info: RIGID WATER USING SETTLE ALGORITHM
Info: RANDOM NUMBER SEED     1743502420
Info: USE HYDROGEN BONDS?    NO
Info: Using AMBER format force field!
Info: AMBER PARM FILE        mobley_8048190.prmtop
Info: COORDINATE PDB         mobley_8048190.pdb
Info: Exclusions will be read from PARM file!
Info: SCNB (VDW SCALING)     2
Info: USING ARITHMETIC MEAN TO COMBINE L-J SIGMA PARAMETERS
Info: BINARY COORDINATES     mobley_8048190_equil.coor
Info: SUMMARY OF PARAMETERS:
Info: 7 BONDS
Info: 7 ANGLES
Info:   7 HARMONIC
Info:   0 COSINE-BASED
Info: 8 DIHEDRAL
Info: 0 IMPROPER
Info: 0 CROSSTERM
Info: 0 VDW
Info: 36 VDW_PAIRS
Info: 0 NBTHOLE_PAIRS
Info: To read alchdata from file: mobley_8048190.pdb
Info: To read alchflag data from column: 5
Info: STRUCTURE SUMMARY:
Info: 2988 ATOMS
Info: 2987 BONDS
Info: 12 ANGLES
Info: 20 DIHEDRALS
Info: 0 IMPROPERS
Info: 0 CROSSTERMS
Info: 3009 EXCLUSIONS
Info: 2984 RIGID BONDS
Info: ALCH: 0 ATOMS TO DISAPPEAR IN FINAL STATE
Info: ALCH: 9 ATOMS TO APPEAR IN FINAL STATE
Info: 5980 DEGREES OF FREEDOM
Info: 997 HYDROGEN GROUPS
Info: 4 ATOMS IN LARGEST HYDROGEN GROUP
Info: 997 MIGRATION GROUPS
Info: 4 ATOMS IN LARGEST MIGRATION GROUP
Info: TOTAL MASS = 17949 amu
Info: TOTAL CHARGE = -1.49012e-08 e
Info: MASS DENSITY = 0.952185 g/cm^3
Info: ATOM DENSITY = 0.0954561 atoms/A^3
Info: ADDED 0 IMPLICIT EXCLUSIONS
Info: NONBONDED TABLE R-SQUARED SPACING: 0.0625
Info: NONBONDED TABLE SIZE: 705 POINTS
Info: REMOVING COM VELOCITY 0.158087 0.0539323 -0.162077
Info: Use 3D box decompostion in PME FFT.
Info: Updated CUDA force table with 4096 elements.
Info: Updated CUDA LJ table with 8 x 8 elements.
Info: Found 12 unique exclusion lists needing 16 bytes
TCL: Running for 1500000 steps
ETITLE: TS BOND ANGLE DIHED IMPRP ELECT VDW BOUNDARY MISC KINETIC TOTAL TEMP POTENTIAL TOTALAVG TEMPAVG PRESSURE GPRESSURE VOLUME PRESSAVG GPRESSAVG
ENERGY: 0 2.4292 2.7208 7.1049 0.0000 -10792.6837 1366.0511 0.0000 0.0000 1794.8310 -7619.5467 302.0736 -9414.3777 -7619.5467 302.0736 -934.0098 -842.6334 31302.3547 -934.0098 -842.6334
ENERGY: 300000 3.3560 2.7086 7.4644 0.0000 -10818.7022 1395.2724 0.0000 0.0000 1825.4164 -7584.4845 307.2212 -9409.9008 -7621.0320 301.8490 -574.0334 -531.4059 30978.2603 -516.8370 -451.9757
ENERGY: 600000 1.5789 3.5818 8.5987 0.0000 -10713.1573 1290.3840 0.0000 0.0000 1826.0703 -7582.9436 307.3312 -9409.0139 -7625.7013 302.9479 -1510.0078 -1398.4778 31258.0861 -430.3140 -343.1477
ENERGY: 900000 0.6253 2.5055 6.4522 0.0000 -10906.0221 1411.2952 0.0000 0.0000 1798.9782 -7686.1658 302.7716 -9485.1440 -7632.6740 301.7116 -450.9178 -418.0195 30712.1653 -375.3980 -299.8679
ENERGY: 1200000 1.3510 1.5228 7.2790 0.0000 -10756.5632 1333.1016 0.0000 0.0000 1781.5958 -7631.7130 299.8461 -9413.3088 -7628.8177 301.6206 -943.8568 -833.8780 30847.3628 -330.6831 -253.4242
ENERGY: 1500000 0.4714 3.0096 7.1518 0.0000 -10967.3101 1500.0417 0.0000 0.0000 1793.3556 -7663.2801 301.8253 -9456.6357 -7640.4746 301.0834 278.5677 259.7717 30804.2462 -295.3680 -227.2580
TCL: Running FEP window   2: Lambda1 0.05   Lambda2 0.1    [dLambda 0.05  ]
TCL: Setting parameter firsttimestep to 0
TCL: Setting parameter alchLambda to 0.05
Info: NONBONDED TABLE R-SQUARED SPACING: 0.0625
Info: NONBONDED TABLE SIZE: 705 POINTS
TCL: Setting parameter alchLambda2 to 0.1
Info: NONBONDED TABLE R-SQUARED SPACING: 0.0625
Info: NONBONDED TABLE SIZE: 705 POINTS
TCL: Running for 1500000 steps
ETITLE: TS BOND ANGLE DIHED IMPRP ELECT VDW BOUNDARY MISC KINETIC TOTAL TEMP POTENTIAL TOTALAVG TEMPAVG PRESSURE GPRESSURE VOLUME PRESSAVG GPRESSAVG
ENERGY: 0 0.4714 3.0096 7.1518 0.0000 -10967.3109 1501.1546 0.0000 0.0000 1792.4984 -7663.0252 301.6810 -9455.5236 -7663.0252 301.6810 183.9110 263.4854 30804.2462 183.9110 263.4854
ENERGY: 300000 2.5239 2.8174 8.2068 0.0000 -10855.4872 1471.3127 0.0000 0.0000 1783.2630 -7587.3633 300.1267 -9370.6263 -7633.2351 299.5226 127.9530 125.2535 30882.0494 -218.4716 -177.4814
ENERGY: 600000 0.3541 0.9349 8.3929 0.0000 -10928.8865 1508.4067 0.0000 0.0000 1838.0117 -7572.7863 309.3410 -9410.7979 -7640.6278 301.9754 516.9867 615.4766 30527.6635 -86.0397 -29.5544
ENERGY: 900000 0.3970 3.8824 8.7103 0.0000 -10929.8128 1441.1823 0.0000 0.0000 1758.5363 -7717.1044 295.9651 -9475.6407 -7645.2735 301.4972 -6.6764 -44.3703 30209.0898 -55.4836 -13.2357
ENERGY: 1200000 1.1702 4.5969 6.9051 0.0000 -10967.9112 1473.3002 0.0000 0.0000 1799.1104 -7682.8283 302.7938 -9481.9387 -7646.1508 301.9693 -7.8790 71.2517 30631.4997 2.7166 46.7503
ENERGY: 1500000 2.1165 2.6341 8.0056 0.0000 -10923.3935 1454.7227 0.0000 0.0000 1771.8453 -7684.0692 298.2051 -9455.9145 -7653.1409 301.4238 -33.1020 -9.6140 30581.4156 37.2672 84.2268
TCL: Running FEP window   3: Lambda1 0.1    Lambda2 0.15000000000000002 [dLambda 0.05000000000000002]
TCL: Setting parameter firsttimestep to 0
TCL: Setting parameter alchLambda to 0.1
Info: NONBONDED TABLE R-SQUARED SPACING: 0.0625
Info: NONBONDED TABLE SIZE: 705 POINTS
TCL: Setting parameter alchLambda2 to 0.15000000000000002
Info: NONBONDED TABLE R-SQUARED SPACING: 0.0625
Info: NONBONDED TABLE SIZE: 705 POINTS
TCL: Running for 1500000 steps
ETITLE: TS BOND ANGLE DIHED IMPRP ELECT VDW BOUNDARY MISC KINETIC TOTAL TEMP POTENTIAL TOTALAVG TEMPAVG PRESSURE GPRESSURE VOLUME PRESSAVG GPRESSAVG
ENERGY: 0 2.1165 2.6341 8.0056 0.0000 -10923.3924 1456.6819 0.0000 0.0000 1770.9782 -7682.9760 298.0591 -9453.9542 -7682.9760 298.0591 -89.0483 -4.7122 30581.4156 -89.0483 -4.7122
ENERGY: 300000 0.2953 3.8735 7.3919 0.0000 -10904.4709 1470.0522 0.0000 0.0000 1779.0608 -7643.7973 299.4194 -9422.8580 -7640.1380 302.0115 66.6191 127.5110 30608.8519 -202.6403 -140.7908
ENERGY: 600000 1.5253 4.5525 7.1492 0.0000 -10855.2316 1474.5183 0.0000 0.0000 1756.1958 -7611.2906 295.5712 -9367.4863 -7644.0718 298.8762 148.9610 155.0305 31182.7679 -241.2975 -188.8438
ENERGY: 900000 0.1168 2.3284 8.5399 0.0000 -10735.8898 1335.3037 0.0000 0.0000 1757.0015 -7632.5995 295.7068 -9389.6010 -7650.5538 297.7507 -891.0693 -841.5545 30823.4118 -286.3033 -227.7214
ENERGY: 1200000 0.3419 4.5947 6.7233 0.0000 -10950.4479 1478.0655 0.0000 0.0000 1757.9316 -7702.7909 295.8633 -9460.7225 -7657.2545 298.1607 -166.1275 -88.7802 30998.3964 -215.3869 -158.4559
ENERGY: 1500000 1.9533 2.7746 9.0552 0.0000 -10895.2052 1446.7655 0.0000 0.0000 1830.7334 -7603.9231 308.1160 -9434.6566 -7655.3367 298.6689 -66.5508 -27.0443 30741.3662 -241.5033 -190.7677
TCL: Running FEP window   4: Lambda1 0.15000000000000002 Lambda2 0.2    [dLambda 0.04999999999999999]
TCL: Setting parameter firsttimestep to 0
TCL: Setting parameter alchLambda to 0.15000000000000002
Info: NONBONDED TABLE R-SQUARED SPACING: 0.0625
Info: NONBONDED TABLE SIZE: 705 POINTS
TCL: Setting parameter alchLambda2 to 0.2
Info: NONBONDED TABLE R-SQUARED SPACING: 0.0625
Info: NONBONDED TABLE SIZE: 705 POINTS
TCL: Running for 1500000 steps
ETITLE: TS BOND ANGLE DIHED IMPRP ELECT VDW BOUNDARY MISC KINETIC TOTAL TEMP POTENTIAL TOTALAVG TEMPAVG PRESSURE GPRESSURE VOLUME PRESSAVG GPRESSAVG
ENERGY: 0 1.9533 2.7746 9.0552 0.0000 -10895.2038 1447.6986 0.0000 0.0000 1829.8299 -7603.8922 307.9640 -9433.7221 -7603.8922 307.9640 -97.8855 -23.0500 30741.3662 -97.8855 -23.0500
ENERGY: 300000 0.3481 6.7119 6.7842 0.0000 -10730.6526 1339.4634 0.0000 0.0000 1757.0117 -7620.3333 295.7085 -9377.3450 -7578.9985 305.0853 -951.0349 -870.9088 30894.8865 -66.0141 -4.6639
ENERGY: 600000 0.1570 4.3283 10.6492 0.0000 -10881.9412 1466.8794 0.0000 0.0000 1757.1380 -7642.7891 295.7298 -9399.9272 -7594.1599 301.9915 -12.5766 45.4334 30855.6834 -9.5810 55.0334
ENERGY: 900000 1.6036 3.4139 9.0591 0.0000 -10718.2922 1330.8207 0.0000 0.0000 1804.2839 -7569.1110 303.6645 -9373.3949 -7597.1168 301.6335 -872.8089 -769.1326 30813.7495 6.0101 77.8275
ENERGY: 1200000 1.2795 2.3868 7.4694 0.0000 -10878.3180 1404.4991 0.0000 0.0000 1761.0401 -7701.6431 296.3865 -9462.6832 -7604.0664 301.2685 -800.6072 -679.8200 31110.3276 -185.6065 -111.5920
ENERGY: 1500000 1.3895 2.9279 6.6159 0.0000 -10742.9399 1357.4188 0.0000 0.0000 1805.3914 -7569.1964 303.8509 -9374.5878 -7607.3650 301.9411 -613.9073 -550.4169 30911.7845 -203.6356 -139.4637
TCL: Running FEP window   5: Lambda1 0.2    Lambda2 0.25   [dLambda 0.04999999999999999]
TCL: Setting parameter firsttimestep to 0
TCL: Setting parameter alchLambda to 0.2
Info: NONBONDED TABLE R-SQUARED SPACING: 0.0625
Info: NONBONDED TABLE SIZE: 705 POINTS
TCL: Setting parameter alchLambda2 to 0.25
Info: NONBONDED TABLE R-SQUARED SPACING: 0.0625
Info: NONBONDED TABLE SIZE: 705 POINTS
TCL: Running for 1500000 steps
ETITLE: TS BOND ANGLE DIHED IMPRP ELECT VDW BOUNDARY MISC KINETIC TOTAL TEMP POTENTIAL TOTALAVG TEMPAVG PRESSURE GPRESSURE VOLUME PRESSAVG GPRESSAVG
ENERGY: 0 1.3895 2.9279 6.6159 0.0000 -10742.9406 1357.6506 0.0000 0.0000 1804.4870 -7569.8697 303.6987 -9374.3567 -7569.8697 303.6987 -637.7262 -548.2268 30911.7845 -637.7262 -548.2268
ENERGY: 300000 1.8212 4.1066 7.4593 0.0000 -10789.3435 1401.3727 0.0000 0.0000 1770.0616 -7604.5219 297.9049 -9374.5836 -7645.7583 298.9235 -186.2745 -102.8535 30489.3366 -261.6506 -197.1011
ENERGY: 600000 1.5740 6.1879 7.9266 0.0000 -10851.5653 1371.2596 0.0000 0.0000 1781.5864 -7683.0307 299.8445 -9464.6171 -7657.9179 299.5105 -801.8191 -716.4977 30888.8797 -270.4985 -206.7830
ENERGY: 900000 0.5097 2.4051 8.7032 0.0000 -11014.8986 1499.0196 0.0000 0.0000 1756.4580 -7747.8030 295.6153 -9504.2610 -7670.4982 299.6348 97.5727 189.1556 30833.9952 -236.1132 -173.5794
ENERGY: 1200000 0.4372 2.7719 9.3582 0.0000 -10872.8149 1392.8985 0.0000 0.0000 1877.2939 -7590.0551 315.9523 -9467.3491 -7660.1108 301.2491 -710.5660 -661.2003 31011.0700 -298.7962 -245.9026
ENERGY: 1500000 2.5406 3.8930 7.6414 0.0000 -10835.0130 1434.4872 0.0000 0.0000 1815.2456 -7571.2052 305.5094 -9386.4508 -7661.6617 300.6570 -76.5520 26.1827 30776.3417 -273.4320 -219.0679
TCL: Running FEP window   6: Lambda1 0.25   Lambda2 0.3    [dLambda 0.04999999999999999]
TCL: Setting parameter firsttimestep to 0
TCL: Setting parameter alchLambda to 0.25
Info: NONBONDED TABLE R-SQUARED SPACING: 0.0625
Info: NONBONDED TABLE SIZE: 705 POINTS
TCL: Setting parameter alchLambda2 to 0.3
Info: NONBONDED TABLE R-SQUARED SPACING: 0.0625
Info: NONBONDED TABLE SIZE: 705 POINTS
TCL: Running for 1500000 steps
ETITLE: TS BOND ANGLE DIHED IMPRP ELECT VDW BOUNDARY MISC KINETIC TOTAL TEMP POTENTIAL TOTALAVG TEMPAVG PRESSURE GPRESSURE VOLUME PRESSAVG GPRESSAVG
ENERGY: 0 2.5406 3.8930 7.6414 0.0000 -10835.0123 1434.6180 0.0000 0.0000 1814.3378 -7571.9814 305.3566 -9386.3193 -7571.9814 305.3566 -41.6071 28.5418 30776.3417 -41.6071 28.5418
ENERGY: 300000 3.2454 2.9726 9.6072 0.0000 -10876.4880 1472.9730 0.0000 0.0000 1811.6535 -7576.0364 304.9048 -9387.6898 -7594.4726 300.9284 295.5551 312.0220 30855.4550 298.4125 366.0535
ENERGY: 600000 1.1122 2.9095 7.9785 0.0000 -10889.9871 1385.1214 0.0000 0.0000 1761.6162 -7731.2493 296.4835 -9492.8655 -7637.7075 299.9548 -915.3044 -844.3562 30989.4045 163.0728 250.0145
ENERGY: 900000 1.7022 3.0348 6.7465 0.0000 -10947.6672 1479.4790 0.0000 0.0000 1808.4150 -7648.2897 304.3598 -9456.7048 -7624.1434 302.2314 121.1322 227.8660 30436.2508 273.9129 366.9143
ENERGY: 1200000 1.0594 3.4232 6.8981 0.0000 -10910.4757 1512.3457 0.0000 0.0000 1709.3853 -7677.3640 287.6929 -9386.7492 -7639.4482 300.6429 346.0692 435.0324 30881.0542 218.9488 308.6348
ENERGY: 1500000 1.2818 2.6780 7.4748 0.0000 -10796.0128 1416.7567 0.0000 0.0000 1831.7667 -7536.0548 308.2899 -9367.8216 -7638.7555 300.4184 -306.9907 -236.2088 31338.1261 183.8483 272.9477
TCL: Running FEP window   7: Lambda1 0.3    Lambda2 0.35   [dLambda 0.04999999999999999]
TCL: Setting parameter firsttimestep to 0
TCL: Setting parameter alchLambda to 0.3
Info: NONBONDED TABLE R-SQUARED SPACING: 0.0625
Info: NONBONDED TABLE SIZE: 705 POINTS
TCL: Setting parameter alchLambda2 to 0.35
Info: NONBONDED TABLE R-SQUARED SPACING: 0.0625
Info: NONBONDED TABLE SIZE: 705 POINTS
TCL: Running for 1500000 steps
ETITLE: TS BOND ANGLE DIHED IMPRP ELECT VDW BOUNDARY MISC KINETIC TOTAL TEMP POTENTIAL TOTALAVG TEMPAVG PRESSURE GPRESSURE VOLUME PRESSAVG GPRESSAVG
ENERGY: 0 1.2818 2.6780 7.4748 0.0000 -10796.0118 1416.4999 0.0000 0.0000 1830.8437 -7537.2336 308.1346 -9368.0774 -7537.2336 308.1346 -318.9935 -235.8252 31338.1261 -318.9935 -235.8252
ENERGY: 300000 2.8117 0.4139 7.8911 0.0000 -10956.8639 1454.8581 0.0000 0.0000 1823.5779 -7667.3112 306.9118 -9490.8891 -7630.3130 305.7055 -68.1572 -28.4856 30537.6551 -147.8334 -61.7345
ENERGY: 600000 0.0463 3.7687 7.3259 0.0000 -10767.4260 1401.5719 0.0000 0.0000 1723.7491 -7630.9642 290.1104 -9354.7133 -7616.7068 302.2309 -439.3101 -455.8802 31327.3358 87.9061 156.2875
ENERGY: 900000 0.4902 4.3880 6.6788 0.0000 -10858.3187 1448.9132 0.0000 0.0000 1744.4024 -7653.4461 293.5864 -9397.8484 -7619.1843 300.5666 171.2478 196.5774 30467.3824 31.9347 99.1991
ENERGY: 1200000 0.4057 4.1195 8.2038 0.0000 -10682.4564 1342.5852 0.0000 0.0000 1831.1038 -7496.0385 308.1784 -9327.1423 -7616.9608 301.1957 -598.3973 -533.9710 30789.7681 -46.5517 16.0317
ENERGY: 1500000 0.2428 3.6827 7.3141 0.0000 -10937.1937 1470.0079 0.0000 0.0000 1788.9396 -7667.0067 301.0821 -9455.9462 -7625.2593 300.9710 164.3481 190.6631 30357.3705 -70.3257 -12.6415
TCL: Running FEP window   8: Lambda1 0.35   Lambda2 0.39999999999999997 [dLambda 0.04999999999999999]
TCL: Setting parameter firsttimestep to 0
TCL: Setting parameter alchLambda to 0.35
Info: NONBONDED TABLE R-SQUARED SPACING: 0.0625
Info: NONBONDED TABLE SIZE: 705 POINTS
TCL: Setting parameter alchLambda2 to 0.39999999999999997
Info: NONBONDED TABLE R-SQUARED SPACING: 0.0625
Info: NONBONDED TABLE SIZE: 705 POINTS
TCL: Running for 1500000 steps
ETITLE: TS BOND ANGLE DIHED IMPRP ELECT VDW BOUNDARY MISC KINETIC TOTAL TEMP POTENTIAL TOTALAVG TEMPAVG PRESSURE GPRESSURE VOLUME PRESSAVG GPRESSAVG
ENERGY: 0 0.2428 3.6827 7.3141 0.0000 -10937.1956 1470.9952 0.0000 0.0000 1788.0561 -7666.9048 300.9334 -9454.9609 -7666.9048 300.9334 133.8671 199.5186 30357.3705 133.8671 199.5186
ENERGY: 300000 0.4747 4.0680 7.6178 0.0000 -10900.6299 1437.6938 0.0000 0.0000 1820.9171 -7629.8586 306.4639 -9450.7756 -7613.8424 304.9613 -226.7343 -173.9942 30732.0342 -130.1751 -71.6991
ENERGY: 600000 0.1166 1.7502 10.0517 0.0000 -10886.5235 1430.6045 0.0000 0.0000 1768.3528 -7675.6477 297.6173 -9444.0005 -7637.3865 302.9180 -372.8500 -298.7188 30642.6730 83.2101 142.3470
ENERGY: 900000 0.9134 3.6065 8.1459 0.0000 -11019.8167 1561.6374 0.0000 0.0000 1764.3201 -7681.1933 296.9386 -9445.5135 -7645.5390 302.7522 728.3046 838.0356 30494.9587 163.0893 233.5021
ENERGY: 1200000 1.8134 2.3274 6.8294 0.0000 -10906.2854 1470.9481 0.0000 0.0000 1790.0710 -7634.2961 301.2725 -9424.3672 -7650.1556 302.5627 98.1521 203.2485 30665.2050 165.0679 240.1499
ENERGY: 1500000 0.1756 5.9030 7.9570 0.0000 -10912.8096 1476.1359 0.0000 0.0000 1801.8460 -7620.7921 303.2542 -9422.6381 -7660.3456 301.7432 57.9815 160.3679 30750.1573 59.9793 137.7334
TCL: Running FEP window   9: Lambda1 0.39999999999999997 Lambda2 0.44999999999999996 [dLambda 0.04999999999999999]
TCL: Setting parameter firsttimestep to 0
TCL: Setting parameter alchLambda to 0.39999999999999997
Info: NONBONDED TABLE R-SQUARED SPACING: 0.0625
Info: NONBONDED TABLE SIZE: 705 POINTS
TCL: Setting parameter alchLambda2 to 0.44999999999999996
Info: NONBONDED TABLE R-SQUARED SPACING: 0.0625
Info: NONBONDED TABLE SIZE: 705 POINTS
TCL: Running for 1500000 steps
ETITLE: TS BOND ANGLE DIHED IMPRP ELECT VDW BOUNDARY MISC KINETIC TOTAL TEMP POTENTIAL TOTALAVG TEMPAVG PRESSURE GPRESSURE VOLUME PRESSAVG GPRESSAVG
ENERGY: 0 0.1756 5.9030 7.9570 0.0000 -10912.8089 1475.9074 0.0000 0.0000 1800.9942 -7621.8717 303.1109 -9422.8659 -7621.8717 303.1109 67.0819 161.3816 30750.1573 67.0819 161.3816
ENERGY: 300000 0.0967 8.4642 7.9682 0.0000 -10927.9055 1447.5188 0.0000 0.0000 1798.1761 -7665.6816 302.6366 -9463.8578 -7658.7045 298.0976 -276.2390 -229.8245 30965.7590 -182.5844 -118.8765
ENERGY: 600000 0.2687 6.7814 9.9548 0.0000 -10954.4428 1487.8432 0.0000 0.0000 1730.3620 -7719.2327 291.2233 -9449.5948 -7684.3812 296.8381 153.6321 228.6336 30573.2070 -217.5715 -148.3237
ENERGY: 900000 0.1061 5.2486 8.0495 0.0000 -10828.2060 1386.4541 0.0000 0.0000 1743.0208 -7685.3270 293.3538 -9428.3478 -7666.8000 299.2839 -710.3605 -596.2380 31054.8801 -193.9721 -114.1925
ENERGY: 1200000 0.9514 5.5099 6.5600 0.0000 -10861.1753 1508.3211 0.0000 0.0000 1812.0311 -7527.8019 304.9684 -9339.8329 -7651.9118 300.5364 504.0556 573.0517 30988.4633 -166.6813 -91.5778
ENERGY: 1500000 1.1494 7.2361 8.8875 0.0000 -10878.5183 1457.4288 0.0000 0.0000 1759.4004 -7644.4162 296.1106 -9403.8166 -7646.3445 300.8535 325.0247 388.4311 30242.2248 -125.1160 -50.5190
TCL: Running FEP window  10: Lambda1 0.44999999999999996 Lambda2 0.49999999999999994 [dLambda 0.04999999999999999]
TCL: Setting parameter firsttimestep to 0
TCL: Setting parameter alchLambda to 0.44999999999999996
Info: NONBONDED TABLE R-SQUARED SPACING: 0.0625
Info: NONBONDED TABLE SIZE: 705 POINTS
TCL: Setting parameter alchLambda2 to 0.49999999999999994
Info: NONBONDED TABLE R-SQUARED SPACING: 0.0625
Info: NONBONDED TABLE SIZE: 705 POINTS
TCL: Running for 1500000 steps
ETITLE: TS BOND ANGLE DIHED IMPRP ELECT VDW BOUNDARY MISC KINETIC TOTAL TEMP POTENTIAL TOTALAVG TEMPAVG PRESSURE GPRESSURE VOLUME PRESSAVG GPRESSAVG
ENERGY: 0 1.1494 7.2361 8.8875 0.0000 -10878.5176 1457.2189 0.0000 0.0000 1758.5283 -7645.4974 295.9638 -9404.0258 -7645.4974 295.9638 318.4337 392.7101 30242.2248 318.4337 392.7101
ENERGY: 300000 1.0234 3.5533 6.8945 0.0000 -10907.4455 1411.5733 0.0000 0.0000 1799.5512 -7684.8498 302.8680 -9484.4010 -7675.9022 300.1928 -552.9313 -542.0718 30886.7125 -186.5921 -120.1470
ENERGY: 600000 1.1126 1.9434 6.4831 0.0000 -10713.0552 1347.2967 0.0000 0.0000 1798.3459 -7557.8734 302.6652 -9356.2192 -7663.0495 299.7533 -506.6049 -429.0301 30780.3974 -239.3718 -185.2659
ENERGY: 900000 0.6321 5.8255 6.9454 0.0000 -10931.3280 1406.8062 0.0000 0.0000 1787.0544 -7724.0645 300.7648 -9511.1188 -7655.0481 301.5203 -572.0031 -599.8479 30790.3265 -246.4157 -194.5368
ENERGY: 1200000 2.3187 2.9410 7.2447 0.0000 -10872.6537 1445.1488 0.0000 0.0000 1804.7825 -7610.2180 303.7485 -9415.0005 -7646.3595 300.6370 -72.1510 -22.0542 30858.5478 -175.9545 -121.6705
ENERGY: 1500000 0.9009 4.5221 7.1739 0.0000 -10877.9612 1418.1670 0.0000 0.0000 1802.0968 -7645.1004 303.2964 -9447.1973 -7649.5196 300.4321 -217.1784 -169.7338 30549.2698 -191.4661 -135.8440
TCL: Running FEP window  11: Lambda1 0.49999999999999994 Lambda2 0.5499999999999999 [dLambda 0.04999999999999999]
TCL: Setting parameter firsttimestep to 0
TCL: Setting parameter alchLambda to 0.49999999999999994
Info: NONBONDED TABLE R-SQUARED SPACING: 0.0625
Info: NONBONDED TABLE SIZE: 705 POINTS
TCL: Setting parameter alchLambda2 to 0.5499999999999999
Info: NONBONDED TABLE R-SQUARED SPACING: 0.0625
Info: NONBONDED TABLE SIZE: 705 POINTS
TCL: Running for 1500000 steps
ETITLE: TS BOND ANGLE DIHED IMPRP ELECT VDW BOUNDARY MISC KINETIC TOTAL TEMP POTENTIAL TOTALAVG TEMPAVG PRESSURE GPRESSURE VOLUME PRESSAVG GPRESSAVG
ENERGY: 0 0.9009 4.5221 7.1739 0.0000 -10877.9613 1419.2118 0.0000 0.0000 1801.2874 -7644.8653 303.1602 -9446.1527 -7644.8653 303.1602 -240.4205 -158.7798 30549.2698 -240.4205 -158.7798
ENERGY: 300000 0.2117 3.3232 7.5437 0.0000 -10958.9426 1496.4093 0.0000 0.0000 1761.7334 -7689.7213 296.5032 -9451.4547 -7645.2006 303.2638 119.9994 198.9434 30655.2589 -54.2478 19.3042
ENERGY: 600000 4.2315 7.4129 7.1438 0.0000 -11029.5935 1531.0582 0.0000 0.0000 1812.0682 -7667.6789 304.9746 -9479.7470 -7656.2357 303.6244 311.9855 366.9974 31161.8221 -119.0071 -54.0239
ENERGY: 900000 1.1726 6.8526 8.8063 0.0000 -10986.9594 1449.7344 0.0000 0.0000 1778.9881 -7741.4054 299.4072 -9520.3936 -7667.1685 302.4804 -550.6933 -405.8376 30839.5054 -242.1358 -172.9582
ENERGY: 1200000 1.0506 6.1233 7.9531 0.0000 -10808.7882 1411.8938 0.0000 0.0000 1755.8005 -7625.9668 295.5047 -9381.7673 -7665.1242 302.0792 -293.8179 -229.0701 30765.8602 -204.4734 -138.4215
ENERGY: 1500000 0.7005 4.8065 9.3339 0.0000 -10945.7539 1469.1920 0.0000 0.0000 1775.1067 -7686.6143 298.7540 -9461.7211 -7670.4120 301.1762 -45.3223 58.0416 30777.9174 -246.2808 -177.8568
TCL: Running FEP window  12: Lambda1 0.5499999999999999 Lambda2 0.6    [dLambda 0.050000000000000044]
TCL: Setting parameter firsttimestep to 0
TCL: Setting parameter alchLambda to 0.5499999999999999
Info: NONBONDED TABLE R-SQUARED SPACING: 0.0625
Info: NONBONDED TABLE SIZE: 705 POINTS
TCL: Setting parameter alchLambda2 to 0.6
Info: NONBONDED TABLE R-SQUARED SPACING: 0.0625
Info: NONBONDED TABLE SIZE: 705 POINTS
TCL: Running for 1500000 steps
ETITLE: TS BOND ANGLE DIHED IMPRP ELECT VDW BOUNDARY MISC KINETIC TOTAL TEMP POTENTIAL TOTALAVG TEMPAVG PRESSURE GPRESSURE VOLUME PRESSAVG GPRESSAVG
ENERGY: 0 0.7005 4.8065 9.3338 0.0000 -10944.7457 1469.2202 0.0000 0.0000 1774.2077 -7686.4769 298.6027 -9460.6846 -7686.4769 298.6027 -32.8227 65.6326 30777.9174 -32.8227 65.6326
ENERGY: 300000 1.2081 3.4928 7.0943 0.0000 -10830.1664 1406.8897 0.0000 0.0000 1841.6954 -7569.7861 309.9610 -9411.4816 -7602.8451 303.3612 -420.3199 -367.3467 30912.5787 -241.8779 -160.2654
ENERGY: 600000 0.6061 1.0759 9.1068 0.0000 -10928.2677 1496.8221 0.0000 0.0000 1772.3751 -7648.2817 298.2942 -9420.6568 -7643.6714 300.3706 110.9782 187.9894 31088.2967 -237.9736 -161.5908
ENERGY: 900000 0.2881 5.2241 7.7204 0.0000 -11002.4815 1531.4226 0.0000 0.0000 1810.5438 -7647.2827 304.7181 -9457.8265 -7640.1998 300.4867 508.9572 548.6102 30771.2732 -123.3863 -56.4290
ENERGY: 1200000 0.8475 4.4369 6.6222 0.0000 -10766.1072 1391.9541 0.0000 0.0000 1825.6335 -7536.6130 307.2577 -9362.2465 -7631.1621 301.1267 -461.9778 -395.5909 31302.5060 -169.6637 -105.5583
ENERGY: 1500000 0.7489 4.2831 7.3213 0.0000 -10880.6751 1480.3476 0.0000 0.0000 1784.5654 -7603.4088 300.3459 -9387.9742 -7633.6491 301.0047 474.5137 608.2561 30385.8649 -64.3451 0.0696
TCL: Running FEP window  13: Lambda1 0.6    Lambda2 0.65   [dLambda 0.050000000000000044]
TCL: Setting parameter firsttimestep to 0
TCL: Setting parameter alchLambda to 0.6
Info: NONBONDED TABLE R-SQUARED SPACING: 0.0625
Info: NONBONDED TABLE SIZE: 705 POINTS
TCL: Setting parameter alchLambda2 to 0.65
Info: NONBONDED TABLE R-SQUARED SPACING: 0.0625
Info: NONBONDED TABLE SIZE: 705 POINTS
TCL: Running for 1500000 steps
ETITLE: TS BOND ANGLE DIHED IMPRP ELECT VDW BOUNDARY MISC KINETIC TOTAL TEMP POTENTIAL TOTALAVG TEMPAVG PRESSURE GPRESSURE VOLUME PRESSAVG GPRESSAVG
ENERGY: 0 0.7489 4.2830 7.3213 0.0000 -10880.5808 1480.1743 0.0000 0.0000 1783.7036 -7604.3496 300.2008 -9388.0532 -7604.3496 300.2008 524.5778 610.9531 30385.8649 524.5778 610.9531
ENERGY: 300000 2.4452 3.2394 8.5066 0.0000 -10714.6498 1373.6942 0.0000 0.0000 1836.0168 -7490.7476 309.0052 -9326.7643 -7585.6072 301.6132 -622.6433 -503.3694 31353.9892 -504.6822 -410.0482
ENERGY: 600000 2.2668 5.8834 7.1444 0.0000 -10895.6552 1467.7418 0.0000 0.0000 1786.0542 -7626.5647 300.5964 -9412.6189 -7632.4796 299.4385 192.3985 287.8169 30725.7429 -328.6299 -254.8331
ENERGY: 900000 1.0381 2.9613 7.0720 0.0000 -10970.7752 1513.3633 0.0000 0.0000 1817.4189 -7628.9215 305.8752 -9446.3405 -7634.5425 300.0256 693.3153 749.9186 30213.9455 -156.7904 -93.5766
ENERGY: 1200000 0.5530 2.9759 8.9304 0.0000 -10880.6099 1427.1403 0.0000 0.0000 1772.1274 -7668.8829 298.2525 -9441.0103 -7638.6759 300.4260 -134.9521 -102.8244 30376.0287 -94.4427 -32.9311
ENERGY: 1500000 0.0535 0.8323 6.9376 0.0000 -10956.4414 1494.3673 0.0000 0.0000 1777.9368 -7676.3138 299.2303 -9454.2506 -7637.7136 300.4341 151.0241 222.8679 30825.6551 -5.6604 56.8022
TCL: Running FEP window  14: Lambda1 0.65   Lambda2 0.7000000000000001 [dLambda 0.050000000000000044]
TCL: Setting parameter firsttimestep to 0
TCL: Setting parameter alchLambda to 0.65
Info: NONBONDED TABLE R-SQUARED SPACING: 0.0625
Info: NONBONDED TABLE SIZE: 705 POINTS
TCL: Setting parameter alchLambda2 to 0.7000000000000001
Info: NONBONDED TABLE R-SQUARED SPACING: 0.0625
Info: NONBONDED TABLE SIZE: 705 POINTS
TCL: Running for 1500000 steps
ETITLE: TS BOND ANGLE DIHED IMPRP ELECT VDW BOUNDARY MISC KINETIC TOTAL TEMP POTENTIAL TOTALAVG TEMPAVG PRESSURE GPRESSURE VOLUME PRESSAVG GPRESSAVG
ENERGY: 0 0.0535 0.8323 6.9376 0.0000 -10957.2058 1494.3029 0.0000 0.0000 1777.0351 -7678.0443 299.0785 -9455.0793 -7678.0443 299.0785 126.6385 222.6275 30825.6551 126.6385 222.6275
ENERGY: 300000 0.2229 3.3839 6.4935 0.0000 -10862.7531 1418.4752 0.0000 0.0000 1802.3963 -7631.7811 303.3469 -9434.1774 -7631.2631 303.2412 -262.2719 -195.1109 30561.6682 57.8920 131.0434
ENERGY: 600000 1.7671 3.4631 7.9424 0.0000 -10922.6114 1480.5172 0.0000 0.0000 1762.5053 -7666.4163 296.6331 -9428.9216 -7639.1875 301.1341 223.4628 270.3859 30858.8216 8.5784 76.5077
ENERGY: 900000 0.5274 2.3671 8.2082 0.0000 -10869.3018 1431.0451 0.0000 0.0000 1791.3450 -7635.8091 301.4869 -9427.1541 -7639.6587 302.3858 -417.2550 -343.8208 31131.8349 50.0087 119.9749
ENERGY: 1200000 0.6140 1.6850 7.4966 0.0000 -10832.5176 1384.6972 0.0000 0.0000 1856.1952 -7581.8295 312.4013 -9438.0247 -7639.9990 301.2248 -461.9454 -470.5929 30970.0397 -14.9729 46.8498
ENERGY: 1500000 1.2466 3.6658 7.0587 0.0000 -10720.6254 1363.4493 0.0000 0.0000 1775.2943 -7569.9108 298.7855 -9345.2050 -7637.5349 301.2326 -585.3599 -547.3363 31267.5475 -53.9373 7.8538
TCL: Running FEP window  15: Lambda1 0.7000000000000001 Lambda2 0.7500000000000001 [dLambda 0.050000000000000044]
TCL: Setting parameter firsttimestep to 0
TCL: Setting parameter alchLambda to 0.7000000000000001
Info: NONBONDED TABLE R-SQUARED SPACING: 0.0625
Info: NONBONDED TABLE SIZE: 705 POINTS
TCL: Setting parameter alchLambda2 to 0.7500000000000001
Info: NONBONDED TABLE R-SQUARED SPACING: 0.0625
Info: NONBONDED TABLE SIZE: 705 POINTS
TCL: Running for 1500000 steps
ETITLE: TS BOND ANGLE DIHED IMPRP ELECT VDW BOUNDARY MISC KINETIC TOTAL TEMP POTENTIAL TOTALAVG TEMPAVG PRESSURE GPRESSURE VOLUME PRESSAVG GPRESSAVG
ENERGY: 0 1.2466 3.6658 7.0587 0.0000 -10721.6893 1363.5532 0.0000 0.0000 1774.4093 -7571.7557 298.6366 -9346.1650 -7571.7557 298.6366 -624.0333 -542.4289 31267.5475 -624.0333 -542.4289
ENERGY: 300000 0.3029 4.7430 7.4638 0.0000 -10948.9987 1514.3253 0.0000 0.0000 1861.6911 -7560.4725 313.3263 -9422.1637 -7644.6441 298.6173 287.1027 400.8491 30937.2410 -330.3756 -254.2098
ENERGY: 600000 1.8655 5.6512 9.2625 0.0000 -10860.5165 1390.7807 0.0000 0.0000 1779.1573 -7673.7993 299.4357 -9452.9566 -7641.3360 299.4797 -782.6869 -746.9874 31191.2946 -401.1224 -336.9918
ENERGY: 900000 0.5309 5.7498 10.0176 0.0000 -10735.9978 1371.6584 0.0000 0.0000 1725.5460 -7622.4951 290.4128 -9348.0411 -7633.5166 299.1607 -593.1491 -547.5215 30922.2472 -404.2496 -351.1297
ENERGY: 1200000 1.3074 3.8776 6.7205 0.0000 -10832.6891 1346.7199 0.0000 0.0000 1808.2039 -7665.8597 304.3243 -9474.0636 -7630.0815 299.4714 -919.3228 -897.1122 30745.4062 -346.0811 -290.5528
ENERGY: 1500000 2.0784 2.5463 7.2959 0.0000 -11103.2699 1583.1546 0.0000 0.0000 1750.5264 -7757.6683 294.6170 -9508.1947 -7632.6164 299.9706 1051.6460 1023.6576 30241.7132 -174.6405 -125.3800
TCL: Running FEP window  16: Lambda1 0.7500000000000001 Lambda2 0.8000000000000002 [dLambda 0.050000000000000044]
TCL: Setting parameter firsttimestep to 0
TCL: Setting parameter alchLambda to 0.7500000000000001
Info: NONBONDED TABLE R-SQUARED SPACING: 0.0625
Info: NONBONDED TABLE SIZE: 705 POINTS
TCL: Setting parameter alchLambda2 to 0.8000000000000002
Info: NONBONDED TABLE R-SQUARED SPACING: 0.0625
Info: NONBONDED TABLE SIZE: 705 POINTS
TCL: Running for 1500000 steps
ETITLE: TS BOND ANGLE DIHED IMPRP ELECT VDW BOUNDARY MISC KINETIC TOTAL TEMP POTENTIAL TOTALAVG TEMPAVG PRESSURE GPRESSURE VOLUME PRESSAVG GPRESSAVG
ENERGY: 0 2.0784 2.5463 7.2959 0.0000 -11104.4404 1583.4446 0.0000 0.0000 1749.6493 -7759.4259 294.4694 -9509.0753 -7759.4259 294.4694 926.4181 1027.4976 30241.7132 926.4181 1027.4976
ENERGY: 300000 3.5630 6.3727 9.0855 0.0000 -10963.7057 1455.0192 0.0000 0.0000 1802.2511 -7687.4141 303.3224 -9489.6652 -7677.9934 299.8046 -207.3346 -145.2350 30937.8897 262.0834 332.1061
ENERGY: 600000 1.1683 2.1567 8.5524 0.0000 -11026.4441 1545.5281 0.0000 0.0000 1787.2500 -7681.7887 300.7977 -9469.0387 -7684.7806 297.6626 890.4073 946.9388 30347.7686 346.3776 407.7533
ENERGY: 900000 0.2658 3.4185 7.7706 0.0000 -10948.3795 1500.3778 0.0000 0.0000 1740.9315 -7695.6153 293.0022 -9436.5467 -7683.4530 296.7714 223.2775 323.7318 30683.6769 145.1632 218.5256
ENERGY: 1200000 0.2282 3.7565 8.2423 0.0000 -10929.6371 1467.4141 0.0000 0.0000 1781.6047 -7668.3913 299.8476 -9449.9960 -7682.7366 297.2506 51.2397 63.4479 30682.8986 179.3631 253.4879
ENERGY: 1500000 0.8182 1.7602 8.8486 0.0000 -10821.1613 1439.7585 0.0000 0.0000 1765.7218 -7604.2541 297.1745 -9369.9759 -7670.7097 297.0752 -360.9298 -276.8431 31552.4524 145.6332 214.6030
TCL: Running FEP window  17: Lambda1 0.8000000000000002 Lambda2 0.8500000000000002 [dLambda 0.050000000000000044]
TCL: Setting parameter firsttimestep to 0
TCL: Setting parameter alchLambda to 0.8000000000000002
Info: NONBONDED TABLE R-SQUARED SPACING: 0.0625
Info: NONBONDED TABLE SIZE: 705 POINTS
TCL: Setting parameter alchLambda2 to 0.8500000000000002
Info: NONBONDED TABLE R-SQUARED SPACING: 0.0625
Info: NONBONDED TABLE SIZE: 705 POINTS
TCL: Running for 1500000 steps
ETITLE: TS BOND ANGLE DIHED IMPRP ELECT VDW BOUNDARY MISC KINETIC TOTAL TEMP POTENTIAL TOTALAVG TEMPAVG PRESSURE GPRESSURE VOLUME PRESSAVG GPRESSAVG
ENERGY: 0 0.8182 1.7602 8.8486 0.0000 -10823.4032 1441.0040 0.0000 0.0000 1764.8302 -7606.1420 297.0244 -9370.9722 -7606.1420 297.0244 -349.4410 -264.2829 31552.4524 -349.4410 -264.2829
ENERGY: 300000 2.4001 2.9515 9.1908 0.0000 -11020.2198 1516.2639 0.0000 0.0000 1814.6502 -7674.7632 305.4092 -9489.4135 -7649.4215 299.5225 475.3747 508.6615 30549.2748 -166.5006 -107.1863
ENERGY: 600000 2.2069 4.9509 7.3328 0.0000 -10914.4155 1500.0120 0.0000 0.0000 1781.2343 -7618.6786 299.7852 -9399.9129 -7637.9024 299.3562 240.0261 349.3556 31172.4188 71.3975 137.1249
ENERGY: 900000 1.7845 1.7599 7.7524 0.0000 -10940.3632 1436.3429 0.0000 0.0000 1764.5878 -7728.1356 296.9836 -9492.7235 -7647.8549 298.1808 -414.3538 -378.2656 30731.0980 111.8272 160.9692
ENERGY: 1200000 1.1311 2.8217 6.5516 0.0000 -10942.5509 1476.5799 0.0000 0.0000 1802.7055 -7652.7612 303.3989 -9455.4667 -7650.1599 298.7287 129.1471 129.7983 30892.8995 162.7352 214.4142
ENERGY: 1500000 1.3975 4.1548 7.9240 0.0000 -10833.8464 1396.7899 0.0000 0.0000 1774.0957 -7649.4845 298.5838 -9423.5802 -7649.5832 299.5145 -317.9114 -235.8396 30737.3685 88.0080 142.1994
TCL: Running FEP window  18: Lambda1 0.8500000000000002 Lambda2 0.9000000000000002 [dLambda 0.050000000000000044]
TCL: Setting parameter firsttimestep to 0
TCL: Setting parameter alchLambda to 0.8500000000000002
Info: NONBONDED TABLE R-SQUARED SPACING: 0.0625
Info: NONBONDED TABLE SIZE: 705 POINTS
TCL: Setting parameter alchLambda2 to 0.9000000000000002
Info: NONBONDED TABLE R-SQUARED SPACING: 0.0625
Info: NONBONDED TABLE SIZE: 705 POINTS
TCL: Running for 1500000 steps
ETITLE: TS BOND ANGLE DIHED IMPRP ELECT VDW BOUNDARY MISC KINETIC TOTAL TEMP POTENTIAL TOTALAVG TEMPAVG PRESSURE GPRESSURE VOLUME PRESSAVG GPRESSAVG
ENERGY: 0 1.3975 4.1548 7.9240 0.0000 -10836.1255 1397.1342 0.0000 0.0000 1773.2093 -7652.3058 298.4346 -9425.5151 -7652.3058 298.4346 -321.2573 -231.3140 30737.3685 -321.2573 -231.3140
ENERGY: 300000 0.4983 2.6454 7.5806 0.0000 -10864.1685 1439.7952 0.0000 0.0000 1862.2175 -7551.4315 313.4149 -9413.6490 -7626.9531 301.9281 -206.8896 -182.8836 31056.2755 -344.6963 -261.1509
ENERGY: 600000 3.0821 2.7137 7.7982 0.0000 -10896.7301 1378.7238 0.0000 0.0000 1837.7330 -7666.6793 309.2941 -9504.4123 -7662.0924 300.2098 -882.6286 -778.8665 30984.8587 -291.9754 -214.8658
ENERGY: 900000 1.3244 3.5247 6.6334 0.0000 -10915.6154 1469.0209 0.0000 0.0000 1776.4683 -7658.6435 298.9831 -9435.1118 -7663.3443 300.5877 147.4481 167.5073 30727.3288 -231.1726 -166.3930
ENERGY: 1200000 1.5371 4.0955 7.4647 0.0000 -11038.2531 1506.0218 0.0000 0.0000 1777.9036 -7741.2304 299.2247 -9519.1340 -7669.1684 300.0009 224.4302 266.3825 30560.4914 -221.0852 -164.2336
ENERGY: 1500000 3.2849 1.0643 9.3461 0.0000 -10887.8961 1431.7283 0.0000 0.0000 1809.3402 -7633.1323 304.5155 -9442.4725 -7667.6320 300.2849 -37.5951 35.0318 30575.4166 -231.8222 -173.5727
TCL: Running FEP window  19: Lambda1 0.9000000000000002 Lambda2 0.9500000000000003 [dLambda 0.050000000000000044]
TCL: Setting parameter firsttimestep to 0
TCL: Setting parameter alchLambda to 0.9000000000000002
Info: NONBONDED TABLE R-SQUARED SPACING: 0.0625
Info: NONBONDED TABLE SIZE: 705 POINTS
TCL: Setting parameter alchLambda2 to 0.9500000000000003
Info: NONBONDED TABLE R-SQUARED SPACING: 0.0625
Info: NONBONDED TABLE SIZE: 705 POINTS
TCL: Running for 1500000 steps
ETITLE: TS BOND ANGLE DIHED IMPRP ELECT VDW BOUNDARY MISC KINETIC TOTAL TEMP POTENTIAL TOTALAVG TEMPAVG PRESSURE GPRESSURE VOLUME PRESSAVG GPRESSAVG
ENERGY: 0 3.2849 1.0643 9.3461 0.0000 -10889.9675 1433.2762 0.0000 0.0000 1808.4668 -7634.5292 304.3685 -9442.9961 -7634.5292 304.3685 -38.8333 54.2741 30575.4166 -38.8333 54.2741
ENERGY: 300000 0.3109 3.6827 8.1600 0.0000 -10823.7546 1430.0350 0.0000 0.0000 1794.1115 -7587.4546 301.9525 -9381.5661 -7598.0647 301.2052 -134.5017 -62.1027 30945.8532 -95.1200 -33.8012
ENERGY: 600000 0.2369 3.5434 8.9019 0.0000 -10902.4998 1402.5076 0.0000 0.0000 1816.7701 -7670.5399 305.7660 -9487.3100 -7640.0869 300.9479 -567.8376 -437.3410 30446.0248 -207.7951 -130.4758
ENERGY: 900000 0.2553 6.6740 8.3138 0.0000 -10946.7917 1509.1199 0.0000 0.0000 1781.9854 -7640.4433 299.9117 -9422.4287 -7660.0924 299.0667 667.7238 698.6606 30284.5576 -195.7229 -123.2781
ENERGY: 1200000 3.0668 3.2823 6.8761 0.0000 -10965.2635 1546.7414 0.0000 0.0000 1789.1576 -7616.1394 301.1187 -9405.2970 -7657.8388 299.0034 831.9932 898.2921 30294.4337 -85.3316 -16.7337
ENERGY: 1500000 0.2117 1.0006 8.8493 0.0000 -11043.8059 1503.0431 0.0000 0.0000 1787.6280 -7743.0731 300.8613 -9530.7011 -7672.2394 299.4469 295.3789 345.6896 30279.0917 61.7938 124.9389
TCL: Running FEP window  20: Lambda1 0.9500000000000003 Lambda2 1.0    [dLambda 0.04999999999999971]
TCL: Setting parameter firsttimestep to 0
TCL: Setting parameter alchLambda to 0.9500000000000003
Info: NONBONDED TABLE R-SQUARED SPACING: 0.0625
Info: NONBONDED TABLE SIZE: 705 POINTS
TCL: Setting parameter alchLambda2 to 1.0
Info: NONBONDED TABLE R-SQUARED SPACING: 0.0625
Info: NONBONDED TABLE SIZE: 705 POINTS
TCL: Running for 1500000 steps
ETITLE: TS BOND ANGLE DIHED IMPRP ELECT VDW BOUNDARY MISC KINETIC TOTAL TEMP POTENTIAL TOTALAVG TEMPAVG PRESSURE GPRESSURE VOLUME PRESSAVG GPRESSAVG
ENERGY: 0 0.2117 1.0006 8.8493 0.0000 -11046.4737 1504.4475 0.0000 0.0000 1786.7323 -7745.2322 300.7106 -9531.9644 -7745.2322 300.7106 273.8681 364.7055 30279.0917 273.8681 364.7055
ENERGY: 300000 0.1175 2.4939 7.2803 0.0000 -11037.1049 1529.9233 0.0000 0.0000 1805.6725 -7691.6174 303.8982 -9497.2899 -7694.8761 298.0559 327.8439 394.5536 30830.5834 53.6774 135.4106
ENERGY: 600000 2.2097 2.1062 8.6421 0.0000 -10890.7875 1434.0397 0.0000 0.0000 1819.6879 -7624.1018 306.2571 -9443.7897 -7675.4813 299.1059 -203.1360 -132.0133 30659.6358 123.1256 194.6443
ENERGY: 900000 0.4372 2.5051 7.7242 0.0000 -10923.4399 1462.0558 0.0000 0.0000 1768.8576 -7681.8600 297.7022 -9450.7176 -7666.8644 298.9470 -146.4841 -99.2162 30959.2566 0.4360 67.4145
ENERGY: 1200000 1.0156 2.3356 7.1005 0.0000 -10825.3787 1397.1533 0.0000 0.0000 1761.7937 -7655.9800 296.5134 -9417.7737 -7669.0336 298.6933 -199.7233 -121.8021 30360.5457 -20.2307 44.3757
ENERGY: 1500000 1.4922 2.7827 7.1008 0.0000 -10912.2098 1425.5968 0.0000 0.0000 1765.2640 -7709.9733 297.0974 -9475.2373 -7657.2956 299.0930 -246.7338 -191.3536 30556.3609 -37.8009 24.4677
TCL: Exiting due to exit command.
