Info: SIMULATION PARAMETERS:
Info: TIMESTEP               2
Info: NUMBER OF STEPS        0
Info: STEPS PER CYCLE        10
Info: PERIODIC CELL BASIS 1  31.4548 0 0
Info: PERIODIC CELL BASIS 2  0 31.2573 0
Info: PERIODIC CELL BASIS 3  0 0 30.1146
Info: PERIODIC CELL CENTER   0 0 0
Info: WRAPPING WATERS AROUND PERIODIC BOUNDARIES ON OUTPUT.
Info: WRAPPING ALL CLUSTERS AROUND PERIODIC BOUNDARIES ON OUTPUT.
Info: FIRST LDB TIMESTEP     50
Info: LAST LDB TIMESTEP     -1
Info: HOM BACKGROUND SCALING 1
Info: PME BACKGROUND SCALING 1
Info: MIN ATOMS PER PATCH    40
Info: EMPTY PATCH LOAD       40 ATOMS
Info: VELOCITY FILE          mobley_8558116_equil.vel
Info: CENTER OF MASS MOVING INITIALLY? NO
Info: DIELECTRIC             1
Info: EXCLUDE                SCALED ONE-FOUR
Info: 1-4 ELECTROSTATICS SCALED BY 0.833333
Info: MODIFIED 1-4 VDW PARAMETERS WILL BE USED
Info: DCD FILENAME           mobley_8558116_prod.dcd
Info: DCD FREQUENCY          100000
Info: DCD FIRST STEP         100000
Info: DCD FILE WILL CONTAIN UNIT CELL DATA
Info: XST FILENAME           mobley_8558116_prod.xst
Info: XST FREQUENCY          100000
Info: NO VELOCITY DCD OUTPUT
Info: NO FORCE DCD OUTPUT
Info: OUTPUT FILENAME        mobley_8558116_prod
Info: BINARY OUTPUT FILES WILL BE USED
Info: RESTART FILENAME       mobley_8558116_prod.restart
Info: RESTART FREQUENCY      100000
Info: BINARY RESTART FILES WILL BE USED
Info: CUTOFF                 9
Info: PAIRLIST DISTANCE      11
Info: PAIRLIST SHRINK RATE   0.01
Info: PAIRLIST GROW RATE     0.01
Info: PAIRLIST TRIGGER       0.3
Info: PAIRLISTS PER CYCLE    2
Info: PAIRLISTS ENABLED
Info: MARGIN                 2
Info: HYDROGEN GROUP CUTOFF  2.5
Info: PATCH DIMENSION        15.5
Info: ENERGY OUTPUT STEPS    100000
Info: ENERGY EVALUATION STEPS    100000
Info: OUTPUT ENERGY PRECISION 4
Info: CROSSTERM ENERGY INCLUDED IN DIHEDRAL
Info: TIMING OUTPUT STEPS    1000000
Info: PRESSURE OUTPUT STEPS  100000
Info: ALCHEMICAL FEP ON
Info: FEP CURRENT LAMBDA VALUE     1
Info: FEP COMPARISON LAMBDA VALUE  0.95
Info: FEP INTRA-ALCHEMICAL NON-BONDED INTERACTIONS WILL BE RETAINED
Info: FEP INTRA-ALCHEMICAL BONDED INTERACTIONS WILL BE RETAINED
Info: FEP VDW SHIFTING COEFFICIENT 5
Info: FEP ELEC. ACTIVE FOR ANNIHILATED PARTICLES BETWEEN LAMBDA = 0 AND LAMBDA = 0.5
Info: FEP ELEC. ACTIVE FOR EXNIHILATED PARTICLES BETWEEN LAMBDA = 0.5 AND LAMBDA = 1
Info: FEP VDW ACTIVE FOR ANNIHILATED PARTICLES BETWEEN LAMBDA = 0 AND LAMBDA = 1
Info: FEP VDW ACTIVE FOR EXNIHILATED PARTICLES BETWEEN LAMBDA = 0 AND LAMBDA = 1
Info: FEP BOND ACTIVE FOR ANNIHILATED PARTICLES BETWEEN LAMBDA = 1 AND LAMBDA = 1
Info: FEP BOND ACTIVE FOR EXNIHILATED PARTICLES BETWEEN LAMBDA = 0 AND LAMBDA = 0
Info: LANGEVIN DYNAMICS ACTIVE
Info: LANGEVIN TEMPERATURE   300
Info: LANGEVIN USING BBK INTEGRATOR
Info: LANGEVIN DAMPING COEFFICIENT IS 1 INVERSE PS
Info: LANGEVIN DYNAMICS APPLIED TO HYDROGENS
Info: LANGEVIN PISTON PRESSURE CONTROL ACTIVE
Info:        TARGET PRESSURE IS 1.01325 BAR
Info:     OSCILLATION PERIOD IS 50 FS
Info:             DECAY TIME IS 25 FS
Info:     PISTON TEMPERATURE IS 300 K
Info:       PRESSURE CONTROL IS GROUP-BASED
Info:    INITIAL STRAIN RATE IS 0.00059263 0.00059263 0.00059263
Info:       CELL FLUCTUATION IS ISOTROPIC
Info: PARTICLE MESH EWALD (PME) ACTIVE
Info: PME TOLERANCE               1e-06
Info: PME EWALD COEFFICIENT       0.348832
Info: PME INTERPOLATION ORDER     4
Info: PME GRID DIMENSIONS         32 32 32
Info: PME MAXIMUM GRID SPACING    1
Info: PME CALCULATION WILL BE PERFORMED ON GPU
Info: FULL ELECTROSTATIC EVALUATION FREQUENCY      2
Info: USING VERLET I (r-RESPA) MTS SCHEME.
Info: C1 SPLITTING OF LONG RANGE ELECTROSTATICS
Info: PLACING ATOMS IN PATCHES BY HYDROGEN GROUPS
Info: RIGID BONDS TO HYDROGEN : ALL
Info:         ERROR TOLERANCE : 1e-08
Info:          MAX ITERATIONS : 100
Info: RIGID WATER USING SETTLE ALGORITHM
Info: RANDOM NUMBER SEED     1743615153
Info: USE HYDROGEN BONDS?    NO
Info: Using AMBER format force field!
Info: AMBER PARM FILE        mobley_8558116.prmtop
Info: COORDINATE PDB         mobley_8558116.pdb
Info: Exclusions will be read from PARM file!
Info: SCNB (VDW SCALING)     2
Info: USING ARITHMETIC MEAN TO COMBINE L-J SIGMA PARAMETERS
Info: BINARY COORDINATES     mobley_8558116_equil.coor
Info: SUMMARY OF PARAMETERS:
Info: 6 BONDS
Info: 8 ANGLES
Info:   8 HARMONIC
Info:   0 COSINE-BASED
Info: 8 DIHEDRAL
Info: 0 IMPROPER
Info: 0 CROSSTERM
Info: 0 VDW
Info: 21 VDW_PAIRS
Info: 0 NBTHOLE_PAIRS
Info: To read alchdata from file: mobley_8558116.pdb
Info: To read alchflag data from column: 5
Info: STRUCTURE SUMMARY:
Info: 2919 ATOMS
Info: 2919 BONDS
Info: 34 ANGLES
Info: 52 DIHEDRALS
Info: 0 IMPROPERS
Info: 0 CROSSTERMS
Info: 2992 EXCLUSIONS
Info: 2912 RIGID BONDS
Info: ALCH: 0 ATOMS TO DISAPPEAR IN FINAL STATE
Info: ALCH: 18 ATOMS TO APPEAR IN FINAL STATE
Info: 5845 DEGREES OF FREEDOM
Info: 974 HYDROGEN GROUPS
Info: 4 ATOMS IN LARGEST HYDROGEN GROUP
Info: 974 MIGRATION GROUPS
Info: 4 ATOMS IN LARGEST MIGRATION GROUP
Info: TOTAL MASS = 17522.6 amu
Info: TOTAL CHARGE = 0.000400033 e
Info: MASS DENSITY = 0.982747 g/cm^3
Info: ATOM DENSITY = 0.0985865 atoms/A^3
Info: ADDED 0 IMPLICIT EXCLUSIONS
Info: NONBONDED TABLE R-SQUARED SPACING: 0.0625
Info: NONBONDED TABLE SIZE: 705 POINTS
Info: REDUCING NUMBER OF PATCHES TO IMPROVE LOAD BALANCE
Info: REMOVING COM VELOCITY -0.14884 0.126942 -0.0819532
Info: Use 3D box decompostion in PME FFT.
Info: Updated CUDA force table with 4096 elements.
Info: Updated CUDA LJ table with 6 x 6 elements.
Info: Found 19 unique exclusion lists needing 48 bytes
TCL: Running for 1500000 steps
ETITLE: TS BOND ANGLE DIHED IMPRP ELECT VDW BOUNDARY MISC KINETIC TOTAL TEMP POTENTIAL TOTALAVG TEMPAVG PRESSURE GPRESSURE VOLUME PRESSAVG GPRESSAVG
ENERGY: 0 2.6347 8.6995 3.1340 0.0000 -10575.7023 1467.2860 0.0000 0.0000 1725.5273 -7368.4207 297.1171 -9093.9480 -7368.4207 297.1171 481.6587 569.3982 29608.5063 481.6587 569.3982
ENERGY: 300000 1.2850 6.1691 2.9510 0.0000 -10630.4239 1515.8447 0.0000 0.0000 1730.0458 -7374.1283 297.8952 -9104.1741 -7342.9309 298.4839 760.7555 776.9688 30011.2282 432.3638 495.2850
ENERGY: 600000 2.3366 9.6687 4.0149 0.0000 -10696.5325 1527.7735 0.0000 0.0000 1720.4779 -7432.2609 296.2477 -9152.7388 -7356.5844 298.2318 649.0934 662.6350 30178.1860 213.3499 279.3257
ENERGY: 900000 4.2061 7.1291 3.3059 0.0000 -10656.8049 1523.3166 0.0000 0.0000 1760.8237 -7358.0235 303.1948 -9118.8471 -7353.1444 298.4820 711.9946 727.5816 30069.1773 248.4166 312.3673
ENERGY: 1200000 3.5656 11.1339 3.3166 0.0000 -10598.2271 1427.1629 0.0000 0.0000 1682.2894 -7470.7588 289.6720 -9153.0482 -7360.2179 297.6679 -143.7837 -61.0228 30022.9063 131.3503 195.8325
ENERGY: 1500000 3.8029 6.7993 3.1527 0.0000 -10446.0864 1367.6775 0.0000 0.0000 1722.5442 -7342.1099 296.6035 -9064.6540 -7363.1681 297.9224 -462.2233 -365.5119 30247.2681 46.6869 111.6190
TCL: Running FEP window   2: Lambda1 0.95   Lambda2 0.8999999999999999 [dLambda -0.050000000000000044]
TCL: Setting parameter firsttimestep to 0
TCL: Setting parameter alchLambda to 0.95
Info: NONBONDED TABLE R-SQUARED SPACING: 0.0625
Info: NONBONDED TABLE SIZE: 705 POINTS
TCL: Setting parameter alchLambda2 to 0.8999999999999999
Info: NONBONDED TABLE R-SQUARED SPACING: 0.0625
Info: NONBONDED TABLE SIZE: 705 POINTS
TCL: Running for 1500000 steps
ETITLE: TS BOND ANGLE DIHED IMPRP ELECT VDW BOUNDARY MISC KINETIC TOTAL TEMP POTENTIAL TOTALAVG TEMPAVG PRESSURE GPRESSURE VOLUME PRESSAVG GPRESSAVG
ENERGY: 0 3.8029 6.7993 3.1527 0.0000 -10444.2917 1366.5932 0.0000 0.0000 1721.7005 -7342.2431 296.4582 -9063.9436 -7342.2431 296.4582 -475.7614 -388.4952 30247.2681 -475.7614 -388.4952
ENERGY: 300000 4.1091 7.1827 3.1155 0.0000 -10572.1470 1474.2651 0.0000 0.0000 1743.2000 -7340.2746 300.1602 -9083.4746 -7325.0647 300.8210 475.6964 521.4005 29991.8291 21.1806 60.5498
ENERGY: 600000 4.1486 3.6866 4.2388 0.0000 -10542.2123 1450.5052 0.0000 0.0000 1718.5231 -7361.1099 295.9111 -9079.6330 -7367.1440 296.9895 587.8094 581.6736 29823.9943 -27.5815 4.7663
ENERGY: 900000 1.3612 6.1026 2.8243 0.0000 -10535.3692 1446.5341 0.0000 0.0000 1760.3766 -7318.1703 303.1178 -9078.5470 -7363.1378 298.5217 176.4171 269.2439 30305.3701 -14.7976 31.6961
ENERGY: 1200000 2.1431 12.8485 4.2271 0.0000 -10459.9210 1353.0057 0.0000 0.0000 1728.2367 -7359.4599 297.5837 -9087.6966 -7365.0578 298.8765 -627.2370 -540.9577 30464.4274 -91.8550 -45.7032
ENERGY: 1500000 2.7259 6.0521 3.2429 0.0000 -10634.8933 1481.7050 0.0000 0.0000 1741.6066 -7399.5608 299.8858 -9141.1674 -7364.2975 298.8672 652.5395 660.5211 29479.2162 75.1604 115.8326
TCL: Running FEP window   3: Lambda1 0.8999999999999999 Lambda2 0.8499999999999999 [dLambda -0.050000000000000044]
TCL: Setting parameter firsttimestep to 0
TCL: Setting parameter alchLambda to 0.8999999999999999
Info: NONBONDED TABLE R-SQUARED SPACING: 0.0625
Info: NONBONDED TABLE SIZE: 705 POINTS
TCL: Setting parameter alchLambda2 to 0.8499999999999999
Info: NONBONDED TABLE R-SQUARED SPACING: 0.0625
Info: NONBONDED TABLE SIZE: 705 POINTS
TCL: Running for 1500000 steps
ETITLE: TS BOND ANGLE DIHED IMPRP ELECT VDW BOUNDARY MISC KINETIC TOTAL TEMP POTENTIAL TOTALAVG TEMPAVG PRESSURE GPRESSURE VOLUME PRESSAVG GPRESSAVG
ENERGY: 0 2.7259 6.0521 3.2429 0.0000 -10632.8597 1480.9746 0.0000 0.0000 1740.7082 -7399.1561 299.7311 -9139.8642 -7399.1561 299.7311 563.6339 643.8901 29479.2162 563.6339 643.8901
ENERGY: 300000 2.6251 9.8059 4.3730 0.0000 -10412.9715 1319.5374 0.0000 0.0000 1748.5745 -7328.0554 301.0856 -9076.6300 -7345.9495 301.0972 -922.9648 -889.9553 30484.1841 -572.1716 -506.3312
ENERGY: 600000 3.6946 11.6668 4.0424 0.0000 -10517.4571 1428.1705 0.0000 0.0000 1769.5599 -7300.3231 304.6991 -9069.8830 -7342.4149 303.6568 107.8922 170.9729 30148.0640 -288.7477 -217.1993
ENERGY: 900000 2.4084 9.4169 3.8430 0.0000 -10435.7756 1397.6200 0.0000 0.0000 1747.9739 -7274.5135 300.9822 -9022.4873 -7354.0326 302.0347 -34.6060 61.3465 30188.8790 -381.7547 -315.5617
ENERGY: 1200000 1.0935 12.0335 4.0177 0.0000 -10492.1487 1369.7232 0.0000 0.0000 1731.1799 -7374.1009 298.0905 -9105.2807 -7355.8076 301.2667 -466.5567 -385.8983 29889.8967 -320.3327 -268.1324
ENERGY: 1500000 1.8733 6.3499 2.8908 0.0000 -10574.3654 1465.7013 0.0000 0.0000 1730.6092 -7366.9409 297.9922 -9097.5500 -7356.8632 301.2263 286.8136 336.1697 30397.6237 -183.9939 -134.8528
TCL: Running FEP window   4: Lambda1 0.8499999999999999 Lambda2 0.7999999999999998 [dLambda -0.050000000000000044]
TCL: Setting parameter firsttimestep to 0
TCL: Setting parameter alchLambda to 0.8499999999999999
Info: NONBONDED TABLE R-SQUARED SPACING: 0.0625
Info: NONBONDED TABLE SIZE: 705 POINTS
TCL: Setting parameter alchLambda2 to 0.7999999999999998
Info: NONBONDED TABLE R-SQUARED SPACING: 0.0625
Info: NONBONDED TABLE SIZE: 705 POINTS
TCL: Running for 1500000 steps
ETITLE: TS BOND ANGLE DIHED IMPRP ELECT VDW BOUNDARY MISC KINETIC TOTAL TEMP POTENTIAL TOTALAVG TEMPAVG PRESSURE GPRESSURE VOLUME PRESSAVG GPRESSAVG
ENERGY: 0 1.8733 6.3499 2.8908 0.0000 -10573.2410 1465.7355 0.0000 0.0000 1729.7478 -7366.6437 297.8439 -9096.3914 -7366.6437 297.8439 243.0066 326.1378 30397.6237 243.0066 326.1378
ENERGY: 300000 4.5849 9.4929 2.9361 0.0000 -10601.0676 1462.7943 0.0000 0.0000 1797.2057 -7324.0537 309.4594 -9121.2594 -7384.6211 298.5378 409.9779 498.5424 29907.6084 182.5078 281.9550
ENERGY: 600000 1.6575 9.7172 3.3324 0.0000 -10622.1388 1421.1337 0.0000 0.0000 1746.9245 -7439.3735 300.8015 -9186.2980 -7380.2227 301.1041 -161.4886 -141.3456 29787.7033 22.5385 104.2266
ENERGY: 900000 1.4322 8.1814 4.2992 0.0000 -10598.4988 1426.3311 0.0000 0.0000 1703.7725 -7454.4824 293.3712 -9158.2549 -7375.0082 300.1431 34.2989 69.9158 29759.4042 12.8623 92.9392
ENERGY: 1200000 1.3447 7.5709 3.5580 0.0000 -10334.3693 1263.4833 0.0000 0.0000 1825.0017 -7233.4107 314.2456 -9058.4124 -7357.1918 302.2861 -903.5531 -903.4135 30285.1127 -19.7320 45.0593
ENERGY: 1500000 1.3545 7.5074 2.6477 0.0000 -10514.6860 1440.0986 0.0000 0.0000 1657.0928 -7405.9851 285.3335 -9063.0779 -7353.6191 301.0953 275.3443 362.4205 30154.8674 -11.3940 53.7168
TCL: Running FEP window   5: Lambda1 0.7999999999999998 Lambda2 0.7499999999999998 [dLambda -0.050000000000000044]
TCL: Setting parameter firsttimestep to 0
TCL: Setting parameter alchLambda to 0.7999999999999998
Info: NONBONDED TABLE R-SQUARED SPACING: 0.0625
Info: NONBONDED TABLE SIZE: 705 POINTS
TCL: Setting parameter alchLambda2 to 0.7499999999999998
Info: NONBONDED TABLE R-SQUARED SPACING: 0.0625
Info: NONBONDED TABLE SIZE: 705 POINTS
TCL: Running for 1500000 steps
ETITLE: TS BOND ANGLE DIHED IMPRP ELECT VDW BOUNDARY MISC KINETIC TOTAL TEMP POTENTIAL TOTALAVG TEMPAVG PRESSURE GPRESSURE VOLUME PRESSAVG GPRESSAVG
ENERGY: 0 1.3545 7.5074 2.6477 0.0000 -10513.1739 1439.7134 0.0000 0.0000 1656.2194 -7405.7316 285.1831 -9061.9509 -7405.7316 285.1831 273.3617 349.4592 30154.8674 273.3617 349.4592
ENERGY: 300000 1.2850 8.8190 3.8595 0.0000 -10466.6166 1343.7196 0.0000 0.0000 1709.8754 -7399.0582 294.4220 -9108.9335 -7392.4836 293.9398 -682.0895 -619.5617 30166.5707 186.3366 249.5775
ENERGY: 600000 3.7673 10.5369 3.8098 0.0000 -10426.0428 1325.2696 0.0000 0.0000 1744.2025 -7338.4566 300.3328 -9082.6591 -7376.5918 296.7536 -635.8090 -571.5216 30007.4140 25.5317 78.0806
ENERGY: 900000 0.5231 9.5246 3.0276 0.0000 -10522.8086 1426.6089 0.0000 0.0000 1765.0371 -7318.0874 303.9203 -9083.1245 -7358.7664 298.7341 125.8037 170.3233 30249.5032 35.6318 92.3899
ENERGY: 1200000 2.0611 9.2105 3.0353 0.0000 -10391.9552 1356.0424 0.0000 0.0000 1730.7260 -7290.8798 298.0123 -9021.6058 -7349.7460 298.6501 -416.3230 -315.4942 30126.1752 -51.2017 8.4606
ENERGY: 1500000 1.4298 6.1558 3.1813 0.0000 -10565.8460 1447.1478 0.0000 0.0000 1711.7283 -7396.2031 294.7411 -9107.9314 -7350.4688 298.7447 208.9935 325.4045 29614.6203 -24.9721 40.2137
TCL: Running FEP window   6: Lambda1 0.7499999999999998 Lambda2 0.6999999999999997 [dLambda -0.050000000000000044]
TCL: Setting parameter firsttimestep to 0
TCL: Setting parameter alchLambda to 0.7499999999999998
Info: NONBONDED TABLE R-SQUARED SPACING: 0.0625
Info: NONBONDED TABLE SIZE: 705 POINTS
TCL: Setting parameter alchLambda2 to 0.6999999999999997
Info: NONBONDED TABLE R-SQUARED SPACING: 0.0625
Info: NONBONDED TABLE SIZE: 705 POINTS
TCL: Running for 1500000 steps
ETITLE: TS BOND ANGLE DIHED IMPRP ELECT VDW BOUNDARY MISC KINETIC TOTAL TEMP POTENTIAL TOTALAVG TEMPAVG PRESSURE GPRESSURE VOLUME PRESSAVG GPRESSAVG
ENERGY: 0 1.4298 6.1558 3.1813 0.0000 -10564.2419 1446.8710 0.0000 0.0000 1710.8736 -7395.7304 294.5939 -9106.6040 -7395.7304 294.5939 226.0128 313.7780 29614.6203 226.0128 313.7780
ENERGY: 300000 2.8253 7.7276 3.7051 0.0000 -10507.7962 1352.8633 0.0000 0.0000 1745.0525 -7395.6223 300.4792 -9140.6749 -7377.1607 297.1218 -913.3711 -803.1112 30325.0362 -144.1889 -70.8807
ENERGY: 600000 1.2842 10.6638 3.9013 0.0000 -10369.5368 1337.2423 0.0000 0.0000 1722.8706 -7293.5746 296.6597 -9016.4452 -7361.2291 297.7636 -639.4177 -680.1287 30577.4445 -143.1569 -86.3171
ENERGY: 900000 3.3884 8.1185 3.0521 0.0000 -10616.9140 1457.7600 0.0000 0.0000 1786.4538 -7358.1412 307.6080 -9144.5950 -7351.7373 299.9588 94.9956 141.8185 30283.0520 -91.0274 -35.4459
ENERGY: 1200000 4.6435 6.2451 3.7531 0.0000 -10581.9654 1448.0793 0.0000 0.0000 1745.6634 -7373.5810 300.5844 -9119.2445 -7362.3142 298.9365 263.3925 298.3732 29703.4343 -115.8183 -59.4205
ENERGY: 1500000 3.4091 9.5308 2.9661 0.0000 -10603.0262 1466.6778 0.0000 0.0000 1734.1248 -7386.3175 298.5975 -9120.4424 -7366.7912 298.7126 379.7422 427.9502 29839.2449 -67.5383 -11.6139
TCL: Running FEP window   7: Lambda1 0.6999999999999997 Lambda2 0.6499999999999997 [dLambda -0.050000000000000044]
TCL: Setting parameter firsttimestep to 0
TCL: Setting parameter alchLambda to 0.6999999999999997
Info: NONBONDED TABLE R-SQUARED SPACING: 0.0625
Info: NONBONDED TABLE SIZE: 705 POINTS
TCL: Setting parameter alchLambda2 to 0.6499999999999997
Info: NONBONDED TABLE R-SQUARED SPACING: 0.0625
Info: NONBONDED TABLE SIZE: 705 POINTS
TCL: Running for 1500000 steps
ETITLE: TS BOND ANGLE DIHED IMPRP ELECT VDW BOUNDARY MISC KINETIC TOTAL TEMP POTENTIAL TOTALAVG TEMPAVG PRESSURE GPRESSURE VOLUME PRESSAVG GPRESSAVG
ENERGY: 0 3.4091 9.5308 2.9661 0.0000 -10601.1402 1466.1212 0.0000 0.0000 1733.2667 -7385.8463 298.4498 -9119.1130 -7385.8463 298.4498 330.4484 415.2343 29839.2449 330.4484 415.2343
ENERGY: 300000 4.4771 10.6251 4.3978 0.0000 -10485.6191 1385.5501 0.0000 0.0000 1745.0708 -7335.4983 300.4823 -9080.5691 -7395.0370 297.4518 -516.3532 -459.1759 30361.9221 -172.3312 -78.3963
ENERGY: 600000 1.9287 7.8907 3.3030 0.0000 -10523.8227 1453.9376 0.0000 0.0000 1738.9699 -7317.7928 299.4318 -9056.7627 -7370.1016 298.1787 258.0818 309.5376 30426.4492 -18.5795 68.0564
ENERGY: 900000 3.3660 9.6084 3.6663 0.0000 -10568.2299 1457.0185 0.0000 0.0000 1738.0755 -7356.4953 299.2778 -9094.5707 -7378.0977 297.4079 367.0734 431.0670 29858.0749 -20.7812 62.3561
ENERGY: 1200000 1.4720 8.2660 3.1033 0.0000 -10565.2399 1433.8295 0.0000 0.0000 1739.1763 -7379.3928 299.4673 -9118.5691 -7373.1192 298.5435 -71.2528 15.2926 30022.8919 -54.6254 21.2423
ENERGY: 1500000 3.2586 6.6312 3.5892 0.0000 -10584.5702 1457.2740 0.0000 0.0000 1773.9563 -7339.8609 305.4561 -9113.8172 -7357.2077 299.5556 235.0814 289.3441 29913.4168 -111.5970 -38.2852
TCL: Running FEP window   8: Lambda1 0.6499999999999997 Lambda2 0.5999999999999996 [dLambda -0.050000000000000044]
TCL: Setting parameter firsttimestep to 0
TCL: Setting parameter alchLambda to 0.6499999999999997
Info: NONBONDED TABLE R-SQUARED SPACING: 0.0625
Info: NONBONDED TABLE SIZE: 705 POINTS
TCL: Setting parameter alchLambda2 to 0.5999999999999996
Info: NONBONDED TABLE R-SQUARED SPACING: 0.0625
Info: NONBONDED TABLE SIZE: 705 POINTS
TCL: Running for 1500000 steps
ETITLE: TS BOND ANGLE DIHED IMPRP ELECT VDW BOUNDARY MISC KINETIC TOTAL TEMP POTENTIAL TOTALAVG TEMPAVG PRESSURE GPRESSURE VOLUME PRESSAVG GPRESSAVG
ENERGY: 0 3.2586 6.6312 3.5892 0.0000 -10584.3612 1457.4664 0.0000 0.0000 1773.1240 -7340.2918 305.3128 -9113.4158 -7340.2918 305.3128 202.8295 280.2934 29913.4168 202.8295 280.2934
ENERGY: 300000 1.5804 7.8772 4.4065 0.0000 -10402.1868 1296.4428 0.0000 0.0000 1686.4471 -7405.4328 290.3879 -9091.8799 -7333.4441 301.1845 -878.6870 -824.2257 29883.8714 -281.0114 -203.6175
ENERGY: 600000 1.1415 9.8751 4.0974 0.0000 -10524.8935 1440.1175 0.0000 0.0000 1733.2914 -7336.3705 298.4540 -9069.6619 -7326.7112 299.4168 285.6599 329.8410 29953.0235 -383.8450 -315.0905
ENERGY: 900000 2.9688 7.0583 3.7694 0.0000 -10574.4957 1394.8078 0.0000 0.0000 1812.2028 -7353.6887 312.0417 -9165.8914 -7336.1794 299.9501 -434.9539 -391.8182 30092.3455 -262.2131 -197.2870
ENERGY: 1200000 2.2611 6.3830 3.9594 0.0000 -10605.9621 1465.0631 0.0000 0.0000 1789.3266 -7338.9689 308.1027 -9128.2956 -7333.5298 300.8598 138.5554 155.0316 30253.9553 -220.7977 -158.0466
ENERGY: 1500000 2.3500 9.4540 3.4498 0.0000 -10577.7005 1401.6939 0.0000 0.0000 1778.3615 -7382.3914 306.2146 -9160.7528 -7345.7719 301.3371 -391.3921 -356.8809 30169.7031 -240.5182 -180.0764
TCL: Running FEP window   9: Lambda1 0.5999999999999996 Lambda2 0.5499999999999996 [dLambda -0.050000000000000044]
TCL: Setting parameter firsttimestep to 0
TCL: Setting parameter alchLambda to 0.5999999999999996
Info: NONBONDED TABLE R-SQUARED SPACING: 0.0625
Info: NONBONDED TABLE SIZE: 705 POINTS
TCL: Setting parameter alchLambda2 to 0.5499999999999996
Info: NONBONDED TABLE R-SQUARED SPACING: 0.0625
Info: NONBONDED TABLE SIZE: 705 POINTS
TCL: Running for 1500000 steps
ETITLE: TS BOND ANGLE DIHED IMPRP ELECT VDW BOUNDARY MISC KINETIC TOTAL TEMP POTENTIAL TOTALAVG TEMPAVG PRESSURE GPRESSURE VOLUME PRESSAVG GPRESSAVG
ENERGY: 0 2.3500 9.4540 3.4498 0.0000 -10577.2723 1402.2635 0.0000 0.0000 1777.4635 -7382.2914 306.0600 -9159.7550 -7382.2914 306.0600 -433.7827 -355.3805 30169.7031 -433.7827 -355.3805
ENERGY: 300000 4.1186 5.9778 3.3050 0.0000 -10648.0983 1492.8568 0.0000 0.0000 1730.7896 -7411.0505 298.0232 -9141.8400 -7380.2476 301.1676 451.5465 572.0280 29800.7619 149.2135 258.8868
ENERGY: 600000 1.5942 7.3982 2.9476 0.0000 -10397.5150 1323.7702 0.0000 0.0000 1795.7808 -7266.0240 309.2140 -9061.8048 -7344.1275 301.3269 -705.1650 -656.5272 30337.3542 -59.4108 28.8564
ENERGY: 900000 5.3500 8.3327 3.5812 0.0000 -10556.2306 1471.3905 0.0000 0.0000 1746.1151 -7321.4612 300.6621 -9067.5763 -7339.9848 300.7434 182.9385 210.0510 30353.6379 -55.2451 18.2979
ENERGY: 1200000 4.6711 4.8028 2.7275 0.0000 -10507.7154 1459.6889 0.0000 0.0000 1810.1365 -7225.6886 311.6859 -9035.8252 -7331.5528 301.7933 420.0512 467.9964 29891.4903 -41.4172 34.1124
ENERGY: 1500000 4.1640 6.8461 2.5611 0.0000 -10647.2788 1496.0298 0.0000 0.0000 1781.1658 -7356.5120 306.6975 -9137.6778 -7328.8684 302.4770 508.3388 562.1005 29729.6885 17.5624 94.1922
TCL: Running FEP window  10: Lambda1 0.5499999999999996 Lambda2 0.4999999999999996 [dLambda -0.04999999999999999]
TCL: Setting parameter firsttimestep to 0
TCL: Setting parameter alchLambda to 0.5499999999999996
Info: NONBONDED TABLE R-SQUARED SPACING: 0.0625
Info: NONBONDED TABLE SIZE: 705 POINTS
TCL: Setting parameter alchLambda2 to 0.4999999999999996
Info: NONBONDED TABLE R-SQUARED SPACING: 0.0625
Info: NONBONDED TABLE SIZE: 705 POINTS
TCL: Running for 1500000 steps
ETITLE: TS BOND ANGLE DIHED IMPRP ELECT VDW BOUNDARY MISC KINETIC TOTAL TEMP POTENTIAL TOTALAVG TEMPAVG PRESSURE GPRESSURE VOLUME PRESSAVG GPRESSAVG
ENERGY: 0 4.1640 6.8461 2.5611 0.0000 -10646.9971 1496.1030 0.0000 0.0000 1780.2818 -7357.0412 306.5453 -9137.3230 -7357.0412 306.5453 477.8183 557.0745 29729.6885 477.8183 557.0745
ENERGY: 300000 4.3359 8.1331 3.1685 0.0000 -10548.3172 1449.3036 0.0000 0.0000 1725.5258 -7357.8504 297.1169 -9083.3761 -7364.4144 303.1770 175.2730 234.4340 30152.7634 137.3953 188.4415
ENERGY: 600000 5.6982 7.0105 3.0204 0.0000 -10477.0494 1412.4709 0.0000 0.0000 1775.3435 -7273.5059 305.6949 -9048.8494 -7339.9196 304.4671 -43.5116 36.4694 29995.5100 -125.3635 -58.8164
ENERGY: 900000 3.1208 15.1397 4.0425 0.0000 -10531.3975 1414.3253 0.0000 0.0000 1748.1582 -7346.6109 301.0139 -9094.7692 -7336.2617 303.0145 -368.1440 -270.5876 30237.0758 -223.6468 -150.8325
ENERGY: 1200000 3.6944 4.3927 2.9729 0.0000 -10449.5886 1384.7548 0.0000 0.0000 1773.0251 -7280.7488 305.2957 -9053.7739 -7349.1992 302.1636 -260.4582 -221.2842 30306.8464 -212.4132 -147.4422
ENERGY: 1500000 2.4702 8.8553 2.7120 0.0000 -10422.9743 1341.6706 0.0000 0.0000 1698.2476 -7369.0184 292.4199 -9067.2660 -7348.0657 300.3967 -343.8271 -306.1535 29784.0166 -239.4387 -172.9074
TCL: Running FEP window  11: Lambda1 0.4999999999999996 Lambda2 0.4499999999999996 [dLambda -0.04999999999999999]
TCL: Setting parameter firsttimestep to 0
TCL: Setting parameter alchLambda to 0.4999999999999996
Info: NONBONDED TABLE R-SQUARED SPACING: 0.0625
Info: NONBONDED TABLE SIZE: 705 POINTS
TCL: Setting parameter alchLambda2 to 0.4499999999999996
Info: NONBONDED TABLE R-SQUARED SPACING: 0.0625
Info: NONBONDED TABLE SIZE: 705 POINTS
TCL: Running for 1500000 steps
ETITLE: TS BOND ANGLE DIHED IMPRP ELECT VDW BOUNDARY MISC KINETIC TOTAL TEMP POTENTIAL TOTALAVG TEMPAVG PRESSURE GPRESSURE VOLUME PRESSAVG GPRESSAVG
ENERGY: 0 2.4702 8.8553 2.7120 0.0000 -10423.0645 1342.1044 0.0000 0.0000 1697.4150 -7369.5075 292.2765 -9066.9225 -7369.5075 292.2765 -392.3379 -306.6666 29784.0166 -392.3379 -306.6666
ENERGY: 300000 1.9452 8.2580 3.0921 0.0000 -10616.5690 1454.4335 0.0000 0.0000 1680.6694 -7468.1708 289.3931 -9148.8402 -7346.5589 299.3330 290.5194 357.0188 29642.0364 13.8428 66.1615
ENERGY: 600000 1.0552 8.1686 3.2478 0.0000 -10560.6669 1412.1530 0.0000 0.0000 1810.0629 -7325.9794 311.6733 -9136.0423 -7349.7425 300.0534 -21.9007 -20.1259 29853.2687 96.3036 119.7462
ENERGY: 900000 2.3646 9.1553 3.6814 0.0000 -10500.6295 1413.4589 0.0000 0.0000 1799.0280 -7272.9413 309.7732 -9071.9693 -7345.7128 299.0283 -215.4527 -98.6542 30189.8489 21.5195 66.9959
ENERGY: 1200000 5.3485 6.4635 3.2831 0.0000 -10438.8952 1334.3823 0.0000 0.0000 1742.9200 -7346.4978 300.1120 -9089.4179 -7338.1020 299.8454 -1027.7521 -923.8035 30309.3105 -40.3524 13.9612
ENERGY: 1500000 2.2475 8.7362 3.1054 0.0000 -10478.2756 1351.5538 0.0000 0.0000 1742.2844 -7370.3484 300.0025 -9112.6327 -7351.8045 299.2615 -1049.7470 -1016.9006 30552.7291 -79.2919 -25.6524
TCL: Running FEP window  12: Lambda1 0.4499999999999996 Lambda2 0.39999999999999963 [dLambda -0.04999999999999999]
TCL: Setting parameter firsttimestep to 0
TCL: Setting parameter alchLambda to 0.4499999999999996
Info: NONBONDED TABLE R-SQUARED SPACING: 0.0625
Info: NONBONDED TABLE SIZE: 705 POINTS
TCL: Setting parameter alchLambda2 to 0.39999999999999963
Info: NONBONDED TABLE R-SQUARED SPACING: 0.0625
Info: NONBONDED TABLE SIZE: 705 POINTS
TCL: Running for 1500000 steps
ETITLE: TS BOND ANGLE DIHED IMPRP ELECT VDW BOUNDARY MISC KINETIC TOTAL TEMP POTENTIAL TOTALAVG TEMPAVG PRESSURE GPRESSURE VOLUME PRESSAVG GPRESSAVG
ENERGY: 0 2.2475 8.7362 3.1054 0.0000 -10478.2757 1351.2037 0.0000 0.0000 1741.4018 -7371.5810 299.8506 -9112.9829 -7371.5810 299.8506 -1103.5405 -1024.6235 30552.7291 -1103.5405 -1024.6235
ENERGY: 300000 0.4566 7.0679 2.9696 0.0000 -10542.4183 1473.5053 0.0000 0.0000 1738.8469 -7319.5719 299.4106 -9058.4189 -7287.2932 303.0951 627.6949 680.2686 29824.7284 -128.2103 -82.9103
ENERGY: 600000 3.8365 6.3281 2.7425 0.0000 -10475.9023 1409.1313 0.0000 0.0000 1707.3571 -7346.5069 293.9884 -9053.8640 -7315.0528 301.4409 -191.5857 -110.1373 30129.2479 -204.1297 -140.3332
ENERGY: 900000 3.0962 7.3839 3.5939 0.0000 -10552.3660 1428.7104 0.0000 0.0000 1689.3114 -7420.2702 290.8811 -9109.5815 -7328.0667 300.3354 42.3348 172.0425 29720.1467 -128.8689 -54.8580
ENERGY: 1200000 0.8839 7.2319 5.2746 0.0000 -10619.6840 1427.1109 0.0000 0.0000 1741.6616 -7437.5211 299.8953 -9179.1827 -7338.9022 300.1886 34.1524 42.1934 29685.1308 -11.2484 53.9831
ENERGY: 1500000 3.9395 8.4087 3.3618 0.0000 -10543.2176 1370.8647 0.0000 0.0000 1724.2277 -7432.4152 296.8934 -9156.6429 -7346.5496 300.2962 -327.3097 -270.9730 29436.8729 -44.2767 16.2326
TCL: Running FEP window  13: Lambda1 0.39999999999999963 Lambda2 0.34999999999999964 [dLambda -0.04999999999999999]
TCL: Setting parameter firsttimestep to 0
TCL: Setting parameter alchLambda to 0.39999999999999963
Info: NONBONDED TABLE R-SQUARED SPACING: 0.0625
Info: NONBONDED TABLE SIZE: 705 POINTS
TCL: Setting parameter alchLambda2 to 0.34999999999999964
Info: NONBONDED TABLE R-SQUARED SPACING: 0.0625
Info: NONBONDED TABLE SIZE: 705 POINTS
TCL: Running for 1500000 steps
ETITLE: TS BOND ANGLE DIHED IMPRP ELECT VDW BOUNDARY MISC KINETIC TOTAL TEMP POTENTIAL TOTALAVG TEMPAVG PRESSURE GPRESSURE VOLUME PRESSAVG GPRESSAVG
ENERGY: 0 3.9395 8.4087 3.3618 0.0000 -10543.2188 1371.0181 0.0000 0.0000 1723.3585 -7433.1323 296.7437 -9156.4907 -7433.1323 296.7437 -362.2526 -276.7655 29436.8729 -362.2526 -276.7655
ENERGY: 300000 2.1616 9.5035 4.1185 0.0000 -10465.5654 1378.9053 0.0000 0.0000 1737.2021 -7333.6745 299.1274 -9070.8766 -7350.1992 298.8758 -378.3131 -305.0654 30203.8359 -147.2586 -76.7764
ENERGY: 600000 3.7095 9.6360 3.4862 0.0000 -10494.8807 1455.0144 0.0000 0.0000 1777.9501 -7245.0844 306.1438 -9023.0345 -7319.5281 300.2729 268.0008 310.6528 30243.6802 -175.0127 -111.8038
ENERGY: 900000 1.3768 7.1561 4.7932 0.0000 -10493.3795 1398.8339 0.0000 0.0000 1757.5895 -7323.6299 302.6379 -9081.2195 -7329.7096 300.5416 192.4116 219.0195 29494.9697 -161.2425 -103.4113
ENERGY: 1200000 3.8320 7.0281 3.4287 0.0000 -10621.8096 1494.2096 0.0000 0.0000 1761.3738 -7351.9374 303.2895 -9113.3112 -7336.3462 299.8630 642.7843 735.9328 29552.3161 -153.8312 -90.7172
ENERGY: 1500000 1.8891 6.3302 3.3842 0.0000 -10463.1608 1399.8516 0.0000 0.0000 1799.3470 -7252.3588 309.8281 -9051.7058 -7341.8144 299.9429 -130.3301 -60.5327 30277.0142 -68.5669 -5.8680
TCL: Running FEP window  14: Lambda1 0.34999999999999964 Lambda2 0.29999999999999966 [dLambda -0.04999999999999999]
TCL: Setting parameter firsttimestep to 0
TCL: Setting parameter alchLambda to 0.34999999999999964
Info: NONBONDED TABLE R-SQUARED SPACING: 0.0625
Info: NONBONDED TABLE SIZE: 705 POINTS
TCL: Setting parameter alchLambda2 to 0.29999999999999966
Info: NONBONDED TABLE R-SQUARED SPACING: 0.0625
Info: NONBONDED TABLE SIZE: 705 POINTS
TCL: Running for 1500000 steps
ETITLE: TS BOND ANGLE DIHED IMPRP ELECT VDW BOUNDARY MISC KINETIC TOTAL TEMP POTENTIAL TOTALAVG TEMPAVG PRESSURE GPRESSURE VOLUME PRESSAVG GPRESSAVG
ENERGY: 0 1.8891 6.3302 3.3842 0.0000 -10463.1609 1400.2731 0.0000 0.0000 1798.4862 -7252.7981 309.6799 -9051.2843 -7252.7981 309.6799 -147.3731 -59.9566 30277.0142 -147.3731 -59.9566
ENERGY: 300000 3.6785 5.3073 3.4113 0.0000 -10369.8584 1295.9159 0.0000 0.0000 1774.5279 -7287.0176 305.5545 -9061.5455 -7331.2433 302.1152 -919.7447 -868.8531 30280.4471 -226.4222 -157.0633
ENERGY: 600000 1.3684 5.3507 4.2686 0.0000 -10597.2288 1436.7443 0.0000 0.0000 1743.8529 -7405.6439 300.2726 -9149.4968 -7327.9264 303.6955 156.1515 206.8438 29627.2827 11.7415 74.8526
ENERGY: 900000 3.6097 6.0580 3.1759 0.0000 -10499.0475 1382.3859 0.0000 0.0000 1750.2490 -7353.5690 301.3739 -9103.8180 -7319.9346 303.6308 -359.7143 -238.8070 29589.9936 -90.5042 -21.4937
ENERGY: 1200000 2.9356 12.1676 3.3153 0.0000 -10583.7396 1488.5793 0.0000 0.0000 1727.0695 -7349.6723 297.3827 -9076.7418 -7338.1970 302.1065 606.2619 629.7019 29970.7362 -10.6513 47.8580
ENERGY: 1500000 1.9757 11.2696 3.0920 0.0000 -10527.9562 1437.6763 0.0000 0.0000 1765.3938 -7308.5488 303.9817 -9073.9426 -7337.5266 301.1180 380.4117 402.0136 29650.5762 -48.2132 11.4198
TCL: Running FEP window  15: Lambda1 0.29999999999999966 Lambda2 0.24999999999999967 [dLambda -0.04999999999999999]
TCL: Setting parameter firsttimestep to 0
TCL: Setting parameter alchLambda to 0.29999999999999966
Info: NONBONDED TABLE R-SQUARED SPACING: 0.0625
Info: NONBONDED TABLE SIZE: 705 POINTS
TCL: Setting parameter alchLambda2 to 0.24999999999999967
Info: NONBONDED TABLE R-SQUARED SPACING: 0.0625
Info: NONBONDED TABLE SIZE: 705 POINTS
TCL: Running for 1500000 steps
ETITLE: TS BOND ANGLE DIHED IMPRP ELECT VDW BOUNDARY MISC KINETIC TOTAL TEMP POTENTIAL TOTALAVG TEMPAVG PRESSURE GPRESSURE VOLUME PRESSAVG GPRESSAVG
ENERGY: 0 1.9757 11.2696 3.0920 0.0000 -10527.9568 1437.7795 0.0000 0.0000 1764.5164 -7309.3236 303.8306 -9073.8400 -7309.3236 303.8306 306.3650 397.2497 29650.5762 306.3650 397.2497
ENERGY: 300000 2.5702 10.2104 3.0003 0.0000 -10346.9855 1323.1289 0.0000 0.0000 1774.9836 -7233.0921 305.6330 -9008.0757 -7277.1819 303.7178 -738.7796 -649.3782 30241.4243 -255.5839 -155.6992
ENERGY: 600000 5.5254 10.2329 3.2704 0.0000 -10460.0125 1427.7543 0.0000 0.0000 1700.2051 -7313.0246 292.7569 -9013.2297 -7294.2017 299.6404 297.0719 330.3642 29875.3480 -153.6541 -65.9428
ENERGY: 900000 2.2645 6.9515 3.7012 0.0000 -10562.0546 1469.4704 0.0000 0.0000 1720.4217 -7359.2453 296.2380 -9079.6670 -7314.1541 299.0843 369.2377 466.0395 29774.0723 -146.2749 -54.7965
ENERGY: 1200000 3.2419 9.4781 3.9277 0.0000 -10628.7621 1443.6846 0.0000 0.0000 1723.3787 -7445.0511 296.7472 -9168.4298 -7337.3117 298.4117 -316.1149 -262.2519 29973.6619 -125.0454 -44.4324
ENERGY: 1500000 4.4737 10.0270 3.4192 0.0000 -10560.0502 1461.6307 0.0000 0.0000 1681.1187 -7399.3808 289.4705 -9080.4995 -7341.8326 298.1483 549.1318 575.9123 29544.4405 15.9821 91.3399
TCL: Running FEP window  16: Lambda1 0.24999999999999967 Lambda2 0.19999999999999968 [dLambda -0.04999999999999999]
TCL: Setting parameter firsttimestep to 0
TCL: Setting parameter alchLambda to 0.24999999999999967
Info: NONBONDED TABLE R-SQUARED SPACING: 0.0625
Info: NONBONDED TABLE SIZE: 705 POINTS
TCL: Setting parameter alchLambda2 to 0.19999999999999968
Info: NONBONDED TABLE R-SQUARED SPACING: 0.0625
Info: NONBONDED TABLE SIZE: 705 POINTS
TCL: Running for 1500000 steps
ETITLE: TS BOND ANGLE DIHED IMPRP ELECT VDW BOUNDARY MISC KINETIC TOTAL TEMP POTENTIAL TOTALAVG TEMPAVG PRESSURE GPRESSURE VOLUME PRESSAVG GPRESSAVG
ENERGY: 0 4.4737 10.0270 3.4192 0.0000 -10560.0507 1462.1385 0.0000 0.0000 1680.2749 -7399.7174 289.3252 -9079.9923 -7399.7174 289.3252 508.7918 576.3152 29544.4405 508.7918 576.3152
ENERGY: 300000 2.7428 5.3404 3.2770 0.0000 -10610.6557 1454.0816 0.0000 0.0000 1755.4118 -7389.8022 302.2629 -9145.2140 -7335.0233 297.2549 -32.2357 44.3940 30049.9444 102.2056 170.5329
ENERGY: 600000 3.2139 8.7845 2.8690 0.0000 -10569.4194 1402.6197 0.0000 0.0000 1776.5110 -7375.4214 305.8960 -9151.9324 -7349.7429 298.7774 -364.1068 -266.0396 29991.1148 154.4402 230.9223
ENERGY: 900000 0.8388 5.0210 3.4194 0.0000 -10469.8426 1405.1242 0.0000 0.0000 1701.5878 -7353.8514 292.9950 -9055.4392 -7344.5711 299.0517 -161.8746 -125.8945 30284.8054 169.8552 232.5932
ENERGY: 1200000 4.7265 7.3178 3.3797 0.0000 -10591.7568 1447.2999 0.0000 0.0000 1736.0779 -7392.9550 298.9338 -9129.0329 -7336.2345 299.4006 49.3433 83.4610 29600.0984 100.1730 153.1211
ENERGY: 1500000 2.1429 7.0453 3.6644 0.0000 -10624.0981 1496.1084 0.0000 0.0000 1791.0099 -7324.1272 308.3925 -9115.1371 -7332.2594 299.5539 703.8785 731.2153 29645.4409 78.9559 137.6012
TCL: Running FEP window  17: Lambda1 0.19999999999999968 Lambda2 0.1499999999999997 [dLambda -0.04999999999999999]
TCL: Setting parameter firsttimestep to 0
TCL: Setting parameter alchLambda to 0.19999999999999968
Info: NONBONDED TABLE R-SQUARED SPACING: 0.0625
Info: NONBONDED TABLE SIZE: 705 POINTS
TCL: Setting parameter alchLambda2 to 0.1499999999999997
Info: NONBONDED TABLE R-SQUARED SPACING: 0.0625
Info: NONBONDED TABLE SIZE: 705 POINTS
TCL: Running for 1500000 steps
ETITLE: TS BOND ANGLE DIHED IMPRP ELECT VDW BOUNDARY MISC KINETIC TOTAL TEMP POTENTIAL TOTALAVG TEMPAVG PRESSURE GPRESSURE VOLUME PRESSAVG GPRESSAVG
ENERGY: 0 2.1429 7.0453 3.6644 0.0000 -10624.0985 1495.3330 0.0000 0.0000 1790.1354 -7325.7775 308.2420 -9115.9129 -7325.7775 308.2420 641.7689 725.0190 29645.4409 641.7689 725.0190
ENERGY: 300000 1.4607 5.2513 3.9372 0.0000 -10621.3340 1435.5821 0.0000 0.0000 1724.7182 -7450.3845 296.9778 -9175.1027 -7344.1190 303.9925 11.6366 108.8795 29453.2469 -43.7859 45.4428
ENERGY: 600000 6.3420 8.4474 4.2441 0.0000 -10727.1210 1535.6516 0.0000 0.0000 1710.7534 -7461.6825 294.5732 -9172.4360 -7345.1213 301.3811 498.0570 600.6300 29784.2187 -55.0721 26.0308
ENERGY: 900000 0.4467 5.4349 3.6695 0.0000 -10625.0201 1435.0157 0.0000 0.0000 1745.7613 -7434.6920 300.6012 -9180.4534 -7357.9177 301.4777 -106.5404 46.5624 29621.4781 -39.3784 52.5515
ENERGY: 1200000 3.3959 5.9680 2.9092 0.0000 -10564.4253 1453.7212 0.0000 0.0000 1765.5399 -7332.8912 304.0069 -9098.4311 -7348.7796 301.5744 198.3929 268.2946 29636.9140 53.0092 128.7233
ENERGY: 1500000 3.1205 8.2136 3.4105 0.0000 -10641.2580 1529.5525 0.0000 0.0000 1688.9377 -7408.0232 290.8168 -9096.9609 -7354.1455 300.4845 586.7139 650.1784 30039.4659 169.0297 245.9767
TCL: Running FEP window  18: Lambda1 0.1499999999999997 Lambda2 0.09999999999999969 [dLambda -0.05 ]
TCL: Setting parameter firsttimestep to 0
TCL: Setting parameter alchLambda to 0.1499999999999997
Info: NONBONDED TABLE R-SQUARED SPACING: 0.0625
Info: NONBONDED TABLE SIZE: 705 POINTS
TCL: Setting parameter alchLambda2 to 0.09999999999999969
Info: NONBONDED TABLE R-SQUARED SPACING: 0.0625
Info: NONBONDED TABLE SIZE: 705 POINTS
TCL: Running for 1500000 steps
ETITLE: TS BOND ANGLE DIHED IMPRP ELECT VDW BOUNDARY MISC KINETIC TOTAL TEMP POTENTIAL TOTALAVG TEMPAVG PRESSURE GPRESSURE VOLUME PRESSAVG GPRESSAVG
ENERGY: 0 3.1205 8.2136 3.4105 0.0000 -10641.2576 1529.2099 0.0000 0.0000 1688.0708 -7409.2323 290.6675 -9097.3031 -7409.2323 290.6675 569.5333 647.6120 30039.4659 569.5333 647.6120
ENERGY: 300000 1.9472 5.4668 2.8243 0.0000 -10349.5129 1289.0228 0.0000 0.0000 1776.7287 -7273.5231 305.9335 -9050.2518 -7335.4821 298.3567 -975.9773 -888.1891 30127.8307 47.6856 105.5064
ENERGY: 600000 1.8954 9.8344 2.8741 0.0000 -10607.2470 1481.4847 0.0000 0.0000 1715.8527 -7395.3057 295.4513 -9111.1584 -7332.9711 298.5282 483.8382 551.3931 29821.1759 160.1274 222.4605
ENERGY: 900000 3.4863 7.9527 4.7280 0.0000 -10439.2810 1348.4366 0.0000 0.0000 1742.7207 -7331.9565 300.0777 -9074.6773 -7331.7958 298.8764 -676.8737 -646.2620 30143.2148 95.0680 149.5496
ENERGY: 1200000 2.0487 10.5734 3.2130 0.0000 -10438.8474 1327.0186 0.0000 0.0000 1753.7566 -7342.2372 301.9779 -9095.9938 -7335.0869 299.1555 -682.7585 -642.7803 29664.8928 -1.6565 54.5487
ENERGY: 1500000 1.0030 5.9250 3.6054 0.0000 -10499.8918 1398.6062 0.0000 0.0000 1763.9130 -7326.8392 303.7267 -9090.7522 -7340.0470 298.9831 -409.6241 -280.8154 30485.0566 -44.7573 9.4949
TCL: Running FEP window  19: Lambda1 0.09999999999999969 Lambda2 0.049999999999999684 [dLambda -0.05 ]
TCL: Setting parameter firsttimestep to 0
TCL: Setting parameter alchLambda to 0.09999999999999969
Info: NONBONDED TABLE R-SQUARED SPACING: 0.0625
Info: NONBONDED TABLE SIZE: 705 POINTS
TCL: Setting parameter alchLambda2 to 0.049999999999999684
Info: NONBONDED TABLE R-SQUARED SPACING: 0.0625
Info: NONBONDED TABLE SIZE: 705 POINTS
TCL: Running for 1500000 steps
ETITLE: TS BOND ANGLE DIHED IMPRP ELECT VDW BOUNDARY MISC KINETIC TOTAL TEMP POTENTIAL TOTALAVG TEMPAVG PRESSURE GPRESSURE VOLUME PRESSAVG GPRESSAVG
ENERGY: 0 1.0030 5.9250 3.6054 0.0000 -10499.8926 1398.1406 0.0000 0.0000 1763.0303 -7328.1883 303.5748 -9091.2186 -7328.1883 303.5748 -368.3834 -284.0097 30485.0566 -368.3834 -284.0097
ENERGY: 300000 1.6284 9.9993 2.8236 0.0000 -10391.1629 1309.1102 0.0000 0.0000 1750.6345 -7316.9671 301.4403 -9067.6016 -7327.3183 301.5954 -735.9255 -713.4058 30154.2707 -587.9037 -494.5156
ENERGY: 600000 3.3219 9.5906 3.8692 0.0000 -10483.3755 1375.5910 0.0000 0.0000 1742.7702 -7348.2327 300.0862 -9091.0029 -7341.3861 302.0299 -618.4353 -444.3588 29829.5184 -327.5836 -223.1995
ENERGY: 900000 2.9122 10.1995 3.1970 0.0000 -10476.1032 1412.9481 0.0000 0.0000 1712.2007 -7334.6457 294.8224 -9046.8465 -7331.4984 301.2839 -112.4329 -31.4106 30183.1136 -355.3272 -253.3772
ENERGY: 1200000 1.4602 8.9528 3.2974 0.0000 -10369.8728 1313.3723 0.0000 0.0000 1774.4899 -7268.3002 305.5480 -9042.7901 -7324.7552 300.9037 -998.5449 -982.8521 30442.0696 -354.6745 -267.1894
ENERGY: 1500000 2.7236 9.9153 3.5220 0.0000 -10421.7903 1313.2803 0.0000 0.0000 1725.0822 -7367.2669 297.0405 -9092.3491 -7334.6972 299.8257 -1082.0659 -1007.1007 30577.3854 -373.3978 -293.3712
TCL: Running FEP window  20: Lambda1 0.049999999999999684 Lambda2 0.0    [dLambda -0.049999999999999684]
TCL: Setting parameter firsttimestep to 0
TCL: Setting parameter alchLambda to 0.049999999999999684
Info: NONBONDED TABLE R-SQUARED SPACING: 0.0625
Info: NONBONDED TABLE SIZE: 705 POINTS
TCL: Setting parameter alchLambda2 to 0.0
Info: NONBONDED TABLE R-SQUARED SPACING: 0.0625
Info: NONBONDED TABLE SIZE: 705 POINTS
TCL: Running for 1500000 steps
ETITLE: TS BOND ANGLE DIHED IMPRP ELECT VDW BOUNDARY MISC KINETIC TOTAL TEMP POTENTIAL TOTALAVG TEMPAVG PRESSURE GPRESSURE VOLUME PRESSAVG GPRESSAVG
ENERGY: 0 2.7236 9.9153 3.5220 0.0000 -10421.7917 1313.0909 0.0000 0.0000 1724.2056 -7368.3343 296.8896 -9092.5399 -7368.3343 296.8896 -1103.3856 -1013.3505 30577.3854 -1103.3856 -1013.3505
ENERGY: 300000 4.5221 13.1604 3.7589 0.0000 -10610.8447 1497.3404 0.0000 0.0000 1757.1111 -7334.9518 302.5555 -9092.0629 -7320.3897 301.7793 342.8765 403.7033 30085.7435 -301.9161 -236.4938
ENERGY: 600000 3.6981 7.1694 5.0086 0.0000 -10485.1043 1405.4784 0.0000 0.0000 1694.9703 -7368.7796 291.8555 -9063.7498 -7330.5511 299.1894 -81.7409 1.9952 29618.8363 -156.8101 -84.2034
ENERGY: 900000 1.9911 6.7386 3.1532 0.0000 -10632.0976 1446.4007 0.0000 0.0000 1701.5126 -7472.3014 292.9821 -9173.8140 -7333.8304 298.6683 -2.0623 77.3068 29475.8628 -8.2947 61.6224
ENERGY: 1200000 2.3779 9.9087 2.8645 0.0000 -10535.4656 1461.8550 0.0000 0.0000 1717.0043 -7341.4553 295.6496 -9058.4596 -7347.3452 298.0132 543.4499 643.1105 29447.2782 -21.5691 54.9693
ENERGY: 1500000 4.1778 9.5677 4.8708 0.0000 -10410.0439 1418.9925 0.0000 0.0000 1751.5575 -7220.8776 301.5993 -8972.4350 -7346.4794 297.9852 197.5131 259.1168 29771.1211 -26.7857 47.3960
TCL: Exiting due to exit command.
