Info: SIMULATION PARAMETERS:
Info: TIMESTEP               2
Info: NUMBER OF STEPS        0
Info: STEPS PER CYCLE        10
Info: PERIODIC CELL BASIS 1  31.4945 0 0
Info: PERIODIC CELL BASIS 2  0 31.0742 0
Info: PERIODIC CELL BASIS 3  0 0 30.4327
Info: PERIODIC CELL CENTER   0 0 0
Info: WRAPPING WATERS AROUND PERIODIC BOUNDARIES ON OUTPUT.
Info: WRAPPING ALL CLUSTERS AROUND PERIODIC BOUNDARIES ON OUTPUT.
Info: FIRST LDB TIMESTEP     50
Info: LAST LDB TIMESTEP     -1
Info: HOM BACKGROUND SCALING 1
Info: PME BACKGROUND SCALING 1
Info: MIN ATOMS PER PATCH    40
Info: EMPTY PATCH LOAD       40 ATOMS
Info: VELOCITY FILE          mobley_7047032_equil.vel
Info: CENTER OF MASS MOVING INITIALLY? NO
Info: DIELECTRIC             1
Info: EXCLUDE                SCALED ONE-FOUR
Info: 1-4 ELECTROSTATICS SCALED BY 0.833333
Info: MODIFIED 1-4 VDW PARAMETERS WILL BE USED
Info: DCD FILENAME           mobley_7047032_prod.dcd
Info: DCD FREQUENCY          100000
Info: DCD FIRST STEP         100000
Info: DCD FILE WILL CONTAIN UNIT CELL DATA
Info: XST FILENAME           mobley_7047032_prod.xst
Info: XST FREQUENCY          100000
Info: NO VELOCITY DCD OUTPUT
Info: NO FORCE DCD OUTPUT
Info: OUTPUT FILENAME        mobley_7047032_prod
Info: BINARY OUTPUT FILES WILL BE USED
Info: RESTART FILENAME       mobley_7047032_prod.restart
Info: RESTART FREQUENCY      100000
Info: BINARY RESTART FILES WILL BE USED
Info: CUTOFF                 9
Info: PAIRLIST DISTANCE      11
Info: PAIRLIST SHRINK RATE   0.01
Info: PAIRLIST GROW RATE     0.01
Info: PAIRLIST TRIGGER       0.3
Info: PAIRLISTS PER CYCLE    2
Info: PAIRLISTS ENABLED
Info: MARGIN                 2
Info: HYDROGEN GROUP CUTOFF  2.5
Info: PATCH DIMENSION        15.5
Info: ENERGY OUTPUT STEPS    100000
Info: ENERGY EVALUATION STEPS    100000
Info: OUTPUT ENERGY PRECISION 4
Info: CROSSTERM ENERGY INCLUDED IN DIHEDRAL
Info: TIMING OUTPUT STEPS    1000000
Info: PRESSURE OUTPUT STEPS  100000
Info: ALCHEMICAL FEP ON
Info: FEP CURRENT LAMBDA VALUE     1
Info: FEP COMPARISON LAMBDA VALUE  0.95
Info: FEP INTRA-ALCHEMICAL NON-BONDED INTERACTIONS WILL BE RETAINED
Info: FEP INTRA-ALCHEMICAL BONDED INTERACTIONS WILL BE RETAINED
Info: FEP VDW SHIFTING COEFFICIENT 5
Info: FEP ELEC. ACTIVE FOR ANNIHILATED PARTICLES BETWEEN LAMBDA = 0 AND LAMBDA = 0.5
Info: FEP ELEC. ACTIVE FOR EXNIHILATED PARTICLES BETWEEN LAMBDA = 0.5 AND LAMBDA = 1
Info: FEP VDW ACTIVE FOR ANNIHILATED PARTICLES BETWEEN LAMBDA = 0 AND LAMBDA = 1
Info: FEP VDW ACTIVE FOR EXNIHILATED PARTICLES BETWEEN LAMBDA = 0 AND LAMBDA = 1
Info: FEP BOND ACTIVE FOR ANNIHILATED PARTICLES BETWEEN LAMBDA = 1 AND LAMBDA = 1
Info: FEP BOND ACTIVE FOR EXNIHILATED PARTICLES BETWEEN LAMBDA = 0 AND LAMBDA = 0
Info: LANGEVIN DYNAMICS ACTIVE
Info: LANGEVIN TEMPERATURE   300
Info: LANGEVIN USING BBK INTEGRATOR
Info: LANGEVIN DAMPING COEFFICIENT IS 1 INVERSE PS
Info: LANGEVIN DYNAMICS APPLIED TO HYDROGENS
Info: LANGEVIN PISTON PRESSURE CONTROL ACTIVE
Info:        TARGET PRESSURE IS 1.01325 BAR
Info:     OSCILLATION PERIOD IS 50 FS
Info:             DECAY TIME IS 25 FS
Info:     PISTON TEMPERATURE IS 300 K
Info:       PRESSURE CONTROL IS GROUP-BASED
Info:    INITIAL STRAIN RATE IS 0.000173682 0.000173682 0.000173682
Info:       CELL FLUCTUATION IS ISOTROPIC
Info: PARTICLE MESH EWALD (PME) ACTIVE
Info: PME TOLERANCE               1e-06
Info: PME EWALD COEFFICIENT       0.348832
Info: PME INTERPOLATION ORDER     4
Info: PME GRID DIMENSIONS         32 32 32
Info: PME MAXIMUM GRID SPACING    1
Info: PME CALCULATION WILL BE PERFORMED ON GPU
Info: FULL ELECTROSTATIC EVALUATION FREQUENCY      2
Info: USING VERLET I (r-RESPA) MTS SCHEME.
Info: C1 SPLITTING OF LONG RANGE ELECTROSTATICS
Info: PLACING ATOMS IN PATCHES BY HYDROGEN GROUPS
Info: RIGID BONDS TO HYDROGEN : ALL
Info:         ERROR TOLERANCE : 1e-08
Info:          MAX ITERATIONS : 100
Info: RIGID WATER USING SETTLE ALGORITHM
Info: RANDOM NUMBER SEED     1743582876
Info: USE HYDROGEN BONDS?    NO
Info: Using AMBER format force field!
Info: AMBER PARM FILE        mobley_7047032.prmtop
Info: COORDINATE PDB         mobley_7047032.pdb
Info: Exclusions will be read from PARM file!
Info: SCNB (VDW SCALING)     2
Info: USING ARITHMETIC MEAN TO COMBINE L-J SIGMA PARAMETERS
Info: BINARY COORDINATES     mobley_7047032_equil.coor
Info: SUMMARY OF PARAMETERS:
Info: 5 BONDS
Info: 4 ANGLES
Info:   4 HARMONIC
Info:   0 COSINE-BASED
Info: 3 DIHEDRAL
Info: 0 IMPROPER
Info: 0 CROSSTERM
Info: 0 VDW
Info: 15 VDW_PAIRS
Info: 0 NBTHOLE_PAIRS
Info: To read alchdata from file: mobley_7047032.pdb
Info: To read alchflag data from column: 5
Info: STRUCTURE SUMMARY:
Info: 2906 ATOMS
Info: 2905 BONDS
Info: 24 ANGLES
Info: 36 DIHEDRALS
Info: 0 IMPROPERS
Info: 0 CROSSTERMS
Info: 2956 EXCLUSIONS
Info: 2901 RIGID BONDS
Info: ALCH: 0 ATOMS TO DISAPPEAR IN FINAL STATE
Info: ALCH: 14 ATOMS TO APPEAR IN FINAL STATE
Info: 5817 DEGREES OF FREEDOM
Info: 969 HYDROGEN GROUPS
Info: 4 ATOMS IN LARGEST HYDROGEN GROUP
Info: 969 MIGRATION GROUPS
Info: 4 ATOMS IN LARGEST MIGRATION GROUP
Info: TOTAL MASS = 17460 amu
Info: TOTAL CHARGE = 0.000100009 e
Info: MASS DENSITY = 0.973485 g/cm^3
Info: ATOM DENSITY = 0.0975712 atoms/A^3
Info: ADDED 0 IMPLICIT EXCLUSIONS
Info: NONBONDED TABLE R-SQUARED SPACING: 0.0625
Info: NONBONDED TABLE SIZE: 705 POINTS
Info: REDUCING NUMBER OF PATCHES TO IMPROVE LOAD BALANCE
Info: REMOVING COM VELOCITY -0.0650149 0.00116977 0.158119
Info: Use 3D box decompostion in PME FFT.
Info: Updated CUDA force table with 4096 elements.
Info: Updated CUDA LJ table with 5 x 5 elements.
Info: Found 17 unique exclusion lists needing 36 bytes
TCL: Running for 1500000 steps
ETITLE: TS BOND ANGLE DIHED IMPRP ELECT VDW BOUNDARY MISC KINETIC TOTAL TEMP POTENTIAL TOTALAVG TEMPAVG PRESSURE GPRESSURE VOLUME PRESSAVG GPRESSAVG
ENERGY: 0 0.7194 6.8295 2.5336 0.0000 -10586.0556 1452.5049 0.0000 0.0000 1689.7064 -7433.7619 292.3496 -9123.4683 -7433.7619 292.3496 269.9907 358.3154 29783.3811 269.9907 358.3154
ENERGY: 300000 1.9794 4.9735 2.4865 0.0000 -10547.5344 1388.9556 0.0000 0.0000 1707.2833 -7441.8561 295.3908 -9149.1394 -7407.2437 297.7842 -413.0511 -345.8439 30377.9930 -106.3894 -50.0127
ENERGY: 600000 0.1432 5.4496 3.5303 0.0000 -10495.9444 1374.7065 0.0000 0.0000 1680.9602 -7431.1546 290.8364 -9112.1149 -7401.1097 298.0992 -210.7590 -176.3869 29689.5794 -263.8394 -189.1751
ENERGY: 900000 2.2080 4.3956 2.7383 0.0000 -10690.5209 1448.3194 0.0000 0.0000 1743.3453 -7489.5144 301.6301 -9232.8596 -7402.4320 298.5416 -96.2040 -45.5244 29966.3525 -161.0754 -90.3988
ENERGY: 1200000 0.5494 9.0662 2.7172 0.0000 -10421.4236 1378.7738 0.0000 0.0000 1713.6507 -7316.6662 296.4924 -9030.3169 -7394.5795 297.8533 -215.6090 -143.8851 30088.7969 -199.1993 -127.7329
ENERGY: 1500000 1.0606 10.5095 2.6476 0.0000 -10548.7880 1386.2891 0.0000 0.0000 1743.5705 -7404.7107 301.6691 -9148.2812 -7397.9894 298.1697 -269.8704 -200.5077 29787.1172 -211.4454 -143.8403
TCL: Running FEP window   2: Lambda1 0.95   Lambda2 0.8999999999999999 [dLambda -0.050000000000000044]
TCL: Setting parameter firsttimestep to 0
TCL: Setting parameter alchLambda to 0.95
Info: NONBONDED TABLE R-SQUARED SPACING: 0.0625
Info: NONBONDED TABLE SIZE: 705 POINTS
TCL: Setting parameter alchLambda2 to 0.8999999999999999
Info: NONBONDED TABLE R-SQUARED SPACING: 0.0625
Info: NONBONDED TABLE SIZE: 705 POINTS
TCL: Running for 1500000 steps
ETITLE: TS BOND ANGLE DIHED IMPRP ELECT VDW BOUNDARY MISC KINETIC TOTAL TEMP POTENTIAL TOTALAVG TEMPAVG PRESSURE GPRESSURE VOLUME PRESSAVG GPRESSAVG
ENERGY: 0 1.0606 10.5095 2.6476 0.0000 -10548.6955 1386.5117 0.0000 0.0000 1742.6998 -7405.2663 301.5185 -9147.9661 -7405.2663 301.5185 -292.8915 -207.5201 29787.1172 -292.8915 -207.5201
ENERGY: 300000 0.9687 5.8021 2.4451 0.0000 -10578.5257 1438.3345 0.0000 0.0000 1679.0838 -7451.8915 290.5117 -9130.9753 -7409.6022 296.6652 52.4719 77.1885 30101.1066 -61.4302 -18.0492
ENERGY: 600000 1.0960 3.6114 3.2397 0.0000 -10415.6278 1280.9668 0.0000 0.0000 1756.5818 -7370.1322 303.9203 -9126.7140 -7379.8968 298.4579 -1332.5972 -1242.5616 30617.2562 -301.6478 -265.0132
ENERGY: 900000 1.5639 6.1416 2.3964 0.0000 -10623.3919 1511.2945 0.0000 0.0000 1733.4820 -7368.5135 299.9236 -9101.9955 -7385.4588 299.0235 772.8788 802.5547 29789.3604 -131.2244 -102.4372
ENERGY: 1200000 0.5672 7.9304 2.3432 0.0000 -10420.0504 1298.4534 0.0000 0.0000 1732.9433 -7377.8129 299.8304 -9110.7562 -7382.6239 299.9851 -958.0028 -959.3218 30238.1662 -130.6109 -97.1844
ENERGY: 1500000 2.6226 5.9528 2.4566 0.0000 -10659.9045 1485.1988 0.0000 0.0000 1775.9288 -7387.7449 307.2677 -9163.6736 -7387.2520 300.6954 574.3310 657.9492 29433.9591 -132.1195 -87.6287
TCL: Running FEP window   3: Lambda1 0.8999999999999999 Lambda2 0.8499999999999999 [dLambda -0.050000000000000044]
TCL: Setting parameter firsttimestep to 0
TCL: Setting parameter alchLambda to 0.8999999999999999
Info: NONBONDED TABLE R-SQUARED SPACING: 0.0625
Info: NONBONDED TABLE SIZE: 705 POINTS
TCL: Setting parameter alchLambda2 to 0.8499999999999999
Info: NONBONDED TABLE R-SQUARED SPACING: 0.0625
Info: NONBONDED TABLE SIZE: 705 POINTS
TCL: Running for 1500000 steps
ETITLE: TS BOND ANGLE DIHED IMPRP ELECT VDW BOUNDARY MISC KINETIC TOTAL TEMP POTENTIAL TOTALAVG TEMPAVG PRESSURE GPRESSURE VOLUME PRESSAVG GPRESSAVG
ENERGY: 0 2.6226 5.9528 2.4566 0.0000 -10659.7907 1485.2551 0.0000 0.0000 1775.0483 -7388.4552 307.1153 -9163.5035 -7388.4552 307.1153 561.6484 646.2698 29433.9591 561.6484 646.2698
ENERGY: 300000 1.4986 6.2803 2.8264 0.0000 -10552.6776 1423.3454 0.0000 0.0000 1765.7872 -7352.9397 305.5130 -9118.7269 -7376.5427 302.4658 -27.1816 121.0324 29865.9882 -228.5532 -115.6817
ENERGY: 600000 1.6679 3.9465 2.2667 0.0000 -10689.7966 1440.7388 0.0000 0.0000 1747.9288 -7493.2478 302.4232 -9241.1766 -7407.9464 300.0967 -88.7117 -39.9916 29824.7856 -210.7859 -123.2737
ENERGY: 900000 0.4460 6.3997 2.8433 0.0000 -10482.6504 1420.6913 0.0000 0.0000 1733.4527 -7318.8174 299.9185 -9052.2701 -7383.7436 301.7345 -187.5290 -92.6008 30273.7500 -129.9315 -50.8348
ENERGY: 1200000 1.8953 7.8046 2.6907 0.0000 -10589.8553 1434.0168 0.0000 0.0000 1699.3606 -7444.0873 294.0200 -9143.4479 -7385.5825 300.6760 -65.5992 36.8593 29896.9631 -40.8174 30.2315
ENERGY: 1500000 0.4267 8.0427 2.3739 0.0000 -10424.9064 1373.2768 0.0000 0.0000 1768.7162 -7272.0701 306.0198 -9040.7863 -7374.4958 300.8269 -391.5149 -346.3506 30716.9007 -27.0736 40.6353
TCL: Running FEP window   4: Lambda1 0.8499999999999999 Lambda2 0.7999999999999998 [dLambda -0.050000000000000044]
TCL: Setting parameter firsttimestep to 0
TCL: Setting parameter alchLambda to 0.8499999999999999
Info: NONBONDED TABLE R-SQUARED SPACING: 0.0625
Info: NONBONDED TABLE SIZE: 705 POINTS
TCL: Setting parameter alchLambda2 to 0.7999999999999998
Info: NONBONDED TABLE R-SQUARED SPACING: 0.0625
Info: NONBONDED TABLE SIZE: 705 POINTS
TCL: Running for 1500000 steps
ETITLE: TS BOND ANGLE DIHED IMPRP ELECT VDW BOUNDARY MISC KINETIC TOTAL TEMP POTENTIAL TOTALAVG TEMPAVG PRESSURE GPRESSURE VOLUME PRESSAVG GPRESSAVG
ENERGY: 0 0.4267 8.0427 2.3739 0.0000 -10424.5324 1373.4792 0.0000 0.0000 1767.8179 -7272.3919 305.8643 -9040.2099 -7272.3919 305.8643 -428.4841 -352.4455 30716.9007 -428.4841 -352.4455
ENERGY: 300000 1.1906 8.8285 2.4863 0.0000 -10496.8210 1409.2001 0.0000 0.0000 1751.1830 -7323.9325 302.9862 -9075.1154 -7322.2268 303.2550 294.8243 422.7754 29522.6364 43.9043 105.8934
ENERGY: 600000 0.7352 10.3656 2.6529 0.0000 -10523.2797 1450.1201 0.0000 0.0000 1712.0525 -7347.3534 296.2159 -9059.4059 -7333.6880 300.5587 251.5882 359.9727 30202.9083 153.8825 220.2956
ENERGY: 900000 1.6458 3.5183 2.6976 0.0000 -10421.3628 1351.2426 0.0000 0.0000 1782.9480 -7279.3104 308.4821 -9062.2584 -7334.6354 300.9063 -468.3425 -359.3333 29890.6355 63.2085 132.6199
ENERGY: 1200000 0.4455 7.0608 2.3196 0.0000 -10518.2630 1394.9030 0.0000 0.0000 1698.3595 -7415.1746 293.8468 -9113.5341 -7349.0114 300.6664 -259.6688 -142.6531 30248.4719 -59.9877 13.2715
ENERGY: 1500000 2.4217 6.0046 2.3980 0.0000 -10546.8146 1423.9122 0.0000 0.0000 1729.3432 -7382.7349 299.2075 -9112.0781 -7360.7439 300.1449 76.4061 148.8606 29737.8672 -22.5787 50.8471
TCL: Running FEP window   5: Lambda1 0.7999999999999998 Lambda2 0.7499999999999998 [dLambda -0.050000000000000044]
TCL: Setting parameter firsttimestep to 0
TCL: Setting parameter alchLambda to 0.7999999999999998
Info: NONBONDED TABLE R-SQUARED SPACING: 0.0625
Info: NONBONDED TABLE SIZE: 705 POINTS
TCL: Setting parameter alchLambda2 to 0.7499999999999998
Info: NONBONDED TABLE R-SQUARED SPACING: 0.0625
Info: NONBONDED TABLE SIZE: 705 POINTS
TCL: Running for 1500000 steps
ETITLE: TS BOND ANGLE DIHED IMPRP ELECT VDW BOUNDARY MISC KINETIC TOTAL TEMP POTENTIAL TOTALAVG TEMPAVG PRESSURE GPRESSURE VOLUME PRESSAVG GPRESSAVG
ENERGY: 0 2.4217 6.0046 2.3980 0.0000 -10546.6213 1424.3998 0.0000 0.0000 1728.4821 -7382.9151 299.0585 -9111.3972 -7382.9151 299.0585 54.5144 147.4173 29737.8672 54.5144 147.4173
ENERGY: 300000 0.7363 4.7438 2.6805 0.0000 -10455.4359 1432.1118 0.0000 0.0000 1738.7561 -7276.4074 300.8361 -9015.1635 -7366.5201 297.6099 524.7971 603.6667 29799.4174 147.2432 218.6699
ENERGY: 600000 1.7143 7.5337 3.0622 0.0000 -10518.0033 1429.3632 0.0000 0.0000 1760.1366 -7316.1933 304.5353 -9076.3298 -7356.7140 298.9677 281.8800 298.2597 29881.6892 78.2779 144.8212
ENERGY: 900000 0.8218 6.5200 2.8067 0.0000 -10611.5336 1464.3606 0.0000 0.0000 1736.1463 -7400.8781 300.3846 -9137.0244 -7374.8586 298.0534 251.8663 327.0951 29951.5327 108.8211 174.2675
ENERGY: 1200000 2.2492 3.5438 3.7097 0.0000 -10393.3475 1357.0488 0.0000 0.0000 1786.0133 -7240.7826 309.0125 -9026.7959 -7372.0114 299.7928 -299.1274 -282.0047 30306.5083 100.1688 159.2445
ENERGY: 1500000 1.2771 6.0131 3.8749 0.0000 -10499.5203 1421.4735 0.0000 0.0000 1796.4910 -7270.3908 310.8253 -9066.8817 -7371.3987 300.6596 41.4228 127.7775 30088.9286 8.2808 62.8281
TCL: Running FEP window   6: Lambda1 0.7499999999999998 Lambda2 0.6999999999999997 [dLambda -0.050000000000000044]
TCL: Setting parameter firsttimestep to 0
TCL: Setting parameter alchLambda to 0.7499999999999998
Info: NONBONDED TABLE R-SQUARED SPACING: 0.0625
Info: NONBONDED TABLE SIZE: 705 POINTS
TCL: Setting parameter alchLambda2 to 0.6999999999999997
Info: NONBONDED TABLE R-SQUARED SPACING: 0.0625
Info: NONBONDED TABLE SIZE: 705 POINTS
TCL: Running for 1500000 steps
ETITLE: TS BOND ANGLE DIHED IMPRP ELECT VDW BOUNDARY MISC KINETIC TOTAL TEMP POTENTIAL TOTALAVG TEMPAVG PRESSURE GPRESSURE VOLUME PRESSAVG GPRESSAVG
ENERGY: 0 1.2771 6.0131 3.8749 0.0000 -10498.9905 1421.6044 0.0000 0.0000 1795.6093 -7270.6117 310.6728 -9066.2210 -7270.6117 310.6728 25.1471 122.3514 30088.9286 25.1471 122.3514
ENERGY: 300000 2.1738 14.2456 2.9081 0.0000 -10496.4368 1409.7247 0.0000 0.0000 1750.8645 -7316.5200 302.9311 -9067.3845 -7340.9271 302.2200 -186.5573 -129.4242 30404.9984 -315.6682 -275.1493
ENERGY: 600000 1.6689 3.9967 2.5640 0.0000 -10524.8306 1449.7575 0.0000 0.0000 1731.0274 -7335.8162 299.4989 -9066.8436 -7345.5862 299.9219 367.0750 398.2001 30002.5756 -162.5644 -127.5562
ENERGY: 900000 1.4853 8.2455 2.6065 0.0000 -10524.3268 1436.9668 0.0000 0.0000 1763.6006 -7311.4221 305.1347 -9075.0227 -7362.2667 299.8978 161.8258 271.8369 30116.1784 7.6627 49.5384
ENERGY: 1200000 0.8497 6.0219 3.2805 0.0000 -10460.6753 1381.3753 0.0000 0.0000 1648.9426 -7420.2053 285.2968 -9069.1479 -7358.9237 298.5842 -357.4558 -337.9840 29979.8047 -2.7715 42.8532
ENERGY: 1500000 1.2645 9.0065 2.7879 0.0000 -10645.1497 1500.6310 0.0000 0.0000 1776.3935 -7355.0664 307.3481 -9131.4599 -7360.6296 300.3094 690.1195 789.1004 29800.7367 -4.7067 40.7791
TCL: Running FEP window   7: Lambda1 0.6999999999999997 Lambda2 0.6499999999999997 [dLambda -0.050000000000000044]
TCL: Setting parameter firsttimestep to 0
TCL: Setting parameter alchLambda to 0.6999999999999997
Info: NONBONDED TABLE R-SQUARED SPACING: 0.0625
Info: NONBONDED TABLE SIZE: 705 POINTS
TCL: Setting parameter alchLambda2 to 0.6499999999999997
Info: NONBONDED TABLE R-SQUARED SPACING: 0.0625
Info: NONBONDED TABLE SIZE: 705 POINTS
TCL: Running for 1500000 steps
ETITLE: TS BOND ANGLE DIHED IMPRP ELECT VDW BOUNDARY MISC KINETIC TOTAL TEMP POTENTIAL TOTALAVG TEMPAVG PRESSURE GPRESSURE VOLUME PRESSAVG GPRESSAVG
ENERGY: 0 1.2645 9.0065 2.7879 0.0000 -10644.8963 1500.4414 0.0000 0.0000 1775.5265 -7355.8695 307.1981 -9131.3960 -7355.8695 307.1981 681.3510 778.5796 29800.7367 681.3510 778.5796
ENERGY: 300000 0.9283 7.2070 3.6014 0.0000 -10426.9605 1403.4120 0.0000 0.0000 1750.1797 -7261.6321 302.8126 -9011.8118 -7382.6914 298.5591 -18.3287 58.9254 30228.1783 76.3839 143.6009
ENERGY: 600000 2.7574 7.0983 3.1147 0.0000 -10506.4789 1379.8639 0.0000 0.0000 1713.5694 -7400.0752 296.4784 -9113.6446 -7384.5478 299.6900 -409.1859 -365.3161 30096.3745 9.2079 76.2742
ENERGY: 900000 1.0317 7.1620 2.6006 0.0000 -10372.5737 1271.0398 0.0000 0.0000 1726.7589 -7363.9806 298.7604 -9090.7395 -7384.1429 299.5082 -1098.8192 -961.2619 29957.6548 -237.6648 -162.5252
ENERGY: 1200000 1.3924 4.7320 2.8383 0.0000 -10500.2315 1373.6001 0.0000 0.0000 1714.5654 -7403.1033 296.6507 -9117.6687 -7389.0270 299.6221 -390.6401 -369.9418 30225.5171 -231.3563 -165.0569
ENERGY: 1500000 1.0255 6.9685 3.8090 0.0000 -10600.8539 1428.4218 0.0000 0.0000 1768.1113 -7392.5178 305.9151 -9160.6291 -7385.7441 300.1065 -3.8665 -22.1338 29783.2974 -235.0496 -178.8302
TCL: Running FEP window   8: Lambda1 0.6499999999999997 Lambda2 0.5999999999999996 [dLambda -0.050000000000000044]
TCL: Setting parameter firsttimestep to 0
TCL: Setting parameter alchLambda to 0.6499999999999997
Info: NONBONDED TABLE R-SQUARED SPACING: 0.0625
Info: NONBONDED TABLE SIZE: 705 POINTS
TCL: Setting parameter alchLambda2 to 0.5999999999999996
Info: NONBONDED TABLE R-SQUARED SPACING: 0.0625
Info: NONBONDED TABLE SIZE: 705 POINTS
TCL: Running for 1500000 steps
ETITLE: TS BOND ANGLE DIHED IMPRP ELECT VDW BOUNDARY MISC KINETIC TOTAL TEMP POTENTIAL TOTALAVG TEMPAVG PRESSURE GPRESSURE VOLUME PRESSAVG GPRESSAVG
ENERGY: 0 1.0255 6.9685 3.8090 0.0000 -10600.5197 1428.6976 0.0000 0.0000 1767.2448 -7392.7743 305.7652 -9160.0191 -7392.7743 305.7652 -111.2272 -26.8100 29783.2974 -111.2272 -26.8100
ENERGY: 300000 2.1935 3.8503 2.5088 0.0000 -10524.2260 1427.3282 0.0000 0.0000 1667.8597 -7420.4855 288.5698 -9088.3452 -7393.6286 295.4343 228.2907 298.0277 29451.4671 43.2540 112.0765
ENERGY: 600000 0.9953 9.4519 2.4947 0.0000 -10525.9506 1459.7247 0.0000 0.0000 1784.5409 -7268.7432 308.7577 -9053.2840 -7366.8639 299.6946 570.0663 652.9617 29828.9134 47.1061 112.4110
ENERGY: 900000 0.9758 6.7691 3.0938 0.0000 -10556.4092 1436.9359 0.0000 0.0000 1702.1355 -7406.4990 294.5001 -9108.6345 -7369.5839 300.0902 159.9001 229.7191 29847.2431 51.6989 113.6269
ENERGY: 1200000 0.4285 6.6837 2.7251 0.0000 -10702.4464 1487.4700 0.0000 0.0000 1778.7399 -7426.3992 307.7540 -9205.1390 -7377.9731 299.5984 477.3519 514.9295 29433.6668 -10.5179 45.5056
ENERGY: 1500000 1.7069 4.8217 2.5404 0.0000 -10476.7040 1328.5429 0.0000 0.0000 1731.4811 -7407.6109 299.5774 -9139.0920 -7379.3807 299.6990 -813.4170 -695.2151 30122.7032 -51.2839 13.3348
TCL: Running FEP window   9: Lambda1 0.5999999999999996 Lambda2 0.5499999999999996 [dLambda -0.050000000000000044]
TCL: Setting parameter firsttimestep to 0
TCL: Setting parameter alchLambda to 0.5999999999999996
Info: NONBONDED TABLE R-SQUARED SPACING: 0.0625
Info: NONBONDED TABLE SIZE: 705 POINTS
TCL: Setting parameter alchLambda2 to 0.5499999999999996
Info: NONBONDED TABLE R-SQUARED SPACING: 0.0625
Info: NONBONDED TABLE SIZE: 705 POINTS
TCL: Running for 1500000 steps
ETITLE: TS BOND ANGLE DIHED IMPRP ELECT VDW BOUNDARY MISC KINETIC TOTAL TEMP POTENTIAL TOTALAVG TEMPAVG PRESSURE GPRESSURE VOLUME PRESSAVG GPRESSAVG
ENERGY: 0 1.7069 4.8217 2.5404 0.0000 -10476.3094 1328.6654 0.0000 0.0000 1730.6109 -7407.9642 299.4269 -9138.5750 -7407.9642 299.4269 -787.4514 -701.4513 30122.7032 -787.4514 -701.4513
ENERGY: 300000 1.3167 6.1515 2.8711 0.0000 -10551.5560 1435.0582 0.0000 0.0000 1652.3716 -7453.7869 285.8901 -9106.1586 -7406.3382 299.7002 288.5223 275.9507 29501.8997 -298.2686 -233.2348
ENERGY: 600000 0.3226 3.9182 2.3706 0.0000 -10568.6568 1434.7434 0.0000 0.0000 1698.6150 -7428.6870 293.8910 -9127.3020 -7402.1716 298.3594 79.7234 60.6783 29799.1609 -285.0993 -231.5783
ENERGY: 900000 2.7217 4.7205 2.4305 0.0000 -10386.1522 1283.2221 0.0000 0.0000 1720.9334 -7372.1241 297.7525 -9093.0575 -7393.5204 299.6509 -1177.1859 -1101.2761 30089.3545 -250.0295 -195.7027
ENERGY: 1200000 0.7482 7.0708 2.6089 0.0000 -10452.3491 1355.3069 0.0000 0.0000 1720.0845 -7366.5299 297.6056 -9086.6144 -7388.8409 299.8611 -383.3186 -348.4144 29813.2713 -245.1845 -186.4912
ENERGY: 1500000 0.6752 5.0666 2.9227 0.0000 -10614.6880 1411.1954 0.0000 0.0000 1701.3403 -7493.4879 294.3625 -9194.8282 -7397.1981 299.3741 -330.5944 -270.9614 29915.8181 -206.4685 -145.0167
TCL: Running FEP window  10: Lambda1 0.5499999999999996 Lambda2 0.4999999999999996 [dLambda -0.04999999999999999]
TCL: Setting parameter firsttimestep to 0
TCL: Setting parameter alchLambda to 0.5499999999999996
Info: NONBONDED TABLE R-SQUARED SPACING: 0.0625
Info: NONBONDED TABLE SIZE: 705 POINTS
TCL: Setting parameter alchLambda2 to 0.4999999999999996
Info: NONBONDED TABLE R-SQUARED SPACING: 0.0625
Info: NONBONDED TABLE SIZE: 705 POINTS
TCL: Running for 1500000 steps
ETITLE: TS BOND ANGLE DIHED IMPRP ELECT VDW BOUNDARY MISC KINETIC TOTAL TEMP POTENTIAL TOTALAVG TEMPAVG PRESSURE GPRESSURE VOLUME PRESSAVG GPRESSAVG
ENERGY: 0 0.6752 5.0666 2.9227 0.0000 -10614.7386 1411.3922 0.0000 0.0000 1700.4693 -7494.2127 294.2118 -9194.6820 -7494.2127 294.2118 -361.8175 -275.6185 29915.8181 -361.8175 -275.6185
ENERGY: 300000 1.0151 6.2466 2.3747 0.0000 -10477.3650 1359.4090 0.0000 0.0000 1709.8990 -7398.4205 295.8433 -9108.3195 -7400.3619 297.3511 -340.3525 -234.8802 29462.5550 -292.1735 -203.9217
ENERGY: 600000 1.0485 3.6978 2.2803 0.0000 -10612.7301 1455.0901 0.0000 0.0000 1750.6124 -7400.0009 302.8875 -9150.6133 -7406.9146 298.9492 170.2228 230.1374 29927.3851 -109.3096 -44.5025
ENERGY: 900000 0.7157 9.1319 2.5617 0.0000 -10576.0502 1477.9825 0.0000 0.0000 1748.0985 -7337.5598 302.4525 -9085.6584 -7384.4606 299.9715 639.7446 661.1917 29891.1383 -88.6828 -32.9860
ENERGY: 1200000 0.2909 5.1691 2.7663 0.0000 -10627.8703 1426.0117 0.0000 0.0000 1753.1199 -7440.5124 303.3213 -9193.6323 -7390.5819 300.8658 -78.2251 -28.0896 29744.5605 -62.2333 -14.2069
ENERGY: 1500000 0.1845 6.0959 3.3592 0.0000 -10534.3485 1499.3552 0.0000 0.0000 1777.1178 -7248.2359 307.4734 -9025.3537 -7379.5813 301.6450 776.6445 858.6318 30053.5480 73.6155 121.3735
TCL: Running FEP window  11: Lambda1 0.4999999999999996 Lambda2 0.4499999999999996 [dLambda -0.04999999999999999]
TCL: Setting parameter firsttimestep to 0
TCL: Setting parameter alchLambda to 0.4999999999999996
Info: NONBONDED TABLE R-SQUARED SPACING: 0.0625
Info: NONBONDED TABLE SIZE: 705 POINTS
TCL: Setting parameter alchLambda2 to 0.4499999999999996
Info: NONBONDED TABLE R-SQUARED SPACING: 0.0625
Info: NONBONDED TABLE SIZE: 705 POINTS
TCL: Running for 1500000 steps
ETITLE: TS BOND ANGLE DIHED IMPRP ELECT VDW BOUNDARY MISC KINETIC TOTAL TEMP POTENTIAL TOTALAVG TEMPAVG PRESSURE GPRESSURE VOLUME PRESSAVG GPRESSAVG
ENERGY: 0 0.1845 6.0959 3.3592 0.0000 -10534.3790 1499.3876 0.0000 0.0000 1776.2347 -7249.1171 307.3206 -9025.3518 -7249.1171 307.3206 756.0418 853.8734 30053.5480 756.0418 853.8734
ENERGY: 300000 2.1078 3.6294 2.4878 0.0000 -10443.8325 1348.0050 0.0000 0.0000 1721.9533 -7365.6492 297.9289 -9087.6025 -7306.4196 306.7834 -554.0529 -458.6866 30101.8778 10.9340 97.9128
ENERGY: 600000 0.5675 5.5377 3.2273 0.0000 -10344.4409 1318.1922 0.0000 0.0000 1737.5933 -7279.3229 300.6349 -9016.9162 -7341.4250 302.6584 -629.0189 -524.3053 30097.4029 0.7228 88.7631
ENERGY: 900000 1.5220 9.7663 3.4371 0.0000 -10508.7145 1413.1330 0.0000 0.0000 1665.3807 -7415.4755 288.1409 -9080.8562 -7368.6788 299.6342 189.4773 223.5276 29684.3974 0.0923 80.4066
ENERGY: 1200000 0.4561 3.0602 2.6293 0.0000 -10639.0924 1457.1993 0.0000 0.0000 1727.7830 -7447.9645 298.9376 -9175.7474 -7370.4864 300.0434 278.0183 330.4684 29480.3420 -38.3642 44.5771
ENERGY: 1500000 0.5076 8.0482 4.2821 0.0000 -10495.9607 1386.1345 0.0000 0.0000 1700.2652 -7396.7231 294.1765 -9096.9883 -7370.0672 300.4373 -649.2566 -566.6671 30516.0007 -137.8689 -56.8666
TCL: Running FEP window  12: Lambda1 0.4499999999999996 Lambda2 0.39999999999999963 [dLambda -0.04999999999999999]
TCL: Setting parameter firsttimestep to 0
TCL: Setting parameter alchLambda to 0.4499999999999996
Info: NONBONDED TABLE R-SQUARED SPACING: 0.0625
Info: NONBONDED TABLE SIZE: 705 POINTS
TCL: Setting parameter alchLambda2 to 0.39999999999999963
Info: NONBONDED TABLE R-SQUARED SPACING: 0.0625
Info: NONBONDED TABLE SIZE: 705 POINTS
TCL: Running for 1500000 steps
ETITLE: TS BOND ANGLE DIHED IMPRP ELECT VDW BOUNDARY MISC KINETIC TOTAL TEMP POTENTIAL TOTALAVG TEMPAVG PRESSURE GPRESSURE VOLUME PRESSAVG GPRESSAVG
ENERGY: 0 0.5076 8.0481 4.2821 0.0000 -10495.9607 1385.9132 0.0000 0.0000 1699.4004 -7397.8092 294.0269 -9097.2096 -7397.8092 294.0269 -661.4236 -574.2276 30516.0007 -661.4236 -574.2276
ENERGY: 300000 0.4068 3.9635 3.0598 0.0000 -10504.6581 1327.1273 0.0000 0.0000 1695.3701 -7474.7306 293.3296 -9170.1007 -7405.9369 293.6451 -829.2046 -753.3792 29576.7327 -475.4737 -399.8974
ENERGY: 600000 0.8458 4.6370 2.4266 0.0000 -10457.8952 1351.5271 0.0000 0.0000 1732.3644 -7366.0943 299.7302 -9098.4587 -7391.4246 296.4926 -535.5176 -491.1333 29955.0103 -319.9720 -258.1810
ENERGY: 900000 1.9301 8.2119 2.5137 0.0000 -10553.7082 1409.7408 0.0000 0.0000 1716.5443 -7414.7674 296.9931 -9131.3117 -7401.9650 296.8664 -444.2738 -373.0708 30497.2612 -274.5626 -205.7057
ENERGY: 1200000 0.6879 7.9071 2.8831 0.0000 -10529.8402 1408.6264 0.0000 0.0000 1779.4369 -7330.2989 307.8746 -9109.7358 -7396.5723 298.5863 -51.7566 133.7941 29429.1574 -242.9097 -162.5923
ENERGY: 1500000 1.1099 9.1162 4.5795 0.0000 -10562.7109 1425.2748 0.0000 0.0000 1641.8346 -7480.7959 284.0670 -9122.6305 -7403.0286 297.9011 -170.3996 -144.2435 29858.4149 -203.6470 -133.9488
TCL: Running FEP window  13: Lambda1 0.39999999999999963 Lambda2 0.34999999999999964 [dLambda -0.04999999999999999]
TCL: Setting parameter firsttimestep to 0
TCL: Setting parameter alchLambda to 0.39999999999999963
Info: NONBONDED TABLE R-SQUARED SPACING: 0.0625
Info: NONBONDED TABLE SIZE: 705 POINTS
TCL: Setting parameter alchLambda2 to 0.34999999999999964
Info: NONBONDED TABLE R-SQUARED SPACING: 0.0625
Info: NONBONDED TABLE SIZE: 705 POINTS
TCL: Running for 1500000 steps
ETITLE: TS BOND ANGLE DIHED IMPRP ELECT VDW BOUNDARY MISC KINETIC TOTAL TEMP POTENTIAL TOTALAVG TEMPAVG PRESSURE GPRESSURE VOLUME PRESSAVG GPRESSAVG
ENERGY: 0 1.1099 9.1162 4.5795 0.0000 -10562.7111 1425.5662 0.0000 0.0000 1640.9831 -7481.3563 283.9196 -9122.3394 -7481.3563 283.9196 -227.5486 -147.8341 29858.4149 -227.5486 -147.8341
ENERGY: 300000 0.1937 3.1738 2.6972 0.0000 -10529.4757 1405.7481 0.0000 0.0000 1769.0597 -7348.6033 306.0792 -9117.6629 -7376.5288 301.7445 109.8210 182.1974 29776.8572 162.4658 239.1620
ENERGY: 600000 0.9767 4.8183 2.8766 0.0000 -10309.4223 1303.2925 0.0000 0.0000 1786.3043 -7211.1539 309.0628 -8997.4582 -7354.5366 302.1053 -824.5913 -675.5843 30183.8272 1.0794 84.7676
ENERGY: 900000 3.0771 5.1587 2.6686 0.0000 -10598.9668 1417.9264 0.0000 0.0000 1712.9043 -7457.2318 296.3633 -9170.1362 -7382.5645 301.6086 -265.0566 -201.4590 29988.3848 -4.8099 77.0555
ENERGY: 1200000 0.8742 4.6133 2.5636 0.0000 -10365.4719 1337.3265 0.0000 0.0000 1762.8741 -7257.2202 305.0090 -9020.0944 -7365.8840 301.8232 -490.0743 -419.7856 30015.8575 -90.9470 -14.6674
ENERGY: 1500000 1.1364 6.9035 2.7480 0.0000 -10412.3358 1406.7529 0.0000 0.0000 1679.5999 -7315.1951 290.6010 -8994.7951 -7365.1414 301.3423 81.1326 114.9010 30052.6835 -10.0793 62.0974
TCL: Running FEP window  14: Lambda1 0.34999999999999964 Lambda2 0.29999999999999966 [dLambda -0.04999999999999999]
TCL: Setting parameter firsttimestep to 0
TCL: Setting parameter alchLambda to 0.34999999999999964
Info: NONBONDED TABLE R-SQUARED SPACING: 0.0625
Info: NONBONDED TABLE SIZE: 705 POINTS
TCL: Setting parameter alchLambda2 to 0.29999999999999966
Info: NONBONDED TABLE R-SQUARED SPACING: 0.0625
Info: NONBONDED TABLE SIZE: 705 POINTS
TCL: Running for 1500000 steps
ETITLE: TS BOND ANGLE DIHED IMPRP ELECT VDW BOUNDARY MISC KINETIC TOTAL TEMP POTENTIAL TOTALAVG TEMPAVG PRESSURE GPRESSURE VOLUME PRESSAVG GPRESSAVG
ENERGY: 0 1.1364 6.9035 2.7480 0.0000 -10412.3354 1406.7852 0.0000 0.0000 1678.7356 -7316.0267 290.4515 -8994.7623 -7316.0267 290.4515 20.8274 109.1979 30052.6835 20.8274 109.1979
ENERGY: 300000 1.1270 5.9046 2.8963 0.0000 -10538.8200 1376.9746 0.0000 0.0000 1738.6936 -7413.2238 300.8253 -9151.9174 -7343.6593 302.2676 -206.3790 -135.9744 29406.1699 -259.8340 -200.3986
ENERGY: 600000 1.5819 7.6275 4.6753 0.0000 -10569.4952 1413.4447 0.0000 0.0000 1729.6218 -7412.5441 299.2557 -9142.1658 -7377.5334 300.4830 -215.3797 -179.1985 29920.8114 -253.7886 -194.9708
ENERGY: 900000 0.3778 6.0926 3.2989 0.0000 -10522.8046 1413.5604 0.0000 0.0000 1707.0575 -7392.4174 295.3517 -9099.4749 -7388.6076 298.9377 -66.1215 -28.1937 29740.7790 -255.5936 -190.8322
ENERGY: 1200000 0.6330 11.7804 2.8334 0.0000 -10653.7283 1554.6044 0.0000 0.0000 1751.8880 -7331.9892 303.1082 -9083.8772 -7383.7057 299.7520 1149.6695 1198.2177 29708.7686 -152.1395 -89.8485
ENERGY: 1500000 2.4779 9.8699 3.7186 0.0000 -10390.9651 1340.1308 0.0000 0.0000 1690.3870 -7344.3810 292.4674 -9034.7679 -7374.2520 300.0752 -434.5012 -426.9602 30107.6701 -205.1597 -143.6102
TCL: Running FEP window  15: Lambda1 0.29999999999999966 Lambda2 0.24999999999999967 [dLambda -0.04999999999999999]
TCL: Setting parameter firsttimestep to 0
TCL: Setting parameter alchLambda to 0.29999999999999966
Info: NONBONDED TABLE R-SQUARED SPACING: 0.0625
Info: NONBONDED TABLE SIZE: 705 POINTS
TCL: Setting parameter alchLambda2 to 0.24999999999999967
Info: NONBONDED TABLE R-SQUARED SPACING: 0.0625
Info: NONBONDED TABLE SIZE: 705 POINTS
TCL: Running for 1500000 steps
ETITLE: TS BOND ANGLE DIHED IMPRP ELECT VDW BOUNDARY MISC KINETIC TOTAL TEMP POTENTIAL TOTALAVG TEMPAVG PRESSURE GPRESSURE VOLUME PRESSAVG GPRESSAVG
ENERGY: 0 2.4779 9.8699 3.7186 0.0000 -10390.9652 1340.1040 0.0000 0.0000 1689.5111 -7345.2837 292.3159 -9034.7948 -7345.2837 292.3159 -513.2348 -434.4382 30107.6701 -513.2348 -434.4382
ENERGY: 300000 0.8076 5.1295 2.6570 0.0000 -10547.2667 1451.5178 0.0000 0.0000 1677.3958 -7409.7590 290.2197 -9087.1548 -7377.2006 297.6271 500.2997 511.8953 29515.7637 18.7437 40.6813
ENERGY: 600000 1.1053 5.4146 2.6108 0.0000 -10617.9539 1505.2878 0.0000 0.0000 1750.4593 -7353.0761 302.8610 -9103.5354 -7371.7247 298.7489 587.0671 598.5793 29909.8986 -28.3885 12.6631
ENERGY: 900000 1.7519 7.1940 2.5677 0.0000 -10545.9861 1490.7327 0.0000 0.0000 1691.5074 -7352.2324 292.6612 -9043.7398 -7372.1789 298.5746 687.4738 705.3750 29905.2730 -42.9805 -2.3474
ENERGY: 1200000 0.4590 5.2716 3.8710 0.0000 -10669.3654 1506.5432 0.0000 0.0000 1827.5915 -7325.6291 316.2062 -9153.2206 -7369.1543 300.1343 848.1511 889.0596 29352.9774 0.0354 42.1991
ENERGY: 1500000 1.0064 4.8303 3.2552 0.0000 -10487.6851 1394.0707 0.0000 0.0000 1721.5126 -7363.0098 297.8527 -9084.5224 -7369.2641 299.8480 -276.5998 -203.2451 30120.2004 -32.7315 14.7789
TCL: Running FEP window  16: Lambda1 0.24999999999999967 Lambda2 0.19999999999999968 [dLambda -0.04999999999999999]
TCL: Setting parameter firsttimestep to 0
TCL: Setting parameter alchLambda to 0.24999999999999967
Info: NONBONDED TABLE R-SQUARED SPACING: 0.0625
Info: NONBONDED TABLE SIZE: 705 POINTS
TCL: Setting parameter alchLambda2 to 0.19999999999999968
Info: NONBONDED TABLE R-SQUARED SPACING: 0.0625
Info: NONBONDED TABLE SIZE: 705 POINTS
TCL: Running for 1500000 steps
ETITLE: TS BOND ANGLE DIHED IMPRP ELECT VDW BOUNDARY MISC KINETIC TOTAL TEMP POTENTIAL TOTALAVG TEMPAVG PRESSURE GPRESSURE VOLUME PRESSAVG GPRESSAVG
ENERGY: 0 1.0064 4.8303 3.2552 0.0000 -10487.6843 1394.0134 0.0000 0.0000 1720.6571 -7363.9218 297.7047 -9084.5789 -7363.9218 297.7047 -287.5289 -207.8941 30120.2004 -287.5289 -207.8941
ENERGY: 300000 0.5608 6.4663 2.5184 0.0000 -10600.2005 1442.6722 0.0000 0.0000 1743.3551 -7404.6278 301.6318 -9147.9829 -7384.7790 300.9636 164.4697 271.1935 29667.0097 -324.6012 -239.2701
ENERGY: 600000 1.0120 5.6625 2.6264 0.0000 -10498.0474 1385.7443 0.0000 0.0000 1733.7626 -7369.2396 299.9722 -9103.0022 -7373.6107 300.8465 -558.9075 -477.4153 30207.7399 -100.0571 -11.4194
ENERGY: 900000 0.8402 6.0837 2.7862 0.0000 -10630.2426 1479.9572 0.0000 0.0000 1714.2129 -7426.3624 296.5897 -9140.5753 -7401.6722 298.4408 440.8855 531.4125 29610.1836 63.5056 139.9302
ENERGY: 1200000 0.5864 4.9383 2.4423 0.0000 -10629.3140 1485.3673 0.0000 0.0000 1704.1662 -7431.8135 294.8514 -9135.9796 -7394.5710 299.0144 81.3565 148.9838 30396.3551 33.3483 111.7766
ENERGY: 1500000 0.9699 6.4440 3.7844 0.0000 -10491.7613 1413.4021 0.0000 0.0000 1707.0907 -7360.0703 295.3574 -9067.1610 -7390.0717 298.7251 175.8284 218.7017 29710.1669 32.0989 103.2184
TCL: Running FEP window  17: Lambda1 0.19999999999999968 Lambda2 0.1499999999999997 [dLambda -0.04999999999999999]
TCL: Setting parameter firsttimestep to 0
TCL: Setting parameter alchLambda to 0.19999999999999968
Info: NONBONDED TABLE R-SQUARED SPACING: 0.0625
Info: NONBONDED TABLE SIZE: 705 POINTS
TCL: Setting parameter alchLambda2 to 0.1499999999999997
Info: NONBONDED TABLE R-SQUARED SPACING: 0.0625
Info: NONBONDED TABLE SIZE: 705 POINTS
TCL: Running for 1500000 steps
ETITLE: TS BOND ANGLE DIHED IMPRP ELECT VDW BOUNDARY MISC KINETIC TOTAL TEMP POTENTIAL TOTALAVG TEMPAVG PRESSURE GPRESSURE VOLUME PRESSAVG GPRESSAVG
ENERGY: 0 0.9699 6.4440 3.7844 0.0000 -10491.7616 1413.7188 0.0000 0.0000 1706.2024 -7360.6421 295.2037 -9066.8445 -7360.6421 295.2037 137.5991 218.1572 29710.1669 137.5991 218.1572
ENERGY: 300000 0.6949 7.2167 3.0970 0.0000 -10522.7765 1432.7660 0.0000 0.0000 1747.4440 -7331.5580 302.3393 -9079.0019 -7340.8060 302.1897 38.4532 150.0513 30068.5743 26.0484 118.8828
ENERGY: 600000 0.8575 4.9081 3.0307 0.0000 -10582.2010 1389.0391 0.0000 0.0000 1749.5565 -7434.8090 302.7048 -9184.3656 -7351.3284 302.4200 -583.0369 -528.8676 30171.2093 -1.0519 77.1263
ENERGY: 900000 1.2402 5.1687 2.8747 0.0000 -10552.5792 1399.5008 0.0000 0.0000 1796.6439 -7347.1509 310.8518 -9143.7948 -7352.9473 302.0300 -244.1212 -231.1400 29863.0848 -151.5282 -85.1349
ENERGY: 1200000 0.8651 3.1674 2.4587 0.0000 -10586.4824 1448.1420 0.0000 0.0000 1677.3310 -7454.5182 290.2085 -9131.8492 -7365.6317 301.7763 215.2385 236.3334 29782.0250 -59.3269 11.3278
ENERGY: 1500000 1.7805 7.0916 2.6592 0.0000 -10486.8337 1446.3415 0.0000 0.0000 1766.1535 -7262.8075 305.5764 -9028.9610 -7365.9348 301.1149 87.2739 158.1564 30299.5294 -65.7101 2.7867
TCL: Running FEP window  18: Lambda1 0.1499999999999997 Lambda2 0.09999999999999969 [dLambda -0.05 ]
TCL: Setting parameter firsttimestep to 0
TCL: Setting parameter alchLambda to 0.1499999999999997
Info: NONBONDED TABLE R-SQUARED SPACING: 0.0625
Info: NONBONDED TABLE SIZE: 705 POINTS
TCL: Setting parameter alchLambda2 to 0.09999999999999969
Info: NONBONDED TABLE R-SQUARED SPACING: 0.0625
Info: NONBONDED TABLE SIZE: 705 POINTS
TCL: Running for 1500000 steps
ETITLE: TS BOND ANGLE DIHED IMPRP ELECT VDW BOUNDARY MISC KINETIC TOTAL TEMP POTENTIAL TOTALAVG TEMPAVG PRESSURE GPRESSURE VOLUME PRESSAVG GPRESSAVG
ENERGY: 0 1.7805 7.0916 2.6592 0.0000 -10486.8342 1445.8804 0.0000 0.0000 1765.2534 -7264.1692 305.4206 -9029.4226 -7264.1692 305.4206 71.2044 156.1729 30299.5294 71.2044 156.1729
ENERGY: 300000 2.5669 7.3872 3.7630 0.0000 -10376.0672 1306.4489 0.0000 0.0000 1763.8746 -7292.0266 305.1821 -9055.9012 -7313.0362 304.6625 -750.1679 -620.4471 30107.4934 -114.8746 -27.1246
ENERGY: 600000 0.3760 8.5214 2.3916 0.0000 -10440.3186 1412.8110 0.0000 0.0000 1812.1181 -7204.1006 313.5291 -9016.2187 -7335.1266 302.3475 271.3288 300.3833 30078.7452 -5.0318 69.2674
ENERGY: 900000 0.9270 3.2181 2.8927 0.0000 -10557.9689 1463.5635 0.0000 0.0000 1769.9587 -7317.4089 306.2347 -9087.3676 -7356.9180 300.8331 455.1482 548.2211 29843.3273 89.6887 158.8737
ENERGY: 1200000 0.6716 6.2511 2.9125 0.0000 -10513.4541 1405.3464 0.0000 0.0000 1731.3126 -7366.9600 299.5483 -9098.2725 -7351.4828 300.3167 13.0930 103.6048 29838.0698 103.8070 177.8604
ENERGY: 1500000 1.6383 6.2805 2.5909 0.0000 -10389.1427 1314.8721 0.0000 0.0000 1713.4653 -7350.2955 296.4604 -9063.7609 -7346.6490 300.6358 -1090.6423 -1044.9978 30452.2679 3.1690 75.3563
TCL: Running FEP window  19: Lambda1 0.09999999999999969 Lambda2 0.049999999999999684 [dLambda -0.05 ]
TCL: Setting parameter firsttimestep to 0
TCL: Setting parameter alchLambda to 0.09999999999999969
Info: NONBONDED TABLE R-SQUARED SPACING: 0.0625
Info: NONBONDED TABLE SIZE: 705 POINTS
TCL: Setting parameter alchLambda2 to 0.049999999999999684
Info: NONBONDED TABLE R-SQUARED SPACING: 0.0625
Info: NONBONDED TABLE SIZE: 705 POINTS
TCL: Running for 1500000 steps
ETITLE: TS BOND ANGLE DIHED IMPRP ELECT VDW BOUNDARY MISC KINETIC TOTAL TEMP POTENTIAL TOTALAVG TEMPAVG PRESSURE GPRESSURE VOLUME PRESSAVG GPRESSAVG
ENERGY: 0 1.6383 6.2805 2.5909 0.0000 -10389.1430 1314.1818 0.0000 0.0000 1712.5873 -7351.8641 296.3084 -9064.4514 -7351.8641 296.3084 -1127.4564 -1049.5661 30452.2679 -1127.4564 -1049.5661
ENERGY: 300000 0.8524 7.5015 2.3700 0.0000 -10517.1926 1416.8771 0.0000 0.0000 1723.9634 -7365.6282 298.2767 -9089.5916 -7329.3719 302.2963 -181.7012 -84.2701 30014.7139 -66.7139 3.8224
ENERGY: 600000 1.6040 9.6935 2.8330 0.0000 -10539.1258 1395.7641 0.0000 0.0000 1711.9857 -7417.2455 296.2044 -9129.2312 -7341.8039 300.5648 -508.1843 -480.1020 30061.0461 -271.3500 -219.8605
ENERGY: 900000 1.8994 3.8144 2.8442 0.0000 -10572.1158 1443.2015 0.0000 0.0000 1714.6342 -7405.7221 296.6626 -9120.3563 -7358.2919 299.8888 214.9882 210.0546 29816.2721 -78.5408 -41.5425
ENERGY: 1200000 1.1264 6.9144 3.5862 0.0000 -10719.4555 1514.2351 0.0000 0.0000 1709.0953 -7484.4980 295.7043 -9193.5933 -7377.1206 299.5585 424.9212 555.5173 29614.1897 -43.9282 1.0418
ENERGY: 1500000 3.5559 7.4822 3.5252 0.0000 -10619.7503 1467.6528 0.0000 0.0000 1717.1273 -7420.4068 297.0940 -9137.5341 -7365.2616 300.1443 342.9349 353.1693 29405.3224 -67.6347 -22.0706
TCL: Running FEP window  20: Lambda1 0.049999999999999684 Lambda2 0.0    [dLambda -0.049999999999999684]
TCL: Setting parameter firsttimestep to 0
TCL: Setting parameter alchLambda to 0.049999999999999684
Info: NONBONDED TABLE R-SQUARED SPACING: 0.0625
Info: NONBONDED TABLE SIZE: 705 POINTS
TCL: Setting parameter alchLambda2 to 0.0
Info: NONBONDED TABLE R-SQUARED SPACING: 0.0625
Info: NONBONDED TABLE SIZE: 705 POINTS
TCL: Running for 1500000 steps
ETITLE: TS BOND ANGLE DIHED IMPRP ELECT VDW BOUNDARY MISC KINETIC TOTAL TEMP POTENTIAL TOTALAVG TEMPAVG PRESSURE GPRESSURE VOLUME PRESSAVG GPRESSAVG
ENERGY: 0 3.5559 7.4822 3.5252 0.0000 -10619.7500 1467.8420 0.0000 0.0000 1716.2507 -7421.0939 296.9423 -9137.3446 -7421.0939 296.9423 270.9572 353.4104 29405.3224 270.9572 353.4104
ENERGY: 300000 1.4005 5.3812 2.5819 0.0000 -10537.3104 1439.1437 0.0000 0.0000 1737.0741 -7351.7290 300.5451 -9088.8031 -7385.2552 296.9547 272.0895 343.0616 29918.0639 78.7467 133.6892
ENERGY: 600000 2.3860 5.7374 2.7857 0.0000 -10510.8858 1381.1209 0.0000 0.0000 1818.4610 -7300.3948 314.6265 -9118.8559 -7387.2035 298.4726 -591.0504 -467.8231 29991.9392 -169.1803 -106.5226
ENERGY: 900000 0.2846 5.3978 2.8903 0.0000 -10709.5694 1533.9250 0.0000 0.0000 1753.5439 -7413.5278 303.3947 -9167.0717 -7390.7639 298.9318 857.1537 827.0624 29642.0942 -146.2607 -90.5312
ENERGY: 1200000 1.2406 5.9352 2.6967 0.0000 -10501.1385 1421.2921 0.0000 0.0000 1694.1974 -7375.7765 293.1267 -9069.9739 -7390.0438 297.5698 -122.6296 -93.4828 30316.8822 -186.5049 -134.3930
ENERGY: 1500000 0.6256 5.9336 2.5608 0.0000 -10466.8346 1390.5412 0.0000 0.0000 1723.7020 -7343.4713 298.2315 -9067.1734 -7384.9679 297.6395 -121.7982 -25.1556 29663.7984 -156.0620 -102.4114
TCL: Exiting due to exit command.
