Info: SIMULATION PARAMETERS:
Info: TIMESTEP               2
Info: NUMBER OF STEPS        0
Info: STEPS PER CYCLE        10
Info: PERIODIC CELL BASIS 1  33.1463 0 0
Info: PERIODIC CELL BASIS 2  0 31.3542 0
Info: PERIODIC CELL BASIS 3  0 0 29.2973
Info: PERIODIC CELL CENTER   0 0 0
Info: WRAPPING WATERS AROUND PERIODIC BOUNDARIES ON OUTPUT.
Info: WRAPPING ALL CLUSTERS AROUND PERIODIC BOUNDARIES ON OUTPUT.
Info: FIRST LDB TIMESTEP     50
Info: LAST LDB TIMESTEP     -1
Info: HOM BACKGROUND SCALING 1
Info: PME BACKGROUND SCALING 1
Info: MIN ATOMS PER PATCH    40
Info: EMPTY PATCH LOAD       40 ATOMS
Info: VELOCITY FILE          mobley_5110043_equil.vel
Info: CENTER OF MASS MOVING INITIALLY? NO
Info: DIELECTRIC             1
Info: EXCLUDE                SCALED ONE-FOUR
Info: 1-4 ELECTROSTATICS SCALED BY 0.833333
Info: MODIFIED 1-4 VDW PARAMETERS WILL BE USED
Info: DCD FILENAME           mobley_5110043_prod.dcd
Info: DCD FREQUENCY          100000
Info: DCD FIRST STEP         100000
Info: DCD FILE WILL CONTAIN UNIT CELL DATA
Info: XST FILENAME           mobley_5110043_prod.xst
Info: XST FREQUENCY          100000
Info: NO VELOCITY DCD OUTPUT
Info: NO FORCE DCD OUTPUT
Info: OUTPUT FILENAME        mobley_5110043_prod
Info: BINARY OUTPUT FILES WILL BE USED
Info: RESTART FILENAME       mobley_5110043_prod.restart
Info: RESTART FREQUENCY      100000
Info: BINARY RESTART FILES WILL BE USED
Info: CUTOFF                 9
Info: PAIRLIST DISTANCE      11
Info: PAIRLIST SHRINK RATE   0.01
Info: PAIRLIST GROW RATE     0.01
Info: PAIRLIST TRIGGER       0.3
Info: PAIRLISTS PER CYCLE    2
Info: PAIRLISTS ENABLED
Info: MARGIN                 2
Info: HYDROGEN GROUP CUTOFF  2.5
Info: PATCH DIMENSION        15.5
Info: ENERGY OUTPUT STEPS    100000
Info: ENERGY EVALUATION STEPS    100000
Info: OUTPUT ENERGY PRECISION 4
Info: CROSSTERM ENERGY INCLUDED IN DIHEDRAL
Info: TIMING OUTPUT STEPS    1000000
Info: PRESSURE OUTPUT STEPS  100000
Info: ALCHEMICAL FEP ON
Info: FEP CURRENT LAMBDA VALUE     1
Info: FEP COMPARISON LAMBDA VALUE  0.95
Info: FEP INTRA-ALCHEMICAL NON-BONDED INTERACTIONS WILL BE RETAINED
Info: FEP INTRA-ALCHEMICAL BONDED INTERACTIONS WILL BE RETAINED
Info: FEP VDW SHIFTING COEFFICIENT 5
Info: FEP ELEC. ACTIVE FOR ANNIHILATED PARTICLES BETWEEN LAMBDA = 0 AND LAMBDA = 0.5
Info: FEP ELEC. ACTIVE FOR EXNIHILATED PARTICLES BETWEEN LAMBDA = 0.5 AND LAMBDA = 1
Info: FEP VDW ACTIVE FOR ANNIHILATED PARTICLES BETWEEN LAMBDA = 0 AND LAMBDA = 1
Info: FEP VDW ACTIVE FOR EXNIHILATED PARTICLES BETWEEN LAMBDA = 0 AND LAMBDA = 1
Info: FEP BOND ACTIVE FOR ANNIHILATED PARTICLES BETWEEN LAMBDA = 1 AND LAMBDA = 1
Info: FEP BOND ACTIVE FOR EXNIHILATED PARTICLES BETWEEN LAMBDA = 0 AND LAMBDA = 0
Info: LANGEVIN DYNAMICS ACTIVE
Info: LANGEVIN TEMPERATURE   300
Info: LANGEVIN USING BBK INTEGRATOR
Info: LANGEVIN DAMPING COEFFICIENT IS 1 INVERSE PS
Info: LANGEVIN DYNAMICS APPLIED TO HYDROGENS
Info: LANGEVIN PISTON PRESSURE CONTROL ACTIVE
Info:        TARGET PRESSURE IS 1.01325 BAR
Info:     OSCILLATION PERIOD IS 50 FS
Info:             DECAY TIME IS 25 FS
Info:     PISTON TEMPERATURE IS 300 K
Info:       PRESSURE CONTROL IS GROUP-BASED
Info:    INITIAL STRAIN RATE IS -0.000172438 -0.000172438 -0.000172438
Info:       CELL FLUCTUATION IS ISOTROPIC
Info: PARTICLE MESH EWALD (PME) ACTIVE
Info: PME TOLERANCE               1e-06
Info: PME EWALD COEFFICIENT       0.348832
Info: PME INTERPOLATION ORDER     4
Info: PME GRID DIMENSIONS         36 32 32
Info: PME MAXIMUM GRID SPACING    1
Info: PME CALCULATION WILL BE PERFORMED ON GPU
Info: FULL ELECTROSTATIC EVALUATION FREQUENCY      2
Info: USING VERLET I (r-RESPA) MTS SCHEME.
Info: C1 SPLITTING OF LONG RANGE ELECTROSTATICS
Info: PLACING ATOMS IN PATCHES BY HYDROGEN GROUPS
Info: RIGID BONDS TO HYDROGEN : ALL
Info:         ERROR TOLERANCE : 1e-08
Info:          MAX ITERATIONS : 100
Info: RIGID WATER USING SETTLE ALGORITHM
Info: RANDOM NUMBER SEED     1743651551
Info: USE HYDROGEN BONDS?    NO
Info: Using AMBER format force field!
Info: AMBER PARM FILE        mobley_5110043.prmtop
Info: COORDINATE PDB         mobley_5110043.pdb
Info: Exclusions will be read from PARM file!
Info: SCNB (VDW SCALING)     2
Info: USING ARITHMETIC MEAN TO COMBINE L-J SIGMA PARAMETERS
Info: BINARY COORDINATES     mobley_5110043_equil.coor
Info: SUMMARY OF PARAMETERS:
Info: 6 BONDS
Info: 5 ANGLES
Info:   5 HARMONIC
Info:   0 COSINE-BASED
Info: 3 DIHEDRAL
Info: 0 IMPROPER
Info: 0 CROSSTERM
Info: 0 VDW
Info: 21 VDW_PAIRS
Info: 0 NBTHOLE_PAIRS
Info: To read alchdata from file: mobley_5110043.pdb
Info: To read alchflag data from column: 5
Info: STRUCTURE SUMMARY:
Info: 2955 ATOMS
Info: 2956 BONDS
Info: 42 ANGLES
Info: 66 DIHEDRALS
Info: 0 IMPROPERS
Info: 0 CROSSTERMS
Info: 3048 EXCLUSIONS
Info: 2943 RIGID BONDS
Info: ALCH: 0 ATOMS TO DISAPPEAR IN FINAL STATE
Info: ALCH: 24 ATOMS TO APPEAR IN FINAL STATE
Info: 5922 DEGREES OF FREEDOM
Info: 989 HYDROGEN GROUPS
Info: 4 ATOMS IN LARGEST HYDROGEN GROUP
Info: 989 MIGRATION GROUPS
Info: 4 ATOMS IN LARGEST MIGRATION GROUP
Info: TOTAL MASS = 17757.8 amu
Info: TOTAL CHARGE = -9.99793e-05 e
Info: MASS DENSITY = 0.968481 g/cm^3
Info: ATOM DENSITY = 0.0970508 atoms/A^3
Info: ADDED 0 IMPLICIT EXCLUSIONS
Info: NONBONDED TABLE R-SQUARED SPACING: 0.0625
Info: NONBONDED TABLE SIZE: 705 POINTS
Info: REDUCING NUMBER OF PATCHES TO IMPROVE LOAD BALANCE
Info: REMOVING COM VELOCITY 0.0112208 -0.215571 0.12847
Info: Use 3D box decompostion in PME FFT.
Info: Updated CUDA force table with 4096 elements.
Info: Updated CUDA LJ table with 6 x 6 elements.
Info: Found 25 unique exclusion lists needing 84 bytes
TCL: Running for 1500000 steps
ETITLE: TS BOND ANGLE DIHED IMPRP ELECT VDW BOUNDARY MISC KINETIC TOTAL TEMP POTENTIAL TOTALAVG TEMPAVG PRESSURE GPRESSURE VOLUME PRESSAVG GPRESSAVG
ENERGY: 0 6.2887 4.6190 2.4742 0.0000 -10639.9265 1424.6903 0.0000 0.0000 1791.7005 -7410.1540 304.5001 -9201.8545 -7410.1540 304.5001 -121.0033 -31.3376 30447.9666 -121.0033 -31.3376
ENERGY: 300000 3.5312 6.5307 4.5375 0.0000 -10766.2778 1456.3550 0.0000 0.0000 1741.9115 -7553.4119 296.0384 -9295.3234 -7496.4845 297.1233 -3.9387 104.4713 30364.4568 -33.9742 48.6687
ENERGY: 600000 5.6605 7.6561 5.6441 0.0000 -10675.0563 1470.7726 0.0000 0.0000 1769.5699 -7415.7530 300.7390 -9185.3229 -7477.5451 297.8441 363.9673 459.3665 30540.9719 -21.2733 52.4188
ENERGY: 900000 3.0335 8.6865 5.0459 0.0000 -10602.3585 1415.9038 0.0000 0.0000 1744.0738 -7425.6151 296.4059 -9169.6889 -7468.6355 298.0136 -64.5876 -29.3945 30970.8345 15.4686 83.0775
ENERGY: 1200000 7.5031 7.9573 3.6510 0.0000 -10626.0427 1338.1583 0.0000 0.0000 1719.7214 -7549.0515 292.2672 -9268.7730 -7470.3642 297.3380 -896.3012 -867.1866 30348.9466 -46.1582 24.3115
ENERGY: 1500000 6.5578 4.4166 3.2308 0.0000 -10829.8224 1541.0893 0.0000 0.0000 1768.4439 -7506.0840 300.5476 -9274.5279 -7466.9961 297.5680 712.7878 808.8362 30547.9277 35.7192 106.2417
TCL: Running FEP window   2: Lambda1 0.95   Lambda2 0.8999999999999999 [dLambda -0.050000000000000044]
TCL: Setting parameter firsttimestep to 0
TCL: Setting parameter alchLambda to 0.95
Info: NONBONDED TABLE R-SQUARED SPACING: 0.0625
Info: NONBONDED TABLE SIZE: 705 POINTS
TCL: Setting parameter alchLambda2 to 0.8999999999999999
Info: NONBONDED TABLE R-SQUARED SPACING: 0.0625
Info: NONBONDED TABLE SIZE: 705 POINTS
TCL: Running for 1500000 steps
ETITLE: TS BOND ANGLE DIHED IMPRP ELECT VDW BOUNDARY MISC KINETIC TOTAL TEMP POTENTIAL TOTALAVG TEMPAVG PRESSURE GPRESSURE VOLUME PRESSAVG GPRESSAVG
ENERGY: 0 6.5578 4.4166 3.2308 0.0000 -10828.5408 1541.5562 0.0000 0.0000 1767.5797 -7505.1998 300.4007 -9272.7794 -7505.1998 300.4007 737.3295 799.9950 30547.9277 737.3295 799.9950
ENERGY: 300000 2.3054 7.1144 5.5938 0.0000 -10736.1113 1457.9696 0.0000 0.0000 1734.3454 -7528.7828 294.7526 -9263.1282 -7485.6669 298.4205 119.3524 297.4378 30320.6992 258.9608 353.6689
ENERGY: 600000 4.2418 4.9395 7.7249 0.0000 -10536.1641 1387.0945 0.0000 0.0000 1788.2559 -7343.9075 303.9147 -9132.1634 -7457.2215 299.5038 154.6608 230.1779 30356.4218 12.6981 96.3804
ENERGY: 900000 4.0144 5.4311 2.5326 0.0000 -10877.0478 1535.9284 0.0000 0.0000 1759.0510 -7570.0902 298.9513 -9329.1412 -7455.8687 301.0006 895.9770 943.2325 29838.6929 70.5664 143.9751
ENERGY: 1200000 3.5057 7.4107 4.6819 0.0000 -10823.1338 1556.1013 0.0000 0.0000 1815.7421 -7435.6920 308.5859 -9251.4341 -7459.0364 301.3233 975.7178 1024.5612 30174.8922 28.9719 98.0539
ENERGY: 1500000 3.4326 5.4453 7.2269 0.0000 -10675.2291 1425.3356 0.0000 0.0000 1798.5249 -7435.2639 305.6599 -9233.7887 -7460.3229 301.7893 -196.6945 -57.5091 30627.7639 -14.8997 61.9464
TCL: Running FEP window   3: Lambda1 0.8999999999999999 Lambda2 0.8499999999999999 [dLambda -0.050000000000000044]
TCL: Setting parameter firsttimestep to 0
TCL: Setting parameter alchLambda to 0.8999999999999999
Info: NONBONDED TABLE R-SQUARED SPACING: 0.0625
Info: NONBONDED TABLE SIZE: 705 POINTS
TCL: Setting parameter alchLambda2 to 0.8499999999999999
Info: NONBONDED TABLE R-SQUARED SPACING: 0.0625
Info: NONBONDED TABLE SIZE: 705 POINTS
TCL: Running for 1500000 steps
ETITLE: TS BOND ANGLE DIHED IMPRP ELECT VDW BOUNDARY MISC KINETIC TOTAL TEMP POTENTIAL TOTALAVG TEMPAVG PRESSURE GPRESSURE VOLUME PRESSAVG GPRESSAVG
ENERGY: 0 3.4325 5.4453 7.2269 0.0000 -10674.3636 1425.5132 0.0000 0.0000 1797.6013 -7435.1444 305.5029 -9232.7457 -7435.1444 305.5029 -156.0832 -69.5454 30627.7639 -156.0832 -69.5454
ENERGY: 300000 2.9145 9.0662 9.9755 0.0000 -10719.5091 1483.2358 0.0000 0.0000 1742.6519 -7471.6652 296.1642 -9214.3171 -7487.5170 296.5893 185.9390 271.9090 30975.4294 -223.2540 -148.2794
ENERGY: 600000 5.3158 5.8330 2.1544 0.0000 -10652.5088 1391.4401 0.0000 0.0000 1820.9525 -7426.8130 309.4715 -9247.7655 -7466.1612 299.5741 -338.6226 -259.8871 30485.1244 -277.4884 -194.1313
ENERGY: 900000 10.2375 5.0936 5.9557 0.0000 -10626.4255 1400.6164 0.0000 0.0000 1783.5453 -7420.9770 303.1141 -9204.5223 -7463.4270 298.7702 -369.6346 -268.8797 30379.3778 -239.6764 -164.3844
ENERGY: 1200000 2.7673 13.1461 5.2109 0.0000 -10527.4231 1353.8512 0.0000 0.0000 1786.2414 -7366.2062 303.5723 -9152.4476 -7456.0070 299.3287 -582.0930 -483.8328 30855.1120 -229.5837 -163.4228
ENERGY: 1500000 4.0303 6.7275 4.3289 0.0000 -10705.4594 1433.4155 0.0000 0.0000 1761.1848 -7495.7725 299.3139 -9256.9573 -7449.7543 300.3442 43.0093 47.6122 30397.4617 -129.2273 -67.2525
TCL: Running FEP window   4: Lambda1 0.8499999999999999 Lambda2 0.7999999999999998 [dLambda -0.050000000000000044]
TCL: Setting parameter firsttimestep to 0
TCL: Setting parameter alchLambda to 0.8499999999999999
Info: NONBONDED TABLE R-SQUARED SPACING: 0.0625
Info: NONBONDED TABLE SIZE: 705 POINTS
TCL: Setting parameter alchLambda2 to 0.7999999999999998
Info: NONBONDED TABLE R-SQUARED SPACING: 0.0625
Info: NONBONDED TABLE SIZE: 705 POINTS
TCL: Running for 1500000 steps
ETITLE: TS BOND ANGLE DIHED IMPRP ELECT VDW BOUNDARY MISC KINETIC TOTAL TEMP POTENTIAL TOTALAVG TEMPAVG PRESSURE GPRESSURE VOLUME PRESSAVG GPRESSAVG
ENERGY: 0 4.0303 6.7275 4.3289 0.0000 -10704.1963 1433.7167 0.0000 0.0000 1760.3126 -7495.0804 299.1657 -9255.3930 -7495.0804 299.1657 -40.2770 40.2284 30397.4617 -40.2770 40.2284
ENERGY: 300000 4.1832 7.8131 2.9796 0.0000 -10776.8980 1515.1153 0.0000 0.0000 1800.2978 -7446.5090 305.9612 -9246.8067 -7475.9006 300.2853 892.5842 1031.8132 29718.5142 121.7644 184.4339
ENERGY: 600000 4.2801 7.0338 5.1580 0.0000 -10705.0882 1441.5887 0.0000 0.0000 1826.7532 -7420.2744 310.4573 -9247.0276 -7460.1655 302.0015 228.0167 297.8709 30130.1679 74.6093 137.6203
ENERGY: 900000 3.6347 6.2508 3.5403 0.0000 -10664.0981 1467.8342 0.0000 0.0000 1775.9698 -7406.8682 301.8266 -9182.8380 -7459.7941 300.7414 212.2789 307.8184 30671.5284 17.5256 79.5313
ENERGY: 1200000 7.3542 8.4486 4.7802 0.0000 -10731.3773 1505.0021 0.0000 0.0000 1774.8186 -7430.9735 301.6310 -9205.7922 -7455.4792 300.3592 462.4788 525.8179 30400.0725 61.8242 126.0494
ENERGY: 1500000 4.7119 8.8136 4.5748 0.0000 -10750.0793 1514.6171 0.0000 0.0000 1780.2220 -7437.1400 302.5493 -9217.3619 -7458.3824 300.0207 882.0663 966.0279 30117.2247 75.6664 142.8052
TCL: Running FEP window   5: Lambda1 0.7999999999999998 Lambda2 0.7499999999999998 [dLambda -0.050000000000000044]
TCL: Setting parameter firsttimestep to 0
TCL: Setting parameter alchLambda to 0.7999999999999998
Info: NONBONDED TABLE R-SQUARED SPACING: 0.0625
Info: NONBONDED TABLE SIZE: 705 POINTS
TCL: Setting parameter alchLambda2 to 0.7499999999999998
Info: NONBONDED TABLE R-SQUARED SPACING: 0.0625
Info: NONBONDED TABLE SIZE: 705 POINTS
TCL: Running for 1500000 steps
ETITLE: TS BOND ANGLE DIHED IMPRP ELECT VDW BOUNDARY MISC KINETIC TOTAL TEMP POTENTIAL TOTALAVG TEMPAVG PRESSURE GPRESSURE VOLUME PRESSAVG GPRESSAVG
ENERGY: 0 4.7119 8.8136 4.5748 0.0000 -10749.3016 1515.0192 0.0000 0.0000 1779.3257 -7436.8564 302.3970 -9216.1820 -7436.8564 302.3970 869.6283 960.1621 30117.2247 869.6283 960.1621
ENERGY: 300000 6.3171 5.7969 5.9041 0.0000 -10570.8907 1379.4388 0.0000 0.0000 1806.9068 -7366.5269 307.0844 -9173.4337 -7458.6858 299.0021 -337.9902 -308.8311 30373.1860 295.7758 344.4867
ENERGY: 600000 9.5998 10.2611 2.6368 0.0000 -10442.8470 1313.0709 0.0000 0.0000 1771.0989 -7336.1793 300.9988 -9107.2782 -7428.2446 300.0889 -1131.0827 -1062.2952 31206.3539 -44.5463 16.8933
ENERGY: 900000 2.6242 6.0945 3.2003 0.0000 -10699.1599 1403.9012 0.0000 0.0000 1753.4516 -7529.8880 297.9997 -9283.3396 -7439.8988 300.7061 -187.3146 -152.0318 30099.9118 129.5553 187.8445
ENERGY: 1200000 1.8590 7.6251 3.9421 0.0000 -10645.3844 1431.0927 0.0000 0.0000 1766.6655 -7434.2001 300.2454 -9200.8655 -7445.5881 300.6951 95.3106 191.5042 30205.6599 45.2727 112.2937
ENERGY: 1500000 4.7540 8.6780 4.1534 0.0000 -10584.1391 1394.7472 0.0000 0.0000 1817.2315 -7354.5751 308.8391 -9171.8066 -7445.8819 301.3563 -228.3548 -145.2247 30373.5972 144.1118 208.1415
TCL: Running FEP window   6: Lambda1 0.7499999999999998 Lambda2 0.6999999999999997 [dLambda -0.050000000000000044]
TCL: Setting parameter firsttimestep to 0
TCL: Setting parameter alchLambda to 0.7499999999999998
Info: NONBONDED TABLE R-SQUARED SPACING: 0.0625
Info: NONBONDED TABLE SIZE: 705 POINTS
TCL: Setting parameter alchLambda2 to 0.6999999999999997
Info: NONBONDED TABLE R-SQUARED SPACING: 0.0625
Info: NONBONDED TABLE SIZE: 705 POINTS
TCL: Running for 1500000 steps
ETITLE: TS BOND ANGLE DIHED IMPRP ELECT VDW BOUNDARY MISC KINETIC TOTAL TEMP POTENTIAL TOTALAVG TEMPAVG PRESSURE GPRESSURE VOLUME PRESSAVG GPRESSAVG
ENERGY: 0 4.7540 8.6780 4.1534 0.0000 -10583.7993 1395.0779 0.0000 0.0000 1816.3516 -7354.7844 308.6895 -9171.1361 -7354.7844 308.6895 -236.1830 -153.2952 30373.5972 -236.1830 -153.2952
ENERGY: 300000 3.5425 7.9128 6.2501 0.0000 -10619.2486 1412.9636 0.0000 0.0000 1759.4352 -7429.1443 299.0166 -9188.5795 -7415.7750 300.4835 134.1733 149.5546 30201.1508 -44.2272 3.6068
ENERGY: 600000 4.1222 6.5873 5.9115 0.0000 -10659.7222 1368.6814 0.0000 0.0000 1753.7950 -7520.6249 298.0580 -9274.4198 -7447.3907 301.2512 -569.7581 -440.3872 30242.3883 -35.2961 38.8634
ENERGY: 900000 4.6941 4.8149 1.4511 0.0000 -10662.4952 1442.5889 0.0000 0.0000 1787.3006 -7421.6455 303.7523 -9208.9461 -7453.3428 301.0842 306.2272 391.1548 30284.0463 -33.5396 34.9558
ENERGY: 1200000 8.4987 8.7720 4.6454 0.0000 -10733.7070 1438.2842 0.0000 0.0000 1716.8392 -7556.6675 291.7774 -9273.5066 -7449.2740 300.8009 -477.9350 -386.0350 30342.1813 -183.4211 -112.6898
ENERGY: 1500000 2.5976 5.7513 6.2606 0.0000 -10644.6039 1388.9892 0.0000 0.0000 1799.2576 -7441.7476 305.7844 -9241.0052 -7448.2436 301.0009 -479.4226 -410.6140 30699.7537 -225.4759 -158.5465
TCL: Running FEP window   7: Lambda1 0.6999999999999997 Lambda2 0.6499999999999997 [dLambda -0.050000000000000044]
TCL: Setting parameter firsttimestep to 0
TCL: Setting parameter alchLambda to 0.6999999999999997
Info: NONBONDED TABLE R-SQUARED SPACING: 0.0625
Info: NONBONDED TABLE SIZE: 705 POINTS
TCL: Setting parameter alchLambda2 to 0.6499999999999997
Info: NONBONDED TABLE R-SQUARED SPACING: 0.0625
Info: NONBONDED TABLE SIZE: 705 POINTS
TCL: Running for 1500000 steps
ETITLE: TS BOND ANGLE DIHED IMPRP ELECT VDW BOUNDARY MISC KINETIC TOTAL TEMP POTENTIAL TOTALAVG TEMPAVG PRESSURE GPRESSURE VOLUME PRESSAVG GPRESSAVG
ENERGY: 0 2.5976 5.7513 6.2606 0.0000 -10644.1626 1389.8528 0.0000 0.0000 1798.3875 -7441.3128 305.6365 -9239.7003 -7441.3128 305.6365 -496.8936 -412.5113 30699.7537 -496.8936 -412.5113
ENERGY: 300000 5.5417 5.0250 4.8327 0.0000 -10683.3451 1444.1670 0.0000 0.0000 1820.9311 -7402.8477 309.4678 -9223.7788 -7431.9664 306.5919 -215.4642 -167.8623 30737.2064 -55.8931 9.6865
ENERGY: 600000 3.1765 10.2091 4.5443 0.0000 -10623.4393 1399.8742 0.0000 0.0000 1817.1380 -7388.4972 308.8232 -9205.6352 -7441.4530 304.8512 -132.6680 -49.8335 30396.8727 -85.4193 -7.7845
ENERGY: 900000 4.8999 4.6910 2.5910 0.0000 -10679.6077 1427.6234 0.0000 0.0000 1701.9552 -7537.8471 289.2478 -9239.8024 -7469.7140 301.2606 121.1950 185.0321 29951.5456 -24.5409 43.7266
ENERGY: 1200000 5.0573 8.0575 5.3992 0.0000 -10759.1237 1503.3507 0.0000 0.0000 1776.5668 -7460.6922 301.9281 -9237.2590 -7454.3248 303.4292 476.6923 569.1243 30280.7367 -83.4872 -20.0536
ENERGY: 1500000 3.8567 8.1344 7.8917 0.0000 -10700.6245 1426.0675 0.0000 0.0000 1744.5052 -7510.1691 296.4792 -9254.6743 -7459.5592 302.1241 -60.3749 -37.7751 30174.0967 33.6283 89.9306
TCL: Running FEP window   8: Lambda1 0.6499999999999997 Lambda2 0.5999999999999996 [dLambda -0.050000000000000044]
TCL: Setting parameter firsttimestep to 0
TCL: Setting parameter alchLambda to 0.6499999999999997
Info: NONBONDED TABLE R-SQUARED SPACING: 0.0625
Info: NONBONDED TABLE SIZE: 705 POINTS
TCL: Setting parameter alchLambda2 to 0.5999999999999996
Info: NONBONDED TABLE R-SQUARED SPACING: 0.0625
Info: NONBONDED TABLE SIZE: 705 POINTS
TCL: Running for 1500000 steps
ETITLE: TS BOND ANGLE DIHED IMPRP ELECT VDW BOUNDARY MISC KINETIC TOTAL TEMP POTENTIAL TOTALAVG TEMPAVG PRESSURE GPRESSURE VOLUME PRESSAVG GPRESSAVG
ENERGY: 0 3.8567 8.1344 7.8917 0.0000 -10699.4269 1425.5677 0.0000 0.0000 1743.6718 -7510.3046 296.3376 -9253.9764 -7510.3046 296.3376 -125.6633 -53.9734 30174.0967 -125.6633 -53.9734
ENERGY: 300000 9.4564 6.3776 8.6562 0.0000 -10827.1268 1538.6497 0.0000 0.0000 1794.8093 -7469.1776 305.0284 -9263.9869 -7485.5837 301.2106 376.4882 403.4208 30529.0582 401.7301 450.8655
ENERGY: 600000 6.6567 6.1712 2.6151 0.0000 -10749.5711 1413.4329 0.0000 0.0000 1786.3799 -7534.3154 303.5958 -9320.6953 -7478.6752 301.0078 -396.3014 -317.2480 30024.2926 151.0992 207.9226
ENERGY: 900000 3.0912 7.8874 2.5199 0.0000 -10654.5777 1423.3469 0.0000 0.0000 1833.2848 -7384.4475 311.5673 -9217.7323 -7457.9503 301.5570 -33.0440 0.1258 30816.3801 115.2111 170.7046
ENERGY: 1200000 3.2264 11.7576 3.9627 0.0000 -10644.3723 1420.8645 0.0000 0.0000 1722.6448 -7481.9163 292.7640 -9204.5611 -7441.2877 301.5537 -247.6779 -132.7610 30271.5154 -51.2022 12.1786
ENERGY: 1500000 5.3972 2.8594 3.5473 0.0000 -10570.7283 1390.7239 0.0000 0.0000 1740.0187 -7428.1819 295.7167 -9168.2006 -7443.9471 301.0184 -935.9013 -808.7908 31549.1923 -107.5241 -40.6306
TCL: Running FEP window   9: Lambda1 0.5999999999999996 Lambda2 0.5499999999999996 [dLambda -0.050000000000000044]
TCL: Setting parameter firsttimestep to 0
TCL: Setting parameter alchLambda to 0.5999999999999996
Info: NONBONDED TABLE R-SQUARED SPACING: 0.0625
Info: NONBONDED TABLE SIZE: 705 POINTS
TCL: Setting parameter alchLambda2 to 0.5499999999999996
Info: NONBONDED TABLE R-SQUARED SPACING: 0.0625
Info: NONBONDED TABLE SIZE: 705 POINTS
TCL: Running for 1500000 steps
ETITLE: TS BOND ANGLE DIHED IMPRP ELECT VDW BOUNDARY MISC KINETIC TOTAL TEMP POTENTIAL TOTALAVG TEMPAVG PRESSURE GPRESSURE VOLUME PRESSAVG GPRESSAVG
ENERGY: 0 5.3972 2.8594 3.5472 0.0000 -10570.3569 1391.2178 0.0000 0.0000 1739.1500 -7428.1852 295.5691 -9167.3352 -7428.1852 295.5691 -896.1873 -815.2469 31549.1923 -896.1873 -815.2469
ENERGY: 300000 3.2119 6.3729 2.9723 0.0000 -10666.7582 1433.7043 0.0000 0.0000 1807.3777 -7413.1191 307.1644 -9220.4968 -7469.0081 299.9029 -150.6306 -59.0033 30253.3950 -147.2831 -61.6749
ENERGY: 600000 5.0386 6.5903 6.4739 0.0000 -10591.9344 1391.2713 0.0000 0.0000 1758.4324 -7424.1279 298.8461 -9182.5603 -7480.3435 301.0649 -315.8974 -228.5256 30736.3645 -269.1380 -201.9127
ENERGY: 900000 2.1696 8.9934 2.5940 0.0000 -10838.2444 1557.0798 0.0000 0.0000 1714.1866 -7553.2210 291.3266 -9267.4076 -7484.8569 298.9712 960.6180 1032.2755 30116.3573 -82.1453 -21.0595
ENERGY: 1200000 4.2724 11.1624 4.6689 0.0000 -10552.7353 1331.1482 0.0000 0.0000 1761.8320 -7439.6513 299.4239 -9201.4833 -7466.0023 299.4823 -800.3661 -736.4320 30494.9810 -169.8209 -112.1748
ENERGY: 1500000 5.5190 8.7729 3.7366 0.0000 -10823.5910 1501.0015 0.0000 0.0000 1742.5459 -7562.0151 296.1462 -9304.5610 -7470.7890 299.1690 215.2470 227.1217 30039.9364 -95.5194 -42.4646
TCL: Running FEP window  10: Lambda1 0.5499999999999996 Lambda2 0.4999999999999996 [dLambda -0.04999999999999999]
TCL: Setting parameter firsttimestep to 0
TCL: Setting parameter alchLambda to 0.5499999999999996
Info: NONBONDED TABLE R-SQUARED SPACING: 0.0625
Info: NONBONDED TABLE SIZE: 705 POINTS
TCL: Setting parameter alchLambda2 to 0.4999999999999996
Info: NONBONDED TABLE R-SQUARED SPACING: 0.0625
Info: NONBONDED TABLE SIZE: 705 POINTS
TCL: Running for 1500000 steps
ETITLE: TS BOND ANGLE DIHED IMPRP ELECT VDW BOUNDARY MISC KINETIC TOTAL TEMP POTENTIAL TOTALAVG TEMPAVG PRESSURE GPRESSURE VOLUME PRESSAVG GPRESSAVG
ENERGY: 0 5.5190 8.7729 3.7366 0.0000 -10823.4090 1501.0038 0.0000 0.0000 1741.6569 -7562.7198 295.9951 -9304.3767 -7562.7198 295.9951 143.9010 217.0891 30039.9364 143.9010 217.0891
ENERGY: 300000 2.2097 6.2599 5.1125 0.0000 -10689.1775 1452.9336 0.0000 0.0000 1784.8855 -7437.7763 303.3419 -9222.6618 -7451.4037 300.6685 226.6370 260.1526 30370.8435 -86.2263 -51.7186
ENERGY: 600000 4.1071 9.7932 6.0123 0.0000 -10638.7102 1434.2011 0.0000 0.0000 1775.6964 -7408.9000 301.7802 -9184.5964 -7465.9412 298.8411 6.2322 74.1780 30438.5063 -199.6530 -146.5930
ENERGY: 900000 5.9012 6.1922 4.2564 0.0000 -10724.4115 1476.7497 0.0000 0.0000 1830.6527 -7400.6593 311.1200 -9231.3120 -7468.6859 299.2197 0.4970 50.4619 30643.0088 -110.1564 -55.0044
ENERGY: 1200000 7.6468 6.7340 6.3220 0.0000 -10625.9863 1440.7720 0.0000 0.0000 1718.3465 -7446.1649 292.0335 -9164.5114 -7446.5450 299.6497 -170.6139 -100.1744 30410.1912 -70.6973 -20.1034
ENERGY: 1500000 5.0306 6.5055 4.0115 0.0000 -10621.5222 1413.3251 0.0000 0.0000 1806.8340 -7385.8155 307.0720 -9192.6495 -7454.4833 300.1470 -159.4251 -48.2048 30314.1924 -48.3555 4.1767
TCL: Running FEP window  11: Lambda1 0.4999999999999996 Lambda2 0.4499999999999996 [dLambda -0.04999999999999999]
TCL: Setting parameter firsttimestep to 0
TCL: Setting parameter alchLambda to 0.4999999999999996
Info: NONBONDED TABLE R-SQUARED SPACING: 0.0625
Info: NONBONDED TABLE SIZE: 705 POINTS
TCL: Setting parameter alchLambda2 to 0.4499999999999996
Info: NONBONDED TABLE R-SQUARED SPACING: 0.0625
Info: NONBONDED TABLE SIZE: 705 POINTS
TCL: Running for 1500000 steps
ETITLE: TS BOND ANGLE DIHED IMPRP ELECT VDW BOUNDARY MISC KINETIC TOTAL TEMP POTENTIAL TOTALAVG TEMPAVG PRESSURE GPRESSURE VOLUME PRESSAVG GPRESSAVG
ENERGY: 0 5.0306 6.5055 4.0115 0.0000 -10620.9252 1412.9315 0.0000 0.0000 1805.9901 -7386.4560 306.9286 -9192.4461 -7386.4560 306.9286 -143.1644 -61.1499 30314.1924 -143.1644 -61.1499
ENERGY: 300000 3.8733 8.3797 1.3860 0.0000 -10692.9617 1407.6207 0.0000 0.0000 1787.5443 -7484.1576 303.7937 -9271.7019 -7411.1686 302.7029 -469.8886 -411.2898 30514.9718 -360.2287 -300.3068
ENERGY: 600000 5.0786 7.2031 3.0119 0.0000 -10581.8459 1424.5461 0.0000 0.0000 1787.1797 -7354.8265 303.7318 -9142.0061 -7433.4935 301.1848 -134.0054 -80.2328 30789.2724 -191.2123 -132.7844
ENERGY: 900000 6.7200 8.4074 4.2098 0.0000 -10521.0747 1320.9521 0.0000 0.0000 1724.1244 -7456.6611 293.0155 -9180.7855 -7426.7581 299.9213 -1077.3125 -1033.2468 30518.5821 -292.7785 -227.6870
ENERGY: 1200000 7.2198 6.4365 4.1261 0.0000 -10699.1921 1436.4014 0.0000 0.0000 1713.4014 -7531.6068 291.1931 -9245.0082 -7434.4241 299.0798 26.6612 118.5222 30117.0336 -186.2288 -122.0446
ENERGY: 1500000 3.7067 5.1860 3.3897 0.0000 -10613.9532 1399.5969 0.0000 0.0000 1820.5065 -7381.5673 309.3957 -9202.0738 -7438.7895 299.1982 -296.0313 -231.3858 30196.4142 -196.9089 -129.1594
TCL: Running FEP window  12: Lambda1 0.4499999999999996 Lambda2 0.39999999999999963 [dLambda -0.04999999999999999]
TCL: Setting parameter firsttimestep to 0
TCL: Setting parameter alchLambda to 0.4499999999999996
Info: NONBONDED TABLE R-SQUARED SPACING: 0.0625
Info: NONBONDED TABLE SIZE: 705 POINTS
TCL: Setting parameter alchLambda2 to 0.39999999999999963
Info: NONBONDED TABLE R-SQUARED SPACING: 0.0625
Info: NONBONDED TABLE SIZE: 705 POINTS
TCL: Running for 1500000 steps
ETITLE: TS BOND ANGLE DIHED IMPRP ELECT VDW BOUNDARY MISC KINETIC TOTAL TEMP POTENTIAL TOTALAVG TEMPAVG PRESSURE GPRESSURE VOLUME PRESSAVG GPRESSAVG
ENERGY: 0 3.7068 5.1860 3.3897 0.0000 -10613.9538 1399.5857 0.0000 0.0000 1819.6041 -7382.4815 309.2423 -9202.0856 -7382.4815 309.2423 -321.8001 -243.7180 30196.4142 -321.8001 -243.7180
ENERGY: 300000 7.5145 7.5577 3.5286 0.0000 -10762.2282 1429.5775 0.0000 0.0000 1752.6623 -7561.3875 297.8655 -9314.0498 -7457.8168 303.3794 -361.5296 -313.6318 30121.9877 25.8738 88.5867
ENERGY: 600000 3.7092 6.6602 5.4019 0.0000 -10734.7348 1425.6368 0.0000 0.0000 1760.8652 -7532.4615 299.2596 -9293.3267 -7481.3627 300.1876 -227.9439 -154.1477 30097.5141 107.7338 173.4060
ENERGY: 900000 4.4682 4.1974 2.2123 0.0000 -10728.8002 1473.5846 0.0000 0.0000 1732.5920 -7511.7457 294.4546 -9244.3377 -7479.7834 299.2744 -26.2402 60.1057 30436.0668 111.1632 179.1825
ENERGY: 1200000 7.0846 6.0709 6.9082 0.0000 -10573.0854 1400.3950 0.0000 0.0000 1780.7478 -7371.8789 302.6387 -9152.6267 -7457.9107 298.7924 -126.6758 -129.7832 30568.1958 -3.7029 62.3437
ENERGY: 1500000 5.2473 7.0531 1.3881 0.0000 -10709.4696 1454.6422 0.0000 0.0000 1724.4611 -7516.6779 293.0727 -9241.1389 -7467.0195 298.4265 242.5216 291.8927 29903.2435 -52.4597 13.3366
TCL: Running FEP window  13: Lambda1 0.39999999999999963 Lambda2 0.34999999999999964 [dLambda -0.04999999999999999]
TCL: Setting parameter firsttimestep to 0
TCL: Setting parameter alchLambda to 0.39999999999999963
Info: NONBONDED TABLE R-SQUARED SPACING: 0.0625
Info: NONBONDED TABLE SIZE: 705 POINTS
TCL: Setting parameter alchLambda2 to 0.34999999999999964
Info: NONBONDED TABLE R-SQUARED SPACING: 0.0625
Info: NONBONDED TABLE SIZE: 705 POINTS
TCL: Running for 1500000 steps
ETITLE: TS BOND ANGLE DIHED IMPRP ELECT VDW BOUNDARY MISC KINETIC TOTAL TEMP POTENTIAL TOTALAVG TEMPAVG PRESSURE GPRESSURE VOLUME PRESSAVG GPRESSAVG
ENERGY: 0 5.2473 7.0531 1.3881 0.0000 -10709.4692 1454.7596 0.0000 0.0000 1723.6071 -7517.4141 292.9276 -9241.0212 -7517.4141 292.9276 199.2856 284.4783 29903.2435 199.2856 284.4783
ENERGY: 300000 4.7991 6.2156 4.9265 0.0000 -10803.8823 1481.5164 0.0000 0.0000 1786.8088 -7519.6159 303.6687 -9306.4247 -7472.6917 300.9982 181.1910 242.0381 30090.2568 39.3859 101.0715
ENERGY: 600000 3.7003 5.0958 3.8274 0.0000 -10741.3814 1472.0359 0.0000 0.0000 1734.3283 -7522.3937 294.7496 -9256.7220 -7482.4495 300.0912 283.4841 378.7038 29896.6690 -20.5255 56.5292
ENERGY: 900000 3.7225 8.6384 3.7687 0.0000 -10708.7751 1433.4968 0.0000 0.0000 1696.0150 -7563.1337 288.2383 -9259.1487 -7476.8128 299.2206 -356.4279 -231.2821 30221.2989 -160.2157 -77.3602
ENERGY: 1200000 4.5769 4.1721 4.1475 0.0000 -10617.4083 1464.3257 0.0000 0.0000 1804.9891 -7335.1971 306.7585 -9140.1862 -7464.2927 299.9783 134.6920 195.1155 30707.4991 -89.1567 -10.7874
ENERGY: 1500000 3.0711 6.2545 4.0428 0.0000 -10624.8835 1385.5354 0.0000 0.0000 1769.6697 -7456.3101 300.7559 -9225.9798 -7466.8220 300.0846 -134.2073 -61.0453 30200.8477 -46.5031 29.2043
TCL: Running FEP window  14: Lambda1 0.34999999999999964 Lambda2 0.29999999999999966 [dLambda -0.04999999999999999]
TCL: Setting parameter firsttimestep to 0
TCL: Setting parameter alchLambda to 0.34999999999999964
Info: NONBONDED TABLE R-SQUARED SPACING: 0.0625
Info: NONBONDED TABLE SIZE: 705 POINTS
TCL: Setting parameter alchLambda2 to 0.29999999999999966
Info: NONBONDED TABLE R-SQUARED SPACING: 0.0625
Info: NONBONDED TABLE SIZE: 705 POINTS
TCL: Running for 1500000 steps
ETITLE: TS BOND ANGLE DIHED IMPRP ELECT VDW BOUNDARY MISC KINETIC TOTAL TEMP POTENTIAL TOTALAVG TEMPAVG PRESSURE GPRESSURE VOLUME PRESSAVG GPRESSAVG
ENERGY: 0 3.0711 6.2545 4.0428 0.0000 -10624.8825 1385.3465 0.0000 0.0000 1768.7956 -7457.3720 300.6074 -9226.1676 -7457.3720 300.6074 -147.6695 -68.3320 30200.8477 -147.6695 -68.3320
ENERGY: 300000 4.9837 5.7849 3.3713 0.0000 -10666.6412 1452.3984 0.0000 0.0000 1741.0512 -7459.0517 295.8922 -9200.1029 -7425.8896 302.8592 -6.4793 82.3435 30518.2875 -166.4838 -76.6729
ENERGY: 600000 3.5228 5.4175 5.7468 0.0000 -10677.6795 1471.8881 0.0000 0.0000 1789.4293 -7401.6751 304.1141 -9191.1044 -7436.2960 301.2237 335.7164 472.8544 30358.7924 -101.8298 -8.2267
ENERGY: 900000 2.4605 7.9533 5.9177 0.0000 -10750.6675 1482.4699 0.0000 0.0000 1764.4230 -7487.4431 299.8642 -9251.8661 -7448.6320 301.0029 234.8842 297.0696 30183.9713 -50.9584 32.8027
ENERGY: 1200000 2.4171 5.2218 3.2549 0.0000 -10659.8734 1360.8352 0.0000 0.0000 1779.2124 -7508.9319 302.3777 -9288.1443 -7460.2964 300.3655 -529.1509 -387.4002 30077.2734 -125.7018 -47.6276
ENERGY: 1500000 4.0880 3.6949 2.7267 0.0000 -10700.9926 1544.7142 0.0000 0.0000 1767.0386 -7378.7302 300.3088 -9145.7688 -7456.1323 300.0689 607.9263 705.6647 30906.6411 12.6558 83.8459
TCL: Running FEP window  15: Lambda1 0.29999999999999966 Lambda2 0.24999999999999967 [dLambda -0.04999999999999999]
TCL: Setting parameter firsttimestep to 0
TCL: Setting parameter alchLambda to 0.29999999999999966
Info: NONBONDED TABLE R-SQUARED SPACING: 0.0625
Info: NONBONDED TABLE SIZE: 705 POINTS
TCL: Setting parameter alchLambda2 to 0.24999999999999967
Info: NONBONDED TABLE R-SQUARED SPACING: 0.0625
Info: NONBONDED TABLE SIZE: 705 POINTS
TCL: Running for 1500000 steps
ETITLE: TS BOND ANGLE DIHED IMPRP ELECT VDW BOUNDARY MISC KINETIC TOTAL TEMP POTENTIAL TOTALAVG TEMPAVG PRESSURE GPRESSURE VOLUME PRESSAVG GPRESSAVG
ENERGY: 0 4.0880 3.6949 2.7267 0.0000 -10700.9933 1544.9573 0.0000 0.0000 1766.1303 -7379.3961 300.1544 -9145.5264 -7379.3961 300.1544 626.6615 702.1279 30906.6411 626.6615 702.1279
ENERGY: 300000 3.2558 9.8873 5.2168 0.0000 -10614.7142 1378.5200 0.0000 0.0000 1757.9845 -7459.8496 298.7700 -9217.8342 -7392.9469 303.5002 -358.3562 -300.8497 30463.8541 -257.0101 -194.0318
ENERGY: 600000 4.8423 3.5800 3.9504 0.0000 -10664.8455 1472.9925 0.0000 0.0000 1736.6924 -7442.7879 295.1514 -9179.4803 -7412.3575 302.2209 282.0235 442.1779 30133.5602 12.9207 85.3718
ENERGY: 900000 3.8832 4.7738 5.1918 0.0000 -10725.6178 1436.7893 0.0000 0.0000 1755.9972 -7518.9826 298.4323 -9274.9798 -7433.7045 301.1218 45.5131 105.6574 30032.3541 -9.6416 65.2009
ENERGY: 1200000 2.3326 4.8957 3.7045 0.0000 -10660.0116 1429.9531 0.0000 0.0000 1788.7493 -7430.3763 303.9985 -9219.1256 -7431.6786 300.8086 -111.9389 -46.1180 30510.9853 -18.2282 53.0848
ENERGY: 1500000 3.9253 5.6501 5.5302 0.0000 -10560.4226 1329.6794 0.0000 0.0000 1792.5937 -7423.0440 304.6519 -9215.6377 -7434.8897 300.7918 -896.6718 -800.1782 30291.5926 -93.6047 -26.4537
TCL: Running FEP window  16: Lambda1 0.24999999999999967 Lambda2 0.19999999999999968 [dLambda -0.04999999999999999]
TCL: Setting parameter firsttimestep to 0
TCL: Setting parameter alchLambda to 0.24999999999999967
Info: NONBONDED TABLE R-SQUARED SPACING: 0.0625
Info: NONBONDED TABLE SIZE: 705 POINTS
TCL: Setting parameter alchLambda2 to 0.19999999999999968
Info: NONBONDED TABLE R-SQUARED SPACING: 0.0625
Info: NONBONDED TABLE SIZE: 705 POINTS
TCL: Running for 1500000 steps
ETITLE: TS BOND ANGLE DIHED IMPRP ELECT VDW BOUNDARY MISC KINETIC TOTAL TEMP POTENTIAL TOTALAVG TEMPAVG PRESSURE GPRESSURE VOLUME PRESSAVG GPRESSAVG
ENERGY: 0 3.9253 5.6501 5.5302 0.0000 -10560.4228 1329.6059 0.0000 0.0000 1791.7144 -7423.9969 304.5024 -9215.7113 -7423.9969 304.5024 -881.0385 -802.3738 30291.5926 -881.0385 -802.3738
ENERGY: 300000 2.1519 7.3145 3.2693 0.0000 -10555.4927 1360.5043 0.0000 0.0000 1693.0247 -7489.2280 287.7301 -9182.2528 -7494.4502 293.8913 -501.5509 -414.3179 30244.8500 -426.9648 -351.3182
ENERGY: 600000 3.1481 6.1593 6.0003 0.0000 -10558.4478 1369.4021 0.0000 0.0000 1783.9743 -7389.7637 303.1870 -9173.7380 -7462.7244 296.5147 -451.6738 -361.4723 30524.9205 -319.7813 -234.3612
ENERGY: 900000 2.0649 7.6131 4.6740 0.0000 -10494.0885 1374.3760 0.0000 0.0000 1814.2251 -7291.1355 308.3281 -9105.3605 -7443.3032 297.4941 -41.0279 -37.9725 30389.2853 -226.3428 -159.1135
ENERGY: 1200000 3.2227 5.2490 5.2471 0.0000 -10755.6792 1428.3818 0.0000 0.0000 1802.9020 -7510.6766 306.4038 -9313.5786 -7442.3639 298.7711 -181.8153 -103.8607 29781.9453 -181.6146 -114.2526
ENERGY: 1500000 3.0080 11.6289 3.0957 0.0000 -10672.6395 1423.5068 0.0000 0.0000 1767.9219 -7463.4783 300.4589 -9231.4002 -7443.7360 298.4387 -315.4353 -243.6898 30464.4714 -209.4344 -139.8683
TCL: Running FEP window  17: Lambda1 0.19999999999999968 Lambda2 0.1499999999999997 [dLambda -0.04999999999999999]
TCL: Setting parameter firsttimestep to 0
TCL: Setting parameter alchLambda to 0.19999999999999968
Info: NONBONDED TABLE R-SQUARED SPACING: 0.0625
Info: NONBONDED TABLE SIZE: 705 POINTS
TCL: Setting parameter alchLambda2 to 0.1499999999999997
Info: NONBONDED TABLE R-SQUARED SPACING: 0.0625
Info: NONBONDED TABLE SIZE: 705 POINTS
TCL: Running for 1500000 steps
ETITLE: TS BOND ANGLE DIHED IMPRP ELECT VDW BOUNDARY MISC KINETIC TOTAL TEMP POTENTIAL TOTALAVG TEMPAVG PRESSURE GPRESSURE VOLUME PRESSAVG GPRESSAVG
ENERGY: 0 3.0080 11.6289 3.0957 0.0000 -10672.6372 1424.1531 0.0000 0.0000 1766.9770 -7463.7746 300.2983 -9230.7516 -7463.7746 300.2983 -342.7490 -243.8366 30464.4714 -342.7490 -243.8366
ENERGY: 300000 4.9093 4.5164 2.0629 0.0000 -10749.7827 1515.0004 0.0000 0.0000 1749.4104 -7473.8833 297.3129 -9223.2938 -7452.8522 300.5484 434.4188 484.1975 30270.8946 -215.9523 -130.3780
ENERGY: 600000 6.5093 8.2128 4.8063 0.0000 -10586.6699 1322.4074 0.0000 0.0000 1819.1179 -7425.6163 309.1597 -9244.7342 -7452.9280 301.9329 -1043.5227 -1038.2694 30466.6860 -199.2946 -129.6414
ENERGY: 900000 3.9695 6.8901 3.1317 0.0000 -10702.0608 1444.0195 0.0000 0.0000 1711.4827 -7532.5672 290.8670 -9244.0499 -7449.0311 300.2598 187.4149 184.1153 30246.9481 -113.5299 -43.7692
ENERGY: 1200000 4.2835 4.8031 3.7056 0.0000 -10691.0742 1500.0586 0.0000 0.0000 1733.4262 -7444.7972 294.5963 -9178.2234 -7453.8673 298.9294 310.0812 361.4093 30420.4653 2.6130 78.7793
ENERGY: 1500000 4.1903 4.2289 5.0451 0.0000 -10658.8835 1371.0132 0.0000 0.0000 1746.4250 -7527.9809 296.8055 -9274.4059 -7454.8786 299.6989 -916.1816 -841.4592 30302.6378 -48.4008 24.5304
TCL: Running FEP window  18: Lambda1 0.1499999999999997 Lambda2 0.09999999999999969 [dLambda -0.05 ]
TCL: Setting parameter firsttimestep to 0
TCL: Setting parameter alchLambda to 0.1499999999999997
Info: NONBONDED TABLE R-SQUARED SPACING: 0.0625
Info: NONBONDED TABLE SIZE: 705 POINTS
TCL: Setting parameter alchLambda2 to 0.09999999999999969
Info: NONBONDED TABLE R-SQUARED SPACING: 0.0625
Info: NONBONDED TABLE SIZE: 705 POINTS
TCL: Running for 1500000 steps
ETITLE: TS BOND ANGLE DIHED IMPRP ELECT VDW BOUNDARY MISC KINETIC TOTAL TEMP POTENTIAL TOTALAVG TEMPAVG PRESSURE GPRESSURE VOLUME PRESSAVG GPRESSAVG
ENERGY: 0 4.1903 4.2289 5.0451 0.0000 -10658.8847 1371.2323 0.0000 0.0000 1745.5506 -7528.6374 296.6569 -9274.1880 -7528.6374 296.6569 -953.1639 -845.8862 30302.6378 -953.1639 -845.8862
ENERGY: 300000 2.7516 4.5814 3.5099 0.0000 -10665.3111 1498.7596 0.0000 0.0000 1788.1692 -7367.5395 303.8999 -9155.7086 -7437.2336 299.9355 579.9478 619.4951 30300.7697 11.0816 75.9925
ENERGY: 600000 3.0921 6.9467 3.6845 0.0000 -10662.4966 1422.3327 0.0000 0.0000 1778.2057 -7448.2349 302.2066 -9226.4406 -7443.5251 301.6664 -17.1743 25.3270 30112.6495 62.2969 124.4630
ENERGY: 900000 1.7746 5.0119 3.8154 0.0000 -10670.9427 1406.5187 0.0000 0.0000 1749.5218 -7504.3002 297.3318 -9253.8220 -7460.7100 299.3730 -341.7181 -255.0025 30059.2589 2.8922 59.1406
ENERGY: 1200000 1.8678 4.6834 4.2428 0.0000 -10627.0943 1410.7407 0.0000 0.0000 1767.8379 -7437.7217 300.4446 -9205.5596 -7464.2544 299.2128 65.5430 160.5584 29831.1986 -45.9250 14.7397
ENERGY: 1500000 7.5456 8.8805 8.8458 0.0000 -10764.0889 1485.1658 0.0000 0.0000 1747.1910 -7506.4602 296.9357 -9253.6511 -7467.4342 298.5629 136.0785 180.2251 30085.2855 -89.2873 -30.5795
TCL: Running FEP window  19: Lambda1 0.09999999999999969 Lambda2 0.049999999999999684 [dLambda -0.05 ]
TCL: Setting parameter firsttimestep to 0
TCL: Setting parameter alchLambda to 0.09999999999999969
Info: NONBONDED TABLE R-SQUARED SPACING: 0.0625
Info: NONBONDED TABLE SIZE: 705 POINTS
TCL: Setting parameter alchLambda2 to 0.049999999999999684
Info: NONBONDED TABLE R-SQUARED SPACING: 0.0625
Info: NONBONDED TABLE SIZE: 705 POINTS
TCL: Running for 1500000 steps
ETITLE: TS BOND ANGLE DIHED IMPRP ELECT VDW BOUNDARY MISC KINETIC TOTAL TEMP POTENTIAL TOTALAVG TEMPAVG PRESSURE GPRESSURE VOLUME PRESSAVG GPRESSAVG
ENERGY: 0 7.5456 8.8805 8.8458 0.0000 -10764.0876 1484.7752 0.0000 0.0000 1746.3227 -7507.7178 296.7881 -9254.0404 -7507.7178 296.7881 91.6250 172.8134 30085.2855 91.6250 172.8134
ENERGY: 300000 1.3940 8.5392 4.1285 0.0000 -10718.9153 1510.1217 0.0000 0.0000 1706.3417 -7488.3902 289.9933 -9194.7319 -7473.5350 298.0758 789.6777 862.2226 29775.7463 99.2527 160.2827
ENERGY: 600000 2.0003 8.4883 5.5269 0.0000 -10565.6270 1421.9452 0.0000 0.0000 1761.7144 -7365.9518 299.4039 -9127.6663 -7452.5829 300.6800 -171.9797 -78.8731 30570.4620 -8.6780 54.6582
ENERGY: 900000 4.1552 5.7045 2.7092 0.0000 -10774.6404 1513.7858 0.0000 0.0000 1755.6893 -7492.5965 298.3800 -9248.2857 -7444.7800 300.2052 310.6266 383.3764 30506.3854 69.3441 123.1563
ENERGY: 1200000 3.8886 9.0716 2.6533 0.0000 -10769.8239 1501.5130 0.0000 0.0000 1726.4813 -7526.2161 293.4161 -9252.6974 -7448.8555 299.3866 292.2766 404.7721 30174.7006 101.8461 160.0950
ENERGY: 1500000 5.1672 9.4305 3.1326 0.0000 -10779.1148 1513.0172 0.0000 0.0000 1735.6390 -7512.7284 294.9724 -9248.3673 -7459.2121 298.7644 305.4756 371.4472 29901.8943 125.7338 186.7106
TCL: Running FEP window  20: Lambda1 0.049999999999999684 Lambda2 0.0    [dLambda -0.049999999999999684]
TCL: Setting parameter firsttimestep to 0
TCL: Setting parameter alchLambda to 0.049999999999999684
Info: NONBONDED TABLE R-SQUARED SPACING: 0.0625
Info: NONBONDED TABLE SIZE: 705 POINTS
TCL: Setting parameter alchLambda2 to 0.0
Info: NONBONDED TABLE R-SQUARED SPACING: 0.0625
Info: NONBONDED TABLE SIZE: 705 POINTS
TCL: Running for 1500000 steps
ETITLE: TS BOND ANGLE DIHED IMPRP ELECT VDW BOUNDARY MISC KINETIC TOTAL TEMP POTENTIAL TOTALAVG TEMPAVG PRESSURE GPRESSURE VOLUME PRESSAVG GPRESSAVG
ENERGY: 0 5.1672 9.4305 3.1326 0.0000 -10779.1148 1512.0318 0.0000 0.0000 1734.7505 -7514.6021 294.8214 -9249.3526 -7514.6021 294.8214 276.3776 364.7499 29901.8943 276.3776 364.7499
ENERGY: 300000 5.7960 5.4272 2.3705 0.0000 -10701.3596 1465.5396 0.0000 0.0000 1789.9115 -7432.3146 304.1960 -9222.2262 -7469.3968 299.5826 105.0435 160.3332 30273.6886 -184.6236 -98.8456
ENERGY: 600000 2.4400 11.0695 5.5268 0.0000 -10714.8537 1490.9887 0.0000 0.0000 1787.9357 -7416.8931 303.8602 -9204.8288 -7484.5554 299.5554 631.6786 717.4537 29947.3057 -135.0654 -61.1986
ENERGY: 900000 2.5076 6.9395 4.6849 0.0000 -10642.9952 1464.3873 0.0000 0.0000 1786.4024 -7378.0735 303.5997 -9164.4758 -7454.9451 301.5639 430.7695 462.6084 30411.1532 -99.7708 -44.2859
ENERGY: 1200000 2.9888 5.3276 2.8889 0.0000 -10551.8274 1390.1151 0.0000 0.0000 1751.2341 -7399.2730 297.6228 -9150.5071 -7454.3564 300.1937 -595.0657 -505.1427 30940.8783 -250.2496 -184.4424
ENERGY: 1500000 2.5996 8.4435 4.4019 0.0000 -10703.3876 1415.6793 0.0000 0.0000 1712.9188 -7559.3446 291.1111 -9272.2634 -7455.1910 300.3037 -411.3054 -371.7782 30189.1472 -262.9284 -202.7116
TCL: Exiting due to exit command.
