Info: SIMULATION PARAMETERS:
Info: TIMESTEP               2
Info: NUMBER OF STEPS        0
Info: STEPS PER CYCLE        10
Info: PERIODIC CELL BASIS 1  31.7453 0 0
Info: PERIODIC CELL BASIS 2  0 30.1621 0
Info: PERIODIC CELL BASIS 3  0 0 32.0187
Info: PERIODIC CELL CENTER   0 0 0
Info: WRAPPING WATERS AROUND PERIODIC BOUNDARIES ON OUTPUT.
Info: WRAPPING ALL CLUSTERS AROUND PERIODIC BOUNDARIES ON OUTPUT.
Info: FIRST LDB TIMESTEP     50
Info: LAST LDB TIMESTEP     -1
Info: HOM BACKGROUND SCALING 1
Info: PME BACKGROUND SCALING 1
Info: MIN ATOMS PER PATCH    40
Info: EMPTY PATCH LOAD       40 ATOMS
Info: VELOCITY FILE          mobley_852937_equil.vel
Info: CENTER OF MASS MOVING INITIALLY? NO
Info: DIELECTRIC             1
Info: EXCLUDE                SCALED ONE-FOUR
Info: 1-4 ELECTROSTATICS SCALED BY 0.833333
Info: MODIFIED 1-4 VDW PARAMETERS WILL BE USED
Info: DCD FILENAME           mobley_852937_prod.dcd
Info: DCD FREQUENCY          100000
Info: DCD FIRST STEP         100000
Info: DCD FILE WILL CONTAIN UNIT CELL DATA
Info: XST FILENAME           mobley_852937_prod.xst
Info: XST FREQUENCY          100000
Info: NO VELOCITY DCD OUTPUT
Info: NO FORCE DCD OUTPUT
Info: OUTPUT FILENAME        mobley_852937_prod
Info: BINARY OUTPUT FILES WILL BE USED
Info: RESTART FILENAME       mobley_852937_prod.restart
Info: RESTART FREQUENCY      100000
Info: BINARY RESTART FILES WILL BE USED
Info: CUTOFF                 9
Info: PAIRLIST DISTANCE      11
Info: PAIRLIST SHRINK RATE   0.01
Info: PAIRLIST GROW RATE     0.01
Info: PAIRLIST TRIGGER       0.3
Info: PAIRLISTS PER CYCLE    2
Info: PAIRLISTS ENABLED
Info: MARGIN                 2
Info: HYDROGEN GROUP CUTOFF  2.5
Info: PATCH DIMENSION        15.5
Info: ENERGY OUTPUT STEPS    100000
Info: ENERGY EVALUATION STEPS    100000
Info: OUTPUT ENERGY PRECISION 4
Info: CROSSTERM ENERGY INCLUDED IN DIHEDRAL
Info: TIMING OUTPUT STEPS    1000000
Info: PRESSURE OUTPUT STEPS  100000
Info: ALCHEMICAL FEP ON
Info: FEP CURRENT LAMBDA VALUE     1
Info: FEP COMPARISON LAMBDA VALUE  0.95
Info: FEP INTRA-ALCHEMICAL NON-BONDED INTERACTIONS WILL BE RETAINED
Info: FEP INTRA-ALCHEMICAL BONDED INTERACTIONS WILL BE RETAINED
Info: FEP VDW SHIFTING COEFFICIENT 5
Info: FEP ELEC. ACTIVE FOR ANNIHILATED PARTICLES BETWEEN LAMBDA = 0 AND LAMBDA = 0.5
Info: FEP ELEC. ACTIVE FOR EXNIHILATED PARTICLES BETWEEN LAMBDA = 0.5 AND LAMBDA = 1
Info: FEP VDW ACTIVE FOR ANNIHILATED PARTICLES BETWEEN LAMBDA = 0 AND LAMBDA = 1
Info: FEP VDW ACTIVE FOR EXNIHILATED PARTICLES BETWEEN LAMBDA = 0 AND LAMBDA = 1
Info: FEP BOND ACTIVE FOR ANNIHILATED PARTICLES BETWEEN LAMBDA = 1 AND LAMBDA = 1
Info: FEP BOND ACTIVE FOR EXNIHILATED PARTICLES BETWEEN LAMBDA = 0 AND LAMBDA = 0
Info: LANGEVIN DYNAMICS ACTIVE
Info: LANGEVIN TEMPERATURE   300
Info: LANGEVIN USING BBK INTEGRATOR
Info: LANGEVIN DAMPING COEFFICIENT IS 1 INVERSE PS
Info: LANGEVIN DYNAMICS APPLIED TO HYDROGENS
Info: LANGEVIN PISTON PRESSURE CONTROL ACTIVE
Info:        TARGET PRESSURE IS 1.01325 BAR
Info:     OSCILLATION PERIOD IS 50 FS
Info:             DECAY TIME IS 25 FS
Info:     PISTON TEMPERATURE IS 300 K
Info:       PRESSURE CONTROL IS GROUP-BASED
Info:    INITIAL STRAIN RATE IS 0.000381704 0.000381704 0.000381704
Info:       CELL FLUCTUATION IS ISOTROPIC
Info: PARTICLE MESH EWALD (PME) ACTIVE
Info: PME TOLERANCE               1e-06
Info: PME EWALD COEFFICIENT       0.348832
Info: PME INTERPOLATION ORDER     4
Info: PME GRID DIMENSIONS         32 32 36
Info: PME MAXIMUM GRID SPACING    1
Info: PME CALCULATION WILL BE PERFORMED ON GPU
Info: FULL ELECTROSTATIC EVALUATION FREQUENCY      2
Info: USING VERLET I (r-RESPA) MTS SCHEME.
Info: C1 SPLITTING OF LONG RANGE ELECTROSTATICS
Info: PLACING ATOMS IN PATCHES BY HYDROGEN GROUPS
Info: RIGID BONDS TO HYDROGEN : ALL
Info:         ERROR TOLERANCE : 1e-08
Info:          MAX ITERATIONS : 100
Info: RIGID WATER USING SETTLE ALGORITHM
Info: RANDOM NUMBER SEED     1743566324
Info: USE HYDROGEN BONDS?    NO
Info: Using AMBER format force field!
Info: AMBER PARM FILE        mobley_852937.prmtop
Info: COORDINATE PDB         mobley_852937.pdb
Info: Exclusions will be read from PARM file!
Info: SCNB (VDW SCALING)     2
Info: USING ARITHMETIC MEAN TO COMBINE L-J SIGMA PARAMETERS
Info: BINARY COORDINATES     mobley_852937_equil.coor
Info: SUMMARY OF PARAMETERS:
Info: 7 BONDS
Info: 5 ANGLES
Info:   5 HARMONIC
Info:   0 COSINE-BASED
Info: 3 DIHEDRAL
Info: 0 IMPROPER
Info: 0 CROSSTERM
Info: 0 VDW
Info: 21 VDW_PAIRS
Info: 0 NBTHOLE_PAIRS
Info: To read alchdata from file: mobley_852937.pdb
Info: To read alchflag data from column: 5
Info: STRUCTURE SUMMARY:
Info: 2926 ATOMS
Info: 2926 BONDS
Info: 19 ANGLES
Info: 32 DIHEDRALS
Info: 0 IMPROPERS
Info: 0 CROSSTERMS
Info: 2968 EXCLUSIONS
Info: 2918 RIGID BONDS
Info: ALCH: 0 ATOMS TO DISAPPEAR IN FINAL STATE
Info: ALCH: 13 ATOMS TO APPEAR IN FINAL STATE
Info: 5860 DEGREES OF FREEDOM
Info: 979 HYDROGEN GROUPS
Info: 3 ATOMS IN LARGEST HYDROGEN GROUP
Info: 979 MIGRATION GROUPS
Info: 3 ATOMS IN LARGEST MIGRATION GROUP
Info: TOTAL MASS = 17605.6 amu
Info: TOTAL CHARGE = 0.000199996 e
Info: MASS DENSITY = 0.953601 g/cm^3
Info: ATOM DENSITY = 0.09544 atoms/A^3
Info: ADDED 0 IMPLICIT EXCLUSIONS
Info: NONBONDED TABLE R-SQUARED SPACING: 0.0625
Info: NONBONDED TABLE SIZE: 705 POINTS
Info: REMOVING COM VELOCITY -0.110298 0.159348 0.0987314
Info: Use 3D box decompostion in PME FFT.
Info: Updated CUDA force table with 4096 elements.
Info: Updated CUDA LJ table with 6 x 6 elements.
Info: Found 15 unique exclusion lists needing 28 bytes
TCL: Running for 1500000 steps
ETITLE: TS BOND ANGLE DIHED IMPRP ELECT VDW BOUNDARY MISC KINETIC TOTAL TEMP POTENTIAL TOTALAVG TEMPAVG PRESSURE GPRESSURE VOLUME PRESSAVG GPRESSAVG
ENERGY: 0 1.4376 2.9397 4.1977 0.0000 -10444.2858 1352.0815 0.0000 0.0000 1761.0354 -7322.5939 302.4551 -9083.6293 -7322.5939 302.4551 -470.8133 -393.3390 30658.0169 -470.8133 -393.3390
ENERGY: 300000 5.2551 5.9084 3.8245 0.0000 -10694.3965 1434.2798 0.0000 0.0000 1767.5145 -7477.6141 303.5678 -9245.1286 -7423.0500 304.0080 -114.1434 -81.2221 30151.5452 -239.7574 -168.4614
ENERGY: 600000 2.5118 3.1028 2.3352 0.0000 -10445.3361 1380.3708 0.0000 0.0000 1757.2141 -7299.8014 301.7988 -9057.0155 -7430.7174 302.3144 -27.0555 7.2658 30639.7671 15.5531 74.2107
ENERGY: 900000 1.9280 2.3082 2.4597 0.0000 -10724.7320 1464.8399 0.0000 0.0000 1787.0027 -7466.1935 306.9149 -9253.1962 -7441.0429 302.2212 201.9400 305.4599 29948.0121 -54.5369 19.5887
ENERGY: 1200000 1.4774 2.0479 1.6296 0.0000 -10758.2694 1522.8374 0.0000 0.0000 1748.8198 -7481.4573 300.3570 -9230.2770 -7447.0778 302.2389 799.5017 886.2201 29915.8228 63.5773 138.0682
ENERGY: 1500000 1.8397 2.8165 1.9853 0.0000 -10720.0689 1458.5599 0.0000 0.0000 1724.9905 -7529.8769 296.2644 -9254.8674 -7446.1840 301.7650 -148.2514 -30.6353 30665.8573 -21.5001 54.9516
TCL: Running FEP window   2: Lambda1 0.95   Lambda2 0.8999999999999999 [dLambda -0.050000000000000044]
TCL: Setting parameter firsttimestep to 0
TCL: Setting parameter alchLambda to 0.95
Info: NONBONDED TABLE R-SQUARED SPACING: 0.0625
Info: NONBONDED TABLE SIZE: 705 POINTS
TCL: Setting parameter alchLambda2 to 0.8999999999999999
Info: NONBONDED TABLE R-SQUARED SPACING: 0.0625
Info: NONBONDED TABLE SIZE: 705 POINTS
TCL: Running for 1500000 steps
ETITLE: TS BOND ANGLE DIHED IMPRP ELECT VDW BOUNDARY MISC KINETIC TOTAL TEMP POTENTIAL TOTALAVG TEMPAVG PRESSURE GPRESSURE VOLUME PRESSAVG GPRESSAVG
ENERGY: 0 1.8397 2.8165 1.9853 0.0000 -10718.5370 1458.2338 0.0000 0.0000 1724.1365 -7529.5253 296.1177 -9253.6617 -7529.5253 296.1177 -119.9103 -38.3303 30665.8573 -119.9103 -38.3303
ENERGY: 300000 1.5639 2.3652 2.8543 0.0000 -10477.9349 1382.3864 0.0000 0.0000 1706.8924 -7381.8727 293.1561 -9088.7651 -7458.1053 298.8955 -298.3305 -240.4660 30480.7172 -540.4656 -475.8960
ENERGY: 600000 3.7196 3.2515 3.9392 0.0000 -10575.7384 1395.2763 0.0000 0.0000 1807.3798 -7362.1720 310.4146 -9169.5518 -7446.7257 299.9310 -569.7248 -574.3857 30761.9541 -339.2547 -272.2557
ENERGY: 900000 1.2977 3.1880 5.3928 0.0000 -10723.9862 1426.8584 0.0000 0.0000 1764.6624 -7522.5868 303.0780 -9287.2492 -7467.4216 300.2953 -156.8099 -136.0266 29605.3100 -132.2202 -68.8572
ENERGY: 1200000 2.5664 2.2873 3.4727 0.0000 -10649.2361 1435.5126 0.0000 0.0000 1764.9286 -7440.4685 303.1237 -9205.3971 -7468.9541 299.7446 77.2487 190.7812 30054.3964 -48.2390 23.3772
ENERGY: 1500000 2.8659 3.0675 2.1063 0.0000 -10558.5551 1423.5712 0.0000 0.0000 1757.1629 -7369.7813 301.7900 -9126.9441 -7468.5970 300.1154 21.4567 25.6987 30521.0382 -31.6827 32.3184
TCL: Running FEP window   3: Lambda1 0.8999999999999999 Lambda2 0.8499999999999999 [dLambda -0.050000000000000044]
TCL: Setting parameter firsttimestep to 0
TCL: Setting parameter alchLambda to 0.8999999999999999
Info: NONBONDED TABLE R-SQUARED SPACING: 0.0625
Info: NONBONDED TABLE SIZE: 705 POINTS
TCL: Setting parameter alchLambda2 to 0.8499999999999999
Info: NONBONDED TABLE R-SQUARED SPACING: 0.0625
Info: NONBONDED TABLE SIZE: 705 POINTS
TCL: Running for 1500000 steps
ETITLE: TS BOND ANGLE DIHED IMPRP ELECT VDW BOUNDARY MISC KINETIC TOTAL TEMP POTENTIAL TOTALAVG TEMPAVG PRESSURE GPRESSURE VOLUME PRESSAVG GPRESSAVG
ENERGY: 0 2.8659 3.0675 2.1063 0.0000 -10555.9782 1421.8686 0.0000 0.0000 1756.2867 -7369.7831 301.6395 -9126.0698 -7369.7831 301.6395 -65.3466 6.5292 30521.0382 -65.3466 6.5292
ENERGY: 300000 0.7770 3.1016 2.1415 0.0000 -10722.1420 1508.3466 0.0000 0.0000 1721.3619 -7486.4134 295.6412 -9207.7753 -7438.5305 299.6670 782.9368 810.0413 29785.0902 1.2211 80.9693
ENERGY: 600000 1.6197 1.5245 4.8823 0.0000 -10571.7055 1429.1812 0.0000 0.0000 1685.3716 -7449.1262 289.4599 -9134.4978 -7426.0821 300.3173 -151.0781 -90.4269 30542.2354 -115.5810 -38.8717
ENERGY: 900000 3.1501 3.4952 2.0626 0.0000 -10693.0727 1511.9280 0.0000 0.0000 1726.0423 -7446.3944 296.4451 -9172.4367 -7424.1458 301.1159 1047.5250 1103.3195 29809.1820 -48.2101 22.1224
ENERGY: 1200000 3.7547 2.1929 1.8053 0.0000 -10508.8686 1309.2338 0.0000 0.0000 1743.5614 -7448.3205 299.4539 -9191.8820 -7428.5791 300.6557 -1064.6453 -989.5565 30141.0786 -121.6032 -47.9425
ENERGY: 1500000 2.5360 1.1281 3.6693 0.0000 -10778.1331 1548.0032 0.0000 0.0000 1690.4144 -7532.3820 290.3260 -9222.7964 -7435.3578 299.9566 897.0408 997.1922 30043.8607 39.7399 115.5815
TCL: Running FEP window   4: Lambda1 0.8499999999999999 Lambda2 0.7999999999999998 [dLambda -0.050000000000000044]
TCL: Setting parameter firsttimestep to 0
TCL: Setting parameter alchLambda to 0.8499999999999999
Info: NONBONDED TABLE R-SQUARED SPACING: 0.0625
Info: NONBONDED TABLE SIZE: 705 POINTS
TCL: Setting parameter alchLambda2 to 0.7999999999999998
Info: NONBONDED TABLE R-SQUARED SPACING: 0.0625
Info: NONBONDED TABLE SIZE: 705 POINTS
TCL: Running for 1500000 steps
ETITLE: TS BOND ANGLE DIHED IMPRP ELECT VDW BOUNDARY MISC KINETIC TOTAL TEMP POTENTIAL TOTALAVG TEMPAVG PRESSURE GPRESSURE VOLUME PRESSAVG GPRESSAVG
ENERGY: 0 2.5360 1.1281 3.6693 0.0000 -10776.5451 1547.7416 0.0000 0.0000 1689.5317 -7531.9384 290.1744 -9221.4701 -7531.9384 290.1744 904.0827 994.6960 30043.8607 904.0827 994.6960
ENERGY: 300000 1.4185 3.0543 2.5436 0.0000 -10622.7285 1376.6942 0.0000 0.0000 1787.7918 -7451.2261 307.0504 -9239.0178 -7436.0811 298.4176 -368.2092 -343.0877 29845.1276 91.9160 155.2257
ENERGY: 600000 2.0961 2.4322 5.8485 0.0000 -10633.3306 1395.6119 0.0000 0.0000 1747.3966 -7479.9452 300.1126 -9227.3418 -7435.8344 300.3983 -236.9535 -184.9714 30156.1762 -113.2461 -41.0196
ENERGY: 900000 1.3291 2.8085 2.5393 0.0000 -10557.7936 1369.7934 0.0000 0.0000 1771.4099 -7409.9134 304.2369 -9181.3234 -7436.7398 301.4003 -518.9882 -442.7766 30290.7155 -111.7613 -44.9397
ENERGY: 1200000 3.3701 4.7916 2.4920 0.0000 -10736.4580 1434.9657 0.0000 0.0000 1716.6346 -7574.2040 294.8293 -9290.8386 -7442.1174 301.2169 -377.0210 -320.1637 30078.8811 -82.2099 -13.8661
ENERGY: 1500000 1.4664 2.8609 1.7004 0.0000 -10642.2673 1411.7929 0.0000 0.0000 1781.1302 -7443.3165 305.9063 -9224.4467 -7442.8715 301.6592 -37.2432 33.0332 29751.5492 -105.0784 -33.2381
TCL: Running FEP window   5: Lambda1 0.7999999999999998 Lambda2 0.7499999999999998 [dLambda -0.050000000000000044]
TCL: Setting parameter firsttimestep to 0
TCL: Setting parameter alchLambda to 0.7999999999999998
Info: NONBONDED TABLE R-SQUARED SPACING: 0.0625
Info: NONBONDED TABLE SIZE: 705 POINTS
TCL: Setting parameter alchLambda2 to 0.7499999999999998
Info: NONBONDED TABLE R-SQUARED SPACING: 0.0625
Info: NONBONDED TABLE SIZE: 705 POINTS
TCL: Running for 1500000 steps
ETITLE: TS BOND ANGLE DIHED IMPRP ELECT VDW BOUNDARY MISC KINETIC TOTAL TEMP POTENTIAL TOTALAVG TEMPAVG PRESSURE GPRESSURE VOLUME PRESSAVG GPRESSAVG
ENERGY: 0 1.4664 2.8609 1.7004 0.0000 -10640.3347 1410.2829 0.0000 0.0000 1780.2462 -7443.7780 305.7545 -9224.0241 -7443.7780 305.7545 -69.0623 13.3306 29751.5492 -69.0623 13.3306
ENERGY: 300000 3.1634 1.4657 2.1565 0.0000 -10694.8300 1489.6303 0.0000 0.0000 1746.3192 -7452.0948 299.9276 -9198.4140 -7413.3823 301.9489 204.3146 281.8326 30568.5914 217.6158 322.0310
ENERGY: 600000 5.6985 4.8551 3.9120 0.0000 -10564.0526 1341.1972 0.0000 0.0000 1784.0578 -7424.3320 306.4091 -9208.3898 -7416.1873 302.2438 -808.2858 -778.9893 29928.7232 -9.2649 84.6948
ENERGY: 900000 1.9738 5.3445 3.5903 0.0000 -10678.0586 1504.2096 0.0000 0.0000 1738.0134 -7424.9270 298.5011 -9162.9404 -7417.9002 301.5732 425.0882 494.2592 30330.6867 -80.7331 4.6799
ENERGY: 1200000 3.0597 2.5053 2.0395 0.0000 -10503.1153 1339.1216 0.0000 0.0000 1756.0815 -7400.3078 301.6042 -9156.3893 -7431.4820 300.5819 -497.9681 -476.3184 30013.6625 -129.0954 -56.5965
ENERGY: 1500000 1.9100 3.0364 2.1081 0.0000 -10663.4694 1439.7270 0.0000 0.0000 1768.4253 -7448.2626 303.7243 -9216.6880 -7432.2725 301.1041 -253.5670 -180.1820 30579.2821 -92.4511 -23.7901
TCL: Running FEP window   6: Lambda1 0.7499999999999998 Lambda2 0.6999999999999997 [dLambda -0.050000000000000044]
TCL: Setting parameter firsttimestep to 0
TCL: Setting parameter alchLambda to 0.7499999999999998
Info: NONBONDED TABLE R-SQUARED SPACING: 0.0625
Info: NONBONDED TABLE SIZE: 705 POINTS
TCL: Setting parameter alchLambda2 to 0.6999999999999997
Info: NONBONDED TABLE R-SQUARED SPACING: 0.0625
Info: NONBONDED TABLE SIZE: 705 POINTS
TCL: Running for 1500000 steps
ETITLE: TS BOND ANGLE DIHED IMPRP ELECT VDW BOUNDARY MISC KINETIC TOTAL TEMP POTENTIAL TOTALAVG TEMPAVG PRESSURE GPRESSURE VOLUME PRESSAVG GPRESSAVG
ENERGY: 0 1.9100 3.0364 2.1081 0.0000 -10662.2801 1439.6300 0.0000 0.0000 1767.6360 -7447.9596 303.5887 -9215.5956 -7447.9596 303.5887 -255.2894 -182.1679 30579.2821 -255.2894 -182.1679
ENERGY: 300000 1.4170 4.3002 4.2001 0.0000 -10565.3070 1357.2577 0.0000 0.0000 1709.7169 -7488.4151 293.6412 -9198.1320 -7447.3408 297.5999 -877.8213 -831.4073 30476.6889 -349.5426 -280.4386
ENERGY: 600000 3.5033 0.5319 4.7105 0.0000 -10713.5763 1435.2048 0.0000 0.0000 1758.0094 -7511.6164 301.9354 -9269.6258 -7460.5026 300.5927 -65.2559 -14.3939 29644.0417 -72.8971 -13.7782
ENERGY: 900000 2.6401 0.9493 1.3307 0.0000 -10696.0144 1385.1651 0.0000 0.0000 1792.9479 -7512.9812 307.9360 -9305.9292 -7478.2065 299.7902 -584.5994 -548.2994 30017.8678 -63.6408 -8.8945
ENERGY: 1200000 1.3110 1.9461 3.5947 0.0000 -10480.1835 1311.6062 0.0000 0.0000 1715.5310 -7446.1945 294.6398 -9161.7255 -7467.8880 299.0739 -1062.1952 -995.2651 30602.3287 -234.1093 -173.8536
ENERGY: 1500000 2.2366 3.5747 1.4570 0.0000 -10542.9524 1382.6431 0.0000 0.0000 1682.8270 -7470.2139 289.0229 -9153.0409 -7464.9291 298.2974 -219.9488 -116.3091 30114.3199 -246.6993 -186.3452
TCL: Running FEP window   7: Lambda1 0.6999999999999997 Lambda2 0.6499999999999997 [dLambda -0.050000000000000044]
TCL: Setting parameter firsttimestep to 0
TCL: Setting parameter alchLambda to 0.6999999999999997
Info: NONBONDED TABLE R-SQUARED SPACING: 0.0625
Info: NONBONDED TABLE SIZE: 705 POINTS
TCL: Setting parameter alchLambda2 to 0.6499999999999997
Info: NONBONDED TABLE R-SQUARED SPACING: 0.0625
Info: NONBONDED TABLE SIZE: 705 POINTS
TCL: Running for 1500000 steps
ETITLE: TS BOND ANGLE DIHED IMPRP ELECT VDW BOUNDARY MISC KINETIC TOTAL TEMP POTENTIAL TOTALAVG TEMPAVG PRESSURE GPRESSURE VOLUME PRESSAVG GPRESSAVG
ENERGY: 0 2.2366 3.5747 1.4570 0.0000 -10541.0241 1380.9339 0.0000 0.0000 1681.9657 -7470.8561 288.8750 -9152.8218 -7470.8561 288.8750 -226.7658 -136.3937 30114.3199 -226.7658 -136.3937
ENERGY: 300000 2.2914 2.3734 5.5210 0.0000 -10692.3813 1510.1700 0.0000 0.0000 1748.4630 -7423.5626 300.2958 -9172.0255 -7450.4304 296.7890 520.9450 562.2146 30066.2658 -114.5917 -62.4939
ENERGY: 600000 3.6451 4.1088 3.7952 0.0000 -10573.7561 1424.5189 0.0000 0.0000 1790.2336 -7347.4545 307.4698 -9137.6881 -7420.1590 301.8687 68.0105 57.3063 30090.0308 -183.6996 -132.0191
ENERGY: 900000 1.7143 2.3375 2.4622 0.0000 -10544.6091 1373.9137 0.0000 0.0000 1703.5322 -7460.6491 292.5790 -9164.1813 -7432.9253 300.6167 -39.0439 -16.9363 29740.4748 -114.2948 -62.5496
ENERGY: 1200000 1.0927 1.5200 2.2936 0.0000 -10733.1392 1492.0866 0.0000 0.0000 1705.5978 -7530.5486 292.9337 -9236.1463 -7440.9184 300.2784 320.6409 408.9647 30117.4971 -114.8471 -55.7103
ENERGY: 1500000 1.7156 4.2198 4.3370 0.0000 -10419.0627 1349.8814 0.0000 0.0000 1759.4643 -7299.4446 302.1852 -9058.9089 -7431.9139 300.4687 -410.3814 -367.2224 30551.3331 -96.3105 -32.7278
TCL: Running FEP window   8: Lambda1 0.6499999999999997 Lambda2 0.5999999999999996 [dLambda -0.050000000000000044]
TCL: Setting parameter firsttimestep to 0
TCL: Setting parameter alchLambda to 0.6499999999999997
Info: NONBONDED TABLE R-SQUARED SPACING: 0.0625
Info: NONBONDED TABLE SIZE: 705 POINTS
TCL: Setting parameter alchLambda2 to 0.5999999999999996
Info: NONBONDED TABLE R-SQUARED SPACING: 0.0625
Info: NONBONDED TABLE SIZE: 705 POINTS
TCL: Running for 1500000 steps
ETITLE: TS BOND ANGLE DIHED IMPRP ELECT VDW BOUNDARY MISC KINETIC TOTAL TEMP POTENTIAL TOTALAVG TEMPAVG PRESSURE GPRESSURE VOLUME PRESSAVG GPRESSAVG
ENERGY: 0 1.7156 4.2198 4.3370 0.0000 -10417.8347 1350.0662 0.0000 0.0000 1758.5681 -7298.9280 302.0313 -9057.4962 -7298.9280 302.0313 -435.4339 -372.3675 30551.3331 -435.4339 -372.3675
ENERGY: 300000 2.9428 3.4709 2.0374 0.0000 -10623.0063 1445.0020 0.0000 0.0000 1753.7561 -7415.7970 301.2049 -9169.5532 -7407.4298 300.1592 -99.0733 -31.3149 30543.6448 -143.6716 -70.7602
ENERGY: 600000 1.5544 5.8857 1.0464 0.0000 -10506.1239 1311.7483 0.0000 0.0000 1716.3684 -7469.5207 294.7836 -9185.8891 -7404.9800 301.5408 -960.6665 -958.2350 30486.9797 -158.4643 -98.6893
ENERGY: 900000 2.2132 2.7453 2.4430 0.0000 -10540.0887 1398.1332 0.0000 0.0000 1765.5190 -7369.0350 303.2251 -9134.5540 -7415.2995 302.0998 -337.0461 -238.2227 30825.0880 -213.2627 -147.5902
ENERGY: 1200000 1.8053 1.9308 2.3822 0.0000 -10635.1368 1444.6054 0.0000 0.0000 1776.1546 -7408.2584 305.0518 -9184.4130 -7416.9777 302.4594 139.0646 140.2682 30241.6326 -102.0048 -42.2134
ENERGY: 1500000 3.3130 3.9862 2.0582 0.0000 -10685.2566 1469.3814 0.0000 0.0000 1685.2447 -7521.2731 289.4381 -9206.5178 -7430.7967 301.7085 325.9709 462.8967 29908.5838 -75.6084 -8.8963
TCL: Running FEP window   9: Lambda1 0.5999999999999996 Lambda2 0.5499999999999996 [dLambda -0.050000000000000044]
TCL: Setting parameter firsttimestep to 0
TCL: Setting parameter alchLambda to 0.5999999999999996
Info: NONBONDED TABLE R-SQUARED SPACING: 0.0625
Info: NONBONDED TABLE SIZE: 705 POINTS
TCL: Setting parameter alchLambda2 to 0.5499999999999996
Info: NONBONDED TABLE R-SQUARED SPACING: 0.0625
Info: NONBONDED TABLE SIZE: 705 POINTS
TCL: Running for 1500000 steps
ETITLE: TS BOND ANGLE DIHED IMPRP ELECT VDW BOUNDARY MISC KINETIC TOTAL TEMP POTENTIAL TOTALAVG TEMPAVG PRESSURE GPRESSURE VOLUME PRESSAVG GPRESSAVG
ENERGY: 0 3.3130 3.9862 2.0582 0.0000 -10683.3676 1469.0894 0.0000 0.0000 1684.3466 -7520.5742 289.2839 -9204.9209 -7520.5742 289.2839 387.8490 457.1695 29908.5838 387.8490 457.1695
ENERGY: 300000 2.7670 3.4064 3.1156 0.0000 -10607.4697 1371.0876 0.0000 0.0000 1745.8892 -7481.2039 299.8537 -9227.0931 -7492.2033 292.4527 -679.1667 -595.7443 30128.2398 81.5890 159.5074
ENERGY: 600000 2.1487 3.6502 3.1120 0.0000 -10516.5212 1382.2139 0.0000 0.0000 1751.3864 -7374.0099 300.7979 -9125.3964 -7470.2097 296.2246 -308.5192 -238.2413 30175.6373 -175.4182 -94.5787
ENERGY: 900000 2.2091 4.6358 4.7530 0.0000 -10694.8515 1413.3235 0.0000 0.0000 1757.8328 -7512.0973 301.9050 -9269.9301 -7459.7319 297.9382 -247.5784 -212.0658 29689.4869 -225.0780 -154.5411
ENERGY: 1200000 0.9255 0.6223 3.3747 0.0000 -10498.3946 1377.4560 0.0000 0.0000 1660.0701 -7455.9459 285.1144 -9116.0160 -7457.7038 297.1835 -317.3483 -265.1847 30399.6130 -270.6046 -194.4455
ENERGY: 1500000 3.8684 1.6143 2.7693 0.0000 -10816.8781 1515.2568 0.0000 0.0000 1733.9515 -7559.4178 297.8034 -9293.3693 -7459.7808 298.0569 537.4403 473.1298 29769.6023 -194.0817 -128.9383
TCL: Running FEP window  10: Lambda1 0.5499999999999996 Lambda2 0.4999999999999996 [dLambda -0.04999999999999999]
TCL: Setting parameter firsttimestep to 0
TCL: Setting parameter alchLambda to 0.5499999999999996
Info: NONBONDED TABLE R-SQUARED SPACING: 0.0625
Info: NONBONDED TABLE SIZE: 705 POINTS
TCL: Setting parameter alchLambda2 to 0.4999999999999996
Info: NONBONDED TABLE R-SQUARED SPACING: 0.0625
Info: NONBONDED TABLE SIZE: 705 POINTS
TCL: Running for 1500000 steps
ETITLE: TS BOND ANGLE DIHED IMPRP ELECT VDW BOUNDARY MISC KINETIC TOTAL TEMP POTENTIAL TOTALAVG TEMPAVG PRESSURE GPRESSURE VOLUME PRESSAVG GPRESSAVG
ENERGY: 0 3.8684 1.6143 2.7693 0.0000 -10815.6688 1515.4466 0.0000 0.0000 1733.0950 -7558.8753 297.6563 -9291.9703 -7558.8753 297.6563 397.5588 472.0908 29769.6023 397.5588 472.0908
ENERGY: 300000 5.0128 3.7437 3.5805 0.0000 -10451.2070 1329.9506 0.0000 0.0000 1730.0649 -7378.8545 297.1359 -9108.9194 -7449.8159 301.6254 -473.5906 -449.4013 30221.1438 -95.2452 -34.2782
ENERGY: 600000 3.5565 1.9090 0.6736 0.0000 -10638.8262 1423.1007 0.0000 0.0000 1716.1633 -7493.4230 294.7483 -9209.5863 -7464.8779 299.7507 -318.3190 -293.1116 30444.3373 -247.3375 -193.0681
ENERGY: 900000 1.1486 3.3410 2.4518 0.0000 -10590.5349 1484.3232 0.0000 0.0000 1759.9655 -7339.3047 302.2713 -9099.2702 -7437.9880 300.2185 647.4705 672.0120 30072.0853 -170.5384 -107.4371
ENERGY: 1200000 4.3253 2.5808 7.6884 0.0000 -10525.0209 1303.1707 0.0000 0.0000 1730.9333 -7476.3223 297.2851 -9207.2556 -7447.0655 300.7270 -1053.4616 -1003.1579 29865.7044 -254.9928 -190.7993
ENERGY: 1500000 4.2662 1.1720 1.5978 0.0000 -10707.7153 1504.7007 0.0000 0.0000 1731.1832 -7464.7954 297.3280 -9195.9786 -7442.0229 301.0969 708.8960 715.9111 29565.4593 -101.5109 -47.9320
TCL: Running FEP window  11: Lambda1 0.4999999999999996 Lambda2 0.4499999999999996 [dLambda -0.04999999999999999]
TCL: Setting parameter firsttimestep to 0
TCL: Setting parameter alchLambda to 0.4999999999999996
Info: NONBONDED TABLE R-SQUARED SPACING: 0.0625
Info: NONBONDED TABLE SIZE: 705 POINTS
TCL: Setting parameter alchLambda2 to 0.4499999999999996
Info: NONBONDED TABLE R-SQUARED SPACING: 0.0625
Info: NONBONDED TABLE SIZE: 705 POINTS
TCL: Running for 1500000 steps
ETITLE: TS BOND ANGLE DIHED IMPRP ELECT VDW BOUNDARY MISC KINETIC TOTAL TEMP POTENTIAL TOTALAVG TEMPAVG PRESSURE GPRESSURE VOLUME PRESSAVG GPRESSAVG
ENERGY: 0 4.2662 1.1720 1.5978 0.0000 -10708.5015 1504.3648 0.0000 0.0000 1730.3138 -7466.7869 297.1787 -9197.1007 -7466.7869 297.1787 618.2309 702.0070 29565.4593 618.2309 702.0070
ENERGY: 300000 1.8196 4.1668 2.9238 0.0000 -10706.9836 1477.8471 0.0000 0.0000 1786.8312 -7433.3951 306.8854 -9220.2263 -7447.5128 300.5549 728.7236 746.3683 29472.9275 237.2707 293.7623
ENERGY: 600000 3.1806 3.0387 4.6238 0.0000 -10423.6822 1339.2921 0.0000 0.0000 1731.4633 -7342.0837 297.3761 -9073.5470 -7434.2696 300.4419 -250.7304 -176.2621 30118.2810 159.6796 227.3017
ENERGY: 900000 2.6772 2.5174 5.3735 0.0000 -10740.9057 1463.5000 0.0000 0.0000 1757.7872 -7509.0504 301.8972 -9266.8376 -7428.9099 301.6499 96.2392 125.5450 30014.6239 73.0510 141.1554
ENERGY: 1200000 2.8567 1.2043 3.0395 0.0000 -10609.9199 1416.4117 0.0000 0.0000 1762.3949 -7424.0129 302.6885 -9186.4078 -7418.7253 301.9756 8.1142 24.4183 29626.6746 117.5517 177.5920
ENERGY: 1500000 2.0391 2.8336 3.9138 0.0000 -10534.3985 1413.2251 0.0000 0.0000 1712.2307 -7400.1562 294.0729 -9112.3869 -7422.4164 300.3350 130.5494 202.0780 29908.2780 76.3026 137.4283
TCL: Running FEP window  12: Lambda1 0.4499999999999996 Lambda2 0.39999999999999963 [dLambda -0.04999999999999999]
TCL: Setting parameter firsttimestep to 0
TCL: Setting parameter alchLambda to 0.4499999999999996
Info: NONBONDED TABLE R-SQUARED SPACING: 0.0625
Info: NONBONDED TABLE SIZE: 705 POINTS
TCL: Setting parameter alchLambda2 to 0.39999999999999963
Info: NONBONDED TABLE R-SQUARED SPACING: 0.0625
Info: NONBONDED TABLE SIZE: 705 POINTS
TCL: Running for 1500000 steps
ETITLE: TS BOND ANGLE DIHED IMPRP ELECT VDW BOUNDARY MISC KINETIC TOTAL TEMP POTENTIAL TOTALAVG TEMPAVG PRESSURE GPRESSURE VOLUME PRESSAVG GPRESSAVG
ENERGY: 0 2.0391 2.8336 3.9138 0.0000 -10534.3996 1413.3573 0.0000 0.0000 1711.3488 -7400.9071 293.9215 -9112.2558 -7400.9071 293.9215 107.6437 196.0078 29908.2780 107.6437 196.0078
ENERGY: 300000 2.4878 4.5876 3.5901 0.0000 -10670.3172 1478.1621 0.0000 0.0000 1736.0274 -7445.4623 298.1600 -9181.4896 -7425.5321 300.0070 225.7476 361.0965 30138.7305 371.4552 456.0603
ENERGY: 600000 2.0594 3.5484 4.8170 0.0000 -10687.7604 1458.4225 0.0000 0.0000 1713.6772 -7505.2359 294.3214 -9218.9131 -7448.8086 300.2198 155.6820 209.2910 29973.8419 274.1070 352.6859
ENERGY: 900000 3.3193 3.5972 4.1404 0.0000 -10603.3399 1444.8315 0.0000 0.0000 1751.8217 -7395.6297 300.8726 -9147.4514 -7428.3466 300.1884 367.8982 334.0956 29967.6245 197.0364 258.8578
ENERGY: 1200000 3.2250 5.1267 3.1370 0.0000 -10669.3923 1491.7810 0.0000 0.0000 1763.6104 -7402.5121 302.8973 -9166.1226 -7427.3246 300.0867 543.0373 619.1223 30034.6940 214.2591 277.6648
ENERGY: 1500000 2.0128 2.7213 2.1305 0.0000 -10754.6812 1452.0628 0.0000 0.0000 1739.8979 -7555.8560 298.8247 -9295.7538 -7430.7925 300.0219 -174.7293 -26.2661 30015.3339 143.2757 211.5704
TCL: Running FEP window  13: Lambda1 0.39999999999999963 Lambda2 0.34999999999999964 [dLambda -0.04999999999999999]
TCL: Setting parameter firsttimestep to 0
TCL: Setting parameter alchLambda to 0.39999999999999963
Info: NONBONDED TABLE R-SQUARED SPACING: 0.0625
Info: NONBONDED TABLE SIZE: 705 POINTS
TCL: Setting parameter alchLambda2 to 0.34999999999999964
Info: NONBONDED TABLE R-SQUARED SPACING: 0.0625
Info: NONBONDED TABLE SIZE: 705 POINTS
TCL: Running for 1500000 steps
ETITLE: TS BOND ANGLE DIHED IMPRP ELECT VDW BOUNDARY MISC KINETIC TOTAL TEMP POTENTIAL TOTALAVG TEMPAVG PRESSURE GPRESSURE VOLUME PRESSAVG GPRESSAVG
ENERGY: 0 2.0128 2.7213 2.1305 0.0000 -10754.6806 1452.0934 0.0000 0.0000 1739.0381 -7556.6845 298.6771 -9295.7226 -7556.6845 298.6771 -103.1145 -28.1888 30015.3339 -103.1145 -28.1888
ENERGY: 300000 2.1694 2.9318 1.5231 0.0000 -10599.2056 1451.2206 0.0000 0.0000 1799.2180 -7342.1426 309.0129 -9141.3607 -7414.9408 300.8987 118.9911 170.8654 30291.4668 -38.5318 44.1699
ENERGY: 600000 1.6308 4.0318 1.9283 0.0000 -10552.3894 1359.7679 0.0000 0.0000 1737.8111 -7447.2194 298.4663 -9185.0305 -7452.5493 299.4946 -657.1335 -615.9179 30076.5229 47.4441 106.2413
ENERGY: 900000 5.4031 1.8240 6.2538 0.0000 -10508.8985 1333.9902 0.0000 0.0000 1738.4724 -7422.9550 298.5799 -9161.4275 -7458.2662 298.4938 -814.0197 -768.1097 30103.5285 -164.2070 -106.3087
ENERGY: 1200000 2.3741 4.5264 3.0379 0.0000 -10496.9137 1332.9748 0.0000 0.0000 1711.1954 -7442.8051 293.8951 -9154.0005 -7453.1479 297.8247 -873.9907 -889.7443 30491.6295 -123.3484 -75.9874
ENERGY: 1500000 1.8095 1.9598 1.6581 0.0000 -10505.2699 1406.5565 0.0000 0.0000 1761.3632 -7331.9228 302.5114 -9093.2860 -7440.1941 298.5982 103.8281 133.9102 29941.2795 -109.5966 -65.9278
TCL: Running FEP window  14: Lambda1 0.34999999999999964 Lambda2 0.29999999999999966 [dLambda -0.04999999999999999]
TCL: Setting parameter firsttimestep to 0
TCL: Setting parameter alchLambda to 0.34999999999999964
Info: NONBONDED TABLE R-SQUARED SPACING: 0.0625
Info: NONBONDED TABLE SIZE: 705 POINTS
TCL: Setting parameter alchLambda2 to 0.29999999999999966
Info: NONBONDED TABLE R-SQUARED SPACING: 0.0625
Info: NONBONDED TABLE SIZE: 705 POINTS
TCL: Running for 1500000 steps
ETITLE: TS BOND ANGLE DIHED IMPRP ELECT VDW BOUNDARY MISC KINETIC TOTAL TEMP POTENTIAL TOTALAVG TEMPAVG PRESSURE GPRESSURE VOLUME PRESSAVG GPRESSAVG
ENERGY: 0 1.8095 1.9598 1.6581 0.0000 -10505.2692 1406.9499 0.0000 0.0000 1760.4634 -7332.4286 302.3568 -9092.8920 -7332.4286 302.3568 54.4568 133.9188 29941.2795 54.4568 133.9188
ENERGY: 300000 1.9906 3.9701 3.1587 0.0000 -10737.4355 1480.2867 0.0000 0.0000 1705.5464 -7542.4831 292.9249 -9248.0295 -7441.5367 295.5527 387.3138 472.8765 29156.5640 347.2995 393.7214
ENERGY: 600000 1.0375 5.0547 2.4418 0.0000 -10525.2626 1390.2568 0.0000 0.0000 1734.6673 -7391.8044 297.9264 -9126.4718 -7420.5999 296.0307 -125.4879 -78.5476 30106.0276 162.4034 212.4121
ENERGY: 900000 2.6718 4.9403 1.3029 0.0000 -10669.3215 1507.4405 0.0000 0.0000 1735.3408 -7417.6253 298.0421 -9152.9661 -7426.3431 296.4423 747.4520 809.5815 30018.7833 164.9263 212.7301
ENERGY: 1200000 2.2697 3.4004 5.1788 0.0000 -10659.4589 1459.4226 0.0000 0.0000 1754.6838 -7434.5036 301.3642 -9189.1874 -7427.4956 296.5036 16.0011 77.6390 30284.1652 128.3961 177.9188
ENERGY: 1500000 1.3130 2.3916 2.0207 0.0000 -10409.7198 1316.0776 0.0000 0.0000 1712.1283 -7375.7887 294.0553 -9087.9169 -7424.2653 296.9744 -790.8106 -726.7190 30400.3585 1.2600 57.3926
TCL: Running FEP window  15: Lambda1 0.29999999999999966 Lambda2 0.24999999999999967 [dLambda -0.04999999999999999]
TCL: Setting parameter firsttimestep to 0
TCL: Setting parameter alchLambda to 0.29999999999999966
Info: NONBONDED TABLE R-SQUARED SPACING: 0.0625
Info: NONBONDED TABLE SIZE: 705 POINTS
TCL: Setting parameter alchLambda2 to 0.24999999999999967
Info: NONBONDED TABLE R-SQUARED SPACING: 0.0625
Info: NONBONDED TABLE SIZE: 705 POINTS
TCL: Running for 1500000 steps
ETITLE: TS BOND ANGLE DIHED IMPRP ELECT VDW BOUNDARY MISC KINETIC TOTAL TEMP POTENTIAL TOTALAVG TEMPAVG PRESSURE GPRESSURE VOLUME PRESSAVG GPRESSAVG
ENERGY: 0 1.3130 2.3916 2.0207 0.0000 -10409.7208 1315.8859 0.0000 0.0000 1711.2491 -7376.8605 293.9043 -9088.1096 -7376.8605 293.9043 -826.2376 -733.0875 30400.3585 -826.2376 -733.0875
ENERGY: 300000 1.0588 1.3440 3.9124 0.0000 -10536.6481 1370.2345 0.0000 0.0000 1813.4476 -7346.6509 311.4568 -9160.0985 -7384.1057 301.9779 -394.2296 -305.5888 30111.1120 -274.2976 -188.4632
ENERGY: 600000 2.7900 1.9632 2.7846 0.0000 -10693.8693 1512.4170 0.0000 0.0000 1800.2793 -7373.6350 309.1951 -9173.9143 -7397.6838 302.5884 649.5154 668.9293 30022.3185 -147.5624 -63.5270
ENERGY: 900000 1.8775 1.1754 3.7875 0.0000 -10564.1513 1368.9346 0.0000 0.0000 1722.7973 -7465.5789 295.8877 -9188.3761 -7418.0821 301.8710 -623.2265 -537.3823 30129.5825 -139.2443 -60.4334
ENERGY: 1200000 4.7869 2.8164 1.2430 0.0000 -10515.7732 1390.3474 0.0000 0.0000 1781.9856 -7334.5938 306.0532 -9116.5794 -7416.4438 302.0454 -207.5055 -167.8181 30255.6838 -171.9716 -92.3722
ENERGY: 1500000 1.3909 0.5754 1.7084 0.0000 -10571.5743 1408.6412 0.0000 0.0000 1788.4123 -7370.8462 307.1570 -9159.2585 -7416.7404 302.8466 -178.0950 -162.6198 30309.6097 -155.3314 -80.4301
TCL: Running FEP window  16: Lambda1 0.24999999999999967 Lambda2 0.19999999999999968 [dLambda -0.04999999999999999]
TCL: Setting parameter firsttimestep to 0
TCL: Setting parameter alchLambda to 0.24999999999999967
Info: NONBONDED TABLE R-SQUARED SPACING: 0.0625
Info: NONBONDED TABLE SIZE: 705 POINTS
TCL: Setting parameter alchLambda2 to 0.19999999999999968
Info: NONBONDED TABLE R-SQUARED SPACING: 0.0625
Info: NONBONDED TABLE SIZE: 705 POINTS
TCL: Running for 1500000 steps
ETITLE: TS BOND ANGLE DIHED IMPRP ELECT VDW BOUNDARY MISC KINETIC TOTAL TEMP POTENTIAL TOTALAVG TEMPAVG PRESSURE GPRESSURE VOLUME PRESSAVG GPRESSAVG
ENERGY: 0 1.3909 0.5754 1.7084 0.0000 -10571.5750 1408.9593 0.0000 0.0000 1787.5457 -7371.3954 307.0082 -9158.9411 -7371.3954 307.0082 -234.4340 -164.3620 30309.6097 -234.4340 -164.3620
ENERGY: 300000 1.5120 3.3368 1.5320 0.0000 -10673.9697 1428.3516 0.0000 0.0000 1817.2800 -7421.9574 312.1150 -9239.2374 -7403.5794 300.9067 2.7330 41.4973 29599.3810 -100.6174 -48.6334
ENERGY: 600000 2.9385 3.4414 2.8692 0.0000 -10552.6421 1307.0451 0.0000 0.0000 1738.8858 -7497.4620 298.6509 -9236.3478 -7434.5727 300.5061 -1107.7772 -1102.6625 29940.2356 -302.6049 -258.0429
ENERGY: 900000 1.2904 2.8941 1.9200 0.0000 -10599.1770 1457.6773 0.0000 0.0000 1742.2169 -7393.1783 299.2230 -9135.3952 -7427.6612 300.4615 294.2555 328.5403 30030.4633 -18.4845 33.8910
ENERGY: 1200000 5.0827 4.6123 2.1125 0.0000 -10634.1252 1437.8180 0.0000 0.0000 1768.4794 -7416.0203 303.7335 -9184.4996 -7426.5505 299.6392 214.4197 263.7018 30044.7654 -135.9330 -79.2100
ENERGY: 1500000 2.4286 4.1315 6.6379 0.0000 -10772.9970 1495.4138 0.0000 0.0000 1792.7072 -7471.6781 307.8946 -9264.3854 -7435.3251 299.7145 212.9923 223.3430 30227.8374 -72.4977 -15.2150
TCL: Running FEP window  17: Lambda1 0.19999999999999968 Lambda2 0.1499999999999997 [dLambda -0.04999999999999999]
TCL: Setting parameter firsttimestep to 0
TCL: Setting parameter alchLambda to 0.19999999999999968
Info: NONBONDED TABLE R-SQUARED SPACING: 0.0625
Info: NONBONDED TABLE SIZE: 705 POINTS
TCL: Setting parameter alchLambda2 to 0.1499999999999997
Info: NONBONDED TABLE R-SQUARED SPACING: 0.0625
Info: NONBONDED TABLE SIZE: 705 POINTS
TCL: Running for 1500000 steps
ETITLE: TS BOND ANGLE DIHED IMPRP ELECT VDW BOUNDARY MISC KINETIC TOTAL TEMP POTENTIAL TOTALAVG TEMPAVG PRESSURE GPRESSURE VOLUME PRESSAVG GPRESSAVG
ENERGY: 0 2.4286 4.1315 6.6379 0.0000 -10772.9968 1495.8504 0.0000 0.0000 1791.8557 -7472.0928 307.7484 -9263.9485 -7472.0928 307.7484 129.5810 223.9096 30227.8374 129.5810 223.9096
ENERGY: 300000 0.6531 3.8425 2.1608 0.0000 -10684.6411 1466.0101 0.0000 0.0000 1783.1968 -7428.7778 306.2612 -9211.9746 -7448.8693 303.1384 360.3317 448.3946 29580.6205 50.7386 134.5824
ENERGY: 600000 3.1108 2.3070 2.2058 0.0000 -10585.3901 1392.6197 0.0000 0.0000 1807.1005 -7378.0463 310.3667 -9185.1468 -7460.9373 302.0592 -320.7450 -280.1416 30328.1921 18.8361 90.2493
ENERGY: 900000 7.0195 1.5925 4.0720 0.0000 -10885.8254 1528.4988 0.0000 0.0000 1734.1084 -7610.5342 297.8304 -9344.6426 -7459.8898 302.5483 226.7768 326.6178 29968.5264 -70.8702 0.7939
ENERGY: 1200000 2.0606 1.6928 1.5521 0.0000 -10629.1369 1453.8922 0.0000 0.0000 1730.1488 -7439.7904 297.1503 -9169.9392 -7449.5164 301.5668 197.3896 260.5213 29918.3613 -97.8575 -21.9550
ENERGY: 1500000 2.5633 0.9636 4.2953 0.0000 -10643.9982 1402.9447 0.0000 0.0000 1722.5864 -7510.6448 295.8515 -9233.2312 -7457.8653 300.7180 -368.0845 -315.1633 30236.9238 -160.3841 -88.1475
TCL: Running FEP window  18: Lambda1 0.1499999999999997 Lambda2 0.09999999999999969 [dLambda -0.05 ]
TCL: Setting parameter firsttimestep to 0
TCL: Setting parameter alchLambda to 0.1499999999999997
Info: NONBONDED TABLE R-SQUARED SPACING: 0.0625
Info: NONBONDED TABLE SIZE: 705 POINTS
TCL: Setting parameter alchLambda2 to 0.09999999999999969
Info: NONBONDED TABLE R-SQUARED SPACING: 0.0625
Info: NONBONDED TABLE SIZE: 705 POINTS
TCL: Running for 1500000 steps
ETITLE: TS BOND ANGLE DIHED IMPRP ELECT VDW BOUNDARY MISC KINETIC TOTAL TEMP POTENTIAL TOTALAVG TEMPAVG PRESSURE GPRESSURE VOLUME PRESSAVG GPRESSAVG
ENERGY: 0 2.5633 0.9636 4.2953 0.0000 -10643.9986 1402.1907 0.0000 0.0000 1721.7073 -7512.2783 295.7005 -9233.9857 -7512.2783 295.7005 -420.0457 -320.9312 30236.9238 -420.0457 -320.9312
ENERGY: 300000 2.4164 4.1807 2.8732 0.0000 -10518.5581 1374.0657 0.0000 0.0000 1806.1845 -7328.8377 310.2093 -9135.0221 -7418.7383 301.2054 -240.1876 -252.2580 30081.8449 -82.8589 -59.7367
ENERGY: 600000 1.0640 4.9460 4.7449 0.0000 -10677.9655 1494.7715 0.0000 0.0000 1753.8164 -7418.6227 301.2152 -9172.4391 -7418.5170 301.9739 498.3915 510.0081 30220.9466 36.4578 64.3014
ENERGY: 900000 2.1784 3.9319 1.8663 0.0000 -10631.6792 1421.8885 0.0000 0.0000 1770.6642 -7431.1498 304.1088 -9201.8140 -7436.9037 300.7979 -330.6670 -306.5947 30375.9373 -126.4768 -89.6559
ENERGY: 1200000 0.6664 3.1069 4.4954 0.0000 -10560.0080 1344.5444 0.0000 0.0000 1718.0363 -7489.1585 295.0700 -9207.1948 -7445.3736 300.3243 -570.9678 -540.3214 29841.8430 -190.5643 -152.3794
ENERGY: 1500000 3.5108 3.2841 1.4259 0.0000 -10662.4521 1450.6536 0.0000 0.0000 1655.1787 -7548.3991 284.2743 -9203.5778 -7444.0583 299.0818 -206.8795 -115.7166 30418.6106 -246.2490 -196.6318
TCL: Running FEP window  19: Lambda1 0.09999999999999969 Lambda2 0.049999999999999684 [dLambda -0.05 ]
TCL: Setting parameter firsttimestep to 0
TCL: Setting parameter alchLambda to 0.09999999999999969
Info: NONBONDED TABLE R-SQUARED SPACING: 0.0625
Info: NONBONDED TABLE SIZE: 705 POINTS
TCL: Setting parameter alchLambda2 to 0.049999999999999684
Info: NONBONDED TABLE R-SQUARED SPACING: 0.0625
Info: NONBONDED TABLE SIZE: 705 POINTS
TCL: Running for 1500000 steps
ETITLE: TS BOND ANGLE DIHED IMPRP ELECT VDW BOUNDARY MISC KINETIC TOTAL TEMP POTENTIAL TOTALAVG TEMPAVG PRESSURE GPRESSURE VOLUME PRESSAVG GPRESSAVG
ENERGY: 0 3.5108 3.2841 1.4259 0.0000 -10662.4514 1450.3802 0.0000 0.0000 1654.3063 -7549.5441 284.1245 -9203.8504 -7549.5441 284.1245 -215.7068 -120.4413 30418.6106 -215.7068 -120.4413
ENERGY: 300000 0.8560 3.1214 3.4471 0.0000 -10676.1890 1468.8725 0.0000 0.0000 1729.0250 -7470.8670 296.9573 -9199.8920 -7466.8745 295.9944 88.0304 140.2503 30134.9466 137.8544 200.1526
ENERGY: 600000 1.0658 2.8746 7.0900 0.0000 -10539.2329 1363.3640 0.0000 0.0000 1740.6922 -7424.1463 298.9612 -9164.8385 -7442.7517 300.0725 -464.9562 -370.2067 29880.9422 -112.1053 -52.3987
ENERGY: 900000 3.0686 3.5890 1.7486 0.0000 -10651.6274 1434.9452 0.0000 0.0000 1734.4535 -7473.8226 297.8897 -9208.2761 -7462.6623 297.6875 -193.4503 -129.0702 30130.9669 -184.1007 -125.5972
ENERGY: 1200000 1.5076 2.5810 2.9290 0.0000 -10819.2548 1545.2605 0.0000 0.0000 1767.5236 -7499.4532 303.5694 -9266.9768 -7466.9020 298.3680 724.9697 735.2988 29925.4375 -113.4870 -58.4667
ENERGY: 1500000 1.1068 2.2476 0.8255 0.0000 -10539.8472 1447.1414 0.0000 0.0000 1725.3334 -7363.1924 296.3233 -9088.5258 -7455.4312 298.9079 -5.2157 45.2094 30437.2371 -92.1310 -40.3092
TCL: Running FEP window  20: Lambda1 0.049999999999999684 Lambda2 0.0    [dLambda -0.049999999999999684]
TCL: Setting parameter firsttimestep to 0
TCL: Setting parameter alchLambda to 0.049999999999999684
Info: NONBONDED TABLE R-SQUARED SPACING: 0.0625
Info: NONBONDED TABLE SIZE: 705 POINTS
TCL: Setting parameter alchLambda2 to 0.0
Info: NONBONDED TABLE R-SQUARED SPACING: 0.0625
Info: NONBONDED TABLE SIZE: 705 POINTS
TCL: Running for 1500000 steps
ETITLE: TS BOND ANGLE DIHED IMPRP ELECT VDW BOUNDARY MISC KINETIC TOTAL TEMP POTENTIAL TOTALAVG TEMPAVG PRESSURE GPRESSURE VOLUME PRESSAVG GPRESSAVG
ENERGY: 0 1.1068 2.2476 0.8255 0.0000 -10539.8459 1446.9843 0.0000 0.0000 1724.4542 -7364.2276 296.1723 -9088.6817 -7364.2276 296.1723 -46.4241 42.2244 30437.2371 -46.4241 42.2244
ENERGY: 300000 1.3920 3.5107 1.5669 0.0000 -10614.3460 1403.2762 0.0000 0.0000 1749.2909 -7455.3094 300.4380 -9204.6004 -7456.9159 296.3636 -10.8013 -36.3651 29547.6335 -93.7170 -58.2327
ENERGY: 600000 1.3352 4.0048 3.2599 0.0000 -10629.1131 1501.6555 0.0000 0.0000 1783.1639 -7335.6938 306.2556 -9118.8577 -7443.1313 297.5383 605.8836 656.1594 30186.4593 67.8313 115.4173
ENERGY: 900000 4.5247 4.4763 4.3053 0.0000 -10565.9399 1412.5429 0.0000 0.0000 1759.2696 -7380.8211 302.1518 -9140.0907 -7433.2984 299.2419 -407.0235 -333.2622 30627.3517 -72.1806 -21.2678
ENERGY: 1200000 3.6971 4.3244 3.2155 0.0000 -10685.9380 1452.9201 0.0000 0.0000 1713.5388 -7508.2420 294.2976 -9221.7808 -7446.1390 298.1583 -373.6595 -291.0707 30147.2032 -108.0299 -49.4970
ENERGY: 1500000 1.5946 4.7072 3.5601 0.0000 -10576.6703 1372.2494 0.0000 0.0000 1752.2706 -7442.2884 300.9497 -9194.5590 -7440.3940 298.6091 -644.5381 -616.7141 30243.3830 -149.2912 -85.4153
TCL: Exiting due to exit command.
