Info: SIMULATION PARAMETERS:
Info: TIMESTEP               2
Info: NUMBER OF STEPS        0
Info: STEPS PER CYCLE        10
Info: PERIODIC CELL BASIS 1  29.9968 0 0
Info: PERIODIC CELL BASIS 2  0 31.9646 0
Info: PERIODIC CELL BASIS 3  0 0 31.3262
Info: PERIODIC CELL CENTER   0 0 0
Info: WRAPPING WATERS AROUND PERIODIC BOUNDARIES ON OUTPUT.
Info: WRAPPING ALL CLUSTERS AROUND PERIODIC BOUNDARIES ON OUTPUT.
Info: FIRST LDB TIMESTEP     50
Info: LAST LDB TIMESTEP     -1
Info: HOM BACKGROUND SCALING 1
Info: PME BACKGROUND SCALING 1
Info: MIN ATOMS PER PATCH    40
Info: EMPTY PATCH LOAD       40 ATOMS
Info: VELOCITY FILE          mobley_4338603_equil.vel
Info: CENTER OF MASS MOVING INITIALLY? NO
Info: DIELECTRIC             1
Info: EXCLUDE                SCALED ONE-FOUR
Info: 1-4 ELECTROSTATICS SCALED BY 0.833333
Info: MODIFIED 1-4 VDW PARAMETERS WILL BE USED
Info: DCD FILENAME           mobley_4338603_prod.dcd
Info: DCD FREQUENCY          100000
Info: DCD FIRST STEP         100000
Info: DCD FILE WILL CONTAIN UNIT CELL DATA
Info: XST FILENAME           mobley_4338603_prod.xst
Info: XST FREQUENCY          100000
Info: NO VELOCITY DCD OUTPUT
Info: NO FORCE DCD OUTPUT
Info: OUTPUT FILENAME        mobley_4338603_prod
Info: BINARY OUTPUT FILES WILL BE USED
Info: RESTART FILENAME       mobley_4338603_prod.restart
Info: RESTART FREQUENCY      100000
Info: BINARY RESTART FILES WILL BE USED
Info: CUTOFF                 9
Info: PAIRLIST DISTANCE      11
Info: PAIRLIST SHRINK RATE   0.01
Info: PAIRLIST GROW RATE     0.01
Info: PAIRLIST TRIGGER       0.3
Info: PAIRLISTS PER CYCLE    2
Info: PAIRLISTS ENABLED
Info: MARGIN                 2
Info: HYDROGEN GROUP CUTOFF  2.5
Info: PATCH DIMENSION        15.5
Info: ENERGY OUTPUT STEPS    100000
Info: ENERGY EVALUATION STEPS    100000
Info: OUTPUT ENERGY PRECISION 4
Info: CROSSTERM ENERGY INCLUDED IN DIHEDRAL
Info: TIMING OUTPUT STEPS    1000000
Info: PRESSURE OUTPUT STEPS  100000
Info: ALCHEMICAL FEP ON
Info: FEP CURRENT LAMBDA VALUE     0
Info: FEP COMPARISON LAMBDA VALUE  0.05
Info: FEP INTRA-ALCHEMICAL NON-BONDED INTERACTIONS WILL BE RETAINED
Info: FEP INTRA-ALCHEMICAL BONDED INTERACTIONS WILL BE RETAINED
Info: FEP VDW SHIFTING COEFFICIENT 5
Info: FEP ELEC. ACTIVE FOR ANNIHILATED PARTICLES BETWEEN LAMBDA = 0 AND LAMBDA = 0.5
Info: FEP ELEC. ACTIVE FOR EXNIHILATED PARTICLES BETWEEN LAMBDA = 0.5 AND LAMBDA = 1
Info: FEP VDW ACTIVE FOR ANNIHILATED PARTICLES BETWEEN LAMBDA = 0 AND LAMBDA = 1
Info: FEP VDW ACTIVE FOR EXNIHILATED PARTICLES BETWEEN LAMBDA = 0 AND LAMBDA = 1
Info: FEP BOND ACTIVE FOR ANNIHILATED PARTICLES BETWEEN LAMBDA = 1 AND LAMBDA = 1
Info: FEP BOND ACTIVE FOR EXNIHILATED PARTICLES BETWEEN LAMBDA = 0 AND LAMBDA = 0
Info: LANGEVIN DYNAMICS ACTIVE
Info: LANGEVIN TEMPERATURE   300
Info: LANGEVIN USING BBK INTEGRATOR
Info: LANGEVIN DAMPING COEFFICIENT IS 1 INVERSE PS
Info: LANGEVIN DYNAMICS APPLIED TO HYDROGENS
Info: LANGEVIN PISTON PRESSURE CONTROL ACTIVE
Info:        TARGET PRESSURE IS 1.01325 BAR
Info:     OSCILLATION PERIOD IS 50 FS
Info:             DECAY TIME IS 25 FS
Info:     PISTON TEMPERATURE IS 300 K
Info:       PRESSURE CONTROL IS GROUP-BASED
Info:    INITIAL STRAIN RATE IS 0.000295556 0.000295556 0.000295556
Info:       CELL FLUCTUATION IS ISOTROPIC
Info: PARTICLE MESH EWALD (PME) ACTIVE
Info: PME TOLERANCE               1e-06
Info: PME EWALD COEFFICIENT       0.348832
Info: PME INTERPOLATION ORDER     4
Info: PME GRID DIMENSIONS         32 32 32
Info: PME MAXIMUM GRID SPACING    1
Info: PME CALCULATION WILL BE PERFORMED ON GPU
Info: FULL ELECTROSTATIC EVALUATION FREQUENCY      2
Info: USING VERLET I (r-RESPA) MTS SCHEME.
Info: C1 SPLITTING OF LONG RANGE ELECTROSTATICS
Info: PLACING ATOMS IN PATCHES BY HYDROGEN GROUPS
Info: RIGID BONDS TO HYDROGEN : ALL
Info:         ERROR TOLERANCE : 1e-08
Info:          MAX ITERATIONS : 100
Info: RIGID WATER USING SETTLE ALGORITHM
Info: RANDOM NUMBER SEED     1743528554
Info: USE HYDROGEN BONDS?    NO
Info: Using AMBER format force field!
Info: AMBER PARM FILE        mobley_4338603.prmtop
Info: COORDINATE PDB         mobley_4338603.pdb
Info: Exclusions will be read from PARM file!
Info: SCNB (VDW SCALING)     2
Info: USING ARITHMETIC MEAN TO COMBINE L-J SIGMA PARAMETERS
Info: BINARY COORDINATES     mobley_4338603_equil.coor
Info: SUMMARY OF PARAMETERS:
Info: 10 BONDS
Info: 14 ANGLES
Info:   14 HARMONIC
Info:   0 COSINE-BASED
Info: 7 DIHEDRAL
Info: 0 IMPROPER
Info: 0 CROSSTERM
Info: 0 VDW
Info: 36 VDW_PAIRS
Info: 0 NBTHOLE_PAIRS
Info: To read alchdata from file: mobley_4338603.pdb
Info: To read alchflag data from column: 5
Info: STRUCTURE SUMMARY:
Info: 2943 ATOMS
Info: 2943 BONDS
Info: 18 ANGLES
Info: 33 DIHEDRALS
Info: 0 IMPROPERS
Info: 0 CROSSTERMS
Info: 2982 EXCLUSIONS
Info: 2934 RIGID BONDS
Info: ALCH: 0 ATOMS TO DISAPPEAR IN FINAL STATE
Info: ALCH: 12 ATOMS TO APPEAR IN FINAL STATE
Info: 5895 DEGREES OF FREEDOM
Info: 986 HYDROGEN GROUPS
Info: 3 ATOMS IN LARGEST HYDROGEN GROUP
Info: 986 MIGRATION GROUPS
Info: 3 ATOMS IN LARGEST MIGRATION GROUP
Info: TOTAL MASS = 17748.2 amu
Info: TOTAL CHARGE = -8.9407e-08 e
Info: MASS DENSITY = 0.981204 g/cm^3
Info: ATOM DENSITY = 0.0979798 atoms/A^3
Info: ADDED 0 IMPLICIT EXCLUSIONS
Info: NONBONDED TABLE R-SQUARED SPACING: 0.0625
Info: NONBONDED TABLE SIZE: 705 POINTS
Info: REMOVING COM VELOCITY -0.0428637 0.00329519 0.0532264
Info: Use 3D box decompostion in PME FFT.
Info: Updated CUDA force table with 4096 elements.
Info: Updated CUDA LJ table with 8 x 8 elements.
Info: Found 14 unique exclusion lists needing 24 bytes
TCL: Running for 1500000 steps
ETITLE: TS BOND ANGLE DIHED IMPRP ELECT VDW BOUNDARY MISC KINETIC TOTAL TEMP POTENTIAL TOTALAVG TEMPAVG PRESSURE GPRESSURE VOLUME PRESSAVG GPRESSAVG
ENERGY: 0 4.5129 4.1903 13.2194 0.0000 -10956.9971 1494.1786 0.0000 0.0000 1782.8683 -7658.0276 304.3868 -9440.8959 -7658.0276 304.3868 392.1598 482.8321 30036.7945 392.1598 482.8321
ENERGY: 300000 4.8215 2.8318 13.5140 0.0000 -10929.2881 1442.1843 0.0000 0.0000 1761.3648 -7704.5716 300.7156 -9465.9365 -7649.7085 299.0667 161.4848 234.4988 29609.4955 82.0399 167.8207
ENERGY: 600000 1.3705 6.3835 13.4265 0.0000 -10920.8638 1462.0476 0.0000 0.0000 1829.5335 -7608.1022 312.3539 -9437.6356 -7633.7138 301.5188 200.0544 221.1614 30012.0138 206.4697 273.0871
ENERGY: 900000 5.0171 5.5444 14.5191 0.0000 -10871.1641 1397.0444 0.0000 0.0000 1745.5633 -7703.4759 298.0178 -9449.0392 -7643.8243 301.6746 -452.8894 -432.0418 30194.1932 5.6556 64.2341
ENERGY: 1200000 1.7672 2.2492 14.7710 0.0000 -10990.7322 1498.0708 0.0000 0.0000 1722.5470 -7751.3272 294.0882 -9473.8742 -7654.8999 301.2930 59.3390 197.2119 30254.8069 -51.5147 14.7293
ENERGY: 1500000 3.7370 6.5775 15.5587 0.0000 -10862.2783 1375.9580 0.0000 0.0000 1741.9840 -7718.4631 297.4067 -9460.4472 -7656.5991 301.4232 -566.5613 -506.2222 29899.3823 -93.1744 -16.8730
TCL: Running FEP window   2: Lambda1 0.05   Lambda2 0.1    [dLambda 0.05  ]
TCL: Setting parameter firsttimestep to 0
TCL: Setting parameter alchLambda to 0.05
Info: NONBONDED TABLE R-SQUARED SPACING: 0.0625
Info: NONBONDED TABLE SIZE: 705 POINTS
TCL: Setting parameter alchLambda2 to 0.1
Info: NONBONDED TABLE R-SQUARED SPACING: 0.0625
Info: NONBONDED TABLE SIZE: 705 POINTS
TCL: Running for 1500000 steps
ETITLE: TS BOND ANGLE DIHED IMPRP ELECT VDW BOUNDARY MISC KINETIC TOTAL TEMP POTENTIAL TOTALAVG TEMPAVG PRESSURE GPRESSURE VOLUME PRESSAVG GPRESSAVG
ENERGY: 0 3.7370 6.5775 15.5587 0.0000 -10862.2785 1377.8675 0.0000 0.0000 1741.0780 -7717.4598 297.2520 -9458.5378 -7717.4598 297.2520 -583.9556 -497.4892 29899.3823 -583.9556 -497.4892
ENERGY: 300000 1.3382 3.9587 14.6485 0.0000 -10922.6690 1414.8388 0.0000 0.0000 1774.0217 -7713.8632 302.8764 -9487.8849 -7687.7388 299.7606 -505.8729 -432.6234 30234.0767 -446.0317 -373.1153
ENERGY: 600000 1.4044 2.4859 16.2070 0.0000 -10799.2711 1386.2512 0.0000 0.0000 1777.8891 -7615.0335 303.5367 -9392.9226 -7662.1795 299.8256 -456.0960 -379.3612 30215.7776 -246.6446 -178.7229
ENERGY: 900000 4.7169 5.0443 13.5562 0.0000 -10792.4535 1380.5766 0.0000 0.0000 1746.1677 -7642.3919 298.1210 -9388.5596 -7663.6111 300.1592 -650.0491 -564.9401 30839.1984 -293.1708 -233.6979
ENERGY: 1200000 2.8724 6.1623 14.7336 0.0000 -10935.6377 1428.6203 0.0000 0.0000 1763.2555 -7719.9936 301.0384 -9483.2491 -7661.3964 300.9628 -345.0443 -355.3366 30433.2303 -174.4754 -126.3522
ENERGY: 1500000 5.5637 2.8378 17.3612 0.0000 -10944.6561 1532.9719 0.0000 0.0000 1702.4493 -7683.4723 290.6570 -9385.9216 -7667.2469 298.8453 601.8458 640.7894 30261.5969 -151.4789 -99.3365
TCL: Running FEP window   3: Lambda1 0.1    Lambda2 0.15000000000000002 [dLambda 0.05000000000000002]
TCL: Setting parameter firsttimestep to 0
TCL: Setting parameter alchLambda to 0.1
Info: NONBONDED TABLE R-SQUARED SPACING: 0.0625
Info: NONBONDED TABLE SIZE: 705 POINTS
TCL: Setting parameter alchLambda2 to 0.15000000000000002
Info: NONBONDED TABLE R-SQUARED SPACING: 0.0625
Info: NONBONDED TABLE SIZE: 705 POINTS
TCL: Running for 1500000 steps
ETITLE: TS BOND ANGLE DIHED IMPRP ELECT VDW BOUNDARY MISC KINETIC TOTAL TEMP POTENTIAL TOTALAVG TEMPAVG PRESSURE GPRESSURE VOLUME PRESSAVG GPRESSAVG
ENERGY: 0 5.5637 2.8378 17.3612 0.0000 -10944.6579 1538.0175 0.0000 0.0000 1701.5864 -7679.2913 290.5097 -9380.8777 -7679.2913 290.5097 572.3022 654.5545 30261.5969 572.3022 654.5545
ENERGY: 300000 3.5437 2.1185 12.9376 0.0000 -10951.1525 1452.8033 0.0000 0.0000 1720.3365 -7759.4130 293.7108 -9479.7495 -7704.7029 295.0349 -91.2136 -60.8779 30255.9632 34.9519 114.9866
ENERGY: 600000 2.9742 8.4576 13.0084 0.0000 -10996.9199 1516.0201 0.0000 0.0000 1785.1082 -7671.3514 304.7692 -9456.4596 -7686.4521 298.4912 734.1555 750.0000 29612.1419 157.7623 229.7859
ENERGY: 900000 5.4953 2.8150 14.9250 0.0000 -10888.6955 1471.8316 0.0000 0.0000 1805.2557 -7588.3729 308.2090 -9393.6285 -7679.8280 299.4776 618.6201 779.7149 29516.9495 118.1259 194.9681
ENERGY: 1200000 4.1682 4.6257 13.0970 0.0000 -10901.6624 1446.5419 0.0000 0.0000 1738.9314 -7694.2982 296.8855 -9433.2297 -7671.7446 298.9871 328.6263 414.8276 29514.5855 137.2688 210.8876
ENERGY: 1500000 2.3238 5.5277 14.4250 0.0000 -10825.0213 1397.2371 0.0000 0.0000 1765.8894 -7639.6184 301.4880 -9405.5078 -7670.6590 298.3735 -390.6598 -354.1464 30540.2731 10.8129 79.8599
TCL: Running FEP window   4: Lambda1 0.15000000000000002 Lambda2 0.2    [dLambda 0.04999999999999999]
TCL: Setting parameter firsttimestep to 0
TCL: Setting parameter alchLambda to 0.15000000000000002
Info: NONBONDED TABLE R-SQUARED SPACING: 0.0625
Info: NONBONDED TABLE SIZE: 705 POINTS
TCL: Setting parameter alchLambda2 to 0.2
Info: NONBONDED TABLE R-SQUARED SPACING: 0.0625
Info: NONBONDED TABLE SIZE: 705 POINTS
TCL: Running for 1500000 steps
ETITLE: TS BOND ANGLE DIHED IMPRP ELECT VDW BOUNDARY MISC KINETIC TOTAL TEMP POTENTIAL TOTALAVG TEMPAVG PRESSURE GPRESSURE VOLUME PRESSAVG GPRESSAVG
ENERGY: 0 2.3239 5.5277 14.4250 0.0000 -10825.0195 1398.2477 0.0000 0.0000 1764.9858 -7639.5094 301.3338 -9404.4952 -7639.5094 301.3338 -417.3912 -349.9022 30540.2731 -417.3912 -349.9022
ENERGY: 300000 3.3774 5.5878 14.5141 0.0000 -10873.4159 1372.1974 0.0000 0.0000 1760.4782 -7717.2610 300.5642 -9477.7392 -7635.6985 299.1894 -558.6483 -524.7689 29843.0977 -311.4673 -246.9277
ENERGY: 600000 1.9527 3.7843 15.7958 0.0000 -10770.0721 1392.0054 0.0000 0.0000 1729.9164 -7626.6174 295.3464 -9356.5338 -7659.1742 298.1136 -354.0156 -252.0455 30473.1863 -242.3247 -181.2607
ENERGY: 900000 4.0160 2.0975 14.9724 0.0000 -10847.5348 1419.8318 0.0000 0.0000 1794.3689 -7612.2483 306.3503 -9406.6172 -7660.3380 298.1755 -167.3862 -175.5928 30646.9486 -163.4986 -116.6538
ENERGY: 1200000 3.7352 4.8903 15.2701 0.0000 -10989.0744 1546.2236 0.0000 0.0000 1737.7467 -7681.2086 296.6833 -9418.9553 -7653.6952 299.2966 803.0729 782.9479 30134.3930 -55.1154 -10.2182
ENERGY: 1500000 4.4002 3.7987 14.3978 0.0000 -10975.2044 1531.8052 0.0000 0.0000 1732.4646 -7688.3380 295.7815 -9420.8026 -7659.3880 299.5809 798.5444 839.4287 30238.1108 -103.5090 -56.6212
TCL: Running FEP window   5: Lambda1 0.2    Lambda2 0.25   [dLambda 0.04999999999999999]
TCL: Setting parameter firsttimestep to 0
TCL: Setting parameter alchLambda to 0.2
Info: NONBONDED TABLE R-SQUARED SPACING: 0.0625
Info: NONBONDED TABLE SIZE: 705 POINTS
TCL: Setting parameter alchLambda2 to 0.25
Info: NONBONDED TABLE R-SQUARED SPACING: 0.0625
Info: NONBONDED TABLE SIZE: 705 POINTS
TCL: Running for 1500000 steps
ETITLE: TS BOND ANGLE DIHED IMPRP ELECT VDW BOUNDARY MISC KINETIC TOTAL TEMP POTENTIAL TOTALAVG TEMPAVG PRESSURE GPRESSURE VOLUME PRESSAVG GPRESSAVG
ENERGY: 0 4.4002 3.7987 14.3978 0.0000 -10975.2042 1531.9904 0.0000 0.0000 1731.6356 -7688.9816 295.6399 -9420.6173 -7688.9816 295.6399 770.6937 843.0221 30238.1108 770.6937 843.0221
ENERGY: 300000 2.8478 2.3074 16.1382 0.0000 -10644.2313 1319.4933 0.0000 0.0000 1760.9064 -7542.5382 300.6373 -9303.4446 -7651.4100 297.4678 -719.0481 -653.7345 30579.2283 -216.1456 -164.9205
ENERGY: 600000 4.4987 4.4240 13.9917 0.0000 -10943.0514 1528.6860 0.0000 0.0000 1799.4537 -7591.9974 307.2184 -9391.4510 -7623.6365 301.1312 974.3747 1008.8321 30211.3484 113.4643 165.1384
ENERGY: 900000 3.9818 2.5602 14.3923 0.0000 -10851.8270 1428.9384 0.0000 0.0000 1817.1381 -7584.8162 310.2377 -9401.9543 -7645.8488 301.6211 262.9508 259.6722 30217.9361 86.0731 133.0279
ENERGY: 1200000 4.0579 7.0875 13.9128 0.0000 -10712.4299 1354.4099 0.0000 0.0000 1734.7077 -7598.2541 296.1644 -9332.9618 -7646.9045 300.6967 -225.8311 -200.3904 30315.1047 79.6243 125.4845
ENERGY: 1500000 6.9374 5.2609 13.3085 0.0000 -10823.8073 1349.6473 0.0000 0.0000 1760.0524 -7688.6007 300.4915 -9448.6531 -7650.1904 301.4785 -1020.9730 -939.8982 30418.6217 22.0933 60.5840
TCL: Running FEP window   6: Lambda1 0.25   Lambda2 0.3    [dLambda 0.04999999999999999]
TCL: Setting parameter firsttimestep to 0
TCL: Setting parameter alchLambda to 0.25
Info: NONBONDED TABLE R-SQUARED SPACING: 0.0625
Info: NONBONDED TABLE SIZE: 705 POINTS
TCL: Setting parameter alchLambda2 to 0.3
Info: NONBONDED TABLE R-SQUARED SPACING: 0.0625
Info: NONBONDED TABLE SIZE: 705 POINTS
TCL: Running for 1500000 steps
ETITLE: TS BOND ANGLE DIHED IMPRP ELECT VDW BOUNDARY MISC KINETIC TOTAL TEMP POTENTIAL TOTALAVG TEMPAVG PRESSURE GPRESSURE VOLUME PRESSAVG GPRESSAVG
ENERGY: 0 6.9374 5.2609 13.3085 0.0000 -10823.8094 1350.5818 0.0000 0.0000 1759.1752 -7688.5454 300.3417 -9447.7207 -7688.5454 300.3417 -1018.8642 -928.7483 30418.6217 -1018.8642 -928.7483
ENERGY: 300000 4.8004 3.2779 17.8138 0.0000 -11049.7704 1536.0979 0.0000 0.0000 1785.6395 -7702.1409 304.8599 -9487.7803 -7671.1353 299.9761 703.2569 773.3530 29895.4793 -104.0561 -47.1271
ENERGY: 600000 4.9615 3.4118 16.3669 0.0000 -10885.8741 1441.0143 0.0000 0.0000 1757.8241 -7662.2955 300.1110 -9420.1196 -7654.7871 300.8603 166.9775 215.4067 29927.3217 -22.6542 46.7739
ENERGY: 900000 2.8212 3.2501 13.8007 0.0000 -10912.2099 1450.5498 0.0000 0.0000 1752.7271 -7689.0611 299.2408 -9441.7882 -7671.3686 299.8239 58.4643 122.5387 29957.1830 29.6607 92.1877
ENERGY: 1200000 4.6682 8.2075 13.7612 0.0000 -10845.1563 1442.4683 0.0000 0.0000 1766.2327 -7609.8185 301.5466 -9376.0512 -7660.5985 300.4472 -106.8567 -35.6898 30536.8672 -65.3446 -2.5639
ENERGY: 1500000 4.6300 1.6772 14.5326 0.0000 -11041.6471 1548.4415 0.0000 0.0000 1759.1040 -7713.2618 300.3296 -9472.3658 -7656.6807 300.5328 533.5441 637.4320 30184.1258 43.6332 108.7259
TCL: Running FEP window   7: Lambda1 0.3    Lambda2 0.35   [dLambda 0.04999999999999999]
TCL: Setting parameter firsttimestep to 0
TCL: Setting parameter alchLambda to 0.3
Info: NONBONDED TABLE R-SQUARED SPACING: 0.0625
Info: NONBONDED TABLE SIZE: 705 POINTS
TCL: Setting parameter alchLambda2 to 0.35
Info: NONBONDED TABLE R-SQUARED SPACING: 0.0625
Info: NONBONDED TABLE SIZE: 705 POINTS
TCL: Running for 1500000 steps
ETITLE: TS BOND ANGLE DIHED IMPRP ELECT VDW BOUNDARY MISC KINETIC TOTAL TEMP POTENTIAL TOTALAVG TEMPAVG PRESSURE GPRESSURE VOLUME PRESSAVG GPRESSAVG
ENERGY: 0 4.6300 1.6772 14.5326 0.0000 -11041.6467 1548.4597 0.0000 0.0000 1758.2409 -7714.1062 300.1822 -9472.3472 -7714.1062 300.1822 566.1491 643.0845 30184.1258 566.1491 643.0845
ENERGY: 300000 3.5426 2.6938 12.9925 0.0000 -10886.3702 1418.7447 0.0000 0.0000 1760.7767 -7687.6199 300.6152 -9448.3966 -7698.0347 300.3705 -480.4323 -416.2758 30662.5572 -3.9155 83.5700
ENERGY: 600000 2.8022 3.9524 15.0606 0.0000 -10921.3575 1446.5991 0.0000 0.0000 1735.6276 -7717.3155 296.3215 -9452.9432 -7683.6574 300.9080 91.5916 154.7306 29930.7473 22.8560 106.0363
ENERGY: 900000 1.3217 4.1845 13.9729 0.0000 -10882.8019 1460.5004 0.0000 0.0000 1765.5250 -7637.2974 301.4258 -9402.8224 -7690.7134 300.2205 177.5214 244.4254 30087.2573 23.2886 110.3513
ENERGY: 1200000 4.1049 3.8223 15.4683 0.0000 -10721.0181 1348.5619 0.0000 0.0000 1749.7300 -7599.3308 298.7291 -9349.0608 -7683.7517 299.0391 -776.9545 -693.5436 30980.3744 -82.7292 3.5766
ENERGY: 1500000 3.8281 1.4751 15.2699 0.0000 -10890.6562 1446.5261 0.0000 0.0000 1821.0067 -7602.5503 310.8981 -9423.5570 -7678.0770 299.6281 625.2110 649.2035 29494.5406 -61.6311 18.2790
TCL: Running FEP window   8: Lambda1 0.35   Lambda2 0.39999999999999997 [dLambda 0.04999999999999999]
TCL: Setting parameter firsttimestep to 0
TCL: Setting parameter alchLambda to 0.35
Info: NONBONDED TABLE R-SQUARED SPACING: 0.0625
Info: NONBONDED TABLE SIZE: 705 POINTS
TCL: Setting parameter alchLambda2 to 0.39999999999999997
Info: NONBONDED TABLE R-SQUARED SPACING: 0.0625
Info: NONBONDED TABLE SIZE: 705 POINTS
TCL: Running for 1500000 steps
ETITLE: TS BOND ANGLE DIHED IMPRP ELECT VDW BOUNDARY MISC KINETIC TOTAL TEMP POTENTIAL TOTALAVG TEMPAVG PRESSURE GPRESSURE VOLUME PRESSAVG GPRESSAVG
ENERGY: 0 3.8281 1.4751 15.2699 0.0000 -10890.6554 1446.5878 0.0000 0.0000 1820.1104 -7603.3841 310.7451 -9423.4945 -7603.3841 310.7451 583.2850 656.0184 29494.5406 583.2850 656.0184
ENERGY: 300000 2.2952 4.4564 15.1056 0.0000 -10767.7777 1403.3870 0.0000 0.0000 1836.8268 -7505.7067 313.5991 -9342.5335 -7608.4763 304.8583 32.1315 87.2419 30277.0720 -12.7968 43.6667
ENERGY: 600000 4.4437 2.3972 14.3730 0.0000 -10830.8716 1397.7901 0.0000 0.0000 1746.9365 -7664.9310 298.2522 -9411.8675 -7648.9449 301.3497 -406.3789 -413.9719 30670.0854 -197.0933 -140.1357
ENERGY: 900000 2.3128 6.8661 16.4847 0.0000 -10813.7014 1395.0486 0.0000 0.0000 1774.9483 -7618.0408 303.0346 -9392.9891 -7641.1953 302.8402 -692.0785 -537.7964 30633.7190 -185.7690 -117.1029
ENERGY: 1200000 4.8948 2.4943 15.3997 0.0000 -10841.1601 1400.9531 0.0000 0.0000 1781.2268 -7636.1913 304.1066 -9417.4181 -7641.8962 303.3268 -212.7380 -156.6820 30081.3842 -199.4218 -132.5664
ENERGY: 1500000 4.9286 3.7920 14.7422 0.0000 -10961.5868 1480.9397 0.0000 0.0000 1708.1005 -7749.0838 291.6218 -9457.1843 -7651.8727 302.0951 532.8683 588.7501 29880.7848 -129.5517 -63.4459
TCL: Running FEP window   9: Lambda1 0.39999999999999997 Lambda2 0.44999999999999996 [dLambda 0.04999999999999999]
TCL: Setting parameter firsttimestep to 0
TCL: Setting parameter alchLambda to 0.39999999999999997
Info: NONBONDED TABLE R-SQUARED SPACING: 0.0625
Info: NONBONDED TABLE SIZE: 705 POINTS
TCL: Setting parameter alchLambda2 to 0.44999999999999996
Info: NONBONDED TABLE R-SQUARED SPACING: 0.0625
Info: NONBONDED TABLE SIZE: 705 POINTS
TCL: Running for 1500000 steps
ETITLE: TS BOND ANGLE DIHED IMPRP ELECT VDW BOUNDARY MISC KINETIC TOTAL TEMP POTENTIAL TOTALAVG TEMPAVG PRESSURE GPRESSURE VOLUME PRESSAVG GPRESSAVG
ENERGY: 0 4.9285 3.7921 14.7422 0.0000 -10961.5858 1481.2451 0.0000 0.0000 1707.2517 -7749.6263 291.4769 -9456.8780 -7749.6263 291.4769 516.2669 598.8584 29880.7848 516.2669 598.8584
ENERGY: 300000 4.6066 2.5097 15.4542 0.0000 -10941.3539 1428.5946 0.0000 0.0000 1768.4817 -7721.7071 301.9306 -9490.1888 -7710.8301 296.6456 -99.1269 -24.1239 29762.0505 226.7073 293.8213
ENERGY: 600000 4.5199 2.9501 13.4188 0.0000 -10814.5773 1363.6037 0.0000 0.0000 1745.0391 -7685.0458 297.9283 -9430.0848 -7676.2359 299.3067 -669.5285 -627.3496 30686.5835 104.9121 170.9686
ENERGY: 900000 2.3665 3.6322 14.5862 0.0000 -10757.3606 1430.1643 0.0000 0.0000 1755.6871 -7550.9243 299.7462 -9306.6114 -7663.4060 299.6100 69.4292 143.8476 30729.5312 85.5909 141.0873
ENERGY: 1200000 3.1267 5.1280 13.3179 0.0000 -10881.4791 1390.9676 0.0000 0.0000 1761.1327 -7707.8063 300.6759 -9468.9390 -7674.2158 298.8045 -453.7467 -431.0500 30204.5627 34.4502 83.5724
ENERGY: 1500000 4.2287 2.1695 14.1586 0.0000 -10843.5867 1358.7669 0.0000 0.0000 1782.8153 -7681.4476 304.3778 -9464.2629 -7677.4312 299.1043 -726.9822 -590.6797 30283.9258 105.9815 168.8470
TCL: Running FEP window  10: Lambda1 0.44999999999999996 Lambda2 0.49999999999999994 [dLambda 0.04999999999999999]
TCL: Setting parameter firsttimestep to 0
TCL: Setting parameter alchLambda to 0.44999999999999996
Info: NONBONDED TABLE R-SQUARED SPACING: 0.0625
Info: NONBONDED TABLE SIZE: 705 POINTS
TCL: Setting parameter alchLambda2 to 0.49999999999999994
Info: NONBONDED TABLE R-SQUARED SPACING: 0.0625
Info: NONBONDED TABLE SIZE: 705 POINTS
TCL: Running for 1500000 steps
ETITLE: TS BOND ANGLE DIHED IMPRP ELECT VDW BOUNDARY MISC KINETIC TOTAL TEMP POTENTIAL TOTALAVG TEMPAVG PRESSURE GPRESSURE VOLUME PRESSAVG GPRESSAVG
ENERGY: 0 4.2287 2.1695 14.1586 0.0000 -10843.5862 1358.6253 0.0000 0.0000 1781.9516 -7682.4524 304.2303 -9464.4040 -7682.4524 304.2303 -657.3970 -582.2200 30283.9258 -657.3970 -582.2200
ENERGY: 300000 4.6354 2.9966 17.4979 0.0000 -10899.9331 1474.0251 0.0000 0.0000 1808.1821 -7592.5960 308.7086 -9400.7781 -7659.6073 299.8928 404.2538 513.9409 30137.8193 -115.8107 -38.4410
ENERGY: 600000 2.7865 4.6158 13.3828 0.0000 -10929.0587 1526.9596 0.0000 0.0000 1743.1187 -7638.1953 297.6004 -9381.3141 -7653.2256 299.4244 745.0928 836.6860 30407.8928 198.7713 263.2843
ENERGY: 900000 1.0598 4.6874 14.3264 0.0000 -10852.2330 1436.8942 0.0000 0.0000 1699.4066 -7695.8585 290.1375 -9395.2651 -7664.3105 299.1049 -50.4182 8.4874 30367.4322 146.6631 223.6458
ENERGY: 1200000 3.6270 1.8647 12.9354 0.0000 -10876.6900 1382.3693 0.0000 0.0000 1729.6066 -7746.2870 295.2935 -9475.8936 -7668.2396 299.6601 -442.8403 -393.4809 30324.9926 96.0333 168.8536
ENERGY: 1500000 4.9631 4.6082 13.6116 0.0000 -10928.2824 1450.4266 0.0000 0.0000 1775.5354 -7679.1375 303.1349 -9454.6729 -7666.0892 300.9017 -55.4382 20.3363 30153.4268 94.4574 169.3529
TCL: Running FEP window  11: Lambda1 0.49999999999999994 Lambda2 0.5499999999999999 [dLambda 0.04999999999999999]
TCL: Setting parameter firsttimestep to 0
TCL: Setting parameter alchLambda to 0.49999999999999994
Info: NONBONDED TABLE R-SQUARED SPACING: 0.0625
Info: NONBONDED TABLE SIZE: 705 POINTS
TCL: Setting parameter alchLambda2 to 0.5499999999999999
Info: NONBONDED TABLE R-SQUARED SPACING: 0.0625
Info: NONBONDED TABLE SIZE: 705 POINTS
TCL: Running for 1500000 steps
ETITLE: TS BOND ANGLE DIHED IMPRP ELECT VDW BOUNDARY MISC KINETIC TOTAL TEMP POTENTIAL TOTALAVG TEMPAVG PRESSURE GPRESSURE VOLUME PRESSAVG GPRESSAVG
ENERGY: 0 4.9631 4.6082 13.6116 0.0000 -10928.2844 1450.5024 0.0000 0.0000 1774.6334 -7679.9657 302.9809 -9454.5991 -7679.9657 302.9809 -62.4780 25.7875 30153.4268 -62.4780 25.7875
ENERGY: 300000 4.2749 3.1999 14.9138 0.0000 -11051.4673 1545.7471 0.0000 0.0000 1775.2675 -7708.0640 303.0891 -9483.3315 -7672.3242 302.3151 820.8067 872.6779 29777.4695 332.5665 415.2642
ENERGY: 600000 2.0666 2.7679 15.9473 0.0000 -10885.8078 1420.5256 0.0000 0.0000 1775.2948 -7669.2057 303.0938 -9444.5005 -7673.7103 300.9151 -166.8799 -140.9375 29913.4719 328.0785 401.0340
ENERGY: 900000 2.2594 9.8664 16.8961 0.0000 -10781.0329 1425.3647 0.0000 0.0000 1756.7724 -7569.8738 299.9315 -9326.6462 -7658.9712 300.7276 146.6017 195.9171 30145.5036 321.9488 392.1637
ENERGY: 1200000 3.1490 2.2105 13.6765 0.0000 -10793.8029 1454.5946 0.0000 0.0000 1754.1616 -7566.0106 299.4858 -9320.1722 -7649.2724 300.4124 437.3885 471.2657 30445.7541 309.3049 376.8783
ENERGY: 1500000 1.6084 3.2734 17.4606 0.0000 -10858.1416 1425.1859 0.0000 0.0000 1726.4140 -7684.1993 294.7485 -9410.6134 -7648.1264 300.1932 -259.1452 -169.6510 30544.0174 174.5307 239.9442
TCL: Running FEP window  12: Lambda1 0.5499999999999999 Lambda2 0.6    [dLambda 0.050000000000000044]
TCL: Setting parameter firsttimestep to 0
TCL: Setting parameter alchLambda to 0.5499999999999999
Info: NONBONDED TABLE R-SQUARED SPACING: 0.0625
Info: NONBONDED TABLE SIZE: 705 POINTS
TCL: Setting parameter alchLambda2 to 0.6
Info: NONBONDED TABLE R-SQUARED SPACING: 0.0625
Info: NONBONDED TABLE SIZE: 705 POINTS
TCL: Running for 1500000 steps
ETITLE: TS BOND ANGLE DIHED IMPRP ELECT VDW BOUNDARY MISC KINETIC TOTAL TEMP POTENTIAL TOTALAVG TEMPAVG PRESSURE GPRESSURE VOLUME PRESSAVG GPRESSAVG
ENERGY: 0 1.6084 3.2734 17.4606 0.0000 -10858.2549 1425.0631 0.0000 0.0000 1725.5399 -7685.3096 294.5992 -9410.8494 -7685.3096 294.5992 -256.0333 -163.7691 30544.0174 -256.0333 -163.7691
ENERGY: 300000 3.0159 3.8443 15.6619 0.0000 -10860.2653 1411.9294 0.0000 0.0000 1777.9121 -7647.9018 303.5407 -9425.8139 -7635.0258 301.8658 -79.9037 0.7953 29960.0115 -123.8006 -70.0387
ENERGY: 600000 4.4062 3.8844 16.5940 0.0000 -10848.4257 1389.8408 0.0000 0.0000 1737.5108 -7696.1894 296.6430 -9433.7002 -7656.6054 299.9825 -465.3745 -429.7186 30324.0496 -139.0823 -98.0464
ENERGY: 900000 4.6979 4.9937 15.2537 0.0000 -10995.1347 1471.6982 0.0000 0.0000 1758.3928 -7740.0984 300.2081 -9498.4912 -7675.8680 298.7105 -0.9528 76.1475 30314.4107 -125.6691 -72.1762
ENERGY: 1200000 2.3945 3.6240 14.3724 0.0000 -10914.4735 1471.9723 0.0000 0.0000 1775.1126 -7646.9977 303.0627 -9422.1103 -7667.2668 300.1112 60.5607 95.0365 30766.2208 -27.5244 20.8644
ENERGY: 1500000 3.7461 3.9830 12.9409 0.0000 -10887.2369 1505.5277 0.0000 0.0000 1773.3061 -7587.7331 302.7543 -9361.0392 -7657.8666 300.9443 357.3757 439.9977 30790.3398 -14.3577 35.6904
TCL: Running FEP window  13: Lambda1 0.6    Lambda2 0.65   [dLambda 0.050000000000000044]
TCL: Setting parameter firsttimestep to 0
TCL: Setting parameter alchLambda to 0.6
Info: NONBONDED TABLE R-SQUARED SPACING: 0.0625
Info: NONBONDED TABLE SIZE: 705 POINTS
TCL: Setting parameter alchLambda2 to 0.65
Info: NONBONDED TABLE R-SQUARED SPACING: 0.0625
Info: NONBONDED TABLE SIZE: 705 POINTS
TCL: Running for 1500000 steps
ETITLE: TS BOND ANGLE DIHED IMPRP ELECT VDW BOUNDARY MISC KINETIC TOTAL TEMP POTENTIAL TOTALAVG TEMPAVG PRESSURE GPRESSURE VOLUME PRESSAVG GPRESSAVG
ENERGY: 0 3.7461 3.9830 12.9409 0.0000 -10887.3991 1505.4647 0.0000 0.0000 1772.4387 -7588.8256 302.6062 -9361.2643 -7588.8256 302.6062 359.5470 446.2242 30790.3398 359.5470 446.2242
ENERGY: 300000 4.4740 3.6086 15.4968 0.0000 -10775.7228 1373.5584 0.0000 0.0000 1756.9074 -7621.6776 299.9545 -9378.5850 -7625.1295 299.5389 -347.5293 -322.2012 30619.2382 -77.8389 -31.5038
ENERGY: 600000 3.6345 2.9663 13.8882 0.0000 -10707.4633 1321.3151 0.0000 0.0000 1717.6795 -7647.9798 293.2572 -9365.6593 -7644.6777 299.2632 -758.8936 -712.6568 30594.4719 -439.1129 -384.6668
ENERGY: 900000 4.7638 2.0130 16.6385 0.0000 -10837.1885 1380.1599 0.0000 0.0000 1768.8127 -7664.8006 301.9871 -9433.6133 -7644.4508 299.6728 -323.4429 -271.9344 30262.9103 -178.8639 -122.1680
ENERGY: 1200000 4.9233 4.4913 14.1480 0.0000 -10714.3493 1363.4884 0.0000 0.0000 1726.8693 -7600.4289 294.8262 -9327.2983 -7647.8999 299.1099 -343.8385 -272.9948 30606.0883 -290.7595 -227.6800
ENERGY: 1500000 2.2408 6.2708 14.4870 0.0000 -11007.1613 1507.6610 0.0000 0.0000 1809.3567 -7667.1450 308.9092 -9476.5018 -7645.9756 300.0062 337.8243 414.4202 30388.8151 -253.5264 -194.3466
TCL: Running FEP window  14: Lambda1 0.65   Lambda2 0.7000000000000001 [dLambda 0.050000000000000044]
TCL: Setting parameter firsttimestep to 0
TCL: Setting parameter alchLambda to 0.65
Info: NONBONDED TABLE R-SQUARED SPACING: 0.0625
Info: NONBONDED TABLE SIZE: 705 POINTS
TCL: Setting parameter alchLambda2 to 0.7000000000000001
Info: NONBONDED TABLE R-SQUARED SPACING: 0.0625
Info: NONBONDED TABLE SIZE: 705 POINTS
TCL: Running for 1500000 steps
ETITLE: TS BOND ANGLE DIHED IMPRP ELECT VDW BOUNDARY MISC KINETIC TOTAL TEMP POTENTIAL TOTALAVG TEMPAVG PRESSURE GPRESSURE VOLUME PRESSAVG GPRESSAVG
ENERGY: 0 2.2408 6.2708 14.4870 0.0000 -11009.0281 1509.6819 0.0000 0.0000 1808.4947 -7667.8529 308.7620 -9476.3477 -7667.8529 308.7620 352.8450 435.8488 30388.8151 352.8450 435.8488
ENERGY: 300000 3.5385 5.1353 13.0514 0.0000 -10949.9637 1451.7240 0.0000 0.0000 1743.6191 -7732.8954 297.6858 -9476.5145 -7671.2239 302.6304 -395.8737 -314.9000 30267.7221 -243.8893 -184.3245
ENERGY: 600000 5.1622 4.2036 13.0202 0.0000 -10938.5801 1493.7990 0.0000 0.0000 1854.1579 -7568.2371 316.5580 -9422.3950 -7660.2371 303.7964 646.2071 680.7706 30345.4511 -93.6071 -31.6776
ENERGY: 900000 3.8835 2.4416 14.5907 0.0000 -10903.4524 1447.0610 0.0000 0.0000 1736.7953 -7698.6803 296.5208 -9435.4756 -7656.9679 303.3361 -18.6261 38.1028 30334.3179 -28.7475 34.3759
ENERGY: 1200000 4.2431 7.8723 14.0825 0.0000 -10688.8139 1282.3822 0.0000 0.0000 1747.8737 -7632.3600 298.4122 -9380.2337 -7655.3721 302.3939 -1107.7677 -1006.3174 30334.3437 -110.1732 -40.3403
ENERGY: 1500000 2.8051 3.2343 14.5183 0.0000 -10986.8674 1427.8474 0.0000 0.0000 1715.5535 -7822.9088 292.8942 -9538.4623 -7666.6218 301.1945 -661.7223 -558.5211 30484.9621 -100.4128 -38.1756
TCL: Running FEP window  15: Lambda1 0.7000000000000001 Lambda2 0.7500000000000001 [dLambda 0.050000000000000044]
TCL: Setting parameter firsttimestep to 0
TCL: Setting parameter alchLambda to 0.7000000000000001
Info: NONBONDED TABLE R-SQUARED SPACING: 0.0625
Info: NONBONDED TABLE SIZE: 705 POINTS
TCL: Setting parameter alchLambda2 to 0.7500000000000001
Info: NONBONDED TABLE R-SQUARED SPACING: 0.0625
Info: NONBONDED TABLE SIZE: 705 POINTS
TCL: Running for 1500000 steps
ETITLE: TS BOND ANGLE DIHED IMPRP ELECT VDW BOUNDARY MISC KINETIC TOTAL TEMP POTENTIAL TOTALAVG TEMPAVG PRESSURE GPRESSURE VOLUME PRESSAVG GPRESSAVG
ENERGY: 0 2.8051 3.2343 14.5183 0.0000 -10989.5173 1428.8834 0.0000 0.0000 1714.6563 -7825.4199 292.7411 -9540.0762 -7825.4199 292.7411 -638.9935 -545.2958 30484.9621 -638.9935 -545.2958
ENERGY: 300000 2.8243 6.3704 15.9021 0.0000 -10965.1862 1450.4877 0.0000 0.0000 1742.4395 -7747.1623 297.4845 -9489.6018 -7725.3110 299.1634 -389.9346 -298.9963 30638.0062 -153.0724 -69.0473
ENERGY: 600000 2.1329 3.3600 14.8221 0.0000 -10940.5670 1490.2416 0.0000 0.0000 1753.8413 -7676.1690 299.4311 -9430.0104 -7725.3636 297.9927 264.3548 395.5093 30456.8063 116.2512 195.9470
ENERGY: 900000 2.7229 2.8092 15.9294 0.0000 -11029.5904 1479.8495 0.0000 0.0000 1809.8996 -7718.3798 309.0018 -9528.2794 -7700.4688 300.3511 354.5190 413.8916 29707.6388 167.6790 239.8216
ENERGY: 1200000 2.4572 5.5702 16.0844 0.0000 -10744.3987 1398.8862 0.0000 0.0000 1765.9961 -7555.4046 301.5062 -9321.4007 -7687.8330 299.4534 -290.2120 -252.8533 30715.6204 170.3163 241.9701
ENERGY: 1500000 2.7026 6.8648 13.2129 0.0000 -10948.3127 1472.8688 0.0000 0.0000 1728.6007 -7724.0629 295.1218 -9452.6636 -7685.5644 299.4576 250.5911 341.4647 30234.9708 172.1882 237.2877
TCL: Running FEP window  16: Lambda1 0.7500000000000001 Lambda2 0.8000000000000002 [dLambda 0.050000000000000044]
TCL: Setting parameter firsttimestep to 0
TCL: Setting parameter alchLambda to 0.7500000000000001
Info: NONBONDED TABLE R-SQUARED SPACING: 0.0625
Info: NONBONDED TABLE SIZE: 705 POINTS
TCL: Setting parameter alchLambda2 to 0.8000000000000002
Info: NONBONDED TABLE R-SQUARED SPACING: 0.0625
Info: NONBONDED TABLE SIZE: 705 POINTS
TCL: Running for 1500000 steps
ETITLE: TS BOND ANGLE DIHED IMPRP ELECT VDW BOUNDARY MISC KINETIC TOTAL TEMP POTENTIAL TOTALAVG TEMPAVG PRESSURE GPRESSURE VOLUME PRESSAVG GPRESSAVG
ENERGY: 0 2.7026 6.8648 13.2129 0.0000 -10949.3944 1473.1313 0.0000 0.0000 1727.7248 -7725.7580 294.9722 -9453.4829 -7725.7580 294.9722 266.0344 353.1417 30234.9708 266.0344 353.1417
ENERGY: 300000 4.4275 2.9435 14.6230 0.0000 -10787.7938 1353.9756 0.0000 0.0000 1701.0877 -7710.7365 290.4245 -9411.8242 -7711.0970 294.1720 -922.1398 -875.9022 30465.8668 -392.6783 -338.5221
ENERGY: 600000 4.3905 2.4285 15.4179 0.0000 -10883.4856 1475.1594 0.0000 0.0000 1777.4660 -7608.6234 303.4645 -9386.0894 -7695.5477 294.4772 552.0209 591.6812 30159.5947 -74.4272 -12.1959
ENERGY: 900000 3.4062 2.6116 15.0356 0.0000 -10855.0754 1428.3500 0.0000 0.0000 1817.0628 -7588.6093 310.2248 -9405.6721 -7679.5272 296.9370 -260.7214 -223.1126 30583.8372 -69.7917 -14.4240
ENERGY: 1200000 2.0706 2.2311 13.3465 0.0000 -10842.8245 1353.4812 0.0000 0.0000 1697.0672 -7774.6279 289.7381 -9471.6951 -7688.9830 297.1315 -711.4925 -711.8130 30253.6645 -92.7521 -38.0050
ENERGY: 1500000 2.1600 4.6267 13.3242 0.0000 -10844.4869 1395.6266 0.0000 0.0000 1721.6301 -7707.1193 293.9317 -9428.7494 -7683.1780 298.0479 -552.3808 -450.9157 30369.4449 -112.6099 -50.6281
TCL: Running FEP window  17: Lambda1 0.8000000000000002 Lambda2 0.8500000000000002 [dLambda 0.050000000000000044]
TCL: Setting parameter firsttimestep to 0
TCL: Setting parameter alchLambda to 0.8000000000000002
Info: NONBONDED TABLE R-SQUARED SPACING: 0.0625
Info: NONBONDED TABLE SIZE: 705 POINTS
TCL: Setting parameter alchLambda2 to 0.8500000000000002
Info: NONBONDED TABLE R-SQUARED SPACING: 0.0625
Info: NONBONDED TABLE SIZE: 705 POINTS
TCL: Running for 1500000 steps
ETITLE: TS BOND ANGLE DIHED IMPRP ELECT VDW BOUNDARY MISC KINETIC TOTAL TEMP POTENTIAL TOTALAVG TEMPAVG PRESSURE GPRESSURE VOLUME PRESSAVG GPRESSAVG
ENERGY: 0 2.1600 4.6267 13.3242 0.0000 -10846.6151 1396.4891 0.0000 0.0000 1720.7133 -7709.3018 293.7752 -9430.0151 -7709.3018 293.7752 -518.5494 -435.1860 30369.4449 -518.5494 -435.1860
ENERGY: 300000 1.9901 2.4825 14.1783 0.0000 -10912.0033 1448.8748 0.0000 0.0000 1828.4584 -7616.0192 312.1704 -9444.4776 -7668.0002 301.3851 261.2722 340.3971 30138.5424 353.8958 436.3646
ENERGY: 600000 1.4465 3.5595 14.2698 0.0000 -10884.1198 1449.1171 0.0000 0.0000 1785.6604 -7630.0664 304.8635 -9415.7269 -7681.7453 300.3734 418.3738 503.3692 29800.4919 230.2615 314.8211
ENERGY: 900000 2.1843 5.2491 14.0844 0.0000 -10923.2448 1474.9679 0.0000 0.0000 1783.0549 -7643.7041 304.4187 -9426.7590 -7690.3509 299.7474 273.1863 321.1118 30600.2749 201.7899 278.9084
ENERGY: 1200000 2.2825 2.9406 13.7161 0.0000 -10988.3133 1424.4364 0.0000 0.0000 1711.8151 -7833.1225 292.2560 -9544.9376 -7706.3747 299.9020 -487.6893 -389.5640 29999.3319 171.7941 238.8576
ENERGY: 1500000 1.8913 3.7146 14.2432 0.0000 -10813.1383 1358.2543 0.0000 0.0000 1785.2233 -7649.8115 304.7889 -9435.0349 -7691.4259 299.6855 -620.3148 -564.3435 30234.7959 157.8230 220.7034
TCL: Running FEP window  18: Lambda1 0.8500000000000002 Lambda2 0.9000000000000002 [dLambda 0.050000000000000044]
TCL: Setting parameter firsttimestep to 0
TCL: Setting parameter alchLambda to 0.8500000000000002
Info: NONBONDED TABLE R-SQUARED SPACING: 0.0625
Info: NONBONDED TABLE SIZE: 705 POINTS
TCL: Setting parameter alchLambda2 to 0.9000000000000002
Info: NONBONDED TABLE R-SQUARED SPACING: 0.0625
Info: NONBONDED TABLE SIZE: 705 POINTS
TCL: Running for 1500000 steps
ETITLE: TS BOND ANGLE DIHED IMPRP ELECT VDW BOUNDARY MISC KINETIC TOTAL TEMP POTENTIAL TOTALAVG TEMPAVG PRESSURE GPRESSURE VOLUME PRESSAVG GPRESSAVG
ENERGY: 0 1.8913 3.7146 14.2432 0.0000 -10816.9767 1360.5299 0.0000 0.0000 1784.3731 -7652.2246 304.6437 -9436.5977 -7652.2246 304.6437 -623.2425 -534.9594 30234.7959 -623.2425 -534.9594
ENERGY: 300000 4.2625 2.6903 14.6551 0.0000 -11029.0088 1566.0953 0.0000 0.0000 1779.2921 -7662.0136 303.7763 -9441.3057 -7660.0139 304.9110 1179.3704 1192.8901 30152.8324 198.7319 274.5669
ENERGY: 600000 3.9675 3.0317 13.7597 0.0000 -10905.9983 1454.1784 0.0000 0.0000 1765.8639 -7665.1972 301.4837 -9431.0610 -7670.6065 303.2942 106.5933 182.9722 30583.4008 136.5190 209.5279
ENERGY: 900000 3.4512 1.8560 14.3264 0.0000 -10970.5743 1466.2769 0.0000 0.0000 1811.8050 -7672.8590 309.3271 -9484.6639 -7687.1572 300.8679 -128.7973 -7.6809 30568.2434 93.2187 179.6282
ENERGY: 1200000 4.5169 0.9247 14.2333 0.0000 -10876.4476 1431.4915 0.0000 0.0000 1751.8542 -7673.4270 299.0918 -9425.2812 -7677.9156 301.3606 -147.8267 -114.2667 30447.5775 -58.6000 24.1441
ENERGY: 1500000 2.6373 2.3884 13.3840 0.0000 -10864.7761 1400.6805 0.0000 0.0000 1799.5756 -7646.1103 307.2392 -9445.6858 -7676.5580 302.2585 -275.2158 -146.0579 30323.2870 -84.5917 2.4775
TCL: Running FEP window  19: Lambda1 0.9000000000000002 Lambda2 0.9500000000000003 [dLambda 0.050000000000000044]
TCL: Setting parameter firsttimestep to 0
TCL: Setting parameter alchLambda to 0.9000000000000002
Info: NONBONDED TABLE R-SQUARED SPACING: 0.0625
Info: NONBONDED TABLE SIZE: 705 POINTS
TCL: Setting parameter alchLambda2 to 0.9500000000000003
Info: NONBONDED TABLE R-SQUARED SPACING: 0.0625
Info: NONBONDED TABLE SIZE: 705 POINTS
TCL: Running for 1500000 steps
ETITLE: TS BOND ANGLE DIHED IMPRP ELECT VDW BOUNDARY MISC KINETIC TOTAL TEMP POTENTIAL TOTALAVG TEMPAVG PRESSURE GPRESSURE VOLUME PRESSAVG GPRESSAVG
ENERGY: 0 2.6373 2.3884 13.3840 0.0000 -10867.8900 1401.5055 0.0000 0.0000 1798.7194 -7649.2553 307.0931 -9447.9748 -7649.2553 307.0931 -213.7295 -130.6265 30323.2870 -213.7295 -130.6265
ENERGY: 300000 4.1543 3.3535 13.5481 0.0000 -10754.2308 1424.3304 0.0000 0.0000 1781.4920 -7527.3525 304.1518 -9308.8445 -7640.4986 304.1694 325.9497 383.6879 30385.5390 -153.5781 -91.6100
ENERGY: 600000 6.5594 3.8454 15.2344 0.0000 -10940.9901 1505.2733 0.0000 0.0000 1691.5324 -7718.5452 288.7932 -9410.0776 -7665.7250 302.7422 708.0736 783.9633 30280.2202 142.8680 208.7638
ENERGY: 900000 3.1129 2.4808 13.7769 0.0000 -10994.4318 1487.6723 0.0000 0.0000 1724.8317 -7762.5572 294.4783 -9487.3889 -7672.3059 302.5489 -26.9403 16.0773 30667.1724 69.6496 129.7474
ENERGY: 1200000 3.3703 6.7296 13.5264 0.0000 -10984.8882 1466.0921 0.0000 0.0000 1783.7593 -7711.4105 304.5389 -9495.1698 -7680.3526 302.2654 466.9879 491.8951 29595.9531 27.6997 86.4373
ENERGY: 1500000 2.8511 3.3254 15.3588 0.0000 -10909.5162 1527.2317 0.0000 0.0000 1774.3286 -7586.4205 302.9288 -9360.7491 -7681.2292 301.1277 940.6143 899.4231 30162.3515 148.2594 196.5815
TCL: Running FEP window  20: Lambda1 0.9500000000000003 Lambda2 1.0    [dLambda 0.04999999999999971]
TCL: Setting parameter firsttimestep to 0
TCL: Setting parameter alchLambda to 0.9500000000000003
Info: NONBONDED TABLE R-SQUARED SPACING: 0.0625
Info: NONBONDED TABLE SIZE: 705 POINTS
TCL: Setting parameter alchLambda2 to 1.0
Info: NONBONDED TABLE R-SQUARED SPACING: 0.0625
Info: NONBONDED TABLE SIZE: 705 POINTS
TCL: Running for 1500000 steps
ETITLE: TS BOND ANGLE DIHED IMPRP ELECT VDW BOUNDARY MISC KINETIC TOTAL TEMP POTENTIAL TOTALAVG TEMPAVG PRESSURE GPRESSURE VOLUME PRESSAVG GPRESSAVG
ENERGY: 0 2.8511 3.3254 15.3588 0.0000 -10912.0014 1528.5311 0.0000 0.0000 1773.4540 -7588.4810 302.7795 -9361.9350 -7588.4810 302.7795 846.6416 922.0421 30162.3515 846.6416 922.0421
ENERGY: 300000 2.2024 2.3685 16.3611 0.0000 -10890.2333 1449.3670 0.0000 0.0000 1754.2298 -7665.7045 299.4974 -9419.9343 -7628.7161 301.4032 353.1971 352.7254 30049.7889 298.4673 363.7276
ENERGY: 600000 5.5263 4.0703 13.2564 0.0000 -10942.3237 1457.8486 0.0000 0.0000 1781.7160 -7679.9062 304.1901 -9461.6222 -7660.0581 300.5392 70.0172 103.8238 30354.0136 224.9749 277.2636
ENERGY: 900000 2.4334 4.8832 14.0175 0.0000 -10988.4648 1517.1060 0.0000 0.0000 1736.7212 -7713.3035 296.5082 -9450.0247 -7659.3034 300.8710 655.9319 704.7638 29972.8233 330.7747 396.2709
ENERGY: 1200000 2.2659 2.9457 14.8454 0.0000 -10667.7702 1357.8684 0.0000 0.0000 1783.9843 -7505.8605 304.5774 -9289.8449 -7649.7214 300.9484 -165.7474 -141.5161 30662.8034 268.2000 327.9525
ENERGY: 1500000 4.2550 2.2198 13.8977 0.0000 -10908.7547 1444.7459 0.0000 0.0000 1723.7530 -7719.8833 294.2941 -9443.6363 -7649.4822 300.7544 86.1219 158.7130 30296.8478 201.2483 255.6004
TCL: Exiting due to exit command.
