Info: SIMULATION PARAMETERS:
Info: TIMESTEP               2
Info: NUMBER OF STEPS        0
Info: STEPS PER CYCLE        10
Info: PERIODIC CELL BASIS 1  30.9436 0 0
Info: PERIODIC CELL BASIS 2  0 29.5444 0
Info: PERIODIC CELL BASIS 3  0 0 32.8973
Info: PERIODIC CELL CENTER   0 0 0
Info: WRAPPING WATERS AROUND PERIODIC BOUNDARIES ON OUTPUT.
Info: WRAPPING ALL CLUSTERS AROUND PERIODIC BOUNDARIES ON OUTPUT.
Info: FIRST LDB TIMESTEP     50
Info: LAST LDB TIMESTEP     -1
Info: HOM BACKGROUND SCALING 1
Info: PME BACKGROUND SCALING 1
Info: MIN ATOMS PER PATCH    40
Info: EMPTY PATCH LOAD       40 ATOMS
Info: VELOCITY FILE          mobley_4483973_equil.vel
Info: CENTER OF MASS MOVING INITIALLY? NO
Info: DIELECTRIC             1
Info: EXCLUDE                SCALED ONE-FOUR
Info: 1-4 ELECTROSTATICS SCALED BY 0.833333
Info: MODIFIED 1-4 VDW PARAMETERS WILL BE USED
Info: DCD FILENAME           mobley_4483973_prod.dcd
Info: DCD FREQUENCY          100000
Info: DCD FIRST STEP         100000
Info: DCD FILE WILL CONTAIN UNIT CELL DATA
Info: XST FILENAME           mobley_4483973_prod.xst
Info: XST FREQUENCY          100000
Info: NO VELOCITY DCD OUTPUT
Info: NO FORCE DCD OUTPUT
Info: OUTPUT FILENAME        mobley_4483973_prod
Info: BINARY OUTPUT FILES WILL BE USED
Info: RESTART FILENAME       mobley_4483973_prod.restart
Info: RESTART FREQUENCY      100000
Info: BINARY RESTART FILES WILL BE USED
Info: CUTOFF                 9
Info: PAIRLIST DISTANCE      11
Info: PAIRLIST SHRINK RATE   0.01
Info: PAIRLIST GROW RATE     0.01
Info: PAIRLIST TRIGGER       0.3
Info: PAIRLISTS PER CYCLE    2
Info: PAIRLISTS ENABLED
Info: MARGIN                 2
Info: HYDROGEN GROUP CUTOFF  2.5
Info: PATCH DIMENSION        15.5
Info: ENERGY OUTPUT STEPS    100000
Info: ENERGY EVALUATION STEPS    100000
Info: OUTPUT ENERGY PRECISION 4
Info: CROSSTERM ENERGY INCLUDED IN DIHEDRAL
Info: TIMING OUTPUT STEPS    1000000
Info: PRESSURE OUTPUT STEPS  100000
Info: ALCHEMICAL FEP ON
Info: FEP CURRENT LAMBDA VALUE     1
Info: FEP COMPARISON LAMBDA VALUE  0.95
Info: FEP INTRA-ALCHEMICAL NON-BONDED INTERACTIONS WILL BE RETAINED
Info: FEP INTRA-ALCHEMICAL BONDED INTERACTIONS WILL BE RETAINED
Info: FEP VDW SHIFTING COEFFICIENT 5
Info: FEP ELEC. ACTIVE FOR ANNIHILATED PARTICLES BETWEEN LAMBDA = 0 AND LAMBDA = 0.5
Info: FEP ELEC. ACTIVE FOR EXNIHILATED PARTICLES BETWEEN LAMBDA = 0.5 AND LAMBDA = 1
Info: FEP VDW ACTIVE FOR ANNIHILATED PARTICLES BETWEEN LAMBDA = 0 AND LAMBDA = 1
Info: FEP VDW ACTIVE FOR EXNIHILATED PARTICLES BETWEEN LAMBDA = 0 AND LAMBDA = 1
Info: FEP BOND ACTIVE FOR ANNIHILATED PARTICLES BETWEEN LAMBDA = 1 AND LAMBDA = 1
Info: FEP BOND ACTIVE FOR EXNIHILATED PARTICLES BETWEEN LAMBDA = 0 AND LAMBDA = 0
Info: LANGEVIN DYNAMICS ACTIVE
Info: LANGEVIN TEMPERATURE   300
Info: LANGEVIN USING BBK INTEGRATOR
Info: LANGEVIN DAMPING COEFFICIENT IS 1 INVERSE PS
Info: LANGEVIN DYNAMICS APPLIED TO HYDROGENS
Info: LANGEVIN PISTON PRESSURE CONTROL ACTIVE
Info:        TARGET PRESSURE IS 1.01325 BAR
Info:     OSCILLATION PERIOD IS 50 FS
Info:             DECAY TIME IS 25 FS
Info:     PISTON TEMPERATURE IS 300 K
Info:       PRESSURE CONTROL IS GROUP-BASED
Info:    INITIAL STRAIN RATE IS 0.000537175 0.000537175 0.000537175
Info:       CELL FLUCTUATION IS ISOTROPIC
Info: PARTICLE MESH EWALD (PME) ACTIVE
Info: PME TOLERANCE               1e-06
Info: PME EWALD COEFFICIENT       0.348832
Info: PME INTERPOLATION ORDER     4
Info: PME GRID DIMENSIONS         32 32 36
Info: PME MAXIMUM GRID SPACING    1
Info: PME CALCULATION WILL BE PERFORMED ON GPU
Info: FULL ELECTROSTATIC EVALUATION FREQUENCY      2
Info: USING VERLET I (r-RESPA) MTS SCHEME.
Info: C1 SPLITTING OF LONG RANGE ELECTROSTATICS
Info: PLACING ATOMS IN PATCHES BY HYDROGEN GROUPS
Info: RIGID BONDS TO HYDROGEN : ALL
Info:         ERROR TOLERANCE : 1e-08
Info:          MAX ITERATIONS : 100
Info: RIGID WATER USING SETTLE ALGORITHM
Info: RANDOM NUMBER SEED     1743544404
Info: USE HYDROGEN BONDS?    NO
Info: Using AMBER format force field!
Info: AMBER PARM FILE        mobley_4483973.prmtop
Info: COORDINATE PDB         mobley_4483973.pdb
Info: Exclusions will be read from PARM file!
Info: SCNB (VDW SCALING)     2
Info: USING ARITHMETIC MEAN TO COMBINE L-J SIGMA PARAMETERS
Info: BINARY COORDINATES     mobley_4483973_equil.coor
Info: SUMMARY OF PARAMETERS:
Info: 5 BONDS
Info: 3 ANGLES
Info:   3 HARMONIC
Info:   0 COSINE-BASED
Info: 2 DIHEDRAL
Info: 0 IMPROPER
Info: 0 CROSSTERM
Info: 0 VDW
Info: 15 VDW_PAIRS
Info: 0 NBTHOLE_PAIRS
Info: To read alchdata from file: mobley_4483973.pdb
Info: To read alchflag data from column: 5
Info: STRUCTURE SUMMARY:
Info: 2943 ATOMS
Info: 2943 BONDS
Info: 18 ANGLES
Info: 30 DIHEDRALS
Info: 0 IMPROPERS
Info: 0 CROSSTERMS
Info: 2982 EXCLUSIONS
Info: 2936 RIGID BONDS
Info: ALCH: 0 ATOMS TO DISAPPEAR IN FINAL STATE
Info: ALCH: 12 ATOMS TO APPEAR IN FINAL STATE
Info: 5893 DEGREES OF FREEDOM
Info: 984 HYDROGEN GROUPS
Info: 3 ATOMS IN LARGEST HYDROGEN GROUP
Info: 984 MIGRATION GROUPS
Info: 3 ATOMS IN LARGEST MIGRATION GROUP
Info: TOTAL MASS = 17697.7 amu
Info: TOTAL CHARGE = 0 e
Info: MASS DENSITY = 0.977172 g/cm^3
Info: ATOM DENSITY = 0.0978553 atoms/A^3
Info: ADDED 0 IMPLICIT EXCLUSIONS
Info: NONBONDED TABLE R-SQUARED SPACING: 0.0625
Info: NONBONDED TABLE SIZE: 705 POINTS
Info: REMOVING COM VELOCITY 0.117704 -0.143412 -0.00952545
Info: Use 3D box decompostion in PME FFT.
Info: Updated CUDA force table with 4096 elements.
Info: Updated CUDA LJ table with 5 x 5 elements.
Info: Found 14 unique exclusion lists needing 24 bytes
TCL: Running for 1500000 steps
ETITLE: TS BOND ANGLE DIHED IMPRP ELECT VDW BOUNDARY MISC KINETIC TOTAL TEMP POTENTIAL TOTALAVG TEMPAVG PRESSURE GPRESSURE VOLUME PRESSAVG GPRESSAVG
ENERGY: 0 0.8369 5.9515 0.9784 0.0000 -10664.2120 1406.5610 0.0000 0.0000 1725.3190 -7524.5653 294.6615 -9249.8842 -7524.5653 294.6615 -331.6942 -250.9016 30075.0174 -331.6942 -250.9016
ENERGY: 300000 0.6202 0.6195 1.1957 0.0000 -10710.1978 1407.5642 0.0000 0.0000 1696.6487 -7603.5494 289.7650 -9300.1981 -7512.6673 293.7138 -432.9630 -322.7613 30248.8206 -302.8313 -206.3885
ENERGY: 600000 1.9121 2.4073 1.3494 0.0000 -10653.9163 1405.1863 0.0000 0.0000 1717.7749 -7525.2863 293.3730 -9243.0612 -7492.9354 295.2302 -99.8612 -105.6670 30362.2339 -59.4596 8.1199
ENERGY: 900000 3.2326 1.2230 2.4075 0.0000 -10660.2026 1396.9169 0.0000 0.0000 1772.1233 -7484.2993 302.6550 -9256.4226 -7483.0653 296.5796 -453.8982 -346.5076 30524.0330 -181.6965 -105.2196
ENERGY: 1200000 1.6679 2.1627 2.6646 0.0000 -10566.7531 1344.7469 0.0000 0.0000 1759.3242 -7456.1869 300.4691 -9215.5110 -7473.6711 297.8574 -654.0094 -581.8365 30323.8025 -269.4631 -191.7110
ENERGY: 1500000 0.7940 2.9836 3.1151 0.0000 -10661.8902 1372.2342 0.0000 0.0000 1721.6962 -7561.0671 294.0427 -9282.7633 -7484.1325 297.4453 -481.3809 -396.9459 30239.8893 -277.5325 -201.7969
TCL: Running FEP window   2: Lambda1 0.95   Lambda2 0.8999999999999999 [dLambda -0.050000000000000044]
TCL: Setting parameter firsttimestep to 0
TCL: Setting parameter alchLambda to 0.95
Info: NONBONDED TABLE R-SQUARED SPACING: 0.0625
Info: NONBONDED TABLE SIZE: 705 POINTS
TCL: Setting parameter alchLambda2 to 0.8999999999999999
Info: NONBONDED TABLE R-SQUARED SPACING: 0.0625
Info: NONBONDED TABLE SIZE: 705 POINTS
TCL: Running for 1500000 steps
ETITLE: TS BOND ANGLE DIHED IMPRP ELECT VDW BOUNDARY MISC KINETIC TOTAL TEMP POTENTIAL TOTALAVG TEMPAVG PRESSURE GPRESSURE VOLUME PRESSAVG GPRESSAVG
ENERGY: 0 0.7940 2.9836 3.1151 0.0000 -10661.2074 1372.5044 0.0000 0.0000 1720.7881 -7561.0222 293.8877 -9281.8103 -7561.0222 293.8877 -479.4984 -403.6632 30239.8893 -479.4984 -403.6632
ENERGY: 300000 1.2039 1.5031 1.5695 0.0000 -10671.9256 1469.4694 0.0000 0.0000 1787.4893 -7410.6904 305.2793 -9198.1797 -7477.0337 301.9233 -11.0755 103.7747 30922.3865 -132.9441 -55.5743
ENERGY: 600000 1.5405 1.6636 1.4144 0.0000 -10742.6404 1487.4691 0.0000 0.0000 1684.0464 -7566.5064 287.6127 -9250.5528 -7487.4551 300.0049 491.9664 589.0865 29806.2969 -21.3152 40.3949
ENERGY: 900000 3.6750 2.0660 2.0600 0.0000 -10790.8402 1568.4609 0.0000 0.0000 1779.0924 -7435.4859 303.8452 -9214.5783 -7456.6286 301.0237 777.8571 851.7520 30838.4880 179.4997 243.5430
ENERGY: 1200000 1.1780 1.4954 2.6284 0.0000 -10714.1566 1484.1189 0.0000 0.0000 1749.8927 -7474.8431 298.8583 -9224.7358 -7454.8402 300.8424 791.0530 855.1171 29929.3756 244.3177 306.8850
ENERGY: 1500000 2.0160 3.2855 1.9364 0.0000 -10643.2861 1433.1575 0.0000 0.0000 1795.7311 -7407.1597 306.6869 -9202.8907 -7453.3560 300.7770 -37.0276 56.2683 30327.9972 298.7935 357.6956
TCL: Running FEP window   3: Lambda1 0.8999999999999999 Lambda2 0.8499999999999999 [dLambda -0.050000000000000044]
TCL: Setting parameter firsttimestep to 0
TCL: Setting parameter alchLambda to 0.8999999999999999
Info: NONBONDED TABLE R-SQUARED SPACING: 0.0625
Info: NONBONDED TABLE SIZE: 705 POINTS
TCL: Setting parameter alchLambda2 to 0.8499999999999999
Info: NONBONDED TABLE R-SQUARED SPACING: 0.0625
Info: NONBONDED TABLE SIZE: 705 POINTS
TCL: Running for 1500000 steps
ETITLE: TS BOND ANGLE DIHED IMPRP ELECT VDW BOUNDARY MISC KINETIC TOTAL TEMP POTENTIAL TOTALAVG TEMPAVG PRESSURE GPRESSURE VOLUME PRESSAVG GPRESSAVG
ENERGY: 0 2.0160 3.2855 1.9364 0.0000 -10643.0189 1433.0212 0.0000 0.0000 1794.8587 -7407.9011 306.5379 -9202.7599 -7407.9011 306.5379 -49.1539 43.3082 30327.9972 -49.1539 43.3082
ENERGY: 300000 2.4412 0.7453 2.5023 0.0000 -10626.0758 1441.4981 0.0000 0.0000 1733.1028 -7445.7861 295.9908 -9178.8889 -7441.5165 301.7803 114.9635 248.4475 30401.6496 97.6049 173.5033
ENERGY: 600000 1.5856 2.7123 2.6907 0.0000 -10851.0791 1548.2720 0.0000 0.0000 1785.0954 -7510.7230 304.8705 -9295.8184 -7468.6718 302.4282 744.4125 836.1449 30136.7789 103.3023 175.5561
ENERGY: 900000 0.9349 1.7843 1.5972 0.0000 -10682.6200 1497.4350 0.0000 0.0000 1788.9507 -7391.9180 305.5289 -9180.8686 -7477.5814 301.9643 670.3383 761.2996 30363.8301 270.0970 339.9749
ENERGY: 1200000 2.3999 3.3367 4.0840 0.0000 -10650.6100 1370.7045 0.0000 0.0000 1751.2498 -7518.8353 299.0901 -9270.0850 -7481.9681 301.1202 -590.2863 -524.5924 30416.4609 63.7204 134.9712
ENERGY: 1500000 2.0343 1.4694 3.3118 0.0000 -10537.1441 1374.6889 0.0000 0.0000 1785.7376 -7369.9021 304.9802 -9155.6397 -7474.6318 301.4467 -355.1809 -318.3020 30364.7016 75.8034 143.0634
TCL: Running FEP window   4: Lambda1 0.8499999999999999 Lambda2 0.7999999999999998 [dLambda -0.050000000000000044]
TCL: Setting parameter firsttimestep to 0
TCL: Setting parameter alchLambda to 0.8499999999999999
Info: NONBONDED TABLE R-SQUARED SPACING: 0.0625
Info: NONBONDED TABLE SIZE: 705 POINTS
TCL: Setting parameter alchLambda2 to 0.7999999999999998
Info: NONBONDED TABLE R-SQUARED SPACING: 0.0625
Info: NONBONDED TABLE SIZE: 705 POINTS
TCL: Running for 1500000 steps
ETITLE: TS BOND ANGLE DIHED IMPRP ELECT VDW BOUNDARY MISC KINETIC TOTAL TEMP POTENTIAL TOTALAVG TEMPAVG PRESSURE GPRESSURE VOLUME PRESSAVG GPRESSAVG
ENERGY: 0 2.0343 1.4694 3.3118 0.0000 -10536.9066 1374.3970 0.0000 0.0000 1784.8547 -7370.8394 304.8294 -9155.6941 -7370.8394 304.8294 -423.4189 -330.5966 30364.7016 -423.4189 -330.5966
ENERGY: 300000 0.8598 0.5947 2.7969 0.0000 -10644.8611 1430.8753 0.0000 0.0000 1752.7730 -7456.9613 299.3502 -9209.7343 -7484.1540 299.7320 -31.8016 50.7193 30737.2163 -115.6142 -51.8635
ENERGY: 600000 1.8431 1.1499 2.1274 0.0000 -10643.6060 1386.9838 0.0000 0.0000 1751.9855 -7499.5162 299.2157 -9251.5017 -7485.1203 297.5959 -707.2956 -622.3185 30764.1413 -302.8792 -222.2007
ENERGY: 900000 2.6526 3.0158 2.1725 0.0000 -10643.6549 1457.3291 0.0000 0.0000 1743.5944 -7434.8905 297.7827 -9178.4849 -7466.8846 298.6044 311.7999 430.2929 30141.5220 -33.8162 46.2304
ENERGY: 1200000 0.9034 1.4295 2.3701 0.0000 -10568.5393 1401.9962 0.0000 0.0000 1809.2612 -7352.5788 308.9977 -9161.8400 -7460.7478 300.2677 -7.0500 107.4108 30401.1116 -31.4310 44.3822
ENERGY: 1500000 1.7529 2.7615 4.5610 0.0000 -10467.8179 1383.1976 0.0000 0.0000 1775.8532 -7299.6916 303.2920 -9075.5449 -7449.7053 301.4304 -172.0734 -86.6492 30953.9012 -49.4571 26.0275
TCL: Running FEP window   5: Lambda1 0.7999999999999998 Lambda2 0.7499999999999998 [dLambda -0.050000000000000044]
TCL: Setting parameter firsttimestep to 0
TCL: Setting parameter alchLambda to 0.7999999999999998
Info: NONBONDED TABLE R-SQUARED SPACING: 0.0625
Info: NONBONDED TABLE SIZE: 705 POINTS
TCL: Setting parameter alchLambda2 to 0.7499999999999998
Info: NONBONDED TABLE R-SQUARED SPACING: 0.0625
Info: NONBONDED TABLE SIZE: 705 POINTS
TCL: Running for 1500000 steps
ETITLE: TS BOND ANGLE DIHED IMPRP ELECT VDW BOUNDARY MISC KINETIC TOTAL TEMP POTENTIAL TOTALAVG TEMPAVG PRESSURE GPRESSURE VOLUME PRESSAVG GPRESSAVG
ENERGY: 0 1.7529 2.7615 4.5610 0.0000 -10467.4511 1383.0039 0.0000 0.0000 1774.9524 -7300.4194 303.1382 -9075.3718 -7300.4194 303.1382 -171.9315 -94.4055 30953.9012 -171.9315 -94.4055
ENERGY: 300000 2.4861 3.1249 2.9089 0.0000 -10719.2493 1419.4260 0.0000 0.0000 1777.4199 -7513.8834 303.5596 -9291.3034 -7440.7633 304.2838 -292.2314 -308.9784 30326.6640 -35.1616 2.7712
ENERGY: 600000 2.7482 4.2498 2.5074 0.0000 -10753.7221 1484.6611 0.0000 0.0000 1795.6078 -7463.9478 306.6659 -9259.5557 -7442.4201 303.5121 307.3084 362.6458 30305.9275 37.0139 74.2162
ENERGY: 900000 1.3696 3.2654 3.0944 0.0000 -10705.1970 1446.1622 0.0000 0.0000 1687.1223 -7564.1830 288.1380 -9251.3053 -7466.3839 300.5245 -101.9867 -86.6967 30581.8559 22.8478 62.6600
ENERGY: 1200000 1.4193 2.5257 2.7308 0.0000 -10768.2832 1495.3652 0.0000 0.0000 1767.9622 -7498.2801 301.9444 -9266.2423 -7465.2728 300.2269 244.3256 320.2861 30145.0236 47.4513 96.7002
ENERGY: 1500000 2.4534 1.6494 3.2655 0.0000 -10601.9741 1430.1658 0.0000 0.0000 1710.6678 -7453.7721 292.1592 -9164.4400 -7463.4031 299.6505 0.1175 86.0599 30365.7199 -6.4542 48.9965
TCL: Running FEP window   6: Lambda1 0.7499999999999998 Lambda2 0.6999999999999997 [dLambda -0.050000000000000044]
TCL: Setting parameter firsttimestep to 0
TCL: Setting parameter alchLambda to 0.7499999999999998
Info: NONBONDED TABLE R-SQUARED SPACING: 0.0625
Info: NONBONDED TABLE SIZE: 705 POINTS
TCL: Setting parameter alchLambda2 to 0.6999999999999997
Info: NONBONDED TABLE R-SQUARED SPACING: 0.0625
Info: NONBONDED TABLE SIZE: 705 POINTS
TCL: Running for 1500000 steps
ETITLE: TS BOND ANGLE DIHED IMPRP ELECT VDW BOUNDARY MISC KINETIC TOTAL TEMP POTENTIAL TOTALAVG TEMPAVG PRESSURE GPRESSURE VOLUME PRESSAVG GPRESSAVG
ENERGY: 0 2.4534 1.6494 3.2655 0.0000 -10601.4397 1429.8079 0.0000 0.0000 1709.7788 -7454.4848 292.0074 -9164.2635 -7454.4848 292.0074 1.5859 77.7250 30365.7199 1.5859 77.7250
ENERGY: 300000 0.6807 2.3082 3.6312 0.0000 -10689.3367 1436.8654 0.0000 0.0000 1743.0373 -7502.8138 297.6875 -9245.8511 -7494.5324 298.2949 -133.5305 -112.0613 30252.9802 -60.0547 9.0304
ENERGY: 600000 1.7751 1.2696 1.1271 0.0000 -10824.6046 1532.3951 0.0000 0.0000 1788.0758 -7499.9619 305.3795 -9288.0377 -7495.0688 301.1273 506.0217 641.5211 30433.4093 151.0677 223.1358
ENERGY: 900000 2.4613 3.6573 3.7640 0.0000 -10588.2812 1351.5970 0.0000 0.0000 1717.7227 -7509.0790 293.3641 -9226.8017 -7493.0242 300.0024 -1006.7180 -935.2716 30619.5166 -13.2897 55.7654
ENERGY: 1200000 0.9758 2.0580 4.1747 0.0000 -10666.7957 1384.3024 0.0000 0.0000 1719.3093 -7555.9755 293.6351 -9275.2849 -7480.7703 301.0815 -461.9127 -392.0170 30008.3904 -54.9639 7.6090
ENERGY: 1500000 3.4607 3.1889 2.3816 0.0000 -10674.9622 1454.0509 0.0000 0.0000 1781.4118 -7430.4683 304.2414 -9211.8801 -7470.5888 301.4574 438.4468 495.3137 29917.6204 14.0075 79.3159
TCL: Running FEP window   7: Lambda1 0.6999999999999997 Lambda2 0.6499999999999997 [dLambda -0.050000000000000044]
TCL: Setting parameter firsttimestep to 0
TCL: Setting parameter alchLambda to 0.6999999999999997
Info: NONBONDED TABLE R-SQUARED SPACING: 0.0625
Info: NONBONDED TABLE SIZE: 705 POINTS
TCL: Setting parameter alchLambda2 to 0.6499999999999997
Info: NONBONDED TABLE R-SQUARED SPACING: 0.0625
Info: NONBONDED TABLE SIZE: 705 POINTS
TCL: Running for 1500000 steps
ETITLE: TS BOND ANGLE DIHED IMPRP ELECT VDW BOUNDARY MISC KINETIC TOTAL TEMP POTENTIAL TOTALAVG TEMPAVG PRESSURE GPRESSURE VOLUME PRESSAVG GPRESSAVG
ENERGY: 0 3.4607 3.1889 2.3816 0.0000 -10674.4451 1453.3165 0.0000 0.0000 1780.5472 -7431.5501 304.0937 -9212.0973 -7431.5501 304.0937 392.5247 479.8164 29917.6204 392.5247 479.8164
ENERGY: 300000 2.2054 2.6167 3.4189 0.0000 -10633.7562 1379.6445 0.0000 0.0000 1711.3875 -7534.4833 292.2822 -9245.8708 -7471.2718 299.2754 -473.5358 -422.2055 30083.8585 175.7218 232.2305
ENERGY: 600000 0.9817 2.6222 3.1317 0.0000 -10622.9178 1412.1747 0.0000 0.0000 1754.9472 -7449.0603 299.7216 -9204.0075 -7467.2366 299.9492 -182.8295 -115.0960 30432.0883 135.9073 200.6886
ENERGY: 900000 1.4597 0.9693 3.1813 0.0000 -10580.7292 1374.7807 0.0000 0.0000 1775.9788 -7424.3594 303.3135 -9200.3382 -7457.9001 300.5984 -476.0970 -383.0896 30221.9939 59.0959 127.5263
ENERGY: 1200000 3.8551 5.9827 3.3993 0.0000 -10615.3798 1359.7694 0.0000 0.0000 1780.3989 -7461.9743 304.0684 -9242.3733 -7458.0300 300.0219 -595.6097 -550.7975 30325.8818 -44.0198 22.3867
ENERGY: 1500000 2.2294 6.3352 1.8433 0.0000 -10516.9225 1344.8237 0.0000 0.0000 1748.8015 -7412.8895 298.6720 -9161.6909 -7454.6981 299.7176 -530.6864 -450.7757 30546.4304 -38.3497 25.4130
TCL: Running FEP window   8: Lambda1 0.6499999999999997 Lambda2 0.5999999999999996 [dLambda -0.050000000000000044]
TCL: Setting parameter firsttimestep to 0
TCL: Setting parameter alchLambda to 0.6499999999999997
Info: NONBONDED TABLE R-SQUARED SPACING: 0.0625
Info: NONBONDED TABLE SIZE: 705 POINTS
TCL: Setting parameter alchLambda2 to 0.5999999999999996
Info: NONBONDED TABLE R-SQUARED SPACING: 0.0625
Info: NONBONDED TABLE SIZE: 705 POINTS
TCL: Running for 1500000 steps
ETITLE: TS BOND ANGLE DIHED IMPRP ELECT VDW BOUNDARY MISC KINETIC TOTAL TEMP POTENTIAL TOTALAVG TEMPAVG PRESSURE GPRESSURE VOLUME PRESSAVG GPRESSAVG
ENERGY: 0 2.2294 6.3352 1.8433 0.0000 -10516.7553 1345.2155 0.0000 0.0000 1747.8743 -7413.2576 298.5136 -9161.1319 -7413.2576 298.5136 -542.4020 -452.7435 30546.4304 -542.4020 -452.7435
ENERGY: 300000 1.9216 1.6110 2.8707 0.0000 -10686.6964 1456.3323 0.0000 0.0000 1764.4272 -7459.5336 301.3406 -9223.9608 -7452.0460 299.9311 176.4364 280.6195 30399.6673 -133.1719 -56.1102
ENERGY: 600000 0.7082 2.6497 3.3640 0.0000 -10614.6291 1414.2851 0.0000 0.0000 1750.8857 -7442.7364 299.0279 -9193.6221 -7475.4485 300.1577 -41.5239 11.6043 30565.9644 -96.8621 -25.3517
ENERGY: 900000 2.8717 2.6699 0.8910 0.0000 -10585.2002 1364.3973 0.0000 0.0000 1772.5595 -7441.8109 302.7295 -9214.3703 -7466.8480 300.1463 -863.2732 -722.8498 30563.0712 -309.6912 -229.7206
ENERGY: 1200000 2.6098 2.2543 3.4517 0.0000 -10620.3299 1368.5622 0.0000 0.0000 1783.5920 -7459.8598 304.6137 -9243.4518 -7468.1832 301.3367 -559.7763 -471.3644 30429.9173 -320.0913 -242.7362
ENERGY: 1500000 2.0805 1.4680 0.5156 0.0000 -10597.5519 1353.9003 0.0000 0.0000 1761.9843 -7477.6031 300.9234 -9239.5875 -7465.5335 300.3665 -550.2969 -533.1220 30287.9706 -357.4306 -282.3189
TCL: Running FEP window   9: Lambda1 0.5999999999999996 Lambda2 0.5499999999999996 [dLambda -0.050000000000000044]
TCL: Setting parameter firsttimestep to 0
TCL: Setting parameter alchLambda to 0.5999999999999996
Info: NONBONDED TABLE R-SQUARED SPACING: 0.0625
Info: NONBONDED TABLE SIZE: 705 POINTS
TCL: Setting parameter alchLambda2 to 0.5499999999999996
Info: NONBONDED TABLE R-SQUARED SPACING: 0.0625
Info: NONBONDED TABLE SIZE: 705 POINTS
TCL: Running for 1500000 steps
ETITLE: TS BOND ANGLE DIHED IMPRP ELECT VDW BOUNDARY MISC KINETIC TOTAL TEMP POTENTIAL TOTALAVG TEMPAVG PRESSURE GPRESSURE VOLUME PRESSAVG GPRESSAVG
ENERGY: 0 2.0805 1.4680 0.5156 0.0000 -10597.5120 1353.7693 0.0000 0.0000 1761.1578 -7478.5207 300.7823 -9239.6786 -7478.5207 300.7823 -618.5930 -541.0729 30287.9706 -618.5930 -541.0729
ENERGY: 300000 1.9006 3.2118 2.6971 0.0000 -10643.7532 1429.1693 0.0000 0.0000 1756.8470 -7449.9274 300.0460 -9206.7744 -7477.3720 298.4523 -82.8046 -13.8144 30285.1259 -190.7536 -129.5361
ENERGY: 600000 3.3394 4.1290 4.7493 0.0000 -10714.5235 1447.1693 0.0000 0.0000 1739.4695 -7515.6669 297.0782 -9255.1364 -7470.6417 296.7881 -119.3666 -0.5335 30161.4284 -152.6195 -75.5661
ENERGY: 900000 3.0515 3.7396 1.1759 0.0000 -10657.1223 1429.9414 0.0000 0.0000 1772.8305 -7446.3834 302.7758 -9219.2139 -7460.6881 297.7956 -191.0849 -80.4054 30562.1103 -158.2655 -78.4460
ENERGY: 1200000 1.7430 1.5936 2.2139 0.0000 -10550.9703 1370.1990 0.0000 0.0000 1771.0778 -7404.1431 302.4765 -9175.2209 -7464.7238 298.3116 -243.5735 -176.9805 30223.4034 -155.6924 -82.0512
ENERGY: 1500000 4.7411 4.6542 1.1628 0.0000 -10631.6875 1417.2593 0.0000 0.0000 1723.1803 -7480.6898 294.2962 -9203.8702 -7464.8503 297.6994 -538.8715 -469.4332 30669.6018 -154.4098 -81.5021
TCL: Running FEP window  10: Lambda1 0.5499999999999996 Lambda2 0.4999999999999996 [dLambda -0.04999999999999999]
TCL: Setting parameter firsttimestep to 0
TCL: Setting parameter alchLambda to 0.5499999999999996
Info: NONBONDED TABLE R-SQUARED SPACING: 0.0625
Info: NONBONDED TABLE SIZE: 705 POINTS
TCL: Setting parameter alchLambda2 to 0.4999999999999996
Info: NONBONDED TABLE R-SQUARED SPACING: 0.0625
Info: NONBONDED TABLE SIZE: 705 POINTS
TCL: Running for 1500000 steps
ETITLE: TS BOND ANGLE DIHED IMPRP ELECT VDW BOUNDARY MISC KINETIC TOTAL TEMP POTENTIAL TOTALAVG TEMPAVG PRESSURE GPRESSURE VOLUME PRESSAVG GPRESSAVG
ENERGY: 0 4.7411 4.6542 1.1628 0.0000 -10631.4921 1417.6627 0.0000 0.0000 1722.2905 -7480.9808 294.1442 -9203.2714 -7480.9808 294.1442 -544.5323 -466.6020 30669.6018 -544.5323 -466.6020
ENERGY: 300000 2.7232 1.5906 1.7302 0.0000 -10707.2410 1425.9591 0.0000 0.0000 1756.1882 -7519.0498 299.9335 -9275.2380 -7459.6431 302.5267 91.2402 104.6196 29666.2876 -213.7197 -173.0061
ENERGY: 600000 1.0884 2.2242 3.6895 0.0000 -10599.8081 1428.0550 0.0000 0.0000 1728.0720 -7436.6791 295.1316 -9164.7511 -7465.8392 301.0340 -326.9702 -233.5782 30869.6858 -18.0853 37.2675
ENERGY: 900000 3.2884 1.2974 0.8787 0.0000 -10671.4924 1426.3072 0.0000 0.0000 1759.6769 -7480.0439 300.5293 -9239.7208 -7461.2589 300.0932 -255.1472 -101.9891 30421.2701 95.5196 157.8949
ENERGY: 1200000 2.7870 1.4431 3.5266 0.0000 -10808.2105 1531.1799 0.0000 0.0000 1814.9684 -7454.3056 309.9724 -9269.2740 -7479.6811 300.0704 532.1720 531.1408 30077.6387 85.3214 141.5566
ENERGY: 1500000 2.5546 2.0575 0.7751 0.0000 -10567.3080 1379.9762 0.0000 0.0000 1744.2907 -7437.6539 297.9016 -9181.9446 -7479.4814 299.2404 -315.5240 -247.1089 30105.4025 -40.9973 16.7098
TCL: Running FEP window  11: Lambda1 0.4999999999999996 Lambda2 0.4499999999999996 [dLambda -0.04999999999999999]
TCL: Setting parameter firsttimestep to 0
TCL: Setting parameter alchLambda to 0.4999999999999996
Info: NONBONDED TABLE R-SQUARED SPACING: 0.0625
Info: NONBONDED TABLE SIZE: 705 POINTS
TCL: Setting parameter alchLambda2 to 0.4499999999999996
Info: NONBONDED TABLE R-SQUARED SPACING: 0.0625
Info: NONBONDED TABLE SIZE: 705 POINTS
TCL: Running for 1500000 steps
ETITLE: TS BOND ANGLE DIHED IMPRP ELECT VDW BOUNDARY MISC KINETIC TOTAL TEMP POTENTIAL TOTALAVG TEMPAVG PRESSURE GPRESSURE VOLUME PRESSAVG GPRESSAVG
ENERGY: 0 2.5546 2.0575 0.7751 0.0000 -10566.9554 1380.1097 0.0000 0.0000 1743.4135 -7438.0451 297.7518 -9181.4585 -7438.0451 297.7518 -337.1452 -252.3840 30105.4025 -337.1452 -252.3840
ENERGY: 300000 2.0580 0.9932 2.1487 0.0000 -10718.3088 1479.5922 0.0000 0.0000 1738.6419 -7494.8748 296.9368 -9233.5167 -7435.1326 301.8464 231.0579 207.0068 30308.3330 -290.9385 -250.4642
ENERGY: 600000 1.7626 3.9642 1.4313 0.0000 -10574.2846 1386.4470 0.0000 0.0000 1792.4052 -7388.2744 306.1189 -9180.6796 -7417.6148 303.1495 -391.9885 -312.5152 30315.4066 -193.6723 -140.6663
ENERGY: 900000 0.9625 1.6566 1.9377 0.0000 -10591.7475 1426.2897 0.0000 0.0000 1769.5402 -7391.3607 302.2139 -9160.9009 -7416.4614 303.5849 -105.8177 -46.7232 30698.4769 -73.2421 -12.8497
ENERGY: 1200000 1.1332 3.0010 1.2013 0.0000 -10649.6009 1502.3703 0.0000 0.0000 1759.3997 -7382.4953 300.4820 -9141.8950 -7430.3170 303.4538 820.5905 894.7871 30274.9863 18.0357 75.9176
ENERGY: 1500000 3.4371 1.7634 2.0754 0.0000 -10594.1940 1403.2354 0.0000 0.0000 1741.6186 -7442.0640 297.4452 -9183.6826 -7437.0580 302.7410 -660.6801 -549.1136 30896.9243 -48.5742 9.2612
TCL: Running FEP window  12: Lambda1 0.4499999999999996 Lambda2 0.39999999999999963 [dLambda -0.04999999999999999]
TCL: Setting parameter firsttimestep to 0
TCL: Setting parameter alchLambda to 0.4499999999999996
Info: NONBONDED TABLE R-SQUARED SPACING: 0.0625
Info: NONBONDED TABLE SIZE: 705 POINTS
TCL: Setting parameter alchLambda2 to 0.39999999999999963
Info: NONBONDED TABLE R-SQUARED SPACING: 0.0625
Info: NONBONDED TABLE SIZE: 705 POINTS
TCL: Running for 1500000 steps
ETITLE: TS BOND ANGLE DIHED IMPRP ELECT VDW BOUNDARY MISC KINETIC TOTAL TEMP POTENTIAL TOTALAVG TEMPAVG PRESSURE GPRESSURE VOLUME PRESSAVG GPRESSAVG
ENERGY: 0 3.4371 1.7634 2.0754 0.0000 -10594.1943 1403.1564 0.0000 0.0000 1740.7569 -7443.0050 297.2981 -9183.7619 -7443.0050 297.2981 -653.1123 -557.3748 30896.9243 -653.1123 -557.3748
ENERGY: 300000 0.7280 1.4903 2.7611 0.0000 -10692.9688 1482.8880 0.0000 0.0000 1761.4311 -7443.6703 300.8289 -9205.1014 -7452.9199 298.7529 387.3025 467.7741 30372.7598 10.8737 99.0403
ENERGY: 600000 1.8641 2.6262 0.7733 0.0000 -10640.4577 1438.4657 0.0000 0.0000 1757.4420 -7439.2864 300.1476 -9196.7284 -7457.3923 298.1650 -20.9861 28.9558 30370.6934 -77.8286 8.9534
ENERGY: 900000 3.2444 1.4696 2.3949 0.0000 -10664.9306 1429.4364 0.0000 0.0000 1717.7459 -7510.6394 293.3681 -9228.3853 -7467.8916 298.6543 -303.0010 -212.3945 30364.8251 -7.8774 72.3764
ENERGY: 1200000 2.8888 3.9966 1.6367 0.0000 -10622.3192 1441.5773 0.0000 0.0000 1666.5798 -7505.6399 284.6296 -9172.2197 -7463.2445 297.7424 28.9550 53.6234 30436.7198 7.7430 77.6253
ENERGY: 1500000 1.6858 2.2458 1.3935 0.0000 -10719.8440 1455.7899 0.0000 0.0000 1761.5902 -7497.1387 300.8561 -9258.7289 -7464.7145 298.5769 -228.9932 -127.4282 30683.1261 32.9644 96.0047
TCL: Running FEP window  13: Lambda1 0.39999999999999963 Lambda2 0.34999999999999964 [dLambda -0.04999999999999999]
TCL: Setting parameter firsttimestep to 0
TCL: Setting parameter alchLambda to 0.39999999999999963
Info: NONBONDED TABLE R-SQUARED SPACING: 0.0625
Info: NONBONDED TABLE SIZE: 705 POINTS
TCL: Setting parameter alchLambda2 to 0.34999999999999964
Info: NONBONDED TABLE R-SQUARED SPACING: 0.0625
Info: NONBONDED TABLE SIZE: 705 POINTS
TCL: Running for 1500000 steps
ETITLE: TS BOND ANGLE DIHED IMPRP ELECT VDW BOUNDARY MISC KINETIC TOTAL TEMP POTENTIAL TOTALAVG TEMPAVG PRESSURE GPRESSURE VOLUME PRESSAVG GPRESSAVG
ENERGY: 0 1.6859 2.2458 1.3935 0.0000 -10719.8439 1455.9577 0.0000 0.0000 1760.7222 -7497.8389 300.7079 -9258.5610 -7497.8389 300.7079 -235.1318 -131.2390 30683.1261 -235.1318 -131.2390
ENERGY: 300000 1.8838 2.4928 3.0101 0.0000 -10858.3580 1538.1398 0.0000 0.0000 1779.6944 -7533.1371 303.9481 -9312.8315 -7487.5742 301.5579 635.7351 729.9702 30085.5506 -166.1366 -69.4229
ENERGY: 600000 1.2234 5.1207 1.8203 0.0000 -10608.0433 1394.8719 0.0000 0.0000 1783.8832 -7421.1238 304.6634 -9205.0070 -7483.5607 302.2441 53.1959 105.0206 29905.9721 -6.5911 75.2807
ENERGY: 900000 2.9549 3.4769 3.2218 0.0000 -10757.2332 1479.5011 0.0000 0.0000 1756.3097 -7511.7688 299.9543 -9268.0785 -7491.0821 301.0819 343.2659 360.9020 29869.7487 51.0230 116.6681
ENERGY: 1200000 1.2478 3.2126 3.6611 0.0000 -10586.8228 1400.1290 0.0000 0.0000 1777.8191 -7400.7530 303.6278 -9178.5721 -7485.2219 301.3612 -452.0928 -387.4252 30687.5521 62.9420 130.7700
ENERGY: 1500000 5.2370 4.8153 1.8500 0.0000 -10647.5960 1475.3433 0.0000 0.0000 1777.1869 -7383.1635 303.5198 -9160.3504 -7484.9122 300.0230 117.5666 223.4074 30365.0882 51.4337 122.5556
TCL: Running FEP window  14: Lambda1 0.34999999999999964 Lambda2 0.29999999999999966 [dLambda -0.04999999999999999]
TCL: Setting parameter firsttimestep to 0
TCL: Setting parameter alchLambda to 0.34999999999999964
Info: NONBONDED TABLE R-SQUARED SPACING: 0.0625
Info: NONBONDED TABLE SIZE: 705 POINTS
TCL: Setting parameter alchLambda2 to 0.29999999999999966
Info: NONBONDED TABLE R-SQUARED SPACING: 0.0625
Info: NONBONDED TABLE SIZE: 705 POINTS
TCL: Running for 1500000 steps
ETITLE: TS BOND ANGLE DIHED IMPRP ELECT VDW BOUNDARY MISC KINETIC TOTAL TEMP POTENTIAL TOTALAVG TEMPAVG PRESSURE GPRESSURE VOLUME PRESSAVG GPRESSAVG
ENERGY: 0 5.2370 4.8153 1.8500 0.0000 -10647.5961 1475.5155 0.0000 0.0000 1776.2886 -7383.8897 303.3664 -9160.1783 -7383.8897 303.3664 131.9942 220.4797 30365.0882 131.9942 220.4797
ENERGY: 300000 0.7112 2.0453 2.1778 0.0000 -10672.1306 1451.5185 0.0000 0.0000 1735.7677 -7479.9101 296.4460 -9215.6778 -7438.9537 299.7316 223.6740 278.8169 30121.4632 146.7440 230.0537
ENERGY: 600000 1.4536 1.0442 1.8847 0.0000 -10662.5546 1406.5247 0.0000 0.0000 1737.4148 -7514.2328 296.7273 -9251.6476 -7476.0699 298.1902 -389.5789 -264.7610 30331.4971 65.1647 139.0233
ENERGY: 900000 2.8828 1.7481 2.8869 0.0000 -10658.8950 1417.0600 0.0000 0.0000 1757.6532 -7476.6639 300.1837 -9234.3171 -7476.1644 298.5694 -70.9185 -55.8822 30198.7264 25.5751 93.4923
ENERGY: 1200000 2.0347 1.5192 2.5643 0.0000 -10819.9539 1483.2990 0.0000 0.0000 1718.1477 -7612.3889 293.4367 -9330.5366 -7480.3473 299.3959 207.3112 267.7735 30069.4729 15.5306 88.7915
ENERGY: 1500000 1.3849 3.4751 3.2206 0.0000 -10698.6090 1449.7327 0.0000 0.0000 1744.8047 -7495.9910 297.9894 -9240.7956 -7483.7659 298.6871 -66.5474 -25.2971 30407.7317 38.7771 107.8603
TCL: Running FEP window  15: Lambda1 0.29999999999999966 Lambda2 0.24999999999999967 [dLambda -0.04999999999999999]
TCL: Setting parameter firsttimestep to 0
TCL: Setting parameter alchLambda to 0.29999999999999966
Info: NONBONDED TABLE R-SQUARED SPACING: 0.0625
Info: NONBONDED TABLE SIZE: 705 POINTS
TCL: Setting parameter alchLambda2 to 0.24999999999999967
Info: NONBONDED TABLE R-SQUARED SPACING: 0.0625
Info: NONBONDED TABLE SIZE: 705 POINTS
TCL: Running for 1500000 steps
ETITLE: TS BOND ANGLE DIHED IMPRP ELECT VDW BOUNDARY MISC KINETIC TOTAL TEMP POTENTIAL TOTALAVG TEMPAVG PRESSURE GPRESSURE VOLUME PRESSAVG GPRESSAVG
ENERGY: 0 1.3849 3.4751 3.2206 0.0000 -10698.6105 1450.1338 0.0000 0.0000 1743.9328 -7496.4633 297.8405 -9240.3961 -7496.4633 297.8405 -110.6526 -27.8639 30407.7317 -110.6526 -27.8639
ENERGY: 300000 2.0199 3.0492 4.1113 0.0000 -10553.0446 1399.8716 0.0000 0.0000 1735.0319 -7408.9606 296.3203 -9143.9925 -7433.2118 302.9875 -214.1922 -137.0501 30422.7394 -186.3563 -113.9843
ENERGY: 600000 1.6432 4.7861 7.1345 0.0000 -10712.8850 1442.5636 0.0000 0.0000 1717.6081 -7539.1495 293.3446 -9256.7576 -7443.1376 301.0835 308.9887 372.1187 29269.6467 -51.5381 10.3036
ENERGY: 900000 1.9859 2.5751 3.4009 0.0000 -10645.6316 1457.8853 0.0000 0.0000 1724.1879 -7455.5964 294.4683 -9179.7844 -7444.4697 301.3421 178.1912 189.2763 30519.8672 37.9639 95.2023
ENERGY: 1200000 3.6547 4.4341 4.9810 0.0000 -10545.6761 1392.1042 0.0000 0.0000 1812.9112 -7327.5909 309.6210 -9140.5020 -7443.7191 302.3926 -241.5390 -241.8860 30358.2888 -23.8387 22.5426
ENERGY: 1500000 1.0369 2.2954 1.9245 0.0000 -10742.4825 1460.9288 0.0000 0.0000 1761.8797 -7514.4172 300.9056 -9276.2969 -7453.8040 301.8343 278.6258 384.2592 29683.6050 -32.0150 19.2012
TCL: Running FEP window  16: Lambda1 0.24999999999999967 Lambda2 0.19999999999999968 [dLambda -0.04999999999999999]
TCL: Setting parameter firsttimestep to 0
TCL: Setting parameter alchLambda to 0.24999999999999967
Info: NONBONDED TABLE R-SQUARED SPACING: 0.0625
Info: NONBONDED TABLE SIZE: 705 POINTS
TCL: Setting parameter alchLambda2 to 0.19999999999999968
Info: NONBONDED TABLE R-SQUARED SPACING: 0.0625
Info: NONBONDED TABLE SIZE: 705 POINTS
TCL: Running for 1500000 steps
ETITLE: TS BOND ANGLE DIHED IMPRP ELECT VDW BOUNDARY MISC KINETIC TOTAL TEMP POTENTIAL TOTALAVG TEMPAVG PRESSURE GPRESSURE VOLUME PRESSAVG GPRESSAVG
ENERGY: 0 1.0369 2.2954 1.9245 0.0000 -10742.4831 1460.8623 0.0000 0.0000 1760.9954 -7515.3685 300.7545 -9276.3639 -7515.3685 300.7545 284.3526 381.3136 29683.6050 284.3526 381.3136
ENERGY: 300000 1.0117 5.7576 1.6400 0.0000 -10606.2843 1402.9608 0.0000 0.0000 1736.2604 -7458.6539 296.5301 -9194.9143 -7436.6900 301.9339 -112.4761 -57.0717 30016.8340 9.5498 58.9236
ENERGY: 600000 2.9785 1.3977 1.6411 0.0000 -10849.4197 1567.2011 0.0000 0.0000 1759.1483 -7517.0529 300.4391 -9276.2012 -7451.1986 301.7621 1041.2823 1101.0370 30070.2390 123.7183 179.4994
ENERGY: 900000 1.6662 4.0205 2.4965 0.0000 -10648.3972 1392.4591 0.0000 0.0000 1742.4000 -7505.3550 297.5787 -9247.7550 -7447.0981 301.3569 -621.9690 -538.0791 30385.6122 66.4314 133.3921
ENERGY: 1200000 1.5381 2.5681 1.5133 0.0000 -10599.6653 1412.0970 0.0000 0.0000 1740.2374 -7441.7114 297.2093 -9181.9488 -7448.2348 300.9982 -213.8580 -131.1703 30523.4608 107.8312 167.6389
ENERGY: 1500000 1.2563 1.7898 3.2283 0.0000 -10902.7231 1589.8982 0.0000 0.0000 1712.3637 -7594.1868 292.4489 -9306.5505 -7445.9036 301.1829 588.8533 685.9568 30468.8941 154.4912 212.6342
TCL: Running FEP window  17: Lambda1 0.19999999999999968 Lambda2 0.1499999999999997 [dLambda -0.04999999999999999]
TCL: Setting parameter firsttimestep to 0
TCL: Setting parameter alchLambda to 0.19999999999999968
Info: NONBONDED TABLE R-SQUARED SPACING: 0.0625
Info: NONBONDED TABLE SIZE: 705 POINTS
TCL: Setting parameter alchLambda2 to 0.1499999999999997
Info: NONBONDED TABLE R-SQUARED SPACING: 0.0625
Info: NONBONDED TABLE SIZE: 705 POINTS
TCL: Running for 1500000 steps
ETITLE: TS BOND ANGLE DIHED IMPRP ELECT VDW BOUNDARY MISC KINETIC TOTAL TEMP POTENTIAL TOTALAVG TEMPAVG PRESSURE GPRESSURE VOLUME PRESSAVG GPRESSAVG
ENERGY: 0 1.2563 1.7898 3.2283 0.0000 -10902.7241 1590.0124 0.0000 0.0000 1711.4705 -7594.9668 292.2963 -9306.4373 -7594.9668 292.2963 608.6187 683.1701 30468.8941 608.6187 683.1701
ENERGY: 300000 0.9998 3.0213 3.2623 0.0000 -10668.4645 1440.6151 0.0000 0.0000 1798.7869 -7421.7791 307.2088 -9220.5660 -7422.6315 306.2199 -150.9298 -66.7463 30587.5191 175.6877 249.9156
ENERGY: 600000 2.2681 4.5655 5.0591 0.0000 -10698.2808 1472.4791 0.0000 0.0000 1756.3508 -7457.5583 299.9613 -9213.9091 -7430.4590 304.1406 101.8001 209.1364 30338.9162 27.8729 99.5440
ENERGY: 900000 1.2735 4.6223 2.1386 0.0000 -10635.5061 1372.8389 0.0000 0.0000 1769.5100 -7485.1229 302.2087 -9254.6329 -7433.3492 303.4028 -522.2261 -516.6235 30235.9730 -143.8280 -87.0332
ENERGY: 1200000 1.6542 3.2871 2.3879 0.0000 -10714.6560 1497.9999 0.0000 0.0000 1802.8886 -7406.4384 307.9093 -9209.3269 -7440.7613 302.5164 290.2022 369.6229 30517.9310 -208.7972 -144.8360
ENERGY: 1500000 2.1642 3.0817 2.6111 0.0000 -10746.1296 1477.9404 0.0000 0.0000 1770.8564 -7489.4759 302.4386 -9260.3323 -7452.0131 301.9252 468.9691 547.7366 29931.8777 -41.1817 23.8070
TCL: Running FEP window  18: Lambda1 0.1499999999999997 Lambda2 0.09999999999999969 [dLambda -0.05 ]
TCL: Setting parameter firsttimestep to 0
TCL: Setting parameter alchLambda to 0.1499999999999997
Info: NONBONDED TABLE R-SQUARED SPACING: 0.0625
Info: NONBONDED TABLE SIZE: 705 POINTS
TCL: Setting parameter alchLambda2 to 0.09999999999999969
Info: NONBONDED TABLE R-SQUARED SPACING: 0.0625
Info: NONBONDED TABLE SIZE: 705 POINTS
TCL: Running for 1500000 steps
ETITLE: TS BOND ANGLE DIHED IMPRP ELECT VDW BOUNDARY MISC KINETIC TOTAL TEMP POTENTIAL TOTALAVG TEMPAVG PRESSURE GPRESSURE VOLUME PRESSAVG GPRESSAVG
ENERGY: 0 2.1642 3.0817 2.6111 0.0000 -10746.1301 1477.5360 0.0000 0.0000 1769.9971 -7490.7401 302.2919 -9260.7372 -7490.7401 302.2919 454.4869 543.1127 29931.8777 454.4869 543.1127
ENERGY: 300000 1.4059 3.2999 2.0207 0.0000 -10708.7269 1399.2187 0.0000 0.0000 1816.4059 -7486.3759 310.2179 -9302.7817 -7494.6885 302.5895 -323.9230 -227.4563 29825.3693 114.1928 188.9312
ENERGY: 600000 1.3448 1.5509 2.7676 0.0000 -10618.8021 1425.6564 0.0000 0.0000 1715.5850 -7471.8974 292.9990 -9187.4824 -7461.7276 300.5806 -72.5932 -80.7242 30458.0312 6.4170 52.9196
ENERGY: 900000 1.8169 2.1476 3.0979 0.0000 -10588.5812 1403.1806 0.0000 0.0000 1772.7663 -7405.5719 302.7648 -9178.3381 -7466.2547 301.7692 -34.9480 35.4054 29985.3425 -59.6413 -1.7083
ENERGY: 1200000 7.3842 3.8359 2.5895 0.0000 -10676.1621 1481.2480 0.0000 0.0000 1787.1739 -7393.9305 305.2255 -9181.1044 -7458.1547 301.1911 121.2605 176.9983 30603.0015 -24.5138 37.8168
ENERGY: 1500000 2.9522 3.5910 1.9758 0.0000 -10644.5863 1415.8000 0.0000 0.0000 1758.4722 -7461.7951 300.3236 -9220.2673 -7457.1176 300.6870 104.0338 228.3657 29732.3633 -64.7962 -0.4922
TCL: Running FEP window  19: Lambda1 0.09999999999999969 Lambda2 0.049999999999999684 [dLambda -0.05 ]
TCL: Setting parameter firsttimestep to 0
TCL: Setting parameter alchLambda to 0.09999999999999969
Info: NONBONDED TABLE R-SQUARED SPACING: 0.0625
Info: NONBONDED TABLE SIZE: 705 POINTS
TCL: Setting parameter alchLambda2 to 0.049999999999999684
Info: NONBONDED TABLE R-SQUARED SPACING: 0.0625
Info: NONBONDED TABLE SIZE: 705 POINTS
TCL: Running for 1500000 steps
ETITLE: TS BOND ANGLE DIHED IMPRP ELECT VDW BOUNDARY MISC KINETIC TOTAL TEMP POTENTIAL TOTALAVG TEMPAVG PRESSURE GPRESSURE VOLUME PRESSAVG GPRESSAVG
ENERGY: 0 2.9522 3.5910 1.9758 0.0000 -10644.5878 1415.8244 0.0000 0.0000 1757.5783 -7462.6661 300.1709 -9220.2443 -7462.6661 300.1709 134.0460 227.3416 29732.3633 134.0460 227.3416
ENERGY: 300000 1.8339 1.6111 1.5089 0.0000 -10744.7530 1427.6638 0.0000 0.0000 1746.3986 -7565.7367 298.2616 -9312.1353 -7487.1251 302.1380 -370.7240 -268.8520 30200.3500 -143.3099 -55.6531
ENERGY: 600000 1.4471 2.0220 3.4695 0.0000 -10758.2126 1507.8413 0.0000 0.0000 1780.2741 -7463.1587 304.0471 -9243.4328 -7475.2917 301.2400 296.5360 425.1714 30189.0790 -27.8355 68.5018
ENERGY: 900000 0.9627 3.1985 3.0921 0.0000 -10693.1318 1458.5909 0.0000 0.0000 1811.4501 -7415.8376 309.3715 -9227.2876 -7466.9916 302.7107 171.9359 208.7295 30162.5077 -169.2898 -77.7475
ENERGY: 1200000 1.1620 1.7407 2.2870 0.0000 -10597.1684 1402.8937 0.0000 0.0000 1755.7376 -7433.3475 299.8566 -9189.0851 -7456.7793 302.9891 -305.2890 -248.0742 30588.1968 -195.3543 -104.6056
ENERGY: 1500000 1.7001 4.1656 4.1144 0.0000 -10661.5446 1477.0145 0.0000 0.0000 1786.2894 -7388.2606 305.0744 -9174.5500 -7448.0646 303.1181 444.1939 631.6707 29991.6551 -213.2845 -110.7747
TCL: Running FEP window  20: Lambda1 0.049999999999999684 Lambda2 0.0    [dLambda -0.049999999999999684]
TCL: Setting parameter firsttimestep to 0
TCL: Setting parameter alchLambda to 0.049999999999999684
Info: NONBONDED TABLE R-SQUARED SPACING: 0.0625
Info: NONBONDED TABLE SIZE: 705 POINTS
TCL: Setting parameter alchLambda2 to 0.0
Info: NONBONDED TABLE R-SQUARED SPACING: 0.0625
Info: NONBONDED TABLE SIZE: 705 POINTS
TCL: Running for 1500000 steps
ETITLE: TS BOND ANGLE DIHED IMPRP ELECT VDW BOUNDARY MISC KINETIC TOTAL TEMP POTENTIAL TOTALAVG TEMPAVG PRESSURE GPRESSURE VOLUME PRESSAVG GPRESSAVG
ENERGY: 0 1.7001 4.1656 4.1144 0.0000 -10661.5434 1477.2284 0.0000 0.0000 1785.3979 -7388.9371 304.9221 -9174.3349 -7388.9371 304.9221 537.3927 633.3256 29991.6551 537.3927 633.3256
ENERGY: 300000 6.2956 1.7563 1.5042 0.0000 -10726.8962 1430.1458 0.0000 0.0000 1777.3936 -7509.8007 303.5551 -9287.1943 -7484.9885 298.6819 -246.2918 -209.2779 30012.0458 -50.8394 13.5116
ENERGY: 600000 4.8679 3.0624 3.3208 0.0000 -10594.0079 1415.0195 0.0000 0.0000 1744.5813 -7423.1561 297.9512 -9167.7374 -7478.1615 298.2582 -230.5636 -154.4005 30277.1977 -164.6351 -93.0964
ENERGY: 900000 1.2533 1.7524 3.0262 0.0000 -10705.8049 1462.2774 0.0000 0.0000 1798.0938 -7439.4017 307.0904 -9237.4955 -7476.4625 299.2524 184.8743 214.6675 30079.0092 -156.6105 -88.8126
ENERGY: 1200000 1.0360 3.0134 1.7951 0.0000 -10530.9071 1335.1100 0.0000 0.0000 1733.2671 -7456.6856 296.0189 -9189.9526 -7466.2899 300.0663 -1018.7408 -904.1343 30591.9688 -209.1942 -131.3981
ENERGY: 1500000 1.6704 3.8536 1.8639 0.0000 -10635.0930 1441.6774 0.0000 0.0000 1728.9988 -7457.0288 295.2899 -9186.0276 -7463.0410 300.1662 172.7712 232.3256 29968.6579 -110.3450 -40.1388
TCL: Exiting due to exit command.
