Info: SIMULATION PARAMETERS:
Info: TIMESTEP               2
Info: NUMBER OF STEPS        0
Info: STEPS PER CYCLE        10
Info: PERIODIC CELL BASIS 1  30.8634 0 0
Info: PERIODIC CELL BASIS 2  0 29.3884 0
Info: PERIODIC CELL BASIS 3  0 0 33.038
Info: PERIODIC CELL CENTER   0 0 0
Info: WRAPPING WATERS AROUND PERIODIC BOUNDARIES ON OUTPUT.
Info: WRAPPING ALL CLUSTERS AROUND PERIODIC BOUNDARIES ON OUTPUT.
Info: FIRST LDB TIMESTEP     50
Info: LAST LDB TIMESTEP     -1
Info: HOM BACKGROUND SCALING 1
Info: PME BACKGROUND SCALING 1
Info: MIN ATOMS PER PATCH    40
Info: EMPTY PATCH LOAD       40 ATOMS
Info: VELOCITY FILE          mobley_7599023_equil.vel
Info: CENTER OF MASS MOVING INITIALLY? NO
Info: DIELECTRIC             1
Info: EXCLUDE                SCALED ONE-FOUR
Info: 1-4 ELECTROSTATICS SCALED BY 0.833333
Info: MODIFIED 1-4 VDW PARAMETERS WILL BE USED
Info: DCD FILENAME           mobley_7599023_prod.dcd
Info: DCD FREQUENCY          100000
Info: DCD FIRST STEP         100000
Info: DCD FILE WILL CONTAIN UNIT CELL DATA
Info: XST FILENAME           mobley_7599023_prod.xst
Info: XST FREQUENCY          100000
Info: NO VELOCITY DCD OUTPUT
Info: NO FORCE DCD OUTPUT
Info: OUTPUT FILENAME        mobley_7599023_prod
Info: BINARY OUTPUT FILES WILL BE USED
Info: RESTART FILENAME       mobley_7599023_prod.restart
Info: RESTART FREQUENCY      100000
Info: BINARY RESTART FILES WILL BE USED
Info: CUTOFF                 9
Info: PAIRLIST DISTANCE      11
Info: PAIRLIST SHRINK RATE   0.01
Info: PAIRLIST GROW RATE     0.01
Info: PAIRLIST TRIGGER       0.3
Info: PAIRLISTS PER CYCLE    2
Info: PAIRLISTS ENABLED
Info: MARGIN                 2
Info: HYDROGEN GROUP CUTOFF  2.5
Info: PATCH DIMENSION        15.5
Info: ENERGY OUTPUT STEPS    100000
Info: ENERGY EVALUATION STEPS    100000
Info: OUTPUT ENERGY PRECISION 4
Info: CROSSTERM ENERGY INCLUDED IN DIHEDRAL
Info: TIMING OUTPUT STEPS    1000000
Info: PRESSURE OUTPUT STEPS  100000
Info: ALCHEMICAL FEP ON
Info: FEP CURRENT LAMBDA VALUE     0
Info: FEP COMPARISON LAMBDA VALUE  0.05
Info: FEP INTRA-ALCHEMICAL NON-BONDED INTERACTIONS WILL BE RETAINED
Info: FEP INTRA-ALCHEMICAL BONDED INTERACTIONS WILL BE RETAINED
Info: FEP VDW SHIFTING COEFFICIENT 5
Info: FEP ELEC. ACTIVE FOR ANNIHILATED PARTICLES BETWEEN LAMBDA = 0 AND LAMBDA = 0.5
Info: FEP ELEC. ACTIVE FOR EXNIHILATED PARTICLES BETWEEN LAMBDA = 0.5 AND LAMBDA = 1
Info: FEP VDW ACTIVE FOR ANNIHILATED PARTICLES BETWEEN LAMBDA = 0 AND LAMBDA = 1
Info: FEP VDW ACTIVE FOR EXNIHILATED PARTICLES BETWEEN LAMBDA = 0 AND LAMBDA = 1
Info: FEP BOND ACTIVE FOR ANNIHILATED PARTICLES BETWEEN LAMBDA = 1 AND LAMBDA = 1
Info: FEP BOND ACTIVE FOR EXNIHILATED PARTICLES BETWEEN LAMBDA = 0 AND LAMBDA = 0
Info: LANGEVIN DYNAMICS ACTIVE
Info: LANGEVIN TEMPERATURE   300
Info: LANGEVIN USING BBK INTEGRATOR
Info: LANGEVIN DAMPING COEFFICIENT IS 1 INVERSE PS
Info: LANGEVIN DYNAMICS APPLIED TO HYDROGENS
Info: LANGEVIN PISTON PRESSURE CONTROL ACTIVE
Info:        TARGET PRESSURE IS 1.01325 BAR
Info:     OSCILLATION PERIOD IS 50 FS
Info:             DECAY TIME IS 25 FS
Info:     PISTON TEMPERATURE IS 300 K
Info:       PRESSURE CONTROL IS GROUP-BASED
Info:    INITIAL STRAIN RATE IS 0.00044252 0.00044252 0.00044252
Info:       CELL FLUCTUATION IS ISOTROPIC
Info: PARTICLE MESH EWALD (PME) ACTIVE
Info: PME TOLERANCE               1e-06
Info: PME EWALD COEFFICIENT       0.348832
Info: PME INTERPOLATION ORDER     4
Info: PME GRID DIMENSIONS         32 32 36
Info: PME MAXIMUM GRID SPACING    1
Info: PME CALCULATION WILL BE PERFORMED ON GPU
Info: FULL ELECTROSTATIC EVALUATION FREQUENCY      2
Info: USING VERLET I (r-RESPA) MTS SCHEME.
Info: C1 SPLITTING OF LONG RANGE ELECTROSTATICS
Info: PLACING ATOMS IN PATCHES BY HYDROGEN GROUPS
Info: RIGID BONDS TO HYDROGEN : ALL
Info:         ERROR TOLERANCE : 1e-08
Info:          MAX ITERATIONS : 100
Info: RIGID WATER USING SETTLE ALGORITHM
Info: RANDOM NUMBER SEED     1743537927
Info: USE HYDROGEN BONDS?    NO
Info: Using AMBER format force field!
Info: AMBER PARM FILE        mobley_7599023.prmtop
Info: COORDINATE PDB         mobley_7599023.pdb
Info: Exclusions will be read from PARM file!
Info: SCNB (VDW SCALING)     2
Info: USING ARITHMETIC MEAN TO COMBINE L-J SIGMA PARAMETERS
Info: BINARY COORDINATES     mobley_7599023_equil.coor
Info: SUMMARY OF PARAMETERS:
Info: 5 BONDS
Info: 3 ANGLES
Info:   3 HARMONIC
Info:   0 COSINE-BASED
Info: 2 DIHEDRAL
Info: 0 IMPROPER
Info: 0 CROSSTERM
Info: 0 VDW
Info: 15 VDW_PAIRS
Info: 0 NBTHOLE_PAIRS
Info: To read alchdata from file: mobley_7599023.pdb
Info: To read alchflag data from column: 5
Info: STRUCTURE SUMMARY:
Info: 2925 ATOMS
Info: 2925 BONDS
Info: 18 ANGLES
Info: 30 DIHEDRALS
Info: 0 IMPROPERS
Info: 0 CROSSTERMS
Info: 2964 EXCLUSIONS
Info: 2918 RIGID BONDS
Info: ALCH: 0 ATOMS TO DISAPPEAR IN FINAL STATE
Info: ALCH: 12 ATOMS TO APPEAR IN FINAL STATE
Info: 5857 DEGREES OF FREEDOM
Info: 978 HYDROGEN GROUPS
Info: 3 ATOMS IN LARGEST HYDROGEN GROUP
Info: 978 MIGRATION GROUPS
Info: 3 ATOMS IN LARGEST MIGRATION GROUP
Info: TOTAL MASS = 17650.5 amu
Info: TOTAL CHARGE = -5.58794e-09 e
Info: MASS DENSITY = 0.9781 g/cm^3
Info: ATOM DENSITY = 0.0976095 atoms/A^3
Info: ADDED 0 IMPLICIT EXCLUSIONS
Info: NONBONDED TABLE R-SQUARED SPACING: 0.0625
Info: NONBONDED TABLE SIZE: 705 POINTS
Info: REMOVING COM VELOCITY -0.0889622 -0.104482 0.108769
Info: Use 3D box decompostion in PME FFT.
Info: Updated CUDA force table with 4096 elements.
Info: Updated CUDA LJ table with 5 x 5 elements.
Info: Found 14 unique exclusion lists needing 24 bytes
TCL: Running for 1500000 steps
ETITLE: TS BOND ANGLE DIHED IMPRP ELECT VDW BOUNDARY MISC KINETIC TOTAL TEMP POTENTIAL TOTALAVG TEMPAVG PRESSURE GPRESSURE VOLUME PRESSAVG GPRESSAVG
ENERGY: 0 1.7014 3.4082 2.2545 0.0000 -10742.8275 1492.3577 0.0000 0.0000 1770.5038 -7472.6018 304.2370 -9243.1056 -7472.6018 304.2370 494.6256 574.8342 29966.3510 494.6256 574.8342
ENERGY: 300000 1.5990 2.4878 4.0434 0.0000 -10706.4358 1468.1852 0.0000 0.0000 1731.5649 -7498.5555 297.5459 -9230.1204 -7438.1978 301.2447 88.7989 103.8586 29868.1161 93.3771 158.4613
ENERGY: 600000 1.1644 3.8244 4.0317 0.0000 -10717.3917 1519.5528 0.0000 0.0000 1766.8808 -7421.9377 303.6144 -9188.8184 -7423.8036 300.5508 542.2684 680.4560 30247.5423 273.2891 350.3222
ENERGY: 900000 3.2517 2.7919 2.7743 0.0000 -10510.2515 1347.7839 0.0000 0.0000 1756.3961 -7397.2537 301.8128 -9153.6498 -7426.1934 300.8727 -594.4487 -521.2117 29844.2292 148.1225 222.4715
ENERGY: 1200000 2.1731 2.4535 4.7029 0.0000 -10527.0413 1331.1022 0.0000 0.0000 1745.1495 -7441.4601 299.8802 -9186.6096 -7425.3130 300.8484 -810.5926 -773.9946 29727.4214 90.8954 159.2522
ENERGY: 1500000 3.4120 3.4244 4.2315 0.0000 -10672.6752 1504.0633 0.0000 0.0000 1723.9690 -7433.5751 296.2406 -9157.5441 -7426.6959 300.5011 383.4636 474.3796 30120.5004 62.9185 134.1681
TCL: Running FEP window   2: Lambda1 0.05   Lambda2 0.1    [dLambda 0.05  ]
TCL: Setting parameter firsttimestep to 0
TCL: Setting parameter alchLambda to 0.05
Info: NONBONDED TABLE R-SQUARED SPACING: 0.0625
Info: NONBONDED TABLE SIZE: 705 POINTS
TCL: Setting parameter alchLambda2 to 0.1
Info: NONBONDED TABLE R-SQUARED SPACING: 0.0625
Info: NONBONDED TABLE SIZE: 705 POINTS
TCL: Running for 1500000 steps
ETITLE: TS BOND ANGLE DIHED IMPRP ELECT VDW BOUNDARY MISC KINETIC TOTAL TEMP POTENTIAL TOTALAVG TEMPAVG PRESSURE GPRESSURE VOLUME PRESSAVG GPRESSAVG
ENERGY: 0 3.4120 3.4244 4.2315 0.0000 -10672.6746 1505.8308 0.0000 0.0000 1723.0630 -7432.7130 296.0849 -9155.7759 -7432.7130 296.0849 385.0097 483.6220 30120.5004 385.0097 483.6220
ENERGY: 300000 3.4462 3.9500 3.0130 0.0000 -10694.7547 1453.4548 0.0000 0.0000 1752.3148 -7478.5759 301.1115 -9230.8907 -7413.6064 305.3726 38.6856 75.2358 29751.3620 352.8769 414.8479
ENERGY: 600000 0.9666 1.0037 1.2530 0.0000 -10615.0751 1402.4944 0.0000 0.0000 1744.5805 -7464.7769 299.7824 -9209.3574 -7393.1924 305.9388 -425.5441 -321.4654 29914.1125 154.9563 217.5478
ENERGY: 900000 3.6182 4.2493 4.4068 0.0000 -10739.1323 1495.2016 0.0000 0.0000 1781.6564 -7450.0001 306.1534 -9231.6565 -7399.9413 304.7592 213.0864 286.8939 30142.4343 66.1273 137.0696
ENERGY: 1200000 0.8032 5.3167 3.0587 0.0000 -10466.7259 1338.8856 0.0000 0.0000 1712.1110 -7406.5506 294.2030 -9118.6616 -7391.3129 304.0355 -844.0149 -773.5294 30250.4011 -3.4530 62.2486
ENERGY: 1500000 3.0261 1.8765 1.5899 0.0000 -10711.7851 1563.2411 0.0000 0.0000 1799.2303 -7342.8212 309.1733 -9142.0515 -7397.6516 303.4948 1290.1907 1350.8490 29573.7259 83.5128 141.0245
TCL: Running FEP window   3: Lambda1 0.1    Lambda2 0.15000000000000002 [dLambda 0.05000000000000002]
TCL: Setting parameter firsttimestep to 0
TCL: Setting parameter alchLambda to 0.1
Info: NONBONDED TABLE R-SQUARED SPACING: 0.0625
Info: NONBONDED TABLE SIZE: 705 POINTS
TCL: Setting parameter alchLambda2 to 0.15000000000000002
Info: NONBONDED TABLE R-SQUARED SPACING: 0.0625
Info: NONBONDED TABLE SIZE: 705 POINTS
TCL: Running for 1500000 steps
ETITLE: TS BOND ANGLE DIHED IMPRP ELECT VDW BOUNDARY MISC KINETIC TOTAL TEMP POTENTIAL TOTALAVG TEMPAVG PRESSURE GPRESSURE VOLUME PRESSAVG GPRESSAVG
ENERGY: 0 3.0261 1.8765 1.5899 0.0000 -10711.7835 1564.8941 0.0000 0.0000 1798.3615 -7342.0354 309.0240 -9140.3969 -7342.0354 309.0240 1281.2252 1362.6082 29573.7259 1281.2252 1362.6082
ENERGY: 300000 2.5993 1.0415 2.1807 0.0000 -10685.0578 1443.3545 0.0000 0.0000 1752.9515 -7482.9302 301.2209 -9235.8817 -7408.9860 300.8136 78.6415 154.6411 29674.1151 235.2816 332.8257
ENERGY: 600000 2.3140 2.0963 4.2529 0.0000 -10679.4681 1440.1153 0.0000 0.0000 1714.2370 -7516.4525 294.5683 -9230.6895 -7429.7359 299.7574 -85.7877 44.8845 29628.3261 -187.5930 -99.1337
ENERGY: 900000 3.6886 3.7707 1.5812 0.0000 -10533.9292 1401.1405 0.0000 0.0000 1726.7014 -7397.0469 296.7102 -9123.7483 -7428.5531 300.2469 -349.7962 -315.4398 30210.9959 -243.0029 -169.5141
ENERGY: 1200000 4.9245 4.8713 2.2848 0.0000 -10778.7839 1508.7471 0.0000 0.0000 1728.9212 -7529.0349 297.0916 -9257.9561 -7429.7509 299.1226 120.3945 253.0257 29881.7060 -242.9702 -171.7577
ENERGY: 1500000 0.2061 3.7798 4.6525 0.0000 -10632.2357 1443.0309 0.0000 0.0000 1730.5412 -7450.0252 297.3700 -9180.5665 -7428.0613 299.6132 338.0139 347.3272 29443.6554 -146.4230 -82.6028
TCL: Running FEP window   4: Lambda1 0.15000000000000002 Lambda2 0.2    [dLambda 0.04999999999999999]
TCL: Setting parameter firsttimestep to 0
TCL: Setting parameter alchLambda to 0.15000000000000002
Info: NONBONDED TABLE R-SQUARED SPACING: 0.0625
Info: NONBONDED TABLE SIZE: 705 POINTS
TCL: Setting parameter alchLambda2 to 0.2
Info: NONBONDED TABLE R-SQUARED SPACING: 0.0625
Info: NONBONDED TABLE SIZE: 705 POINTS
TCL: Running for 1500000 steps
ETITLE: TS BOND ANGLE DIHED IMPRP ELECT VDW BOUNDARY MISC KINETIC TOTAL TEMP POTENTIAL TOTALAVG TEMPAVG PRESSURE GPRESSURE VOLUME PRESSAVG GPRESSAVG
ENERGY: 0 0.2061 3.7798 4.6524 0.0000 -10632.2355 1444.5058 0.0000 0.0000 1729.6708 -7449.4205 297.2204 -9179.0913 -7449.4205 297.2204 278.1031 359.5967 29443.6554 278.1031 359.5967
ENERGY: 300000 1.9874 1.6044 2.5268 0.0000 -10604.0536 1449.0641 0.0000 0.0000 1726.7946 -7422.0763 296.7262 -9148.8709 -7461.8736 295.6107 262.6671 270.0638 29887.9671 -421.7814 -354.5488
ENERGY: 600000 1.9695 3.6267 2.6716 0.0000 -10531.9047 1408.0313 0.0000 0.0000 1709.9158 -7405.6897 293.8258 -9115.6056 -7444.2094 296.4241 -108.0186 -96.6096 30025.4756 -93.1208 -24.0575
ENERGY: 900000 1.4121 2.9620 1.5074 0.0000 -10588.0186 1406.0458 0.0000 0.0000 1751.6437 -7424.4477 300.9961 -9176.0914 -7413.2654 299.1439 -262.7535 -238.1309 30007.9759 -148.4561 -82.6154
ENERGY: 1200000 1.0788 6.8716 2.2675 0.0000 -10501.5018 1373.6821 0.0000 0.0000 1754.3845 -7363.2173 301.4671 -9117.6018 -7408.1293 299.0590 -299.8254 -230.2245 30055.9717 -182.4885 -110.6192
ENERGY: 1500000 3.6012 4.1714 1.3170 0.0000 -10485.9013 1398.4989 0.0000 0.0000 1742.9037 -7335.4090 299.4943 -9078.3127 -7410.0206 298.4981 -353.8485 -304.9250 30473.8185 -191.2173 -120.4773
TCL: Running FEP window   5: Lambda1 0.2    Lambda2 0.25   [dLambda 0.04999999999999999]
TCL: Setting parameter firsttimestep to 0
TCL: Setting parameter alchLambda to 0.2
Info: NONBONDED TABLE R-SQUARED SPACING: 0.0625
Info: NONBONDED TABLE SIZE: 705 POINTS
TCL: Setting parameter alchLambda2 to 0.25
Info: NONBONDED TABLE R-SQUARED SPACING: 0.0625
Info: NONBONDED TABLE SIZE: 705 POINTS
TCL: Running for 1500000 steps
ETITLE: TS BOND ANGLE DIHED IMPRP ELECT VDW BOUNDARY MISC KINETIC TOTAL TEMP POTENTIAL TOTALAVG TEMPAVG PRESSURE GPRESSURE VOLUME PRESSAVG GPRESSAVG
ENERGY: 0 3.6012 4.1714 1.3170 0.0000 -10485.9022 1398.5668 0.0000 0.0000 1742.0021 -7336.2437 299.3394 -9078.2457 -7336.2437 299.3394 -378.0880 -303.6982 30473.8185 -378.0880 -303.6982
ENERGY: 300000 1.5084 2.2728 1.7830 0.0000 -10536.0643 1386.2137 0.0000 0.0000 1717.2495 -7427.0369 295.0860 -9144.2864 -7428.7568 297.4998 -348.2757 -271.8312 30078.8583 -254.9756 -198.4718
ENERGY: 600000 1.5551 2.5341 1.4474 0.0000 -10639.0943 1447.3038 0.0000 0.0000 1662.1485 -7524.1055 285.6176 -9186.2539 -7439.3505 295.7777 -29.0349 -9.9721 30066.7086 -347.9265 -285.1315
ENERGY: 900000 1.3416 4.7087 3.7721 0.0000 -10362.9272 1300.3805 0.0000 0.0000 1784.3013 -7268.4230 306.6079 -9052.7243 -7414.9103 298.3941 -543.1370 -487.5358 30034.9166 -362.2021 -303.5444
ENERGY: 1200000 2.0003 2.7277 1.7383 0.0000 -10649.5014 1448.5132 0.0000 0.0000 1719.1071 -7475.4147 295.4052 -9194.5218 -7415.9431 298.2222 34.0300 90.1908 30174.1164 -312.1585 -251.4032
ENERGY: 1500000 2.7982 5.0832 2.2018 0.0000 -10679.6498 1455.7365 0.0000 0.0000 1773.9256 -7439.9046 304.8250 -9213.8302 -7416.5643 299.5626 -59.1126 -57.5458 30472.9427 -280.9073 -223.9016
TCL: Running FEP window   6: Lambda1 0.25   Lambda2 0.3    [dLambda 0.04999999999999999]
TCL: Setting parameter firsttimestep to 0
TCL: Setting parameter alchLambda to 0.25
Info: NONBONDED TABLE R-SQUARED SPACING: 0.0625
Info: NONBONDED TABLE SIZE: 705 POINTS
TCL: Setting parameter alchLambda2 to 0.3
Info: NONBONDED TABLE R-SQUARED SPACING: 0.0625
Info: NONBONDED TABLE SIZE: 705 POINTS
TCL: Running for 1500000 steps
ETITLE: TS BOND ANGLE DIHED IMPRP ELECT VDW BOUNDARY MISC KINETIC TOTAL TEMP POTENTIAL TOTALAVG TEMPAVG PRESSURE GPRESSURE VOLUME PRESSAVG GPRESSAVG
ENERGY: 0 2.7982 5.0832 2.2018 0.0000 -10679.6495 1455.3635 0.0000 0.0000 1773.0514 -7441.1514 304.6748 -9214.2028 -7441.1514 304.6748 -143.4704 -57.1843 30472.9427 -143.4704 -57.1843
ENERGY: 300000 2.1482 2.6463 0.5145 0.0000 -10380.2982 1312.3506 0.0000 0.0000 1799.3384 -7263.3002 309.1918 -9062.6386 -7398.5750 303.4823 -1010.5617 -885.7928 30807.6950 -480.0039 -400.3120
ENERGY: 600000 3.3840 2.0696 3.2980 0.0000 -10578.6210 1445.9129 0.0000 0.0000 1753.3893 -7370.5672 301.2961 -9123.9565 -7384.5879 303.1472 459.2120 531.4392 29807.4694 -269.8582 -187.1473
ENERGY: 900000 2.3762 1.6417 4.1967 0.0000 -10550.1640 1445.8754 0.0000 0.0000 1787.1874 -7308.8865 307.1039 -9096.0740 -7370.9264 303.5444 537.2532 584.8368 29861.7200 -345.3632 -261.8331
ENERGY: 1200000 3.5630 4.7317 2.8496 0.0000 -10427.7885 1356.3804 0.0000 0.0000 1793.2483 -7267.0155 308.1453 -9060.2638 -7371.5662 302.9482 -581.3106 -543.7925 30742.5978 -320.3075 -254.7419
ENERGY: 1500000 3.3021 2.9719 1.2499 0.0000 -10629.3268 1468.1952 0.0000 0.0000 1733.2462 -7420.3614 297.8348 -9153.6076 -7379.5547 302.1501 198.3704 315.5292 29978.5620 -230.1228 -157.1567
TCL: Running FEP window   7: Lambda1 0.3    Lambda2 0.35   [dLambda 0.04999999999999999]
TCL: Setting parameter firsttimestep to 0
TCL: Setting parameter alchLambda to 0.3
Info: NONBONDED TABLE R-SQUARED SPACING: 0.0625
Info: NONBONDED TABLE SIZE: 705 POINTS
TCL: Setting parameter alchLambda2 to 0.35
Info: NONBONDED TABLE R-SQUARED SPACING: 0.0625
Info: NONBONDED TABLE SIZE: 705 POINTS
TCL: Running for 1500000 steps
ETITLE: TS BOND ANGLE DIHED IMPRP ELECT VDW BOUNDARY MISC KINETIC TOTAL TEMP POTENTIAL TOTALAVG TEMPAVG PRESSURE GPRESSURE VOLUME PRESSAVG GPRESSAVG
ENERGY: 0 3.3021 2.9719 1.2499 0.0000 -10629.3271 1468.0208 0.0000 0.0000 1732.3541 -7421.4282 297.6815 -9153.7823 -7421.4282 297.6815 220.0229 319.0310 29978.5620 220.0229 319.0310
ENERGY: 300000 4.5860 1.6960 2.3255 0.0000 -10641.8429 1424.6229 0.0000 0.0000 1742.6354 -7465.9771 299.4482 -9208.6125 -7443.9886 300.9407 -120.0837 -134.4211 30152.4944 -79.9024 -45.8764
ENERGY: 600000 4.8640 2.1603 4.0674 0.0000 -10634.6602 1454.7850 0.0000 0.0000 1785.1285 -7383.6550 306.7501 -9168.7836 -7416.0047 300.8291 429.7500 531.6929 29643.3195 16.1678 79.0713
ENERGY: 900000 3.9996 1.8578 1.2549 0.0000 -10693.4186 1492.2612 0.0000 0.0000 1719.6754 -7474.3698 295.5028 -9194.0452 -7426.7228 300.0506 166.4400 308.0712 29907.4276 -50.7374 17.0950
ENERGY: 1200000 1.4480 6.6949 1.7406 0.0000 -10683.7249 1552.0190 0.0000 0.0000 1727.9097 -7393.9127 296.9178 -9121.8224 -7422.8687 300.8831 993.7181 1033.5218 30117.1910 -34.4641 34.1825
ENERGY: 1500000 1.9711 1.6154 3.6185 0.0000 -10668.9536 1476.1307 0.0000 0.0000 1747.0375 -7438.5804 300.2046 -9185.6180 -7419.7116 301.3163 90.8520 146.0699 30327.0268 -50.1885 23.6984
TCL: Running FEP window   8: Lambda1 0.35   Lambda2 0.39999999999999997 [dLambda 0.04999999999999999]
TCL: Setting parameter firsttimestep to 0
TCL: Setting parameter alchLambda to 0.35
Info: NONBONDED TABLE R-SQUARED SPACING: 0.0625
Info: NONBONDED TABLE SIZE: 705 POINTS
TCL: Setting parameter alchLambda2 to 0.39999999999999997
Info: NONBONDED TABLE R-SQUARED SPACING: 0.0625
Info: NONBONDED TABLE SIZE: 705 POINTS
TCL: Running for 1500000 steps
ETITLE: TS BOND ANGLE DIHED IMPRP ELECT VDW BOUNDARY MISC KINETIC TOTAL TEMP POTENTIAL TOTALAVG TEMPAVG PRESSURE GPRESSURE VOLUME PRESSAVG GPRESSAVG
ENERGY: 0 1.9711 1.6154 3.6185 0.0000 -10668.9525 1476.1049 0.0000 0.0000 1746.1281 -7439.5145 300.0484 -9185.6426 -7439.5145 300.0484 68.3099 153.1944 30327.0268 68.3099 153.1944
ENERGY: 300000 0.7368 3.2089 4.8043 0.0000 -10591.1589 1396.6161 0.0000 0.0000 1795.4656 -7390.3272 308.5263 -9185.7928 -7406.2208 302.3127 -46.3763 -33.3238 29704.8104 -111.9167 -51.3359
ENERGY: 600000 4.9456 4.1235 1.2185 0.0000 -10478.3539 1356.1073 0.0000 0.0000 1792.9048 -7319.0542 308.0863 -9111.9590 -7388.2353 302.7312 -484.7925 -460.1160 30038.8708 -244.2325 -184.5211
ENERGY: 900000 3.9593 3.6956 2.7118 0.0000 -10714.8224 1481.8733 0.0000 0.0000 1784.4605 -7438.1219 306.6353 -9222.5825 -7395.1011 303.0492 61.7210 172.3943 29838.5756 -141.6029 -79.3957
ENERGY: 1200000 0.3338 2.5016 1.7167 0.0000 -10594.5830 1444.6409 0.0000 0.0000 1773.8599 -7371.5300 304.8137 -9145.3900 -7395.0161 302.3843 333.6132 323.1154 30136.4161 -84.4995 -26.3510
ENERGY: 1500000 2.4573 1.6805 2.0450 0.0000 -10480.6584 1385.0705 0.0000 0.0000 1730.8642 -7358.5409 297.4255 -9089.4051 -7388.0527 302.9445 -292.8390 -242.7312 30187.9195 -23.0856 37.6688
TCL: Running FEP window   9: Lambda1 0.39999999999999997 Lambda2 0.44999999999999996 [dLambda 0.04999999999999999]
TCL: Setting parameter firsttimestep to 0
TCL: Setting parameter alchLambda to 0.39999999999999997
Info: NONBONDED TABLE R-SQUARED SPACING: 0.0625
Info: NONBONDED TABLE SIZE: 705 POINTS
TCL: Setting parameter alchLambda2 to 0.44999999999999996
Info: NONBONDED TABLE R-SQUARED SPACING: 0.0625
Info: NONBONDED TABLE SIZE: 705 POINTS
TCL: Running for 1500000 steps
ETITLE: TS BOND ANGLE DIHED IMPRP ELECT VDW BOUNDARY MISC KINETIC TOTAL TEMP POTENTIAL TOTALAVG TEMPAVG PRESSURE GPRESSURE VOLUME PRESSAVG GPRESSAVG
ENERGY: 0 2.4573 1.6805 2.0450 0.0000 -10480.6581 1384.5723 0.0000 0.0000 1729.9670 -7359.9359 297.2713 -9089.9029 -7359.9359 297.2713 -308.3572 -240.7149 30187.9195 -308.3572 -240.7149
ENERGY: 300000 1.6356 4.2925 2.3531 0.0000 -10623.0606 1392.7506 0.0000 0.0000 1686.9041 -7535.1246 289.8715 -9222.0287 -7414.3289 296.2743 -534.1814 -452.9891 30038.6666 -6.5827 67.6050
ENERGY: 600000 1.2061 1.8163 2.0540 0.0000 -10639.8682 1496.5238 0.0000 0.0000 1780.0027 -7358.2653 305.8693 -9138.2680 -7415.8915 298.4357 691.4621 714.8585 29926.4179 74.3365 140.0958
ENERGY: 900000 1.1027 3.3382 1.1309 0.0000 -10680.8728 1486.4977 0.0000 0.0000 1741.3912 -7447.4121 299.2344 -9188.8033 -7419.6929 299.0215 505.2267 569.8972 29865.4067 98.2074 159.8415
ENERGY: 1200000 1.0034 1.0329 2.3672 0.0000 -10732.0696 1569.9636 0.0000 0.0000 1819.7862 -7337.9163 312.7055 -9157.7025 -7416.7593 300.0629 1511.7747 1579.8468 29581.3620 251.5345 314.6547
ENERGY: 1500000 3.5639 2.2067 1.2327 0.0000 -10761.3065 1555.8328 0.0000 0.0000 1749.6618 -7448.8086 300.6556 -9198.4704 -7422.9567 299.8401 1082.8631 1117.1212 29590.2656 261.9360 328.9179
TCL: Running FEP window  10: Lambda1 0.44999999999999996 Lambda2 0.49999999999999994 [dLambda 0.04999999999999999]
TCL: Setting parameter firsttimestep to 0
TCL: Setting parameter alchLambda to 0.44999999999999996
Info: NONBONDED TABLE R-SQUARED SPACING: 0.0625
Info: NONBONDED TABLE SIZE: 705 POINTS
TCL: Setting parameter alchLambda2 to 0.49999999999999994
Info: NONBONDED TABLE R-SQUARED SPACING: 0.0625
Info: NONBONDED TABLE SIZE: 705 POINTS
TCL: Running for 1500000 steps
ETITLE: TS BOND ANGLE DIHED IMPRP ELECT VDW BOUNDARY MISC KINETIC TOTAL TEMP POTENTIAL TOTALAVG TEMPAVG PRESSURE GPRESSURE VOLUME PRESSAVG GPRESSAVG
ENERGY: 0 3.5639 2.2067 1.2327 0.0000 -10761.3079 1555.9320 0.0000 0.0000 1748.7866 -7449.5861 300.5052 -9198.3727 -7449.5861 300.5052 1049.1569 1128.4321 29590.2656 1049.1569 1128.4321
ENERGY: 300000 0.9373 1.1923 3.5515 0.0000 -10587.6207 1407.8333 0.0000 0.0000 1712.3457 -7461.7606 294.2433 -9174.1063 -7443.6847 298.7867 -312.1431 -236.3613 30331.4286 23.5079 114.6402
ENERGY: 600000 0.2502 4.4962 3.0524 0.0000 -10619.3767 1450.6333 0.0000 0.0000 1792.5513 -7368.3932 308.0256 -9160.9445 -7420.8214 301.8203 429.5392 446.8965 29850.8997 145.2934 208.4741
ENERGY: 900000 4.0548 1.1068 4.0539 0.0000 -10612.1746 1398.3367 0.0000 0.0000 1735.9753 -7468.6471 298.3037 -9204.6224 -7424.0870 300.3045 -281.1148 -246.1989 29936.6241 35.7867 94.9650
ENERGY: 1200000 3.1219 0.8796 3.5459 0.0000 -10571.4119 1421.5551 0.0000 0.0000 1772.4614 -7369.8479 304.5734 -9142.3093 -7418.9872 301.0163 -139.9716 -79.1788 30157.1006 81.8197 139.6749
ENERGY: 1500000 3.5138 2.9610 5.4127 0.0000 -10457.5947 1309.2058 0.0000 0.0000 1784.2773 -7352.2241 306.6038 -9136.5014 -7417.2498 301.2607 -881.8926 -797.7121 30110.4735 -41.4576 22.6999
TCL: Running FEP window  11: Lambda1 0.49999999999999994 Lambda2 0.5499999999999999 [dLambda 0.04999999999999999]
TCL: Setting parameter firsttimestep to 0
TCL: Setting parameter alchLambda to 0.49999999999999994
Info: NONBONDED TABLE R-SQUARED SPACING: 0.0625
Info: NONBONDED TABLE SIZE: 705 POINTS
TCL: Setting parameter alchLambda2 to 0.5499999999999999
Info: NONBONDED TABLE R-SQUARED SPACING: 0.0625
Info: NONBONDED TABLE SIZE: 705 POINTS
TCL: Running for 1500000 steps
ETITLE: TS BOND ANGLE DIHED IMPRP ELECT VDW BOUNDARY MISC KINETIC TOTAL TEMP POTENTIAL TOTALAVG TEMPAVG PRESSURE GPRESSURE VOLUME PRESSAVG GPRESSAVG
ENERGY: 0 3.5138 2.9610 5.4127 0.0000 -10457.5967 1309.2571 0.0000 0.0000 1783.3982 -7353.0539 306.4527 -9136.4521 -7353.0539 306.4527 -871.7181 -792.5857 30110.4735 -871.7181 -792.5857
ENERGY: 300000 2.2720 1.3244 1.1367 0.0000 -10554.3902 1413.6908 0.0000 0.0000 1773.0092 -7362.9571 304.6675 -9135.9663 -7413.6968 300.9953 74.8408 90.6230 30277.2728 -509.0288 -438.1176
ENERGY: 600000 1.6453 1.9015 5.6674 0.0000 -10673.9513 1506.9985 0.0000 0.0000 1754.3984 -7403.3403 301.4695 -9157.7387 -7415.5779 299.7485 410.0757 521.4429 30331.2868 -230.6939 -158.6013
ENERGY: 900000 2.5315 3.1351 4.4376 0.0000 -10337.4349 1280.3663 0.0000 0.0000 1761.9213 -7285.0431 302.7622 -9046.9644 -7398.1271 301.0775 -1050.2050 -883.3781 30253.0938 -208.4449 -133.1663
ENERGY: 1200000 1.6740 1.5128 2.5775 0.0000 -10644.9329 1453.3294 0.0000 0.0000 1778.2630 -7407.5762 305.5703 -9185.8392 -7402.2304 301.3548 262.2330 374.9274 29772.3655 -6.6291 67.3416
ENERGY: 1500000 1.1222 2.9753 2.6553 0.0000 -10476.2081 1314.3105 0.0000 0.0000 1758.6828 -7396.4621 302.2057 -9155.1448 -7409.8672 301.1708 -746.2773 -699.2695 30045.7082 -108.0233 -33.1086
TCL: Running FEP window  12: Lambda1 0.5499999999999999 Lambda2 0.6    [dLambda 0.050000000000000044]
TCL: Setting parameter firsttimestep to 0
TCL: Setting parameter alchLambda to 0.5499999999999999
Info: NONBONDED TABLE R-SQUARED SPACING: 0.0625
Info: NONBONDED TABLE SIZE: 705 POINTS
TCL: Setting parameter alchLambda2 to 0.6
Info: NONBONDED TABLE R-SQUARED SPACING: 0.0625
Info: NONBONDED TABLE SIZE: 705 POINTS
TCL: Running for 1500000 steps
ETITLE: TS BOND ANGLE DIHED IMPRP ELECT VDW BOUNDARY MISC KINETIC TOTAL TEMP POTENTIAL TOTALAVG TEMPAVG PRESSURE GPRESSURE VOLUME PRESSAVG GPRESSAVG
ENERGY: 0 1.1222 2.9753 2.6553 0.0000 -10475.8911 1314.0504 0.0000 0.0000 1757.7656 -7397.3224 302.0481 -9155.0880 -7397.3224 302.0481 -786.0917 -694.8717 30045.7082 -786.0917 -694.8717
ENERGY: 300000 3.5449 3.6599 1.1520 0.0000 -10642.7897 1410.7099 0.0000 0.0000 1751.6100 -7472.1130 300.9904 -9223.7230 -7442.9843 298.8903 -98.0009 -61.6435 29919.4542 -34.8667 26.1864
ENERGY: 600000 1.6622 1.9870 2.0283 0.0000 -10561.7116 1358.5528 0.0000 0.0000 1698.9159 -7498.5655 291.9356 -9197.4813 -7460.4375 296.3476 -891.5505 -784.5287 30388.3166 14.9719 85.4588
ENERGY: 900000 2.3405 2.0720 1.7641 0.0000 -10589.5009 1400.2172 0.0000 0.0000 1801.3047 -7381.8024 309.5297 -9183.1070 -7449.3802 298.5237 -255.4974 -190.7177 29868.3825 -168.5219 -105.5848
ENERGY: 1200000 3.3228 3.0879 2.5454 0.0000 -10587.4198 1390.9920 0.0000 0.0000 1747.9887 -7439.4829 300.3681 -9187.4717 -7461.2390 297.6174 -670.9972 -554.5829 30465.5552 -194.9985 -126.4169
ENERGY: 1500000 3.6222 5.7510 3.8666 0.0000 -10639.9766 1524.3513 0.0000 0.0000 1695.1490 -7407.2363 291.2883 -9102.3854 -7448.3282 297.8458 641.6044 727.4862 30590.0787 -122.0023 -50.8497
TCL: Running FEP window  13: Lambda1 0.6    Lambda2 0.65   [dLambda 0.050000000000000044]
TCL: Setting parameter firsttimestep to 0
TCL: Setting parameter alchLambda to 0.6
Info: NONBONDED TABLE R-SQUARED SPACING: 0.0625
Info: NONBONDED TABLE SIZE: 705 POINTS
TCL: Setting parameter alchLambda2 to 0.65
Info: NONBONDED TABLE R-SQUARED SPACING: 0.0625
Info: NONBONDED TABLE SIZE: 705 POINTS
TCL: Running for 1500000 steps
ETITLE: TS BOND ANGLE DIHED IMPRP ELECT VDW BOUNDARY MISC KINETIC TOTAL TEMP POTENTIAL TOTALAVG TEMPAVG PRESSURE GPRESSURE VOLUME PRESSAVG GPRESSAVG
ENERGY: 0 3.6222 5.7510 3.8666 0.0000 -10640.1256 1524.0311 0.0000 0.0000 1694.2878 -7408.5668 291.1403 -9102.8546 -7408.5668 291.1403 646.5915 730.2419 30590.0787 646.5915 730.2419
ENERGY: 300000 2.9738 0.9842 3.6094 0.0000 -10642.2726 1474.3964 0.0000 0.0000 1742.5711 -7417.7377 299.4371 -9160.3087 -7420.7257 296.8541 794.8725 825.4394 29808.6865 166.6421 266.0802
ENERGY: 600000 1.8325 2.4064 4.9131 0.0000 -10442.1648 1337.3346 0.0000 0.0000 1710.0903 -7385.5879 293.8558 -9095.6782 -7410.1209 297.2086 -782.0512 -700.7497 30511.0619 40.3211 132.2938
ENERGY: 900000 2.0599 3.9465 2.2857 0.0000 -10643.2405 1489.8276 0.0000 0.0000 1794.8570 -7350.2638 308.4218 -9145.1208 -7412.2324 297.7015 501.9098 647.1925 30345.8374 40.5142 135.3132
ENERGY: 1200000 2.3057 1.5505 2.5697 0.0000 -10566.6661 1440.1162 0.0000 0.0000 1759.0988 -7361.0251 302.2772 -9120.1238 -7412.1481 298.5338 276.4143 327.4212 29900.6563 17.1785 109.1387
ENERGY: 1500000 0.9072 1.3773 2.6787 0.0000 -10516.5686 1401.6684 0.0000 0.0000 1789.8768 -7320.0601 307.5660 -9109.9370 -7401.7736 299.8852 -154.6642 -88.9797 30362.1711 0.4114 80.6723
TCL: Running FEP window  14: Lambda1 0.65   Lambda2 0.7000000000000001 [dLambda 0.050000000000000044]
TCL: Setting parameter firsttimestep to 0
TCL: Setting parameter alchLambda to 0.65
Info: NONBONDED TABLE R-SQUARED SPACING: 0.0625
Info: NONBONDED TABLE SIZE: 705 POINTS
TCL: Setting parameter alchLambda2 to 0.7000000000000001
Info: NONBONDED TABLE R-SQUARED SPACING: 0.0625
Info: NONBONDED TABLE SIZE: 705 POINTS
TCL: Running for 1500000 steps
ETITLE: TS BOND ANGLE DIHED IMPRP ELECT VDW BOUNDARY MISC KINETIC TOTAL TEMP POTENTIAL TOTALAVG TEMPAVG PRESSURE GPRESSURE VOLUME PRESSAVG GPRESSAVG
ENERGY: 0 0.9072 1.3773 2.6787 0.0000 -10516.4941 1401.4688 0.0000 0.0000 1789.0241 -7321.0380 307.4195 -9110.0621 -7321.0380 307.4195 -159.9764 -83.8875 30362.1711 -159.9764 -83.8875
ENERGY: 300000 1.2515 2.5846 1.6613 0.0000 -10569.8356 1392.0472 0.0000 0.0000 1739.4599 -7432.8312 298.9025 -9172.2911 -7431.2321 299.4777 -58.8297 -16.3643 30060.8104 -31.4799 8.0003
ENERGY: 600000 3.1467 2.6176 5.4508 0.0000 -10605.4397 1507.8688 0.0000 0.0000 1726.2377 -7360.1179 296.6305 -9086.3556 -7424.2836 299.5508 502.8584 570.0834 30354.6722 108.3724 151.8889
ENERGY: 900000 7.4396 2.5302 3.4642 0.0000 -10654.4574 1428.6041 0.0000 0.0000 1768.6815 -7443.7379 303.9239 -9212.4194 -7398.7999 301.5002 265.7670 251.3212 29970.1817 207.2855 247.1850
ENERGY: 1200000 4.0572 5.1254 1.4166 0.0000 -10528.3552 1406.6764 0.0000 0.0000 1723.2108 -7387.8688 296.1103 -9111.0795 -7397.5724 301.5310 174.7138 233.2478 29781.2893 178.5876 228.8941
ENERGY: 1500000 1.4558 1.7363 0.4091 0.0000 -10573.1679 1479.8961 0.0000 0.0000 1745.2527 -7344.4179 299.8979 -9089.6706 -7397.8759 300.8564 361.4899 407.2840 30660.4064 118.4935 171.0597
TCL: Running FEP window  15: Lambda1 0.7000000000000001 Lambda2 0.7500000000000001 [dLambda 0.050000000000000044]
TCL: Setting parameter firsttimestep to 0
TCL: Setting parameter alchLambda to 0.7000000000000001
Info: NONBONDED TABLE R-SQUARED SPACING: 0.0625
Info: NONBONDED TABLE SIZE: 705 POINTS
TCL: Setting parameter alchLambda2 to 0.7500000000000001
Info: NONBONDED TABLE R-SQUARED SPACING: 0.0625
Info: NONBONDED TABLE SIZE: 705 POINTS
TCL: Running for 1500000 steps
ETITLE: TS BOND ANGLE DIHED IMPRP ELECT VDW BOUNDARY MISC KINETIC TOTAL TEMP POTENTIAL TOTALAVG TEMPAVG PRESSURE GPRESSURE VOLUME PRESSAVG GPRESSAVG
ENERGY: 0 1.4558 1.7363 0.4091 0.0000 -10573.6012 1479.5801 0.0000 0.0000 1744.3980 -7346.0219 299.7511 -9090.4199 -7346.0219 299.7511 317.2448 406.9541 30660.4064 317.2448 406.9541
ENERGY: 300000 2.9506 2.4067 4.1847 0.0000 -10625.1065 1461.8426 0.0000 0.0000 1717.9914 -7435.7304 295.2135 -9153.7219 -7398.1683 300.4530 505.8597 621.3320 29627.1987 184.4267 262.4080
ENERGY: 600000 0.8610 2.4371 3.6227 0.0000 -10564.0962 1465.2126 0.0000 0.0000 1718.8692 -7373.0936 295.3643 -9091.9628 -7390.0656 300.0884 543.5858 651.8333 30115.7957 90.8561 159.6179
ENERGY: 900000 3.5960 2.0728 4.3882 0.0000 -10604.4770 1417.1931 0.0000 0.0000 1684.3392 -7492.8878 289.4308 -9177.2269 -7404.3492 298.6609 -323.3658 -298.2033 30312.2568 8.5808 69.0324
ENERGY: 1200000 3.1442 3.5461 1.3897 0.0000 -10414.4779 1296.9028 0.0000 0.0000 1797.8349 -7311.6602 308.9335 -9109.4951 -7408.5608 298.6450 -934.9680 -888.8113 30642.6672 -160.0478 -105.2410
ENERGY: 1500000 2.4667 2.1486 2.3592 0.0000 -10505.7056 1395.8109 0.0000 0.0000 1783.2731 -7319.6471 306.4312 -9102.9202 -7403.1930 299.0851 -112.8468 3.2828 29997.5558 -142.0929 -77.9191
TCL: Running FEP window  16: Lambda1 0.7500000000000001 Lambda2 0.8000000000000002 [dLambda 0.050000000000000044]
TCL: Setting parameter firsttimestep to 0
TCL: Setting parameter alchLambda to 0.7500000000000001
Info: NONBONDED TABLE R-SQUARED SPACING: 0.0625
Info: NONBONDED TABLE SIZE: 705 POINTS
TCL: Setting parameter alchLambda2 to 0.8000000000000002
Info: NONBONDED TABLE R-SQUARED SPACING: 0.0625
Info: NONBONDED TABLE SIZE: 705 POINTS
TCL: Running for 1500000 steps
ETITLE: TS BOND ANGLE DIHED IMPRP ELECT VDW BOUNDARY MISC KINETIC TOTAL TEMP POTENTIAL TOTALAVG TEMPAVG PRESSURE GPRESSURE VOLUME PRESSAVG GPRESSAVG
ENERGY: 0 2.4667 2.1486 2.3592 0.0000 -10505.9200 1395.7623 0.0000 0.0000 1782.3558 -7320.8273 306.2736 -9103.1831 -7320.8273 306.2736 -78.9732 13.2321 29997.5558 -78.9732 13.2321
ENERGY: 300000 1.5925 2.6082 1.2215 0.0000 -10564.4040 1421.9789 0.0000 0.0000 1810.8094 -7326.1936 311.1630 -9137.0030 -7373.2397 301.3138 -7.0709 79.5507 30381.7521 -19.1414 34.6989
ENERGY: 600000 4.3691 2.9105 3.9943 0.0000 -10552.1450 1352.4942 0.0000 0.0000 1764.1624 -7424.2145 303.1473 -9188.3769 -7393.7125 299.9307 -898.0142 -881.6975 30682.1542 -162.8484 -102.0682
ENERGY: 900000 0.6875 2.6634 3.0440 0.0000 -10609.0837 1432.2967 0.0000 0.0000 1753.2744 -7417.1178 301.2764 -9170.3922 -7412.7063 299.8835 117.4722 158.0929 30149.5843 -136.3058 -83.6204
ENERGY: 1200000 6.9224 4.7657 2.9348 0.0000 -10585.1913 1470.3694 0.0000 0.0000 1794.3695 -7305.8294 308.3380 -9100.1989 -7404.7887 300.7051 789.5856 793.7015 30204.1230 -75.5743 -26.4608
ENERGY: 1500000 2.3867 2.4302 4.1614 0.0000 -10682.1914 1517.2513 0.0000 0.0000 1786.4551 -7369.5067 306.9780 -9155.9618 -7413.1749 300.5365 737.1268 801.5558 29900.5113 63.1156 118.3957
TCL: Running FEP window  17: Lambda1 0.8000000000000002 Lambda2 0.8500000000000002 [dLambda 0.050000000000000044]
TCL: Setting parameter firsttimestep to 0
TCL: Setting parameter alchLambda to 0.8000000000000002
Info: NONBONDED TABLE R-SQUARED SPACING: 0.0625
Info: NONBONDED TABLE SIZE: 705 POINTS
TCL: Setting parameter alchLambda2 to 0.8500000000000002
Info: NONBONDED TABLE R-SQUARED SPACING: 0.0625
Info: NONBONDED TABLE SIZE: 705 POINTS
TCL: Running for 1500000 steps
ETITLE: TS BOND ANGLE DIHED IMPRP ELECT VDW BOUNDARY MISC KINETIC TOTAL TEMP POTENTIAL TOTALAVG TEMPAVG PRESSURE GPRESSURE VOLUME PRESSAVG GPRESSAVG
ENERGY: 0 2.3867 2.4302 4.1614 0.0000 -10682.2722 1516.9148 0.0000 0.0000 1785.5607 -7370.8184 306.8243 -9156.3791 -7370.8184 306.8243 726.8895 805.7729 29900.5113 726.8895 805.7729
ENERGY: 300000 5.2325 3.1033 0.4905 0.0000 -10580.6951 1383.6576 0.0000 0.0000 1719.3470 -7468.8642 295.4464 -9188.2112 -7440.1587 298.8564 -548.7933 -443.7550 30100.3203 114.8381 185.2502
ENERGY: 600000 1.6068 3.9919 1.7677 0.0000 -10637.5635 1461.3560 0.0000 0.0000 1705.8464 -7462.9947 293.1265 -9168.8410 -7415.6648 299.1550 382.2445 508.4976 29690.2388 64.5425 145.3585
ENERGY: 900000 4.3894 1.2113 1.5995 0.0000 -10732.1170 1516.6455 0.0000 0.0000 1733.3791 -7474.8922 297.8576 -9208.2713 -7418.4900 299.4854 897.1767 922.4542 29695.5313 64.3501 133.9618
ENERGY: 1200000 2.2047 3.1259 2.3569 0.0000 -10667.3234 1449.8776 0.0000 0.0000 1816.1766 -7393.5817 312.0852 -9209.7583 -7418.2339 300.1084 220.4160 300.9463 29723.6784 70.4235 133.7696
ENERGY: 1500000 1.8404 2.6287 0.9925 0.0000 -10610.6797 1428.8137 0.0000 0.0000 1717.3796 -7459.0249 295.1083 -9176.4045 -7417.9576 299.5781 -472.7196 -347.5211 30486.3555 17.6154 90.3053
TCL: Running FEP window  18: Lambda1 0.8500000000000002 Lambda2 0.9000000000000002 [dLambda 0.050000000000000044]
TCL: Setting parameter firsttimestep to 0
TCL: Setting parameter alchLambda to 0.8500000000000002
Info: NONBONDED TABLE R-SQUARED SPACING: 0.0625
Info: NONBONDED TABLE SIZE: 705 POINTS
TCL: Setting parameter alchLambda2 to 0.9000000000000002
Info: NONBONDED TABLE R-SQUARED SPACING: 0.0625
Info: NONBONDED TABLE SIZE: 705 POINTS
TCL: Running for 1500000 steps
ETITLE: TS BOND ANGLE DIHED IMPRP ELECT VDW BOUNDARY MISC KINETIC TOTAL TEMP POTENTIAL TOTALAVG TEMPAVG PRESSURE GPRESSURE VOLUME PRESSAVG GPRESSAVG
ENERGY: 0 1.8404 2.6287 0.9925 0.0000 -10610.6645 1428.9744 0.0000 0.0000 1716.5387 -7459.6898 294.9638 -9176.2285 -7459.6898 294.9638 -423.7843 -333.4998 30486.3555 -423.7843 -333.4998
ENERGY: 300000 2.3625 2.3429 2.1545 0.0000 -10513.2079 1349.4540 0.0000 0.0000 1700.6756 -7456.2184 292.2380 -9156.8940 -7470.4852 292.0274 -703.6370 -622.1746 30645.3972 -430.9806 -349.2551
ENERGY: 600000 3.1112 1.5106 1.4630 0.0000 -10595.2242 1320.3512 0.0000 0.0000 1777.5978 -7491.1903 305.4560 -9268.7881 -7460.8384 298.7876 -1045.6598 -947.5063 30030.9572 -533.0225 -456.2402
ENERGY: 900000 2.0007 3.5924 2.5169 0.0000 -10668.6609 1465.3811 0.0000 0.0000 1760.4624 -7434.7073 302.5115 -9195.1698 -7455.7198 298.9237 -31.6012 89.4307 30493.3450 -371.3230 -292.1980
ENERGY: 1200000 1.3153 2.1989 2.6540 0.0000 -10567.5963 1361.9510 0.0000 0.0000 1747.5139 -7451.9633 300.2865 -9199.4772 -7458.5838 299.3687 -324.2955 -308.7192 29966.1319 -353.7153 -287.0420
ENERGY: 1500000 2.3895 2.2629 1.7912 0.0000 -10540.2849 1414.2577 0.0000 0.0000 1710.0888 -7409.4947 293.8555 -9119.5835 -7461.2077 298.5562 147.1200 189.0065 29884.6114 -258.1975 -193.2756
TCL: Running FEP window  19: Lambda1 0.9000000000000002 Lambda2 0.9500000000000003 [dLambda 0.050000000000000044]
TCL: Setting parameter firsttimestep to 0
TCL: Setting parameter alchLambda to 0.9000000000000002
Info: NONBONDED TABLE R-SQUARED SPACING: 0.0625
Info: NONBONDED TABLE SIZE: 705 POINTS
TCL: Setting parameter alchLambda2 to 0.9500000000000003
Info: NONBONDED TABLE R-SQUARED SPACING: 0.0625
Info: NONBONDED TABLE SIZE: 705 POINTS
TCL: Running for 1500000 steps
ETITLE: TS BOND ANGLE DIHED IMPRP ELECT VDW BOUNDARY MISC KINETIC TOTAL TEMP POTENTIAL TOTALAVG TEMPAVG PRESSURE GPRESSURE VOLUME PRESSAVG GPRESSAVG
ENERGY: 0 2.3895 2.2629 1.7912 0.0000 -10540.5192 1413.7033 0.0000 0.0000 1709.2066 -7411.1657 293.7039 -9120.3723 -7411.1657 293.7039 111.7657 192.3559 29884.6114 111.7657 192.3559
ENERGY: 300000 1.9259 2.2924 3.6259 0.0000 -10519.6686 1390.3505 0.0000 0.0000 1781.7945 -7339.6794 306.1771 -9121.4739 -7408.9116 299.4846 -102.7819 -11.6740 30157.8973 18.5508 107.7851
ENERGY: 600000 3.9788 3.7281 1.8046 0.0000 -10702.6890 1417.8279 0.0000 0.0000 1822.4442 -7452.9055 313.1622 -9275.3497 -7406.0700 303.1632 -582.8851 -494.9912 30342.5120 -257.5194 -169.5984
ENERGY: 900000 6.4324 3.4743 1.6703 0.0000 -10693.3917 1433.4275 0.0000 0.0000 1756.6839 -7491.7032 301.8622 -9248.3871 -7408.2247 302.2375 -109.2544 -55.9245 30253.9577 -138.3963 -50.4921
ENERGY: 1200000 3.1235 0.9793 4.1852 0.0000 -10647.3215 1488.7697 0.0000 0.0000 1761.6587 -7388.6051 302.7171 -9150.2638 -7400.8286 302.6204 709.8308 804.8713 30005.3357 -48.0127 32.7238
ENERGY: 1500000 1.0361 2.1298 0.7855 0.0000 -10567.1397 1413.2172 0.0000 0.0000 1744.1181 -7405.8530 299.7030 -9149.9712 -7408.6464 300.8190 38.2716 154.3921 30204.1555 15.8045 93.2546
TCL: Running FEP window  20: Lambda1 0.9500000000000003 Lambda2 1.0    [dLambda 0.04999999999999971]
TCL: Setting parameter firsttimestep to 0
TCL: Setting parameter alchLambda to 0.9500000000000003
Info: NONBONDED TABLE R-SQUARED SPACING: 0.0625
Info: NONBONDED TABLE SIZE: 705 POINTS
TCL: Setting parameter alchLambda2 to 1.0
Info: NONBONDED TABLE R-SQUARED SPACING: 0.0625
Info: NONBONDED TABLE SIZE: 705 POINTS
TCL: Running for 1500000 steps
ETITLE: TS BOND ANGLE DIHED IMPRP ELECT VDW BOUNDARY MISC KINETIC TOTAL TEMP POTENTIAL TOTALAVG TEMPAVG PRESSURE GPRESSURE VOLUME PRESSAVG GPRESSAVG
ENERGY: 0 1.0360 2.1298 0.7855 0.0000 -10568.0699 1414.2924 0.0000 0.0000 1743.2254 -7406.6007 299.5496 -9149.8261 -7406.6007 299.5496 91.0573 179.2026 30204.1555 91.0573 179.2026
ENERGY: 300000 1.1268 0.7352 4.8411 0.0000 -10594.8470 1408.9865 0.0000 0.0000 1752.0479 -7427.1095 301.0656 -9179.1574 -7425.0592 302.5013 82.5763 130.2796 29709.7023 68.1739 129.4900
ENERGY: 600000 2.8171 3.7710 1.9723 0.0000 -10781.2466 1514.6634 0.0000 0.0000 1742.9494 -7515.0734 299.5022 -9258.0229 -7443.9825 300.3701 715.5764 783.3896 29622.7548 210.3364 269.1577
ENERGY: 900000 0.3515 2.7300 2.3012 0.0000 -10608.7191 1391.9380 0.0000 0.0000 1784.2742 -7427.1243 306.6033 -9211.3985 -7445.7995 300.1156 -99.5254 -56.3178 29656.3767 69.5814 128.0194
ENERGY: 1200000 1.0157 3.6397 6.8514 0.0000 -10610.7336 1404.5046 0.0000 0.0000 1702.3323 -7492.3900 292.5226 -9194.7222 -7450.3289 299.7246 -184.2538 -169.3715 30340.8119 53.8694 117.0014
ENERGY: 1500000 1.7308 3.2607 3.0745 0.0000 -10479.2867 1376.7263 0.0000 0.0000 1771.6408 -7322.8537 304.4324 -9094.4944 -7439.9404 300.0133 -392.8983 -403.5903 30730.6856 26.8439 85.5965
TCL: Exiting due to exit command.
