Info: SIMULATION PARAMETERS:
Info: TIMESTEP               2
Info: NUMBER OF STEPS        0
Info: STEPS PER CYCLE        10
Info: PERIODIC CELL BASIS 1  32.1875 0 0
Info: PERIODIC CELL BASIS 2  0 30.2526 0
Info: PERIODIC CELL BASIS 3  0 0 32.1147
Info: PERIODIC CELL CENTER   0 0 0
Info: WRAPPING WATERS AROUND PERIODIC BOUNDARIES ON OUTPUT.
Info: WRAPPING ALL CLUSTERS AROUND PERIODIC BOUNDARIES ON OUTPUT.
Info: FIRST LDB TIMESTEP     50
Info: LAST LDB TIMESTEP     -1
Info: HOM BACKGROUND SCALING 1
Info: PME BACKGROUND SCALING 1
Info: MIN ATOMS PER PATCH    40
Info: EMPTY PATCH LOAD       40 ATOMS
Info: VELOCITY FILE          mobley_7814642_equil.vel
Info: CENTER OF MASS MOVING INITIALLY? NO
Info: DIELECTRIC             1
Info: EXCLUDE                SCALED ONE-FOUR
Info: 1-4 ELECTROSTATICS SCALED BY 0.833333
Info: MODIFIED 1-4 VDW PARAMETERS WILL BE USED
Info: DCD FILENAME           mobley_7814642_prod.dcd
Info: DCD FREQUENCY          100000
Info: DCD FIRST STEP         100000
Info: DCD FILE WILL CONTAIN UNIT CELL DATA
Info: XST FILENAME           mobley_7814642_prod.xst
Info: XST FREQUENCY          100000
Info: NO VELOCITY DCD OUTPUT
Info: NO FORCE DCD OUTPUT
Info: OUTPUT FILENAME        mobley_7814642_prod
Info: BINARY OUTPUT FILES WILL BE USED
Info: RESTART FILENAME       mobley_7814642_prod.restart
Info: RESTART FREQUENCY      100000
Info: BINARY RESTART FILES WILL BE USED
Info: CUTOFF                 9
Info: PAIRLIST DISTANCE      11
Info: PAIRLIST SHRINK RATE   0.01
Info: PAIRLIST GROW RATE     0.01
Info: PAIRLIST TRIGGER       0.3
Info: PAIRLISTS PER CYCLE    2
Info: PAIRLISTS ENABLED
Info: MARGIN                 2
Info: HYDROGEN GROUP CUTOFF  2.5
Info: PATCH DIMENSION        15.5
Info: ENERGY OUTPUT STEPS    100000
Info: ENERGY EVALUATION STEPS    100000
Info: OUTPUT ENERGY PRECISION 4
Info: CROSSTERM ENERGY INCLUDED IN DIHEDRAL
Info: TIMING OUTPUT STEPS    1000000
Info: PRESSURE OUTPUT STEPS  100000
Info: ALCHEMICAL FEP ON
Info: FEP CURRENT LAMBDA VALUE     0
Info: FEP COMPARISON LAMBDA VALUE  0.05
Info: FEP INTRA-ALCHEMICAL NON-BONDED INTERACTIONS WILL BE RETAINED
Info: FEP INTRA-ALCHEMICAL BONDED INTERACTIONS WILL BE RETAINED
Info: FEP VDW SHIFTING COEFFICIENT 5
Info: FEP ELEC. ACTIVE FOR ANNIHILATED PARTICLES BETWEEN LAMBDA = 0 AND LAMBDA = 0.5
Info: FEP ELEC. ACTIVE FOR EXNIHILATED PARTICLES BETWEEN LAMBDA = 0.5 AND LAMBDA = 1
Info: FEP VDW ACTIVE FOR ANNIHILATED PARTICLES BETWEEN LAMBDA = 0 AND LAMBDA = 1
Info: FEP VDW ACTIVE FOR EXNIHILATED PARTICLES BETWEEN LAMBDA = 0 AND LAMBDA = 1
Info: FEP BOND ACTIVE FOR ANNIHILATED PARTICLES BETWEEN LAMBDA = 1 AND LAMBDA = 1
Info: FEP BOND ACTIVE FOR EXNIHILATED PARTICLES BETWEEN LAMBDA = 0 AND LAMBDA = 0
Info: LANGEVIN DYNAMICS ACTIVE
Info: LANGEVIN TEMPERATURE   300
Info: LANGEVIN USING BBK INTEGRATOR
Info: LANGEVIN DAMPING COEFFICIENT IS 1 INVERSE PS
Info: LANGEVIN DYNAMICS APPLIED TO HYDROGENS
Info: LANGEVIN PISTON PRESSURE CONTROL ACTIVE
Info:        TARGET PRESSURE IS 1.01325 BAR
Info:     OSCILLATION PERIOD IS 50 FS
Info:             DECAY TIME IS 25 FS
Info:     PISTON TEMPERATURE IS 300 K
Info:       PRESSURE CONTROL IS GROUP-BASED
Info:    INITIAL STRAIN RATE IS 0.000242681 0.000242681 0.000242681
Info:       CELL FLUCTUATION IS ISOTROPIC
Info: PARTICLE MESH EWALD (PME) ACTIVE
Info: PME TOLERANCE               1e-06
Info: PME EWALD COEFFICIENT       0.348832
Info: PME INTERPOLATION ORDER     4
Info: PME GRID DIMENSIONS         36 32 36
Info: PME MAXIMUM GRID SPACING    1
Info: PME CALCULATION WILL BE PERFORMED ON GPU
Info: FULL ELECTROSTATIC EVALUATION FREQUENCY      2
Info: USING VERLET I (r-RESPA) MTS SCHEME.
Info: C1 SPLITTING OF LONG RANGE ELECTROSTATICS
Info: PLACING ATOMS IN PATCHES BY HYDROGEN GROUPS
Info: RIGID BONDS TO HYDROGEN : ALL
Info:         ERROR TOLERANCE : 1e-08
Info:          MAX ITERATIONS : 100
Info: RIGID WATER USING SETTLE ALGORITHM
Info: RANDOM NUMBER SEED     1743539303
Info: USE HYDROGEN BONDS?    NO
Info: Using AMBER format force field!
Info: AMBER PARM FILE        mobley_7814642.prmtop
Info: COORDINATE PDB         mobley_7814642.pdb
Info: Exclusions will be read from PARM file!
Info: SCNB (VDW SCALING)     2
Info: USING ARITHMETIC MEAN TO COMBINE L-J SIGMA PARAMETERS
Info: BINARY COORDINATES     mobley_7814642_equil.coor
Info: SUMMARY OF PARAMETERS:
Info: 5 BONDS
Info: 3 ANGLES
Info:   3 HARMONIC
Info:   0 COSINE-BASED
Info: 2 DIHEDRAL
Info: 0 IMPROPER
Info: 0 CROSSTERM
Info: 0 VDW
Info: 15 VDW_PAIRS
Info: 0 NBTHOLE_PAIRS
Info: To read alchdata from file: mobley_7814642.pdb
Info: To read alchflag data from column: 5
Info: STRUCTURE SUMMARY:
Info: 2979 ATOMS
Info: 2979 BONDS
Info: 18 ANGLES
Info: 30 DIHEDRALS
Info: 0 IMPROPERS
Info: 0 CROSSTERMS
Info: 3018 EXCLUSIONS
Info: 2970 RIGID BONDS
Info: ALCH: 0 ATOMS TO DISAPPEAR IN FINAL STATE
Info: ALCH: 12 ATOMS TO APPEAR IN FINAL STATE
Info: 5967 DEGREES OF FREEDOM
Info: 998 HYDROGEN GROUPS
Info: 3 ATOMS IN LARGEST HYDROGEN GROUP
Info: 998 MIGRATION GROUPS
Info: 3 ATOMS IN LARGEST MIGRATION GROUP
Info: TOTAL MASS = 17999.3 amu
Info: TOTAL CHARGE = -3.72529e-09 e
Info: MASS DENSITY = 0.955785 g/cm^3
Info: ATOM DENSITY = 0.0952613 atoms/A^3
Info: ADDED 0 IMPLICIT EXCLUSIONS
Info: NONBONDED TABLE R-SQUARED SPACING: 0.0625
Info: NONBONDED TABLE SIZE: 705 POINTS
Info: REMOVING COM VELOCITY 0.0782704 -0.0575669 -0.0759095
Info: Use 3D box decompostion in PME FFT.
Info: Updated CUDA force table with 4096 elements.
Info: Updated CUDA LJ table with 5 x 5 elements.
Info: Found 15 unique exclusion lists needing 28 bytes
TCL: Running for 1500000 steps
ETITLE: TS BOND ANGLE DIHED IMPRP ELECT VDW BOUNDARY MISC KINETIC TOTAL TEMP POTENTIAL TOTALAVG TEMPAVG PRESSURE GPRESSURE VOLUME PRESSAVG GPRESSAVG
ENERGY: 0 1.1850 2.0168 3.0495 0.0000 -10804.6000 1499.4702 0.0000 0.0000 1779.1579 -7519.7206 300.0881 -9298.8785 -7519.7206 300.0881 361.7027 445.4153 31271.8666 361.7027 445.4153
ENERGY: 300000 3.3264 4.3985 2.8556 0.0000 -10759.8022 1441.9051 0.0000 0.0000 1862.2458 -7445.0708 314.1025 -9307.3166 -7526.2548 303.9622 278.8403 291.1706 30328.8681 36.9631 107.1357
ENERGY: 600000 5.7799 3.5737 3.0480 0.0000 -10774.8559 1399.6978 0.0000 0.0000 1821.0973 -7541.6592 307.1620 -9362.7565 -7547.7589 302.4949 -525.2731 -470.1830 30276.8889 99.3419 165.8617
ENERGY: 900000 2.3895 1.7895 2.2799 0.0000 -10752.8182 1455.5416 0.0000 0.0000 1803.7645 -7487.0532 304.2385 -9290.8177 -7535.4114 302.5623 146.9590 249.3252 30646.3953 17.7600 80.7655
ENERGY: 1200000 2.3743 4.4667 1.2292 0.0000 -10679.6360 1364.7478 0.0000 0.0000 1751.7870 -7555.0310 295.4715 -9306.8180 -7540.1398 301.1799 -832.8480 -824.6899 31018.0761 -130.5980 -67.7287
ENERGY: 1500000 3.3917 1.5083 4.4602 0.0000 -10860.2976 1517.6143 0.0000 0.0000 1770.6436 -7562.6795 298.6521 -9333.3231 -7544.0571 300.7997 267.0266 335.0862 30817.8537 -115.7111 -46.1235
TCL: Running FEP window   2: Lambda1 0.05   Lambda2 0.1    [dLambda 0.05  ]
TCL: Setting parameter firsttimestep to 0
TCL: Setting parameter alchLambda to 0.05
Info: NONBONDED TABLE R-SQUARED SPACING: 0.0625
Info: NONBONDED TABLE SIZE: 705 POINTS
TCL: Setting parameter alchLambda2 to 0.1
Info: NONBONDED TABLE R-SQUARED SPACING: 0.0625
Info: NONBONDED TABLE SIZE: 705 POINTS
TCL: Running for 1500000 steps
ETITLE: TS BOND ANGLE DIHED IMPRP ELECT VDW BOUNDARY MISC KINETIC TOTAL TEMP POTENTIAL TOTALAVG TEMPAVG PRESSURE GPRESSURE VOLUME PRESSAVG GPRESSAVG
ENERGY: 0 3.3917 1.5083 4.4602 0.0000 -10860.2970 1520.7885 0.0000 0.0000 1769.7556 -7560.3926 298.5023 -9330.1483 -7560.3926 298.5023 265.2619 344.9528 30817.8537 265.2619 344.9528
ENERGY: 300000 2.5697 1.0036 1.3169 0.0000 -10822.2506 1480.7596 0.0000 0.0000 1738.8460 -7597.7548 293.2888 -9336.6008 -7561.3284 300.3141 13.4954 82.1882 31032.0876 -20.4928 22.7316
ENERGY: 600000 5.1418 2.2583 2.1490 0.0000 -10850.8890 1542.0684 0.0000 0.0000 1787.3080 -7511.9636 301.4628 -9299.2716 -7538.4860 301.3811 583.5816 640.6632 30905.9066 138.6115 199.5493
ENERGY: 900000 1.3448 3.7904 2.8363 0.0000 -10833.0145 1486.9544 0.0000 0.0000 1775.4540 -7562.6346 299.4634 -9338.0886 -7537.5708 301.6400 15.3550 35.4254 30918.6998 25.4015 86.4834
ENERGY: 1200000 1.1558 2.6723 1.3575 0.0000 -10831.7952 1484.3143 0.0000 0.0000 1748.8559 -7593.4395 294.9772 -9342.2954 -7552.4329 300.7427 356.9434 377.4203 30304.8050 63.3168 116.9900
ENERGY: 1500000 3.8060 1.6419 1.9114 0.0000 -10545.7378 1317.7318 0.0000 0.0000 1820.7767 -7399.8699 307.1079 -9220.6466 -7543.3315 301.2217 -966.6890 -932.4372 31062.1044 20.5412 68.3562
TCL: Running FEP window   3: Lambda1 0.1    Lambda2 0.15000000000000002 [dLambda 0.05000000000000002]
TCL: Setting parameter firsttimestep to 0
TCL: Setting parameter alchLambda to 0.1
Info: NONBONDED TABLE R-SQUARED SPACING: 0.0625
Info: NONBONDED TABLE SIZE: 705 POINTS
TCL: Setting parameter alchLambda2 to 0.15000000000000002
Info: NONBONDED TABLE R-SQUARED SPACING: 0.0625
Info: NONBONDED TABLE SIZE: 705 POINTS
TCL: Running for 1500000 steps
ETITLE: TS BOND ANGLE DIHED IMPRP ELECT VDW BOUNDARY MISC KINETIC TOTAL TEMP POTENTIAL TOTALAVG TEMPAVG PRESSURE GPRESSURE VOLUME PRESSAVG GPRESSAVG
ENERGY: 0 3.8060 1.6419 1.9114 0.0000 -10545.7358 1318.2672 0.0000 0.0000 1819.8606 -7400.2486 306.9534 -9220.1092 -7400.2486 306.9534 -1019.5442 -927.6527 31062.1044 -1019.5442 -927.6527
ENERGY: 300000 1.6123 1.4873 1.6928 0.0000 -10837.2241 1522.9630 0.0000 0.0000 1742.1909 -7567.2777 293.8530 -9309.4686 -7497.8434 301.2197 654.1645 675.2206 30481.1549 -207.4812 -157.5351
ENERGY: 600000 2.3461 4.8770 2.8187 0.0000 -10829.9088 1455.2831 0.0000 0.0000 1767.9523 -7596.6315 298.1981 -9364.5838 -7526.2403 301.4749 -280.5608 -179.3264 31049.4726 -130.0969 -75.7532
ENERGY: 900000 1.4099 6.4401 4.8234 0.0000 -10953.4293 1524.6088 0.0000 0.0000 1794.4792 -7621.6679 302.6724 -9416.1471 -7541.6455 301.0625 555.0483 619.8402 30245.6330 -154.8421 -95.1000
ENERGY: 1200000 3.6652 2.6408 2.4443 0.0000 -10797.0895 1512.2828 0.0000 0.0000 1714.2313 -7561.8251 289.1371 -9276.0564 -7549.4757 299.4735 840.5511 853.5626 30127.4205 -79.6966 -34.3455
ENERGY: 1500000 0.7619 2.3638 3.2748 0.0000 -10683.6015 1377.8843 0.0000 0.0000 1776.9595 -7522.3572 299.7173 -9299.3167 -7547.0582 299.5237 -498.8967 -436.9096 30651.5703 -160.2793 -108.9767
TCL: Running FEP window   4: Lambda1 0.15000000000000002 Lambda2 0.2    [dLambda 0.04999999999999999]
TCL: Setting parameter firsttimestep to 0
TCL: Setting parameter alchLambda to 0.15000000000000002
Info: NONBONDED TABLE R-SQUARED SPACING: 0.0625
Info: NONBONDED TABLE SIZE: 705 POINTS
TCL: Setting parameter alchLambda2 to 0.2
Info: NONBONDED TABLE R-SQUARED SPACING: 0.0625
Info: NONBONDED TABLE SIZE: 705 POINTS
TCL: Running for 1500000 steps
ETITLE: TS BOND ANGLE DIHED IMPRP ELECT VDW BOUNDARY MISC KINETIC TOTAL TEMP POTENTIAL TOTALAVG TEMPAVG PRESSURE GPRESSURE VOLUME PRESSAVG GPRESSAVG
ENERGY: 0 0.7619 2.3638 3.2748 0.0000 -10683.6013 1378.3841 0.0000 0.0000 1776.0491 -7522.7676 299.5638 -9298.8167 -7522.7676 299.5638 -514.6575 -431.1435 30651.5703 -514.6575 -431.1435
ENERGY: 300000 2.6025 2.9193 1.5822 0.0000 -10820.7430 1472.9481 0.0000 0.0000 1796.6972 -7543.9936 303.0465 -9340.6909 -7576.1974 296.8778 97.0396 215.3206 30691.4330 -122.4022 -49.8293
ENERGY: 600000 1.3877 1.2678 1.8969 0.0000 -10784.1833 1373.5363 0.0000 0.0000 1813.9364 -7592.1582 305.9542 -9406.0947 -7580.7021 298.4211 -779.3847 -752.7149 30672.9549 -11.2278 59.1311
ENERGY: 900000 2.6535 3.4927 4.2278 0.0000 -10863.5495 1446.1251 0.0000 0.0000 1762.3710 -7644.6794 297.2567 -9407.0504 -7594.0780 299.2817 -305.2431 -274.0532 30535.3327 -150.7201 -83.2582
ENERGY: 1200000 1.3109 6.0739 1.3416 0.0000 -10877.2518 1528.5221 0.0000 0.0000 1741.2401 -7598.7632 293.6926 -9340.0033 -7584.1322 299.6762 460.5857 533.8027 30431.2806 -55.5293 17.5014
ENERGY: 1500000 2.4227 1.8050 2.0005 0.0000 -10937.2138 1567.9860 0.0000 0.0000 1770.9248 -7592.0747 298.6995 -9362.9995 -7589.1034 299.4258 1033.1871 1121.1079 30171.1690 -3.0716 70.6595
TCL: Running FEP window   5: Lambda1 0.2    Lambda2 0.25   [dLambda 0.04999999999999999]
TCL: Setting parameter firsttimestep to 0
TCL: Setting parameter alchLambda to 0.2
Info: NONBONDED TABLE R-SQUARED SPACING: 0.0625
Info: NONBONDED TABLE SIZE: 705 POINTS
TCL: Setting parameter alchLambda2 to 0.25
Info: NONBONDED TABLE R-SQUARED SPACING: 0.0625
Info: NONBONDED TABLE SIZE: 705 POINTS
TCL: Running for 1500000 steps
ETITLE: TS BOND ANGLE DIHED IMPRP ELECT VDW BOUNDARY MISC KINETIC TOTAL TEMP POTENTIAL TOTALAVG TEMPAVG PRESSURE GPRESSURE VOLUME PRESSAVG GPRESSAVG
ENERGY: 0 2.4227 1.8050 2.0005 0.0000 -10937.2135 1567.6967 0.0000 0.0000 1770.0568 -7593.2318 298.5531 -9363.2886 -7593.2318 298.5531 1034.7816 1122.2197 30171.1690 1034.7816 1122.2197
ENERGY: 300000 2.5478 4.9749 2.1795 0.0000 -10847.2978 1520.0921 0.0000 0.0000 1758.5361 -7558.9675 296.6099 -9317.5035 -7568.7086 296.9410 372.1760 427.9741 30830.7079 223.1578 281.4409
ENERGY: 600000 1.6242 3.5638 2.6151 0.0000 -10758.9648 1449.5150 0.0000 0.0000 1788.5379 -7513.1087 301.6703 -9301.6467 -7560.9603 298.4908 83.1601 92.4088 30804.0625 29.5280 81.3811
ENERGY: 900000 1.8211 3.3660 2.3418 0.0000 -10759.8666 1399.5342 0.0000 0.0000 1785.0011 -7567.8023 301.0737 -9352.8034 -7553.1430 300.0212 -354.4142 -363.4306 30482.5749 -107.0348 -60.4787
ENERGY: 1200000 1.9351 2.2290 1.8448 0.0000 -10844.2705 1466.0109 0.0000 0.0000 1834.7504 -7537.5003 309.4649 -9372.2507 -7554.3480 300.9870 163.5806 200.6557 30453.9884 -80.6789 -30.3503
ENERGY: 1500000 0.8836 3.0264 1.7041 0.0000 -10876.9073 1477.5801 0.0000 0.0000 1753.8062 -7639.9069 295.8121 -9393.7131 -7550.5134 301.4591 126.6024 165.7681 30350.8046 -174.8516 -122.9497
TCL: Running FEP window   6: Lambda1 0.25   Lambda2 0.3    [dLambda 0.04999999999999999]
TCL: Setting parameter firsttimestep to 0
TCL: Setting parameter alchLambda to 0.25
Info: NONBONDED TABLE R-SQUARED SPACING: 0.0625
Info: NONBONDED TABLE SIZE: 705 POINTS
TCL: Setting parameter alchLambda2 to 0.3
Info: NONBONDED TABLE R-SQUARED SPACING: 0.0625
Info: NONBONDED TABLE SIZE: 705 POINTS
TCL: Running for 1500000 steps
ETITLE: TS BOND ANGLE DIHED IMPRP ELECT VDW BOUNDARY MISC KINETIC TOTAL TEMP POTENTIAL TOTALAVG TEMPAVG PRESSURE GPRESSURE VOLUME PRESSAVG GPRESSAVG
ENERGY: 0 0.8836 3.0264 1.7041 0.0000 -10876.9077 1477.8967 0.0000 0.0000 1752.9588 -7640.4381 295.6692 -9393.3969 -7640.4381 295.6692 87.7153 170.2875 30350.8046 87.7153 170.2875
ENERGY: 300000 1.5916 0.9903 3.4638 0.0000 -10880.7863 1477.0946 0.0000 0.0000 1796.6096 -7601.0364 303.0317 -9397.6461 -7578.9607 300.6493 -133.8952 -41.3417 30684.2649 -61.3572 16.0682
ENERGY: 600000 4.8400 1.0741 2.1774 0.0000 -10924.8983 1522.0718 0.0000 0.0000 1824.1700 -7570.5651 307.6803 -9394.7351 -7575.9817 300.9035 344.1785 393.3131 30647.7012 -21.5299 43.0468
ENERGY: 900000 0.7463 2.5000 4.8634 0.0000 -10869.6377 1538.3524 0.0000 0.0000 1770.0612 -7553.1144 298.5538 -9323.1756 -7565.7699 301.0451 777.0607 825.3026 30435.4194 144.5143 197.0177
ENERGY: 1200000 2.0535 2.6246 2.5615 0.0000 -10768.7622 1482.6961 0.0000 0.0000 1749.3330 -7529.4935 295.0576 -9278.8265 -7572.9306 300.1666 405.2940 435.3165 30536.6466 208.1210 256.7751
ENERGY: 1500000 1.4860 2.5683 1.9252 0.0000 -10832.3480 1475.3144 0.0000 0.0000 1775.8509 -7575.2033 299.5304 -9351.0542 -7569.2680 300.6237 228.9330 274.1449 30597.3235 173.3343 220.8226
TCL: Running FEP window   7: Lambda1 0.3    Lambda2 0.35   [dLambda 0.04999999999999999]
TCL: Setting parameter firsttimestep to 0
TCL: Setting parameter alchLambda to 0.3
Info: NONBONDED TABLE R-SQUARED SPACING: 0.0625
Info: NONBONDED TABLE SIZE: 705 POINTS
TCL: Setting parameter alchLambda2 to 0.35
Info: NONBONDED TABLE R-SQUARED SPACING: 0.0625
Info: NONBONDED TABLE SIZE: 705 POINTS
TCL: Running for 1500000 steps
ETITLE: TS BOND ANGLE DIHED IMPRP ELECT VDW BOUNDARY MISC KINETIC TOTAL TEMP POTENTIAL TOTALAVG TEMPAVG PRESSURE GPRESSURE VOLUME PRESSAVG GPRESSAVG
ENERGY: 0 1.4860 2.5683 1.9252 0.0000 -10832.3470 1475.6430 0.0000 0.0000 1775.0139 -7575.7106 299.3892 -9350.7245 -7575.7106 299.3892 190.4857 281.3690 30597.3235 190.4857 281.3690
ENERGY: 300000 3.3409 1.2552 0.8701 0.0000 -10732.8232 1393.7278 0.0000 0.0000 1768.5336 -7565.0957 298.2962 -9333.6292 -7561.0473 300.4956 -312.4165 -325.1474 30659.4632 59.3272 116.0389
ENERGY: 600000 1.3642 5.5959 1.6402 0.0000 -10823.3201 1489.5000 0.0000 0.0000 1788.8210 -7536.3988 301.7180 -9325.2198 -7553.3352 299.2207 286.1666 337.3685 30864.2794 56.5714 104.2374
ENERGY: 900000 1.3617 4.4363 1.0342 0.0000 -10832.9372 1425.3618 0.0000 0.0000 1742.9079 -7657.8354 293.9739 -9400.7433 -7558.3777 299.8525 -697.4872 -654.3156 30970.2427 96.1821 138.8704
ENERGY: 1200000 3.7733 5.0029 1.3237 0.0000 -10872.9843 1510.4189 0.0000 0.0000 1798.7686 -7553.6968 303.3959 -9352.4655 -7561.9514 298.9346 255.2770 346.7711 30624.6635 136.8610 180.8023
ENERGY: 1500000 2.8148 1.4034 2.7770 0.0000 -10856.8734 1517.1067 0.0000 0.0000 1810.1944 -7522.5771 305.3230 -9332.7715 -7572.3104 298.8490 540.6338 622.0659 30727.5596 151.3151 198.3543
TCL: Running FEP window   8: Lambda1 0.35   Lambda2 0.39999999999999997 [dLambda 0.04999999999999999]
TCL: Setting parameter firsttimestep to 0
TCL: Setting parameter alchLambda to 0.35
Info: NONBONDED TABLE R-SQUARED SPACING: 0.0625
Info: NONBONDED TABLE SIZE: 705 POINTS
TCL: Setting parameter alchLambda2 to 0.39999999999999997
Info: NONBONDED TABLE R-SQUARED SPACING: 0.0625
Info: NONBONDED TABLE SIZE: 705 POINTS
TCL: Running for 1500000 steps
ETITLE: TS BOND ANGLE DIHED IMPRP ELECT VDW BOUNDARY MISC KINETIC TOTAL TEMP POTENTIAL TOTALAVG TEMPAVG PRESSURE GPRESSURE VOLUME PRESSAVG GPRESSAVG
ENERGY: 0 2.8148 1.4034 2.7770 0.0000 -10856.8748 1517.2971 0.0000 0.0000 1809.2750 -7523.3075 305.1680 -9332.5825 -7523.3075 305.1680 527.8803 624.7786 30727.5596 527.8803 624.7786
ENERGY: 300000 3.9733 2.9097 2.1525 0.0000 -10788.1594 1466.3676 0.0000 0.0000 1749.3662 -7563.3902 295.0632 -9312.7563 -7564.4590 298.6048 102.3445 217.6381 30334.2491 -2.9694 89.7891
ENERGY: 600000 2.6954 0.9229 1.8234 0.0000 -10761.9357 1457.0389 0.0000 0.0000 1836.9520 -7462.5032 309.8362 -9299.4552 -7537.5483 301.4606 88.6236 157.7451 30556.1451 -27.6670 51.3276
ENERGY: 900000 3.9476 4.5529 3.7917 0.0000 -10758.5704 1407.7356 0.0000 0.0000 1853.2327 -7485.3099 312.5822 -9338.5426 -7546.3789 303.4918 -345.2869 -233.3407 30471.5864 -54.9702 26.0334
ENERGY: 1200000 1.8971 0.9560 5.2613 0.0000 -10737.5639 1472.7811 0.0000 0.0000 1778.1293 -7478.5390 299.9147 -9256.6684 -7544.1393 302.0857 560.0840 623.3222 30351.4563 26.2492 103.4282
ENERGY: 1500000 1.3229 3.6831 1.9118 0.0000 -10901.5379 1516.2356 0.0000 0.0000 1804.2209 -7574.1635 304.3155 -9378.3845 -7552.1448 302.3873 476.9782 470.0981 30553.7825 61.2588 136.0255
TCL: Running FEP window   9: Lambda1 0.39999999999999997 Lambda2 0.44999999999999996 [dLambda 0.04999999999999999]
TCL: Setting parameter firsttimestep to 0
TCL: Setting parameter alchLambda to 0.39999999999999997
Info: NONBONDED TABLE R-SQUARED SPACING: 0.0625
Info: NONBONDED TABLE SIZE: 705 POINTS
TCL: Setting parameter alchLambda2 to 0.44999999999999996
Info: NONBONDED TABLE R-SQUARED SPACING: 0.0625
Info: NONBONDED TABLE SIZE: 705 POINTS
TCL: Running for 1500000 steps
ETITLE: TS BOND ANGLE DIHED IMPRP ELECT VDW BOUNDARY MISC KINETIC TOTAL TEMP POTENTIAL TOTALAVG TEMPAVG PRESSURE GPRESSURE VOLUME PRESSAVG GPRESSAVG
ENERGY: 0 1.3229 3.6831 1.9118 0.0000 -10901.5391 1516.2612 0.0000 0.0000 1803.3234 -7575.0367 304.1641 -9378.3601 -7575.0367 304.1641 394.1229 476.5963 30553.7825 394.1229 476.5963
ENERGY: 300000 3.4619 3.6198 4.1629 0.0000 -10886.5362 1582.3469 0.0000 0.0000 1835.4011 -7457.5437 309.5746 -9292.9448 -7538.1367 304.7610 1137.4534 1172.7135 30711.2387 480.1799 539.7664
ENERGY: 600000 4.0452 2.5425 2.2706 0.0000 -10795.4353 1435.8168 0.0000 0.0000 1799.8965 -7550.8637 303.5861 -9350.7602 -7543.1960 303.4168 -183.1903 -174.3519 30699.4526 328.8169 391.4853
ENERGY: 900000 2.7603 2.6407 2.2223 0.0000 -10732.3664 1417.3770 0.0000 0.0000 1805.9691 -7501.3970 304.6104 -9307.3660 -7539.8591 303.5763 -142.1295 -87.3987 30672.2918 182.2087 238.8851
ENERGY: 1200000 2.8531 2.5767 4.3977 0.0000 -10840.3024 1411.4154 0.0000 0.0000 1773.3801 -7645.6794 299.1136 -9419.0596 -7548.0884 303.0053 -685.8792 -634.0445 30928.4391 48.3732 105.0644
ENERGY: 1500000 3.4352 2.4497 1.2450 0.0000 -10917.5567 1513.2229 0.0000 0.0000 1806.0739 -7591.1300 304.6280 -9397.2039 -7556.0476 302.9062 348.3990 374.3613 30239.2074 102.4791 163.2296
TCL: Running FEP window  10: Lambda1 0.44999999999999996 Lambda2 0.49999999999999994 [dLambda 0.04999999999999999]
TCL: Setting parameter firsttimestep to 0
TCL: Setting parameter alchLambda to 0.44999999999999996
Info: NONBONDED TABLE R-SQUARED SPACING: 0.0625
Info: NONBONDED TABLE SIZE: 705 POINTS
TCL: Setting parameter alchLambda2 to 0.49999999999999994
Info: NONBONDED TABLE R-SQUARED SPACING: 0.0625
Info: NONBONDED TABLE SIZE: 705 POINTS
TCL: Running for 1500000 steps
ETITLE: TS BOND ANGLE DIHED IMPRP ELECT VDW BOUNDARY MISC KINETIC TOTAL TEMP POTENTIAL TOTALAVG TEMPAVG PRESSURE GPRESSURE VOLUME PRESSAVG GPRESSAVG
ENERGY: 0 3.4352 2.4497 1.2450 0.0000 -10917.5568 1513.1502 0.0000 0.0000 1805.1432 -7592.1334 304.4711 -9397.2767 -7592.1334 304.4711 289.6838 377.6884 30239.2074 289.6838 377.6884
ENERGY: 300000 4.7772 1.4810 1.1741 0.0000 -10793.4306 1444.0271 0.0000 0.0000 1780.1280 -7561.8432 300.2518 -9341.9711 -7579.1729 300.1003 -546.0156 -465.3313 31021.2997 -298.8425 -224.4770
ENERGY: 600000 2.9096 2.7166 2.0172 0.0000 -10757.6493 1425.4708 0.0000 0.0000 1768.5512 -7555.9838 298.2991 -9324.5351 -7572.6574 301.0218 -247.3772 -207.7986 30767.2505 106.7339 167.7952
ENERGY: 900000 0.5358 1.0609 3.2908 0.0000 -10636.6786 1363.3915 0.0000 0.0000 1804.6547 -7463.7449 304.3887 -9268.3996 -7567.7333 300.4806 -726.6470 -622.8258 30991.6080 43.1837 109.9057
ENERGY: 1200000 4.6088 3.5215 1.7418 0.0000 -10618.5104 1316.2132 0.0000 0.0000 1685.5471 -7606.8782 284.2989 -9292.4253 -7573.8188 299.6414 -1271.3243 -1181.4778 31016.5746 -19.1642 46.5472
ENERGY: 1500000 2.6765 5.1860 1.7967 0.0000 -10791.3123 1506.4006 0.0000 0.0000 1725.2626 -7549.9900 290.9977 -9275.2526 -7569.6035 297.4586 640.8184 599.9497 30754.0210 46.6947 110.6307
TCL: Running FEP window  11: Lambda1 0.49999999999999994 Lambda2 0.5499999999999999 [dLambda 0.04999999999999999]
TCL: Setting parameter firsttimestep to 0
TCL: Setting parameter alchLambda to 0.49999999999999994
Info: NONBONDED TABLE R-SQUARED SPACING: 0.0625
Info: NONBONDED TABLE SIZE: 705 POINTS
TCL: Setting parameter alchLambda2 to 0.5499999999999999
Info: NONBONDED TABLE R-SQUARED SPACING: 0.0625
Info: NONBONDED TABLE SIZE: 705 POINTS
TCL: Running for 1500000 steps
ETITLE: TS BOND ANGLE DIHED IMPRP ELECT VDW BOUNDARY MISC KINETIC TOTAL TEMP POTENTIAL TOTALAVG TEMPAVG PRESSURE GPRESSURE VOLUME PRESSAVG GPRESSAVG
ENERGY: 0 2.6765 5.1860 1.7967 0.0000 -10791.3129 1506.0024 0.0000 0.0000 1724.4309 -7551.2204 290.8574 -9275.6513 -7551.2204 290.8574 530.5230 605.4586 30754.0210 530.5230 605.4586
ENERGY: 300000 2.8837 4.2554 3.2290 0.0000 -10833.9308 1445.3985 0.0000 0.0000 1793.3995 -7584.7648 302.4903 -9378.1643 -7589.0422 298.5311 -102.1480 -89.9382 30813.9789 213.9339 266.2347
ENERGY: 600000 3.5194 2.8523 2.3822 0.0000 -10730.5962 1373.4137 0.0000 0.0000 1762.3945 -7586.0340 297.2607 -9348.4286 -7573.5984 298.5513 -749.3998 -709.0341 30789.0430 87.1093 137.4990
ENERGY: 900000 2.1707 2.8796 2.7588 0.0000 -10814.2800 1449.5472 0.0000 0.0000 1723.7059 -7633.2177 290.7351 -9356.9236 -7561.0960 300.2194 60.4541 20.8281 30534.5089 1.1400 41.7033
ENERGY: 1200000 4.0770 2.5598 1.5374 0.0000 -10692.2042 1365.9996 0.0000 0.0000 1793.6654 -7524.3651 302.5351 -9318.0306 -7556.2282 300.3092 -805.9729 -763.1093 31138.9119 -43.1626 4.7975
ENERGY: 1500000 1.8191 2.6436 4.6375 0.0000 -10824.8417 1494.1109 0.0000 0.0000 1798.2092 -7523.4214 303.3015 -9321.6306 -7554.8318 300.4202 424.0428 481.3694 30379.3867 -53.6795 -0.4317
TCL: Running FEP window  12: Lambda1 0.5499999999999999 Lambda2 0.6    [dLambda 0.050000000000000044]
TCL: Setting parameter firsttimestep to 0
TCL: Setting parameter alchLambda to 0.5499999999999999
Info: NONBONDED TABLE R-SQUARED SPACING: 0.0625
Info: NONBONDED TABLE SIZE: 705 POINTS
TCL: Setting parameter alchLambda2 to 0.6
Info: NONBONDED TABLE R-SQUARED SPACING: 0.0625
Info: NONBONDED TABLE SIZE: 705 POINTS
TCL: Running for 1500000 steps
ETITLE: TS BOND ANGLE DIHED IMPRP ELECT VDW BOUNDARY MISC KINETIC TOTAL TEMP POTENTIAL TOTALAVG TEMPAVG PRESSURE GPRESSURE VOLUME PRESSAVG GPRESSAVG
ENERGY: 0 1.8191 2.6436 4.6375 0.0000 -10825.0311 1495.3294 0.0000 0.0000 1797.3303 -7523.2713 303.1533 -9320.6016 -7523.2713 303.1533 403.4111 499.6088 30379.3867 403.4111 499.6088
ENERGY: 300000 0.7981 2.5710 3.4729 0.0000 -10746.4896 1481.9042 0.0000 0.0000 1767.8227 -7489.9207 298.1762 -9257.7434 -7563.7717 297.8202 387.9017 435.1034 30919.1822 213.8187 304.3872
ENERGY: 600000 3.2008 1.3877 0.9576 0.0000 -10827.4768 1391.1342 0.0000 0.0000 1819.8759 -7610.9205 306.9560 -9430.7965 -7558.3864 301.4863 -785.6320 -734.9962 30478.1188 55.2001 135.9175
ENERGY: 900000 1.9195 6.0814 1.6291 0.0000 -10769.9391 1426.0970 0.0000 0.0000 1738.9794 -7595.2327 293.3113 -9334.2121 -7547.5674 300.7540 -386.0241 -347.2979 31032.5480 -31.5346 33.0925
ENERGY: 1200000 5.0122 1.6470 1.1615 0.0000 -10860.9738 1527.8813 0.0000 0.0000 1838.8375 -7486.4343 310.1542 -9325.2717 -7539.2223 301.9581 535.5523 548.8631 30583.1481 103.8744 160.1394
ENERGY: 1500000 3.0235 4.7793 4.3516 0.0000 -10776.4504 1477.3365 0.0000 0.0000 1799.6935 -7487.2659 303.5519 -9286.9594 -7533.8060 302.5441 671.7829 719.7902 30067.4348 124.9656 184.2132
TCL: Running FEP window  13: Lambda1 0.6    Lambda2 0.65   [dLambda 0.050000000000000044]
TCL: Setting parameter firsttimestep to 0
TCL: Setting parameter alchLambda to 0.6
Info: NONBONDED TABLE R-SQUARED SPACING: 0.0625
Info: NONBONDED TABLE SIZE: 705 POINTS
TCL: Setting parameter alchLambda2 to 0.65
Info: NONBONDED TABLE R-SQUARED SPACING: 0.0625
Info: NONBONDED TABLE SIZE: 705 POINTS
TCL: Running for 1500000 steps
ETITLE: TS BOND ANGLE DIHED IMPRP ELECT VDW BOUNDARY MISC KINETIC TOTAL TEMP POTENTIAL TOTALAVG TEMPAVG PRESSURE GPRESSURE VOLUME PRESSAVG GPRESSAVG
ENERGY: 0 3.0235 4.7793 4.3516 0.0000 -10776.3495 1478.8153 0.0000 0.0000 1798.8245 -7486.5553 303.4053 -9285.3798 -7486.5553 303.4053 654.3335 741.5780 30067.4348 654.3335 741.5780
ENERGY: 300000 3.9330 1.7741 2.6558 0.0000 -10919.3499 1524.0238 0.0000 0.0000 1722.0134 -7664.9499 290.4497 -9386.9633 -7561.6869 299.1396 361.4660 441.4445 30368.4683 79.4802 150.4082
ENERGY: 600000 3.9961 4.1092 2.8401 0.0000 -10811.4914 1437.1122 0.0000 0.0000 1709.7128 -7653.7210 288.3749 -9363.4338 -7571.3520 298.5718 -471.1378 -419.2588 30895.0744 53.1066 116.0020
ENERGY: 900000 1.3883 2.8784 3.8949 0.0000 -10838.6595 1535.4272 0.0000 0.0000 1756.0428 -7539.0278 296.1894 -9295.0707 -7561.4057 298.1304 893.9758 1009.8777 30590.6986 93.1195 163.2506
ENERGY: 1200000 2.3812 0.8847 0.4701 0.0000 -10971.7584 1554.2778 0.0000 0.0000 1792.7239 -7621.0208 302.3763 -9413.7447 -7563.3806 298.7819 760.5340 890.8434 30450.6970 144.0347 214.9711
ENERGY: 1500000 1.5186 2.0418 1.4634 0.0000 -10664.3007 1334.5363 0.0000 0.0000 1797.0448 -7527.6958 303.1051 -9324.7406 -7554.7714 299.7352 -724.3317 -707.8938 30622.0592 100.8714 162.3240
TCL: Running FEP window  14: Lambda1 0.65   Lambda2 0.7000000000000001 [dLambda 0.050000000000000044]
TCL: Setting parameter firsttimestep to 0
TCL: Setting parameter alchLambda to 0.65
Info: NONBONDED TABLE R-SQUARED SPACING: 0.0625
Info: NONBONDED TABLE SIZE: 705 POINTS
TCL: Setting parameter alchLambda2 to 0.7000000000000001
Info: NONBONDED TABLE R-SQUARED SPACING: 0.0625
Info: NONBONDED TABLE SIZE: 705 POINTS
TCL: Running for 1500000 steps
ETITLE: TS BOND ANGLE DIHED IMPRP ELECT VDW BOUNDARY MISC KINETIC TOTAL TEMP POTENTIAL TOTALAVG TEMPAVG PRESSURE GPRESSURE VOLUME PRESSAVG GPRESSAVG
ENERGY: 0 1.5186 2.0418 1.4634 0.0000 -10664.3561 1334.0709 0.0000 0.0000 1796.1616 -7529.0998 302.9561 -9325.2614 -7529.0998 302.9561 -766.7294 -704.2411 30622.0592 -766.7294 -704.2411
ENERGY: 300000 2.2913 2.7442 1.3683 0.0000 -10828.8726 1444.4676 0.0000 0.0000 1754.8764 -7623.1248 295.9926 -9378.0012 -7560.0977 299.6651 -138.1904 -79.7303 30701.7674 -312.1157 -245.2491
ENERGY: 600000 5.8610 1.8343 2.0538 0.0000 -10836.8451 1444.5580 0.0000 0.0000 1741.7731 -7640.7649 293.7825 -9382.5380 -7587.8365 299.6031 -652.6228 -596.6807 31200.2918 -323.4416 -257.0335
ENERGY: 900000 2.4163 3.9378 3.9735 0.0000 -10695.3687 1358.1681 0.0000 0.0000 1718.2350 -7608.6380 289.8124 -9326.8730 -7576.9769 299.5772 -846.9609 -769.0101 30725.9127 -349.0356 -279.7512
ENERGY: 1200000 2.5619 5.0924 3.0313 0.0000 -10566.4364 1273.5153 0.0000 0.0000 1710.2734 -7571.9620 288.4695 -9282.2354 -7581.3362 298.3813 -1585.9217 -1604.0508 31205.8407 -358.3255 -292.2785
ENERGY: 1500000 1.8837 3.8558 2.1596 0.0000 -10776.8514 1495.3697 0.0000 0.0000 1829.0710 -7444.5116 308.5069 -9273.5827 -7573.1897 299.4121 596.9217 666.7451 30841.2410 -245.1961 -175.5149
TCL: Running FEP window  15: Lambda1 0.7000000000000001 Lambda2 0.7500000000000001 [dLambda 0.050000000000000044]
TCL: Setting parameter firsttimestep to 0
TCL: Setting parameter alchLambda to 0.7000000000000001
Info: NONBONDED TABLE R-SQUARED SPACING: 0.0625
Info: NONBONDED TABLE SIZE: 705 POINTS
TCL: Setting parameter alchLambda2 to 0.7500000000000001
Info: NONBONDED TABLE R-SQUARED SPACING: 0.0625
Info: NONBONDED TABLE SIZE: 705 POINTS
TCL: Running for 1500000 steps
ETITLE: TS BOND ANGLE DIHED IMPRP ELECT VDW BOUNDARY MISC KINETIC TOTAL TEMP POTENTIAL TOTALAVG TEMPAVG PRESSURE GPRESSURE VOLUME PRESSAVG GPRESSAVG
ENERGY: 0 1.8837 3.8558 2.1596 0.0000 -10777.0742 1495.0775 0.0000 0.0000 1828.2168 -7445.8808 308.3629 -9274.0977 -7445.8808 308.3629 573.4552 671.3897 30841.2410 573.4552 671.3897
ENERGY: 300000 3.3136 3.5900 4.3626 0.0000 -10617.2038 1354.8647 0.0000 0.0000 1762.8982 -7488.1747 297.3456 -9251.0729 -7504.0085 303.5842 -775.9727 -729.9736 31625.3084 -94.8037 -49.6639
ENERGY: 600000 3.6579 2.9476 2.7258 0.0000 -10797.3572 1454.5903 0.0000 0.0000 1824.6390 -7508.7966 307.7594 -9333.4356 -7508.0586 305.0402 367.0917 411.7280 30441.6325 94.0222 137.0212
ENERGY: 900000 4.9413 1.4853 2.9901 0.0000 -10902.3271 1535.0538 0.0000 0.0000 1745.7710 -7612.0856 294.4568 -9357.8566 -7513.9995 304.6550 625.6395 637.4835 30314.3420 125.2786 165.9743
ENERGY: 1200000 3.0145 2.9971 3.7506 0.0000 -10880.4513 1550.4236 0.0000 0.0000 1741.6173 -7578.6482 293.7562 -9320.2655 -7541.6630 302.2062 879.9603 940.2700 30629.1569 180.0371 227.0302
ENERGY: 1500000 2.7880 1.5785 3.2295 0.0000 -10911.3020 1566.0220 0.0000 0.0000 1806.5678 -7531.1161 304.7113 -9337.6840 -7539.1844 302.1729 1075.8533 1091.8248 30239.5388 212.3869 256.7231
TCL: Running FEP window  16: Lambda1 0.7500000000000001 Lambda2 0.8000000000000002 [dLambda 0.050000000000000044]
TCL: Setting parameter firsttimestep to 0
TCL: Setting parameter alchLambda to 0.7500000000000001
Info: NONBONDED TABLE R-SQUARED SPACING: 0.0625
Info: NONBONDED TABLE SIZE: 705 POINTS
TCL: Setting parameter alchLambda2 to 0.8000000000000002
Info: NONBONDED TABLE R-SQUARED SPACING: 0.0625
Info: NONBONDED TABLE SIZE: 705 POINTS
TCL: Running for 1500000 steps
ETITLE: TS BOND ANGLE DIHED IMPRP ELECT VDW BOUNDARY MISC KINETIC TOTAL TEMP POTENTIAL TOTALAVG TEMPAVG PRESSURE GPRESSURE VOLUME PRESSAVG GPRESSAVG
ENERGY: 0 2.7880 1.5785 3.2295 0.0000 -10911.4235 1566.0395 0.0000 0.0000 1805.6570 -7532.1310 304.5577 -9337.7880 -7532.1310 304.5577 1018.2978 1102.8382 30239.5388 1018.2978 1102.8382
ENERGY: 300000 4.1770 4.2736 3.3081 0.0000 -10671.7071 1379.9862 0.0000 0.0000 1746.8641 -7533.0982 294.6412 -9279.9623 -7512.7534 303.9563 -667.4230 -539.3080 31006.5711 -167.9946 -93.7365
ENERGY: 600000 2.2925 4.7759 0.8692 0.0000 -10974.5514 1561.5549 0.0000 0.0000 1728.6222 -7676.4368 291.5644 -9405.0590 -7549.6028 301.6840 834.1341 911.3213 30324.3156 60.0099 138.6542
ENERGY: 900000 1.7842 3.9695 1.3462 0.0000 -10786.5670 1429.3092 0.0000 0.0000 1769.7066 -7580.4515 298.4940 -9350.1581 -7551.4334 300.6145 -121.9744 -64.2613 30776.0542 184.9432 263.1916
ENERGY: 1200000 3.4029 2.4669 2.9473 0.0000 -10731.5259 1459.2897 0.0000 0.0000 1784.4003 -7479.0189 300.9724 -9263.4192 -7542.8956 301.5605 -56.4932 -18.1155 31378.0795 140.7592 209.2715
ENERGY: 1500000 2.6221 2.0188 1.5228 0.0000 -10717.0856 1392.8999 0.0000 0.0000 1798.3963 -7519.6257 303.3331 -9318.0219 -7541.9186 301.0367 -227.4053 -168.3204 30379.9748 -1.2170 71.1236
TCL: Running FEP window  17: Lambda1 0.8000000000000002 Lambda2 0.8500000000000002 [dLambda 0.050000000000000044]
TCL: Setting parameter firsttimestep to 0
TCL: Setting parameter alchLambda to 0.8000000000000002
Info: NONBONDED TABLE R-SQUARED SPACING: 0.0625
Info: NONBONDED TABLE SIZE: 705 POINTS
TCL: Setting parameter alchLambda2 to 0.8500000000000002
Info: NONBONDED TABLE R-SQUARED SPACING: 0.0625
Info: NONBONDED TABLE SIZE: 705 POINTS
TCL: Running for 1500000 steps
ETITLE: TS BOND ANGLE DIHED IMPRP ELECT VDW BOUNDARY MISC KINETIC TOTAL TEMP POTENTIAL TOTALAVG TEMPAVG PRESSURE GPRESSURE VOLUME PRESSAVG GPRESSAVG
ENERGY: 0 2.6221 2.0188 1.5228 0.0000 -10717.2001 1392.1089 0.0000 0.0000 1797.5507 -7521.3767 303.1904 -9318.9274 -7521.3767 303.1904 -244.7729 -169.1629 30379.9748 -244.7729 -169.1629
ENERGY: 300000 3.7686 2.8281 4.0531 0.0000 -10717.6783 1414.1520 0.0000 0.0000 1798.2901 -7494.5866 303.3151 -9292.8767 -7519.2863 300.3593 -49.4555 27.0724 30409.0500 -128.7144 -48.4501
ENERGY: 600000 1.5904 1.0621 2.1650 0.0000 -10626.5206 1366.2745 0.0000 0.0000 1761.1383 -7494.2902 297.0488 -9255.4285 -7514.7307 300.2486 -501.0446 -378.4324 31156.0179 -64.3363 11.8189
ENERGY: 900000 3.0149 4.1277 4.9279 0.0000 -10882.7709 1506.4463 0.0000 0.0000 1770.0250 -7594.2292 298.5477 -9364.2542 -7542.8037 299.2781 773.9299 847.5994 29951.7538 46.4215 114.5826
ENERGY: 1200000 6.3108 3.0652 2.6351 0.0000 -10746.6234 1373.6779 0.0000 0.0000 1800.3456 -7560.5887 303.6619 -9360.9344 -7540.2693 300.9163 -391.4033 -435.3232 30322.1489 -33.9150 16.5486
ENERGY: 1500000 2.7181 0.7824 1.5578 0.0000 -10863.8807 1481.2490 0.0000 0.0000 1825.0288 -7552.5447 307.8251 -9377.5735 -7540.3992 301.4343 218.8207 327.7525 30748.9588 66.8080 117.8258
TCL: Running FEP window  18: Lambda1 0.8500000000000002 Lambda2 0.9000000000000002 [dLambda 0.050000000000000044]
TCL: Setting parameter firsttimestep to 0
TCL: Setting parameter alchLambda to 0.8500000000000002
Info: NONBONDED TABLE R-SQUARED SPACING: 0.0625
Info: NONBONDED TABLE SIZE: 705 POINTS
TCL: Setting parameter alchLambda2 to 0.9000000000000002
Info: NONBONDED TABLE R-SQUARED SPACING: 0.0625
Info: NONBONDED TABLE SIZE: 705 POINTS
TCL: Running for 1500000 steps
ETITLE: TS BOND ANGLE DIHED IMPRP ELECT VDW BOUNDARY MISC KINETIC TOTAL TEMP POTENTIAL TOTALAVG TEMPAVG PRESSURE GPRESSURE VOLUME PRESSAVG GPRESSAVG
ENERGY: 0 2.7181 0.7824 1.5578 0.0000 -10864.0419 1481.6951 0.0000 0.0000 1824.1351 -7553.1534 307.6744 -9377.2885 -7553.1534 307.6744 275.9076 342.6088 30748.9588 275.9076 342.6088
ENERGY: 300000 4.2009 3.4479 3.8678 0.0000 -10780.0734 1422.4391 0.0000 0.0000 1768.5630 -7577.5548 298.3011 -9346.1178 -7571.7169 304.3769 -502.0574 -398.7631 30894.0953 -401.7599 -337.9095
ENERGY: 600000 4.3286 1.9595 1.1952 0.0000 -10805.7367 1453.0735 0.0000 0.0000 1785.6177 -7559.5622 301.1777 -9345.1798 -7549.3098 304.7231 13.9882 72.5488 30616.4907 -291.5316 -224.1784
ENERGY: 900000 1.3385 2.2309 3.9305 0.0000 -10797.9336 1421.5556 0.0000 0.0000 1829.5823 -7539.2958 308.5932 -9368.8781 -7544.3417 304.1915 -411.0288 -337.6012 30656.8139 -229.6093 -159.2027
ENERGY: 1200000 0.9948 3.7172 3.2836 0.0000 -10858.5836 1519.9954 0.0000 0.0000 1785.5836 -7545.0090 301.1720 -9330.5926 -7548.6078 304.3365 748.5348 817.6443 30689.8906 -170.0750 -101.2274
ENERGY: 1500000 3.1323 2.2986 1.1186 0.0000 -10825.5422 1439.4385 0.0000 0.0000 1727.8166 -7651.7376 291.4285 -9379.5542 -7554.3523 302.8037 -529.6877 -489.1901 31228.5116 -220.8111 -150.5935
TCL: Running FEP window  19: Lambda1 0.9000000000000002 Lambda2 0.9500000000000003 [dLambda 0.050000000000000044]
TCL: Setting parameter firsttimestep to 0
TCL: Setting parameter alchLambda to 0.9000000000000002
Info: NONBONDED TABLE R-SQUARED SPACING: 0.0625
Info: NONBONDED TABLE SIZE: 705 POINTS
TCL: Setting parameter alchLambda2 to 0.9500000000000003
Info: NONBONDED TABLE R-SQUARED SPACING: 0.0625
Info: NONBONDED TABLE SIZE: 705 POINTS
TCL: Running for 1500000 steps
ETITLE: TS BOND ANGLE DIHED IMPRP ELECT VDW BOUNDARY MISC KINETIC TOTAL TEMP POTENTIAL TOTALAVG TEMPAVG PRESSURE GPRESSURE VOLUME PRESSAVG GPRESSAVG
ENERGY: 0 3.1323 2.2986 1.1186 0.0000 -10825.4561 1438.9340 0.0000 0.0000 1726.9513 -7653.0214 291.2825 -9379.9726 -7653.0214 291.2825 -559.0812 -484.2194 31228.5116 -559.0812 -484.2194
ENERGY: 300000 3.1240 2.6486 1.4879 0.0000 -10815.6440 1467.0589 0.0000 0.0000 1728.4510 -7612.8736 291.5355 -9341.3246 -7574.3921 295.1715 -31.5530 44.1712 30830.2647 -164.0510 -109.2076
ENERGY: 600000 2.9289 2.8915 1.3046 0.0000 -10902.7784 1602.4677 0.0000 0.0000 1756.4657 -7536.7202 296.2607 -9293.1858 -7571.8802 296.0179 1085.6182 1139.2050 31030.7445 -14.9863 58.7171
ENERGY: 900000 4.2467 1.3478 2.1765 0.0000 -10699.1893 1395.3227 0.0000 0.0000 1720.4548 -7575.6409 290.1868 -9296.0957 -7561.2606 296.7529 -495.5979 -429.7202 31250.4306 -107.7094 -30.6522
ENERGY: 1200000 2.0101 3.0219 1.4990 0.0000 -10837.5765 1444.3439 0.0000 0.0000 1712.8159 -7673.8857 288.8983 -9386.7016 -7563.1441 297.4458 -75.9757 -10.3093 30663.3311 -49.4541 24.3932
ENERGY: 1500000 2.6230 2.8731 1.7996 0.0000 -10806.7338 1448.3060 0.0000 0.0000 1835.4339 -7515.6983 309.5801 -9351.1322 -7562.7844 297.9257 41.7402 102.6536 30641.2763 -67.5272 4.6700
TCL: Running FEP window  20: Lambda1 0.9500000000000003 Lambda2 1.0    [dLambda 0.04999999999999971]
TCL: Setting parameter firsttimestep to 0
TCL: Setting parameter alchLambda to 0.9500000000000003
Info: NONBONDED TABLE R-SQUARED SPACING: 0.0625
Info: NONBONDED TABLE SIZE: 705 POINTS
TCL: Setting parameter alchLambda2 to 1.0
Info: NONBONDED TABLE R-SQUARED SPACING: 0.0625
Info: NONBONDED TABLE SIZE: 705 POINTS
TCL: Running for 1500000 steps
ETITLE: TS BOND ANGLE DIHED IMPRP ELECT VDW BOUNDARY MISC KINETIC TOTAL TEMP POTENTIAL TOTALAVG TEMPAVG PRESSURE GPRESSURE VOLUME PRESSAVG GPRESSAVG
ENERGY: 0 2.6230 2.8731 1.7996 0.0000 -10806.9592 1450.1062 0.0000 0.0000 1834.5728 -7514.9845 309.4349 -9349.5574 -7514.9845 309.4349 62.3118 141.9717 30641.2763 62.3118 141.9717
ENERGY: 300000 3.5952 2.2638 4.7316 0.0000 -10964.3867 1518.6434 0.0000 0.0000 1704.8549 -7730.2977 287.5556 -9435.1526 -7582.1138 301.0415 519.5221 559.6200 30365.3284 241.5569 305.8919
ENERGY: 600000 2.7175 3.2883 3.6720 0.0000 -10835.3168 1456.3794 0.0000 0.0000 1733.3450 -7635.9145 292.3609 -9369.2595 -7536.6609 302.2291 -266.9430 -240.8119 31166.6575 227.8875 291.0893
ENERGY: 900000 1.9071 3.3745 2.4492 0.0000 -10861.3773 1510.9217 0.0000 0.0000 1735.5516 -7607.1732 292.7331 -9342.7248 -7553.0811 300.0721 503.6008 567.2900 30531.2716 68.8404 125.4390
ENERGY: 1200000 1.9894 1.2762 3.1996 0.0000 -10883.1526 1505.6660 0.0000 0.0000 1763.5440 -7607.4774 297.4546 -9371.0214 -7561.5044 299.6317 559.5980 630.4801 30415.2347 -36.2906 26.0856
ENERGY: 1500000 2.2226 0.7618 2.7430 0.0000 -10681.0449 1362.2661 0.0000 0.0000 1794.4889 -7518.5625 302.6740 -9313.0514 -7553.6459 300.4829 -721.4325 -618.3447 30905.5427 -35.2957 29.1952
TCL: Exiting due to exit command.
