Info: SIMULATION PARAMETERS:
Info: TIMESTEP               2
Info: NUMBER OF STEPS        0
Info: STEPS PER CYCLE        10
Info: PERIODIC CELL BASIS 1  28.9974 0 0
Info: PERIODIC CELL BASIS 2  0 32.4476 0
Info: PERIODIC CELL BASIS 3  0 0 31.9507
Info: PERIODIC CELL CENTER   0 0 0
Info: WRAPPING WATERS AROUND PERIODIC BOUNDARIES ON OUTPUT.
Info: WRAPPING ALL CLUSTERS AROUND PERIODIC BOUNDARIES ON OUTPUT.
Info: FIRST LDB TIMESTEP     50
Info: LAST LDB TIMESTEP     -1
Info: HOM BACKGROUND SCALING 1
Info: PME BACKGROUND SCALING 1
Info: MIN ATOMS PER PATCH    40
Info: EMPTY PATCH LOAD       40 ATOMS
Info: VELOCITY FILE          mobley_2782339_equil.vel
Info: CENTER OF MASS MOVING INITIALLY? NO
Info: DIELECTRIC             1
Info: EXCLUDE                SCALED ONE-FOUR
Info: 1-4 ELECTROSTATICS SCALED BY 0.833333
Info: MODIFIED 1-4 VDW PARAMETERS WILL BE USED
Info: DCD FILENAME           mobley_2782339_prod.dcd
Info: DCD FREQUENCY          100000
Info: DCD FIRST STEP         100000
Info: DCD FILE WILL CONTAIN UNIT CELL DATA
Info: XST FILENAME           mobley_2782339_prod.xst
Info: XST FREQUENCY          100000
Info: NO VELOCITY DCD OUTPUT
Info: NO FORCE DCD OUTPUT
Info: OUTPUT FILENAME        mobley_2782339_prod
Info: BINARY OUTPUT FILES WILL BE USED
Info: RESTART FILENAME       mobley_2782339_prod.restart
Info: RESTART FREQUENCY      100000
Info: BINARY RESTART FILES WILL BE USED
Info: CUTOFF                 9
Info: PAIRLIST DISTANCE      11
Info: PAIRLIST SHRINK RATE   0.01
Info: PAIRLIST GROW RATE     0.01
Info: PAIRLIST TRIGGER       0.3
Info: PAIRLISTS PER CYCLE    2
Info: PAIRLISTS ENABLED
Info: MARGIN                 2
Info: HYDROGEN GROUP CUTOFF  2.5
Info: PATCH DIMENSION        15.5
Info: ENERGY OUTPUT STEPS    100000
Info: ENERGY EVALUATION STEPS    100000
Info: OUTPUT ENERGY PRECISION 4
Info: CROSSTERM ENERGY INCLUDED IN DIHEDRAL
Info: TIMING OUTPUT STEPS    1000000
Info: PRESSURE OUTPUT STEPS  100000
Info: ALCHEMICAL FEP ON
Info: FEP CURRENT LAMBDA VALUE     0
Info: FEP COMPARISON LAMBDA VALUE  0.05
Info: FEP INTRA-ALCHEMICAL NON-BONDED INTERACTIONS WILL BE RETAINED
Info: FEP INTRA-ALCHEMICAL BONDED INTERACTIONS WILL BE RETAINED
Info: FEP VDW SHIFTING COEFFICIENT 5
Info: FEP ELEC. ACTIVE FOR ANNIHILATED PARTICLES BETWEEN LAMBDA = 0 AND LAMBDA = 0.5
Info: FEP ELEC. ACTIVE FOR EXNIHILATED PARTICLES BETWEEN LAMBDA = 0.5 AND LAMBDA = 1
Info: FEP VDW ACTIVE FOR ANNIHILATED PARTICLES BETWEEN LAMBDA = 0 AND LAMBDA = 1
Info: FEP VDW ACTIVE FOR EXNIHILATED PARTICLES BETWEEN LAMBDA = 0 AND LAMBDA = 1
Info: FEP BOND ACTIVE FOR ANNIHILATED PARTICLES BETWEEN LAMBDA = 1 AND LAMBDA = 1
Info: FEP BOND ACTIVE FOR EXNIHILATED PARTICLES BETWEEN LAMBDA = 0 AND LAMBDA = 0
Info: LANGEVIN DYNAMICS ACTIVE
Info: LANGEVIN TEMPERATURE   300
Info: LANGEVIN USING BBK INTEGRATOR
Info: LANGEVIN DAMPING COEFFICIENT IS 1 INVERSE PS
Info: LANGEVIN DYNAMICS APPLIED TO HYDROGENS
Info: LANGEVIN PISTON PRESSURE CONTROL ACTIVE
Info:        TARGET PRESSURE IS 1.01325 BAR
Info:     OSCILLATION PERIOD IS 50 FS
Info:             DECAY TIME IS 25 FS
Info:     PISTON TEMPERATURE IS 300 K
Info:       PRESSURE CONTROL IS GROUP-BASED
Info:    INITIAL STRAIN RATE IS -4.22372e-05 -4.22372e-05 -4.22372e-05
Info:       CELL FLUCTUATION IS ISOTROPIC
Info: PARTICLE MESH EWALD (PME) ACTIVE
Info: PME TOLERANCE               1e-06
Info: PME EWALD COEFFICIENT       0.348832
Info: PME INTERPOLATION ORDER     4
Info: PME GRID DIMENSIONS         32 36 32
Info: PME MAXIMUM GRID SPACING    1
Info: PME CALCULATION WILL BE PERFORMED ON GPU
Info: FULL ELECTROSTATIC EVALUATION FREQUENCY      2
Info: USING VERLET I (r-RESPA) MTS SCHEME.
Info: C1 SPLITTING OF LONG RANGE ELECTROSTATICS
Info: PLACING ATOMS IN PATCHES BY HYDROGEN GROUPS
Info: RIGID BONDS TO HYDROGEN : ALL
Info:         ERROR TOLERANCE : 1e-08
Info:          MAX ITERATIONS : 100
Info: RIGID WATER USING SETTLE ALGORITHM
Info: RANDOM NUMBER SEED     1743578508
Info: USE HYDROGEN BONDS?    NO
Info: Using AMBER format force field!
Info: AMBER PARM FILE        mobley_2782339.prmtop
Info: COORDINATE PDB         mobley_2782339.pdb
Info: Exclusions will be read from PARM file!
Info: SCNB (VDW SCALING)     2
Info: USING ARITHMETIC MEAN TO COMBINE L-J SIGMA PARAMETERS
Info: BINARY COORDINATES     mobley_2782339_equil.coor
Info: SUMMARY OF PARAMETERS:
Info: 8 BONDS
Info: 8 ANGLES
Info:   8 HARMONIC
Info:   0 COSINE-BASED
Info: 6 DIHEDRAL
Info: 0 IMPROPER
Info: 0 CROSSTERM
Info: 0 VDW
Info: 28 VDW_PAIRS
Info: 0 NBTHOLE_PAIRS
Info: To read alchdata from file: mobley_2782339.pdb
Info: To read alchflag data from column: 5
Info: STRUCTURE SUMMARY:
Info: 2905 ATOMS
Info: 2906 BONDS
Info: 27 ANGLES
Info: 51 DIHEDRALS
Info: 0 IMPROPERS
Info: 0 CROSSTERMS
Info: 2965 EXCLUSIONS
Info: 2894 RIGID BONDS
Info: ALCH: 0 ATOMS TO DISAPPEAR IN FINAL STATE
Info: ALCH: 16 ATOMS TO APPEAR IN FINAL STATE
Info: 5821 DEGREES OF FREEDOM
Info: 974 HYDROGEN GROUPS
Info: 3 ATOMS IN LARGEST HYDROGEN GROUP
Info: 974 MIGRATION GROUPS
Info: 3 ATOMS IN LARGEST MIGRATION GROUP
Info: TOTAL MASS = 17496.5 amu
Info: TOTAL CHARGE = 5.21541e-08 e
Info: MASS DENSITY = 0.966474 g/cm^3
Info: ATOM DENSITY = 0.0966329 atoms/A^3
Info: ADDED 0 IMPLICIT EXCLUSIONS
Info: NONBONDED TABLE R-SQUARED SPACING: 0.0625
Info: NONBONDED TABLE SIZE: 705 POINTS
Info: REMOVING COM VELOCITY 0.0558677 -0.116688 -0.00507671
Info: Use 3D box decompostion in PME FFT.
Info: Updated CUDA force table with 4096 elements.
Info: Updated CUDA LJ table with 7 x 7 elements.
Info: Found 18 unique exclusion lists needing 40 bytes
TCL: Running for 1500000 steps
ETITLE: TS BOND ANGLE DIHED IMPRP ELECT VDW BOUNDARY MISC KINETIC TOTAL TEMP POTENTIAL TOTALAVG TEMPAVG PRESSURE GPRESSURE VOLUME PRESSAVG GPRESSAVG
ENERGY: 0 3.0957 25.7023 11.1730 0.0000 -10552.6696 1442.4910 0.0000 0.0000 1694.1093 -7376.0983 292.9100 -9070.2076 -7376.0983 292.9100 16.2141 109.0361 30062.2258 16.2141 109.0361
ENERGY: 300000 4.2396 23.8383 13.2448 0.0000 -10616.5088 1424.8968 0.0000 0.0000 1726.4876 -7423.8017 298.5082 -9150.2893 -7396.8283 298.3705 80.0788 76.3930 29722.3066 101.8296 185.2213
ENERGY: 600000 4.5913 22.7068 12.2507 0.0000 -10437.6538 1335.3405 0.0000 0.0000 1685.6483 -7377.1163 291.4471 -9062.7646 -7408.0524 297.8913 -675.6874 -607.0619 30162.2362 -167.1686 -98.2048
ENERGY: 900000 5.4304 24.2122 12.1496 0.0000 -10698.3691 1507.5172 0.0000 0.0000 1783.4419 -7365.6178 308.3555 -9149.0597 -7409.5216 297.9203 765.5850 794.3757 29835.7917 36.7230 106.6086
ENERGY: 1200000 8.8772 25.9005 11.6346 0.0000 -10607.1786 1393.6611 0.0000 0.0000 1745.3438 -7421.7615 301.7684 -9167.1053 -7407.1047 298.2366 -213.8721 -156.6817 29639.9855 -3.9287 61.4110
ENERGY: 1500000 4.5786 23.6965 13.0926 0.0000 -10572.4123 1445.4552 0.0000 0.0000 1737.0944 -7348.4951 300.3421 -9085.5895 -7400.2377 298.0740 364.2993 452.3982 29860.2475 81.9635 145.7585
TCL: Running FEP window   2: Lambda1 0.05   Lambda2 0.1    [dLambda 0.05  ]
TCL: Setting parameter firsttimestep to 0
TCL: Setting parameter alchLambda to 0.05
Info: NONBONDED TABLE R-SQUARED SPACING: 0.0625
Info: NONBONDED TABLE SIZE: 705 POINTS
TCL: Setting parameter alchLambda2 to 0.1
Info: NONBONDED TABLE R-SQUARED SPACING: 0.0625
Info: NONBONDED TABLE SIZE: 705 POINTS
TCL: Running for 1500000 steps
ETITLE: TS BOND ANGLE DIHED IMPRP ELECT VDW BOUNDARY MISC KINETIC TOTAL TEMP POTENTIAL TOTALAVG TEMPAVG PRESSURE GPRESSURE VOLUME PRESSAVG GPRESSAVG
ENERGY: 0 4.5785 23.6965 13.0926 0.0000 -10572.4120 1447.5349 0.0000 0.0000 1736.2209 -7347.2885 300.1911 -9083.5094 -7347.2885 300.1911 384.3598 460.5275 29860.2475 384.3598 460.5275
ENERGY: 300000 3.2476 23.6114 11.5554 0.0000 -10782.9210 1557.0383 0.0000 0.0000 1693.1536 -7494.3147 292.7448 -9187.4683 -7429.3024 299.1672 780.6544 893.2454 29407.6145 468.5919 572.0128
ENERGY: 600000 6.0266 25.9545 11.5432 0.0000 -10730.8830 1499.3545 0.0000 0.0000 1707.1536 -7480.8506 295.1654 -9188.0042 -7422.9547 298.6467 662.1053 731.2888 29225.0365 427.2196 520.3553
ENERGY: 900000 5.9892 23.4068 15.2786 0.0000 -10523.6943 1326.8243 0.0000 0.0000 1672.7009 -7479.4944 289.2085 -9152.1953 -7432.2114 297.4460 -694.5469 -607.9967 29520.3242 196.6216 279.2746
ENERGY: 1200000 2.9824 22.6064 14.1350 0.0000 -10678.2167 1450.4046 0.0000 0.0000 1741.6355 -7446.4527 301.1272 -9188.0882 -7433.9717 297.2488 -127.8588 -43.7043 29689.7579 167.2770 250.2291
ENERGY: 1500000 5.2002 20.9418 11.6558 0.0000 -10542.6752 1379.9505 0.0000 0.0000 1710.6437 -7414.2832 295.7688 -9124.9269 -7434.6162 296.9777 -462.1797 -355.6823 29835.9523 157.1788 242.4890
TCL: Running FEP window   3: Lambda1 0.1    Lambda2 0.15000000000000002 [dLambda 0.05000000000000002]
TCL: Setting parameter firsttimestep to 0
TCL: Setting parameter alchLambda to 0.1
Info: NONBONDED TABLE R-SQUARED SPACING: 0.0625
Info: NONBONDED TABLE SIZE: 705 POINTS
TCL: Setting parameter alchLambda2 to 0.15000000000000002
Info: NONBONDED TABLE R-SQUARED SPACING: 0.0625
Info: NONBONDED TABLE SIZE: 705 POINTS
TCL: Running for 1500000 steps
ETITLE: TS BOND ANGLE DIHED IMPRP ELECT VDW BOUNDARY MISC KINETIC TOTAL TEMP POTENTIAL TOTALAVG TEMPAVG PRESSURE GPRESSURE VOLUME PRESSAVG GPRESSAVG
ENERGY: 0 5.2001 20.9418 11.6558 0.0000 -10542.6762 1381.7867 0.0000 0.0000 1709.7928 -7413.2989 295.6217 -9123.0917 -7413.2989 295.6217 -427.3299 -344.5851 29835.9523 -427.3299 -344.5851
ENERGY: 300000 3.2932 26.6294 11.9793 0.0000 -10653.1414 1491.4573 0.0000 0.0000 1734.7364 -7385.0458 299.9344 -9119.7822 -7377.3087 299.1889 363.1507 415.5203 30201.7282 -359.6593 -301.0174
ENERGY: 600000 2.3286 25.4037 10.3553 0.0000 -10621.5089 1446.3342 0.0000 0.0000 1716.1373 -7420.9499 296.7186 -9137.0871 -7383.5332 300.2370 92.8780 191.7904 30033.5953 20.9943 92.8930
ENERGY: 900000 5.1862 25.2632 9.8203 0.0000 -10634.1147 1427.8624 0.0000 0.0000 1768.2909 -7397.6917 305.7359 -9165.9826 -7393.5862 300.4535 129.9840 236.3159 29689.8471 -82.1627 -5.4218
ENERGY: 1200000 2.8686 23.7429 12.6754 0.0000 -10563.1728 1422.8640 0.0000 0.0000 1718.4735 -7382.5484 297.1226 -9101.0218 -7387.7831 300.8594 19.1462 45.8175 30177.1226 -3.1209 64.7737
ENERGY: 1500000 2.1127 25.1890 10.2676 0.0000 -10618.7569 1386.2520 0.0000 0.0000 1700.8355 -7494.1001 294.0730 -9194.9357 -7387.2026 300.7751 -361.3882 -279.6684 29607.0118 -7.2734 59.5152
TCL: Running FEP window   4: Lambda1 0.15000000000000002 Lambda2 0.2    [dLambda 0.04999999999999999]
TCL: Setting parameter firsttimestep to 0
TCL: Setting parameter alchLambda to 0.15000000000000002
Info: NONBONDED TABLE R-SQUARED SPACING: 0.0625
Info: NONBONDED TABLE SIZE: 705 POINTS
TCL: Setting parameter alchLambda2 to 0.2
Info: NONBONDED TABLE R-SQUARED SPACING: 0.0625
Info: NONBONDED TABLE SIZE: 705 POINTS
TCL: Running for 1500000 steps
ETITLE: TS BOND ANGLE DIHED IMPRP ELECT VDW BOUNDARY MISC KINETIC TOTAL TEMP POTENTIAL TOTALAVG TEMPAVG PRESSURE GPRESSURE VOLUME PRESSAVG GPRESSAVG
ENERGY: 0 2.1127 25.1890 10.2676 0.0000 -10618.7582 1387.5657 0.0000 0.0000 1699.9845 -7493.6387 293.9258 -9193.6232 -7493.6387 293.9258 -353.2734 -270.4595 29607.0118 -353.2734 -270.4595
ENERGY: 300000 5.7576 23.0741 12.2153 0.0000 -10666.7564 1450.5274 0.0000 0.0000 1736.6099 -7438.5721 300.2583 -9175.1820 -7440.7687 298.7662 -96.2546 -71.1235 29635.8773 -180.5260 -106.7686
ENERGY: 600000 3.7366 23.6474 10.9416 0.0000 -10648.1957 1473.1042 0.0000 0.0000 1770.6220 -7366.1439 306.1390 -9136.7659 -7419.3604 300.5955 180.8010 321.1934 29710.6486 52.4442 135.5349
ENERGY: 900000 6.0462 25.1737 14.2040 0.0000 -10595.1472 1481.9482 0.0000 0.0000 1763.6820 -7304.0931 304.9391 -9067.7751 -7402.0380 300.5617 733.8621 806.2388 30159.5398 130.7910 211.0060
ENERGY: 1200000 6.9291 29.6410 14.4192 0.0000 -10508.2107 1371.4763 0.0000 0.0000 1743.7007 -7342.0444 301.4843 -9085.7451 -7396.7700 299.7756 -304.6982 -283.4629 29825.5590 113.2235 184.3092
ENERGY: 1500000 5.8510 24.3746 13.2139 0.0000 -10703.9067 1510.3168 0.0000 0.0000 1775.3035 -7374.8468 306.9484 -9150.1503 -7396.1920 299.4916 998.5056 1021.4795 29415.5179 168.1718 228.2013
TCL: Running FEP window   5: Lambda1 0.2    Lambda2 0.25   [dLambda 0.04999999999999999]
TCL: Setting parameter firsttimestep to 0
TCL: Setting parameter alchLambda to 0.2
Info: NONBONDED TABLE R-SQUARED SPACING: 0.0625
Info: NONBONDED TABLE SIZE: 705 POINTS
TCL: Setting parameter alchLambda2 to 0.25
Info: NONBONDED TABLE R-SQUARED SPACING: 0.0625
Info: NONBONDED TABLE SIZE: 705 POINTS
TCL: Running for 1500000 steps
ETITLE: TS BOND ANGLE DIHED IMPRP ELECT VDW BOUNDARY MISC KINETIC TOTAL TEMP POTENTIAL TOTALAVG TEMPAVG PRESSURE GPRESSURE VOLUME PRESSAVG GPRESSAVG
ENERGY: 0 5.8510 24.3746 13.2139 0.0000 -10703.9064 1511.3772 0.0000 0.0000 1774.4432 -7374.6464 306.7997 -9149.0896 -7374.6464 306.7997 955.1556 1033.7904 29415.5179 955.1556 1033.7904
ENERGY: 300000 4.5115 29.4689 13.8666 0.0000 -10644.5773 1413.8189 0.0000 0.0000 1793.6468 -7389.2648 310.1199 -9182.9116 -7392.0424 305.8509 -128.0449 -68.0656 29450.1593 83.8834 149.7516
ENERGY: 600000 2.8356 26.5767 17.5655 0.0000 -10626.4374 1447.6566 0.0000 0.0000 1784.8657 -7346.9373 308.6017 -9131.8030 -7386.5624 303.3454 412.2037 532.7301 29445.1352 99.4750 177.0035
ENERGY: 900000 4.3907 22.2127 11.6605 0.0000 -10629.9926 1469.1332 0.0000 0.0000 1744.6944 -7377.9012 301.6561 -9122.5956 -7388.8252 303.0943 499.3084 560.3892 29860.3047 77.1953 146.8185
ENERGY: 1200000 9.3920 23.2813 11.3501 0.0000 -10621.4504 1396.9603 0.0000 0.0000 1752.6748 -7427.7919 303.0359 -9180.4667 -7391.6985 303.0418 -261.7323 -210.5135 29784.3532 32.1311 92.8599
ENERGY: 1500000 5.1816 27.8641 13.4219 0.0000 -10786.8413 1543.7568 0.0000 0.0000 1736.7911 -7459.8257 300.2897 -9196.6168 -7405.3052 301.5807 981.6464 980.8025 29389.9583 213.6553 274.8695
TCL: Running FEP window   6: Lambda1 0.25   Lambda2 0.3    [dLambda 0.04999999999999999]
TCL: Setting parameter firsttimestep to 0
TCL: Setting parameter alchLambda to 0.25
Info: NONBONDED TABLE R-SQUARED SPACING: 0.0625
Info: NONBONDED TABLE SIZE: 705 POINTS
TCL: Setting parameter alchLambda2 to 0.3
Info: NONBONDED TABLE R-SQUARED SPACING: 0.0625
Info: NONBONDED TABLE SIZE: 705 POINTS
TCL: Running for 1500000 steps
ETITLE: TS BOND ANGLE DIHED IMPRP ELECT VDW BOUNDARY MISC KINETIC TOTAL TEMP POTENTIAL TOTALAVG TEMPAVG PRESSURE GPRESSURE VOLUME PRESSAVG GPRESSAVG
ENERGY: 0 5.1816 27.8641 13.4219 0.0000 -10786.8408 1545.7407 0.0000 0.0000 1735.9503 -7458.6821 300.1443 -9194.6325 -7458.6821 300.1443 911.7947 997.1929 29389.9583 911.7947 997.1929
ENERGY: 300000 4.2327 25.8181 14.3327 0.0000 -10621.1516 1395.8312 0.0000 0.0000 1780.4731 -7400.4638 307.8422 -9180.9369 -7405.6022 304.0160 -282.2129 -189.5362 29676.8073 382.3471 466.9772
ENERGY: 600000 4.1604 23.8007 12.7713 0.0000 -10703.7576 1499.1500 0.0000 0.0000 1721.8367 -7442.0384 297.7041 -9163.8751 -7404.5271 302.7756 408.9884 503.1668 29916.4794 282.8081 368.1439
ENERGY: 900000 5.6567 23.8008 13.1510 0.0000 -10692.9200 1453.2119 0.0000 0.0000 1782.2289 -7414.8707 308.1458 -9197.0996 -7394.1577 303.5856 -112.1823 -45.7200 29837.1004 154.2232 230.2491
ENERGY: 1200000 5.1239 22.8387 13.5309 0.0000 -10275.9976 1284.6390 0.0000 0.0000 1792.9242 -7156.9409 309.9950 -8949.8651 -7375.3446 303.6431 -776.1469 -761.9145 30538.2939 76.4476 139.0341
ENERGY: 1500000 4.2218 27.6036 12.2055 0.0000 -10628.7746 1448.4512 0.0000 0.0000 1744.2114 -7392.0812 301.5726 -9136.2926 -7384.9898 301.6580 233.2701 275.8429 29868.4408 72.1498 134.8503
TCL: Running FEP window   7: Lambda1 0.3    Lambda2 0.35   [dLambda 0.04999999999999999]
TCL: Setting parameter firsttimestep to 0
TCL: Setting parameter alchLambda to 0.3
Info: NONBONDED TABLE R-SQUARED SPACING: 0.0625
Info: NONBONDED TABLE SIZE: 705 POINTS
TCL: Setting parameter alchLambda2 to 0.35
Info: NONBONDED TABLE R-SQUARED SPACING: 0.0625
Info: NONBONDED TABLE SIZE: 705 POINTS
TCL: Running for 1500000 steps
ETITLE: TS BOND ANGLE DIHED IMPRP ELECT VDW BOUNDARY MISC KINETIC TOTAL TEMP POTENTIAL TOTALAVG TEMPAVG PRESSURE GPRESSURE VOLUME PRESSAVG GPRESSAVG
ENERGY: 0 4.2218 27.6036 12.2055 0.0000 -10628.7746 1448.5397 0.0000 0.0000 1743.3504 -7392.8536 301.4237 -9136.2040 -7392.8536 301.4237 192.2313 278.7072 29868.4408 192.2313 278.7072
ENERGY: 300000 5.0658 22.0683 10.8714 0.0000 -10686.9947 1486.2470 0.0000 0.0000 1754.1981 -7408.5440 303.2993 -9162.7421 -7434.2818 301.3718 678.4727 725.8058 29612.6981 345.4067 420.6867
ENERGY: 600000 4.7456 24.9459 13.6178 0.0000 -10513.0907 1376.0435 0.0000 0.0000 1759.4857 -7334.2522 304.2135 -9093.7378 -7399.5926 302.2458 -257.7517 -216.5547 29756.7486 226.7808 295.0097
ENERGY: 900000 2.5622 23.5436 14.4838 0.0000 -10688.0810 1460.6973 0.0000 0.0000 1771.4691 -7415.3250 306.2855 -9186.7941 -7395.6038 301.8772 446.3545 489.0370 29389.4998 200.3339 272.2672
ENERGY: 1200000 5.8094 28.7404 15.9205 0.0000 -10504.5886 1361.5318 0.0000 0.0000 1719.3196 -7373.2667 297.2689 -9092.5863 -7391.6790 301.0830 -613.4543 -555.3693 30176.9099 146.4706 209.9208
ENERGY: 1500000 4.5398 24.8779 12.0060 0.0000 -10681.6804 1436.3080 0.0000 0.0000 1749.0897 -7454.8591 302.4161 -9203.9488 -7393.9260 301.1202 -155.5928 -170.4079 29898.0145 82.5400 136.0459
TCL: Running FEP window   8: Lambda1 0.35   Lambda2 0.39999999999999997 [dLambda 0.04999999999999999]
TCL: Setting parameter firsttimestep to 0
TCL: Setting parameter alchLambda to 0.35
Info: NONBONDED TABLE R-SQUARED SPACING: 0.0625
Info: NONBONDED TABLE SIZE: 705 POINTS
TCL: Setting parameter alchLambda2 to 0.39999999999999997
Info: NONBONDED TABLE R-SQUARED SPACING: 0.0625
Info: NONBONDED TABLE SIZE: 705 POINTS
TCL: Running for 1500000 steps
ETITLE: TS BOND ANGLE DIHED IMPRP ELECT VDW BOUNDARY MISC KINETIC TOTAL TEMP POTENTIAL TOTALAVG TEMPAVG PRESSURE GPRESSURE VOLUME PRESSAVG GPRESSAVG
ENERGY: 0 4.5398 24.8779 12.0060 0.0000 -10681.6808 1436.6552 0.0000 0.0000 1748.2416 -7455.3604 302.2694 -9203.6020 -7455.3604 302.2694 -239.8776 -163.1680 29898.0145 -239.8776 -163.1680
ENERGY: 300000 2.7407 25.5973 12.1497 0.0000 -10572.1487 1405.3552 0.0000 0.0000 1696.2566 -7430.0492 293.2813 -9126.3058 -7400.4666 301.2473 -147.3179 -40.9024 30053.0381 62.9886 118.2684
ENERGY: 600000 4.4988 22.5309 11.0076 0.0000 -10550.7540 1413.6189 0.0000 0.0000 1747.2563 -7351.8416 302.0991 -9099.0979 -7392.0772 300.1368 -5.7293 80.9232 30034.4035 81.9579 139.4600
ENERGY: 900000 0.5268 22.2396 11.6956 0.0000 -10631.3623 1415.1392 0.0000 0.0000 1761.9322 -7419.8289 304.6365 -9181.7612 -7410.9382 300.9767 99.3740 187.3444 29428.5823 131.0721 203.5528
ENERGY: 1200000 2.7030 25.1222 10.7382 0.0000 -10575.4762 1407.6152 0.0000 0.0000 1762.5667 -7366.7310 304.7462 -9129.2977 -7407.1986 301.9852 14.9297 101.6727 29667.2771 123.6147 190.6983
ENERGY: 1500000 2.9565 24.4488 20.0935 0.0000 -10524.0253 1412.7665 0.0000 0.0000 1769.6495 -7294.1106 305.9708 -9063.7601 -7410.1854 301.0417 179.4162 216.9383 29872.9020 127.4405 193.1917
TCL: Running FEP window   9: Lambda1 0.39999999999999997 Lambda2 0.44999999999999996 [dLambda 0.04999999999999999]
TCL: Setting parameter firsttimestep to 0
TCL: Setting parameter alchLambda to 0.39999999999999997
Info: NONBONDED TABLE R-SQUARED SPACING: 0.0625
Info: NONBONDED TABLE SIZE: 705 POINTS
TCL: Setting parameter alchLambda2 to 0.44999999999999996
Info: NONBONDED TABLE R-SQUARED SPACING: 0.0625
Info: NONBONDED TABLE SIZE: 705 POINTS
TCL: Running for 1500000 steps
ETITLE: TS BOND ANGLE DIHED IMPRP ELECT VDW BOUNDARY MISC KINETIC TOTAL TEMP POTENTIAL TOTALAVG TEMPAVG PRESSURE GPRESSURE VOLUME PRESSAVG GPRESSAVG
ENERGY: 0 2.9565 24.4488 20.0935 0.0000 -10524.0277 1412.9520 0.0000 0.0000 1768.7964 -7294.7806 305.8233 -9063.5770 -7294.7806 305.8233 160.8934 225.1436 29872.9020 160.8934 225.1436
ENERGY: 300000 5.3657 24.5484 11.7054 0.0000 -10634.2158 1483.4190 0.0000 0.0000 1702.5187 -7406.6587 294.3640 -9109.1774 -7372.1744 298.8778 385.8816 393.9535 30174.0979 164.4014 209.7574
ENERGY: 600000 6.8813 26.5842 11.3994 0.0000 -10545.2762 1409.9759 0.0000 0.0000 1731.4410 -7358.9943 299.3646 -9090.4353 -7373.5710 300.4747 111.2757 112.9535 29658.0070 -59.5429 -1.6544
ENERGY: 900000 3.7179 24.8765 12.0992 0.0000 -10516.0697 1372.8680 0.0000 0.0000 1764.8202 -7337.6879 305.1359 -9102.5081 -7380.6927 300.5056 -166.2657 -85.1855 29942.8531 -131.0901 -70.2195
ENERGY: 1200000 4.7087 25.2674 10.3346 0.0000 -10698.3211 1467.2003 0.0000 0.0000 1708.4847 -7482.3255 295.3955 -9190.8101 -7392.1875 299.9742 135.7313 190.9224 29960.7313 -98.0981 -40.0309
ENERGY: 1500000 4.9491 29.8748 12.3559 0.0000 -10685.7752 1500.6143 0.0000 0.0000 1700.5957 -7437.3853 294.0315 -9137.9810 -7396.1987 299.5465 435.1951 563.5389 29895.1999 -85.4359 -21.9875
TCL: Running FEP window  10: Lambda1 0.44999999999999996 Lambda2 0.49999999999999994 [dLambda 0.04999999999999999]
TCL: Setting parameter firsttimestep to 0
TCL: Setting parameter alchLambda to 0.44999999999999996
Info: NONBONDED TABLE R-SQUARED SPACING: 0.0625
Info: NONBONDED TABLE SIZE: 705 POINTS
TCL: Setting parameter alchLambda2 to 0.49999999999999994
Info: NONBONDED TABLE R-SQUARED SPACING: 0.0625
Info: NONBONDED TABLE SIZE: 705 POINTS
TCL: Running for 1500000 steps
ETITLE: TS BOND ANGLE DIHED IMPRP ELECT VDW BOUNDARY MISC KINETIC TOTAL TEMP POTENTIAL TOTALAVG TEMPAVG PRESSURE GPRESSURE VOLUME PRESSAVG GPRESSAVG
ENERGY: 0 4.9491 29.8748 12.3559 0.0000 -10685.7760 1499.9672 0.0000 0.0000 1699.7614 -7438.8675 293.8873 -9138.6289 -7438.8675 293.8873 467.1683 565.1095 29895.1999 467.1683 565.1095
ENERGY: 300000 6.9909 23.0240 12.7259 0.0000 -10535.2235 1430.0510 0.0000 0.0000 1768.0576 -7294.3740 305.6956 -9062.4316 -7397.9519 299.1915 159.9907 208.5569 30258.7230 255.3771 320.4780
ENERGY: 600000 3.8789 24.2874 15.8591 0.0000 -10681.9581 1493.2340 0.0000 0.0000 1763.4016 -7381.2971 304.8906 -9144.6987 -7393.6119 300.5787 725.4765 740.5584 29723.5974 312.6388 365.8275
ENERGY: 900000 5.0109 23.3044 12.3715 0.0000 -10385.4901 1340.5886 0.0000 0.0000 1731.0550 -7273.1597 299.2979 -9004.2146 -7380.4354 300.6278 -452.5096 -418.4803 30234.5005 291.0685 348.5954
ENERGY: 1200000 6.8387 23.0402 11.5709 0.0000 -10702.3649 1463.8625 0.0000 0.0000 1719.4588 -7477.5937 297.2929 -9197.0525 -7393.5866 299.6303 336.9592 459.6039 29576.3851 298.7260 366.7235
ENERGY: 1500000 2.6608 23.8790 13.0331 0.0000 -10609.9778 1488.0091 0.0000 0.0000 1792.3431 -7290.0527 309.8945 -9082.3958 -7394.6204 299.5174 808.6053 915.1017 29572.7911 220.9122 281.4271
TCL: Running FEP window  11: Lambda1 0.49999999999999994 Lambda2 0.5499999999999999 [dLambda 0.04999999999999999]
TCL: Setting parameter firsttimestep to 0
TCL: Setting parameter alchLambda to 0.49999999999999994
Info: NONBONDED TABLE R-SQUARED SPACING: 0.0625
Info: NONBONDED TABLE SIZE: 705 POINTS
TCL: Setting parameter alchLambda2 to 0.5499999999999999
Info: NONBONDED TABLE R-SQUARED SPACING: 0.0625
Info: NONBONDED TABLE SIZE: 705 POINTS
TCL: Running for 1500000 steps
ETITLE: TS BOND ANGLE DIHED IMPRP ELECT VDW BOUNDARY MISC KINETIC TOTAL TEMP POTENTIAL TOTALAVG TEMPAVG PRESSURE GPRESSURE VOLUME PRESSAVG GPRESSAVG
ENERGY: 0 2.6608 23.8790 13.0331 0.0000 -10609.9770 1488.7406 0.0000 0.0000 1791.4512 -7290.2122 309.7403 -9081.6634 -7290.2122 309.7403 818.3689 926.2957 29572.7911 818.3689 926.2957
ENERGY: 300000 7.8688 25.0150 11.4062 0.0000 -10595.5500 1463.7401 0.0000 0.0000 1778.6355 -7308.8844 307.5245 -9087.5198 -7331.9643 304.6950 775.2462 813.9143 29647.4397 479.8196 570.0926
ENERGY: 600000 5.5784 24.7019 12.3390 0.0000 -10603.1169 1433.4141 0.0000 0.0000 1706.7361 -7420.3474 295.0932 -9127.0835 -7368.9700 302.5033 160.4402 291.7553 29758.3113 282.4075 368.5338
ENERGY: 900000 3.4115 25.4193 11.6914 0.0000 -10582.6875 1352.2687 0.0000 0.0000 1741.2777 -7448.6190 301.0654 -9189.8967 -7383.6855 302.2148 -790.6044 -713.9432 30148.0393 162.2629 237.1252
ENERGY: 1200000 7.7054 24.4997 11.3418 0.0000 -10575.6166 1395.3158 0.0000 0.0000 1729.2491 -7407.5048 298.9856 -9136.7539 -7393.0476 300.1989 -243.4498 -223.1480 30048.9278 32.3076 105.3652
ENERGY: 1500000 5.0167 22.6603 17.2033 0.0000 -10679.8152 1461.2996 0.0000 0.0000 1729.3388 -7444.2964 299.0012 -9173.6353 -7399.2441 300.6976 544.1642 615.6963 29581.4983 19.3391 89.3410
TCL: Running FEP window  12: Lambda1 0.5499999999999999 Lambda2 0.6    [dLambda 0.050000000000000044]
TCL: Setting parameter firsttimestep to 0
TCL: Setting parameter alchLambda to 0.5499999999999999
Info: NONBONDED TABLE R-SQUARED SPACING: 0.0625
Info: NONBONDED TABLE SIZE: 705 POINTS
TCL: Setting parameter alchLambda2 to 0.6
Info: NONBONDED TABLE R-SQUARED SPACING: 0.0625
Info: NONBONDED TABLE SIZE: 705 POINTS
TCL: Running for 1500000 steps
ETITLE: TS BOND ANGLE DIHED IMPRP ELECT VDW BOUNDARY MISC KINETIC TOTAL TEMP POTENTIAL TOTALAVG TEMPAVG PRESSURE GPRESSURE VOLUME PRESSAVG GPRESSAVG
ENERGY: 0 5.0167 22.6603 17.2033 0.0000 -10679.1542 1462.8334 0.0000 0.0000 1728.4876 -7442.9529 298.8540 -9171.4405 -7442.9529 298.8540 563.9739 635.7986 29581.4983 563.9739 635.7986
ENERGY: 300000 4.9294 21.7919 15.0804 0.0000 -10626.2798 1481.3399 0.0000 0.0000 1750.9951 -7352.1431 302.7455 -9103.1382 -7373.8018 303.3457 512.3211 592.0182 29923.5440 306.1742 380.3655
ENERGY: 600000 5.4449 22.7206 11.5905 0.0000 -10529.8109 1361.2254 0.0000 0.0000 1701.8486 -7426.9809 294.2481 -9128.8296 -7376.8259 300.2166 -532.6609 -537.7675 29783.4910 85.4697 129.7748
ENERGY: 900000 4.3801 25.0735 12.4140 0.0000 -10641.6029 1473.1463 0.0000 0.0000 1705.1260 -7421.4631 294.8148 -9126.5891 -7390.8602 299.0158 186.6457 229.9268 30175.3752 147.3560 203.2152
ENERGY: 1200000 4.8579 24.2071 10.2638 0.0000 -10562.8813 1405.1475 0.0000 0.0000 1699.2465 -7419.1584 293.7982 -9118.4049 -7391.5504 299.5621 -105.0376 0.6061 29770.7157 178.4941 242.0734
ENERGY: 1500000 6.6631 26.2379 11.1868 0.0000 -10538.1654 1367.5581 0.0000 0.0000 1695.8571 -7430.6624 293.2122 -9126.5195 -7398.8710 298.9989 -661.5257 -558.2999 30229.7372 94.8846 163.0097
TCL: Running FEP window  13: Lambda1 0.6    Lambda2 0.65   [dLambda 0.050000000000000044]
TCL: Setting parameter firsttimestep to 0
TCL: Setting parameter alchLambda to 0.6
Info: NONBONDED TABLE R-SQUARED SPACING: 0.0625
Info: NONBONDED TABLE SIZE: 705 POINTS
TCL: Setting parameter alchLambda2 to 0.65
Info: NONBONDED TABLE R-SQUARED SPACING: 0.0625
Info: NONBONDED TABLE SIZE: 705 POINTS
TCL: Running for 1500000 steps
ETITLE: TS BOND ANGLE DIHED IMPRP ELECT VDW BOUNDARY MISC KINETIC TOTAL TEMP POTENTIAL TOTALAVG TEMPAVG PRESSURE GPRESSURE VOLUME PRESSAVG GPRESSAVG
ENERGY: 0 6.6630 26.2379 11.1868 0.0000 -10538.8462 1367.4920 0.0000 0.0000 1694.9979 -7432.2686 293.0636 -9127.2665 -7432.2686 293.0636 -616.0186 -546.7473 30229.7372 -616.0186 -546.7473
ENERGY: 300000 3.7834 24.9092 11.4751 0.0000 -10528.9870 1375.1434 0.0000 0.0000 1714.1863 -7399.4895 296.3813 -9113.6759 -7418.2961 295.0349 -65.9973 -55.5186 29932.6531 -362.5376 -299.2416
ENERGY: 600000 5.5358 25.6004 11.4496 0.0000 -10655.9045 1513.1601 0.0000 0.0000 1786.2333 -7313.9254 308.8382 -9100.1587 -7417.8749 297.9643 747.2570 812.2618 29894.2826 24.3828 97.7211
ENERGY: 900000 4.3141 22.6875 10.3974 0.0000 -10529.5909 1410.6529 0.0000 0.0000 1696.3882 -7385.1508 293.3040 -9081.5390 -7428.1745 297.7062 515.4185 513.7319 29473.9101 114.0799 180.9870
ENERGY: 1200000 3.2523 27.5528 12.0178 0.0000 -10559.8600 1422.5099 0.0000 0.0000 1769.1485 -7325.3788 305.8842 -9094.5273 -7417.6588 298.5421 269.7646 341.4369 29965.4812 80.1970 148.6686
ENERGY: 1500000 4.6032 22.6337 10.6188 0.0000 -10613.6972 1418.2261 0.0000 0.0000 1723.0323 -7434.5832 297.9108 -9157.6155 -7424.9123 298.2384 -102.3768 7.9124 30022.2493 -4.2152 63.3858
TCL: Running FEP window  14: Lambda1 0.65   Lambda2 0.7000000000000001 [dLambda 0.050000000000000044]
TCL: Setting parameter firsttimestep to 0
TCL: Setting parameter alchLambda to 0.65
Info: NONBONDED TABLE R-SQUARED SPACING: 0.0625
Info: NONBONDED TABLE SIZE: 705 POINTS
TCL: Setting parameter alchLambda2 to 0.7000000000000001
Info: NONBONDED TABLE R-SQUARED SPACING: 0.0625
Info: NONBONDED TABLE SIZE: 705 POINTS
TCL: Running for 1500000 steps
ETITLE: TS BOND ANGLE DIHED IMPRP ELECT VDW BOUNDARY MISC KINETIC TOTAL TEMP POTENTIAL TOTALAVG TEMPAVG PRESSURE GPRESSURE VOLUME PRESSAVG GPRESSAVG
ENERGY: 0 4.6032 22.6337 10.6188 0.0000 -10614.4161 1417.7693 0.0000 0.0000 1722.1773 -7436.6140 297.7629 -9158.7912 -7436.6140 297.7629 -74.3017 17.1303 30022.2493 -74.3017 17.1303
ENERGY: 300000 5.9213 25.4995 18.8770 0.0000 -10648.6447 1480.7524 0.0000 0.0000 1713.6448 -7403.9498 296.2877 -9117.5946 -7373.1936 299.4287 453.2757 536.0761 29815.4788 166.9584 240.3467
ENERGY: 600000 4.2797 23.8089 12.1958 0.0000 -10558.1977 1368.8628 0.0000 0.0000 1677.8968 -7471.1538 290.1069 -9149.0506 -7418.1809 297.0461 -596.3196 -522.3355 30293.4891 -49.7828 18.7201
ENERGY: 900000 3.6400 25.7386 14.3785 0.0000 -10640.7265 1455.9356 0.0000 0.0000 1715.6760 -7425.3578 296.6389 -9141.0338 -7407.1721 298.4506 225.4994 192.7699 29748.3176 33.9522 86.9379
ENERGY: 1200000 4.2973 22.8512 9.9949 0.0000 -10465.4009 1296.7403 0.0000 0.0000 1737.5526 -7393.9645 300.4213 -9131.5171 -7403.4141 299.3847 -954.6668 -864.9754 30386.7762 -132.7145 -73.7690
ENERGY: 1500000 3.4538 26.0100 11.2116 0.0000 -10611.2559 1417.1915 0.0000 0.0000 1707.3458 -7446.0431 295.1986 -9153.3889 -7402.3744 299.8240 -103.4749 -32.4676 29913.5667 -142.7535 -80.9347
TCL: Running FEP window  15: Lambda1 0.7000000000000001 Lambda2 0.7500000000000001 [dLambda 0.050000000000000044]
TCL: Setting parameter firsttimestep to 0
TCL: Setting parameter alchLambda to 0.7000000000000001
Info: NONBONDED TABLE R-SQUARED SPACING: 0.0625
Info: NONBONDED TABLE SIZE: 705 POINTS
TCL: Setting parameter alchLambda2 to 0.7500000000000001
Info: NONBONDED TABLE R-SQUARED SPACING: 0.0625
Info: NONBONDED TABLE SIZE: 705 POINTS
TCL: Running for 1500000 steps
ETITLE: TS BOND ANGLE DIHED IMPRP ELECT VDW BOUNDARY MISC KINETIC TOTAL TEMP POTENTIAL TOTALAVG TEMPAVG PRESSURE GPRESSURE VOLUME PRESSAVG GPRESSAVG
ENERGY: 0 3.4538 26.0100 11.2116 0.0000 -10612.9728 1417.2918 0.0000 0.0000 1706.4937 -7448.5119 295.0513 -9155.0056 -7448.5119 295.0513 -113.7401 -27.2121 29913.5667 -113.7401 -27.2121
ENERGY: 300000 1.6068 21.6069 14.1504 0.0000 -10595.2054 1371.4333 0.0000 0.0000 1793.3730 -7393.0350 310.0726 -9186.4080 -7421.0109 300.5878 -276.6532 -278.3269 29969.3739 16.6865 56.9022
ENERGY: 600000 3.2956 23.9725 12.7645 0.0000 -10584.2973 1384.3049 0.0000 0.0000 1738.2370 -7421.7229 300.5397 -9159.9599 -7437.0224 298.7562 -156.5029 -59.3163 29674.4184 -25.0738 27.0536
ENERGY: 900000 4.3830 28.4209 15.6424 0.0000 -10597.6473 1435.1137 0.0000 0.0000 1723.0519 -7391.0353 297.9142 -9114.0872 -7426.0065 298.7839 -49.0927 37.7483 30011.7301 81.9953 150.0744
ENERGY: 1200000 2.2023 23.3445 12.7913 0.0000 -10616.8853 1392.2987 0.0000 0.0000 1730.2526 -7455.9959 299.1591 -9186.2484 -7420.3606 299.1733 -462.6283 -435.7118 30459.1208 51.5197 114.1835
ENERGY: 1500000 6.9456 23.9141 9.3568 0.0000 -10642.9129 1450.4901 0.0000 0.0000 1704.1265 -7448.0799 294.6420 -9152.2064 -7425.2668 298.8126 417.5745 456.8599 29793.0917 21.4390 87.5541
TCL: Running FEP window  16: Lambda1 0.7500000000000001 Lambda2 0.8000000000000002 [dLambda 0.050000000000000044]
TCL: Setting parameter firsttimestep to 0
TCL: Setting parameter alchLambda to 0.7500000000000001
Info: NONBONDED TABLE R-SQUARED SPACING: 0.0625
Info: NONBONDED TABLE SIZE: 705 POINTS
TCL: Setting parameter alchLambda2 to 0.8000000000000002
Info: NONBONDED TABLE R-SQUARED SPACING: 0.0625
Info: NONBONDED TABLE SIZE: 705 POINTS
TCL: Running for 1500000 steps
ETITLE: TS BOND ANGLE DIHED IMPRP ELECT VDW BOUNDARY MISC KINETIC TOTAL TEMP POTENTIAL TOTALAVG TEMPAVG PRESSURE GPRESSURE VOLUME PRESSAVG GPRESSAVG
ENERGY: 0 6.9456 23.9141 9.3568 0.0000 -10644.9569 1450.5390 0.0000 0.0000 1703.3116 -7450.8899 294.5011 -9154.2015 -7450.8899 294.5011 368.0639 463.6471 29793.0917 368.0639 463.6471
ENERGY: 300000 4.9161 23.6465 11.8920 0.0000 -10462.9575 1345.9920 0.0000 0.0000 1759.5348 -7316.9762 304.2220 -9076.5110 -7355.9650 301.3265 -392.5025 -334.2250 30059.8806 199.9278 284.7018
ENERGY: 600000 4.2749 22.9048 13.8252 0.0000 -10605.7964 1410.6547 0.0000 0.0000 1688.7381 -7465.3987 291.9813 -9154.1368 -7369.1516 300.2337 -290.3156 -220.9670 29848.8625 147.2292 229.0795
ENERGY: 900000 5.1218 24.5856 12.0273 0.0000 -10548.2477 1390.3835 0.0000 0.0000 1789.8325 -7326.2972 309.4605 -9116.1297 -7386.5297 301.6471 -54.6253 2.8593 29932.4613 178.4841 241.0219
ENERGY: 1200000 6.4836 27.5237 12.2655 0.0000 -10563.7647 1388.7760 0.0000 0.0000 1757.7220 -7370.9938 303.9086 -9128.7158 -7395.0178 301.0975 -164.1291 -95.7476 29678.4728 158.8608 223.2166
ENERGY: 1500000 4.9816 26.2126 11.2234 0.0000 -10647.2809 1442.1839 0.0000 0.0000 1720.3666 -7442.3127 297.4499 -9162.6793 -7395.7966 301.7695 460.4216 522.9146 29562.0370 189.1726 253.2016
TCL: Running FEP window  17: Lambda1 0.8000000000000002 Lambda2 0.8500000000000002 [dLambda 0.050000000000000044]
TCL: Setting parameter firsttimestep to 0
TCL: Setting parameter alchLambda to 0.8000000000000002
Info: NONBONDED TABLE R-SQUARED SPACING: 0.0625
Info: NONBONDED TABLE SIZE: 705 POINTS
TCL: Setting parameter alchLambda2 to 0.8500000000000002
Info: NONBONDED TABLE R-SQUARED SPACING: 0.0625
Info: NONBONDED TABLE SIZE: 705 POINTS
TCL: Running for 1500000 steps
ETITLE: TS BOND ANGLE DIHED IMPRP ELECT VDW BOUNDARY MISC KINETIC TOTAL TEMP POTENTIAL TOTALAVG TEMPAVG PRESSURE GPRESSURE VOLUME PRESSAVG GPRESSAVG
ENERGY: 0 4.9816 26.2126 11.2234 0.0000 -10650.5451 1443.8389 0.0000 0.0000 1719.5026 -7444.7860 297.3005 -9164.2886 -7444.7860 297.3005 465.8642 541.9977 29562.0370 465.8642 541.9977
ENERGY: 300000 2.7866 25.0764 12.4442 0.0000 -10551.4589 1393.6266 0.0000 0.0000 1733.0223 -7384.5029 299.6380 -9117.5252 -7447.1770 297.2306 -294.4440 -207.1840 30346.6701 192.4082 276.5916
ENERGY: 600000 2.0600 23.0608 10.7559 0.0000 -10643.7247 1462.0465 0.0000 0.0000 1736.5959 -7409.2057 300.2559 -9145.8016 -7420.8062 299.0565 390.0938 516.1871 29657.1899 125.4463 218.2108
ENERGY: 900000 3.7761 25.6726 11.2226 0.0000 -10501.6430 1376.7690 0.0000 0.0000 1732.2028 -7351.9998 299.4963 -9084.2027 -7411.4987 299.5336 -384.3260 -219.8133 30014.9701 -25.8926 60.0769
ENERGY: 1200000 4.3504 25.2132 13.6071 0.0000 -10519.8785 1348.3714 0.0000 0.0000 1740.1319 -7388.2045 300.8673 -9128.3364 -7411.8540 299.9051 -819.0127 -750.6287 30429.7661 21.8696 101.3718
ENERGY: 1500000 6.1608 23.3323 12.7332 0.0000 -10662.9869 1480.8550 0.0000 0.0000 1758.5774 -7381.3282 304.0565 -9139.9056 -7411.8343 299.4672 868.8711 926.7347 29707.5319 18.6590 93.2961
TCL: Running FEP window  18: Lambda1 0.8500000000000002 Lambda2 0.9000000000000002 [dLambda 0.050000000000000044]
TCL: Setting parameter firsttimestep to 0
TCL: Setting parameter alchLambda to 0.8500000000000002
Info: NONBONDED TABLE R-SQUARED SPACING: 0.0625
Info: NONBONDED TABLE SIZE: 705 POINTS
TCL: Setting parameter alchLambda2 to 0.9000000000000002
Info: NONBONDED TABLE R-SQUARED SPACING: 0.0625
Info: NONBONDED TABLE SIZE: 705 POINTS
TCL: Running for 1500000 steps
ETITLE: TS BOND ANGLE DIHED IMPRP ELECT VDW BOUNDARY MISC KINETIC TOTAL TEMP POTENTIAL TOTALAVG TEMPAVG PRESSURE GPRESSURE VOLUME PRESSAVG GPRESSAVG
ENERGY: 0 6.1608 23.3323 12.7332 0.0000 -10665.5074 1481.5579 0.0000 0.0000 1757.6982 -7384.0249 303.9045 -9141.7231 -7384.0249 303.9045 864.6775 943.8607 29707.5319 864.6775 943.8607
ENERGY: 300000 4.3784 24.9978 10.3584 0.0000 -10534.0691 1397.0361 0.0000 0.0000 1717.5340 -7379.7643 296.9601 -9097.2984 -7379.4713 301.8545 -133.2063 -114.0246 30136.8714 71.0303 133.3185
ENERGY: 600000 6.0448 23.7747 12.9500 0.0000 -10586.5392 1471.5773 0.0000 0.0000 1729.7295 -7342.4628 299.0687 -9072.1923 -7388.1596 300.0067 546.9112 557.9282 30129.1264 20.1583 78.0439
ENERGY: 900000 3.1560 23.7405 9.6461 0.0000 -10669.9401 1429.9439 0.0000 0.0000 1728.8518 -7474.6017 298.9170 -9203.4535 -7407.9294 299.0464 -49.7042 15.2927 29928.2590 -39.9492 24.0030
ENERGY: 1200000 2.7293 22.8295 11.4238 0.0000 -10718.1270 1508.3726 0.0000 0.0000 1695.9640 -7476.8078 293.2307 -9172.7718 -7411.1336 299.0017 449.1901 551.6389 30062.2072 73.6340 139.8079
ENERGY: 1500000 2.7171 27.4236 12.9005 0.0000 -10549.6274 1372.9254 0.0000 0.0000 1750.1935 -7383.4674 302.6069 -9133.6609 -7410.3253 299.6086 -207.1977 -220.0992 30026.1564 100.2093 159.3651
TCL: Running FEP window  19: Lambda1 0.9000000000000002 Lambda2 0.9500000000000003 [dLambda 0.050000000000000044]
TCL: Setting parameter firsttimestep to 0
TCL: Setting parameter alchLambda to 0.9000000000000002
Info: NONBONDED TABLE R-SQUARED SPACING: 0.0625
Info: NONBONDED TABLE SIZE: 705 POINTS
TCL: Setting parameter alchLambda2 to 0.9500000000000003
Info: NONBONDED TABLE R-SQUARED SPACING: 0.0625
Info: NONBONDED TABLE SIZE: 705 POINTS
TCL: Running for 1500000 steps
ETITLE: TS BOND ANGLE DIHED IMPRP ELECT VDW BOUNDARY MISC KINETIC TOTAL TEMP POTENTIAL TOTALAVG TEMPAVG PRESSURE GPRESSURE VOLUME PRESSAVG GPRESSAVG
ENERGY: 0 2.7171 27.4236 12.9005 0.0000 -10552.2124 1373.9775 0.0000 0.0000 1749.3275 -7385.8663 302.4572 -9135.1938 -7385.8663 302.4572 -287.5959 -198.7305 30026.1564 -287.5959 -198.7305
ENERGY: 300000 6.1602 24.6459 10.3320 0.0000 -10521.7998 1360.1640 0.0000 0.0000 1672.3665 -7448.1312 289.1507 -9120.4977 -7387.9991 299.7495 -379.9782 -345.5910 29758.5103 -345.3799 -302.9965
ENERGY: 600000 3.6268 24.9034 12.5292 0.0000 -10487.3836 1348.3415 0.0000 0.0000 1782.8384 -7315.1443 308.2512 -9097.9827 -7397.1114 299.1408 -317.8871 -305.1669 29763.1057 -307.7039 -256.2136
ENERGY: 900000 2.2624 23.8580 14.6909 0.0000 -10533.7596 1336.1848 0.0000 0.0000 1703.5954 -7453.1680 294.5501 -9156.7635 -7412.0108 298.3075 -852.9165 -784.0860 30396.5832 -307.0087 -251.6183
ENERGY: 1200000 6.8025 23.2109 11.3414 0.0000 -10597.3785 1388.9003 0.0000 0.0000 1765.2975 -7401.8259 305.2184 -9167.1234 -7411.7340 299.3192 -204.6036 -129.2442 29878.4012 -312.2013 -256.6731
ENERGY: 1500000 3.1624 25.1608 11.8531 0.0000 -10555.4308 1451.0863 0.0000 0.0000 1735.1746 -7328.9935 300.0102 -9064.1681 -7402.6934 299.4581 695.9870 735.9832 29935.6663 -200.8467 -150.7129
TCL: Running FEP window  20: Lambda1 0.9500000000000003 Lambda2 1.0    [dLambda 0.04999999999999971]
TCL: Setting parameter firsttimestep to 0
TCL: Setting parameter alchLambda to 0.9500000000000003
Info: NONBONDED TABLE R-SQUARED SPACING: 0.0625
Info: NONBONDED TABLE SIZE: 705 POINTS
TCL: Setting parameter alchLambda2 to 1.0
Info: NONBONDED TABLE R-SQUARED SPACING: 0.0625
Info: NONBONDED TABLE SIZE: 705 POINTS
TCL: Running for 1500000 steps
ETITLE: TS BOND ANGLE DIHED IMPRP ELECT VDW BOUNDARY MISC KINETIC TOTAL TEMP POTENTIAL TOTALAVG TEMPAVG PRESSURE GPRESSURE VOLUME PRESSAVG GPRESSAVG
ENERGY: 0 3.1624 25.1608 11.8531 0.0000 -10558.6339 1453.0722 0.0000 0.0000 1734.3573 -7331.0281 299.8689 -9065.3854 -7331.0281 299.8689 697.6547 768.9429 29935.6663 697.6547 768.9429
ENERGY: 300000 1.6877 25.6471 14.2018 0.0000 -10629.0704 1407.2047 0.0000 0.0000 1738.5896 -7441.7395 300.6006 -9180.3291 -7399.3244 300.3300 -155.6980 -72.8475 29900.7421 108.6143 167.0637
ENERGY: 600000 5.9326 25.8765 11.4806 0.0000 -10578.4300 1352.9781 0.0000 0.0000 1784.0724 -7398.0899 308.4645 -9182.1622 -7412.6351 300.6151 -523.4988 -481.9622 30060.9921 -231.0530 -166.7318
ENERGY: 900000 4.1154 28.8503 10.8539 0.0000 -10685.4106 1427.9006 0.0000 0.0000 1735.6417 -7478.0487 300.0909 -9213.6904 -7416.4159 299.5118 343.1756 364.4145 29606.3872 -27.9840 37.1850
ENERGY: 1200000 7.9070 25.1376 10.1579 0.0000 -10451.0044 1308.1187 0.0000 0.0000 1693.2998 -7406.3833 292.7701 -9099.6832 -7419.5495 298.9200 -885.8612 -839.1549 30026.9942 11.5142 69.7237
ENERGY: 1500000 4.6114 22.7733 12.5611 0.0000 -10639.6640 1386.5841 0.0000 0.0000 1701.8690 -7511.2652 294.2516 -9213.1341 -7412.7943 298.9216 -658.4565 -529.5989 30047.0780 -151.3748 -92.1322
TCL: Exiting due to exit command.
