Info: SIMULATION PARAMETERS:
Info: TIMESTEP               2
Info: NUMBER OF STEPS        0
Info: STEPS PER CYCLE        10
Info: PERIODIC CELL BASIS 1  31.7662 0 0
Info: PERIODIC CELL BASIS 2  0 29.688 0
Info: PERIODIC CELL BASIS 3  0 0 32.3795
Info: PERIODIC CELL CENTER   0 0 0
Info: WRAPPING WATERS AROUND PERIODIC BOUNDARIES ON OUTPUT.
Info: WRAPPING ALL CLUSTERS AROUND PERIODIC BOUNDARIES ON OUTPUT.
Info: FIRST LDB TIMESTEP     50
Info: LAST LDB TIMESTEP     -1
Info: HOM BACKGROUND SCALING 1
Info: PME BACKGROUND SCALING 1
Info: MIN ATOMS PER PATCH    40
Info: EMPTY PATCH LOAD       40 ATOMS
Info: VELOCITY FILE          mobley_3053621_equil.vel
Info: CENTER OF MASS MOVING INITIALLY? NO
Info: DIELECTRIC             1
Info: EXCLUDE                SCALED ONE-FOUR
Info: 1-4 ELECTROSTATICS SCALED BY 0.833333
Info: MODIFIED 1-4 VDW PARAMETERS WILL BE USED
Info: DCD FILENAME           mobley_3053621_prod.dcd
Info: DCD FREQUENCY          100000
Info: DCD FIRST STEP         100000
Info: DCD FILE WILL CONTAIN UNIT CELL DATA
Info: XST FILENAME           mobley_3053621_prod.xst
Info: XST FREQUENCY          100000
Info: NO VELOCITY DCD OUTPUT
Info: NO FORCE DCD OUTPUT
Info: OUTPUT FILENAME        mobley_3053621_prod
Info: BINARY OUTPUT FILES WILL BE USED
Info: RESTART FILENAME       mobley_3053621_prod.restart
Info: RESTART FREQUENCY      100000
Info: BINARY RESTART FILES WILL BE USED
Info: CUTOFF                 9
Info: PAIRLIST DISTANCE      11
Info: PAIRLIST SHRINK RATE   0.01
Info: PAIRLIST GROW RATE     0.01
Info: PAIRLIST TRIGGER       0.3
Info: PAIRLISTS PER CYCLE    2
Info: PAIRLISTS ENABLED
Info: MARGIN                 2
Info: HYDROGEN GROUP CUTOFF  2.5
Info: PATCH DIMENSION        15.5
Info: ENERGY OUTPUT STEPS    100000
Info: ENERGY EVALUATION STEPS    100000
Info: OUTPUT ENERGY PRECISION 4
Info: CROSSTERM ENERGY INCLUDED IN DIHEDRAL
Info: TIMING OUTPUT STEPS    1000000
Info: PRESSURE OUTPUT STEPS  100000
Info: ALCHEMICAL FEP ON
Info: FEP CURRENT LAMBDA VALUE     1
Info: FEP COMPARISON LAMBDA VALUE  0.95
Info: FEP INTRA-ALCHEMICAL NON-BONDED INTERACTIONS WILL BE RETAINED
Info: FEP INTRA-ALCHEMICAL BONDED INTERACTIONS WILL BE RETAINED
Info: FEP VDW SHIFTING COEFFICIENT 5
Info: FEP ELEC. ACTIVE FOR ANNIHILATED PARTICLES BETWEEN LAMBDA = 0 AND LAMBDA = 0.5
Info: FEP ELEC. ACTIVE FOR EXNIHILATED PARTICLES BETWEEN LAMBDA = 0.5 AND LAMBDA = 1
Info: FEP VDW ACTIVE FOR ANNIHILATED PARTICLES BETWEEN LAMBDA = 0 AND LAMBDA = 1
Info: FEP VDW ACTIVE FOR EXNIHILATED PARTICLES BETWEEN LAMBDA = 0 AND LAMBDA = 1
Info: FEP BOND ACTIVE FOR ANNIHILATED PARTICLES BETWEEN LAMBDA = 1 AND LAMBDA = 1
Info: FEP BOND ACTIVE FOR EXNIHILATED PARTICLES BETWEEN LAMBDA = 0 AND LAMBDA = 0
Info: LANGEVIN DYNAMICS ACTIVE
Info: LANGEVIN TEMPERATURE   300
Info: LANGEVIN USING BBK INTEGRATOR
Info: LANGEVIN DAMPING COEFFICIENT IS 1 INVERSE PS
Info: LANGEVIN DYNAMICS APPLIED TO HYDROGENS
Info: LANGEVIN PISTON PRESSURE CONTROL ACTIVE
Info:        TARGET PRESSURE IS 1.01325 BAR
Info:     OSCILLATION PERIOD IS 50 FS
Info:             DECAY TIME IS 25 FS
Info:     PISTON TEMPERATURE IS 300 K
Info:       PRESSURE CONTROL IS GROUP-BASED
Info:    INITIAL STRAIN RATE IS -0.00102142 -0.00102142 -0.00102142
Info:       CELL FLUCTUATION IS ISOTROPIC
Info: PARTICLE MESH EWALD (PME) ACTIVE
Info: PME TOLERANCE               1e-06
Info: PME EWALD COEFFICIENT       0.348832
Info: PME INTERPOLATION ORDER     4
Info: PME GRID DIMENSIONS         32 32 36
Info: PME MAXIMUM GRID SPACING    1
Info: PME CALCULATION WILL BE PERFORMED ON GPU
Info: FULL ELECTROSTATIC EVALUATION FREQUENCY      2
Info: USING VERLET I (r-RESPA) MTS SCHEME.
Info: C1 SPLITTING OF LONG RANGE ELECTROSTATICS
Info: PLACING ATOMS IN PATCHES BY HYDROGEN GROUPS
Info: RIGID BONDS TO HYDROGEN : ALL
Info:         ERROR TOLERANCE : 1e-08
Info:          MAX ITERATIONS : 100
Info: RIGID WATER USING SETTLE ALGORITHM
Info: RANDOM NUMBER SEED     1743538838
Info: USE HYDROGEN BONDS?    NO
Info: Using AMBER format force field!
Info: AMBER PARM FILE        mobley_3053621.prmtop
Info: COORDINATE PDB         mobley_3053621.pdb
Info: Exclusions will be read from PARM file!
Info: SCNB (VDW SCALING)     2
Info: USING ARITHMETIC MEAN TO COMBINE L-J SIGMA PARAMETERS
Info: BINARY COORDINATES     mobley_3053621_equil.coor
Info: SUMMARY OF PARAMETERS:
Info: 4 BONDS
Info: 2 ANGLES
Info:   2 HARMONIC
Info:   0 COSINE-BASED
Info: 2 DIHEDRAL
Info: 0 IMPROPER
Info: 0 CROSSTERM
Info: 0 VDW
Info: 10 VDW_PAIRS
Info: 0 NBTHOLE_PAIRS
Info: To read alchdata from file: mobley_3053621.pdb
Info: To read alchflag data from column: 5
Info: STRUCTURE SUMMARY:
Info: 2964 ATOMS
Info: 2964 BONDS
Info: 18 ANGLES
Info: 30 DIHEDRALS
Info: 0 IMPROPERS
Info: 0 CROSSTERMS
Info: 3003 EXCLUSIONS
Info: 2958 RIGID BONDS
Info: ALCH: 0 ATOMS TO DISAPPEAR IN FINAL STATE
Info: ALCH: 12 ATOMS TO APPEAR IN FINAL STATE
Info: 5934 DEGREES OF FREEDOM
Info: 990 HYDROGEN GROUPS
Info: 3 ATOMS IN LARGEST HYDROGEN GROUP
Info: 990 MIGRATION GROUPS
Info: 3 ATOMS IN LARGEST MIGRATION GROUP
Info: TOTAL MASS = 17805.9 amu
Info: TOTAL CHARGE = -0.000100002 e
Info: MASS DENSITY = 0.968291 g/cm^3
Info: ATOM DENSITY = 0.0970649 atoms/A^3
Info: ADDED 0 IMPLICIT EXCLUSIONS
Info: NONBONDED TABLE R-SQUARED SPACING: 0.0625
Info: NONBONDED TABLE SIZE: 705 POINTS
Info: REMOVING COM VELOCITY -0.0627148 -0.128077 0.0769186
Info: Use 3D box decompostion in PME FFT.
Info: Updated CUDA force table with 4096 elements.
Info: Updated CUDA LJ table with 4 x 4 elements.
Info: Found 11 unique exclusion lists needing 20 bytes
TCL: Running for 1500000 steps
ETITLE: TS BOND ANGLE DIHED IMPRP ELECT VDW BOUNDARY MISC KINETIC TOTAL TEMP POTENTIAL TOTALAVG TEMPAVG PRESSURE GPRESSURE VOLUME PRESSAVG GPRESSAVG
ENERGY: 0 1.5525 3.9945 2.5431 0.0000 -10701.3185 1415.8336 0.0000 0.0000 1716.5269 -7560.8680 291.1344 -9277.3949 -7560.8680 291.1344 -360.5202 -255.4328 30536.2826 -360.5202 -255.4328
ENERGY: 300000 1.8238 2.4418 1.5773 0.0000 -10669.9494 1403.1608 0.0000 0.0000 1789.5233 -7471.4224 303.5150 -9260.9456 -7522.7542 300.1215 -141.6316 -45.3571 30577.6564 -154.0451 -78.2742
ENERGY: 600000 2.6892 3.9398 2.3133 0.0000 -10726.7900 1392.3366 0.0000 0.0000 1772.2471 -7553.2640 300.5849 -9325.5111 -7510.5553 302.5397 -595.1108 -566.3730 30540.2525 -95.4512 -36.0830
ENERGY: 900000 1.5942 6.2133 2.2872 0.0000 -10914.1551 1548.9326 0.0000 0.0000 1777.9054 -7577.2223 301.5446 -9355.1278 -7525.7510 301.7824 325.8639 385.3346 30892.1167 -51.9733 16.0767
ENERGY: 1200000 1.8587 3.2268 1.7815 0.0000 -10926.6778 1515.2587 0.0000 0.0000 1785.7874 -7618.7646 302.8814 -9404.5521 -7543.1489 301.1499 356.1711 462.4101 30213.5338 -19.4099 49.3939
ENERGY: 1500000 2.8467 2.2109 1.9571 0.0000 -10675.5537 1421.4625 0.0000 0.0000 1796.7512 -7450.3254 304.7409 -9247.0765 -7537.4462 301.6025 -251.4406 -156.2355 30625.5158 -35.1095 37.6550
TCL: Running FEP window   2: Lambda1 0.95   Lambda2 0.8999999999999999 [dLambda -0.050000000000000044]
TCL: Setting parameter firsttimestep to 0
TCL: Setting parameter alchLambda to 0.95
Info: NONBONDED TABLE R-SQUARED SPACING: 0.0625
Info: NONBONDED TABLE SIZE: 705 POINTS
TCL: Setting parameter alchLambda2 to 0.8999999999999999
Info: NONBONDED TABLE R-SQUARED SPACING: 0.0625
Info: NONBONDED TABLE SIZE: 705 POINTS
TCL: Running for 1500000 steps
ETITLE: TS BOND ANGLE DIHED IMPRP ELECT VDW BOUNDARY MISC KINETIC TOTAL TEMP POTENTIAL TOTALAVG TEMPAVG PRESSURE GPRESSURE VOLUME PRESSAVG GPRESSAVG
ENERGY: 0 2.8467 2.2109 1.9571 0.0000 -10674.7437 1421.0754 0.0000 0.0000 1795.9124 -7450.7412 304.5987 -9246.6536 -7450.7412 304.5987 -245.1219 -169.9186 30625.5158 -245.1219 -169.9186
ENERGY: 300000 2.1613 2.5126 1.7071 0.0000 -10707.5367 1395.2995 0.0000 0.0000 1729.1735 -7576.6827 293.2793 -9305.8562 -7541.4739 299.1353 -576.5239 -496.7057 30732.8822 -90.1729 -22.9103
ENERGY: 600000 1.0615 2.0304 2.1697 0.0000 -10889.8530 1555.0242 0.0000 0.0000 1785.8858 -7543.6814 302.8981 -9329.5672 -7548.8027 299.5031 942.6783 1030.9552 30190.3070 147.9610 196.1603
ENERGY: 900000 3.3464 1.6611 1.8155 0.0000 -10748.5220 1461.3943 0.0000 0.0000 1831.9436 -7448.3611 310.7098 -9280.3047 -7525.5140 301.0815 290.7102 301.0752 30364.2988 161.2334 211.6358
ENERGY: 1200000 1.6471 2.8745 2.7611 0.0000 -10737.0028 1405.0808 0.0000 0.0000 1801.1213 -7523.5179 305.4821 -9324.6392 -7522.6458 301.4540 -442.2241 -391.7326 30735.7405 72.9673 125.8240
ENERGY: 1500000 2.1842 2.5473 2.3956 0.0000 -10854.6021 1459.7174 0.0000 0.0000 1841.6284 -7546.1292 312.3524 -9387.7576 -7522.7024 301.8077 60.0908 113.0424 30196.7105 30.4057 76.4581
TCL: Running FEP window   3: Lambda1 0.8999999999999999 Lambda2 0.8499999999999999 [dLambda -0.050000000000000044]
TCL: Setting parameter firsttimestep to 0
TCL: Setting parameter alchLambda to 0.8999999999999999
Info: NONBONDED TABLE R-SQUARED SPACING: 0.0625
Info: NONBONDED TABLE SIZE: 705 POINTS
TCL: Setting parameter alchLambda2 to 0.8499999999999999
Info: NONBONDED TABLE R-SQUARED SPACING: 0.0625
Info: NONBONDED TABLE SIZE: 705 POINTS
TCL: Running for 1500000 steps
ETITLE: TS BOND ANGLE DIHED IMPRP ELECT VDW BOUNDARY MISC KINETIC TOTAL TEMP POTENTIAL TOTALAVG TEMPAVG PRESSURE GPRESSURE VOLUME PRESSAVG GPRESSAVG
ENERGY: 0 2.1842 2.5473 2.3956 0.0000 -10853.8836 1459.5016 0.0000 0.0000 1840.7659 -7546.4890 312.2061 -9387.2549 -7546.4890 312.2061 6.6612 103.7521 30196.7105 6.6612 103.7521
ENERGY: 300000 1.3983 2.1887 3.1452 0.0000 -10750.0761 1455.5865 0.0000 0.0000 1770.0053 -7517.7522 300.2047 -9287.7575 -7518.6289 301.5810 216.7790 196.5366 30250.2549 449.0574 503.1643
ENERGY: 600000 2.3581 2.9181 2.2030 0.0000 -10894.1406 1484.9013 0.0000 0.0000 1811.5756 -7590.1845 307.2552 -9401.7601 -7521.7745 301.9862 398.9782 434.1167 29795.3735 237.2846 294.4971
ENERGY: 900000 1.4305 1.2436 1.3284 0.0000 -10791.4259 1493.0718 0.0000 0.0000 1750.1175 -7544.2339 296.8315 -9294.3515 -7513.3809 300.4945 321.3436 379.3511 30619.3154 198.5281 254.9087
ENERGY: 1200000 3.1764 1.8385 2.9741 0.0000 -10722.2591 1441.9704 0.0000 0.0000 1697.4510 -7574.8486 287.8990 -9272.2996 -7522.6197 299.5310 -208.4011 -174.7432 30781.9592 134.8115 189.7031
ENERGY: 1500000 1.1210 1.2182 3.9028 0.0000 -10935.5701 1541.0454 0.0000 0.0000 1767.9019 -7620.3807 299.8479 -9388.2827 -7526.1064 299.9911 342.1077 468.4063 30567.4636 123.6848 177.6307
TCL: Running FEP window   4: Lambda1 0.8499999999999999 Lambda2 0.7999999999999998 [dLambda -0.050000000000000044]
TCL: Setting parameter firsttimestep to 0
TCL: Setting parameter alchLambda to 0.8499999999999999
Info: NONBONDED TABLE R-SQUARED SPACING: 0.0625
Info: NONBONDED TABLE SIZE: 705 POINTS
TCL: Setting parameter alchLambda2 to 0.7999999999999998
Info: NONBONDED TABLE R-SQUARED SPACING: 0.0625
Info: NONBONDED TABLE SIZE: 705 POINTS
TCL: Running for 1500000 steps
ETITLE: TS BOND ANGLE DIHED IMPRP ELECT VDW BOUNDARY MISC KINETIC TOTAL TEMP POTENTIAL TOTALAVG TEMPAVG PRESSURE GPRESSURE VOLUME PRESSAVG GPRESSAVG
ENERGY: 0 1.1210 1.2182 3.9028 0.0000 -10935.1659 1541.5117 0.0000 0.0000 1767.0301 -7620.3821 299.7000 -9387.4122 -7620.3821 299.7000 371.5113 467.1887 30567.4636 371.5113 467.1887
ENERGY: 300000 2.4152 2.1776 2.2147 0.0000 -10760.6742 1495.2316 0.0000 0.0000 1792.1530 -7466.4823 303.9610 -9258.6352 -7503.3433 304.1066 451.9300 477.8272 30373.6393 -83.0849 8.1878
ENERGY: 600000 1.0434 1.2393 3.5018 0.0000 -10906.5778 1528.9508 0.0000 0.0000 1737.8444 -7633.9983 294.7499 -9371.8426 -7538.6296 299.4123 429.0319 453.9744 30523.5285 -80.2212 -0.1395
ENERGY: 900000 0.7146 2.4597 0.9721 0.0000 -10566.3131 1373.7226 0.0000 0.0000 1771.5364 -7416.9077 300.4643 -9188.4441 -7527.3543 299.4835 -419.4656 -362.1468 30752.2574 -192.7838 -111.6636
ENERGY: 1200000 2.2334 1.5876 2.0059 0.0000 -10738.4557 1462.5148 0.0000 0.0000 1765.0544 -7505.0597 299.3649 -9270.1141 -7527.4756 299.4351 -141.4497 -35.5977 30769.5852 -196.5035 -118.1144
ENERGY: 1500000 0.5109 3.4822 3.0617 0.0000 -10949.5816 1558.7138 0.0000 0.0000 1778.9477 -7604.8653 301.7213 -9383.8130 -7528.8796 299.5530 978.1357 1033.3545 29939.0133 -129.9374 -55.9829
TCL: Running FEP window   5: Lambda1 0.7999999999999998 Lambda2 0.7499999999999998 [dLambda -0.050000000000000044]
TCL: Setting parameter firsttimestep to 0
TCL: Setting parameter alchLambda to 0.7999999999999998
Info: NONBONDED TABLE R-SQUARED SPACING: 0.0625
Info: NONBONDED TABLE SIZE: 705 POINTS
TCL: Setting parameter alchLambda2 to 0.7499999999999998
Info: NONBONDED TABLE R-SQUARED SPACING: 0.0625
Info: NONBONDED TABLE SIZE: 705 POINTS
TCL: Running for 1500000 steps
ETITLE: TS BOND ANGLE DIHED IMPRP ELECT VDW BOUNDARY MISC KINETIC TOTAL TEMP POTENTIAL TOTALAVG TEMPAVG PRESSURE GPRESSURE VOLUME PRESSAVG GPRESSAVG
ENERGY: 0 0.5109 3.4822 3.0617 0.0000 -10948.6263 1557.3613 0.0000 0.0000 1778.0675 -7606.1426 301.5720 -9384.2101 -7606.1426 301.5720 930.2990 1010.0089 29939.0133 930.2990 1010.0089
ENERGY: 300000 3.5606 3.0004 2.2548 0.0000 -10794.0111 1521.1276 0.0000 0.0000 1770.5145 -7493.5532 300.2910 -9264.0677 -7532.6384 298.7056 549.7537 674.0368 30317.8623 244.9534 304.7726
ENERGY: 600000 1.4804 3.2007 2.7064 0.0000 -10645.7872 1379.7796 0.0000 0.0000 1773.6367 -7484.9835 300.8206 -9258.6202 -7524.5405 298.5524 -395.0200 -309.7945 30228.6116 -21.2049 34.6537
ENERGY: 900000 5.8254 2.8590 3.4737 0.0000 -10622.2898 1382.8814 0.0000 0.0000 1778.1827 -7449.0674 301.5916 -9227.2502 -7508.1157 300.6629 -395.1871 -307.6311 30500.1541 -66.0166 1.0813
ENERGY: 1200000 0.4580 3.9898 2.3595 0.0000 -10756.0355 1440.4965 0.0000 0.0000 1791.2179 -7517.5139 303.8024 -9308.7318 -7509.6040 301.0765 119.7583 138.3418 30323.7756 -49.4429 10.5483
ENERGY: 1500000 2.0042 2.1278 3.1906 0.0000 -10748.9383 1396.9273 0.0000 0.0000 1818.9496 -7525.7389 308.5059 -9344.6884 -7509.0326 301.6376 -646.5617 -520.7661 30777.2015 -159.8314 -103.5238
TCL: Running FEP window   6: Lambda1 0.7499999999999998 Lambda2 0.6999999999999997 [dLambda -0.050000000000000044]
TCL: Setting parameter firsttimestep to 0
TCL: Setting parameter alchLambda to 0.7499999999999998
Info: NONBONDED TABLE R-SQUARED SPACING: 0.0625
Info: NONBONDED TABLE SIZE: 705 POINTS
TCL: Setting parameter alchLambda2 to 0.6999999999999997
Info: NONBONDED TABLE R-SQUARED SPACING: 0.0625
Info: NONBONDED TABLE SIZE: 705 POINTS
TCL: Running for 1500000 steps
ETITLE: TS BOND ANGLE DIHED IMPRP ELECT VDW BOUNDARY MISC KINETIC TOTAL TEMP POTENTIAL TOTALAVG TEMPAVG PRESSURE GPRESSURE VOLUME PRESSAVG GPRESSAVG
ENERGY: 0 2.0042 2.1278 3.1906 0.0000 -10748.5008 1397.1489 0.0000 0.0000 1818.0603 -7525.9690 308.3551 -9344.0293 -7525.9690 308.3551 -624.3059 -522.9674 30777.2015 -624.3059 -522.9674
ENERGY: 300000 1.6521 4.2611 2.6088 0.0000 -10804.6311 1420.9514 0.0000 0.0000 1760.2625 -7614.8952 298.5522 -9375.1577 -7563.5248 301.0498 -591.9123 -449.1264 30498.5499 -153.8348 -67.3276
ENERGY: 600000 0.6485 2.1881 1.5225 0.0000 -10811.9936 1501.2460 0.0000 0.0000 1754.8845 -7551.5040 297.6401 -9306.3885 -7568.4658 299.0906 411.0865 486.3866 30334.5288 66.3901 131.4386
ENERGY: 900000 0.5968 0.8607 1.2444 0.0000 -10746.2144 1378.2409 0.0000 0.0000 1750.7008 -7614.5708 296.9305 -9365.2716 -7576.9628 298.3836 -451.9161 -482.1707 30226.5592 8.5937 71.1177
ENERGY: 1200000 1.1025 1.3598 2.0582 0.0000 -10768.4159 1440.9377 0.0000 0.0000 1787.8984 -7535.0592 303.2394 -9322.9577 -7568.0497 298.4793 -128.4625 -68.8472 30264.5764 24.5711 87.0292
ENERGY: 1500000 0.3655 1.9425 2.5735 0.0000 -10833.7711 1536.3768 0.0000 0.0000 1786.1609 -7506.3520 302.9447 -9292.5129 -7559.5360 298.3260 840.4130 924.3886 30289.5156 95.1902 162.1069
TCL: Running FEP window   7: Lambda1 0.6999999999999997 Lambda2 0.6499999999999997 [dLambda -0.050000000000000044]
TCL: Setting parameter firsttimestep to 0
TCL: Setting parameter alchLambda to 0.6999999999999997
Info: NONBONDED TABLE R-SQUARED SPACING: 0.0625
Info: NONBONDED TABLE SIZE: 705 POINTS
TCL: Setting parameter alchLambda2 to 0.6499999999999997
Info: NONBONDED TABLE R-SQUARED SPACING: 0.0625
Info: NONBONDED TABLE SIZE: 705 POINTS
TCL: Running for 1500000 steps
ETITLE: TS BOND ANGLE DIHED IMPRP ELECT VDW BOUNDARY MISC KINETIC TOTAL TEMP POTENTIAL TOTALAVG TEMPAVG PRESSURE GPRESSURE VOLUME PRESSAVG GPRESSAVG
ENERGY: 0 0.3655 1.9425 2.5735 0.0000 -10833.4658 1535.7772 0.0000 0.0000 1785.2548 -7507.5523 302.7911 -9292.8071 -7507.5523 302.7911 817.5929 911.8564 30289.5156 817.5929 911.8564
ENERGY: 300000 1.1560 1.0784 3.3283 0.0000 -10769.2584 1457.3830 0.0000 0.0000 1763.9126 -7542.4002 299.1713 -9306.3128 -7515.2020 300.0888 -69.2553 41.9493 30671.4515 231.7312 305.6157
ENERGY: 600000 3.0840 4.5674 2.8479 0.0000 -10791.1344 1456.6499 0.0000 0.0000 1730.9467 -7593.0386 293.5800 -9323.9852 -7527.3800 297.4688 -119.3342 -110.4584 30618.3159 18.3836 72.6753
ENERGY: 900000 1.4431 4.5339 2.4368 0.0000 -10773.8304 1452.1724 0.0000 0.0000 1740.4141 -7572.8301 295.1858 -9313.2442 -7526.9648 297.9476 -15.7142 62.7671 30401.7714 3.7492 63.0961
ENERGY: 1200000 1.9788 2.4495 1.7450 0.0000 -10590.8519 1389.4286 0.0000 0.0000 1774.2868 -7420.9632 300.9308 -9195.2501 -7523.5270 298.3326 -509.0575 -378.4524 30999.4986 -54.7147 14.3642
ENERGY: 1500000 0.8859 1.8533 1.0751 0.0000 -10718.2040 1389.1902 0.0000 0.0000 1793.4928 -7531.7069 304.1883 -9325.1997 -7526.6627 298.5976 -445.0888 -424.4364 30371.5752 -53.0701 9.6308
TCL: Running FEP window   8: Lambda1 0.6499999999999997 Lambda2 0.5999999999999996 [dLambda -0.050000000000000044]
TCL: Setting parameter firsttimestep to 0
TCL: Setting parameter alchLambda to 0.6499999999999997
Info: NONBONDED TABLE R-SQUARED SPACING: 0.0625
Info: NONBONDED TABLE SIZE: 705 POINTS
TCL: Setting parameter alchLambda2 to 0.5999999999999996
Info: NONBONDED TABLE R-SQUARED SPACING: 0.0625
Info: NONBONDED TABLE SIZE: 705 POINTS
TCL: Running for 1500000 steps
ETITLE: TS BOND ANGLE DIHED IMPRP ELECT VDW BOUNDARY MISC KINETIC TOTAL TEMP POTENTIAL TOTALAVG TEMPAVG PRESSURE GPRESSURE VOLUME PRESSAVG GPRESSAVG
ENERGY: 0 0.8859 1.8533 1.0751 0.0000 -10717.1289 1388.3118 0.0000 0.0000 1792.5935 -7532.4094 304.0358 -9325.0029 -7532.4094 304.0358 -535.5772 -437.2995 30371.5752 -535.5772 -437.2995
ENERGY: 300000 1.3289 4.6660 3.7797 0.0000 -10806.4039 1524.4419 0.0000 0.0000 1784.0242 -7488.1633 302.5823 -9272.1875 -7481.9820 303.4117 785.1576 801.1777 30240.5459 -5.5435 43.7280
ENERGY: 600000 4.1988 2.7522 3.1933 0.0000 -10590.3145 1352.1986 0.0000 0.0000 1765.2007 -7462.7710 299.3897 -9227.9716 -7504.3253 302.7269 -841.7782 -758.3767 30893.6422 -156.1645 -94.8644
ENERGY: 900000 1.1090 2.2427 4.3915 0.0000 -10752.5994 1440.4303 0.0000 0.0000 1809.2616 -7495.1643 306.8628 -9304.4259 -7507.6881 302.5106 73.9593 137.7793 30097.9929 -26.3266 30.9923
ENERGY: 1200000 1.6273 2.4647 1.2140 0.0000 -10713.1596 1447.7692 0.0000 0.0000 1793.5708 -7466.5137 304.2015 -9260.0844 -7503.9019 302.2670 409.1461 444.5175 30356.9745 2.7323 66.9288
ENERGY: 1500000 2.1511 2.5836 1.9174 0.0000 -10783.6080 1428.7214 0.0000 0.0000 1823.1727 -7525.0618 309.2222 -9348.2345 -7504.9145 302.5710 -348.4298 -251.5092 30339.2617 58.9482 123.4835
TCL: Running FEP window   9: Lambda1 0.5999999999999996 Lambda2 0.5499999999999996 [dLambda -0.050000000000000044]
TCL: Setting parameter firsttimestep to 0
TCL: Setting parameter alchLambda to 0.5999999999999996
Info: NONBONDED TABLE R-SQUARED SPACING: 0.0625
Info: NONBONDED TABLE SIZE: 705 POINTS
TCL: Setting parameter alchLambda2 to 0.5499999999999996
Info: NONBONDED TABLE R-SQUARED SPACING: 0.0625
Info: NONBONDED TABLE SIZE: 705 POINTS
TCL: Running for 1500000 steps
ETITLE: TS BOND ANGLE DIHED IMPRP ELECT VDW BOUNDARY MISC KINETIC TOTAL TEMP POTENTIAL TOTALAVG TEMPAVG PRESSURE GPRESSURE VOLUME PRESSAVG GPRESSAVG
ENERGY: 0 2.1511 2.5836 1.9174 0.0000 -10783.8250 1428.9461 0.0000 0.0000 1822.2842 -7525.9426 309.0715 -9348.2268 -7525.9426 309.0715 -351.2544 -255.7877 30339.2617 -351.2544 -255.7877
ENERGY: 300000 2.3438 2.2709 4.0285 0.0000 -10719.4295 1473.0792 0.0000 0.0000 1785.6140 -7452.0931 302.8520 -9237.7071 -7532.0490 301.9146 451.2870 488.8883 30270.3921 142.2170 205.6872
ENERGY: 600000 0.9413 5.3307 1.7037 0.0000 -10806.2990 1534.5741 0.0000 0.0000 1744.6851 -7519.0642 295.9102 -9263.7493 -7512.5531 301.4482 701.0178 757.9032 30585.4785 252.3622 318.7968
ENERGY: 900000 0.9811 4.8612 1.9394 0.0000 -10688.9471 1438.7968 0.0000 0.0000 1790.8528 -7451.5158 303.7405 -9242.3686 -7500.2027 301.1489 201.0301 256.2480 30441.2988 138.4676 215.0930
ENERGY: 1200000 3.3631 2.2454 1.3656 0.0000 -10488.5956 1304.1027 0.0000 0.0000 1824.0606 -7353.4582 309.3728 -9177.5188 -7496.0735 301.3613 -863.5458 -830.7616 31219.5718 55.7181 126.1293
ENERGY: 1500000 1.5182 6.4645 4.3304 0.0000 -10771.3206 1460.7402 0.0000 0.0000 1749.7671 -7548.5002 296.7721 -9298.2673 -7489.5203 301.2625 63.4812 148.8556 30242.4241 41.3321 107.5942
TCL: Running FEP window  10: Lambda1 0.5499999999999996 Lambda2 0.4999999999999996 [dLambda -0.04999999999999999]
TCL: Setting parameter firsttimestep to 0
TCL: Setting parameter alchLambda to 0.5499999999999996
Info: NONBONDED TABLE R-SQUARED SPACING: 0.0625
Info: NONBONDED TABLE SIZE: 705 POINTS
TCL: Setting parameter alchLambda2 to 0.4999999999999996
Info: NONBONDED TABLE R-SQUARED SPACING: 0.0625
Info: NONBONDED TABLE SIZE: 705 POINTS
TCL: Running for 1500000 steps
ETITLE: TS BOND ANGLE DIHED IMPRP ELECT VDW BOUNDARY MISC KINETIC TOTAL TEMP POTENTIAL TOTALAVG TEMPAVG PRESSURE GPRESSURE VOLUME PRESSAVG GPRESSAVG
ENERGY: 0 1.5182 6.4645 4.3304 0.0000 -10771.3559 1461.1721 0.0000 0.0000 1748.8491 -7549.0216 296.6164 -9297.8707 -7549.0216 296.6164 68.8225 146.8948 30242.4241 68.8225 146.8948
ENERGY: 300000 1.8433 3.1599 2.4584 0.0000 -10636.2909 1430.4236 0.0000 0.0000 1829.8326 -7368.5731 310.3518 -9198.4057 -7504.5535 300.4769 157.8474 209.5771 30490.3887 383.2042 427.4056
ENERGY: 600000 1.6522 3.6801 4.2053 0.0000 -10774.1000 1469.3661 0.0000 0.0000 1757.2105 -7537.9859 298.0346 -9295.1963 -7533.2153 299.9121 206.0696 289.2633 30140.6335 276.4168 342.7476
ENERGY: 900000 1.5641 4.8995 5.3360 0.0000 -10792.4357 1502.3831 0.0000 0.0000 1783.4081 -7494.8450 302.4778 -9278.2531 -7523.0288 301.5923 219.8897 304.5850 30658.5846 161.3386 224.5586
ENERGY: 1200000 3.8152 1.7663 1.7659 0.0000 -10779.0584 1473.6535 0.0000 0.0000 1764.8335 -7533.2240 299.3275 -9298.0574 -7529.0175 301.3792 125.6303 151.3518 30197.3327 74.3160 135.8918
ENERGY: 1500000 2.4071 1.6525 4.7961 0.0000 -10680.9253 1410.2602 0.0000 0.0000 1829.7380 -7432.0714 310.3357 -9261.8094 -7519.8171 301.6722 -370.5155 -346.3733 30661.7305 67.5052 125.0918
TCL: Running FEP window  11: Lambda1 0.4999999999999996 Lambda2 0.4499999999999996 [dLambda -0.04999999999999999]
TCL: Setting parameter firsttimestep to 0
TCL: Setting parameter alchLambda to 0.4999999999999996
Info: NONBONDED TABLE R-SQUARED SPACING: 0.0625
Info: NONBONDED TABLE SIZE: 705 POINTS
TCL: Setting parameter alchLambda2 to 0.4499999999999996
Info: NONBONDED TABLE R-SQUARED SPACING: 0.0625
Info: NONBONDED TABLE SIZE: 705 POINTS
TCL: Running for 1500000 steps
ETITLE: TS BOND ANGLE DIHED IMPRP ELECT VDW BOUNDARY MISC KINETIC TOTAL TEMP POTENTIAL TOTALAVG TEMPAVG PRESSURE GPRESSURE VOLUME PRESSAVG GPRESSAVG
ENERGY: 0 2.4071 1.6525 4.7961 0.0000 -10681.0337 1409.9814 0.0000 0.0000 1828.9017 -7433.2950 310.1939 -9262.1966 -7433.2950 310.1939 -427.0862 -353.7642 30661.7305 -427.0862 -353.7642
ENERGY: 300000 2.9599 1.8939 5.1834 0.0000 -10786.1094 1511.0748 0.0000 0.0000 1802.3161 -7462.6813 305.6848 -9264.9974 -7493.5823 303.2863 553.0499 618.4601 30403.7258 -298.3567 -234.3158
ENERGY: 600000 0.9514 3.4548 2.2664 0.0000 -10772.0644 1430.5492 0.0000 0.0000 1807.1182 -7527.7245 306.4992 -9334.8426 -7507.9449 302.7022 10.0564 13.9121 30065.6582 -267.9061 -220.5599
ENERGY: 900000 2.7968 2.9335 1.3655 0.0000 -10769.9208 1443.0440 0.0000 0.0000 1768.6275 -7551.1535 299.9710 -9319.7811 -7495.0560 301.9983 37.1476 95.2379 30317.0683 -193.9181 -154.9665
ENERGY: 1200000 1.8601 3.0598 1.7007 0.0000 -10864.4042 1514.0418 0.0000 0.0000 1765.3999 -7578.3419 299.4235 -9343.7418 -7504.8120 301.9865 582.4823 648.7375 29981.3168 -142.8906 -98.4331
ENERGY: 1500000 1.3369 3.8418 0.6819 0.0000 -10774.7319 1405.1385 0.0000 0.0000 1794.6695 -7569.0634 304.3879 -9363.7328 -7506.4757 301.9599 -629.2980 -499.0154 30484.4585 -227.8040 -171.4097
TCL: Running FEP window  12: Lambda1 0.4499999999999996 Lambda2 0.39999999999999963 [dLambda -0.04999999999999999]
TCL: Setting parameter firsttimestep to 0
TCL: Setting parameter alchLambda to 0.4499999999999996
Info: NONBONDED TABLE R-SQUARED SPACING: 0.0625
Info: NONBONDED TABLE SIZE: 705 POINTS
TCL: Setting parameter alchLambda2 to 0.39999999999999963
Info: NONBONDED TABLE R-SQUARED SPACING: 0.0625
Info: NONBONDED TABLE SIZE: 705 POINTS
TCL: Running for 1500000 steps
ETITLE: TS BOND ANGLE DIHED IMPRP ELECT VDW BOUNDARY MISC KINETIC TOTAL TEMP POTENTIAL TOTALAVG TEMPAVG PRESSURE GPRESSURE VOLUME PRESSAVG GPRESSAVG
ENERGY: 0 1.3369 3.8418 0.6819 0.0000 -10774.7317 1404.9715 0.0000 0.0000 1793.8046 -7570.0952 304.2412 -9363.8997 -7570.0952 304.2412 -584.2485 -507.9459 30484.4585 -584.2485 -507.9459
ENERGY: 300000 1.2201 2.4699 4.2449 0.0000 -10860.5615 1538.4325 0.0000 0.0000 1770.3839 -7543.8102 300.2689 -9314.1941 -7547.8698 301.2960 687.2812 750.4028 30471.8658 -75.5343 15.3809
ENERGY: 600000 1.3620 2.0335 3.1376 0.0000 -10684.1661 1450.7230 0.0000 0.0000 1770.4462 -7456.4639 300.2794 -9226.9100 -7513.6517 301.0230 100.9241 155.4281 30472.3051 -129.3678 -39.2190
ENERGY: 900000 1.3812 4.8538 5.8373 0.0000 -10683.8382 1435.7421 0.0000 0.0000 1761.5586 -7474.4652 298.7720 -9236.0238 -7517.4484 301.1485 -190.4123 -184.1129 30927.1148 -50.0934 28.6381
ENERGY: 1200000 2.0462 2.2816 3.4153 0.0000 -10809.6068 1460.0398 0.0000 0.0000 1777.2884 -7564.5355 301.4399 -9341.8239 -7522.1685 301.3976 20.4523 51.6691 30305.1085 -44.3582 30.9318
ENERGY: 1500000 2.6769 2.5441 4.3924 0.0000 -10648.1430 1380.0245 0.0000 0.0000 1741.4299 -7517.0752 295.3581 -9258.5051 -7522.4268 300.8547 -508.9362 -515.9839 30675.2602 -38.1220 27.3099
TCL: Running FEP window  13: Lambda1 0.39999999999999963 Lambda2 0.34999999999999964 [dLambda -0.04999999999999999]
TCL: Setting parameter firsttimestep to 0
TCL: Setting parameter alchLambda to 0.39999999999999963
Info: NONBONDED TABLE R-SQUARED SPACING: 0.0625
Info: NONBONDED TABLE SIZE: 705 POINTS
TCL: Setting parameter alchLambda2 to 0.34999999999999964
Info: NONBONDED TABLE R-SQUARED SPACING: 0.0625
Info: NONBONDED TABLE SIZE: 705 POINTS
TCL: Running for 1500000 steps
ETITLE: TS BOND ANGLE DIHED IMPRP ELECT VDW BOUNDARY MISC KINETIC TOTAL TEMP POTENTIAL TOTALAVG TEMPAVG PRESSURE GPRESSURE VOLUME PRESSAVG GPRESSAVG
ENERGY: 0 2.6769 2.5441 4.3924 0.0000 -10648.1429 1380.4403 0.0000 0.0000 1740.5080 -7517.5811 295.2017 -9258.0891 -7517.5811 295.2017 -600.4645 -515.6592 30675.2602 -600.4645 -515.6592
ENERGY: 300000 3.8316 4.8077 2.0353 0.0000 -10785.5890 1447.6299 0.0000 0.0000 1750.4053 -7576.8792 296.8804 -9327.2845 -7545.5389 294.5963 -6.0534 29.4817 30204.9349 -95.9458 -20.1071
ENERGY: 600000 1.1256 2.7239 1.9980 0.0000 -10861.9448 1540.7739 0.0000 0.0000 1797.1073 -7518.2162 304.8013 -9315.3235 -7539.0532 297.5558 571.3756 583.4521 30611.0740 -76.8960 -6.2456
ENERGY: 900000 0.2803 2.4296 2.4518 0.0000 -10764.9773 1398.1757 0.0000 0.0000 1785.1122 -7576.5277 302.7669 -9361.6399 -7550.7706 298.6633 -697.0036 -616.6747 30633.5098 -82.0922 -7.8142
ENERGY: 1200000 1.2734 2.6422 2.3918 0.0000 -10773.6968 1443.9069 0.0000 0.0000 1765.5768 -7557.9056 299.4535 -9323.4824 -7542.2323 299.4453 -155.5256 -116.1058 30668.3019 -36.7394 30.8444
ENERGY: 1500000 3.7277 1.4921 1.3823 0.0000 -10696.7744 1387.1187 0.0000 0.0000 1738.0989 -7564.9547 294.7931 -9303.0535 -7539.9379 300.1800 -814.6260 -683.5006 30686.5960 -28.0431 43.0994
TCL: Running FEP window  14: Lambda1 0.34999999999999964 Lambda2 0.29999999999999966 [dLambda -0.04999999999999999]
TCL: Setting parameter firsttimestep to 0
TCL: Setting parameter alchLambda to 0.34999999999999964
Info: NONBONDED TABLE R-SQUARED SPACING: 0.0625
Info: NONBONDED TABLE SIZE: 705 POINTS
TCL: Setting parameter alchLambda2 to 0.29999999999999966
Info: NONBONDED TABLE R-SQUARED SPACING: 0.0625
Info: NONBONDED TABLE SIZE: 705 POINTS
TCL: Running for 1500000 steps
ETITLE: TS BOND ANGLE DIHED IMPRP ELECT VDW BOUNDARY MISC KINETIC TOTAL TEMP POTENTIAL TOTALAVG TEMPAVG PRESSURE GPRESSURE VOLUME PRESSAVG GPRESSAVG
ENERGY: 0 3.7277 1.4921 1.3823 0.0000 -10696.7721 1387.1830 0.0000 0.0000 1737.1900 -7565.7970 294.6390 -9302.9870 -7565.7970 294.6390 -772.0515 -688.7337 30686.5960 -772.0515 -688.7337
ENERGY: 300000 1.0070 4.2948 2.2645 0.0000 -10775.0811 1451.2561 0.0000 0.0000 1755.8291 -7560.4295 297.8003 -9316.2587 -7561.8791 296.0471 -116.9521 -54.9234 30567.2605 -110.6604 -53.7897
ENERGY: 600000 2.0820 2.6915 1.7786 0.0000 -10681.0279 1339.5481 0.0000 0.0000 1735.2431 -7599.6847 294.3087 -9334.9278 -7531.5558 297.3982 -970.1114 -884.8931 30291.9999 -521.1026 -472.2597
ENERGY: 900000 1.6353 5.7296 2.3632 0.0000 -10860.8781 1555.9601 0.0000 0.0000 1786.6994 -7508.4904 303.0361 -9295.1898 -7507.8561 299.7210 649.0104 735.0318 30518.1984 -254.4312 -204.7116
ENERGY: 1200000 0.9339 4.4148 5.8895 0.0000 -10851.5090 1448.3256 0.0000 0.0000 1748.2204 -7643.7249 296.5098 -9391.9453 -7510.6970 300.0305 -172.9429 -136.3326 30098.4025 -249.5470 -202.3890
ENERGY: 1500000 1.9207 2.0888 1.3799 0.0000 -10739.1146 1479.9216 0.0000 0.0000 1747.6669 -7506.1368 296.4159 -9253.8036 -7515.0680 299.8265 193.5459 224.1061 30835.9379 -114.4760 -75.8538
TCL: Running FEP window  15: Lambda1 0.29999999999999966 Lambda2 0.24999999999999967 [dLambda -0.04999999999999999]
TCL: Setting parameter firsttimestep to 0
TCL: Setting parameter alchLambda to 0.29999999999999966
Info: NONBONDED TABLE R-SQUARED SPACING: 0.0625
Info: NONBONDED TABLE SIZE: 705 POINTS
TCL: Setting parameter alchLambda2 to 0.24999999999999967
Info: NONBONDED TABLE R-SQUARED SPACING: 0.0625
Info: NONBONDED TABLE SIZE: 705 POINTS
TCL: Running for 1500000 steps
ETITLE: TS BOND ANGLE DIHED IMPRP ELECT VDW BOUNDARY MISC KINETIC TOTAL TEMP POTENTIAL TOTALAVG TEMPAVG PRESSURE GPRESSURE VOLUME PRESSAVG GPRESSAVG
ENERGY: 0 1.9207 2.0888 1.3799 0.0000 -10739.1139 1480.2280 0.0000 0.0000 1746.7521 -7506.7443 296.2608 -9253.4964 -7506.7443 296.2608 142.0934 222.9888 30835.9379 142.0934 222.9888
ENERGY: 300000 1.2177 3.8821 2.1514 0.0000 -10872.8429 1519.4891 0.0000 0.0000 1801.2830 -7544.8196 305.5096 -9346.1026 -7550.2939 298.1677 317.6679 366.1954 30631.4669 -24.0946 18.0258
ENERGY: 600000 1.0078 2.1550 1.9240 0.0000 -10682.9396 1392.9558 0.0000 0.0000 1803.4569 -7481.4401 305.8783 -9284.8970 -7498.4280 299.3182 -255.6010 -206.7912 30258.3524 -7.4789 37.7558
ENERGY: 900000 0.4805 3.3522 1.8244 0.0000 -10738.9257 1441.5840 0.0000 0.0000 1762.3426 -7529.3420 298.9050 -9291.6846 -7517.8671 297.8833 -101.6537 -3.6135 30454.3149 21.7289 73.6676
ENERGY: 1200000 2.6980 3.1656 3.3485 0.0000 -10654.8613 1438.3132 0.0000 0.0000 1756.1632 -7451.1728 297.8569 -9207.3360 -7512.2825 299.0350 79.5845 98.4762 30689.6623 -40.5493 16.1582
ENERGY: 1500000 3.5568 1.1935 1.3441 0.0000 -10683.2362 1408.0560 0.0000 0.0000 1732.8250 -7536.2608 293.8986 -9269.0858 -7509.0136 299.3793 -694.2406 -655.2168 31272.0813 -132.8982 -76.8382
TCL: Running FEP window  16: Lambda1 0.24999999999999967 Lambda2 0.19999999999999968 [dLambda -0.04999999999999999]
TCL: Setting parameter firsttimestep to 0
TCL: Setting parameter alchLambda to 0.24999999999999967
Info: NONBONDED TABLE R-SQUARED SPACING: 0.0625
Info: NONBONDED TABLE SIZE: 705 POINTS
TCL: Setting parameter alchLambda2 to 0.19999999999999968
Info: NONBONDED TABLE R-SQUARED SPACING: 0.0625
Info: NONBONDED TABLE SIZE: 705 POINTS
TCL: Running for 1500000 steps
ETITLE: TS BOND ANGLE DIHED IMPRP ELECT VDW BOUNDARY MISC KINETIC TOTAL TEMP POTENTIAL TOTALAVG TEMPAVG PRESSURE GPRESSURE VOLUME PRESSAVG GPRESSAVG
ENERGY: 0 3.5568 1.1935 1.3441 0.0000 -10683.2370 1408.3167 0.0000 0.0000 1731.9478 -7536.8780 293.7498 -9268.8258 -7536.8780 293.7498 -738.2155 -655.5883 31272.0813 -738.2155 -655.5883
ENERGY: 300000 1.1670 4.3662 3.5954 0.0000 -10717.3850 1439.0527 0.0000 0.0000 1798.8185 -7470.3851 305.0916 -9269.2036 -7522.5163 298.3726 -228.8255 -109.7464 30871.2346 -347.1371 -258.6420
ENERGY: 600000 0.8445 2.6534 1.4712 0.0000 -10801.0161 1495.4636 0.0000 0.0000 1749.3620 -7551.2213 296.7034 -9300.5833 -7504.1346 299.6912 93.0568 217.0529 30785.4812 -451.6752 -375.7703
ENERGY: 900000 0.1598 2.1758 3.9874 0.0000 -10635.0678 1357.9485 0.0000 0.0000 1772.4201 -7498.3762 300.6142 -9270.7963 -7502.4365 300.2958 -735.3656 -634.4944 30390.4739 -416.2720 -339.1252
ENERGY: 1200000 0.7983 1.4751 2.7591 0.0000 -10814.0304 1528.3223 0.0000 0.0000 1746.6136 -7534.0620 296.2373 -9280.6756 -7506.9493 299.2721 549.3793 618.8129 30562.9049 -276.7092 -207.9365
ENERGY: 1500000 2.2208 5.7713 2.7156 0.0000 -10739.3024 1430.7712 0.0000 0.0000 1769.4644 -7528.3591 300.1129 -9297.8235 -7513.9217 298.8964 -66.2607 -33.2076 30490.7451 -210.9535 -144.0878
TCL: Running FEP window  17: Lambda1 0.19999999999999968 Lambda2 0.1499999999999997 [dLambda -0.04999999999999999]
TCL: Setting parameter firsttimestep to 0
TCL: Setting parameter alchLambda to 0.19999999999999968
Info: NONBONDED TABLE R-SQUARED SPACING: 0.0625
Info: NONBONDED TABLE SIZE: 705 POINTS
TCL: Setting parameter alchLambda2 to 0.1499999999999997
Info: NONBONDED TABLE R-SQUARED SPACING: 0.0625
Info: NONBONDED TABLE SIZE: 705 POINTS
TCL: Running for 1500000 steps
ETITLE: TS BOND ANGLE DIHED IMPRP ELECT VDW BOUNDARY MISC KINETIC TOTAL TEMP POTENTIAL TOTALAVG TEMPAVG PRESSURE GPRESSURE VOLUME PRESSAVG GPRESSAVG
ENERGY: 0 2.2208 5.7713 2.7156 0.0000 -10739.3030 1430.9976 0.0000 0.0000 1768.6117 -7528.9860 299.9683 -9297.5977 -7528.9860 299.9683 -124.5527 -34.7163 30490.7451 -124.5527 -34.7163
ENERGY: 300000 3.2776 1.2820 4.0003 0.0000 -10755.2205 1505.7362 0.0000 0.0000 1747.5082 -7493.4161 296.3890 -9240.9243 -7500.9262 297.2472 477.1332 499.0034 30503.4725 -105.9317 -39.8640
ENERGY: 600000 0.4087 1.5563 2.2966 0.0000 -10731.6629 1397.0770 0.0000 0.0000 1731.1500 -7599.1743 293.6145 -9330.3243 -7528.8939 297.1641 -624.8262 -544.0858 30426.5215 -175.3717 -95.6363
ENERGY: 900000 2.2583 3.3303 3.2446 0.0000 -10911.9874 1555.4213 0.0000 0.0000 1762.1294 -7585.6035 298.8688 -9347.7329 -7540.9812 297.7937 594.7758 680.2279 30456.0091 -135.5706 -63.3978
ENERGY: 1200000 1.9616 2.8798 2.8784 0.0000 -10683.8425 1380.8771 0.0000 0.0000 1753.9230 -7541.3226 297.4770 -9295.2455 -7532.3483 297.5493 -527.6922 -450.0937 30459.7437 -89.2756 -21.1002
ENERGY: 1500000 3.0831 5.4088 2.9505 0.0000 -10705.3396 1450.7861 0.0000 0.0000 1710.9073 -7532.2039 290.1812 -9243.1112 -7528.5178 297.5056 152.7875 208.6066 30294.3915 -71.4898 -6.5053
TCL: Running FEP window  18: Lambda1 0.1499999999999997 Lambda2 0.09999999999999969 [dLambda -0.05 ]
TCL: Setting parameter firsttimestep to 0
TCL: Setting parameter alchLambda to 0.1499999999999997
Info: NONBONDED TABLE R-SQUARED SPACING: 0.0625
Info: NONBONDED TABLE SIZE: 705 POINTS
TCL: Setting parameter alchLambda2 to 0.09999999999999969
Info: NONBONDED TABLE R-SQUARED SPACING: 0.0625
Info: NONBONDED TABLE SIZE: 705 POINTS
TCL: Running for 1500000 steps
ETITLE: TS BOND ANGLE DIHED IMPRP ELECT VDW BOUNDARY MISC KINETIC TOTAL TEMP POTENTIAL TOTALAVG TEMPAVG PRESSURE GPRESSURE VOLUME PRESSAVG GPRESSAVG
ENERGY: 0 3.0831 5.4088 2.9505 0.0000 -10705.3396 1450.9596 0.0000 0.0000 1709.9827 -7532.9550 290.0244 -9242.9377 -7532.9550 290.0244 127.6358 209.2330 30294.3915 127.6358 209.2330
ENERGY: 300000 2.1930 1.5028 1.9675 0.0000 -10819.9127 1543.9379 0.0000 0.0000 1761.3329 -7508.9785 298.7338 -9270.3114 -7541.7940 299.2657 961.6842 1033.7578 30053.5826 56.2231 141.9969
ENERGY: 600000 1.7378 2.3968 2.4599 0.0000 -10714.9730 1410.9378 0.0000 0.0000 1797.1210 -7500.3198 304.8036 -9297.4408 -7542.5330 299.9553 -493.9392 -401.2176 30749.2470 -111.7878 -11.9624
ENERGY: 900000 4.5009 3.5429 2.7958 0.0000 -10709.6776 1424.7974 0.0000 0.0000 1764.0114 -7510.0292 299.1880 -9274.0406 -7541.9013 299.1190 -144.1754 -65.7133 30254.7922 -155.4379 -70.0778
ENERGY: 1200000 2.4619 1.1068 4.5257 0.0000 -10880.5300 1545.0964 0.0000 0.0000 1786.3639 -7540.9754 302.9792 -9327.3393 -7545.7935 298.4539 608.1747 687.5296 30298.4315 -126.6786 -46.0404
ENERGY: 1500000 2.1942 3.1779 2.5696 0.0000 -10741.5085 1424.8230 0.0000 0.0000 1766.4159 -7542.3279 299.5959 -9308.7438 -7539.5114 298.9544 -557.2024 -490.0099 30841.5152 -91.6490 -16.5607
TCL: Running FEP window  19: Lambda1 0.09999999999999969 Lambda2 0.049999999999999684 [dLambda -0.05 ]
TCL: Setting parameter firsttimestep to 0
TCL: Setting parameter alchLambda to 0.09999999999999969
Info: NONBONDED TABLE R-SQUARED SPACING: 0.0625
Info: NONBONDED TABLE SIZE: 705 POINTS
TCL: Setting parameter alchLambda2 to 0.049999999999999684
Info: NONBONDED TABLE R-SQUARED SPACING: 0.0625
Info: NONBONDED TABLE SIZE: 705 POINTS
TCL: Running for 1500000 steps
ETITLE: TS BOND ANGLE DIHED IMPRP ELECT VDW BOUNDARY MISC KINETIC TOTAL TEMP POTENTIAL TOTALAVG TEMPAVG PRESSURE GPRESSURE VOLUME PRESSAVG GPRESSAVG
ENERGY: 0 2.1942 3.1779 2.5696 0.0000 -10741.5088 1424.9290 0.0000 0.0000 1765.5240 -7543.1141 299.4446 -9308.6381 -7543.1141 299.4446 -579.5034 -494.8338 30841.5152 -579.5034 -494.8338
ENERGY: 300000 1.4864 0.9250 1.6204 0.0000 -10793.5044 1503.0761 0.0000 0.0000 1752.4487 -7533.9478 297.2269 -9286.3965 -7497.7060 298.4789 341.3841 329.1447 30406.4456 -13.2494 21.2989
ENERGY: 600000 2.0049 2.0041 2.7240 0.0000 -10833.5214 1575.8335 0.0000 0.0000 1737.1969 -7513.7580 294.6401 -9250.9549 -7490.7398 299.6479 1100.8540 1103.2679 30330.5919 90.7849 115.4032
ENERGY: 900000 3.6083 2.4446 2.4365 0.0000 -10802.8196 1481.0021 0.0000 0.0000 1742.1089 -7571.2192 295.4732 -9313.3281 -7509.7435 298.9079 360.0307 449.2246 30010.2747 39.5245 79.9492
ENERGY: 1200000 1.8548 3.9467 1.7492 0.0000 -10673.6667 1428.2181 0.0000 0.0000 1783.7081 -7454.1899 302.5287 -9237.8980 -7522.8518 297.2240 -27.7327 38.8900 30444.6502 126.2660 171.1822
ENERGY: 1500000 0.8385 1.7603 2.7558 0.0000 -10813.8248 1440.3796 0.0000 0.0000 1756.9208 -7611.1697 297.9854 -9368.0905 -7527.4750 297.7715 -233.9873 -185.4531 30346.5392 16.6985 67.1579
TCL: Running FEP window  20: Lambda1 0.049999999999999684 Lambda2 0.0    [dLambda -0.049999999999999684]
TCL: Setting parameter firsttimestep to 0
TCL: Setting parameter alchLambda to 0.049999999999999684
Info: NONBONDED TABLE R-SQUARED SPACING: 0.0625
Info: NONBONDED TABLE SIZE: 705 POINTS
TCL: Setting parameter alchLambda2 to 0.0
Info: NONBONDED TABLE R-SQUARED SPACING: 0.0625
Info: NONBONDED TABLE SIZE: 705 POINTS
TCL: Running for 1500000 steps
ETITLE: TS BOND ANGLE DIHED IMPRP ELECT VDW BOUNDARY MISC KINETIC TOTAL TEMP POTENTIAL TOTALAVG TEMPAVG PRESSURE GPRESSURE VOLUME PRESSAVG GPRESSAVG
ENERGY: 0 0.8385 1.7603 2.7558 0.0000 -10813.8243 1440.3511 0.0000 0.0000 1756.0516 -7612.0669 297.8380 -9368.1185 -7612.0669 297.8380 -260.2820 -188.7656 30346.5392 -260.2820 -188.7656
ENERGY: 300000 1.7090 1.7646 3.2335 0.0000 -10756.5588 1446.1531 0.0000 0.0000 1784.6010 -7519.0977 302.6802 -9303.6987 -7568.6930 300.6109 -246.3135 -243.4091 30709.6821 73.4639 129.0472
ENERGY: 600000 3.0573 5.3090 1.2526 0.0000 -10569.1613 1361.7330 0.0000 0.0000 1741.3609 -7456.4484 295.3464 -9197.8093 -7533.1164 299.8166 -368.3452 -330.6732 30500.0241 -7.4495 46.3997
ENERGY: 900000 1.2039 2.6753 1.1660 0.0000 -10799.1460 1450.7408 0.0000 0.0000 1734.1591 -7609.2009 294.1249 -9343.3600 -7550.4086 298.8378 -260.7751 -194.3196 30610.0844 -115.7888 -57.1817
ENERGY: 1200000 1.2412 3.9266 2.7046 0.0000 -10899.9699 1511.8698 0.0000 0.0000 1800.0243 -7580.2034 305.2961 -9380.2277 -7548.5740 299.4924 342.1186 373.7944 30294.5812 -109.7632 -56.2586
ENERGY: 1500000 1.6659 2.7740 4.9291 0.0000 -10625.5768 1384.6056 0.0000 0.0000 1761.9088 -7469.6932 298.8314 -9231.6021 -7539.2253 299.2794 -597.7619 -534.9455 31269.5690 -188.7337 -134.8998
TCL: Exiting due to exit command.
