Info: SIMULATION PARAMETERS:
Info: TIMESTEP               2
Info: NUMBER OF STEPS        0
Info: STEPS PER CYCLE        10
Info: PERIODIC CELL BASIS 1  31.0611 0 0
Info: PERIODIC CELL BASIS 2  0 29.7587 0
Info: PERIODIC CELL BASIS 3  0 0 32.9997
Info: PERIODIC CELL CENTER   0 0 0
Info: WRAPPING WATERS AROUND PERIODIC BOUNDARIES ON OUTPUT.
Info: WRAPPING ALL CLUSTERS AROUND PERIODIC BOUNDARIES ON OUTPUT.
Info: FIRST LDB TIMESTEP     50
Info: LAST LDB TIMESTEP     -1
Info: HOM BACKGROUND SCALING 1
Info: PME BACKGROUND SCALING 1
Info: MIN ATOMS PER PATCH    40
Info: EMPTY PATCH LOAD       40 ATOMS
Info: VELOCITY FILE          mobley_3187514_equil.vel
Info: CENTER OF MASS MOVING INITIALLY? NO
Info: DIELECTRIC             1
Info: EXCLUDE                SCALED ONE-FOUR
Info: 1-4 ELECTROSTATICS SCALED BY 0.833333
Info: MODIFIED 1-4 VDW PARAMETERS WILL BE USED
Info: DCD FILENAME           mobley_3187514_prod.dcd
Info: DCD FREQUENCY          100000
Info: DCD FIRST STEP         100000
Info: DCD FILE WILL CONTAIN UNIT CELL DATA
Info: XST FILENAME           mobley_3187514_prod.xst
Info: XST FREQUENCY          100000
Info: NO VELOCITY DCD OUTPUT
Info: NO FORCE DCD OUTPUT
Info: OUTPUT FILENAME        mobley_3187514_prod
Info: BINARY OUTPUT FILES WILL BE USED
Info: RESTART FILENAME       mobley_3187514_prod.restart
Info: RESTART FREQUENCY      100000
Info: BINARY RESTART FILES WILL BE USED
Info: CUTOFF                 9
Info: PAIRLIST DISTANCE      11
Info: PAIRLIST SHRINK RATE   0.01
Info: PAIRLIST GROW RATE     0.01
Info: PAIRLIST TRIGGER       0.3
Info: PAIRLISTS PER CYCLE    2
Info: PAIRLISTS ENABLED
Info: MARGIN                 2
Info: HYDROGEN GROUP CUTOFF  2.5
Info: PATCH DIMENSION        15.5
Info: ENERGY OUTPUT STEPS    100000
Info: ENERGY EVALUATION STEPS    100000
Info: OUTPUT ENERGY PRECISION 4
Info: CROSSTERM ENERGY INCLUDED IN DIHEDRAL
Info: TIMING OUTPUT STEPS    1000000
Info: PRESSURE OUTPUT STEPS  100000
Info: ALCHEMICAL FEP ON
Info: FEP CURRENT LAMBDA VALUE     1
Info: FEP COMPARISON LAMBDA VALUE  0.95
Info: FEP INTRA-ALCHEMICAL NON-BONDED INTERACTIONS WILL BE RETAINED
Info: FEP INTRA-ALCHEMICAL BONDED INTERACTIONS WILL BE RETAINED
Info: FEP VDW SHIFTING COEFFICIENT 5
Info: FEP ELEC. ACTIVE FOR ANNIHILATED PARTICLES BETWEEN LAMBDA = 0 AND LAMBDA = 0.5
Info: FEP ELEC. ACTIVE FOR EXNIHILATED PARTICLES BETWEEN LAMBDA = 0.5 AND LAMBDA = 1
Info: FEP VDW ACTIVE FOR ANNIHILATED PARTICLES BETWEEN LAMBDA = 0 AND LAMBDA = 1
Info: FEP VDW ACTIVE FOR EXNIHILATED PARTICLES BETWEEN LAMBDA = 0 AND LAMBDA = 1
Info: FEP BOND ACTIVE FOR ANNIHILATED PARTICLES BETWEEN LAMBDA = 1 AND LAMBDA = 1
Info: FEP BOND ACTIVE FOR EXNIHILATED PARTICLES BETWEEN LAMBDA = 0 AND LAMBDA = 0
Info: LANGEVIN DYNAMICS ACTIVE
Info: LANGEVIN TEMPERATURE   300
Info: LANGEVIN USING BBK INTEGRATOR
Info: LANGEVIN DAMPING COEFFICIENT IS 1 INVERSE PS
Info: LANGEVIN DYNAMICS APPLIED TO HYDROGENS
Info: LANGEVIN PISTON PRESSURE CONTROL ACTIVE
Info:        TARGET PRESSURE IS 1.01325 BAR
Info:     OSCILLATION PERIOD IS 50 FS
Info:             DECAY TIME IS 25 FS
Info:     PISTON TEMPERATURE IS 300 K
Info:       PRESSURE CONTROL IS GROUP-BASED
Info:    INITIAL STRAIN RATE IS -0.000155514 -0.000155514 -0.000155514
Info:       CELL FLUCTUATION IS ISOTROPIC
Info: PARTICLE MESH EWALD (PME) ACTIVE
Info: PME TOLERANCE               1e-06
Info: PME EWALD COEFFICIENT       0.348832
Info: PME INTERPOLATION ORDER     4
Info: PME GRID DIMENSIONS         32 32 36
Info: PME MAXIMUM GRID SPACING    1
Info: PME CALCULATION WILL BE PERFORMED ON GPU
Info: FULL ELECTROSTATIC EVALUATION FREQUENCY      2
Info: USING VERLET I (r-RESPA) MTS SCHEME.
Info: C1 SPLITTING OF LONG RANGE ELECTROSTATICS
Info: PLACING ATOMS IN PATCHES BY HYDROGEN GROUPS
Info: RIGID BONDS TO HYDROGEN : ALL
Info:         ERROR TOLERANCE : 1e-08
Info:          MAX ITERATIONS : 100
Info: RIGID WATER USING SETTLE ALGORITHM
Info: RANDOM NUMBER SEED     1743603186
Info: USE HYDROGEN BONDS?    NO
Info: Using AMBER format force field!
Info: AMBER PARM FILE        mobley_3187514.prmtop
Info: COORDINATE PDB         mobley_3187514.pdb
Info: Exclusions will be read from PARM file!
Info: SCNB (VDW SCALING)     2
Info: USING ARITHMETIC MEAN TO COMBINE L-J SIGMA PARAMETERS
Info: BINARY COORDINATES     mobley_3187514_equil.coor
Info: SUMMARY OF PARAMETERS:
Info: 8 BONDS
Info: 8 ANGLES
Info:   8 HARMONIC
Info:   0 COSINE-BASED
Info: 4 DIHEDRAL
Info: 0 IMPROPER
Info: 0 CROSSTERM
Info: 0 VDW
Info: 36 VDW_PAIRS
Info: 0 NBTHOLE_PAIRS
Info: To read alchdata from file: mobley_3187514.pdb
Info: To read alchflag data from column: 5
Info: STRUCTURE SUMMARY:
Info: 2993 ATOMS
Info: 2993 BONDS
Info: 27 ANGLES
Info: 41 DIHEDRALS
Info: 0 IMPROPERS
Info: 0 CROSSTERMS
Info: 3051 EXCLUSIONS
Info: 2985 RIGID BONDS
Info: ALCH: 0 ATOMS TO DISAPPEAR IN FINAL STATE
Info: ALCH: 17 ATOMS TO APPEAR IN FINAL STATE
Info: 5994 DEGREES OF FREEDOM
Info: 1000 HYDROGEN GROUPS
Info: 4 ATOMS IN LARGEST HYDROGEN GROUP
Info: 1000 MIGRATION GROUPS
Info: 4 ATOMS IN LARGEST MIGRATION GROUP
Info: TOTAL MASS = 17979 amu
Info: TOTAL CHARGE = 4.09782e-08 e
Info: MASS DENSITY = 0.978781 g/cm^3
Info: ATOM DENSITY = 0.0981221 atoms/A^3
Info: ADDED 0 IMPLICIT EXCLUSIONS
Info: NONBONDED TABLE R-SQUARED SPACING: 0.0625
Info: NONBONDED TABLE SIZE: 705 POINTS
Info: REMOVING COM VELOCITY -0.07448 0.0614768 -0.0108878
Info: Use 3D box decompostion in PME FFT.
Info: Updated CUDA force table with 4096 elements.
Info: Updated CUDA LJ table with 8 x 8 elements.
Info: Found 16 unique exclusion lists needing 36 bytes
TCL: Running for 1500000 steps
ETITLE: TS BOND ANGLE DIHED IMPRP ELECT VDW BOUNDARY MISC KINETIC TOTAL TEMP POTENTIAL TOTALAVG TEMPAVG PRESSURE GPRESSURE VOLUME PRESSAVG GPRESSAVG
ENERGY: 0 1.4930 6.3132 3.3360 0.0000 -10854.9907 1450.5185 0.0000 0.0000 1783.3812 -7609.9488 299.4455 -9393.3300 -7609.9488 299.4455 79.4559 161.2233 30502.8176 79.4559 161.2233
ENERGY: 300000 2.4032 3.0295 4.4602 0.0000 -10880.5412 1472.2555 0.0000 0.0000 1790.4735 -7607.9192 300.6364 -9398.3928 -7587.8004 301.0330 543.0547 588.2015 30182.6045 -111.1706 -54.2893
ENERGY: 600000 1.9214 6.7174 6.4633 0.0000 -10799.9719 1380.7112 0.0000 0.0000 1807.9809 -7596.1777 303.5760 -9404.1586 -7609.7899 299.3049 -700.8187 -615.5502 30939.5791 -183.9479 -129.6585
ENERGY: 900000 2.1652 5.9080 3.4900 0.0000 -10797.0542 1460.4552 0.0000 0.0000 1773.6200 -7551.4158 297.8065 -9325.0358 -7596.6901 299.2308 251.0126 303.9835 30851.3601 -106.9553 -49.1574
ENERGY: 1200000 2.4485 7.9360 2.3859 0.0000 -10861.0586 1378.1824 0.0000 0.0000 1786.3751 -7683.7307 299.9482 -9470.1058 -7601.4280 300.4333 -913.8006 -792.2422 30774.7739 -133.9065 -71.2125
ENERGY: 1500000 2.8400 3.9248 2.3139 0.0000 -10756.9832 1390.8267 0.0000 0.0000 1774.0913 -7582.9865 297.8857 -9357.0778 -7597.6700 300.8940 -362.8059 -322.2901 30858.0474 -159.7423 -103.1154
TCL: Running FEP window   2: Lambda1 0.95   Lambda2 0.8999999999999999 [dLambda -0.050000000000000044]
TCL: Setting parameter firsttimestep to 0
TCL: Setting parameter alchLambda to 0.95
Info: NONBONDED TABLE R-SQUARED SPACING: 0.0625
Info: NONBONDED TABLE SIZE: 705 POINTS
TCL: Setting parameter alchLambda2 to 0.8999999999999999
Info: NONBONDED TABLE R-SQUARED SPACING: 0.0625
Info: NONBONDED TABLE SIZE: 705 POINTS
TCL: Running for 1500000 steps
ETITLE: TS BOND ANGLE DIHED IMPRP ELECT VDW BOUNDARY MISC KINETIC TOTAL TEMP POTENTIAL TOTALAVG TEMPAVG PRESSURE GPRESSURE VOLUME PRESSAVG GPRESSAVG
ENERGY: 0 2.8400 3.9248 2.3139 0.0000 -10755.3948 1390.4823 0.0000 0.0000 1773.2045 -7582.6293 297.7368 -9355.8338 -7582.6293 297.7368 -443.9516 -336.4230 30858.0474 -443.9516 -336.4230
ENERGY: 300000 1.3014 7.0003 5.1193 0.0000 -10836.1879 1463.0992 0.0000 0.0000 1775.1174 -7584.5503 298.0580 -9359.6677 -7607.8041 299.7089 370.7496 376.7010 30370.3497 -97.9624 -25.7984
ENERGY: 600000 2.2141 8.3413 3.0655 0.0000 -10789.2348 1410.2155 0.0000 0.0000 1811.0707 -7554.3277 304.0948 -9365.3984 -7598.5838 299.2817 -467.1899 -359.3318 31261.1903 -190.1217 -126.8075
ENERGY: 900000 2.3579 6.1850 4.2581 0.0000 -10726.1397 1370.6814 0.0000 0.0000 1785.5384 -7557.1188 299.8077 -9342.6573 -7600.8522 299.7285 -796.7099 -683.2948 30826.1237 -208.3820 -138.4428
ENERGY: 1200000 5.8444 2.7971 5.0894 0.0000 -10912.7356 1483.4657 0.0000 0.0000 1786.9142 -7628.6249 300.0387 -9415.5391 -7608.1693 300.0379 -155.9788 -114.7957 31032.6761 -150.3040 -82.9900
ENERGY: 1500000 0.8913 9.4222 1.6822 0.0000 -10871.7213 1458.6894 0.0000 0.0000 1848.4265 -7552.6098 310.3672 -9401.0362 -7609.2254 301.0137 82.1082 134.3949 30838.4675 -96.4432 -29.1783
TCL: Running FEP window   3: Lambda1 0.8999999999999999 Lambda2 0.8499999999999999 [dLambda -0.050000000000000044]
TCL: Setting parameter firsttimestep to 0
TCL: Setting parameter alchLambda to 0.8999999999999999
Info: NONBONDED TABLE R-SQUARED SPACING: 0.0625
Info: NONBONDED TABLE SIZE: 705 POINTS
TCL: Setting parameter alchLambda2 to 0.8499999999999999
Info: NONBONDED TABLE R-SQUARED SPACING: 0.0625
Info: NONBONDED TABLE SIZE: 705 POINTS
TCL: Running for 1500000 steps
ETITLE: TS BOND ANGLE DIHED IMPRP ELECT VDW BOUNDARY MISC KINETIC TOTAL TEMP POTENTIAL TOTALAVG TEMPAVG PRESSURE GPRESSURE VOLUME PRESSAVG GPRESSAVG
ENERGY: 0 0.8913 9.4222 1.6822 0.0000 -10869.8319 1457.7255 0.0000 0.0000 1847.4822 -7552.6285 310.2087 -9400.1108 -7552.6285 310.2087 45.3868 113.7653 30838.4675 45.3868 113.7653
ENERGY: 300000 1.9858 5.6028 3.4237 0.0000 -10969.3968 1466.1246 0.0000 0.0000 1821.2812 -7670.9788 305.8093 -9492.2599 -7626.2763 304.8674 -142.5268 -31.5088 30598.1285 120.5327 198.2976
ENERGY: 600000 0.8126 7.5040 3.8666 0.0000 -10822.1987 1363.1290 0.0000 0.0000 1797.4918 -7649.3948 301.8148 -9446.8866 -7594.6712 303.7278 -776.8485 -757.8789 30783.4579 -54.0321 -1.4355
ENERGY: 900000 3.9269 2.5708 5.1674 0.0000 -10854.3043 1417.9980 0.0000 0.0000 1760.5751 -7664.0660 295.6162 -9424.6412 -7606.1238 301.4431 -626.7448 -529.6242 31032.5612 -195.4098 -140.6281
ENERGY: 1200000 1.9619 3.7360 3.4520 0.0000 -10946.8528 1435.0325 0.0000 0.0000 1754.3024 -7748.3680 294.5629 -9502.6705 -7608.0730 300.9199 -426.4248 -375.6523 30645.9728 -233.7084 -167.7225
ENERGY: 1500000 1.1515 2.8123 3.2403 0.0000 -10898.7249 1472.3989 0.0000 0.0000 1786.2146 -7632.9073 299.9213 -9419.1219 -7607.5883 300.6538 39.1174 54.4690 30899.8917 -231.1465 -169.0675
TCL: Running FEP window   4: Lambda1 0.8499999999999999 Lambda2 0.7999999999999998 [dLambda -0.050000000000000044]
TCL: Setting parameter firsttimestep to 0
TCL: Setting parameter alchLambda to 0.8499999999999999
Info: NONBONDED TABLE R-SQUARED SPACING: 0.0625
Info: NONBONDED TABLE SIZE: 705 POINTS
TCL: Setting parameter alchLambda2 to 0.7999999999999998
Info: NONBONDED TABLE R-SQUARED SPACING: 0.0625
Info: NONBONDED TABLE SIZE: 705 POINTS
TCL: Running for 1500000 steps
ETITLE: TS BOND ANGLE DIHED IMPRP ELECT VDW BOUNDARY MISC KINETIC TOTAL TEMP POTENTIAL TOTALAVG TEMPAVG PRESSURE GPRESSURE VOLUME PRESSAVG GPRESSAVG
ENERGY: 0 1.1515 2.8123 3.2403 0.0000 -10897.4680 1472.8918 0.0000 0.0000 1785.3196 -7632.0525 299.7710 -9417.3721 -7632.0525 299.7710 -45.9686 50.0918 30899.8917 -45.9686 50.0918
ENERGY: 300000 1.8542 7.3797 5.5159 0.0000 -10719.7449 1375.6055 0.0000 0.0000 1804.2529 -7525.1367 302.9501 -9329.3896 -7569.6792 305.7981 -472.5296 -476.6670 30706.2943 134.0400 228.2160
ENERGY: 600000 4.5539 3.7357 3.8235 0.0000 -10774.4404 1390.7234 0.0000 0.0000 1753.5887 -7618.0152 294.4431 -9371.6039 -7593.2374 303.3374 -758.6477 -660.5459 31417.5111 -179.6786 -93.8190
ENERGY: 900000 4.1790 7.2568 5.3284 0.0000 -10928.6506 1527.3479 0.0000 0.0000 1800.1593 -7584.3792 302.2627 -9384.5385 -7595.1972 303.0493 536.9683 607.5441 30783.0858 -33.4449 40.1991
ENERGY: 1200000 4.1998 7.4752 3.6169 0.0000 -10826.1500 1381.7513 0.0000 0.0000 1754.8106 -7674.2962 294.6483 -9429.1068 -7600.4030 301.8338 -631.2407 -619.3869 30581.5710 -6.2915 55.9562
ENERGY: 1500000 1.9815 4.8442 4.5672 0.0000 -10815.7225 1463.4736 0.0000 0.0000 1800.5676 -7540.2884 302.3313 -9340.8561 -7607.7770 300.8114 203.1949 218.7702 30873.1645 -19.3694 39.8040
TCL: Running FEP window   5: Lambda1 0.7999999999999998 Lambda2 0.7499999999999998 [dLambda -0.050000000000000044]
TCL: Setting parameter firsttimestep to 0
TCL: Setting parameter alchLambda to 0.7999999999999998
Info: NONBONDED TABLE R-SQUARED SPACING: 0.0625
Info: NONBONDED TABLE SIZE: 705 POINTS
TCL: Setting parameter alchLambda2 to 0.7499999999999998
Info: NONBONDED TABLE R-SQUARED SPACING: 0.0625
Info: NONBONDED TABLE SIZE: 705 POINTS
TCL: Running for 1500000 steps
ETITLE: TS BOND ANGLE DIHED IMPRP ELECT VDW BOUNDARY MISC KINETIC TOTAL TEMP POTENTIAL TOTALAVG TEMPAVG PRESSURE GPRESSURE VOLUME PRESSAVG GPRESSAVG
ENERGY: 0 1.9815 4.8442 4.5672 0.0000 -10813.7488 1462.9906 0.0000 0.0000 1799.6705 -7539.6948 302.1807 -9339.3653 -7539.6948 302.1807 111.2451 207.5363 30873.1645 111.2451 207.5363
ENERGY: 300000 1.6078 4.5547 2.0080 0.0000 -10795.4838 1395.2731 0.0000 0.0000 1809.4098 -7582.6305 303.8160 -9392.0402 -7549.8117 301.5700 -800.5075 -712.2964 31175.4364 -285.1080 -216.3446
ENERGY: 600000 1.2965 5.2450 5.0120 0.0000 -10911.3938 1440.6848 0.0000 0.0000 1786.0907 -7673.0648 299.9005 -9459.1555 -7581.9275 300.0247 -174.2689 -133.3255 30635.0294 -145.0620 -97.0914
ENERGY: 900000 1.5059 6.2784 6.0140 0.0000 -10845.2574 1417.8983 0.0000 0.0000 1817.2428 -7596.3180 305.1312 -9413.5609 -7581.8361 300.2667 -207.8194 -150.6677 30454.5387 -54.9339 -13.0555
ENERGY: 1200000 1.4697 7.2008 4.2447 0.0000 -10893.5247 1435.3130 0.0000 0.0000 1782.1729 -7663.1237 299.2426 -9445.2965 -7591.4984 300.0209 -457.4480 -476.9840 31186.3971 -95.0574 -52.5702
ENERGY: 1500000 1.7838 6.2905 6.1719 0.0000 -10789.6724 1408.5524 0.0000 0.0000 1776.9103 -7589.9635 298.3590 -9366.8738 -7588.5104 300.8581 -587.3450 -504.8877 31071.5307 -145.8110 -98.5890
TCL: Running FEP window   6: Lambda1 0.7499999999999998 Lambda2 0.6999999999999997 [dLambda -0.050000000000000044]
TCL: Setting parameter firsttimestep to 0
TCL: Setting parameter alchLambda to 0.7499999999999998
Info: NONBONDED TABLE R-SQUARED SPACING: 0.0625
Info: NONBONDED TABLE SIZE: 705 POINTS
TCL: Setting parameter alchLambda2 to 0.6999999999999997
Info: NONBONDED TABLE R-SQUARED SPACING: 0.0625
Info: NONBONDED TABLE SIZE: 705 POINTS
TCL: Running for 1500000 steps
ETITLE: TS BOND ANGLE DIHED IMPRP ELECT VDW BOUNDARY MISC KINETIC TOTAL TEMP POTENTIAL TOTALAVG TEMPAVG PRESSURE GPRESSURE VOLUME PRESSAVG GPRESSAVG
ENERGY: 0 1.7837 6.2905 6.1719 0.0000 -10788.7401 1407.1783 0.0000 0.0000 1776.0203 -7591.2954 298.2096 -9367.3157 -7591.2954 298.2096 -605.0060 -527.4293 31071.5307 -605.0060 -527.4293
ENERGY: 300000 1.5971 5.4560 5.5413 0.0000 -10880.0741 1488.6049 0.0000 0.0000 1807.1720 -7571.7028 303.4402 -9378.8748 -7657.8772 298.9206 206.3697 274.1870 30845.5935 -117.2036 -45.2393
ENERGY: 600000 4.1319 2.1649 4.3993 0.0000 -10831.0347 1391.2951 0.0000 0.0000 1864.0824 -7564.9610 312.9960 -9429.0434 -7634.4464 301.1616 -598.0706 -565.7943 30913.5861 -244.6209 -174.4796
ENERGY: 900000 3.4697 4.0461 3.2256 0.0000 -11003.4241 1539.9736 0.0000 0.0000 1757.8264 -7694.8828 295.1546 -9452.7091 -7638.9143 301.3885 357.9146 370.1661 30980.3928 -130.1274 -59.2526
ENERGY: 1200000 1.8371 5.0026 3.0179 0.0000 -10775.7193 1403.3361 0.0000 0.0000 1744.5236 -7618.0021 292.9210 -9362.5256 -7637.7742 299.8299 -417.3145 -419.1626 30892.6729 -197.7298 -130.4064
ENERGY: 1500000 4.7507 5.6870 1.6109 0.0000 -10912.0475 1470.0847 0.0000 0.0000 1749.7830 -7680.1313 293.8041 -9429.9142 -7635.9616 299.9662 -111.2285 -96.4015 30942.0723 -184.5662 -119.3771
TCL: Running FEP window   7: Lambda1 0.6999999999999997 Lambda2 0.6499999999999997 [dLambda -0.050000000000000044]
TCL: Setting parameter firsttimestep to 0
TCL: Setting parameter alchLambda to 0.6999999999999997
Info: NONBONDED TABLE R-SQUARED SPACING: 0.0625
Info: NONBONDED TABLE SIZE: 705 POINTS
TCL: Setting parameter alchLambda2 to 0.6499999999999997
Info: NONBONDED TABLE R-SQUARED SPACING: 0.0625
Info: NONBONDED TABLE SIZE: 705 POINTS
TCL: Running for 1500000 steps
ETITLE: TS BOND ANGLE DIHED IMPRP ELECT VDW BOUNDARY MISC KINETIC TOTAL TEMP POTENTIAL TOTALAVG TEMPAVG PRESSURE GPRESSURE VOLUME PRESSAVG GPRESSAVG
ENERGY: 0 4.7507 5.6870 1.6109 0.0000 -10910.9684 1470.0927 0.0000 0.0000 1748.8898 -7679.9374 293.6541 -9428.8272 -7679.9374 293.6541 -181.9003 -102.4964 30942.0723 -181.9003 -102.4964
ENERGY: 300000 2.8195 6.3591 3.2705 0.0000 -10942.9039 1514.1175 0.0000 0.0000 1775.9283 -7640.4089 298.1941 -9416.3373 -7640.8707 296.3658 609.2612 657.2675 30354.8656 -29.8660 41.5563
ENERGY: 600000 0.9506 6.0229 3.3801 0.0000 -10887.2720 1385.4256 0.0000 0.0000 1766.4424 -7725.0503 296.6013 -9491.4926 -7642.1121 297.8571 -733.1812 -669.3525 30562.7671 -194.3695 -120.9375
ENERGY: 900000 0.8218 5.2814 4.2735 0.0000 -10723.0179 1374.7237 0.0000 0.0000 1823.8184 -7514.0993 306.2353 -9337.9176 -7610.5038 299.3664 -562.3702 -468.7993 31113.3925 -231.2519 -151.4566
ENERGY: 1200000 1.1282 6.4632 3.4580 0.0000 -10919.3850 1521.6421 0.0000 0.0000 1834.3004 -7552.3931 307.9953 -9386.6935 -7602.6116 300.4123 292.2809 393.2519 31107.6163 -249.6508 -176.2076
ENERGY: 1500000 2.3020 6.3900 1.7127 0.0000 -10896.8718 1425.6032 0.0000 0.0000 1777.3536 -7683.5102 298.4334 -9460.8638 -7599.5275 300.9366 -428.5465 -353.8138 30664.1375 -245.4060 -171.1337
TCL: Running FEP window   8: Lambda1 0.6499999999999997 Lambda2 0.5999999999999996 [dLambda -0.050000000000000044]
TCL: Setting parameter firsttimestep to 0
TCL: Setting parameter alchLambda to 0.6499999999999997
Info: NONBONDED TABLE R-SQUARED SPACING: 0.0625
Info: NONBONDED TABLE SIZE: 705 POINTS
TCL: Setting parameter alchLambda2 to 0.5999999999999996
Info: NONBONDED TABLE R-SQUARED SPACING: 0.0625
Info: NONBONDED TABLE SIZE: 705 POINTS
TCL: Running for 1500000 steps
ETITLE: TS BOND ANGLE DIHED IMPRP ELECT VDW BOUNDARY MISC KINETIC TOTAL TEMP POTENTIAL TOTALAVG TEMPAVG PRESSURE GPRESSURE VOLUME PRESSAVG GPRESSAVG
ENERGY: 0 2.3020 6.3900 1.7127 0.0000 -10896.4493 1426.2511 0.0000 0.0000 1776.4775 -7683.3160 298.2863 -9459.7935 -7683.3160 298.2863 -428.2579 -351.1260 30664.1375 -428.2579 -351.1260
ENERGY: 300000 2.1985 5.2110 4.3369 0.0000 -10850.0943 1460.6816 0.0000 0.0000 1778.5685 -7599.0977 298.6374 -9377.6662 -7581.1182 302.9777 -175.4457 -58.1337 30873.2158 -166.2297 -80.3770
ENERGY: 600000 1.4008 4.0206 3.7477 0.0000 -10911.3185 1483.8783 0.0000 0.0000 1748.8379 -7669.4332 293.6454 -9418.2711 -7603.1365 300.2454 107.9833 187.5746 30885.3527 -310.0075 -238.0107
ENERGY: 900000 1.4261 6.6218 3.6710 0.0000 -10877.1077 1529.7255 0.0000 0.0000 1709.9141 -7625.7492 287.1098 -9335.6634 -7598.9191 299.0417 547.7090 606.8492 30763.1662 -214.9587 -146.1217
ENERGY: 1200000 2.4139 4.8478 2.0261 0.0000 -10974.7166 1542.0910 0.0000 0.0000 1797.6699 -7625.6679 301.8447 -9423.3379 -7599.5444 299.6959 892.6440 932.7630 30171.2021 -128.7036 -69.9424
ENERGY: 1500000 4.4639 7.9000 3.2462 0.0000 -11006.6145 1518.8313 0.0000 0.0000 1780.6572 -7691.5159 298.9881 -9472.1730 -7604.5822 300.2271 67.6289 160.4855 30988.6137 -134.6049 -78.3899
TCL: Running FEP window   9: Lambda1 0.5999999999999996 Lambda2 0.5499999999999996 [dLambda -0.050000000000000044]
TCL: Setting parameter firsttimestep to 0
TCL: Setting parameter alchLambda to 0.5999999999999996
Info: NONBONDED TABLE R-SQUARED SPACING: 0.0625
Info: NONBONDED TABLE SIZE: 705 POINTS
TCL: Setting parameter alchLambda2 to 0.5499999999999996
Info: NONBONDED TABLE R-SQUARED SPACING: 0.0625
Info: NONBONDED TABLE SIZE: 705 POINTS
TCL: Running for 1500000 steps
ETITLE: TS BOND ANGLE DIHED IMPRP ELECT VDW BOUNDARY MISC KINETIC TOTAL TEMP POTENTIAL TOTALAVG TEMPAVG PRESSURE GPRESSURE VOLUME PRESSAVG GPRESSAVG
ENERGY: 0 4.4639 7.9000 3.2462 0.0000 -11005.7092 1518.6271 0.0000 0.0000 1779.7962 -7691.6757 298.8436 -9471.4720 -7691.6757 298.8436 73.2680 152.9492 30988.6137 73.2680 152.9492
ENERGY: 300000 2.3113 5.9789 2.4580 0.0000 -10928.0328 1487.3382 0.0000 0.0000 1779.2732 -7650.6732 298.7558 -9429.9464 -7610.6023 298.7853 -94.1116 -49.5622 31113.2849 -117.5030 -43.3595
ENERGY: 600000 3.4794 3.8245 3.4239 0.0000 -10750.8544 1339.5484 0.0000 0.0000 1784.6380 -7615.9402 299.6566 -9400.5782 -7576.5460 300.3430 -816.3454 -658.2507 30465.3631 -451.4804 -378.3081
ENERGY: 900000 3.9920 5.8644 4.9415 0.0000 -10803.5534 1431.3096 0.0000 0.0000 1808.3859 -7549.0600 303.6440 -9357.4459 -7578.0518 300.8288 -218.3168 -139.7835 30683.3439 -401.0211 -340.4032
ENERGY: 1200000 3.3350 4.0224 3.9640 0.0000 -10865.8802 1448.0221 0.0000 0.0000 1768.2214 -7638.3152 296.9001 -9406.5366 -7594.8853 300.6095 -155.7546 -96.0906 30673.9136 -317.9745 -262.2651
ENERGY: 1500000 0.8234 5.5972 3.3687 0.0000 -10936.6397 1521.9916 0.0000 0.0000 1743.0708 -7661.7880 292.6771 -9404.8588 -7599.4868 300.3758 313.8781 321.8206 31007.3435 -143.2186 -94.0734
TCL: Running FEP window  10: Lambda1 0.5499999999999996 Lambda2 0.4999999999999996 [dLambda -0.04999999999999999]
TCL: Setting parameter firsttimestep to 0
TCL: Setting parameter alchLambda to 0.5499999999999996
Info: NONBONDED TABLE R-SQUARED SPACING: 0.0625
Info: NONBONDED TABLE SIZE: 705 POINTS
TCL: Setting parameter alchLambda2 to 0.4999999999999996
Info: NONBONDED TABLE R-SQUARED SPACING: 0.0625
Info: NONBONDED TABLE SIZE: 705 POINTS
TCL: Running for 1500000 steps
ETITLE: TS BOND ANGLE DIHED IMPRP ELECT VDW BOUNDARY MISC KINETIC TOTAL TEMP POTENTIAL TOTALAVG TEMPAVG PRESSURE GPRESSURE VOLUME PRESSAVG GPRESSAVG
ENERGY: 0 0.8234 5.5972 3.3687 0.0000 -10935.6073 1522.2447 0.0000 0.0000 1742.2146 -7661.3587 292.5333 -9403.5733 -7661.3587 292.5333 253.7144 321.7061 31007.3435 253.7144 321.7061
ENERGY: 300000 1.2304 4.9043 1.3134 0.0000 -10790.9711 1463.2866 0.0000 0.0000 1767.4869 -7552.7495 296.7767 -9320.2364 -7535.4068 300.8230 318.2084 378.8947 30443.3211 192.1586 261.2245
ENERGY: 600000 3.5652 3.3958 2.9155 0.0000 -10833.7903 1437.0158 0.0000 0.0000 1817.7209 -7569.1772 305.2115 -9386.8981 -7587.9233 299.6731 -150.7326 -72.7189 30555.7952 174.2611 234.0608
ENERGY: 900000 0.9244 2.4231 7.1630 0.0000 -10906.5684 1490.8226 0.0000 0.0000 1854.5546 -7550.6807 311.3962 -9405.2354 -7592.3699 301.9799 372.7596 433.2440 30448.0389 166.9572 216.5939
ENERGY: 1200000 1.3488 5.5544 3.8121 0.0000 -10851.6686 1435.3401 0.0000 0.0000 1797.7727 -7607.8405 301.8620 -9405.6131 -7602.5269 301.3552 -345.5411 -180.9778 30611.7176 167.4604 227.6191
ENERGY: 1500000 1.0383 2.9556 7.2145 0.0000 -10881.5812 1444.0480 0.0000 0.0000 1802.8417 -7623.4831 302.7131 -9426.3248 -7596.4290 301.5877 -26.4681 1.9714 30492.1662 163.9723 221.2587
TCL: Running FEP window  11: Lambda1 0.4999999999999996 Lambda2 0.4499999999999996 [dLambda -0.04999999999999999]
TCL: Setting parameter firsttimestep to 0
TCL: Setting parameter alchLambda to 0.4999999999999996
Info: NONBONDED TABLE R-SQUARED SPACING: 0.0625
Info: NONBONDED TABLE SIZE: 705 POINTS
TCL: Setting parameter alchLambda2 to 0.4499999999999996
Info: NONBONDED TABLE R-SQUARED SPACING: 0.0625
Info: NONBONDED TABLE SIZE: 705 POINTS
TCL: Running for 1500000 steps
ETITLE: TS BOND ANGLE DIHED IMPRP ELECT VDW BOUNDARY MISC KINETIC TOTAL TEMP POTENTIAL TOTALAVG TEMPAVG PRESSURE GPRESSURE VOLUME PRESSAVG GPRESSAVG
ENERGY: 0 1.0383 2.9556 7.2145 0.0000 -10880.9113 1444.6006 0.0000 0.0000 1802.0221 -7623.0802 302.5755 -9425.1023 -7623.0802 302.5755 -94.1813 -1.3883 30492.1662 -94.1813 -1.3883
ENERGY: 300000 3.6592 8.8264 5.0299 0.0000 -10879.7116 1456.2727 0.0000 0.0000 1818.1701 -7587.7533 305.2869 -9405.9234 -7582.4172 302.5404 -183.1437 -186.7116 30890.7369 -63.2337 -12.0435
ENERGY: 600000 1.4857 3.6133 3.6701 0.0000 -10767.9275 1422.9932 0.0000 0.0000 1745.5805 -7590.5847 293.0985 -9336.1651 -7589.3336 299.4098 -331.8492 -306.0728 30867.3601 105.0459 151.6118
ENERGY: 900000 6.4986 4.7955 4.4945 0.0000 -10902.2505 1483.9904 0.0000 0.0000 1762.2438 -7640.2276 295.8964 -9402.4714 -7583.7067 299.1063 112.6730 226.3416 30503.8796 101.8123 154.4333
ENERGY: 1200000 2.4254 5.8428 2.8581 0.0000 -10958.2996 1544.3365 0.0000 0.0000 1853.2408 -7549.5962 311.1756 -9402.8370 -7576.5635 299.4954 527.8290 623.1753 30740.4181 122.0912 180.4863
ENERGY: 1500000 1.1845 5.8124 5.6100 0.0000 -10887.6372 1408.2573 0.0000 0.0000 1741.3661 -7725.4068 292.3908 -9466.7729 -7588.1597 299.1344 -632.9425 -544.7070 30492.4763 78.4496 131.7285
TCL: Running FEP window  12: Lambda1 0.4499999999999996 Lambda2 0.39999999999999963 [dLambda -0.04999999999999999]
TCL: Setting parameter firsttimestep to 0
TCL: Setting parameter alchLambda to 0.4499999999999996
Info: NONBONDED TABLE R-SQUARED SPACING: 0.0625
Info: NONBONDED TABLE SIZE: 705 POINTS
TCL: Setting parameter alchLambda2 to 0.39999999999999963
Info: NONBONDED TABLE R-SQUARED SPACING: 0.0625
Info: NONBONDED TABLE SIZE: 705 POINTS
TCL: Running for 1500000 steps
ETITLE: TS BOND ANGLE DIHED IMPRP ELECT VDW BOUNDARY MISC KINETIC TOTAL TEMP POTENTIAL TOTALAVG TEMPAVG PRESSURE GPRESSURE VOLUME PRESSAVG GPRESSAVG
ENERGY: 0 1.1845 5.8124 5.6100 0.0000 -10887.6358 1408.4600 0.0000 0.0000 1740.4806 -7726.0882 292.2421 -9466.5688 -7726.0882 292.2421 -629.5259 -549.2551 30492.4763 -629.5259 -549.2551
ENERGY: 300000 2.3988 2.6959 3.3081 0.0000 -10956.0510 1532.4878 0.0000 0.0000 1738.5172 -7676.6431 291.9125 -9415.1603 -7606.9188 297.1313 458.3033 535.0172 30500.6082 -190.2032 -136.6892
ENERGY: 600000 1.5877 5.1863 5.5131 0.0000 -10868.5088 1495.5106 0.0000 0.0000 1747.7815 -7612.9297 293.4680 -9360.7112 -7600.1524 295.8903 238.5052 282.1234 31088.1780 -214.6382 -171.9749
ENERGY: 900000 1.2042 2.1390 5.1901 0.0000 -10761.6033 1427.4885 0.0000 0.0000 1822.7163 -7502.8652 306.0502 -9325.5815 -7603.0368 297.0914 -463.6107 -333.5578 31347.3984 -147.1489 -82.5895
ENERGY: 1200000 2.7538 3.1630 0.5366 0.0000 -10979.4706 1512.1434 0.0000 0.0000 1797.4214 -7663.4526 301.8030 -9460.8740 -7610.7109 297.0611 355.9221 417.1450 30531.5261 -72.8948 -15.8521
ENERGY: 1500000 1.8217 7.1230 4.5223 0.0000 -10898.0522 1495.3917 0.0000 0.0000 1775.7639 -7613.4296 298.1665 -9389.1935 -7620.3223 296.9101 142.0041 207.2736 31016.7629 -45.9406 15.4311
TCL: Running FEP window  13: Lambda1 0.39999999999999963 Lambda2 0.34999999999999964 [dLambda -0.04999999999999999]
TCL: Setting parameter firsttimestep to 0
TCL: Setting parameter alchLambda to 0.39999999999999963
Info: NONBONDED TABLE R-SQUARED SPACING: 0.0625
Info: NONBONDED TABLE SIZE: 705 POINTS
TCL: Setting parameter alchLambda2 to 0.34999999999999964
Info: NONBONDED TABLE R-SQUARED SPACING: 0.0625
Info: NONBONDED TABLE SIZE: 705 POINTS
TCL: Running for 1500000 steps
ETITLE: TS BOND ANGLE DIHED IMPRP ELECT VDW BOUNDARY MISC KINETIC TOTAL TEMP POTENTIAL TOTALAVG TEMPAVG PRESSURE GPRESSURE VOLUME PRESSAVG GPRESSAVG
ENERGY: 0 1.8217 7.1230 4.5223 0.0000 -10898.0518 1495.3127 0.0000 0.0000 1774.8884 -7614.3836 298.0195 -9389.2720 -7614.3836 298.0195 115.1193 200.1998 31016.7629 115.1193 200.1998
ENERGY: 300000 2.0002 8.5067 5.3904 0.0000 -10872.7983 1435.9156 0.0000 0.0000 1780.1334 -7640.8520 298.9002 -9420.9854 -7620.0831 299.4452 -399.9475 -327.4022 30913.1424 -222.2384 -132.7970
ENERGY: 600000 2.5752 2.1104 4.6146 0.0000 -10848.3470 1362.9203 0.0000 0.0000 1774.2449 -7701.8816 297.9115 -9476.1265 -7633.2189 298.7471 -931.3961 -826.3795 30426.0776 -218.1928 -127.1925
ENERGY: 900000 1.4233 5.3328 0.9344 0.0000 -10891.2063 1453.9357 0.0000 0.0000 1819.5313 -7610.0488 305.5154 -9429.5801 -7621.9414 299.0181 -237.3356 -181.1070 30798.8026 -105.8607 -27.9795
ENERGY: 1200000 2.4703 8.3168 8.3038 0.0000 -10911.9689 1466.5367 0.0000 0.0000 1786.4540 -7639.8874 299.9615 -9426.3414 -7615.9226 299.3767 -242.5516 -163.0751 31234.7172 -108.3002 -30.6762
ENERGY: 1500000 3.7122 4.7148 1.9654 0.0000 -10817.5373 1400.0733 0.0000 0.0000 1768.7238 -7638.3479 296.9844 -9407.0717 -7605.2000 299.9372 -504.0785 -514.6441 31018.2684 -144.9007 -75.6715
TCL: Running FEP window  14: Lambda1 0.34999999999999964 Lambda2 0.29999999999999966 [dLambda -0.04999999999999999]
TCL: Setting parameter firsttimestep to 0
TCL: Setting parameter alchLambda to 0.34999999999999964
Info: NONBONDED TABLE R-SQUARED SPACING: 0.0625
Info: NONBONDED TABLE SIZE: 705 POINTS
TCL: Setting parameter alchLambda2 to 0.29999999999999966
Info: NONBONDED TABLE R-SQUARED SPACING: 0.0625
Info: NONBONDED TABLE SIZE: 705 POINTS
TCL: Running for 1500000 steps
ETITLE: TS BOND ANGLE DIHED IMPRP ELECT VDW BOUNDARY MISC KINETIC TOTAL TEMP POTENTIAL TOTALAVG TEMPAVG PRESSURE GPRESSURE VOLUME PRESSAVG GPRESSAVG
ENERGY: 0 3.7122 4.7148 1.9654 0.0000 -10817.5380 1399.9517 0.0000 0.0000 1767.8573 -7639.3366 296.8389 -9407.1940 -7639.3366 296.8389 -611.9412 -519.8306 31018.2684 -611.9412 -519.8306
ENERGY: 300000 6.5706 6.0901 4.0080 0.0000 -10768.0930 1392.3977 0.0000 0.0000 1820.0218 -7539.0049 305.5978 -9359.0266 -7604.4809 300.3017 -659.7911 -623.2734 30923.7447 -234.5243 -161.4915
ENERGY: 600000 2.1881 3.9659 3.4307 0.0000 -10803.6523 1398.3263 0.0000 0.0000 1816.4492 -7579.2922 304.9979 -9395.7414 -7592.9710 301.7070 -590.5693 -506.5731 31013.5103 -332.4080 -256.1893
ENERGY: 900000 3.0321 6.1255 2.9881 0.0000 -10783.8348 1451.2548 0.0000 0.0000 1828.7464 -7491.6880 307.0627 -9320.4344 -7586.8098 301.9729 96.2356 113.6769 30795.0684 -240.1482 -170.5619
ENERGY: 1200000 1.3555 4.9932 4.1489 0.0000 -10789.5279 1426.7961 0.0000 0.0000 1755.8259 -7596.4082 294.8188 -9352.2342 -7592.5768 301.2347 -335.8602 -230.5230 31027.9308 -196.4347 -128.0735
ENERGY: 1500000 1.5832 10.3182 3.5998 0.0000 -10924.5725 1567.1381 0.0000 0.0000 1755.7933 -7586.1400 294.8133 -9341.9334 -7598.2779 300.9409 824.6125 833.5297 30866.8254 -92.7105 -30.0876
TCL: Running FEP window  15: Lambda1 0.29999999999999966 Lambda2 0.24999999999999967 [dLambda -0.04999999999999999]
TCL: Setting parameter firsttimestep to 0
TCL: Setting parameter alchLambda to 0.29999999999999966
Info: NONBONDED TABLE R-SQUARED SPACING: 0.0625
Info: NONBONDED TABLE SIZE: 705 POINTS
TCL: Setting parameter alchLambda2 to 0.24999999999999967
Info: NONBONDED TABLE R-SQUARED SPACING: 0.0625
Info: NONBONDED TABLE SIZE: 705 POINTS
TCL: Running for 1500000 steps
ETITLE: TS BOND ANGLE DIHED IMPRP ELECT VDW BOUNDARY MISC KINETIC TOTAL TEMP POTENTIAL TOTALAVG TEMPAVG PRESSURE GPRESSURE VOLUME PRESSAVG GPRESSAVG
ENERGY: 0 1.5832 10.3182 3.5998 0.0000 -10924.5743 1567.4675 0.0000 0.0000 1754.9271 -7586.6785 294.6678 -9341.6056 -7586.6785 294.6678 751.6709 832.5136 30866.8254 751.6709 832.5136
ENERGY: 300000 1.6747 3.9094 5.7932 0.0000 -10896.6841 1512.1090 0.0000 0.0000 1790.4812 -7582.7166 300.6377 -9373.1978 -7554.6288 299.0854 529.6905 632.6402 30358.4300 164.6421 251.8728
ENERGY: 600000 1.2864 8.0020 3.4502 0.0000 -10816.4611 1483.3710 0.0000 0.0000 1769.8233 -7550.5282 297.1690 -9320.3515 -7574.0585 300.5772 132.1612 234.3517 31012.7589 191.2476 273.0901
ENERGY: 900000 2.9084 6.7692 7.8032 0.0000 -10858.9022 1443.1210 0.0000 0.0000 1809.0414 -7589.2590 303.7541 -9398.3005 -7583.6489 300.0318 -49.3539 38.4055 30515.0175 164.0996 254.6244
ENERGY: 1200000 2.4306 3.8936 3.1508 0.0000 -10974.8926 1533.4295 0.0000 0.0000 1786.2166 -7645.7716 299.9216 -9431.9881 -7589.0997 299.8902 28.2244 143.0447 31258.1273 148.0782 232.7465
ENERGY: 1500000 2.1317 5.3614 4.1258 0.0000 -10839.8412 1455.0958 0.0000 0.0000 1827.1056 -7546.0210 306.7872 -9373.1266 -7585.8517 300.9560 243.8570 347.8302 30716.6967 109.3755 189.6396
TCL: Running FEP window  16: Lambda1 0.24999999999999967 Lambda2 0.19999999999999968 [dLambda -0.04999999999999999]
TCL: Setting parameter firsttimestep to 0
TCL: Setting parameter alchLambda to 0.24999999999999967
Info: NONBONDED TABLE R-SQUARED SPACING: 0.0625
Info: NONBONDED TABLE SIZE: 705 POINTS
TCL: Setting parameter alchLambda2 to 0.19999999999999968
Info: NONBONDED TABLE R-SQUARED SPACING: 0.0625
Info: NONBONDED TABLE SIZE: 705 POINTS
TCL: Running for 1500000 steps
ETITLE: TS BOND ANGLE DIHED IMPRP ELECT VDW BOUNDARY MISC KINETIC TOTAL TEMP POTENTIAL TOTALAVG TEMPAVG PRESSURE GPRESSURE VOLUME PRESSAVG GPRESSAVG
ENERGY: 0 2.1317 5.3614 4.1258 0.0000 -10839.8416 1455.4845 0.0000 0.0000 1826.1720 -7546.5663 306.6305 -9372.7383 -7546.5663 306.6305 264.9930 348.3650 30716.6967 264.9930 348.3650
ENERGY: 300000 3.2641 4.2308 4.6038 0.0000 -10865.1329 1444.9167 0.0000 0.0000 1799.0948 -7609.0228 302.0840 -9408.1176 -7597.4144 300.4229 -246.9901 -175.8982 30755.9693 181.7630 243.9823
ENERGY: 600000 2.3646 4.6510 1.8506 0.0000 -10867.5108 1431.6035 0.0000 0.0000 1767.1145 -7659.9264 296.7142 -9427.0410 -7592.9561 299.8593 -403.6892 -314.8407 30738.1720 33.6314 105.2978
ENERGY: 900000 1.9233 3.6577 4.5910 0.0000 -10877.7665 1457.5847 0.0000 0.0000 1785.8732 -7624.1367 299.8639 -9410.0099 -7592.9487 300.1155 67.0686 81.9016 30347.1169 -26.9687 47.5149
ENERGY: 1200000 1.3410 5.1558 5.9803 0.0000 -10815.2677 1423.8686 0.0000 0.0000 1797.2565 -7581.6655 301.7753 -9378.9220 -7598.5501 299.5504 -147.9575 -57.1891 30400.7674 -35.0983 30.0346
ENERGY: 1500000 4.4224 5.0753 1.3095 0.0000 -10873.6523 1485.1462 0.0000 0.0000 1805.9815 -7571.7174 303.2403 -9377.6989 -7599.8445 299.7620 301.2812 428.3120 30459.7211 -55.1902 14.0621
TCL: Running FEP window  17: Lambda1 0.19999999999999968 Lambda2 0.1499999999999997 [dLambda -0.04999999999999999]
TCL: Setting parameter firsttimestep to 0
TCL: Setting parameter alchLambda to 0.19999999999999968
Info: NONBONDED TABLE R-SQUARED SPACING: 0.0625
Info: NONBONDED TABLE SIZE: 705 POINTS
TCL: Setting parameter alchLambda2 to 0.1499999999999997
Info: NONBONDED TABLE R-SQUARED SPACING: 0.0625
Info: NONBONDED TABLE SIZE: 705 POINTS
TCL: Running for 1500000 steps
ETITLE: TS BOND ANGLE DIHED IMPRP ELECT VDW BOUNDARY MISC KINETIC TOTAL TEMP POTENTIAL TOTALAVG TEMPAVG PRESSURE GPRESSURE VOLUME PRESSAVG GPRESSAVG
ENERGY: 0 4.4224 5.0753 1.3095 0.0000 -10873.6514 1485.4357 0.0000 0.0000 1805.1134 -7572.2951 303.0946 -9377.4085 -7572.2951 303.0946 348.6958 425.2844 30459.7211 348.6958 425.2844
ENERGY: 300000 5.7867 4.5476 7.0761 0.0000 -10872.1125 1460.6598 0.0000 0.0000 1763.4712 -7630.5712 296.1025 -9394.0423 -7607.3238 301.5055 66.1114 76.9358 30411.7980 -46.9066 14.1698
ENERGY: 600000 2.0422 5.6404 5.2574 0.0000 -10888.6186 1463.9505 0.0000 0.0000 1787.4146 -7624.3134 300.1228 -9411.7280 -7614.6733 300.7809 -30.5930 -0.9917 30736.9177 -178.2843 -126.2323
ENERGY: 900000 1.4096 5.7897 1.9652 0.0000 -10856.6946 1483.7930 0.0000 0.0000 1876.0947 -7487.6424 315.0129 -9363.7371 -7604.0543 300.6942 326.6922 419.3142 30441.7326 -167.6679 -109.3764
ENERGY: 1200000 3.1288 3.1853 1.6977 0.0000 -10873.7101 1416.1197 0.0000 0.0000 1802.4182 -7647.1604 302.6420 -9449.5786 -7595.5799 300.4199 -542.6721 -483.0608 30930.7079 -292.9969 -231.7524
ENERGY: 1500000 0.8462 7.8877 3.4564 0.0000 -10747.7999 1456.6207 0.0000 0.0000 1812.5616 -7466.4272 304.3452 -9278.9887 -7585.0557 300.9322 100.5310 109.4121 31124.6277 -281.8712 -224.6542
TCL: Running FEP window  18: Lambda1 0.1499999999999997 Lambda2 0.09999999999999969 [dLambda -0.05 ]
TCL: Setting parameter firsttimestep to 0
TCL: Setting parameter alchLambda to 0.1499999999999997
Info: NONBONDED TABLE R-SQUARED SPACING: 0.0625
Info: NONBONDED TABLE SIZE: 705 POINTS
TCL: Setting parameter alchLambda2 to 0.09999999999999969
Info: NONBONDED TABLE R-SQUARED SPACING: 0.0625
Info: NONBONDED TABLE SIZE: 705 POINTS
TCL: Running for 1500000 steps
ETITLE: TS BOND ANGLE DIHED IMPRP ELECT VDW BOUNDARY MISC KINETIC TOTAL TEMP POTENTIAL TOTALAVG TEMPAVG PRESSURE GPRESSURE VOLUME PRESSAVG GPRESSAVG
ENERGY: 0 0.8462 7.8877 3.4564 0.0000 -10747.7981 1456.9419 0.0000 0.0000 1811.6825 -7466.9833 304.1976 -9278.6658 -7466.9833 304.1976 33.8778 108.9766 31124.6277 33.8778 108.9766
ENERGY: 300000 2.1905 3.3509 4.7751 0.0000 -10889.3425 1491.9470 0.0000 0.0000 1835.5177 -7551.5612 308.1997 -9387.0788 -7562.1450 304.0915 91.7302 189.6729 30837.9802 370.8383 433.6340
ENERGY: 600000 2.5269 2.9635 2.2028 0.0000 -10920.4733 1516.8566 0.0000 0.0000 1772.3372 -7623.5863 297.5911 -9395.9235 -7567.7651 302.9141 351.5711 365.1066 30915.6776 191.9717 239.3484
ENERGY: 900000 0.4784 8.9704 2.0309 0.0000 -10796.8519 1372.1001 0.0000 0.0000 1769.3538 -7643.9184 297.0902 -9413.2722 -7580.7948 302.7282 -664.1205 -582.4777 30472.8900 64.4015 117.9183
ENERGY: 1200000 3.4230 3.3732 1.5080 0.0000 -10783.2293 1417.0183 0.0000 0.0000 1786.0471 -7571.8598 299.8931 -9357.9069 -7569.5100 303.0768 -299.5629 -241.7030 30740.6859 -17.1813 40.1784
ENERGY: 1500000 2.2960 5.6358 4.3523 0.0000 -10857.1051 1496.3880 0.0000 0.0000 1805.8335 -7542.5996 303.2155 -9348.4331 -7577.7670 302.4734 570.6253 562.8393 30403.9751 67.5144 120.1376
TCL: Running FEP window  19: Lambda1 0.09999999999999969 Lambda2 0.049999999999999684 [dLambda -0.05 ]
TCL: Setting parameter firsttimestep to 0
TCL: Setting parameter alchLambda to 0.09999999999999969
Info: NONBONDED TABLE R-SQUARED SPACING: 0.0625
Info: NONBONDED TABLE SIZE: 705 POINTS
TCL: Setting parameter alchLambda2 to 0.049999999999999684
Info: NONBONDED TABLE R-SQUARED SPACING: 0.0625
Info: NONBONDED TABLE SIZE: 705 POINTS
TCL: Running for 1500000 steps
ETITLE: TS BOND ANGLE DIHED IMPRP ELECT VDW BOUNDARY MISC KINETIC TOTAL TEMP POTENTIAL TOTALAVG TEMPAVG PRESSURE GPRESSURE VOLUME PRESSAVG GPRESSAVG
ENERGY: 0 2.2960 5.6358 4.3523 0.0000 -10857.1058 1496.0998 0.0000 0.0000 1804.8706 -7543.8514 303.0538 -9348.7219 -7543.8514 303.0538 470.5511 557.8883 30403.9751 470.5511 557.8883
ENERGY: 300000 3.4986 7.9452 2.4256 0.0000 -10935.4110 1596.2254 0.0000 0.0000 1765.0189 -7560.2974 296.3623 -9325.3163 -7577.0577 300.8888 1502.4836 1486.2051 30599.5294 126.1789 161.9174
ENERGY: 600000 1.2188 8.7624 2.2270 0.0000 -10789.7031 1430.3104 0.0000 0.0000 1830.9917 -7516.1928 307.4398 -9347.1845 -7567.1949 302.3749 -64.9431 -61.3567 30911.0367 -41.3677 -7.6659
ENERGY: 900000 2.8230 10.2414 4.2695 0.0000 -10846.1294 1436.0733 0.0000 0.0000 1899.5801 -7493.1421 318.9564 -9392.7222 -7570.5125 303.8698 -163.1439 -102.4499 30748.7813 71.9324 107.3573
ENERGY: 1200000 3.1095 3.5562 4.7469 0.0000 -10854.6503 1433.4325 0.0000 0.0000 1783.2724 -7626.5328 299.4273 -9409.8052 -7577.6495 301.9028 -232.8320 -220.7156 30713.5148 -28.3853 7.6974
ENERGY: 1500000 2.9672 7.2295 6.7418 0.0000 -10923.3160 1488.5131 0.0000 0.0000 1797.9471 -7619.9174 301.8913 -9417.8644 -7582.5734 301.8347 -236.3900 -153.4081 30882.1553 -49.5204 -5.7669
TCL: Running FEP window  20: Lambda1 0.049999999999999684 Lambda2 0.0    [dLambda -0.049999999999999684]
TCL: Setting parameter firsttimestep to 0
TCL: Setting parameter alchLambda to 0.049999999999999684
Info: NONBONDED TABLE R-SQUARED SPACING: 0.0625
Info: NONBONDED TABLE SIZE: 705 POINTS
TCL: Setting parameter alchLambda2 to 0.0
Info: NONBONDED TABLE R-SQUARED SPACING: 0.0625
Info: NONBONDED TABLE SIZE: 705 POINTS
TCL: Running for 1500000 steps
ETITLE: TS BOND ANGLE DIHED IMPRP ELECT VDW BOUNDARY MISC KINETIC TOTAL TEMP POTENTIAL TOTALAVG TEMPAVG PRESSURE GPRESSURE VOLUME PRESSAVG GPRESSAVG
ENERGY: 0 2.9672 7.2295 6.7418 0.0000 -10923.3162 1488.2813 0.0000 0.0000 1797.1138 -7620.9826 301.7514 -9418.0964 -7620.9826 301.7514 -239.2824 -156.5622 30882.1553 -239.2824 -156.5622
ENERGY: 300000 3.7201 5.6551 5.0797 0.0000 -10801.0018 1386.7016 0.0000 0.0000 1796.9879 -7602.8575 301.7302 -9399.8454 -7618.5442 300.6916 -909.9498 -812.1758 30849.3538 -169.0731 -97.4080
ENERGY: 600000 1.6391 5.4976 3.1860 0.0000 -11017.4785 1551.8614 0.0000 0.0000 1820.2945 -7634.9999 305.6436 -9455.2944 -7609.6563 300.4286 663.8797 666.1686 30357.1421 -38.7017 23.2918
ENERGY: 900000 2.9565 4.3698 1.3102 0.0000 -10805.5708 1353.8466 0.0000 0.0000 1852.4147 -7590.6730 311.0369 -9443.0877 -7601.8943 302.2342 -969.9367 -896.5576 30637.1397 -120.9789 -58.7088
ENERGY: 1200000 1.5161 7.3903 2.0798 0.0000 -10908.9599 1497.7642 0.0000 0.0000 1830.9614 -7569.2480 307.4347 -9400.2094 -7599.8321 302.4981 230.9188 266.5859 30660.4121 -48.4630 17.1775
ENERGY: 1500000 2.9695 6.7844 7.4587 0.0000 -10760.1524 1402.8411 0.0000 0.0000 1758.9300 -7581.1688 295.3399 -9340.0988 -7593.8521 301.9671 -416.9362 -311.6898 30588.2263 -139.2416 -65.5240
TCL: Exiting due to exit command.
