Info: SIMULATION PARAMETERS:
Info: TIMESTEP               2
Info: NUMBER OF STEPS        0
Info: STEPS PER CYCLE        10
Info: PERIODIC CELL BASIS 1  31.529 0 0
Info: PERIODIC CELL BASIS 2  0 29.9565 0
Info: PERIODIC CELL BASIS 3  0 0 31.8004
Info: PERIODIC CELL CENTER   0 0 0
Info: WRAPPING WATERS AROUND PERIODIC BOUNDARIES ON OUTPUT.
Info: WRAPPING ALL CLUSTERS AROUND PERIODIC BOUNDARIES ON OUTPUT.
Info: FIRST LDB TIMESTEP     50
Info: LAST LDB TIMESTEP     -1
Info: HOM BACKGROUND SCALING 1
Info: PME BACKGROUND SCALING 1
Info: MIN ATOMS PER PATCH    40
Info: EMPTY PATCH LOAD       40 ATOMS
Info: VELOCITY FILE          mobley_1363784_equil.vel
Info: CENTER OF MASS MOVING INITIALLY? NO
Info: DIELECTRIC             1
Info: EXCLUDE                SCALED ONE-FOUR
Info: 1-4 ELECTROSTATICS SCALED BY 0.833333
Info: MODIFIED 1-4 VDW PARAMETERS WILL BE USED
Info: DCD FILENAME           mobley_1363784_prod.dcd
Info: DCD FREQUENCY          100000
Info: DCD FIRST STEP         100000
Info: DCD FILE WILL CONTAIN UNIT CELL DATA
Info: XST FILENAME           mobley_1363784_prod.xst
Info: XST FREQUENCY          100000
Info: NO VELOCITY DCD OUTPUT
Info: NO FORCE DCD OUTPUT
Info: OUTPUT FILENAME        mobley_1363784_prod
Info: BINARY OUTPUT FILES WILL BE USED
Info: RESTART FILENAME       mobley_1363784_prod.restart
Info: RESTART FREQUENCY      100000
Info: BINARY RESTART FILES WILL BE USED
Info: CUTOFF                 9
Info: PAIRLIST DISTANCE      11
Info: PAIRLIST SHRINK RATE   0.01
Info: PAIRLIST GROW RATE     0.01
Info: PAIRLIST TRIGGER       0.3
Info: PAIRLISTS PER CYCLE    2
Info: PAIRLISTS ENABLED
Info: MARGIN                 2
Info: HYDROGEN GROUP CUTOFF  2.5
Info: PATCH DIMENSION        15.5
Info: ENERGY OUTPUT STEPS    100000
Info: ENERGY EVALUATION STEPS    100000
Info: OUTPUT ENERGY PRECISION 4
Info: CROSSTERM ENERGY INCLUDED IN DIHEDRAL
Info: TIMING OUTPUT STEPS    1000000
Info: PRESSURE OUTPUT STEPS  100000
Info: ALCHEMICAL FEP ON
Info: FEP CURRENT LAMBDA VALUE     1
Info: FEP COMPARISON LAMBDA VALUE  0.95
Info: FEP INTRA-ALCHEMICAL NON-BONDED INTERACTIONS WILL BE RETAINED
Info: FEP INTRA-ALCHEMICAL BONDED INTERACTIONS WILL BE RETAINED
Info: FEP VDW SHIFTING COEFFICIENT 5
Info: FEP ELEC. ACTIVE FOR ANNIHILATED PARTICLES BETWEEN LAMBDA = 0 AND LAMBDA = 0.5
Info: FEP ELEC. ACTIVE FOR EXNIHILATED PARTICLES BETWEEN LAMBDA = 0.5 AND LAMBDA = 1
Info: FEP VDW ACTIVE FOR ANNIHILATED PARTICLES BETWEEN LAMBDA = 0 AND LAMBDA = 1
Info: FEP VDW ACTIVE FOR EXNIHILATED PARTICLES BETWEEN LAMBDA = 0 AND LAMBDA = 1
Info: FEP BOND ACTIVE FOR ANNIHILATED PARTICLES BETWEEN LAMBDA = 1 AND LAMBDA = 1
Info: FEP BOND ACTIVE FOR EXNIHILATED PARTICLES BETWEEN LAMBDA = 0 AND LAMBDA = 0
Info: LANGEVIN DYNAMICS ACTIVE
Info: LANGEVIN TEMPERATURE   300
Info: LANGEVIN USING BBK INTEGRATOR
Info: LANGEVIN DAMPING COEFFICIENT IS 1 INVERSE PS
Info: LANGEVIN DYNAMICS APPLIED TO HYDROGENS
Info: LANGEVIN PISTON PRESSURE CONTROL ACTIVE
Info:        TARGET PRESSURE IS 1.01325 BAR
Info:     OSCILLATION PERIOD IS 50 FS
Info:             DECAY TIME IS 25 FS
Info:     PISTON TEMPERATURE IS 300 K
Info:       PRESSURE CONTROL IS GROUP-BASED
Info:    INITIAL STRAIN RATE IS -0.000402881 -0.000402881 -0.000402881
Info:       CELL FLUCTUATION IS ISOTROPIC
Info: PARTICLE MESH EWALD (PME) ACTIVE
Info: PME TOLERANCE               1e-06
Info: PME EWALD COEFFICIENT       0.348832
Info: PME INTERPOLATION ORDER     4
Info: PME GRID DIMENSIONS         32 32 32
Info: PME MAXIMUM GRID SPACING    1
Info: PME CALCULATION WILL BE PERFORMED ON GPU
Info: FULL ELECTROSTATIC EVALUATION FREQUENCY      2
Info: USING VERLET I (r-RESPA) MTS SCHEME.
Info: C1 SPLITTING OF LONG RANGE ELECTROSTATICS
Info: PLACING ATOMS IN PATCHES BY HYDROGEN GROUPS
Info: RIGID BONDS TO HYDROGEN : ALL
Info:         ERROR TOLERANCE : 1e-08
Info:          MAX ITERATIONS : 100
Info: RIGID WATER USING SETTLE ALGORITHM
Info: RANDOM NUMBER SEED     1743601526
Info: USE HYDROGEN BONDS?    NO
Info: Using AMBER format force field!
Info: AMBER PARM FILE        mobley_1363784.prmtop
Info: COORDINATE PDB         mobley_1363784.pdb
Info: Exclusions will be read from PARM file!
Info: SCNB (VDW SCALING)     2
Info: USING ARITHMETIC MEAN TO COMBINE L-J SIGMA PARAMETERS
Info: BINARY COORDINATES     mobley_1363784_equil.coor
Info: SUMMARY OF PARAMETERS:
Info: 8 BONDS
Info: 9 ANGLES
Info:   9 HARMONIC
Info:   0 COSINE-BASED
Info: 4 DIHEDRAL
Info: 0 IMPROPER
Info: 0 CROSSTERM
Info: 0 VDW
Info: 36 VDW_PAIRS
Info: 0 NBTHOLE_PAIRS
Info: To read alchdata from file: mobley_1363784.pdb
Info: To read alchflag data from column: 5
Info: STRUCTURE SUMMARY:
Info: 2930 ATOMS
Info: 2930 BONDS
Info: 28 ANGLES
Info: 37 DIHEDRALS
Info: 0 IMPROPERS
Info: 0 CROSSTERMS
Info: 2987 EXCLUSIONS
Info: 2922 RIGID BONDS
Info: ALCH: 0 ATOMS TO DISAPPEAR IN FINAL STATE
Info: ALCH: 17 ATOMS TO APPEAR IN FINAL STATE
Info: 5868 DEGREES OF FREEDOM
Info: 979 HYDROGEN GROUPS
Info: 4 ATOMS IN LARGEST HYDROGEN GROUP
Info: 979 MIGRATION GROUPS
Info: 4 ATOMS IN LARGEST MIGRATION GROUP
Info: TOTAL MASS = 17600.7 amu
Info: TOTAL CHARGE = 0.000400014 e
Info: MASS DENSITY = 0.973094 g/cm^3
Info: ATOM DENSITY = 0.0975514 atoms/A^3
Info: ADDED 0 IMPLICIT EXCLUSIONS
Info: NONBONDED TABLE R-SQUARED SPACING: 0.0625
Info: NONBONDED TABLE SIZE: 705 POINTS
Info: REMOVING COM VELOCITY 0.153487 0.0270218 0.194865
Info: Use 3D box decompostion in PME FFT.
Info: Updated CUDA force table with 4096 elements.
Info: Updated CUDA LJ table with 8 x 8 elements.
Info: Found 20 unique exclusion lists needing 48 bytes
TCL: Running for 1500000 steps
ETITLE: TS BOND ANGLE DIHED IMPRP ELECT VDW BOUNDARY MISC KINETIC TOTAL TEMP POTENTIAL TOTALAVG TEMPAVG PRESSURE GPRESSURE VOLUME PRESSAVG GPRESSAVG
ENERGY: 0 2.8515 4.7995 3.1474 0.0000 -10648.7335 1409.5519 0.0000 0.0000 1757.4420 -7470.9412 301.4264 -9228.3832 -7470.9412 301.4264 -297.3239 -199.3186 30035.4488 -297.3239 -199.3186
ENERGY: 300000 1.3899 3.0224 1.5148 0.0000 -10637.8867 1459.5775 0.0000 0.0000 1759.7013 -7412.6809 301.8139 -9172.3822 -7415.4750 303.5363 405.0077 467.3878 30171.6548 96.2384 169.6058
ENERGY: 600000 2.3923 7.2437 1.7634 0.0000 -10565.4518 1420.5206 0.0000 0.0000 1781.8795 -7351.6524 305.6178 -9133.5319 -7401.9986 303.4956 -36.8784 75.0645 30394.0904 85.1935 160.2996
ENERGY: 900000 3.4352 5.1122 0.6703 0.0000 -10433.8603 1313.5998 0.0000 0.0000 1776.0658 -7334.9770 304.6206 -9111.0429 -7398.4734 303.9680 -884.8745 -798.5518 30470.8152 -112.3590 -36.3678
ENERGY: 1200000 1.2956 5.5230 0.9197 0.0000 -10684.2666 1435.3529 0.0000 0.0000 1755.5641 -7485.6113 301.1043 -9241.1754 -7418.6464 302.6445 -103.4435 -73.2405 30046.8972 -133.0490 -54.9612
ENERGY: 1500000 6.1756 8.0576 3.9343 0.0000 -10703.8654 1515.1938 0.0000 0.0000 1755.2670 -7415.2371 301.0534 -9170.5041 -7417.0178 301.8784 914.0402 982.6916 29874.7378 -10.3845 67.9772
TCL: Running FEP window   2: Lambda1 0.95   Lambda2 0.8999999999999999 [dLambda -0.050000000000000044]
TCL: Setting parameter firsttimestep to 0
TCL: Setting parameter alchLambda to 0.95
Info: NONBONDED TABLE R-SQUARED SPACING: 0.0625
Info: NONBONDED TABLE SIZE: 705 POINTS
TCL: Setting parameter alchLambda2 to 0.8999999999999999
Info: NONBONDED TABLE R-SQUARED SPACING: 0.0625
Info: NONBONDED TABLE SIZE: 705 POINTS
TCL: Running for 1500000 steps
ETITLE: TS BOND ANGLE DIHED IMPRP ELECT VDW BOUNDARY MISC KINETIC TOTAL TEMP POTENTIAL TOTALAVG TEMPAVG PRESSURE GPRESSURE VOLUME PRESSAVG GPRESSAVG
ENERGY: 0 6.1756 8.0576 3.9343 0.0000 -10702.4154 1514.5589 0.0000 0.0000 1754.4328 -7415.2563 300.9103 -9169.6891 -7415.2563 300.9103 888.0488 966.9644 29874.7378 888.0488 966.9644
ENERGY: 300000 3.4657 5.9838 1.8657 0.0000 -10490.5030 1313.5656 0.0000 0.0000 1745.0109 -7420.6113 299.2943 -9165.6222 -7392.0289 303.0122 -748.6991 -702.3536 30126.7512 -214.2641 -141.9180
ENERGY: 600000 1.9529 4.9216 3.6129 0.0000 -10611.8822 1442.0298 0.0000 0.0000 1671.3269 -7488.0381 286.6564 -9159.3650 -7429.3409 299.4333 254.7622 346.9474 30133.8607 -288.1139 -214.0156
ENERGY: 900000 3.2809 2.0326 2.1205 0.0000 -10649.0878 1434.6275 0.0000 0.0000 1760.4529 -7446.5735 301.9428 -9207.0264 -7422.5890 300.6066 -57.3006 -16.1403 30265.4975 -227.5381 -166.2461
ENERGY: 1200000 1.5136 6.8465 1.7583 0.0000 -10612.3551 1422.3489 0.0000 0.0000 1773.1509 -7406.7368 304.1207 -9179.8877 -7422.3184 301.1943 -163.6911 -41.8583 30243.1482 -188.8992 -126.1192
ENERGY: 1500000 2.0027 7.7526 2.4596 0.0000 -10507.6893 1354.1524 0.0000 0.0000 1729.2494 -7412.0726 296.5910 -9141.3220 -7415.9587 301.6087 -511.3400 -408.2578 30248.6088 -137.5640 -73.5606
TCL: Running FEP window   3: Lambda1 0.8999999999999999 Lambda2 0.8499999999999999 [dLambda -0.050000000000000044]
TCL: Setting parameter firsttimestep to 0
TCL: Setting parameter alchLambda to 0.8999999999999999
Info: NONBONDED TABLE R-SQUARED SPACING: 0.0625
Info: NONBONDED TABLE SIZE: 705 POINTS
TCL: Setting parameter alchLambda2 to 0.8499999999999999
Info: NONBONDED TABLE R-SQUARED SPACING: 0.0625
Info: NONBONDED TABLE SIZE: 705 POINTS
TCL: Running for 1500000 steps
ETITLE: TS BOND ANGLE DIHED IMPRP ELECT VDW BOUNDARY MISC KINETIC TOTAL TEMP POTENTIAL TOTALAVG TEMPAVG PRESSURE GPRESSURE VOLUME PRESSAVG GPRESSAVG
ENERGY: 0 2.0027 7.7526 2.4596 0.0000 -10506.8473 1354.3414 0.0000 0.0000 1728.3886 -7411.9024 296.4433 -9140.2909 -7411.9024 296.4433 -499.8696 -415.3829 30248.6088 -499.8696 -415.3829
ENERGY: 300000 0.6046 3.2125 1.9890 0.0000 -10579.9632 1405.7267 0.0000 0.0000 1786.6460 -7381.7844 306.4353 -9168.4305 -7390.5554 304.7446 -294.4745 -172.5912 30410.5548 -249.9461 -170.4092
ENERGY: 600000 2.1572 5.8283 2.4017 0.0000 -10689.9182 1463.9601 0.0000 0.0000 1785.0332 -7430.5376 306.1587 -9215.5708 -7397.9628 302.4685 206.2407 241.2647 30279.0157 -206.4456 -143.2341
ENERGY: 900000 2.4627 3.5759 2.2746 0.0000 -10685.6785 1444.8806 0.0000 0.0000 1763.4231 -7469.0616 302.4522 -9232.4847 -7419.6613 300.3831 -101.0073 -10.7743 30232.5100 -118.8032 -50.1548
ENERGY: 1200000 3.5111 11.1099 1.8199 0.0000 -10717.0874 1448.2292 0.0000 0.0000 1682.7594 -7569.6579 288.6173 -9252.4172 -7427.3453 300.1669 -124.0057 -71.3775 30116.8289 -125.3337 -49.5214
ENERGY: 1500000 4.5739 7.1552 4.1047 0.0000 -10729.0387 1507.8772 0.0000 0.0000 1767.1840 -7438.1437 303.0973 -9205.3277 -7433.6811 300.2450 537.4963 634.3034 29904.8823 -116.5503 -41.6019
TCL: Running FEP window   4: Lambda1 0.8499999999999999 Lambda2 0.7999999999999998 [dLambda -0.050000000000000044]
TCL: Setting parameter firsttimestep to 0
TCL: Setting parameter alchLambda to 0.8499999999999999
Info: NONBONDED TABLE R-SQUARED SPACING: 0.0625
Info: NONBONDED TABLE SIZE: 705 POINTS
TCL: Setting parameter alchLambda2 to 0.7999999999999998
Info: NONBONDED TABLE R-SQUARED SPACING: 0.0625
Info: NONBONDED TABLE SIZE: 705 POINTS
TCL: Running for 1500000 steps
ETITLE: TS BOND ANGLE DIHED IMPRP ELECT VDW BOUNDARY MISC KINETIC TOTAL TEMP POTENTIAL TOTALAVG TEMPAVG PRESSURE GPRESSURE VOLUME PRESSAVG GPRESSAVG
ENERGY: 0 4.5739 7.1552 4.1047 0.0000 -10728.1682 1507.1406 0.0000 0.0000 1766.3215 -7438.8723 302.9494 -9205.1938 -7438.8723 302.9494 543.1369 617.5555 29904.8823 543.1369 617.5555
ENERGY: 300000 1.0098 2.8080 2.2578 0.0000 -10780.4135 1529.6457 0.0000 0.0000 1744.2178 -7500.4744 299.1583 -9244.6922 -7457.1772 301.7896 797.5534 850.8530 29823.7260 494.6361 533.9745
ENERGY: 600000 5.2381 3.3576 2.3881 0.0000 -10617.7341 1412.0803 0.0000 0.0000 1791.6925 -7402.9775 307.3008 -9194.6700 -7447.7234 302.5321 13.1141 67.6235 29756.1957 286.4985 345.5511
ENERGY: 900000 4.4421 3.8650 3.1818 0.0000 -10695.0659 1407.3478 0.0000 0.0000 1748.7329 -7527.4962 299.9327 -9276.2292 -7450.0790 302.3301 -333.0584 -255.9004 29673.2491 76.9544 137.0286
ENERGY: 1200000 0.9426 8.2150 3.4010 0.0000 -10586.1637 1417.8894 0.0000 0.0000 1721.9684 -7433.7473 295.3422 -9155.7157 -7437.2613 302.0288 -99.5111 -10.8233 30291.2744 0.7881 66.6182
ENERGY: 1500000 2.1467 5.8854 1.9929 0.0000 -10702.2770 1498.2121 0.0000 0.0000 1800.4670 -7393.5730 308.8058 -9194.0399 -7431.9971 302.4575 640.0217 745.7752 29986.7815 91.9980 157.5766
TCL: Running FEP window   5: Lambda1 0.7999999999999998 Lambda2 0.7499999999999998 [dLambda -0.050000000000000044]
TCL: Setting parameter firsttimestep to 0
TCL: Setting parameter alchLambda to 0.7999999999999998
Info: NONBONDED TABLE R-SQUARED SPACING: 0.0625
Info: NONBONDED TABLE SIZE: 705 POINTS
TCL: Setting parameter alchLambda2 to 0.7499999999999998
Info: NONBONDED TABLE R-SQUARED SPACING: 0.0625
Info: NONBONDED TABLE SIZE: 705 POINTS
TCL: Running for 1500000 steps
ETITLE: TS BOND ANGLE DIHED IMPRP ELECT VDW BOUNDARY MISC KINETIC TOTAL TEMP POTENTIAL TOTALAVG TEMPAVG PRESSURE GPRESSURE VOLUME PRESSAVG GPRESSAVG
ENERGY: 0 2.1467 5.8854 1.9929 0.0000 -10701.3261 1498.4193 0.0000 0.0000 1799.6173 -7393.2645 308.6601 -9192.8818 -7393.2645 308.6601 650.1603 739.9620 29986.7815 650.1603 739.9620
ENERGY: 300000 2.3892 9.2015 1.5837 0.0000 -10639.7331 1393.6993 0.0000 0.0000 1753.9363 -7478.9231 300.8251 -9232.8595 -7416.4249 304.0591 -296.5323 -270.1310 30033.8416 -33.0703 18.4649
ENERGY: 600000 2.3334 7.9548 2.8018 0.0000 -10434.3158 1311.5992 0.0000 0.0000 1820.2661 -7289.3605 312.2016 -9109.6266 -7410.4195 303.2450 -820.1847 -810.8730 30734.7458 -313.8926 -264.2248
ENERGY: 900000 2.0090 5.4752 2.4375 0.0000 -10616.1898 1428.3547 0.0000 0.0000 1805.3954 -7372.5179 309.6511 -9177.9134 -7412.0516 303.6788 97.6376 186.5451 29935.1664 -182.1697 -129.1743
ENERGY: 1200000 2.2246 7.6758 1.5485 0.0000 -10556.3439 1400.4110 0.0000 0.0000 1724.6825 -7419.8014 295.8077 -9144.4839 -7414.3460 303.0068 -209.2861 -150.2835 30293.7936 -225.9087 -171.0163
ENERGY: 1500000 3.1264 6.4335 3.0779 0.0000 -10566.1196 1421.1081 0.0000 0.0000 1717.4721 -7414.9015 294.5710 -9132.3736 -7421.4277 302.4685 -147.2015 -51.7631 30321.4471 -177.7279 -124.7958
TCL: Running FEP window   6: Lambda1 0.7499999999999998 Lambda2 0.6999999999999997 [dLambda -0.050000000000000044]
TCL: Setting parameter firsttimestep to 0
TCL: Setting parameter alchLambda to 0.7499999999999998
Info: NONBONDED TABLE R-SQUARED SPACING: 0.0625
Info: NONBONDED TABLE SIZE: 705 POINTS
TCL: Setting parameter alchLambda2 to 0.6999999999999997
Info: NONBONDED TABLE R-SQUARED SPACING: 0.0625
Info: NONBONDED TABLE SIZE: 705 POINTS
TCL: Running for 1500000 steps
ETITLE: TS BOND ANGLE DIHED IMPRP ELECT VDW BOUNDARY MISC KINETIC TOTAL TEMP POTENTIAL TOTALAVG TEMPAVG PRESSURE GPRESSURE VOLUME PRESSAVG GPRESSAVG
ENERGY: 0 3.1264 6.4335 3.0779 0.0000 -10565.5089 1421.7255 0.0000 0.0000 1716.6200 -7414.5256 294.4248 -9131.1456 -7414.5256 294.4248 -156.2093 -51.8889 30321.4471 -156.2093 -51.8889
ENERGY: 300000 2.7158 4.3854 1.7121 0.0000 -10511.7508 1360.6462 0.0000 0.0000 1773.4569 -7368.8345 304.1732 -9142.2914 -7400.1754 296.5856 -670.3561 -679.0439 30677.6593 -323.1509 -262.4717
ENERGY: 600000 2.6971 5.9535 0.7807 0.0000 -10612.1909 1444.8812 0.0000 0.0000 1769.3809 -7388.4975 303.4741 -9157.8783 -7408.9111 297.8623 245.8848 310.3198 30115.0560 -209.0206 -144.5357
ENERGY: 900000 2.8228 5.0356 1.5983 0.0000 -10617.6722 1405.4042 0.0000 0.0000 1704.1881 -7498.6233 292.2926 -9202.8114 -7413.1483 296.3326 -304.6496 -190.8206 29992.1542 -144.0794 -72.9474
ENERGY: 1200000 2.2077 7.0433 3.4307 0.0000 -10635.8470 1450.2596 0.0000 0.0000 1738.7600 -7434.1458 298.2222 -9172.9058 -7418.5290 295.9992 622.0269 662.9058 29482.3309 -137.2769 -60.5585
ENERGY: 1500000 4.3613 4.2386 1.8530 0.0000 -10594.1311 1464.1774 0.0000 0.0000 1769.5226 -7349.9782 303.4984 -9119.5008 -7414.3457 296.8492 614.2266 694.7916 29865.3139 -110.0649 -39.7303
TCL: Running FEP window   7: Lambda1 0.6999999999999997 Lambda2 0.6499999999999997 [dLambda -0.050000000000000044]
TCL: Setting parameter firsttimestep to 0
TCL: Setting parameter alchLambda to 0.6999999999999997
Info: NONBONDED TABLE R-SQUARED SPACING: 0.0625
Info: NONBONDED TABLE SIZE: 705 POINTS
TCL: Setting parameter alchLambda2 to 0.6499999999999997
Info: NONBONDED TABLE R-SQUARED SPACING: 0.0625
Info: NONBONDED TABLE SIZE: 705 POINTS
TCL: Running for 1500000 steps
ETITLE: TS BOND ANGLE DIHED IMPRP ELECT VDW BOUNDARY MISC KINETIC TOTAL TEMP POTENTIAL TOTALAVG TEMPAVG PRESSURE GPRESSURE VOLUME PRESSAVG GPRESSAVG
ENERGY: 0 4.3613 4.2386 1.8530 0.0000 -10592.2237 1463.7696 0.0000 0.0000 1768.6235 -7349.3777 303.3442 -9118.0012 -7349.3777 303.3442 587.1901 685.8967 29865.3139 587.1901 685.8967
ENERGY: 300000 2.0909 8.9271 2.8391 0.0000 -10544.3608 1396.6043 0.0000 0.0000 1728.5990 -7405.3004 296.4794 -9133.8994 -7376.8933 299.7641 -276.7922 -178.5525 30435.8333 128.9582 238.4642
ENERGY: 600000 2.2556 6.9876 1.2586 0.0000 -10591.1768 1430.3261 0.0000 0.0000 1786.4415 -7363.9073 306.4002 -9150.3489 -7387.9599 300.7186 273.1132 309.5626 29821.7158 114.5817 201.2191
ENERGY: 900000 0.4900 5.3798 1.7428 0.0000 -10580.3831 1440.4083 0.0000 0.0000 1776.8486 -7355.5136 304.7549 -9132.3622 -7396.3056 300.3391 197.1814 307.0144 30344.9876 147.0642 230.3045
ENERGY: 1200000 1.9843 4.9998 1.4766 0.0000 -10745.5293 1505.9138 0.0000 0.0000 1705.1864 -7525.9685 292.4638 -9231.1549 -7410.9783 300.3636 447.0728 502.1486 29903.3105 49.4216 133.6551
ENERGY: 1500000 4.2670 8.4170 3.2532 0.0000 -10720.9844 1586.6202 0.0000 0.0000 1730.6960 -7387.7309 296.8391 -9118.4270 -7401.1011 300.2190 1544.7497 1561.7625 29791.1137 114.1075 188.4071
TCL: Running FEP window   8: Lambda1 0.6499999999999997 Lambda2 0.5999999999999996 [dLambda -0.050000000000000044]
TCL: Setting parameter firsttimestep to 0
TCL: Setting parameter alchLambda to 0.6499999999999997
Info: NONBONDED TABLE R-SQUARED SPACING: 0.0625
Info: NONBONDED TABLE SIZE: 705 POINTS
TCL: Setting parameter alchLambda2 to 0.5999999999999996
Info: NONBONDED TABLE R-SQUARED SPACING: 0.0625
Info: NONBONDED TABLE SIZE: 705 POINTS
TCL: Running for 1500000 steps
ETITLE: TS BOND ANGLE DIHED IMPRP ELECT VDW BOUNDARY MISC KINETIC TOTAL TEMP POTENTIAL TOTALAVG TEMPAVG PRESSURE GPRESSURE VOLUME PRESSAVG GPRESSAVG
ENERGY: 0 4.2671 8.4170 3.2532 0.0000 -10720.2856 1586.4741 0.0000 0.0000 1729.8659 -7388.0084 296.6967 -9117.8743 -7388.0084 296.6967 1480.3273 1549.5823 29791.1137 1480.3273 1549.5823
ENERGY: 300000 3.2682 7.7720 3.0648 0.0000 -10702.8553 1496.4993 0.0000 0.0000 1759.0556 -7433.1955 301.7031 -9192.2510 -7475.8749 299.8880 254.4107 325.0350 30186.4201 331.9451 409.2342
ENERGY: 600000 4.2090 2.4140 1.1544 0.0000 -10548.0688 1410.1409 0.0000 0.0000 1791.0782 -7339.0723 307.1955 -9130.1505 -7457.0159 299.8273 -167.3624 -56.0640 29980.4160 18.9952 93.2187
ENERGY: 900000 0.1185 5.3619 0.6571 0.0000 -10626.7357 1451.3984 0.0000 0.0000 1741.0227 -7428.1770 298.6102 -9169.1997 -7444.2714 299.6199 342.5648 507.8996 30064.9330 18.2616 99.2249
ENERGY: 1200000 2.4962 8.4956 2.6096 0.0000 -10538.2267 1389.3116 0.0000 0.0000 1725.8242 -7409.4895 296.0035 -9135.3136 -7437.6850 298.8391 -365.1948 -298.6890 30263.1030 -76.4432 4.7504
ENERGY: 1500000 4.3251 3.4031 3.7991 0.0000 -10607.7467 1474.9398 0.0000 0.0000 1755.9619 -7365.3176 301.1725 -9121.2795 -7427.0853 299.6521 564.6834 579.9469 30132.5071 -93.2654 -19.8818
TCL: Running FEP window   9: Lambda1 0.5999999999999996 Lambda2 0.5499999999999996 [dLambda -0.050000000000000044]
TCL: Setting parameter firsttimestep to 0
TCL: Setting parameter alchLambda to 0.5999999999999996
Info: NONBONDED TABLE R-SQUARED SPACING: 0.0625
Info: NONBONDED TABLE SIZE: 705 POINTS
TCL: Setting parameter alchLambda2 to 0.5499999999999996
Info: NONBONDED TABLE R-SQUARED SPACING: 0.0625
Info: NONBONDED TABLE SIZE: 705 POINTS
TCL: Running for 1500000 steps
ETITLE: TS BOND ANGLE DIHED IMPRP ELECT VDW BOUNDARY MISC KINETIC TOTAL TEMP POTENTIAL TOTALAVG TEMPAVG PRESSURE GPRESSURE VOLUME PRESSAVG GPRESSAVG
ENERGY: 0 4.3251 3.4031 3.7991 0.0000 -10607.4614 1475.2660 0.0000 0.0000 1755.0730 -7365.5950 301.0201 -9120.6679 -7365.5950 301.0201 492.0460 573.7640 30132.5071 492.0460 573.7640
ENERGY: 300000 1.6623 6.8344 2.6660 0.0000 -10587.3853 1382.7283 0.0000 0.0000 1814.8882 -7378.6061 311.2792 -9193.4943 -7386.0433 302.6950 -393.6072 -325.0809 30081.2612 36.5989 87.4841
ENERGY: 600000 2.4315 8.4281 1.7847 0.0000 -10667.4177 1419.9413 0.0000 0.0000 1733.3459 -7501.4863 297.2936 -9234.8322 -7406.8231 300.8191 -208.7526 -165.8646 29951.6324 -44.2840 19.8081
ENERGY: 900000 1.4311 9.9366 3.4915 0.0000 -10630.3133 1433.5254 0.0000 0.0000 1766.4468 -7415.4820 302.9709 -9181.9288 -7409.2001 301.4614 262.1751 360.7315 29661.4337 -71.9020 -3.2339
ENERGY: 1200000 1.1791 8.5392 3.2932 0.0000 -10545.6142 1352.5580 0.0000 0.0000 1773.9580 -7406.0868 304.2591 -9180.0448 -7401.9440 301.7747 -503.3212 -477.7125 30005.5208 -139.7173 -80.2125
ENERGY: 1500000 4.4050 5.6885 4.2987 0.0000 -10677.0812 1543.0386 0.0000 0.0000 1700.6254 -7419.0250 291.6815 -9119.6504 -7388.7185 302.1067 945.1914 1029.9648 30321.0392 16.0962 75.1793
TCL: Running FEP window  10: Lambda1 0.5499999999999996 Lambda2 0.4999999999999996 [dLambda -0.04999999999999999]
TCL: Setting parameter firsttimestep to 0
TCL: Setting parameter alchLambda to 0.5499999999999996
Info: NONBONDED TABLE R-SQUARED SPACING: 0.0625
Info: NONBONDED TABLE SIZE: 705 POINTS
TCL: Setting parameter alchLambda2 to 0.4999999999999996
Info: NONBONDED TABLE R-SQUARED SPACING: 0.0625
Info: NONBONDED TABLE SIZE: 705 POINTS
TCL: Running for 1500000 steps
ETITLE: TS BOND ANGLE DIHED IMPRP ELECT VDW BOUNDARY MISC KINETIC TOTAL TEMP POTENTIAL TOTALAVG TEMPAVG PRESSURE GPRESSURE VOLUME PRESSAVG GPRESSAVG
ENERGY: 0 4.4050 5.6885 4.2987 0.0000 -10677.0552 1542.8118 0.0000 0.0000 1699.7618 -7420.0893 291.5334 -9119.8511 -7420.0893 291.5334 917.8399 1024.1894 30321.0392 917.8399 1024.1894
ENERGY: 300000 1.5408 3.7070 1.6743 0.0000 -10667.1027 1417.9734 0.0000 0.0000 1759.4499 -7482.7573 301.7708 -9242.2072 -7413.8114 297.9386 -295.2132 -245.0301 30031.6370 159.4623 236.4213
ENERGY: 600000 1.0338 3.3709 1.1181 0.0000 -10617.9884 1399.3984 0.0000 0.0000 1763.9706 -7449.0966 302.5461 -9213.0672 -7421.1279 299.1803 -669.8746 -608.9365 30518.4353 -267.6220 -182.0768
ENERGY: 900000 1.4425 5.9155 3.5965 0.0000 -10707.0474 1514.5740 0.0000 0.0000 1731.7977 -7449.7210 297.0280 -9181.5188 -7415.3991 299.5685 559.0690 620.6519 30178.6331 -80.2632 -8.9447
ENERGY: 1200000 3.7723 3.6545 2.8324 0.0000 -10557.2651 1394.9548 0.0000 0.0000 1752.7175 -7399.3336 300.6161 -9152.0511 -7410.7542 299.9517 -197.7716 -169.6660 29858.2659 -68.3688 -0.4647
ENERGY: 1500000 2.4372 2.9669 2.7562 0.0000 -10585.9816 1361.8213 0.0000 0.0000 1695.0336 -7520.9665 290.7225 -9216.0001 -7422.6291 299.1397 -752.1976 -696.9722 30302.7853 -107.7848 -40.1380
TCL: Running FEP window  11: Lambda1 0.4999999999999996 Lambda2 0.4499999999999996 [dLambda -0.04999999999999999]
TCL: Setting parameter firsttimestep to 0
TCL: Setting parameter alchLambda to 0.4999999999999996
Info: NONBONDED TABLE R-SQUARED SPACING: 0.0625
Info: NONBONDED TABLE SIZE: 705 POINTS
TCL: Setting parameter alchLambda2 to 0.4499999999999996
Info: NONBONDED TABLE R-SQUARED SPACING: 0.0625
Info: NONBONDED TABLE SIZE: 705 POINTS
TCL: Running for 1500000 steps
ETITLE: TS BOND ANGLE DIHED IMPRP ELECT VDW BOUNDARY MISC KINETIC TOTAL TEMP POTENTIAL TOTALAVG TEMPAVG PRESSURE GPRESSURE VOLUME PRESSAVG GPRESSAVG
ENERGY: 0 2.4372 2.9669 2.7562 0.0000 -10585.8871 1362.4165 0.0000 0.0000 1694.1816 -7521.1288 290.5763 -9215.3104 -7521.1288 290.5763 -777.6119 -697.6648 30302.7853 -777.6119 -697.6648
ENERGY: 300000 2.7854 6.0717 1.4237 0.0000 -10685.8446 1469.7262 0.0000 0.0000 1760.8857 -7444.9519 302.0170 -9205.8376 -7439.4175 297.8114 465.5920 466.7028 29659.6074 -21.7398 55.0132
ENERGY: 600000 1.8639 6.2448 2.1543 0.0000 -10479.5232 1372.3562 0.0000 0.0000 1791.1049 -7305.7992 307.2001 -9096.9041 -7417.3687 297.9128 -352.1640 -276.9217 30000.1667 -134.3760 -60.8627
ENERGY: 900000 7.3958 4.4925 1.5130 0.0000 -10591.4249 1424.0597 0.0000 0.0000 1740.3291 -7413.6348 298.4913 -9153.9639 -7413.4125 298.1833 -275.5420 -236.0788 30181.1091 -155.9798 -89.1944
ENERGY: 1200000 3.1479 4.8217 2.2220 0.0000 -10648.3694 1488.8482 0.0000 0.0000 1803.3074 -7346.0222 309.2930 -9149.3296 -7413.6546 298.3587 439.4402 540.8461 30277.8913 -154.2893 -91.4481
ENERGY: 1500000 1.4077 3.4566 2.2181 0.0000 -10523.6705 1337.6703 0.0000 0.0000 1756.9698 -7421.9480 301.3454 -9178.9177 -7409.7131 299.4046 -867.4925 -775.4420 30291.6939 -238.5953 -175.1905
TCL: Running FEP window  12: Lambda1 0.4499999999999996 Lambda2 0.39999999999999963 [dLambda -0.04999999999999999]
TCL: Setting parameter firsttimestep to 0
TCL: Setting parameter alchLambda to 0.4499999999999996
Info: NONBONDED TABLE R-SQUARED SPACING: 0.0625
Info: NONBONDED TABLE SIZE: 705 POINTS
TCL: Setting parameter alchLambda2 to 0.39999999999999963
Info: NONBONDED TABLE R-SQUARED SPACING: 0.0625
Info: NONBONDED TABLE SIZE: 705 POINTS
TCL: Running for 1500000 steps
ETITLE: TS BOND ANGLE DIHED IMPRP ELECT VDW BOUNDARY MISC KINETIC TOTAL TEMP POTENTIAL TOTALAVG TEMPAVG PRESSURE GPRESSURE VOLUME PRESSAVG GPRESSAVG
ENERGY: 0 1.4077 3.4566 2.2181 0.0000 -10523.6698 1337.9041 0.0000 0.0000 1756.1122 -7422.5711 301.1983 -9178.6833 -7422.5711 301.1983 -854.1129 -781.4068 30291.6939 -854.1129 -781.4068
ENERGY: 300000 1.4999 5.8617 1.0935 0.0000 -10714.0926 1466.7207 0.0000 0.0000 1773.9265 -7464.9904 304.2537 -9238.9169 -7466.5759 297.7842 282.7218 299.3284 29553.8470 -341.1454 -291.6037
ENERGY: 600000 1.7878 2.7345 2.3362 0.0000 -10520.3953 1342.8083 0.0000 0.0000 1758.2874 -7412.4412 301.5714 -9170.7286 -7437.9119 300.0477 -909.7148 -853.8112 30437.0612 -400.6397 -351.3778
ENERGY: 900000 1.6277 4.7228 3.2201 0.0000 -10560.9832 1342.2054 0.0000 0.0000 1720.1150 -7489.0922 295.0243 -9209.2072 -7442.9307 299.5944 -844.0296 -751.7841 30271.7822 -450.1060 -398.1005
ENERGY: 1200000 2.3379 3.5062 1.7751 0.0000 -10579.2341 1390.0974 0.0000 0.0000 1801.0731 -7380.4444 308.9098 -9181.5175 -7436.2081 299.9374 -668.7693 -487.2301 30496.3030 -434.9855 -371.9528
ENERGY: 1500000 0.5624 6.8023 2.6459 0.0000 -10685.3254 1510.7901 0.0000 0.0000 1768.2267 -7396.2980 303.2761 -9164.5247 -7432.0477 300.6680 847.0713 887.4956 29957.8959 -250.1158 -194.3710
TCL: Running FEP window  13: Lambda1 0.39999999999999963 Lambda2 0.34999999999999964 [dLambda -0.04999999999999999]
TCL: Setting parameter firsttimestep to 0
TCL: Setting parameter alchLambda to 0.39999999999999963
Info: NONBONDED TABLE R-SQUARED SPACING: 0.0625
Info: NONBONDED TABLE SIZE: 705 POINTS
TCL: Setting parameter alchLambda2 to 0.34999999999999964
Info: NONBONDED TABLE R-SQUARED SPACING: 0.0625
Info: NONBONDED TABLE SIZE: 705 POINTS
TCL: Running for 1500000 steps
ETITLE: TS BOND ANGLE DIHED IMPRP ELECT VDW BOUNDARY MISC KINETIC TOTAL TEMP POTENTIAL TOTALAVG TEMPAVG PRESSURE GPRESSURE VOLUME PRESSAVG GPRESSAVG
ENERGY: 0 0.5624 6.8023 2.6459 0.0000 -10685.3242 1511.3653 0.0000 0.0000 1767.3722 -7396.5760 303.1296 -9163.9482 -7396.5760 303.1296 820.1270 889.2539 29957.8959 820.1270 889.2539
ENERGY: 300000 1.4260 4.3885 0.7374 0.0000 -10773.3728 1484.6709 0.0000 0.0000 1775.8549 -7506.2951 304.5845 -9282.1500 -7426.3430 304.6800 159.9167 166.5753 29975.3479 292.1524 361.3113
ENERGY: 600000 2.8527 3.0791 2.1606 0.0000 -10519.5667 1443.0047 0.0000 0.0000 1784.3204 -7284.1492 306.0364 -9068.4696 -7412.0422 303.6803 519.4769 570.8203 30034.4957 146.5475 195.5525
ENERGY: 900000 1.1444 5.8362 1.4211 0.0000 -10658.8651 1514.8143 0.0000 0.0000 1781.7992 -7353.8499 305.6040 -9135.6491 -7409.1598 303.8000 778.5846 892.9596 29902.3637 234.2582 292.5728
ENERGY: 1200000 1.7743 6.1729 1.1987 0.0000 -10493.8236 1366.4475 0.0000 0.0000 1822.8429 -7295.3874 312.6436 -9118.2303 -7407.4541 304.0276 -239.0199 -179.7830 30088.4985 114.3586 180.1770
ENERGY: 1500000 1.4915 5.1238 3.6990 0.0000 -10604.9964 1388.0741 0.0000 0.0000 1788.9024 -7417.7057 306.8223 -9206.6080 -7422.0824 302.8689 -170.2053 -154.9336 29783.1844 109.3636 172.7851
TCL: Running FEP window  14: Lambda1 0.34999999999999964 Lambda2 0.29999999999999966 [dLambda -0.04999999999999999]
TCL: Setting parameter firsttimestep to 0
TCL: Setting parameter alchLambda to 0.34999999999999964
Info: NONBONDED TABLE R-SQUARED SPACING: 0.0625
Info: NONBONDED TABLE SIZE: 705 POINTS
TCL: Setting parameter alchLambda2 to 0.29999999999999966
Info: NONBONDED TABLE R-SQUARED SPACING: 0.0625
Info: NONBONDED TABLE SIZE: 705 POINTS
TCL: Running for 1500000 steps
ETITLE: TS BOND ANGLE DIHED IMPRP ELECT VDW BOUNDARY MISC KINETIC TOTAL TEMP POTENTIAL TOTALAVG TEMPAVG PRESSURE GPRESSURE VOLUME PRESSAVG GPRESSAVG
ENERGY: 0 1.4915 5.1238 3.6990 0.0000 -10604.9962 1388.4980 0.0000 0.0000 1787.9897 -7418.1942 306.6658 -9206.1839 -7418.1942 306.6658 -245.1784 -160.3252 29783.1844 -245.1784 -160.3252
ENERGY: 300000 3.8202 6.1888 1.6638 0.0000 -10676.8195 1458.7410 0.0000 0.0000 1777.4764 -7428.9293 304.8626 -9206.4057 -7392.4678 305.8873 268.0108 378.9076 29971.4662 -254.7695 -195.6761
ENERGY: 600000 1.5923 7.3674 2.8036 0.0000 -10644.9175 1447.1570 0.0000 0.0000 1770.1719 -7415.8252 303.6098 -9185.9972 -7402.5086 302.4782 167.8489 198.9621 29801.4812 -205.8948 -144.3010
ENERGY: 900000 4.0517 5.7976 1.8162 0.0000 -10540.9605 1399.6080 0.0000 0.0000 1801.4325 -7328.2546 308.9714 -9129.6871 -7403.2130 302.6194 -343.8724 -244.7114 30306.3338 -181.3181 -114.2249
ENERGY: 1200000 4.3476 6.1864 0.6046 0.0000 -10651.3281 1469.5276 0.0000 0.0000 1703.6738 -7466.9881 292.2044 -9170.6618 -7404.1778 301.5134 -95.7484 -15.2510 30437.3051 -165.8155 -96.9679
ENERGY: 1500000 2.9549 5.1663 2.0741 0.0000 -10704.1437 1506.2193 0.0000 0.0000 1663.2941 -7524.4350 285.2787 -9187.7291 -7411.6873 300.6392 391.5012 436.2634 29987.4657 -132.6827 -67.9462
TCL: Running FEP window  15: Lambda1 0.29999999999999966 Lambda2 0.24999999999999967 [dLambda -0.04999999999999999]
TCL: Setting parameter firsttimestep to 0
TCL: Setting parameter alchLambda to 0.29999999999999966
Info: NONBONDED TABLE R-SQUARED SPACING: 0.0625
Info: NONBONDED TABLE SIZE: 705 POINTS
TCL: Setting parameter alchLambda2 to 0.24999999999999967
Info: NONBONDED TABLE R-SQUARED SPACING: 0.0625
Info: NONBONDED TABLE SIZE: 705 POINTS
TCL: Running for 1500000 steps
ETITLE: TS BOND ANGLE DIHED IMPRP ELECT VDW BOUNDARY MISC KINETIC TOTAL TEMP POTENTIAL TOTALAVG TEMPAVG PRESSURE GPRESSURE VOLUME PRESSAVG GPRESSAVG
ENERGY: 0 2.9549 5.1663 2.0741 0.0000 -10704.1433 1505.8576 0.0000 0.0000 1662.4071 -7525.6833 285.1266 -9188.0904 -7525.6833 285.1266 343.0188 426.1223 29987.4657 343.0188 426.1223
ENERGY: 300000 3.5916 4.8466 1.0459 0.0000 -10631.1874 1440.7624 0.0000 0.0000 1764.8921 -7416.0488 302.7042 -9180.9409 -7407.7564 298.6044 20.6487 103.5216 30006.4863 -147.2286 -84.1568
ENERGY: 600000 4.9491 6.9262 2.9527 0.0000 -10602.9571 1371.3786 0.0000 0.0000 1747.9277 -7468.8227 299.7946 -9216.7504 -7422.1802 297.9447 -890.5469 -787.7594 30177.9853 -394.7770 -324.0315
ENERGY: 900000 3.3185 6.6242 5.0393 0.0000 -10665.4097 1512.5548 0.0000 0.0000 1781.8516 -7356.0213 305.6130 -9137.8729 -7422.1661 299.0430 741.3319 737.3114 30079.8657 -153.4309 -88.7345
ENERGY: 1200000 4.9715 5.5697 3.9328 0.0000 -10664.1966 1413.5505 0.0000 0.0000 1741.2557 -7494.9164 298.6502 -9236.1721 -7423.8305 299.6439 -556.8782 -499.2863 30332.1833 -188.6758 -128.0720
ENERGY: 1500000 1.2283 5.2032 2.1559 0.0000 -10607.6037 1425.4273 0.0000 0.0000 1659.2033 -7514.3857 284.5770 -9173.5890 -7429.0129 298.5996 -29.9841 1.6427 29792.7075 -117.1795 -64.1654
TCL: Running FEP window  16: Lambda1 0.24999999999999967 Lambda2 0.19999999999999968 [dLambda -0.04999999999999999]
TCL: Setting parameter firsttimestep to 0
TCL: Setting parameter alchLambda to 0.24999999999999967
Info: NONBONDED TABLE R-SQUARED SPACING: 0.0625
Info: NONBONDED TABLE SIZE: 705 POINTS
TCL: Setting parameter alchLambda2 to 0.19999999999999968
Info: NONBONDED TABLE R-SQUARED SPACING: 0.0625
Info: NONBONDED TABLE SIZE: 705 POINTS
TCL: Running for 1500000 steps
ETITLE: TS BOND ANGLE DIHED IMPRP ELECT VDW BOUNDARY MISC KINETIC TOTAL TEMP POTENTIAL TOTALAVG TEMPAVG PRESSURE GPRESSURE VOLUME PRESSAVG GPRESSAVG
ENERGY: 0 1.2283 5.2032 2.1559 0.0000 -10607.6034 1424.7731 0.0000 0.0000 1658.3287 -7515.9142 284.4270 -9174.2428 -7515.9142 284.4270 -96.6318 -9.3887 29792.7075 -96.6318 -9.3887
ENERGY: 300000 5.8444 1.8287 0.3970 0.0000 -10502.9490 1413.1316 0.0000 0.0000 1730.3825 -7351.3648 296.7853 -9081.7473 -7424.5794 294.8587 -71.4442 -29.8771 30353.0837 -187.2743 -111.0842
ENERGY: 600000 1.9246 5.5945 1.8259 0.0000 -10563.7572 1438.6277 0.0000 0.0000 1776.2242 -7339.5603 304.6478 -9115.7845 -7414.2808 297.5689 217.8685 226.7774 30298.4272 -118.8216 -48.1031
ENERGY: 900000 3.3653 3.3097 2.3738 0.0000 -10586.6770 1398.2510 0.0000 0.0000 1807.8398 -7371.5375 310.0703 -9179.3773 -7402.0530 300.0400 -190.2741 -173.4322 30106.7787 -58.6489 -3.4407
ENERGY: 1200000 2.1722 6.1064 2.0646 0.0000 -10572.0573 1442.4149 0.0000 0.0000 1721.8265 -7397.4728 295.3178 -9119.2993 -7404.5428 299.0755 -193.1020 -176.7372 30803.4452 -59.4823 -7.1916
ENERGY: 1500000 3.3342 3.5924 2.6464 0.0000 -10677.0853 1449.9933 0.0000 0.0000 1744.8811 -7472.6379 299.2720 -9217.5190 -7405.6827 299.9461 150.7694 202.1419 29690.7026 -66.3871 -21.4570
TCL: Running FEP window  17: Lambda1 0.19999999999999968 Lambda2 0.1499999999999997 [dLambda -0.04999999999999999]
TCL: Setting parameter firsttimestep to 0
TCL: Setting parameter alchLambda to 0.19999999999999968
Info: NONBONDED TABLE R-SQUARED SPACING: 0.0625
Info: NONBONDED TABLE SIZE: 705 POINTS
TCL: Setting parameter alchLambda2 to 0.1499999999999997
Info: NONBONDED TABLE R-SQUARED SPACING: 0.0625
Info: NONBONDED TABLE SIZE: 705 POINTS
TCL: Running for 1500000 steps
ETITLE: TS BOND ANGLE DIHED IMPRP ELECT VDW BOUNDARY MISC KINETIC TOTAL TEMP POTENTIAL TOTALAVG TEMPAVG PRESSURE GPRESSURE VOLUME PRESSAVG GPRESSAVG
ENERGY: 0 3.3342 3.5924 2.6464 0.0000 -10677.0867 1450.3416 0.0000 0.0000 1744.0388 -7473.1335 299.1275 -9217.1723 -7473.1335 299.1275 119.3132 201.3935 29690.7026 119.3132 201.3935
ENERGY: 300000 3.0014 2.6313 1.8487 0.0000 -10653.6603 1520.1787 0.0000 0.0000 1762.4635 -7363.5367 302.2877 -9126.0003 -7420.0608 297.3828 684.7138 773.8233 30174.4505 129.8913 204.1064
ENERGY: 600000 3.7259 6.3618 4.4574 0.0000 -10640.8724 1473.8865 0.0000 0.0000 1738.4636 -7413.9772 298.1713 -9152.4408 -7429.9056 297.8489 259.1920 336.4237 30017.5182 150.6199 235.4591
ENERGY: 900000 3.3561 3.0955 5.4084 0.0000 -10525.6316 1412.2243 0.0000 0.0000 1725.1676 -7376.3797 295.8909 -9101.5473 -7420.7287 298.1443 41.7591 135.1502 30314.4175 -25.4787 49.0896
ENERGY: 1200000 2.1816 4.1185 2.1264 0.0000 -10648.7936 1415.8846 0.0000 0.0000 1737.7697 -7486.7128 298.0523 -9224.4824 -7426.6863 298.4649 -306.3410 -261.7338 30137.6927 -12.4238 46.8611
ENERGY: 1500000 3.1591 5.2220 2.7752 0.0000 -10608.3969 1433.2229 0.0000 0.0000 1788.5594 -7375.4584 306.7635 -9164.0178 -7421.2668 299.0085 -184.0647 -7.6298 30517.7340 84.5611 147.7311
TCL: Running FEP window  18: Lambda1 0.1499999999999997 Lambda2 0.09999999999999969 [dLambda -0.05 ]
TCL: Setting parameter firsttimestep to 0
TCL: Setting parameter alchLambda to 0.1499999999999997
Info: NONBONDED TABLE R-SQUARED SPACING: 0.0625
Info: NONBONDED TABLE SIZE: 705 POINTS
TCL: Setting parameter alchLambda2 to 0.09999999999999969
Info: NONBONDED TABLE R-SQUARED SPACING: 0.0625
Info: NONBONDED TABLE SIZE: 705 POINTS
TCL: Running for 1500000 steps
ETITLE: TS BOND ANGLE DIHED IMPRP ELECT VDW BOUNDARY MISC KINETIC TOTAL TEMP POTENTIAL TOTALAVG TEMPAVG PRESSURE GPRESSURE VOLUME PRESSAVG GPRESSAVG
ENERGY: 0 3.1591 5.2220 2.7752 0.0000 -10608.3979 1433.2096 0.0000 0.0000 1787.6921 -7376.3400 306.6147 -9164.0321 -7376.3400 306.6147 -111.2239 -12.0975 30517.7340 -111.2239 -12.0975
ENERGY: 300000 5.5982 6.7328 2.6161 0.0000 -10491.6906 1375.6540 0.0000 0.0000 1827.6102 -7273.4794 313.4612 -9101.0896 -7362.5164 304.2366 -447.4175 -362.4696 30149.8544 -189.1777 -125.9358
ENERGY: 600000 1.9131 5.8438 1.1161 0.0000 -10738.8349 1492.2255 0.0000 0.0000 1744.2416 -7493.4948 299.1623 -9237.7364 -7386.1270 304.1024 612.1654 649.4111 29618.3732 -35.1034 22.1059
ENERGY: 900000 2.2132 4.9857 3.1351 0.0000 -10463.5655 1335.1035 0.0000 0.0000 1733.8870 -7384.2411 297.3864 -9118.1281 -7393.5582 303.0914 -850.7685 -772.5744 30281.8468 6.6896 64.3384
ENERGY: 1200000 1.5496 4.6034 2.9665 0.0000 -10655.9308 1430.3139 0.0000 0.0000 1789.2607 -7427.2368 306.8838 -9216.4975 -7406.4596 301.8295 -209.8479 -183.8414 30206.1605 -25.0983 34.8168
ENERGY: 1500000 2.6544 8.0469 3.6263 0.0000 -10611.4469 1454.6396 0.0000 0.0000 1831.7485 -7310.7312 314.1710 -9142.4798 -7405.1941 302.5743 95.1226 186.7014 30378.7380 19.4941 79.4088
TCL: Running FEP window  19: Lambda1 0.09999999999999969 Lambda2 0.049999999999999684 [dLambda -0.05 ]
TCL: Setting parameter firsttimestep to 0
TCL: Setting parameter alchLambda to 0.09999999999999969
Info: NONBONDED TABLE R-SQUARED SPACING: 0.0625
Info: NONBONDED TABLE SIZE: 705 POINTS
TCL: Setting parameter alchLambda2 to 0.049999999999999684
Info: NONBONDED TABLE R-SQUARED SPACING: 0.0625
Info: NONBONDED TABLE SIZE: 705 POINTS
TCL: Running for 1500000 steps
ETITLE: TS BOND ANGLE DIHED IMPRP ELECT VDW BOUNDARY MISC KINETIC TOTAL TEMP POTENTIAL TOTALAVG TEMPAVG PRESSURE GPRESSURE VOLUME PRESSAVG GPRESSAVG
ENERGY: 0 2.6544 8.0469 3.6263 0.0000 -10611.4474 1455.0036 0.0000 0.0000 1830.8732 -7311.2430 314.0209 -9142.1162 -7311.2430 314.0209 100.1443 184.2327 30378.7380 100.1443 184.2327
ENERGY: 300000 2.6684 5.2159 2.6014 0.0000 -10564.1635 1517.9980 0.0000 0.0000 1713.5194 -7322.1604 293.8931 -9035.6798 -7397.0537 301.9635 889.7258 904.4749 30429.6303 293.2066 352.3868
ENERGY: 600000 3.2329 4.6080 1.1961 0.0000 -10450.6370 1335.3123 0.0000 0.0000 1770.2489 -7336.0387 303.6230 -9106.2877 -7400.7464 300.3284 -880.0236 -789.0061 30726.3177 81.2416 144.1457
ENERGY: 900000 1.2197 5.0856 0.9646 0.0000 -10531.7645 1336.1523 0.0000 0.0000 1793.8487 -7394.4937 307.6707 -9188.3424 -7405.5558 301.4514 -875.1546 -836.2905 30266.8228 -1.2268 61.0728
ENERGY: 1200000 1.3024 4.8482 1.1312 0.0000 -10606.2674 1466.6075 0.0000 0.0000 1738.8862 -7393.4920 298.2438 -9132.3782 -7400.7319 300.5009 315.6384 362.4474 30034.5996 -21.0199 36.6569
ENERGY: 1500000 2.1173 5.4953 4.3498 0.0000 -10675.9763 1490.0426 0.0000 0.0000 1775.1314 -7398.8400 304.4604 -9173.9714 -7401.3332 300.1877 203.6838 189.8546 30295.7795 -16.1778 40.2922
TCL: Running FEP window  20: Lambda1 0.049999999999999684 Lambda2 0.0    [dLambda -0.049999999999999684]
TCL: Setting parameter firsttimestep to 0
TCL: Setting parameter alchLambda to 0.049999999999999684
Info: NONBONDED TABLE R-SQUARED SPACING: 0.0625
Info: NONBONDED TABLE SIZE: 705 POINTS
TCL: Setting parameter alchLambda2 to 0.0
Info: NONBONDED TABLE R-SQUARED SPACING: 0.0625
Info: NONBONDED TABLE SIZE: 705 POINTS
TCL: Running for 1500000 steps
ETITLE: TS BOND ANGLE DIHED IMPRP ELECT VDW BOUNDARY MISC KINETIC TOTAL TEMP POTENTIAL TOTALAVG TEMPAVG PRESSURE GPRESSURE VOLUME PRESSAVG GPRESSAVG
ENERGY: 0 2.1173 5.4953 4.3498 0.0000 -10675.9763 1489.4370 0.0000 0.0000 1774.2347 -7400.3422 304.3066 -9174.5769 -7400.3422 304.3066 112.6920 188.0298 30295.7795 112.6920 188.0298
ENERGY: 300000 1.9806 9.8212 2.1859 0.0000 -10536.5512 1419.3626 0.0000 0.0000 1770.3214 -7332.8794 303.6354 -9103.2009 -7406.4173 301.2565 60.6816 52.1556 30388.3004 -31.2095 1.4546
ENERGY: 600000 1.8242 4.9494 0.4873 0.0000 -10618.3165 1407.1063 0.0000 0.0000 1735.4253 -7468.5241 297.6502 -9203.9494 -7422.4790 298.2448 -152.0407 -121.7502 29910.0244 -136.5983 -93.8479
ENERGY: 900000 2.2777 2.8577 2.8055 0.0000 -10486.5413 1423.2156 0.0000 0.0000 1759.9075 -7295.4774 301.8493 -9055.3848 -7392.1604 299.9851 -176.1723 -17.7861 30681.3566 -113.2400 -50.5574
ENERGY: 1200000 0.8255 9.7331 3.8872 0.0000 -10380.1496 1306.3516 0.0000 0.0000 1702.4380 -7356.9142 291.9924 -9059.3522 -7397.5591 299.0074 -621.6956 -568.6281 29850.7903 -160.5249 -97.8558
ENERGY: 1500000 2.5882 5.1409 2.0049 0.0000 -10619.4683 1427.8255 0.0000 0.0000 1733.6244 -7448.2843 297.3413 -9181.9087 -7406.8982 298.9827 -167.1226 -137.7795 30388.5776 -145.1158 -77.2123
TCL: Exiting due to exit command.
