Info: SIMULATION PARAMETERS:
Info: TIMESTEP               2
Info: NUMBER OF STEPS        0
Info: STEPS PER CYCLE        10
Info: PERIODIC CELL BASIS 1  32.1338 0 0
Info: PERIODIC CELL BASIS 2  0 30.2021 0
Info: PERIODIC CELL BASIS 3  0 0 32.0611
Info: PERIODIC CELL CENTER   0 0 0
Info: WRAPPING WATERS AROUND PERIODIC BOUNDARIES ON OUTPUT.
Info: WRAPPING ALL CLUSTERS AROUND PERIODIC BOUNDARIES ON OUTPUT.
Info: FIRST LDB TIMESTEP     50
Info: LAST LDB TIMESTEP     -1
Info: HOM BACKGROUND SCALING 1
Info: PME BACKGROUND SCALING 1
Info: MIN ATOMS PER PATCH    40
Info: EMPTY PATCH LOAD       40 ATOMS
Info: VELOCITY FILE          mobley_3980099_equil.vel
Info: CENTER OF MASS MOVING INITIALLY? NO
Info: DIELECTRIC             1
Info: EXCLUDE                SCALED ONE-FOUR
Info: 1-4 ELECTROSTATICS SCALED BY 0.833333
Info: MODIFIED 1-4 VDW PARAMETERS WILL BE USED
Info: DCD FILENAME           mobley_3980099_prod.dcd
Info: DCD FREQUENCY          100000
Info: DCD FIRST STEP         100000
Info: DCD FILE WILL CONTAIN UNIT CELL DATA
Info: XST FILENAME           mobley_3980099_prod.xst
Info: XST FREQUENCY          100000
Info: NO VELOCITY DCD OUTPUT
Info: NO FORCE DCD OUTPUT
Info: OUTPUT FILENAME        mobley_3980099_prod
Info: BINARY OUTPUT FILES WILL BE USED
Info: RESTART FILENAME       mobley_3980099_prod.restart
Info: RESTART FREQUENCY      100000
Info: BINARY RESTART FILES WILL BE USED
Info: CUTOFF                 9
Info: PAIRLIST DISTANCE      11
Info: PAIRLIST SHRINK RATE   0.01
Info: PAIRLIST GROW RATE     0.01
Info: PAIRLIST TRIGGER       0.3
Info: PAIRLISTS PER CYCLE    2
Info: PAIRLISTS ENABLED
Info: MARGIN                 2
Info: HYDROGEN GROUP CUTOFF  2.5
Info: PATCH DIMENSION        15.5
Info: ENERGY OUTPUT STEPS    100000
Info: ENERGY EVALUATION STEPS    100000
Info: OUTPUT ENERGY PRECISION 4
Info: CROSSTERM ENERGY INCLUDED IN DIHEDRAL
Info: TIMING OUTPUT STEPS    1000000
Info: PRESSURE OUTPUT STEPS  100000
Info: ALCHEMICAL FEP ON
Info: FEP CURRENT LAMBDA VALUE     1
Info: FEP COMPARISON LAMBDA VALUE  0.95
Info: FEP INTRA-ALCHEMICAL NON-BONDED INTERACTIONS WILL BE RETAINED
Info: FEP INTRA-ALCHEMICAL BONDED INTERACTIONS WILL BE RETAINED
Info: FEP VDW SHIFTING COEFFICIENT 5
Info: FEP ELEC. ACTIVE FOR ANNIHILATED PARTICLES BETWEEN LAMBDA = 0 AND LAMBDA = 0.5
Info: FEP ELEC. ACTIVE FOR EXNIHILATED PARTICLES BETWEEN LAMBDA = 0.5 AND LAMBDA = 1
Info: FEP VDW ACTIVE FOR ANNIHILATED PARTICLES BETWEEN LAMBDA = 0 AND LAMBDA = 1
Info: FEP VDW ACTIVE FOR EXNIHILATED PARTICLES BETWEEN LAMBDA = 0 AND LAMBDA = 1
Info: FEP BOND ACTIVE FOR ANNIHILATED PARTICLES BETWEEN LAMBDA = 1 AND LAMBDA = 1
Info: FEP BOND ACTIVE FOR EXNIHILATED PARTICLES BETWEEN LAMBDA = 0 AND LAMBDA = 0
Info: LANGEVIN DYNAMICS ACTIVE
Info: LANGEVIN TEMPERATURE   300
Info: LANGEVIN USING BBK INTEGRATOR
Info: LANGEVIN DAMPING COEFFICIENT IS 1 INVERSE PS
Info: LANGEVIN DYNAMICS APPLIED TO HYDROGENS
Info: LANGEVIN PISTON PRESSURE CONTROL ACTIVE
Info:        TARGET PRESSURE IS 1.01325 BAR
Info:     OSCILLATION PERIOD IS 50 FS
Info:             DECAY TIME IS 25 FS
Info:     PISTON TEMPERATURE IS 300 K
Info:       PRESSURE CONTROL IS GROUP-BASED
Info:    INITIAL STRAIN RATE IS -0.000414062 -0.000414062 -0.000414062
Info:       CELL FLUCTUATION IS ISOTROPIC
Info: PARTICLE MESH EWALD (PME) ACTIVE
Info: PME TOLERANCE               1e-06
Info: PME EWALD COEFFICIENT       0.348832
Info: PME INTERPOLATION ORDER     4
Info: PME GRID DIMENSIONS         36 32 36
Info: PME MAXIMUM GRID SPACING    1
Info: PME CALCULATION WILL BE PERFORMED ON GPU
Info: FULL ELECTROSTATIC EVALUATION FREQUENCY      2
Info: USING VERLET I (r-RESPA) MTS SCHEME.
Info: C1 SPLITTING OF LONG RANGE ELECTROSTATICS
Info: PLACING ATOMS IN PATCHES BY HYDROGEN GROUPS
Info: RIGID BONDS TO HYDROGEN : ALL
Info:         ERROR TOLERANCE : 1e-08
Info:          MAX ITERATIONS : 100
Info: RIGID WATER USING SETTLE ALGORITHM
Info: RANDOM NUMBER SEED     1743541988
Info: USE HYDROGEN BONDS?    NO
Info: Using AMBER format force field!
Info: AMBER PARM FILE        mobley_3980099.prmtop
Info: COORDINATE PDB         mobley_3980099.pdb
Info: Exclusions will be read from PARM file!
Info: SCNB (VDW SCALING)     2
Info: USING ARITHMETIC MEAN TO COMBINE L-J SIGMA PARAMETERS
Info: BINARY COORDINATES     mobley_3980099_equil.coor
Info: SUMMARY OF PARAMETERS:
Info: 5 BONDS
Info: 3 ANGLES
Info:   3 HARMONIC
Info:   0 COSINE-BASED
Info: 2 DIHEDRAL
Info: 0 IMPROPER
Info: 0 CROSSTERM
Info: 0 VDW
Info: 15 VDW_PAIRS
Info: 0 NBTHOLE_PAIRS
Info: To read alchdata from file: mobley_3980099.pdb
Info: To read alchflag data from column: 5
Info: STRUCTURE SUMMARY:
Info: 2988 ATOMS
Info: 2988 BONDS
Info: 18 ANGLES
Info: 30 DIHEDRALS
Info: 0 IMPROPERS
Info: 0 CROSSTERMS
Info: 3027 EXCLUSIONS
Info: 2979 RIGID BONDS
Info: ALCH: 0 ATOMS TO DISAPPEAR IN FINAL STATE
Info: ALCH: 12 ATOMS TO APPEAR IN FINAL STATE
Info: 5985 DEGREES OF FREEDOM
Info: 1001 HYDROGEN GROUPS
Info: 3 ATOMS IN LARGEST HYDROGEN GROUP
Info: 1001 MIGRATION GROUPS
Info: 3 ATOMS IN LARGEST MIGRATION GROUP
Info: TOTAL MASS = 18053.3 amu
Info: TOTAL CHARGE = -1.11759e-08 e
Info: MASS DENSITY = 0.963472 g/cm^3
Info: ATOM DENSITY = 0.0960293 atoms/A^3
Info: ADDED 0 IMPLICIT EXCLUSIONS
Info: NONBONDED TABLE R-SQUARED SPACING: 0.0625
Info: NONBONDED TABLE SIZE: 705 POINTS
Info: REMOVING COM VELOCITY 0.106128 0.00703756 -0.126236
Info: Use 3D box decompostion in PME FFT.
Info: Updated CUDA force table with 4096 elements.
Info: Updated CUDA LJ table with 5 x 5 elements.
Info: Found 15 unique exclusion lists needing 28 bytes
TCL: Running for 1500000 steps
ETITLE: TS BOND ANGLE DIHED IMPRP ELECT VDW BOUNDARY MISC KINETIC TOTAL TEMP POTENTIAL TOTALAVG TEMPAVG PRESSURE GPRESSURE VOLUME PRESSAVG GPRESSAVG
ENERGY: 0 2.2561 2.1735 1.7641 0.0000 -10736.0776 1384.5658 0.0000 0.0000 1824.2437 -7521.0742 306.7673 -9345.3179 -7521.0742 306.7673 -602.3355 -500.5210 31115.5007 -602.3355 -500.5210
ENERGY: 300000 1.3689 3.2045 3.2291 0.0000 -10792.6903 1441.3278 0.0000 0.0000 1808.5480 -7535.0119 304.1279 -9343.5600 -7540.1101 304.3194 -132.0925 -87.0771 31207.3233 -483.1789 -427.1347
ENERGY: 600000 2.8933 3.7655 1.3739 0.0000 -10672.4516 1340.2187 0.0000 0.0000 1798.6781 -7525.5222 302.4682 -9324.2003 -7538.6352 304.6340 -1009.5590 -965.9693 31351.5358 -421.8602 -366.6398
ENERGY: 900000 4.8485 0.7049 3.0776 0.0000 -10824.4249 1426.3534 0.0000 0.0000 1766.3512 -7623.0891 297.0320 -9389.4404 -7549.6639 303.9140 -299.3095 -255.2143 31158.8297 -303.1317 -246.9005
ENERGY: 1200000 4.0030 2.7850 1.5528 0.0000 -10769.7857 1407.5090 0.0000 0.0000 1759.4129 -7594.5229 295.8653 -9353.9358 -7554.6958 302.7817 -50.6411 -5.2376 30477.7193 -194.3445 -141.0739
ENERGY: 1500000 4.1651 1.4211 4.1868 0.0000 -10787.0867 1391.2005 0.0000 0.0000 1818.4337 -7567.6795 305.7903 -9386.1133 -7553.5608 303.3126 -490.2295 -431.5301 30575.0426 -179.9050 -125.8774
TCL: Running FEP window   2: Lambda1 0.95   Lambda2 0.8999999999999999 [dLambda -0.050000000000000044]
TCL: Setting parameter firsttimestep to 0
TCL: Setting parameter alchLambda to 0.95
Info: NONBONDED TABLE R-SQUARED SPACING: 0.0625
Info: NONBONDED TABLE SIZE: 705 POINTS
TCL: Setting parameter alchLambda2 to 0.8999999999999999
Info: NONBONDED TABLE R-SQUARED SPACING: 0.0625
Info: NONBONDED TABLE SIZE: 705 POINTS
TCL: Running for 1500000 steps
ETITLE: TS BOND ANGLE DIHED IMPRP ELECT VDW BOUNDARY MISC KINETIC TOTAL TEMP POTENTIAL TOTALAVG TEMPAVG PRESSURE GPRESSURE VOLUME PRESSAVG GPRESSAVG
ENERGY: 0 4.1651 1.4211 4.1868 0.0000 -10786.8661 1391.4296 0.0000 0.0000 1817.5417 -7568.1218 305.6403 -9385.6635 -7568.1218 305.6403 -522.5986 -442.8430 30575.0426 -522.5986 -442.8430
ENERGY: 300000 3.7363 1.3054 3.7470 0.0000 -10767.3155 1358.6495 0.0000 0.0000 1815.7986 -7584.0787 305.3472 -9399.8773 -7581.1583 301.8105 -949.7135 -887.5114 31207.6789 -566.2307 -498.2754
ENERGY: 600000 1.4833 2.7781 0.7374 0.0000 -10740.6623 1421.5207 0.0000 0.0000 1767.2327 -7546.9100 297.1803 -9314.1427 -7553.8307 301.8961 -134.0606 -10.8712 31015.7522 -465.4015 -387.4218
ENERGY: 900000 2.3284 1.2212 3.1193 0.0000 -10759.6315 1468.4144 0.0000 0.0000 1841.3498 -7443.1984 309.6439 -9284.5482 -7571.8833 301.1296 213.3772 283.4802 31375.7737 -231.9572 -157.0310
ENERGY: 1200000 3.4451 3.7920 4.1220 0.0000 -10849.4801 1436.3443 0.0000 0.0000 1796.3304 -7605.4462 302.0734 -9401.7766 -7572.3799 301.5107 -181.1250 -145.7366 30532.6005 -156.0677 -83.3816
ENERGY: 1500000 3.7245 0.8477 1.7647 0.0000 -10752.6752 1367.6475 0.0000 0.0000 1738.2641 -7640.4267 292.3089 -9378.6908 -7587.6089 300.2792 -778.5437 -695.8512 31007.7811 -142.7583 -71.5133
TCL: Running FEP window   3: Lambda1 0.8999999999999999 Lambda2 0.8499999999999999 [dLambda -0.050000000000000044]
TCL: Setting parameter firsttimestep to 0
TCL: Setting parameter alchLambda to 0.8999999999999999
Info: NONBONDED TABLE R-SQUARED SPACING: 0.0625
Info: NONBONDED TABLE SIZE: 705 POINTS
TCL: Setting parameter alchLambda2 to 0.8499999999999999
Info: NONBONDED TABLE R-SQUARED SPACING: 0.0625
Info: NONBONDED TABLE SIZE: 705 POINTS
TCL: Running for 1500000 steps
ETITLE: TS BOND ANGLE DIHED IMPRP ELECT VDW BOUNDARY MISC KINETIC TOTAL TEMP POTENTIAL TOTALAVG TEMPAVG PRESSURE GPRESSURE VOLUME PRESSAVG GPRESSAVG
ENERGY: 0 3.7245 0.8477 1.7647 0.0000 -10752.3937 1367.6711 0.0000 0.0000 1737.3706 -7641.0151 292.1586 -9378.3857 -7641.0151 292.1586 -787.9907 -708.1094 31007.7811 -787.9907 -708.1094
ENERGY: 300000 2.6296 3.9101 3.0901 0.0000 -10827.0653 1447.8145 0.0000 0.0000 1745.5886 -7624.0324 293.5406 -9369.6210 -7588.5140 295.0490 -2.8447 22.0715 31099.5390 -194.1665 -131.1487
ENERGY: 600000 1.7776 3.3524 2.4018 0.0000 -10790.9351 1456.8801 0.0000 0.0000 1735.4991 -7591.0241 291.8439 -9326.5232 -7588.6611 295.1570 251.6611 335.6418 30841.0264 -142.1875 -77.2481
ENERGY: 900000 3.0918 1.5050 1.2220 0.0000 -10977.5402 1578.3298 0.0000 0.0000 1815.8910 -7577.5004 305.3627 -9393.3914 -7601.0406 297.2483 664.0184 697.8259 31283.8231 -81.4492 -13.6432
ENERGY: 1200000 2.6402 6.2394 4.9332 0.0000 -10885.8968 1530.0399 0.0000 0.0000 1767.8017 -7574.2425 297.2760 -9342.0442 -7596.1303 297.4840 229.9481 309.3560 31337.6239 -36.9233 27.0123
ENERGY: 1500000 2.0620 2.5061 2.4429 0.0000 -10887.3051 1473.4544 0.0000 0.0000 1765.9042 -7640.9356 296.9569 -9406.8397 -7598.0534 297.5439 225.3093 313.9926 30758.4414 -4.8333 61.7748
TCL: Running FEP window   4: Lambda1 0.8499999999999999 Lambda2 0.7999999999999998 [dLambda -0.050000000000000044]
TCL: Setting parameter firsttimestep to 0
TCL: Setting parameter alchLambda to 0.8499999999999999
Info: NONBONDED TABLE R-SQUARED SPACING: 0.0625
Info: NONBONDED TABLE SIZE: 705 POINTS
TCL: Setting parameter alchLambda2 to 0.7999999999999998
Info: NONBONDED TABLE R-SQUARED SPACING: 0.0625
Info: NONBONDED TABLE SIZE: 705 POINTS
TCL: Running for 1500000 steps
ETITLE: TS BOND ANGLE DIHED IMPRP ELECT VDW BOUNDARY MISC KINETIC TOTAL TEMP POTENTIAL TOTALAVG TEMPAVG PRESSURE GPRESSURE VOLUME PRESSAVG GPRESSAVG
ENERGY: 0 2.0620 2.5061 2.4429 0.0000 -10886.8505 1474.0256 0.0000 0.0000 1765.0473 -7640.7666 296.8128 -9405.8139 -7640.7666 296.8128 230.6032 309.0551 30758.4414 230.6032 309.0551
ENERGY: 300000 3.1512 2.8903 1.3318 0.0000 -10976.0575 1495.7521 0.0000 0.0000 1809.2396 -7663.6926 304.2442 -9472.9322 -7595.8214 303.2197 -57.4437 -10.0737 31068.8573 188.0084 264.8449
ENERGY: 600000 3.0472 3.7865 2.0904 0.0000 -10646.7525 1372.9273 0.0000 0.0000 1811.2303 -7453.6709 304.5790 -9264.9012 -7543.6902 302.6542 -701.6722 -660.5261 31621.8303 -59.6763 11.8648
ENERGY: 900000 3.1479 2.8836 2.8921 0.0000 -10865.7673 1451.6910 0.0000 0.0000 1790.2269 -7614.9259 301.0470 -9405.1528 -7563.5234 301.5656 195.5255 185.1858 30232.3901 62.9534 117.8829
ENERGY: 1200000 4.7391 1.5313 2.5608 0.0000 -10870.4241 1539.5237 0.0000 0.0000 1760.7948 -7561.2744 296.0977 -9322.0692 -7563.0203 300.3114 928.0701 1000.6293 30763.2486 126.3707 177.2979
ENERGY: 1500000 1.2385 2.2542 1.9983 0.0000 -10823.3095 1483.3063 0.0000 0.0000 1866.6654 -7467.8467 313.9010 -9334.5121 -7557.2963 300.7844 301.9426 365.1782 31041.0038 77.3613 131.7036
TCL: Running FEP window   5: Lambda1 0.7999999999999998 Lambda2 0.7499999999999998 [dLambda -0.050000000000000044]
TCL: Setting parameter firsttimestep to 0
TCL: Setting parameter alchLambda to 0.7999999999999998
Info: NONBONDED TABLE R-SQUARED SPACING: 0.0625
Info: NONBONDED TABLE SIZE: 705 POINTS
TCL: Setting parameter alchLambda2 to 0.7499999999999998
Info: NONBONDED TABLE R-SQUARED SPACING: 0.0625
Info: NONBONDED TABLE SIZE: 705 POINTS
TCL: Running for 1500000 steps
ETITLE: TS BOND ANGLE DIHED IMPRP ELECT VDW BOUNDARY MISC KINETIC TOTAL TEMP POTENTIAL TOTALAVG TEMPAVG PRESSURE GPRESSURE VOLUME PRESSAVG GPRESSAVG
ENERGY: 0 1.2385 2.2542 1.9983 0.0000 -10823.1470 1483.5431 0.0000 0.0000 1865.7350 -7468.3779 313.7445 -9334.1129 -7468.3779 313.7445 284.5616 358.1635 31041.0038 284.5616 358.1635
ENERGY: 300000 2.4649 2.1136 0.7407 0.0000 -10810.0554 1425.7800 0.0000 0.0000 1746.6445 -7632.3117 293.7181 -9378.9562 -7541.9294 302.6211 -608.2387 -534.9277 31309.0559 67.9051 112.7085
ENERGY: 600000 1.5127 2.6101 3.3976 0.0000 -10952.8505 1509.2220 0.0000 0.0000 1840.1346 -7595.9734 309.4396 -9436.1080 -7545.1539 304.1751 265.4267 352.4685 30657.9330 1.7578 63.3636
ENERGY: 900000 2.4395 5.3900 1.4783 0.0000 -10875.7977 1463.5208 0.0000 0.0000 1759.7703 -7643.1988 295.9254 -9402.9691 -7561.7549 303.5375 -137.3846 -66.8201 30804.5921 41.3813 108.6391
ENERGY: 1200000 1.1047 2.5570 4.8488 0.0000 -10735.7982 1442.9766 0.0000 0.0000 1757.5295 -7526.7816 295.5486 -9284.3110 -7551.6751 302.8710 69.9098 154.2334 30941.6651 -53.8021 11.5578
ENERGY: 1500000 3.2757 4.6502 1.2862 0.0000 -10819.3169 1438.6230 0.0000 0.0000 1756.8005 -7614.6812 295.4260 -9371.4817 -7566.2164 301.3174 -162.7233 -108.1686 30842.5228 -42.2556 18.3875
TCL: Running FEP window   6: Lambda1 0.7499999999999998 Lambda2 0.6999999999999997 [dLambda -0.050000000000000044]
TCL: Setting parameter firsttimestep to 0
TCL: Setting parameter alchLambda to 0.7499999999999998
Info: NONBONDED TABLE R-SQUARED SPACING: 0.0625
Info: NONBONDED TABLE SIZE: 705 POINTS
TCL: Setting parameter alchLambda2 to 0.6999999999999997
Info: NONBONDED TABLE R-SQUARED SPACING: 0.0625
Info: NONBONDED TABLE SIZE: 705 POINTS
TCL: Running for 1500000 steps
ETITLE: TS BOND ANGLE DIHED IMPRP ELECT VDW BOUNDARY MISC KINETIC TOTAL TEMP POTENTIAL TOTALAVG TEMPAVG PRESSURE GPRESSURE VOLUME PRESSAVG GPRESSAVG
ENERGY: 0 3.2757 4.6502 1.2862 0.0000 -10818.8309 1438.7197 0.0000 0.0000 1755.8875 -7615.0116 295.2724 -9370.8991 -7615.0116 295.2724 -193.6112 -117.3412 30842.5228 -193.6112 -117.3412
ENERGY: 300000 4.1524 3.5004 3.1992 0.0000 -10907.3965 1476.2843 0.0000 0.0000 1802.1572 -7618.1030 303.0532 -9420.2602 -7577.5289 301.6432 63.8145 139.7937 30636.5973 -323.5428 -255.2101
ENERGY: 600000 2.3954 2.9253 4.8286 0.0000 -10921.7857 1464.3359 0.0000 0.0000 1722.7200 -7724.5805 289.6949 -9447.3005 -7611.2853 300.2968 -127.4384 -47.9902 30320.4036 -192.9678 -125.2194
ENERGY: 900000 5.9517 0.6025 1.0340 0.0000 -10774.3776 1468.7873 0.0000 0.0000 1757.7814 -7540.2207 295.5909 -9298.0021 -7591.2595 300.3959 112.9121 202.5702 31086.0046 -105.4630 -31.5640
ENERGY: 1200000 1.1570 2.4272 6.5537 0.0000 -10688.9188 1390.5627 0.0000 0.0000 1804.5060 -7483.7122 303.4482 -9288.2182 -7571.8461 301.8245 -383.8006 -258.7444 31218.5887 -219.4415 -145.3669
ENERGY: 1500000 2.6421 2.1596 3.7766 0.0000 -10773.2118 1408.4006 0.0000 0.0000 1810.6873 -7545.5457 304.4876 -9356.2329 -7571.4650 301.8164 -198.4918 -140.7984 30644.1506 -156.6098 -81.8490
TCL: Running FEP window   7: Lambda1 0.6999999999999997 Lambda2 0.6499999999999997 [dLambda -0.050000000000000044]
TCL: Setting parameter firsttimestep to 0
TCL: Setting parameter alchLambda to 0.6999999999999997
Info: NONBONDED TABLE R-SQUARED SPACING: 0.0625
Info: NONBONDED TABLE SIZE: 705 POINTS
TCL: Setting parameter alchLambda2 to 0.6499999999999997
Info: NONBONDED TABLE R-SQUARED SPACING: 0.0625
Info: NONBONDED TABLE SIZE: 705 POINTS
TCL: Running for 1500000 steps
ETITLE: TS BOND ANGLE DIHED IMPRP ELECT VDW BOUNDARY MISC KINETIC TOTAL TEMP POTENTIAL TOTALAVG TEMPAVG PRESSURE GPRESSURE VOLUME PRESSAVG GPRESSAVG
ENERGY: 0 2.6421 2.1596 3.7766 0.0000 -10772.7965 1408.3831 0.0000 0.0000 1809.7751 -7546.0600 304.3343 -9355.8351 -7546.0600 304.3343 -240.5395 -153.1773 30644.1506 -240.5395 -153.1773
ENERGY: 300000 2.3189 1.9337 4.9160 0.0000 -10777.0340 1448.5241 0.0000 0.0000 1743.9650 -7575.3764 293.2675 -9319.3414 -7542.5533 299.6803 4.9096 59.7788 30687.2549 147.7505 206.1755
ENERGY: 600000 4.3560 3.3334 5.8531 0.0000 -10874.9486 1440.3105 0.0000 0.0000 1773.2218 -7647.8738 298.1874 -9421.0956 -7573.9464 300.6924 -247.3359 -202.1202 30619.4195 141.5678 193.1475
ENERGY: 900000 4.3401 2.0805 3.3103 0.0000 -10726.8819 1412.9297 0.0000 0.0000 1765.7495 -7538.4717 296.9309 -9304.2213 -7583.1805 299.1606 -223.3127 -173.2152 30806.7157 65.2075 115.3647
ENERGY: 1200000 3.3500 5.3795 4.2442 0.0000 -10700.0281 1390.3306 0.0000 0.0000 1828.4306 -7468.2933 307.4714 -9296.7239 -7574.9880 300.2016 -432.3718 -366.4368 31017.6140 65.3766 112.1086
ENERGY: 1500000 2.5973 2.7594 1.4486 0.0000 -10762.1933 1454.9226 0.0000 0.0000 1752.4441 -7548.0214 294.6934 -9300.4654 -7578.4049 299.0540 -40.8638 55.4174 30856.5764 33.4469 80.5501
TCL: Running FEP window   8: Lambda1 0.6499999999999997 Lambda2 0.5999999999999996 [dLambda -0.050000000000000044]
TCL: Setting parameter firsttimestep to 0
TCL: Setting parameter alchLambda to 0.6499999999999997
Info: NONBONDED TABLE R-SQUARED SPACING: 0.0625
Info: NONBONDED TABLE SIZE: 705 POINTS
TCL: Setting parameter alchLambda2 to 0.5999999999999996
Info: NONBONDED TABLE R-SQUARED SPACING: 0.0625
Info: NONBONDED TABLE SIZE: 705 POINTS
TCL: Running for 1500000 steps
ETITLE: TS BOND ANGLE DIHED IMPRP ELECT VDW BOUNDARY MISC KINETIC TOTAL TEMP POTENTIAL TOTALAVG TEMPAVG PRESSURE GPRESSURE VOLUME PRESSAVG GPRESSAVG
ENERGY: 0 2.5973 2.7594 1.4486 0.0000 -10761.6657 1455.1815 0.0000 0.0000 1751.5626 -7548.1163 294.5452 -9299.6789 -7548.1163 294.5452 -36.8559 49.4197 30856.5764 -36.8559 49.4197
ENERGY: 300000 3.9703 1.6439 2.6152 0.0000 -10940.5138 1525.7610 0.0000 0.0000 1774.1520 -7632.3714 298.3438 -9406.5234 -7591.0804 297.0680 369.2152 415.3716 30400.8905 40.2491 111.8876
ENERGY: 600000 2.5908 0.3412 0.6050 0.0000 -10702.0502 1403.6068 0.0000 0.0000 1780.0722 -7514.8342 299.3394 -9294.9064 -7586.1832 297.1306 75.3792 117.6769 30387.4502 31.0489 99.4797
ENERGY: 900000 3.1957 1.8562 3.3013 0.0000 -10989.9395 1528.8631 0.0000 0.0000 1805.6215 -7647.1017 303.6358 -9452.7232 -7589.1010 298.9044 482.2409 585.8640 30325.8876 8.6399 81.6238
ENERGY: 1200000 1.8564 1.8246 7.1956 0.0000 -10835.6023 1388.9090 0.0000 0.0000 1766.1119 -7669.7048 296.9918 -9435.8167 -7596.0887 298.9582 -616.6064 -534.0508 30491.5783 -15.4242 55.6142
ENERGY: 1500000 2.8943 2.5238 3.4647 0.0000 -10893.8388 1474.6200 0.0000 0.0000 1779.2440 -7631.0921 299.2001 -9410.3361 -7593.4722 299.2840 101.2433 113.2745 30562.3938 41.6200 108.8912
TCL: Running FEP window   9: Lambda1 0.5999999999999996 Lambda2 0.5499999999999996 [dLambda -0.050000000000000044]
TCL: Setting parameter firsttimestep to 0
TCL: Setting parameter alchLambda to 0.5999999999999996
Info: NONBONDED TABLE R-SQUARED SPACING: 0.0625
Info: NONBONDED TABLE SIZE: 705 POINTS
TCL: Setting parameter alchLambda2 to 0.5499999999999996
Info: NONBONDED TABLE R-SQUARED SPACING: 0.0625
Info: NONBONDED TABLE SIZE: 705 POINTS
TCL: Running for 1500000 steps
ETITLE: TS BOND ANGLE DIHED IMPRP ELECT VDW BOUNDARY MISC KINETIC TOTAL TEMP POTENTIAL TOTALAVG TEMPAVG PRESSURE GPRESSURE VOLUME PRESSAVG GPRESSAVG
ENERGY: 0 2.8943 2.5238 3.4647 0.0000 -10893.7634 1474.8309 0.0000 0.0000 1778.3752 -7631.6745 299.0540 -9410.0498 -7631.6745 299.0540 34.5848 107.4828 30562.3938 34.5848 107.4828
ENERGY: 300000 2.6765 5.3326 2.2075 0.0000 -10918.1237 1528.4437 0.0000 0.0000 1794.1632 -7585.3002 301.7089 -9379.4635 -7567.9345 303.0135 578.7694 660.2234 30621.9780 29.4094 64.8700
ENERGY: 600000 2.8666 3.6381 3.1194 0.0000 -10760.8540 1412.2335 0.0000 0.0000 1712.3036 -7626.6929 287.9433 -9338.9965 -7597.2856 299.5075 -400.3389 -397.8913 30918.2149 -7.7678 38.9330
ENERGY: 900000 4.4695 2.5975 1.0366 0.0000 -10895.6248 1556.8804 0.0000 0.0000 1750.0610 -7580.5799 294.2926 -9330.6408 -7595.6311 298.6522 814.8680 833.3021 30902.5125 36.9734 90.7866
ENERGY: 1200000 2.0718 3.6118 1.1623 0.0000 -10826.0748 1430.9527 0.0000 0.0000 1765.9556 -7622.3206 296.9655 -9388.2762 -7601.3365 298.9294 -538.6031 -477.8292 31062.1255 53.1982 111.9391
ENERGY: 1500000 1.4664 2.6436 3.8290 0.0000 -10792.4542 1498.9704 0.0000 0.0000 1818.9927 -7466.5520 305.8843 -9285.5447 -7593.1085 298.8362 648.4024 717.5737 30623.3137 121.1317 186.2782
TCL: Running FEP window  10: Lambda1 0.5499999999999996 Lambda2 0.4999999999999996 [dLambda -0.04999999999999999]
TCL: Setting parameter firsttimestep to 0
TCL: Setting parameter alchLambda to 0.5499999999999996
Info: NONBONDED TABLE R-SQUARED SPACING: 0.0625
Info: NONBONDED TABLE SIZE: 705 POINTS
TCL: Setting parameter alchLambda2 to 0.4999999999999996
Info: NONBONDED TABLE R-SQUARED SPACING: 0.0625
Info: NONBONDED TABLE SIZE: 705 POINTS
TCL: Running for 1500000 steps
ETITLE: TS BOND ANGLE DIHED IMPRP ELECT VDW BOUNDARY MISC KINETIC TOTAL TEMP POTENTIAL TOTALAVG TEMPAVG PRESSURE GPRESSURE VOLUME PRESSAVG GPRESSAVG
ENERGY: 0 1.4664 2.6436 3.8290 0.0000 -10792.5339 1498.3145 0.0000 0.0000 1818.1422 -7468.1382 305.7413 -9286.2804 -7468.1382 305.7413 633.5807 703.5524 30623.3137 633.5807 703.5524
ENERGY: 300000 1.0155 0.9869 2.2665 0.0000 -10917.5292 1551.3704 0.0000 0.0000 1812.4697 -7549.4202 304.7874 -9361.8899 -7564.7794 304.9707 710.8039 813.9222 30702.8430 353.5559 431.7121
ENERGY: 600000 2.3784 1.6468 5.5384 0.0000 -10899.5756 1520.6354 0.0000 0.0000 1794.6895 -7574.6872 301.7974 -9369.3767 -7562.6797 303.5273 530.5135 561.5414 30572.1348 210.4901 280.1988
ENERGY: 900000 4.0137 3.6002 3.5346 0.0000 -10937.3314 1510.8584 0.0000 0.0000 1743.6621 -7671.6623 293.2166 -9415.3244 -7567.1796 301.7693 374.7856 453.4379 30800.7604 188.4594 257.1760
ENERGY: 1200000 4.1519 3.0632 7.0524 0.0000 -10830.9401 1482.3066 0.0000 0.0000 1740.5340 -7593.8320 292.6906 -9334.3660 -7550.6224 302.2839 344.7472 427.6269 30474.0900 178.2855 246.2701
ENERGY: 1500000 3.4219 2.5330 4.6351 0.0000 -10872.7578 1504.8022 0.0000 0.0000 1767.5750 -7589.7906 297.2378 -9357.3656 -7562.2055 301.1752 288.1076 331.4129 31003.9432 213.8018 285.4098
TCL: Running FEP window  11: Lambda1 0.4999999999999996 Lambda2 0.4499999999999996 [dLambda -0.04999999999999999]
TCL: Setting parameter firsttimestep to 0
TCL: Setting parameter alchLambda to 0.4999999999999996
Info: NONBONDED TABLE R-SQUARED SPACING: 0.0625
Info: NONBONDED TABLE SIZE: 705 POINTS
TCL: Setting parameter alchLambda2 to 0.4499999999999996
Info: NONBONDED TABLE R-SQUARED SPACING: 0.0625
Info: NONBONDED TABLE SIZE: 705 POINTS
TCL: Running for 1500000 steps
ETITLE: TS BOND ANGLE DIHED IMPRP ELECT VDW BOUNDARY MISC KINETIC TOTAL TEMP POTENTIAL TOTALAVG TEMPAVG PRESSURE GPRESSURE VOLUME PRESSAVG GPRESSAVG
ENERGY: 0 3.4219 2.5330 4.6351 0.0000 -10872.4265 1505.2456 0.0000 0.0000 1766.6832 -7589.9076 297.0879 -9356.5908 -7589.9076 297.0879 246.5351 328.2343 31003.9432 246.5351 328.2343
ENERGY: 300000 2.8435 2.1778 2.8678 0.0000 -10795.4587 1444.3729 0.0000 0.0000 1832.0003 -7511.1966 308.0717 -9343.1969 -7536.5571 299.5291 -138.4670 -36.3950 30837.7605 -25.9953 57.8926
ENERGY: 600000 2.4276 1.0871 0.3934 0.0000 -10861.5905 1450.1953 0.0000 0.0000 1780.6334 -7626.8538 299.4337 -9407.4872 -7560.6248 298.7750 -399.9068 -305.9558 31181.6868 116.7546 200.7616
ENERGY: 900000 2.1232 1.8974 3.7623 0.0000 -10900.9779 1481.6919 0.0000 0.0000 1800.2636 -7611.2396 302.7348 -9411.5032 -7577.7435 299.5209 301.8637 289.6116 30258.8981 225.1535 295.0962
ENERGY: 1200000 1.4992 2.0313 2.4131 0.0000 -10930.9263 1568.4553 0.0000 0.0000 1793.4939 -7563.0335 301.5964 -9356.5274 -7581.8569 299.0781 933.0528 937.3945 30772.1848 250.8210 313.2641
ENERGY: 1500000 6.8505 2.2216 2.5151 0.0000 -10880.0770 1473.3430 0.0000 0.0000 1759.5896 -7635.5571 295.8950 -9395.1467 -7592.2453 299.6368 292.4765 314.5908 30227.4499 237.6635 294.6300
TCL: Running FEP window  12: Lambda1 0.4499999999999996 Lambda2 0.39999999999999963 [dLambda -0.04999999999999999]
TCL: Setting parameter firsttimestep to 0
TCL: Setting parameter alchLambda to 0.4499999999999996
Info: NONBONDED TABLE R-SQUARED SPACING: 0.0625
Info: NONBONDED TABLE SIZE: 705 POINTS
TCL: Setting parameter alchLambda2 to 0.39999999999999963
Info: NONBONDED TABLE R-SQUARED SPACING: 0.0625
Info: NONBONDED TABLE SIZE: 705 POINTS
TCL: Running for 1500000 steps
ETITLE: TS BOND ANGLE DIHED IMPRP ELECT VDW BOUNDARY MISC KINETIC TOTAL TEMP POTENTIAL TOTALAVG TEMPAVG PRESSURE GPRESSURE VOLUME PRESSAVG GPRESSAVG
ENERGY: 0 6.8505 2.2216 2.5151 0.0000 -10880.0773 1473.8647 0.0000 0.0000 1758.6908 -7635.9346 295.7438 -9394.6254 -7635.9346 295.7438 245.8972 314.4941 30227.4499 245.8972 314.4941
ENERGY: 300000 4.5139 1.0350 2.8677 0.0000 -10851.2674 1474.5050 0.0000 0.0000 1808.5455 -7559.8002 304.1275 -9368.3458 -7552.9551 302.8909 -108.1532 6.6559 30719.4107 59.3400 136.5599
ENERGY: 600000 2.0893 2.5771 2.1429 0.0000 -10747.7820 1361.9749 0.0000 0.0000 1829.0354 -7549.9624 307.5731 -9378.9978 -7538.4759 303.8538 -278.5765 -228.7228 30510.4927 -6.7479 57.1621
ENERGY: 900000 2.1644 1.1803 4.6049 0.0000 -10937.0842 1487.9704 0.0000 0.0000 1818.8450 -7622.3193 305.8595 -9441.1642 -7567.6960 302.6724 156.7910 141.2947 30514.8325 -111.5297 -47.6780
ENERGY: 1200000 1.7465 1.5679 1.7869 0.0000 -10811.6795 1386.6621 0.0000 0.0000 1756.0644 -7663.8516 295.3022 -9419.9161 -7596.1461 301.0274 -698.0831 -708.5543 30784.8929 -183.4453 -124.4607
ENERGY: 1500000 4.5927 2.8271 2.0022 0.0000 -10890.0132 1432.2234 0.0000 0.0000 1765.9950 -7682.3727 296.9721 -9448.3677 -7599.5077 300.7968 -89.7445 -10.5841 30276.1293 -150.3826 -86.7889
TCL: Running FEP window  13: Lambda1 0.39999999999999963 Lambda2 0.34999999999999964 [dLambda -0.04999999999999999]
TCL: Setting parameter firsttimestep to 0
TCL: Setting parameter alchLambda to 0.39999999999999963
Info: NONBONDED TABLE R-SQUARED SPACING: 0.0625
Info: NONBONDED TABLE SIZE: 705 POINTS
TCL: Setting parameter alchLambda2 to 0.34999999999999964
Info: NONBONDED TABLE R-SQUARED SPACING: 0.0625
Info: NONBONDED TABLE SIZE: 705 POINTS
TCL: Running for 1500000 steps
ETITLE: TS BOND ANGLE DIHED IMPRP ELECT VDW BOUNDARY MISC KINETIC TOTAL TEMP POTENTIAL TOTALAVG TEMPAVG PRESSURE GPRESSURE VOLUME PRESSAVG GPRESSAVG
ENERGY: 0 4.5927 2.8271 2.0022 0.0000 -10890.0140 1431.6904 0.0000 0.0000 1765.0973 -7683.8043 296.8212 -9448.9016 -7683.8043 296.8212 -103.8839 -21.5477 30276.1293 -103.8839 -21.5477
ENERGY: 300000 4.2572 2.6442 2.0257 0.0000 -10894.2233 1481.7092 0.0000 0.0000 1770.4059 -7633.1810 297.7139 -9403.5869 -7626.9342 298.8377 98.6555 88.6454 30796.8686 -73.7454 -54.2958
ENERGY: 600000 4.4478 4.0998 3.0238 0.0000 -10901.2269 1520.1259 0.0000 0.0000 1792.1983 -7577.3313 301.3785 -9369.5296 -7597.4802 299.4311 590.4154 653.5795 30208.3702 -37.0256 -4.4954
ENERGY: 900000 4.8841 1.8742 2.7073 0.0000 -10770.0375 1392.3390 0.0000 0.0000 1745.8586 -7622.3742 293.5860 -9368.2328 -7590.9045 299.0624 -588.2335 -516.0670 30555.7629 -71.3019 -25.6334
ENERGY: 1200000 1.6121 3.1203 4.7181 0.0000 -10870.6663 1450.3947 0.0000 0.0000 1826.4526 -7584.3686 307.1388 -9410.8211 -7593.1708 299.7380 -175.6271 -109.5275 30929.5796 -87.9561 -38.0982
ENERGY: 1500000 2.7199 3.7869 2.5797 0.0000 -10661.4065 1296.4813 0.0000 0.0000 1787.1269 -7568.7119 300.5257 -9355.8387 -7585.2091 300.6037 -1147.4271 -1127.4224 30853.5648 -140.5920 -94.3321
TCL: Running FEP window  14: Lambda1 0.34999999999999964 Lambda2 0.29999999999999966 [dLambda -0.04999999999999999]
TCL: Setting parameter firsttimestep to 0
TCL: Setting parameter alchLambda to 0.34999999999999964
Info: NONBONDED TABLE R-SQUARED SPACING: 0.0625
Info: NONBONDED TABLE SIZE: 705 POINTS
TCL: Setting parameter alchLambda2 to 0.29999999999999966
Info: NONBONDED TABLE R-SQUARED SPACING: 0.0625
Info: NONBONDED TABLE SIZE: 705 POINTS
TCL: Running for 1500000 steps
ETITLE: TS BOND ANGLE DIHED IMPRP ELECT VDW BOUNDARY MISC KINETIC TOTAL TEMP POTENTIAL TOTALAVG TEMPAVG PRESSURE GPRESSURE VOLUME PRESSAVG GPRESSAVG
ENERGY: 0 2.7199 3.7869 2.5797 0.0000 -10661.4057 1296.7422 0.0000 0.0000 1786.2427 -7569.3343 300.3770 -9355.5770 -7569.3343 300.3770 -1208.2423 -1133.5071 30853.5648 -1208.2423 -1133.5071
ENERGY: 300000 3.0406 1.1709 6.4168 0.0000 -10887.2146 1462.1910 0.0000 0.0000 1802.1647 -7612.2306 303.0545 -9414.3953 -7544.8610 301.0167 -74.7795 -11.9290 30450.8641 -379.8365 -328.4010
ENERGY: 600000 2.1050 1.4376 2.5028 0.0000 -10751.9246 1388.8003 0.0000 0.0000 1748.4952 -7608.5836 294.0293 -9357.0788 -7567.4093 299.7971 -565.5615 -472.7251 30958.4016 -87.2339 -10.0879
ENERGY: 900000 3.1059 2.1687 6.4238 0.0000 -10884.4390 1527.0460 0.0000 0.0000 1810.3105 -7535.3842 304.4243 -9345.6947 -7563.8947 299.9813 290.4974 406.8468 30534.4780 -100.1225 -16.3540
ENERGY: 1200000 2.7039 2.9000 2.3392 0.0000 -10838.0465 1528.8647 0.0000 0.0000 1773.9373 -7527.3014 298.3077 -9301.2387 -7560.9617 300.2207 570.6811 713.8278 30445.3091 -35.1365 52.3611
ENERGY: 1500000 2.5426 2.8207 4.0037 0.0000 -10727.9205 1428.2691 0.0000 0.0000 1766.0129 -7524.2715 296.9751 -9290.2844 -7562.1298 299.3138 -197.3700 -170.2279 30939.2619 11.4453 91.0836
TCL: Running FEP window  15: Lambda1 0.29999999999999966 Lambda2 0.24999999999999967 [dLambda -0.04999999999999999]
TCL: Setting parameter firsttimestep to 0
TCL: Setting parameter alchLambda to 0.29999999999999966
Info: NONBONDED TABLE R-SQUARED SPACING: 0.0625
Info: NONBONDED TABLE SIZE: 705 POINTS
TCL: Setting parameter alchLambda2 to 0.24999999999999967
Info: NONBONDED TABLE R-SQUARED SPACING: 0.0625
Info: NONBONDED TABLE SIZE: 705 POINTS
TCL: Running for 1500000 steps
ETITLE: TS BOND ANGLE DIHED IMPRP ELECT VDW BOUNDARY MISC KINETIC TOTAL TEMP POTENTIAL TOTALAVG TEMPAVG PRESSURE GPRESSURE VOLUME PRESSAVG GPRESSAVG
ENERGY: 0 2.5426 2.8207 4.0037 0.0000 -10727.9217 1427.3790 0.0000 0.0000 1765.0839 -7526.0918 296.8189 -9291.1758 -7526.0918 296.8189 -274.2137 -181.7102 30939.2619 -274.2137 -181.7102
ENERGY: 300000 1.0863 2.7061 1.7584 0.0000 -10969.1870 1549.6413 0.0000 0.0000 1780.6095 -7633.3854 299.4297 -9413.9949 -7609.4800 294.6779 735.7220 784.5219 30351.9628 120.1793 167.8489
ENERGY: 600000 4.9154 3.6007 0.9780 0.0000 -10963.5583 1557.3948 0.0000 0.0000 1744.3165 -7652.3529 293.3266 -9396.6694 -7636.5322 294.6293 751.4534 901.9002 30244.4062 98.0565 149.8925
ENERGY: 900000 4.3140 2.0533 3.7453 0.0000 -10852.7409 1520.8734 0.0000 0.0000 1791.6719 -7530.0829 301.2900 -9321.7548 -7621.6261 295.4736 337.6435 455.9381 30882.5580 202.6644 266.5699
ENERGY: 1200000 1.4902 2.1330 4.0148 0.0000 -10877.9271 1530.3275 0.0000 0.0000 1834.4104 -7505.5512 308.4770 -9339.9616 -7611.2038 296.1323 617.5537 673.3517 30620.1939 282.4286 344.1798
ENERGY: 1500000 5.0128 1.6243 3.4359 0.0000 -10966.4824 1519.6976 0.0000 0.0000 1790.1337 -7646.5780 301.0313 -9436.7117 -7609.1134 296.6083 181.3488 222.3160 30757.6366 201.5936 263.7510
TCL: Running FEP window  16: Lambda1 0.24999999999999967 Lambda2 0.19999999999999968 [dLambda -0.04999999999999999]
TCL: Setting parameter firsttimestep to 0
TCL: Setting parameter alchLambda to 0.24999999999999967
Info: NONBONDED TABLE R-SQUARED SPACING: 0.0625
Info: NONBONDED TABLE SIZE: 705 POINTS
TCL: Setting parameter alchLambda2 to 0.19999999999999968
Info: NONBONDED TABLE R-SQUARED SPACING: 0.0625
Info: NONBONDED TABLE SIZE: 705 POINTS
TCL: Running for 1500000 steps
ETITLE: TS BOND ANGLE DIHED IMPRP ELECT VDW BOUNDARY MISC KINETIC TOTAL TEMP POTENTIAL TOTALAVG TEMPAVG PRESSURE GPRESSURE VOLUME PRESSAVG GPRESSAVG
ENERGY: 0 5.0129 1.6243 3.4359 0.0000 -10966.4824 1520.0710 0.0000 0.0000 1789.2614 -7647.0769 300.8846 -9436.3382 -7647.0769 300.8846 125.5135 219.8671 30757.6366 125.5135 219.8671
ENERGY: 300000 2.0030 1.7437 3.2675 0.0000 -10756.6242 1444.3951 0.0000 0.0000 1818.7887 -7486.4262 305.8500 -9305.2149 -7531.8435 301.7196 -44.3255 33.0439 30997.7011 85.4157 192.2399
ENERGY: 600000 2.7921 0.9623 1.8821 0.0000 -10728.1682 1359.7737 0.0000 0.0000 1780.5674 -7582.1906 299.4226 -9362.7580 -7565.4564 300.4459 -717.4108 -690.9502 31005.2086 151.2187 231.9874
ENERGY: 900000 4.0627 0.9739 2.3963 0.0000 -10894.3598 1475.4725 0.0000 0.0000 1787.8096 -7623.6449 300.6405 -9411.4544 -7560.6811 301.3141 154.2870 202.0905 30291.9843 242.1348 311.0341
ENERGY: 1200000 1.7790 3.5319 4.5433 0.0000 -10865.2861 1470.5075 0.0000 0.0000 1793.8834 -7591.0410 301.6619 -9384.9244 -7560.7011 301.4261 -194.7277 -113.9032 30975.5052 158.0627 233.2799
ENERGY: 1500000 2.0976 2.1606 4.1521 0.0000 -10924.2501 1536.9892 0.0000 0.0000 1764.9530 -7613.8976 296.7969 -9378.8506 -7566.0419 301.2874 451.7909 565.3369 30516.5340 118.9500 193.0852
TCL: Running FEP window  17: Lambda1 0.19999999999999968 Lambda2 0.1499999999999997 [dLambda -0.04999999999999999]
TCL: Setting parameter firsttimestep to 0
TCL: Setting parameter alchLambda to 0.19999999999999968
Info: NONBONDED TABLE R-SQUARED SPACING: 0.0625
Info: NONBONDED TABLE SIZE: 705 POINTS
TCL: Setting parameter alchLambda2 to 0.1499999999999997
Info: NONBONDED TABLE R-SQUARED SPACING: 0.0625
Info: NONBONDED TABLE SIZE: 705 POINTS
TCL: Running for 1500000 steps
ETITLE: TS BOND ANGLE DIHED IMPRP ELECT VDW BOUNDARY MISC KINETIC TOTAL TEMP POTENTIAL TOTALAVG TEMPAVG PRESSURE GPRESSURE VOLUME PRESSAVG GPRESSAVG
ENERGY: 0 2.0976 2.1606 4.1521 0.0000 -10924.2503 1537.0198 0.0000 0.0000 1764.0759 -7614.7443 296.6494 -9378.8202 -7614.7443 296.6494 489.7532 559.1523 30516.5340 489.7532 559.1523
ENERGY: 300000 4.0887 1.2850 2.7823 0.0000 -10716.5208 1357.2866 0.0000 0.0000 1844.4680 -7506.6102 310.1683 -9351.0783 -7628.6239 297.8126 -936.5893 -881.0785 31041.6017 -326.8929 -251.1854
ENERGY: 600000 5.6317 4.3416 3.4855 0.0000 -10843.3879 1452.7418 0.0000 0.0000 1807.8843 -7569.3029 304.0163 -9377.1872 -7610.8184 298.9567 -347.4509 -324.5171 31134.3033 -502.8277 -432.3687
ENERGY: 900000 1.6605 2.5583 1.7637 0.0000 -10899.7021 1467.2644 0.0000 0.0000 1819.8918 -7606.5633 306.0355 -9426.4551 -7604.6484 299.2748 -13.0379 36.1359 30517.4319 -252.0750 -192.6177
ENERGY: 1200000 0.9156 4.2944 2.3225 0.0000 -10918.9407 1474.0461 0.0000 0.0000 1811.1485 -7626.2137 304.5652 -9437.3622 -7592.8236 300.7336 -227.2411 -189.8008 30920.6019 -212.8231 -151.0091
ENERGY: 1500000 2.7545 7.2449 2.2554 0.0000 -10815.2308 1407.8932 0.0000 0.0000 1770.1589 -7624.9238 297.6723 -9395.0828 -7591.1311 300.5791 -579.8414 -454.1610 30856.0007 -227.7186 -168.7140
TCL: Running FEP window  18: Lambda1 0.1499999999999997 Lambda2 0.09999999999999969 [dLambda -0.05 ]
TCL: Setting parameter firsttimestep to 0
TCL: Setting parameter alchLambda to 0.1499999999999997
Info: NONBONDED TABLE R-SQUARED SPACING: 0.0625
Info: NONBONDED TABLE SIZE: 705 POINTS
TCL: Setting parameter alchLambda2 to 0.09999999999999969
Info: NONBONDED TABLE R-SQUARED SPACING: 0.0625
Info: NONBONDED TABLE SIZE: 705 POINTS
TCL: Running for 1500000 steps
ETITLE: TS BOND ANGLE DIHED IMPRP ELECT VDW BOUNDARY MISC KINETIC TOTAL TEMP POTENTIAL TOTALAVG TEMPAVG PRESSURE GPRESSURE VOLUME PRESSAVG GPRESSAVG
ENERGY: 0 2.7545 7.2449 2.2554 0.0000 -10815.2299 1407.4606 0.0000 0.0000 1769.2564 -7626.2581 297.5206 -9395.5145 -7626.2581 297.5206 -557.6912 -460.7254 30856.0007 -557.6912 -460.7254
ENERGY: 300000 5.4035 2.4301 1.9251 0.0000 -10883.6808 1489.9084 0.0000 0.0000 1768.0857 -7615.9280 297.3237 -9384.0137 -7596.4732 298.8297 180.8404 228.0396 30276.9359 33.3039 97.9032
ENERGY: 600000 3.8255 2.5169 2.3200 0.0000 -10862.5456 1554.3868 0.0000 0.0000 1827.6989 -7471.7976 307.3483 -9299.4964 -7562.1121 300.3608 1032.0768 1171.2752 30245.4093 127.5153 202.4594
ENERGY: 900000 5.0275 1.9119 2.3229 0.0000 -10809.5885 1465.5837 0.0000 0.0000 1884.0445 -7450.6979 316.8235 -9334.7424 -7550.7305 302.5648 225.3701 266.2496 30552.5398 146.4126 203.8049
ENERGY: 1200000 1.9258 4.3405 4.2853 0.0000 -10681.5960 1406.6451 0.0000 0.0000 1763.9499 -7500.4494 296.6282 -9264.3993 -7554.6349 301.3000 -225.2402 -142.9564 30971.5291 58.1329 123.7274
ENERGY: 1500000 1.5086 4.1732 1.3902 0.0000 -10899.6209 1463.0539 0.0000 0.0000 1791.4222 -7638.0729 301.2480 -9429.4951 -7553.2369 301.1499 -0.0020 16.5546 30385.4820 -15.9276 40.7566
TCL: Running FEP window  19: Lambda1 0.09999999999999969 Lambda2 0.049999999999999684 [dLambda -0.05 ]
TCL: Setting parameter firsttimestep to 0
TCL: Setting parameter alchLambda to 0.09999999999999969
Info: NONBONDED TABLE R-SQUARED SPACING: 0.0625
Info: NONBONDED TABLE SIZE: 705 POINTS
TCL: Setting parameter alchLambda2 to 0.049999999999999684
Info: NONBONDED TABLE R-SQUARED SPACING: 0.0625
Info: NONBONDED TABLE SIZE: 705 POINTS
TCL: Running for 1500000 steps
ETITLE: TS BOND ANGLE DIHED IMPRP ELECT VDW BOUNDARY MISC KINETIC TOTAL TEMP POTENTIAL TOTALAVG TEMPAVG PRESSURE GPRESSURE VOLUME PRESSAVG GPRESSAVG
ENERGY: 0 1.5085 4.1732 1.3902 0.0000 -10899.6199 1462.4879 0.0000 0.0000 1790.5394 -7639.5207 301.0996 -9430.0601 -7639.5207 301.0996 -71.9853 9.0381 30385.4820 -71.9853 9.0381
ENERGY: 300000 3.4290 1.8514 3.9213 0.0000 -10874.2526 1484.9426 0.0000 0.0000 1804.5363 -7575.5720 303.4533 -9380.1083 -7621.5702 299.8935 259.1945 307.4419 30423.5829 124.9627 152.2599
ENERGY: 600000 2.7276 2.1326 1.5671 0.0000 -10734.7581 1409.0370 0.0000 0.0000 1778.4923 -7540.8015 299.0737 -9319.2937 -7610.6213 299.1281 -411.0557 -353.1493 30915.9775 -98.7012 -47.0036
ENERGY: 900000 2.5357 1.6939 1.7482 0.0000 -10972.8802 1536.0165 0.0000 0.0000 1841.9036 -7588.9825 309.7370 -9430.8860 -7586.7110 301.0169 564.5200 645.3442 30330.1494 -38.4489 18.1891
ENERGY: 1200000 3.2064 4.6314 1.7857 0.0000 -10855.4812 1512.8459 0.0000 0.0000 1817.4871 -7515.5245 305.6311 -9333.0116 -7580.0662 300.8810 441.6041 538.6673 31132.5823 82.9169 141.4701
ENERGY: 1500000 2.0716 4.6829 4.4341 0.0000 -10888.3403 1506.4662 0.0000 0.0000 1814.0173 -7556.6682 305.0476 -9370.6855 -7585.6145 300.0874 375.2599 495.3499 30567.9545 78.4836 148.7158
TCL: Running FEP window  20: Lambda1 0.049999999999999684 Lambda2 0.0    [dLambda -0.049999999999999684]
TCL: Setting parameter firsttimestep to 0
TCL: Setting parameter alchLambda to 0.049999999999999684
Info: NONBONDED TABLE R-SQUARED SPACING: 0.0625
Info: NONBONDED TABLE SIZE: 705 POINTS
TCL: Setting parameter alchLambda2 to 0.0
Info: NONBONDED TABLE R-SQUARED SPACING: 0.0625
Info: NONBONDED TABLE SIZE: 705 POINTS
TCL: Running for 1500000 steps
ETITLE: TS BOND ANGLE DIHED IMPRP ELECT VDW BOUNDARY MISC KINETIC TOTAL TEMP POTENTIAL TOTALAVG TEMPAVG PRESSURE GPRESSURE VOLUME PRESSAVG GPRESSAVG
ENERGY: 0 2.0716 4.6829 4.4341 0.0000 -10888.3415 1505.5627 0.0000 0.0000 1813.1341 -7558.4561 304.8991 -9371.5902 -7558.4561 304.8991 402.6906 487.2977 30567.9545 402.6906 487.2977
ENERGY: 300000 4.5781 1.7935 3.5263 0.0000 -10838.1889 1447.7061 0.0000 0.0000 1712.2733 -7668.3116 287.9382 -9380.5849 -7592.7110 296.7794 32.3854 75.4687 30160.6501 -16.6643 38.5634
ENERGY: 600000 3.3082 1.5338 1.0931 0.0000 -11069.7448 1631.7340 0.0000 0.0000 1738.8796 -7693.1961 292.4124 -9432.0757 -7591.7869 297.5116 984.8418 1002.1834 30691.8675 277.0565 339.2444
ENERGY: 900000 1.8384 1.5779 1.8586 0.0000 -10962.1891 1531.6422 0.0000 0.0000 1789.8594 -7635.4126 300.9852 -9425.2720 -7600.5368 297.0428 523.9597 567.3823 30437.0926 320.6794 380.9935
ENERGY: 1200000 3.3016 5.6208 0.8991 0.0000 -10856.2630 1459.8596 0.0000 0.0000 1851.5005 -7535.0815 311.3509 -9386.5820 -7584.2674 299.1631 -299.1606 -238.9360 30988.8454 143.1791 202.3619
ENERGY: 1500000 3.6403 2.8211 3.6764 0.0000 -10710.1404 1394.4465 0.0000 0.0000 1788.4001 -7517.1561 300.7398 -9305.5562 -7577.6079 299.0179 -479.2447 -431.6448 30778.3737 59.6039 114.5929
TCL: Exiting due to exit command.
