Info: SIMULATION PARAMETERS:
Info: TIMESTEP               2
Info: NUMBER OF STEPS        0
Info: STEPS PER CYCLE        10
Info: PERIODIC CELL BASIS 1  30.9825 0 0
Info: PERIODIC CELL BASIS 2  0 31.6848 0
Info: PERIODIC CELL BASIS 3  0 0 31.6352
Info: PERIODIC CELL CENTER   0 0 0
Info: WRAPPING WATERS AROUND PERIODIC BOUNDARIES ON OUTPUT.
Info: WRAPPING ALL CLUSTERS AROUND PERIODIC BOUNDARIES ON OUTPUT.
Info: FIRST LDB TIMESTEP     50
Info: LAST LDB TIMESTEP     -1
Info: HOM BACKGROUND SCALING 1
Info: PME BACKGROUND SCALING 1
Info: MIN ATOMS PER PATCH    40
Info: EMPTY PATCH LOAD       40 ATOMS
Info: VELOCITY FILE          mobley_2727678_equil.vel
Info: CENTER OF MASS MOVING INITIALLY? NO
Info: DIELECTRIC             1
Info: EXCLUDE                SCALED ONE-FOUR
Info: 1-4 ELECTROSTATICS SCALED BY 0.833333
Info: MODIFIED 1-4 VDW PARAMETERS WILL BE USED
Info: DCD FILENAME           mobley_2727678_prod.dcd
Info: DCD FREQUENCY          100000
Info: DCD FIRST STEP         100000
Info: DCD FILE WILL CONTAIN UNIT CELL DATA
Info: XST FILENAME           mobley_2727678_prod.xst
Info: XST FREQUENCY          100000
Info: NO VELOCITY DCD OUTPUT
Info: NO FORCE DCD OUTPUT
Info: OUTPUT FILENAME        mobley_2727678_prod
Info: BINARY OUTPUT FILES WILL BE USED
Info: RESTART FILENAME       mobley_2727678_prod.restart
Info: RESTART FREQUENCY      100000
Info: BINARY RESTART FILES WILL BE USED
Info: CUTOFF                 9
Info: PAIRLIST DISTANCE      11
Info: PAIRLIST SHRINK RATE   0.01
Info: PAIRLIST GROW RATE     0.01
Info: PAIRLIST TRIGGER       0.3
Info: PAIRLISTS PER CYCLE    2
Info: PAIRLISTS ENABLED
Info: MARGIN                 2
Info: HYDROGEN GROUP CUTOFF  2.5
Info: PATCH DIMENSION        15.5
Info: ENERGY OUTPUT STEPS    100000
Info: ENERGY EVALUATION STEPS    100000
Info: OUTPUT ENERGY PRECISION 4
Info: CROSSTERM ENERGY INCLUDED IN DIHEDRAL
Info: TIMING OUTPUT STEPS    1000000
Info: PRESSURE OUTPUT STEPS  100000
Info: ALCHEMICAL FEP ON
Info: FEP CURRENT LAMBDA VALUE     0
Info: FEP COMPARISON LAMBDA VALUE  0.05
Info: FEP INTRA-ALCHEMICAL NON-BONDED INTERACTIONS WILL BE RETAINED
Info: FEP INTRA-ALCHEMICAL BONDED INTERACTIONS WILL BE RETAINED
Info: FEP VDW SHIFTING COEFFICIENT 5
Info: FEP ELEC. ACTIVE FOR ANNIHILATED PARTICLES BETWEEN LAMBDA = 0 AND LAMBDA = 0.5
Info: FEP ELEC. ACTIVE FOR EXNIHILATED PARTICLES BETWEEN LAMBDA = 0.5 AND LAMBDA = 1
Info: FEP VDW ACTIVE FOR ANNIHILATED PARTICLES BETWEEN LAMBDA = 0 AND LAMBDA = 1
Info: FEP VDW ACTIVE FOR EXNIHILATED PARTICLES BETWEEN LAMBDA = 0 AND LAMBDA = 1
Info: FEP BOND ACTIVE FOR ANNIHILATED PARTICLES BETWEEN LAMBDA = 1 AND LAMBDA = 1
Info: FEP BOND ACTIVE FOR EXNIHILATED PARTICLES BETWEEN LAMBDA = 0 AND LAMBDA = 0
Info: LANGEVIN DYNAMICS ACTIVE
Info: LANGEVIN TEMPERATURE   300
Info: LANGEVIN USING BBK INTEGRATOR
Info: LANGEVIN DAMPING COEFFICIENT IS 1 INVERSE PS
Info: LANGEVIN DYNAMICS APPLIED TO HYDROGENS
Info: LANGEVIN PISTON PRESSURE CONTROL ACTIVE
Info:        TARGET PRESSURE IS 1.01325 BAR
Info:     OSCILLATION PERIOD IS 50 FS
Info:             DECAY TIME IS 25 FS
Info:     PISTON TEMPERATURE IS 300 K
Info:       PRESSURE CONTROL IS GROUP-BASED
Info:    INITIAL STRAIN RATE IS 0.000243072 0.000243072 0.000243072
Info:       CELL FLUCTUATION IS ISOTROPIC
Info: PARTICLE MESH EWALD (PME) ACTIVE
Info: PME TOLERANCE               1e-06
Info: PME EWALD COEFFICIENT       0.348832
Info: PME INTERPOLATION ORDER     4
Info: PME GRID DIMENSIONS         32 32 32
Info: PME MAXIMUM GRID SPACING    1
Info: PME CALCULATION WILL BE PERFORMED ON GPU
Info: FULL ELECTROSTATIC EVALUATION FREQUENCY      2
Info: USING VERLET I (r-RESPA) MTS SCHEME.
Info: C1 SPLITTING OF LONG RANGE ELECTROSTATICS
Info: PLACING ATOMS IN PATCHES BY HYDROGEN GROUPS
Info: RIGID BONDS TO HYDROGEN : ALL
Info:         ERROR TOLERANCE : 1e-08
Info:          MAX ITERATIONS : 100
Info: RIGID WATER USING SETTLE ALGORITHM
Info: RANDOM NUMBER SEED     1743523271
Info: USE HYDROGEN BONDS?    NO
Info: Using AMBER format force field!
Info: AMBER PARM FILE        mobley_2727678.prmtop
Info: COORDINATE PDB         mobley_2727678.pdb
Info: Exclusions will be read from PARM file!
Info: SCNB (VDW SCALING)     2
Info: USING ARITHMETIC MEAN TO COMBINE L-J SIGMA PARAMETERS
Info: BINARY COORDINATES     mobley_2727678_equil.coor
Info: SUMMARY OF PARAMETERS:
Info: 10 BONDS
Info: 14 ANGLES
Info:   14 HARMONIC
Info:   0 COSINE-BASED
Info: 7 DIHEDRAL
Info: 0 IMPROPER
Info: 0 CROSSTERM
Info: 0 VDW
Info: 36 VDW_PAIRS
Info: 0 NBTHOLE_PAIRS
Info: To read alchdata from file: mobley_2727678.pdb
Info: To read alchflag data from column: 5
Info: STRUCTURE SUMMARY:
Info: 2964 ATOMS
Info: 2964 BONDS
Info: 18 ANGLES
Info: 33 DIHEDRALS
Info: 0 IMPROPERS
Info: 0 CROSSTERMS
Info: 3003 EXCLUSIONS
Info: 2955 RIGID BONDS
Info: ALCH: 0 ATOMS TO DISAPPEAR IN FINAL STATE
Info: ALCH: 12 ATOMS TO APPEAR IN FINAL STATE
Info: 5937 DEGREES OF FREEDOM
Info: 993 HYDROGEN GROUPS
Info: 3 ATOMS IN LARGEST HYDROGEN GROUP
Info: 993 MIGRATION GROUPS
Info: 3 ATOMS IN LARGEST MIGRATION GROUP
Info: TOTAL MASS = 17965.7 amu
Info: TOTAL CHARGE = 0.000100046 e
Info: MASS DENSITY = 0.960651 g/cm^3
Info: ATOM DENSITY = 0.095442 atoms/A^3
Info: ADDED 0 IMPLICIT EXCLUSIONS
Info: NONBONDED TABLE R-SQUARED SPACING: 0.0625
Info: NONBONDED TABLE SIZE: 705 POINTS
Info: REMOVING COM VELOCITY -0.0447222 -0.134359 -0.0253506
Info: Use 3D box decompostion in PME FFT.
Info: Updated CUDA force table with 4096 elements.
Info: Updated CUDA LJ table with 8 x 8 elements.
Info: Found 14 unique exclusion lists needing 24 bytes
TCL: Running for 1500000 steps
ETITLE: TS BOND ANGLE DIHED IMPRP ELECT VDW BOUNDARY MISC KINETIC TOTAL TEMP POTENTIAL TOTALAVG TEMPAVG PRESSURE GPRESSURE VOLUME PRESSAVG GPRESSAVG
ENERGY: 0 4.0892 1.9680 15.8775 0.0000 -10846.1651 1487.2192 0.0000 0.0000 1744.3991 -7592.6121 295.7122 -9337.0112 -7592.6121 295.7122 239.2143 327.9679 31055.5030 239.2143 327.9679
ENERGY: 300000 5.2111 2.5342 17.3549 0.0000 -10902.3390 1460.0908 0.0000 0.0000 1743.3105 -7673.8376 295.5276 -9417.1481 -7636.1130 300.1233 122.3560 171.0594 30175.0933 57.1770 102.0843
ENERGY: 600000 7.5956 4.7899 17.0398 0.0000 -10955.1421 1477.5987 0.0000 0.0000 1784.2676 -7663.8505 302.4707 -9448.1181 -7666.9547 299.8566 -36.5646 35.9079 30695.9427 279.0500 339.6395
ENERGY: 900000 3.8066 10.7708 13.9012 0.0000 -10856.2613 1393.6493 0.0000 0.0000 1779.5163 -7654.6170 301.6653 -9434.1334 -7665.9361 299.9079 -312.9042 -242.3791 30269.2907 130.0437 201.1765
ENERGY: 1200000 6.8909 4.6141 14.5869 0.0000 -10798.2442 1444.4789 0.0000 0.0000 1757.7624 -7569.9110 297.9775 -9327.6734 -7647.4634 301.2039 -1.4476 73.7246 30853.7093 84.5856 158.6590
ENERGY: 1500000 3.5716 13.6322 15.8193 0.0000 -10783.0983 1383.8483 0.0000 0.0000 1718.0851 -7648.1417 291.2514 -9366.2269 -7662.7674 298.9165 -442.0226 -308.8740 30128.0081 -3.0012 75.1892
TCL: Running FEP window   2: Lambda1 0.05   Lambda2 0.1    [dLambda 0.05  ]
TCL: Setting parameter firsttimestep to 0
TCL: Setting parameter alchLambda to 0.05
Info: NONBONDED TABLE R-SQUARED SPACING: 0.0625
Info: NONBONDED TABLE SIZE: 705 POINTS
TCL: Setting parameter alchLambda2 to 0.1
Info: NONBONDED TABLE R-SQUARED SPACING: 0.0625
Info: NONBONDED TABLE SIZE: 705 POINTS
TCL: Running for 1500000 steps
ETITLE: TS BOND ANGLE DIHED IMPRP ELECT VDW BOUNDARY MISC KINETIC TOTAL TEMP POTENTIAL TOTALAVG TEMPAVG PRESSURE GPRESSURE VOLUME PRESSAVG GPRESSAVG
ENERGY: 0 3.5716 13.6323 15.8193 0.0000 -10783.0982 1384.5260 0.0000 0.0000 1717.1924 -7648.3566 291.1001 -9365.5490 -7648.3566 291.1001 -375.2198 -299.9785 30128.0081 -375.2198 -299.9785
ENERGY: 300000 3.8168 1.6950 13.4894 0.0000 -10802.2980 1349.5103 0.0000 0.0000 1789.8565 -7643.9299 303.4182 -9433.7864 -7641.6015 297.4444 -895.6136 -829.3963 30450.4833 -168.6141 -123.8407
ENERGY: 600000 11.1890 1.8798 15.3392 0.0000 -10926.4299 1458.2371 0.0000 0.0000 1776.6547 -7663.1301 301.1802 -9439.7848 -7626.9424 299.8086 254.6953 298.1704 30250.2883 -140.4762 -93.2368
ENERGY: 900000 1.5622 4.7203 16.2310 0.0000 -10960.1343 1477.4937 0.0000 0.0000 1760.6468 -7699.4804 298.4665 -9460.1271 -7642.1978 299.1598 -112.5831 -39.0953 30612.9052 -74.0350 -17.2429
ENERGY: 1200000 4.3097 3.4553 15.8715 0.0000 -10763.3602 1393.4758 0.0000 0.0000 1781.7507 -7564.4971 302.0440 -9346.2478 -7641.2721 300.0467 -349.7401 -282.3389 30852.5991 -87.1936 -20.1289
ENERGY: 1500000 4.0024 5.1900 15.3727 0.0000 -10949.3067 1453.2683 0.0000 0.0000 1764.6540 -7706.8193 299.1458 -9471.4733 -7641.9646 300.0849 -223.4758 -239.7683 30689.7038 -78.4245 -16.8066
TCL: Running FEP window   3: Lambda1 0.1    Lambda2 0.15000000000000002 [dLambda 0.05000000000000002]
TCL: Setting parameter firsttimestep to 0
TCL: Setting parameter alchLambda to 0.1
Info: NONBONDED TABLE R-SQUARED SPACING: 0.0625
Info: NONBONDED TABLE SIZE: 705 POINTS
TCL: Setting parameter alchLambda2 to 0.15000000000000002
Info: NONBONDED TABLE R-SQUARED SPACING: 0.0625
Info: NONBONDED TABLE SIZE: 705 POINTS
TCL: Running for 1500000 steps
ETITLE: TS BOND ANGLE DIHED IMPRP ELECT VDW BOUNDARY MISC KINETIC TOTAL TEMP POTENTIAL TOTALAVG TEMPAVG PRESSURE GPRESSURE VOLUME PRESSAVG GPRESSAVG
ENERGY: 0 4.0024 5.1900 15.3727 0.0000 -10949.3067 1457.7629 0.0000 0.0000 1763.7664 -7703.2123 298.9953 -9466.9787 -7703.2123 298.9953 -297.0462 -226.5806 30689.7038 -297.0462 -226.5806
ENERGY: 300000 5.9567 7.3467 13.6967 0.0000 -10865.3436 1371.0136 0.0000 0.0000 1758.5590 -7708.7709 298.1126 -9467.3299 -7669.5012 299.1492 -694.8961 -640.2205 30361.1921 -379.6479 -296.3184
ENERGY: 600000 2.5469 4.5188 16.0498 0.0000 -10838.8704 1424.8061 0.0000 0.0000 1726.9989 -7663.9500 292.7625 -9390.9489 -7668.2798 298.6789 -153.3580 -136.8129 30636.7238 -63.6182 8.0733
ENERGY: 900000 4.9616 2.9333 12.9321 0.0000 -10956.2202 1450.9737 0.0000 0.0000 1743.2934 -7741.1261 295.5247 -9484.4195 -7685.8624 299.1422 33.1528 64.8672 30181.4018 -123.7612 -56.7126
ENERGY: 1200000 1.5068 4.1890 12.8477 0.0000 -10842.7289 1456.2044 0.0000 0.0000 1777.8839 -7590.0970 301.3885 -9367.9809 -7690.0536 298.3477 406.1944 418.4434 30171.7599 -34.7004 25.0557
ENERGY: 1500000 2.5234 5.2713 15.6996 0.0000 -10985.5140 1490.8568 0.0000 0.0000 1832.2350 -7638.9279 310.6022 -9471.1629 -7683.4143 299.4579 87.4388 224.5875 30528.6819 -44.3008 18.5697
TCL: Running FEP window   4: Lambda1 0.15000000000000002 Lambda2 0.2    [dLambda 0.04999999999999999]
TCL: Setting parameter firsttimestep to 0
TCL: Setting parameter alchLambda to 0.15000000000000002
Info: NONBONDED TABLE R-SQUARED SPACING: 0.0625
Info: NONBONDED TABLE SIZE: 705 POINTS
TCL: Setting parameter alchLambda2 to 0.2
Info: NONBONDED TABLE R-SQUARED SPACING: 0.0625
Info: NONBONDED TABLE SIZE: 705 POINTS
TCL: Running for 1500000 steps
ETITLE: TS BOND ANGLE DIHED IMPRP ELECT VDW BOUNDARY MISC KINETIC TOTAL TEMP POTENTIAL TOTALAVG TEMPAVG PRESSURE GPRESSURE VOLUME PRESSAVG GPRESSAVG
ENERGY: 0 2.5234 5.2713 15.6996 0.0000 -10985.5134 1491.1355 0.0000 0.0000 1831.3531 -7639.5305 310.4527 -9470.8836 -7639.5305 310.4527 146.4461 229.2473 30528.6819 146.4461 229.2473
ENERGY: 300000 2.6824 5.1136 13.6337 0.0000 -10994.7206 1511.5067 0.0000 0.0000 1696.5427 -7765.2416 287.5995 -9461.7842 -7696.4958 300.0549 239.6264 284.9583 30272.4487 -14.0763 56.4973
ENERGY: 600000 4.4074 3.3123 15.3756 0.0000 -10855.6256 1390.8073 0.0000 0.0000 1752.2688 -7689.4542 297.0462 -9441.7230 -7681.8033 300.3278 -619.9696 -491.7388 30311.5881 -23.8194 40.1350
ENERGY: 900000 7.0328 4.5645 12.8416 0.0000 -10897.3637 1394.4506 0.0000 0.0000 1764.8573 -7713.6169 299.1803 -9478.4741 -7692.3399 299.7744 -449.9353 -418.8019 30257.0058 -245.1588 -181.5899
ENERGY: 1200000 3.7353 3.6546 15.2878 0.0000 -10854.9304 1445.1202 0.0000 0.0000 1737.1247 -7650.0078 294.4790 -9387.1325 -7688.4929 299.1688 138.5789 234.7322 30223.8843 -130.5533 -69.9955
ENERGY: 1500000 2.8284 3.9751 14.9437 0.0000 -10898.8754 1404.4628 0.0000 0.0000 1809.8091 -7662.8563 306.8005 -9472.6654 -7687.7277 299.9024 -453.5147 -442.4975 30276.6234 -222.5455 -160.6411
TCL: Running FEP window   5: Lambda1 0.2    Lambda2 0.25   [dLambda 0.04999999999999999]
TCL: Setting parameter firsttimestep to 0
TCL: Setting parameter alchLambda to 0.2
Info: NONBONDED TABLE R-SQUARED SPACING: 0.0625
Info: NONBONDED TABLE SIZE: 705 POINTS
TCL: Setting parameter alchLambda2 to 0.25
Info: NONBONDED TABLE R-SQUARED SPACING: 0.0625
Info: NONBONDED TABLE SIZE: 705 POINTS
TCL: Running for 1500000 steps
ETITLE: TS BOND ANGLE DIHED IMPRP ELECT VDW BOUNDARY MISC KINETIC TOTAL TEMP POTENTIAL TOTALAVG TEMPAVG PRESSURE GPRESSURE VOLUME PRESSAVG GPRESSAVG
ENERGY: 0 2.8284 3.9751 14.9437 0.0000 -10898.8765 1404.3663 0.0000 0.0000 1808.9250 -7663.8379 306.6507 -9472.7630 -7663.8379 306.6507 -524.3450 -438.7087 30276.6234 -524.3450 -438.7087
ENERGY: 300000 3.9541 4.3318 14.6147 0.0000 -10849.8915 1392.7859 0.0000 0.0000 1820.4403 -7613.7648 308.6027 -9434.2051 -7612.0691 306.8056 -282.4404 -192.2614 30435.0359 -210.0980 -149.9893
ENERGY: 600000 5.5855 5.6908 13.0573 0.0000 -10901.7680 1420.9102 0.0000 0.0000 1783.2334 -7673.2908 302.2954 -9456.5242 -7634.8296 303.9040 -357.3118 -259.3538 30526.3598 -260.8856 -194.1134
ENERGY: 900000 5.1542 5.0436 13.2680 0.0000 -10919.5111 1419.4603 0.0000 0.0000 1814.8497 -7661.7352 307.6550 -9476.5850 -7645.8175 302.5781 -282.3481 -162.8183 30136.2475 -312.4051 -238.4499
ENERGY: 1200000 1.0250 6.1123 16.7156 0.0000 -10803.9469 1367.1263 0.0000 0.0000 1766.5596 -7646.4082 299.4688 -9412.9677 -7638.3784 302.7822 -568.3839 -480.9021 30374.8449 -218.8687 -151.1857
ENERGY: 1500000 4.9300 4.1268 14.1209 0.0000 -10825.6710 1358.3147 0.0000 0.0000 1741.5935 -7702.5850 295.2366 -9444.1785 -7642.4599 302.5291 -874.3687 -805.3567 30277.5399 -182.5883 -118.3361
TCL: Running FEP window   6: Lambda1 0.25   Lambda2 0.3    [dLambda 0.04999999999999999]
TCL: Setting parameter firsttimestep to 0
TCL: Setting parameter alchLambda to 0.25
Info: NONBONDED TABLE R-SQUARED SPACING: 0.0625
Info: NONBONDED TABLE SIZE: 705 POINTS
TCL: Setting parameter alchLambda2 to 0.3
Info: NONBONDED TABLE R-SQUARED SPACING: 0.0625
Info: NONBONDED TABLE SIZE: 705 POINTS
TCL: Running for 1500000 steps
ETITLE: TS BOND ANGLE DIHED IMPRP ELECT VDW BOUNDARY MISC KINETIC TOTAL TEMP POTENTIAL TOTALAVG TEMPAVG PRESSURE GPRESSURE VOLUME PRESSAVG GPRESSAVG
ENERGY: 0 4.9300 4.1268 14.1209 0.0000 -10825.6713 1358.2277 0.0000 0.0000 1740.6800 -7703.5859 295.0817 -9444.2658 -7703.5859 295.0817 -879.2744 -804.1752 30277.5399 -879.2744 -804.1752
ENERGY: 300000 3.2226 1.5657 14.2991 0.0000 -10863.5704 1386.5883 0.0000 0.0000 1756.9736 -7700.9210 297.8438 -9457.8946 -7676.7003 297.7191 -665.2190 -573.8637 30462.4187 -512.8875 -454.9781
ENERGY: 600000 2.1746 4.4043 13.7554 0.0000 -10765.0846 1403.1590 0.0000 0.0000 1758.0767 -7583.5147 298.0308 -9341.5914 -7674.7505 296.4203 -28.5132 21.0431 30355.9218 -358.9501 -314.2758
ENERGY: 900000 2.8080 2.4220 13.7632 0.0000 -10852.1819 1376.6297 0.0000 0.0000 1734.7388 -7721.8202 294.0745 -9456.5590 -7674.9298 296.9247 -807.9257 -747.2447 30803.4147 -265.4593 -222.6651
ENERGY: 1200000 3.7732 2.6274 15.1126 0.0000 -10883.1913 1423.6139 0.0000 0.0000 1757.4037 -7680.6605 297.9167 -9438.0642 -7678.3930 297.0670 -576.0357 -443.3191 31001.2633 -308.3123 -250.5610
ENERGY: 1500000 1.4463 3.7556 14.6709 0.0000 -10972.2427 1516.0729 0.0000 0.0000 1712.5122 -7723.7848 290.3067 -9436.2970 -7674.0181 297.4217 456.4068 581.5163 30653.4556 -204.1667 -140.7886
TCL: Running FEP window   7: Lambda1 0.3    Lambda2 0.35   [dLambda 0.04999999999999999]
TCL: Setting parameter firsttimestep to 0
TCL: Setting parameter alchLambda to 0.3
Info: NONBONDED TABLE R-SQUARED SPACING: 0.0625
Info: NONBONDED TABLE SIZE: 705 POINTS
TCL: Setting parameter alchLambda2 to 0.35
Info: NONBONDED TABLE R-SQUARED SPACING: 0.0625
Info: NONBONDED TABLE SIZE: 705 POINTS
TCL: Running for 1500000 steps
ETITLE: TS BOND ANGLE DIHED IMPRP ELECT VDW BOUNDARY MISC KINETIC TOTAL TEMP POTENTIAL TOTALAVG TEMPAVG PRESSURE GPRESSURE VOLUME PRESSAVG GPRESSAVG
ENERGY: 0 1.4463 3.7556 14.6709 0.0000 -10972.2436 1517.5419 0.0000 0.0000 1711.6618 -7723.1670 290.1625 -9434.8288 -7723.1670 290.1625 516.3237 596.3392 30653.4556 516.3237 596.3392
ENERGY: 300000 2.0718 3.0567 15.0981 0.0000 -10742.7188 1362.6397 0.0000 0.0000 1747.2328 -7612.6198 296.1925 -9359.8526 -7652.2401 298.7656 -690.0454 -589.8530 30573.6495 21.3546 106.5866
ENERGY: 600000 1.4941 3.1063 13.9203 0.0000 -11036.4634 1487.1606 0.0000 0.0000 1801.9577 -7728.8244 305.4695 -9530.7821 -7667.7201 298.8811 283.7642 319.2862 30069.6673 -50.8517 11.9314
ENERGY: 900000 2.3680 2.7171 15.1621 0.0000 -11163.4433 1605.6074 0.0000 0.0000 1805.8165 -7731.7722 306.1237 -9537.5888 -7673.5022 300.6149 801.8919 876.7271 30501.6212 61.4122 128.4714
ENERGY: 1200000 2.5430 1.1838 15.2452 0.0000 -10860.2928 1379.0013 0.0000 0.0000 1721.8370 -7740.4826 291.8874 -9462.3196 -7670.3645 301.2341 -580.3208 -484.7204 30337.3260 -15.0401 50.7448
ENERGY: 1500000 2.3436 3.1086 14.7542 0.0000 -10918.8029 1437.2590 0.0000 0.0000 1820.0323 -7641.3053 308.5336 -9461.3376 -7670.0619 301.6755 -153.9713 -64.9877 30607.6096 -6.6686 57.4975
TCL: Running FEP window   8: Lambda1 0.35   Lambda2 0.39999999999999997 [dLambda 0.04999999999999999]
TCL: Setting parameter firsttimestep to 0
TCL: Setting parameter alchLambda to 0.35
Info: NONBONDED TABLE R-SQUARED SPACING: 0.0625
Info: NONBONDED TABLE SIZE: 705 POINTS
TCL: Setting parameter alchLambda2 to 0.39999999999999997
Info: NONBONDED TABLE R-SQUARED SPACING: 0.0625
Info: NONBONDED TABLE SIZE: 705 POINTS
TCL: Running for 1500000 steps
ETITLE: TS BOND ANGLE DIHED IMPRP ELECT VDW BOUNDARY MISC KINETIC TOTAL TEMP POTENTIAL TOTALAVG TEMPAVG PRESSURE GPRESSURE VOLUME PRESSAVG GPRESSAVG
ENERGY: 0 2.3436 3.1086 14.7542 0.0000 -10918.8034 1437.0788 0.0000 0.0000 1819.1524 -7642.3659 308.3844 -9461.5183 -7642.3659 308.3844 -139.5728 -58.2214 30607.6096 -139.5728 -58.2214
ENERGY: 300000 8.3598 3.2225 14.9252 0.0000 -10924.1182 1491.1700 0.0000 0.0000 1723.0640 -7683.3768 292.0954 -9406.4408 -7660.9906 302.2110 559.6222 621.8062 30345.9758 -182.4994 -108.5023
ENERGY: 600000 2.1849 3.6115 14.4971 0.0000 -10927.9298 1467.5757 0.0000 0.0000 1803.2495 -7636.8112 305.6885 -9440.0607 -7645.5908 302.8862 325.1506 403.5069 30032.3941 -56.3814 3.8324
ENERGY: 900000 2.0304 2.5474 14.2691 0.0000 -10938.3000 1441.5585 0.0000 0.0000 1782.3610 -7695.5336 302.1475 -9477.8945 -7654.7377 302.3476 -22.3902 24.8726 30099.4757 27.1024 94.9350
ENERGY: 1200000 8.7650 5.4260 13.1769 0.0000 -10904.5176 1441.0587 0.0000 0.0000 1775.5995 -7660.4916 301.0013 -9436.0911 -7652.4697 302.9175 5.6668 108.4732 30209.3092 -20.6184 49.4219
ENERGY: 1500000 1.7516 4.9044 14.2176 0.0000 -10964.7303 1452.4565 0.0000 0.0000 1699.6519 -7791.7483 288.1266 -9491.4002 -7657.2373 301.7936 -342.6595 -294.0156 30761.8429 -49.2559 22.1667
TCL: Running FEP window   9: Lambda1 0.39999999999999997 Lambda2 0.44999999999999996 [dLambda 0.04999999999999999]
TCL: Setting parameter firsttimestep to 0
TCL: Setting parameter alchLambda to 0.39999999999999997
Info: NONBONDED TABLE R-SQUARED SPACING: 0.0625
Info: NONBONDED TABLE SIZE: 705 POINTS
TCL: Setting parameter alchLambda2 to 0.44999999999999996
Info: NONBONDED TABLE R-SQUARED SPACING: 0.0625
Info: NONBONDED TABLE SIZE: 705 POINTS
TCL: Running for 1500000 steps
ETITLE: TS BOND ANGLE DIHED IMPRP ELECT VDW BOUNDARY MISC KINETIC TOTAL TEMP POTENTIAL TOTALAVG TEMPAVG PRESSURE GPRESSURE VOLUME PRESSAVG GPRESSAVG
ENERGY: 0 1.7516 4.9044 14.2176 0.0000 -10964.7295 1452.4262 0.0000 0.0000 1698.7801 -7792.6496 287.9788 -9491.4298 -7792.6496 287.9788 -362.7919 -287.7285 30761.8429 -362.7919 -287.7285
ENERGY: 300000 3.4779 5.5750 16.3211 0.0000 -10865.9588 1436.0640 0.0000 0.0000 1781.0058 -7623.5149 301.9178 -9404.5207 -7678.1654 294.9239 -39.9379 12.3462 30275.1855 -307.1846 -273.2778
ENERGY: 600000 4.6900 3.8275 13.4988 0.0000 -10920.3592 1452.0377 0.0000 0.0000 1861.2997 -7585.0055 315.5293 -9446.3052 -7666.7564 299.1754 18.5632 80.4654 30465.2780 -210.6093 -145.8912
ENERGY: 900000 3.8235 2.6275 16.4621 0.0000 -10808.4977 1388.2967 0.0000 0.0000 1833.7032 -7563.5846 310.8511 -9397.2878 -7649.3986 302.5567 -325.8646 -254.6599 30638.0159 -141.1366 -76.3059
ENERGY: 1200000 1.5639 2.8833 14.0929 0.0000 -10894.2530 1457.4412 0.0000 0.0000 1726.7648 -7691.5070 292.7228 -9418.2717 -7650.8474 300.9974 -158.8201 -108.7362 31038.9655 -173.5631 -108.9392
ENERGY: 1500000 2.5819 3.0116 15.4360 0.0000 -10830.7339 1400.9594 0.0000 0.0000 1763.1092 -7645.6359 298.8839 -9408.7451 -7653.1516 301.2190 -662.7547 -607.0606 31150.0853 -185.3380 -122.2394
TCL: Running FEP window  10: Lambda1 0.44999999999999996 Lambda2 0.49999999999999994 [dLambda 0.04999999999999999]
TCL: Setting parameter firsttimestep to 0
TCL: Setting parameter alchLambda to 0.44999999999999996
Info: NONBONDED TABLE R-SQUARED SPACING: 0.0625
Info: NONBONDED TABLE SIZE: 705 POINTS
TCL: Setting parameter alchLambda2 to 0.49999999999999994
Info: NONBONDED TABLE R-SQUARED SPACING: 0.0625
Info: NONBONDED TABLE SIZE: 705 POINTS
TCL: Running for 1500000 steps
ETITLE: TS BOND ANGLE DIHED IMPRP ELECT VDW BOUNDARY MISC KINETIC TOTAL TEMP POTENTIAL TOTALAVG TEMPAVG PRESSURE GPRESSURE VOLUME PRESSAVG GPRESSAVG
ENERGY: 0 2.5819 3.0116 15.4360 0.0000 -10830.7341 1400.7939 0.0000 0.0000 1762.2649 -7646.6458 298.7408 -9408.9107 -7646.6458 298.7408 -693.9852 -599.2278 31150.0853 -693.9852 -599.2278
ENERGY: 300000 5.4935 2.7938 14.3841 0.0000 -10951.8626 1507.7514 0.0000 0.0000 1780.1308 -7641.3090 301.7694 -9421.4398 -7668.4246 299.7309 193.7261 261.3099 30800.8363 65.8827 142.8175
ENERGY: 600000 5.5787 2.1114 14.4003 0.0000 -10820.6168 1463.9269 0.0000 0.0000 1771.5348 -7563.0646 300.3122 -9334.5994 -7651.3446 299.2016 217.9863 313.9361 31064.1110 -111.0983 -28.4965
ENERGY: 900000 2.5228 1.6269 13.2437 0.0000 -10999.9974 1516.0850 0.0000 0.0000 1740.6490 -7725.8700 295.0764 -9466.5190 -7662.0938 298.3093 454.3073 531.9493 30343.4358 -83.7827 -12.7661
ENERGY: 1200000 2.2324 6.2809 13.5582 0.0000 -10860.6251 1363.7509 0.0000 0.0000 1806.8478 -7667.9550 306.2985 -9474.8028 -7651.0720 299.7194 -841.2606 -764.9871 30514.2477 -168.3712 -101.4776
ENERGY: 1500000 3.6916 5.1375 14.9942 0.0000 -11031.6293 1521.9667 0.0000 0.0000 1785.0285 -7700.8107 302.5997 -9485.8393 -7655.6118 300.3967 149.4332 226.5543 30880.0377 -196.4727 -122.8007
TCL: Running FEP window  11: Lambda1 0.49999999999999994 Lambda2 0.5499999999999999 [dLambda 0.04999999999999999]
TCL: Setting parameter firsttimestep to 0
TCL: Setting parameter alchLambda to 0.49999999999999994
Info: NONBONDED TABLE R-SQUARED SPACING: 0.0625
Info: NONBONDED TABLE SIZE: 705 POINTS
TCL: Setting parameter alchLambda2 to 0.5499999999999999
Info: NONBONDED TABLE R-SQUARED SPACING: 0.0625
Info: NONBONDED TABLE SIZE: 705 POINTS
TCL: Running for 1500000 steps
ETITLE: TS BOND ANGLE DIHED IMPRP ELECT VDW BOUNDARY MISC KINETIC TOTAL TEMP POTENTIAL TOTALAVG TEMPAVG PRESSURE GPRESSURE VOLUME PRESSAVG GPRESSAVG
ENERGY: 0 3.6916 5.1375 14.9942 0.0000 -11031.6296 1521.1507 0.0000 0.0000 1784.1522 -7702.5033 302.4511 -9486.6555 -7702.5033 302.4511 156.8935 225.8681 30880.0377 156.8935 225.8681
ENERGY: 300000 5.2242 2.7441 17.3191 0.0000 -10778.7086 1442.7930 0.0000 0.0000 1815.9355 -7494.6927 307.8391 -9310.6282 -7626.8059 303.6485 51.4410 142.7603 31169.0034 164.1997 225.2293
ENERGY: 600000 2.5611 3.9172 18.4283 0.0000 -10834.7497 1390.8224 0.0000 0.0000 1798.9061 -7620.1146 304.9522 -9419.0207 -7631.0573 303.6857 -563.2252 -512.6403 30797.2584 119.9374 178.8676
ENERGY: 900000 3.7272 6.9357 15.7799 0.0000 -10963.6342 1506.3276 0.0000 0.0000 1759.9643 -7670.8995 298.3508 -9430.8637 -7648.4420 301.7118 699.1207 798.6267 30216.8566 277.8463 336.7024
ENERGY: 1200000 3.7191 3.3650 13.4878 0.0000 -10967.0000 1486.4943 0.0000 0.0000 1821.8157 -7638.1181 308.8359 -9459.9338 -7645.1803 302.7920 409.4279 497.9709 30222.0653 262.2523 327.6638
ENERGY: 1500000 2.5810 6.6880 14.0835 0.0000 -10948.8070 1500.0467 0.0000 0.0000 1733.6965 -7691.7112 293.8978 -9425.4077 -7651.5997 302.4856 558.2606 642.2833 30422.9283 236.0346 300.1266
TCL: Running FEP window  12: Lambda1 0.5499999999999999 Lambda2 0.6    [dLambda 0.050000000000000044]
TCL: Setting parameter firsttimestep to 0
TCL: Setting parameter alchLambda to 0.5499999999999999
Info: NONBONDED TABLE R-SQUARED SPACING: 0.0625
Info: NONBONDED TABLE SIZE: 705 POINTS
TCL: Setting parameter alchLambda2 to 0.6
Info: NONBONDED TABLE R-SQUARED SPACING: 0.0625
Info: NONBONDED TABLE SIZE: 705 POINTS
TCL: Running for 1500000 steps
ETITLE: TS BOND ANGLE DIHED IMPRP ELECT VDW BOUNDARY MISC KINETIC TOTAL TEMP POTENTIAL TOTALAVG TEMPAVG PRESSURE GPRESSURE VOLUME PRESSAVG GPRESSAVG
ENERGY: 0 2.5810 6.6880 14.0835 0.0000 -10948.7292 1499.6515 0.0000 0.0000 1732.8016 -7692.9234 293.7461 -9425.7250 -7692.9234 293.7461 570.1328 649.4908 30422.9283 570.1328 649.4908
ENERGY: 300000 1.9462 2.9726 13.7898 0.0000 -10836.1660 1426.0819 0.0000 0.0000 1753.0119 -7638.3635 297.1722 -9391.3754 -7678.2590 296.0787 -12.1246 86.3675 30469.3725 295.6773 374.6282
ENERGY: 600000 4.4724 4.8237 16.0510 0.0000 -11009.9024 1489.5926 0.0000 0.0000 1771.1189 -7723.8438 300.2417 -9494.9627 -7692.4855 296.3398 322.9223 359.2457 30183.2417 289.9042 350.4901
ENERGY: 900000 5.9684 5.1608 13.1412 0.0000 -10784.1911 1363.4678 0.0000 0.0000 1779.8077 -7616.6452 301.7147 -9396.4529 -7688.0363 296.7127 -430.8480 -310.3776 30234.8686 28.3140 100.6508
ENERGY: 1200000 3.3861 5.0258 13.6705 0.0000 -10778.8983 1392.4018 0.0000 0.0000 1765.0641 -7599.3500 299.2153 -9364.4142 -7681.7876 297.7991 -402.3787 -340.6575 30624.8142 9.7947 75.0303
ENERGY: 1500000 4.2583 7.5544 18.9765 0.0000 -10903.8083 1448.2785 0.0000 0.0000 1656.2336 -7768.5070 280.7663 -9424.7406 -7683.9679 298.1981 198.2919 221.1327 30104.7446 72.6969 128.9812
TCL: Running FEP window  13: Lambda1 0.6    Lambda2 0.65   [dLambda 0.050000000000000044]
TCL: Setting parameter firsttimestep to 0
TCL: Setting parameter alchLambda to 0.6
Info: NONBONDED TABLE R-SQUARED SPACING: 0.0625
Info: NONBONDED TABLE SIZE: 705 POINTS
TCL: Setting parameter alchLambda2 to 0.65
Info: NONBONDED TABLE R-SQUARED SPACING: 0.0625
Info: NONBONDED TABLE SIZE: 705 POINTS
TCL: Running for 1500000 steps
ETITLE: TS BOND ANGLE DIHED IMPRP ELECT VDW BOUNDARY MISC KINETIC TOTAL TEMP POTENTIAL TOTALAVG TEMPAVG PRESSURE GPRESSURE VOLUME PRESSAVG GPRESSAVG
ENERGY: 0 4.2583 7.5544 18.9765 0.0000 -10906.4466 1448.2821 0.0000 0.0000 1655.3734 -7772.0019 280.6204 -9427.3752 -7772.0019 280.6204 150.0402 227.0108 30104.7446 150.0402 227.0108
ENERGY: 300000 4.9445 3.0041 14.4357 0.0000 -11098.9363 1564.1000 0.0000 0.0000 1855.2796 -7657.1724 314.5087 -9512.4520 -7697.5720 297.4739 967.8340 1070.1188 30121.9561 -189.3557 -129.4665
ENERGY: 600000 2.5366 7.3896 15.9589 0.0000 -10951.6190 1474.9925 0.0000 0.0000 1826.6818 -7624.0595 309.6608 -9450.7413 -7685.6014 299.8649 463.1788 592.3465 30129.6014 -185.4260 -140.3533
ENERGY: 900000 4.6567 1.9433 15.3915 0.0000 -10745.7993 1311.5517 0.0000 0.0000 1770.6208 -7641.6354 300.1573 -9412.2562 -7683.9280 300.2150 -1227.3973 -1190.2610 31302.3638 -153.8344 -115.3530
ENERGY: 1200000 5.7935 3.1358 13.8687 0.0000 -10967.1927 1491.5031 0.0000 0.0000 1748.4687 -7704.4230 296.4020 -9452.8916 -7679.8530 299.9986 118.1560 214.1669 30479.3021 -119.5721 -69.6028
ENERGY: 1500000 2.9827 4.1198 14.8066 0.0000 -10791.3997 1418.3670 0.0000 0.0000 1728.6165 -7622.5070 293.0367 -9351.1236 -7668.4189 300.0305 -229.3169 -212.8359 30965.9898 -124.0175 -74.8744
TCL: Running FEP window  14: Lambda1 0.65   Lambda2 0.7000000000000001 [dLambda 0.050000000000000044]
TCL: Setting parameter firsttimestep to 0
TCL: Setting parameter alchLambda to 0.65
Info: NONBONDED TABLE R-SQUARED SPACING: 0.0625
Info: NONBONDED TABLE SIZE: 705 POINTS
TCL: Setting parameter alchLambda2 to 0.7000000000000001
Info: NONBONDED TABLE R-SQUARED SPACING: 0.0625
Info: NONBONDED TABLE SIZE: 705 POINTS
TCL: Running for 1500000 steps
ETITLE: TS BOND ANGLE DIHED IMPRP ELECT VDW BOUNDARY MISC KINETIC TOTAL TEMP POTENTIAL TOTALAVG TEMPAVG PRESSURE GPRESSURE VOLUME PRESSAVG GPRESSAVG
ENERGY: 0 2.9827 4.1198 14.8066 0.0000 -10792.5191 1418.3030 0.0000 0.0000 1727.7605 -7624.5464 292.8916 -9352.3069 -7624.5464 292.8916 -287.9002 -207.7074 30965.9898 -287.9002 -207.7074
ENERGY: 300000 3.9127 4.6824 14.9739 0.0000 -10920.1350 1498.7253 0.0000 0.0000 1747.8604 -7649.9803 296.2989 -9397.8407 -7611.1838 300.0456 452.3058 565.6800 30269.9184 -184.5256 -91.3283
ENERGY: 600000 5.4071 3.6996 13.6405 0.0000 -10787.3978 1340.0782 0.0000 0.0000 1756.8832 -7667.6892 297.8285 -9424.5724 -7647.2311 300.4368 -1156.0693 -1042.4153 30987.8395 -468.5086 -370.6730
ENERGY: 900000 6.0688 3.8514 14.4453 0.0000 -10739.8703 1301.8308 0.0000 0.0000 1754.0249 -7659.6491 297.3439 -9413.6740 -7634.5887 302.0075 -1154.9266 -1024.0545 31153.1207 -459.1942 -361.3027
ENERGY: 1200000 3.4801 3.9916 13.5485 0.0000 -10936.3735 1456.2365 0.0000 0.0000 1763.7916 -7695.3252 298.9996 -9459.1168 -7648.3597 301.0123 -14.4715 19.0955 30523.5101 -328.0749 -240.0098
ENERGY: 1500000 1.4071 1.6025 15.3743 0.0000 -10842.8905 1376.2007 0.0000 0.0000 1750.8266 -7697.4793 296.8018 -9448.3059 -7655.4294 300.5381 -655.3627 -621.3443 30987.7743 -268.8705 -188.9881
TCL: Running FEP window  15: Lambda1 0.7000000000000001 Lambda2 0.7500000000000001 [dLambda 0.050000000000000044]
TCL: Setting parameter firsttimestep to 0
TCL: Setting parameter alchLambda to 0.7000000000000001
Info: NONBONDED TABLE R-SQUARED SPACING: 0.0625
Info: NONBONDED TABLE SIZE: 705 POINTS
TCL: Setting parameter alchLambda2 to 0.7500000000000001
Info: NONBONDED TABLE R-SQUARED SPACING: 0.0625
Info: NONBONDED TABLE SIZE: 705 POINTS
TCL: Running for 1500000 steps
ETITLE: TS BOND ANGLE DIHED IMPRP ELECT VDW BOUNDARY MISC KINETIC TOTAL TEMP POTENTIAL TOTALAVG TEMPAVG PRESSURE GPRESSURE VOLUME PRESSAVG GPRESSAVG
ENERGY: 0 1.4071 1.6025 15.3743 0.0000 -10844.6110 1376.6436 0.0000 0.0000 1749.9359 -7699.6476 296.6508 -9449.5835 -7699.6476 296.6508 -687.3610 -611.1463 30987.7743 -687.3610 -611.1463
ENERGY: 300000 2.4056 7.2389 13.0289 0.0000 -10853.4221 1405.1776 0.0000 0.0000 1775.7416 -7649.8294 301.0254 -9425.5711 -7635.1816 301.5426 -474.3035 -447.1231 30820.6267 -650.0305 -585.2094
ENERGY: 600000 2.6991 4.2546 14.0440 0.0000 -10992.8946 1449.1225 0.0000 0.0000 1752.0616 -7770.7129 297.0111 -9522.7744 -7664.6340 299.9649 -185.7472 -115.0764 30439.6466 -526.8040 -451.6646
ENERGY: 900000 5.7142 3.1219 13.6362 0.0000 -10932.0870 1502.5946 0.0000 0.0000 1781.1958 -7625.8244 301.9500 -9407.0202 -7659.1843 299.2991 622.8522 770.2320 30447.4885 -328.1974 -238.2304
ENERGY: 1200000 3.1225 5.5238 15.1799 0.0000 -10778.5912 1337.8402 0.0000 0.0000 1760.5229 -7656.4019 298.4455 -9416.9248 -7672.4452 299.2405 -758.7168 -700.4250 30749.7240 -393.7216 -316.2519
ENERGY: 1500000 2.4160 4.2009 14.1516 0.0000 -10996.6381 1536.7466 0.0000 0.0000 1852.0070 -7587.1160 313.9539 -9439.1230 -7669.1113 300.8196 744.9634 798.9479 30482.2358 -297.9811 -216.3533
TCL: Running FEP window  16: Lambda1 0.7500000000000001 Lambda2 0.8000000000000002 [dLambda 0.050000000000000044]
TCL: Setting parameter firsttimestep to 0
TCL: Setting parameter alchLambda to 0.7500000000000001
Info: NONBONDED TABLE R-SQUARED SPACING: 0.0625
Info: NONBONDED TABLE SIZE: 705 POINTS
TCL: Setting parameter alchLambda2 to 0.8000000000000002
Info: NONBONDED TABLE R-SQUARED SPACING: 0.0625
Info: NONBONDED TABLE SIZE: 705 POINTS
TCL: Running for 1500000 steps
ETITLE: TS BOND ANGLE DIHED IMPRP ELECT VDW BOUNDARY MISC KINETIC TOTAL TEMP POTENTIAL TOTALAVG TEMPAVG PRESSURE GPRESSURE VOLUME PRESSAVG GPRESSAVG
ENERGY: 0 2.4160 4.2009 14.1516 0.0000 -10998.6807 1536.6116 0.0000 0.0000 1851.1394 -7590.1612 313.8069 -9441.3006 -7590.1612 313.8069 712.8031 803.0990 30482.2358 712.8031 803.0990
ENERGY: 300000 4.7455 3.2448 15.7588 0.0000 -10833.9034 1440.2077 0.0000 0.0000 1756.7992 -7613.1474 297.8142 -9369.9466 -7643.8778 302.5273 176.9570 271.9085 30335.4539 247.7032 297.8322
ENERGY: 600000 2.8340 2.9001 14.1415 0.0000 -11082.8077 1542.6220 0.0000 0.0000 1765.7972 -7754.5128 299.3396 -9520.3101 -7665.7764 301.7762 634.0790 662.9754 30316.9853 204.3479 267.1867
ENERGY: 900000 2.8108 3.3159 13.1534 0.0000 -11015.2199 1515.6466 0.0000 0.0000 1717.0240 -7763.2691 291.0715 -9480.2931 -7672.4733 300.0318 308.8872 396.4147 30415.7146 83.5609 152.1018
ENERGY: 1200000 1.3774 4.8162 13.5432 0.0000 -10787.1214 1349.8654 0.0000 0.0000 1806.5236 -7610.9957 306.2436 -9417.5192 -7659.7400 300.8962 -506.3735 -418.8459 30346.9853 148.2244 207.0170
ENERGY: 1500000 5.9301 5.1881 14.3087 0.0000 -11006.0490 1517.3442 0.0000 0.0000 1766.5825 -7696.6954 299.4727 -9463.2780 -7670.4690 300.1430 520.7900 595.7358 30577.7161 161.4833 221.3218
TCL: Running FEP window  17: Lambda1 0.8000000000000002 Lambda2 0.8500000000000002 [dLambda 0.050000000000000044]
TCL: Setting parameter firsttimestep to 0
TCL: Setting parameter alchLambda to 0.8000000000000002
Info: NONBONDED TABLE R-SQUARED SPACING: 0.0625
Info: NONBONDED TABLE SIZE: 705 POINTS
TCL: Setting parameter alchLambda2 to 0.8500000000000002
Info: NONBONDED TABLE R-SQUARED SPACING: 0.0625
Info: NONBONDED TABLE SIZE: 705 POINTS
TCL: Running for 1500000 steps
ETITLE: TS BOND ANGLE DIHED IMPRP ELECT VDW BOUNDARY MISC KINETIC TOTAL TEMP POTENTIAL TOTALAVG TEMPAVG PRESSURE GPRESSURE VOLUME PRESSAVG GPRESSAVG
ENERGY: 0 5.9301 5.1881 14.3087 0.0000 -11010.4384 1518.6741 0.0000 0.0000 1765.7042 -7700.6333 299.3238 -9466.3375 -7700.6333 299.3238 525.4107 612.2344 30577.7161 525.4107 612.2344
ENERGY: 300000 3.3890 1.6204 14.6831 0.0000 -10852.6119 1379.0013 0.0000 0.0000 1760.7814 -7693.1368 298.4893 -9453.9181 -7668.5059 299.8504 -606.0467 -531.1163 30936.8166 -265.4735 -198.6362
ENERGY: 600000 4.9056 2.9577 13.3529 0.0000 -10803.4772 1393.0241 0.0000 0.0000 1798.0775 -7591.1594 304.8118 -9389.2369 -7657.2239 301.3729 -117.8188 -89.8000 30301.7109 -144.9478 -87.5936
ENERGY: 900000 3.3509 3.5671 14.5914 0.0000 -10670.9676 1367.4923 0.0000 0.0000 1800.5348 -7481.4310 305.2283 -9281.9658 -7641.1618 300.0202 -26.2628 67.2039 30813.5243 1.7793 60.3731
ENERGY: 1200000 2.8822 3.8153 18.6203 0.0000 -10869.9223 1445.2794 0.0000 0.0000 1744.6702 -7654.6551 295.7581 -9399.3252 -7644.8651 300.6435 -26.5881 48.9440 30519.5487 -13.5378 45.3441
ENERGY: 1500000 4.3648 1.1946 14.4626 0.0000 -10744.3952 1375.9051 0.0000 0.0000 1742.6515 -7605.8167 295.4159 -9348.4682 -7650.6353 300.6367 -182.0708 -126.4741 30569.4639 -31.0520 21.8682
TCL: Running FEP window  18: Lambda1 0.8500000000000002 Lambda2 0.9000000000000002 [dLambda 0.050000000000000044]
TCL: Setting parameter firsttimestep to 0
TCL: Setting parameter alchLambda to 0.8500000000000002
Info: NONBONDED TABLE R-SQUARED SPACING: 0.0625
Info: NONBONDED TABLE SIZE: 705 POINTS
TCL: Setting parameter alchLambda2 to 0.9000000000000002
Info: NONBONDED TABLE R-SQUARED SPACING: 0.0625
Info: NONBONDED TABLE SIZE: 705 POINTS
TCL: Running for 1500000 steps
ETITLE: TS BOND ANGLE DIHED IMPRP ELECT VDW BOUNDARY MISC KINETIC TOTAL TEMP POTENTIAL TOTALAVG TEMPAVG PRESSURE GPRESSURE VOLUME PRESSAVG GPRESSAVG
ENERGY: 0 4.3648 1.1946 14.4626 0.0000 -10746.6294 1375.9130 0.0000 0.0000 1741.7926 -7608.9019 295.2703 -9350.6944 -7608.9019 295.2703 -203.4883 -116.9072 30569.4639 -203.4883 -116.9072
ENERGY: 300000 4.8029 7.5690 13.6227 0.0000 -10819.2325 1405.6756 0.0000 0.0000 1729.7889 -7657.7734 293.2354 -9387.5623 -7643.0398 298.1983 -157.6543 -45.9913 30893.0642 12.6369 79.4791
ENERGY: 600000 4.7166 4.8402 13.7048 0.0000 -11094.3692 1552.4708 0.0000 0.0000 1764.3540 -7754.2829 299.0949 -9518.6369 -7658.0990 298.5133 761.2256 830.8924 30412.7975 143.6746 202.3016
ENERGY: 900000 6.1375 5.2532 14.8952 0.0000 -10738.8538 1370.0144 0.0000 0.0000 1747.1198 -7595.4335 296.1734 -9342.5534 -7661.3136 297.6971 -491.9698 -433.0392 30644.7943 148.6213 210.7308
ENERGY: 1200000 5.5199 4.2276 15.2746 0.0000 -10891.4737 1410.8026 0.0000 0.0000 1711.9128 -7743.7361 290.2051 -9455.6490 -7672.9239 297.0075 25.8471 88.0023 30282.8609 22.3940 87.0606
ENERGY: 1500000 2.4144 4.5881 13.6631 0.0000 -11189.8259 1634.2969 0.0000 0.0000 1763.3486 -7771.5148 298.9245 -9534.8634 -7671.8792 298.2347 1582.9988 1687.1339 29905.9926 241.9027 313.2681
TCL: Running FEP window  19: Lambda1 0.9000000000000002 Lambda2 0.9500000000000003 [dLambda 0.050000000000000044]
TCL: Setting parameter firsttimestep to 0
TCL: Setting parameter alchLambda to 0.9000000000000002
Info: NONBONDED TABLE R-SQUARED SPACING: 0.0625
Info: NONBONDED TABLE SIZE: 705 POINTS
TCL: Setting parameter alchLambda2 to 0.9500000000000003
Info: NONBONDED TABLE R-SQUARED SPACING: 0.0625
Info: NONBONDED TABLE SIZE: 705 POINTS
TCL: Running for 1500000 steps
ETITLE: TS BOND ANGLE DIHED IMPRP ELECT VDW BOUNDARY MISC KINETIC TOTAL TEMP POTENTIAL TOTALAVG TEMPAVG PRESSURE GPRESSURE VOLUME PRESSAVG GPRESSAVG
ENERGY: 0 2.4144 4.5881 13.6631 0.0000 -11193.7569 1634.9294 0.0000 0.0000 1762.4797 -7775.6822 298.7772 -9538.1619 -7775.6822 298.7772 1620.0080 1700.5303 29905.9926 1620.0080 1700.5303
ENERGY: 300000 3.2997 5.1917 14.3165 0.0000 -10938.3514 1431.9772 0.0000 0.0000 1799.1812 -7684.3851 304.9989 -9483.5662 -7706.7542 301.2544 -150.4593 -102.9511 30576.2748 263.4569 331.7749
ENERGY: 600000 4.5323 3.6669 15.6547 0.0000 -10889.8545 1405.6974 0.0000 0.0000 1775.6277 -7684.6755 301.0061 -9460.3032 -7700.3453 298.6180 -163.9826 -130.9686 30644.3346 16.4506 90.6493
ENERGY: 900000 2.0927 3.5038 16.3297 0.0000 -10838.3365 1371.8874 0.0000 0.0000 1839.2658 -7605.2571 311.7941 -9444.5229 -7695.6150 299.6807 -495.3079 -458.5241 30527.2577 45.3559 114.9236
ENERGY: 1200000 5.0792 2.6639 15.1543 0.0000 -10835.5099 1411.7721 0.0000 0.0000 1786.2168 -7614.6235 302.8011 -9400.8403 -7694.7344 299.7753 -156.1750 -97.8950 30417.1732 64.3990 129.9829
ENERGY: 1500000 4.8655 1.9969 14.6211 0.0000 -11004.2037 1515.4036 0.0000 0.0000 1776.7327 -7690.5839 301.1934 -9467.3166 -7688.9801 299.7592 575.1155 625.1906 30466.6890 139.7501 204.8575
TCL: Running FEP window  20: Lambda1 0.9500000000000003 Lambda2 1.0    [dLambda 0.04999999999999971]
TCL: Setting parameter firsttimestep to 0
TCL: Setting parameter alchLambda to 0.9500000000000003
Info: NONBONDED TABLE R-SQUARED SPACING: 0.0625
Info: NONBONDED TABLE SIZE: 705 POINTS
TCL: Setting parameter alchLambda2 to 1.0
Info: NONBONDED TABLE R-SQUARED SPACING: 0.0625
Info: NONBONDED TABLE SIZE: 705 POINTS
TCL: Running for 1500000 steps
ETITLE: TS BOND ANGLE DIHED IMPRP ELECT VDW BOUNDARY MISC KINETIC TOTAL TEMP POTENTIAL TOTALAVG TEMPAVG PRESSURE GPRESSURE VOLUME PRESSAVG GPRESSAVG
ENERGY: 0 4.8655 1.9969 14.6211 0.0000 -11008.0523 1516.3995 0.0000 0.0000 1775.8780 -7694.2914 301.0485 -9470.1693 -7694.2914 301.0485 567.5342 646.5923 30466.6890 567.5342 646.5923
ENERGY: 300000 4.0020 1.8660 16.3429 0.0000 -10843.4402 1396.9703 0.0000 0.0000 1775.4113 -7648.8478 300.9694 -9424.2591 -7691.1513 299.4933 171.3091 214.3791 30146.5653 220.5079 245.7398
ENERGY: 600000 4.2442 5.2149 15.2625 0.0000 -10960.2228 1478.7053 0.0000 0.0000 1836.3995 -7620.3964 311.3082 -9456.7960 -7683.7726 300.1023 473.3202 514.8497 30550.7892 151.1887 195.3759
ENERGY: 900000 2.4763 5.0836 14.1631 0.0000 -10911.7970 1459.7612 0.0000 0.0000 1831.5640 -7598.7487 310.4884 -9430.3128 -7675.6599 301.4254 313.5999 417.3931 30641.8647 227.4062 280.9649
ENERGY: 1200000 5.4335 3.2781 16.2062 0.0000 -10962.6560 1470.6763 0.0000 0.0000 1830.3691 -7636.6928 310.2859 -9467.0620 -7672.6468 301.6789 284.1260 316.0568 30339.7263 227.4729 273.9300
ENERGY: 1500000 3.6965 2.2724 15.3785 0.0000 -11052.2731 1521.9397 0.0000 0.0000 1707.7642 -7801.2217 289.5018 -9508.9859 -7686.2462 300.8142 511.9943 516.7843 30365.4961 179.6225 222.6967
TCL: Exiting due to exit command.
