Info: SIMULATION PARAMETERS:
Info: TIMESTEP               2
Info: NUMBER OF STEPS        0
Info: STEPS PER CYCLE        10
Info: PERIODIC CELL BASIS 1  30.9927 0 0
Info: PERIODIC CELL BASIS 2  0 29.5868 0
Info: PERIODIC CELL BASIS 3  0 0 32.5084
Info: PERIODIC CELL CENTER   0 0 0
Info: WRAPPING WATERS AROUND PERIODIC BOUNDARIES ON OUTPUT.
Info: WRAPPING ALL CLUSTERS AROUND PERIODIC BOUNDARIES ON OUTPUT.
Info: FIRST LDB TIMESTEP     50
Info: LAST LDB TIMESTEP     -1
Info: HOM BACKGROUND SCALING 1
Info: PME BACKGROUND SCALING 1
Info: MIN ATOMS PER PATCH    40
Info: EMPTY PATCH LOAD       40 ATOMS
Info: VELOCITY FILE          mobley_3183805_equil.vel
Info: CENTER OF MASS MOVING INITIALLY? NO
Info: DIELECTRIC             1
Info: EXCLUDE                SCALED ONE-FOUR
Info: 1-4 ELECTROSTATICS SCALED BY 0.833333
Info: MODIFIED 1-4 VDW PARAMETERS WILL BE USED
Info: DCD FILENAME           mobley_3183805_prod.dcd
Info: DCD FREQUENCY          100000
Info: DCD FIRST STEP         100000
Info: DCD FILE WILL CONTAIN UNIT CELL DATA
Info: XST FILENAME           mobley_3183805_prod.xst
Info: XST FREQUENCY          100000
Info: NO VELOCITY DCD OUTPUT
Info: NO FORCE DCD OUTPUT
Info: OUTPUT FILENAME        mobley_3183805_prod
Info: BINARY OUTPUT FILES WILL BE USED
Info: RESTART FILENAME       mobley_3183805_prod.restart
Info: RESTART FREQUENCY      100000
Info: BINARY RESTART FILES WILL BE USED
Info: CUTOFF                 9
Info: PAIRLIST DISTANCE      11
Info: PAIRLIST SHRINK RATE   0.01
Info: PAIRLIST GROW RATE     0.01
Info: PAIRLIST TRIGGER       0.3
Info: PAIRLISTS PER CYCLE    2
Info: PAIRLISTS ENABLED
Info: MARGIN                 2
Info: HYDROGEN GROUP CUTOFF  2.5
Info: PATCH DIMENSION        15.5
Info: ENERGY OUTPUT STEPS    100000
Info: ENERGY EVALUATION STEPS    100000
Info: OUTPUT ENERGY PRECISION 4
Info: CROSSTERM ENERGY INCLUDED IN DIHEDRAL
Info: TIMING OUTPUT STEPS    1000000
Info: PRESSURE OUTPUT STEPS  100000
Info: ALCHEMICAL FEP ON
Info: FEP CURRENT LAMBDA VALUE     1
Info: FEP COMPARISON LAMBDA VALUE  0.95
Info: FEP INTRA-ALCHEMICAL NON-BONDED INTERACTIONS WILL BE RETAINED
Info: FEP INTRA-ALCHEMICAL BONDED INTERACTIONS WILL BE RETAINED
Info: FEP VDW SHIFTING COEFFICIENT 5
Info: FEP ELEC. ACTIVE FOR ANNIHILATED PARTICLES BETWEEN LAMBDA = 0 AND LAMBDA = 0.5
Info: FEP ELEC. ACTIVE FOR EXNIHILATED PARTICLES BETWEEN LAMBDA = 0.5 AND LAMBDA = 1
Info: FEP VDW ACTIVE FOR ANNIHILATED PARTICLES BETWEEN LAMBDA = 0 AND LAMBDA = 1
Info: FEP VDW ACTIVE FOR EXNIHILATED PARTICLES BETWEEN LAMBDA = 0 AND LAMBDA = 1
Info: FEP BOND ACTIVE FOR ANNIHILATED PARTICLES BETWEEN LAMBDA = 1 AND LAMBDA = 1
Info: FEP BOND ACTIVE FOR EXNIHILATED PARTICLES BETWEEN LAMBDA = 0 AND LAMBDA = 0
Info: LANGEVIN DYNAMICS ACTIVE
Info: LANGEVIN TEMPERATURE   300
Info: LANGEVIN USING BBK INTEGRATOR
Info: LANGEVIN DAMPING COEFFICIENT IS 1 INVERSE PS
Info: LANGEVIN DYNAMICS APPLIED TO HYDROGENS
Info: LANGEVIN PISTON PRESSURE CONTROL ACTIVE
Info:        TARGET PRESSURE IS 1.01325 BAR
Info:     OSCILLATION PERIOD IS 50 FS
Info:             DECAY TIME IS 25 FS
Info:     PISTON TEMPERATURE IS 300 K
Info:       PRESSURE CONTROL IS GROUP-BASED
Info:    INITIAL STRAIN RATE IS -0.000274809 -0.000274809 -0.000274809
Info:       CELL FLUCTUATION IS ISOTROPIC
Info: PARTICLE MESH EWALD (PME) ACTIVE
Info: PME TOLERANCE               1e-06
Info: PME EWALD COEFFICIENT       0.348832
Info: PME INTERPOLATION ORDER     4
Info: PME GRID DIMENSIONS         32 32 36
Info: PME MAXIMUM GRID SPACING    1
Info: PME CALCULATION WILL BE PERFORMED ON GPU
Info: FULL ELECTROSTATIC EVALUATION FREQUENCY      2
Info: USING VERLET I (r-RESPA) MTS SCHEME.
Info: C1 SPLITTING OF LONG RANGE ELECTROSTATICS
Info: PLACING ATOMS IN PATCHES BY HYDROGEN GROUPS
Info: RIGID BONDS TO HYDROGEN : ALL
Info:         ERROR TOLERANCE : 1e-08
Info:          MAX ITERATIONS : 100
Info: RIGID WATER USING SETTLE ALGORITHM
Info: RANDOM NUMBER SEED     1743637065
Info: USE HYDROGEN BONDS?    NO
Info: Using AMBER format force field!
Info: AMBER PARM FILE        mobley_3183805.prmtop
Info: COORDINATE PDB         mobley_3183805.pdb
Info: Exclusions will be read from PARM file!
Info: SCNB (VDW SCALING)     2
Info: USING ARITHMETIC MEAN TO COMBINE L-J SIGMA PARAMETERS
Info: BINARY COORDINATES     mobley_3183805_equil.coor
Info: SUMMARY OF PARAMETERS:
Info: 6 BONDS
Info: 5 ANGLES
Info:   5 HARMONIC
Info:   0 COSINE-BASED
Info: 3 DIHEDRAL
Info: 0 IMPROPER
Info: 0 CROSSTERM
Info: 0 VDW
Info: 21 VDW_PAIRS
Info: 0 NBTHOLE_PAIRS
Info: To read alchdata from file: mobley_3183805.pdb
Info: To read alchflag data from column: 5
Info: STRUCTURE SUMMARY:
Info: 2913 ATOMS
Info: 2913 BONDS
Info: 36 ANGLES
Info: 48 DIHEDRALS
Info: 0 IMPROPERS
Info: 0 CROSSTERMS
Info: 2988 EXCLUSIONS
Info: 2904 RIGID BONDS
Info: ALCH: 0 ATOMS TO DISAPPEAR IN FINAL STATE
Info: ALCH: 21 ATOMS TO APPEAR IN FINAL STATE
Info: 5835 DEGREES OF FREEDOM
Info: 973 HYDROGEN GROUPS
Info: 4 ATOMS IN LARGEST HYDROGEN GROUP
Info: 973 MIGRATION GROUPS
Info: 4 ATOMS IN LARGEST MIGRATION GROUP
Info: TOTAL MASS = 17487.6 amu
Info: TOTAL CHARGE = 0.000399988 e
Info: MASS DENSITY = 0.974172 g/cm^3
Info: ATOM DENSITY = 0.0977207 atoms/A^3
Info: ADDED 0 IMPLICIT EXCLUSIONS
Info: NONBONDED TABLE R-SQUARED SPACING: 0.0625
Info: NONBONDED TABLE SIZE: 705 POINTS
Info: REMOVING COM VELOCITY 0.0401733 -0.0175937 0.134905
Info: Use 3D box decompostion in PME FFT.
Info: Updated CUDA force table with 4096 elements.
Info: Updated CUDA LJ table with 6 x 6 elements.
Info: Found 23 unique exclusion lists needing 64 bytes
TCL: Running for 1500000 steps
ETITLE: TS BOND ANGLE DIHED IMPRP ELECT VDW BOUNDARY MISC KINETIC TOTAL TEMP POTENTIAL TOTALAVG TEMPAVG PRESSURE GPRESSURE VOLUME PRESSAVG GPRESSAVG
ENERGY: 0 1.5368 5.9412 1.7647 0.0000 -10707.2585 1500.0310 0.0000 0.0000 1734.9706 -7463.0142 299.2552 -9197.9848 -7463.0142 299.2552 466.0816 547.8183 29809.4572 466.0816 547.8183
ENERGY: 300000 0.5925 7.8175 2.0427 0.0000 -10588.6409 1463.0688 0.0000 0.0000 1755.2523 -7359.8672 302.7534 -9115.1195 -7393.2150 300.3898 418.8386 455.0642 30001.0838 -0.7638 56.8545
ENERGY: 600000 6.2111 7.8048 4.1553 0.0000 -10602.8167 1484.7673 0.0000 0.0000 1743.4336 -7356.4445 300.7149 -9099.8781 -7380.7352 299.3615 468.7531 559.1871 30010.6046 42.0436 101.6853
ENERGY: 900000 3.4878 5.2663 2.1575 0.0000 -10691.0386 1490.3589 0.0000 0.0000 1781.0633 -7408.7048 307.2054 -9189.7681 -7388.5516 300.0317 410.8359 456.7529 30027.7383 -18.0610 36.6406
ENERGY: 1200000 2.5079 7.8650 2.6726 0.0000 -10459.9250 1412.8064 0.0000 0.0000 1727.7802 -7306.2929 298.0149 -9034.0731 -7389.1214 299.9558 214.3272 242.5523 30235.6355 -43.3429 5.3950
ENERGY: 1500000 2.9937 9.4955 3.1387 0.0000 -10699.7769 1505.0240 0.0000 0.0000 1737.3373 -7441.7878 299.6634 -9179.1251 -7384.2279 300.5922 566.2496 637.0657 29739.6030 13.0226 64.5575
TCL: Running FEP window   2: Lambda1 0.95   Lambda2 0.8999999999999999 [dLambda -0.050000000000000044]
TCL: Setting parameter firsttimestep to 0
TCL: Setting parameter alchLambda to 0.95
Info: NONBONDED TABLE R-SQUARED SPACING: 0.0625
Info: NONBONDED TABLE SIZE: 705 POINTS
TCL: Setting parameter alchLambda2 to 0.8999999999999999
Info: NONBONDED TABLE R-SQUARED SPACING: 0.0625
Info: NONBONDED TABLE SIZE: 705 POINTS
TCL: Running for 1500000 steps
ETITLE: TS BOND ANGLE DIHED IMPRP ELECT VDW BOUNDARY MISC KINETIC TOTAL TEMP POTENTIAL TOTALAVG TEMPAVG PRESSURE GPRESSURE VOLUME PRESSAVG GPRESSAVG
ENERGY: 0 2.9937 9.4955 3.1387 0.0000 -10698.9504 1504.4661 0.0000 0.0000 1736.4869 -7442.3695 299.5167 -9178.8565 -7442.3695 299.5167 541.5763 618.0294 29739.6030 541.5763 618.0294
ENERGY: 300000 1.6269 10.8699 3.6616 0.0000 -10545.7751 1418.7555 0.0000 0.0000 1760.5483 -7350.3129 303.6669 -9110.8612 -7432.7214 296.0672 250.8472 244.6499 29647.8697 155.4077 224.0999
ENERGY: 600000 1.3897 12.0460 1.7616 0.0000 -10459.1309 1364.8113 0.0000 0.0000 1735.9414 -7343.1809 299.4226 -9079.1223 -7394.8335 298.4578 -232.0174 -127.6138 29904.8370 -51.2107 26.3386
ENERGY: 900000 3.1318 4.7884 4.2887 0.0000 -10543.3671 1427.7312 0.0000 0.0000 1742.8913 -7360.5358 300.6213 -9103.4270 -7375.4617 299.2252 -158.5505 -86.2483 30461.7562 -179.0376 -111.6028
ENERGY: 1200000 2.3657 5.8414 1.6362 0.0000 -10456.9462 1359.3727 0.0000 0.0000 1793.6357 -7294.0946 309.3740 -9087.7303 -7370.8177 299.9229 -124.2652 -104.4181 29726.5203 -233.6119 -171.1079
ENERGY: 1500000 2.3026 10.9372 5.6500 0.0000 -10554.8835 1474.1297 0.0000 0.0000 1785.9287 -7275.9353 308.0446 -9061.8640 -7361.6288 299.8664 469.6591 540.2136 30016.1569 -186.8875 -122.0453
TCL: Running FEP window   3: Lambda1 0.8999999999999999 Lambda2 0.8499999999999999 [dLambda -0.050000000000000044]
TCL: Setting parameter firsttimestep to 0
TCL: Setting parameter alchLambda to 0.8999999999999999
Info: NONBONDED TABLE R-SQUARED SPACING: 0.0625
Info: NONBONDED TABLE SIZE: 705 POINTS
TCL: Setting parameter alchLambda2 to 0.8499999999999999
Info: NONBONDED TABLE R-SQUARED SPACING: 0.0625
Info: NONBONDED TABLE SIZE: 705 POINTS
TCL: Running for 1500000 steps
ETITLE: TS BOND ANGLE DIHED IMPRP ELECT VDW BOUNDARY MISC KINETIC TOTAL TEMP POTENTIAL TOTALAVG TEMPAVG PRESSURE GPRESSURE VOLUME PRESSAVG GPRESSAVG
ENERGY: 0 2.3026 10.9372 5.6500 0.0000 -10553.7947 1473.5445 0.0000 0.0000 1785.0480 -7276.3125 307.8927 -9061.3605 -7276.3125 307.8927 435.4859 519.9760 30016.1569 435.4859 519.9760
ENERGY: 300000 3.3416 6.5213 2.6215 0.0000 -10476.5962 1400.5083 0.0000 0.0000 1762.5106 -7301.0929 304.0054 -9063.6035 -7334.1222 301.0092 42.2317 80.4806 30303.4236 -91.2884 -52.6632
ENERGY: 600000 4.6343 4.7804 4.0969 0.0000 -10643.0828 1478.4019 0.0000 0.0000 1715.0865 -7436.0828 295.8255 -9151.1693 -7368.6948 298.9626 369.0854 416.4559 29847.8800 -42.1320 6.7638
ENERGY: 900000 7.0423 4.9045 3.3425 0.0000 -10495.1060 1375.9603 0.0000 0.0000 1744.0427 -7359.8137 300.8200 -9103.8564 -7367.3056 299.6348 -630.6982 -509.0868 29920.6263 -88.5168 -25.5766
ENERGY: 1200000 1.9594 8.7261 2.5441 0.0000 -10586.9994 1435.3699 0.0000 0.0000 1781.6688 -7356.7311 307.3099 -9138.3998 -7368.1556 299.9032 302.6219 415.9386 29532.4218 -47.8628 17.3226
ENERGY: 1500000 3.2355 6.1605 2.5889 0.0000 -10598.8849 1438.8247 0.0000 0.0000 1708.9812 -7439.0941 294.7724 -9148.0753 -7370.9216 298.8888 -17.2788 -10.2420 29971.8669 -28.8658 31.5615
TCL: Running FEP window   4: Lambda1 0.8499999999999999 Lambda2 0.7999999999999998 [dLambda -0.050000000000000044]
TCL: Setting parameter firsttimestep to 0
TCL: Setting parameter alchLambda to 0.8499999999999999
Info: NONBONDED TABLE R-SQUARED SPACING: 0.0625
Info: NONBONDED TABLE SIZE: 705 POINTS
TCL: Setting parameter alchLambda2 to 0.7999999999999998
Info: NONBONDED TABLE R-SQUARED SPACING: 0.0625
Info: NONBONDED TABLE SIZE: 705 POINTS
TCL: Running for 1500000 steps
ETITLE: TS BOND ANGLE DIHED IMPRP ELECT VDW BOUNDARY MISC KINETIC TOTAL TEMP POTENTIAL TOTALAVG TEMPAVG PRESSURE GPRESSURE VOLUME PRESSAVG GPRESSAVG
ENERGY: 0 3.2355 6.1605 2.5889 0.0000 -10598.4606 1439.2689 0.0000 0.0000 1708.1017 -7439.1051 294.6207 -9147.2068 -7439.1051 294.6207 -101.4668 -18.1027 29971.8669 -101.4668 -18.1027
ENERGY: 300000 2.0516 6.2154 3.9104 0.0000 -10633.0192 1471.6859 0.0000 0.0000 1756.8113 -7392.3447 303.0223 -9149.1560 -7389.5482 298.3971 254.8356 347.5612 29905.0524 -154.9935 -100.5396
ENERGY: 600000 3.0456 8.3669 2.9335 0.0000 -10492.0799 1368.4437 0.0000 0.0000 1774.8840 -7334.4063 306.1396 -9109.2903 -7371.3816 299.9701 -210.8470 -173.6901 29565.4446 -131.7491 -85.1575
ENERGY: 900000 2.1613 7.7644 4.4989 0.0000 -10628.3516 1496.8527 0.0000 0.0000 1694.9393 -7422.1350 292.3504 -9117.0743 -7368.5166 298.4187 607.8638 661.3435 30051.1127 100.9020 143.7361
ENERGY: 1200000 1.9411 7.5754 0.8798 0.0000 -10416.8901 1397.2703 0.0000 0.0000 1779.6079 -7229.6157 306.9544 -9009.2236 -7359.8366 298.6531 -52.9697 57.4054 30207.7086 100.1143 149.6652
ENERGY: 1500000 4.5854 5.9293 2.7537 0.0000 -10462.7218 1334.3900 0.0000 0.0000 1779.0536 -7336.0098 306.8588 -9115.0634 -7362.4796 299.0845 -1007.3098 -900.5335 30563.0797 71.7957 124.7804
TCL: Running FEP window   5: Lambda1 0.7999999999999998 Lambda2 0.7499999999999998 [dLambda -0.050000000000000044]
TCL: Setting parameter firsttimestep to 0
TCL: Setting parameter alchLambda to 0.7999999999999998
Info: NONBONDED TABLE R-SQUARED SPACING: 0.0625
Info: NONBONDED TABLE SIZE: 705 POINTS
TCL: Setting parameter alchLambda2 to 0.7499999999999998
Info: NONBONDED TABLE R-SQUARED SPACING: 0.0625
Info: NONBONDED TABLE SIZE: 705 POINTS
TCL: Running for 1500000 steps
ETITLE: TS BOND ANGLE DIHED IMPRP ELECT VDW BOUNDARY MISC KINETIC TOTAL TEMP POTENTIAL TOTALAVG TEMPAVG PRESSURE GPRESSURE VOLUME PRESSAVG GPRESSAVG
ENERGY: 0 4.5854 5.9293 2.7537 0.0000 -10461.8748 1335.0180 0.0000 0.0000 1778.2167 -7335.3718 306.7144 -9113.5885 -7335.3718 306.7144 -981.6236 -905.0931 30563.0797 -981.6236 -905.0931
ENERGY: 300000 0.8337 10.2183 3.3819 0.0000 -10361.7596 1330.6019 0.0000 0.0000 1757.3803 -7259.3435 303.1205 -9016.7238 -7353.1311 302.6852 -91.4686 -28.4311 29767.7643 -274.8812 -204.2282
ENERGY: 600000 3.8404 6.0509 1.9078 0.0000 -10482.2016 1367.8615 0.0000 0.0000 1785.2853 -7317.2557 307.9336 -9102.5409 -7366.2670 301.0779 -350.6089 -338.5853 30164.8091 -349.1945 -281.1408
ENERGY: 900000 1.9330 6.0321 3.1659 0.0000 -10410.5693 1335.9536 0.0000 0.0000 1716.6518 -7346.8329 296.0954 -9063.4846 -7362.4835 300.6435 -671.8522 -656.0625 30638.2182 -271.6111 -217.3341
ENERGY: 1200000 7.1504 11.9806 3.5400 0.0000 -10522.0972 1370.0979 0.0000 0.0000 1744.3014 -7385.0269 300.8646 -9129.3283 -7368.0795 300.7322 -712.8419 -640.9793 30177.8619 -152.4569 -98.5955
ENERGY: 1500000 2.5190 9.0666 1.6457 0.0000 -10321.0499 1327.5350 0.0000 0.0000 1809.0376 -7171.2460 312.0305 -8980.2836 -7357.0497 301.5970 -482.9182 -427.9948 30626.9983 -128.1735 -75.5612
TCL: Running FEP window   6: Lambda1 0.7499999999999998 Lambda2 0.6999999999999997 [dLambda -0.050000000000000044]
TCL: Setting parameter firsttimestep to 0
TCL: Setting parameter alchLambda to 0.7499999999999998
Info: NONBONDED TABLE R-SQUARED SPACING: 0.0625
Info: NONBONDED TABLE SIZE: 705 POINTS
TCL: Setting parameter alchLambda2 to 0.6999999999999997
Info: NONBONDED TABLE R-SQUARED SPACING: 0.0625
Info: NONBONDED TABLE SIZE: 705 POINTS
TCL: Running for 1500000 steps
ETITLE: TS BOND ANGLE DIHED IMPRP ELECT VDW BOUNDARY MISC KINETIC TOTAL TEMP POTENTIAL TOTALAVG TEMPAVG PRESSURE GPRESSURE VOLUME PRESSAVG GPRESSAVG
ENERGY: 0 2.5190 9.0666 1.6457 0.0000 -10320.4314 1327.9290 0.0000 0.0000 1808.1582 -7171.1130 311.8789 -8979.2712 -7171.1130 311.8789 -515.7492 -433.3168 30626.9983 -515.7492 -433.3168
ENERGY: 300000 3.6120 8.2520 1.3789 0.0000 -10556.3622 1468.9421 0.0000 0.0000 1739.7128 -7334.4644 300.0731 -9074.1771 -7288.6835 303.7035 513.2549 632.5062 29814.4776 -293.7419 -227.2441
ENERGY: 600000 3.7076 10.8349 1.8404 0.0000 -10578.1136 1429.3549 0.0000 0.0000 1751.8733 -7380.5025 302.1706 -9132.3758 -7321.3245 301.8987 -83.9644 -52.9850 30205.1678 -119.1920 -52.0007
ENERGY: 900000 2.1479 6.1233 2.2861 0.0000 -10576.9345 1435.1319 0.0000 0.0000 1773.0786 -7358.1667 305.8282 -9131.2452 -7337.2643 301.5249 347.6218 358.4339 29611.5650 -25.9868 36.3800
ENERGY: 1200000 5.6083 6.1041 2.6520 0.0000 -10528.7097 1420.4735 0.0000 0.0000 1725.9590 -7367.9126 297.7008 -9093.8716 -7345.8828 301.3768 -238.9671 -164.4270 30246.2345 -98.7800 -34.8826
ENERGY: 1500000 2.0513 6.4533 3.5864 0.0000 -10578.8635 1420.8900 0.0000 0.0000 1760.3441 -7385.5384 303.6317 -9145.8825 -7356.9308 301.0688 -20.3613 17.2000 30101.9898 -113.3362 -54.1114
TCL: Running FEP window   7: Lambda1 0.6999999999999997 Lambda2 0.6499999999999997 [dLambda -0.050000000000000044]
TCL: Setting parameter firsttimestep to 0
TCL: Setting parameter alchLambda to 0.6999999999999997
Info: NONBONDED TABLE R-SQUARED SPACING: 0.0625
Info: NONBONDED TABLE SIZE: 705 POINTS
TCL: Setting parameter alchLambda2 to 0.6499999999999997
Info: NONBONDED TABLE R-SQUARED SPACING: 0.0625
Info: NONBONDED TABLE SIZE: 705 POINTS
TCL: Running for 1500000 steps
ETITLE: TS BOND ANGLE DIHED IMPRP ELECT VDW BOUNDARY MISC KINETIC TOTAL TEMP POTENTIAL TOTALAVG TEMPAVG PRESSURE GPRESSURE VOLUME PRESSAVG GPRESSAVG
ENERGY: 0 2.0513 6.4533 3.5864 0.0000 -10578.3465 1421.4391 0.0000 0.0000 1759.5310 -7385.2854 303.4914 -9144.8164 -7385.2854 303.4914 -78.7140 15.9391 30101.9898 -78.7140 15.9391
ENERGY: 300000 2.8624 6.6255 4.9782 0.0000 -10549.5212 1404.5973 0.0000 0.0000 1760.2426 -7370.2153 303.6142 -9130.4579 -7364.6447 303.2229 -131.4218 -72.7763 29703.4451 -155.6245 -91.3525
ENERGY: 600000 0.7069 14.2445 1.5076 0.0000 -10493.2456 1381.1061 0.0000 0.0000 1728.8936 -7366.7870 298.2070 -9095.6806 -7359.9128 302.3142 -182.4916 -110.3887 30081.1339 73.9363 142.7537
ENERGY: 900000 2.0305 7.1251 2.4818 0.0000 -10547.5859 1372.6404 0.0000 0.0000 1763.8826 -7399.4255 304.2420 -9163.3082 -7364.9775 301.0114 -565.0861 -567.7991 30008.6669 -94.7607 -31.1917
ENERGY: 1200000 3.1984 5.7401 5.3915 0.0000 -10549.4024 1377.0156 0.0000 0.0000 1735.3107 -7422.7460 299.3138 -9158.0568 -7378.7663 299.6397 -407.9081 -315.8430 29885.2365 -36.1012 25.2688
ENERGY: 1500000 1.1134 7.2733 6.5789 0.0000 -10480.8026 1397.2241 0.0000 0.0000 1765.4691 -7303.1438 304.5157 -9068.6129 -7383.0767 298.6344 -317.4172 -212.4268 30672.9932 -20.1758 46.3323
TCL: Running FEP window   8: Lambda1 0.6499999999999997 Lambda2 0.5999999999999996 [dLambda -0.050000000000000044]
TCL: Setting parameter firsttimestep to 0
TCL: Setting parameter alchLambda to 0.6499999999999997
Info: NONBONDED TABLE R-SQUARED SPACING: 0.0625
Info: NONBONDED TABLE SIZE: 705 POINTS
TCL: Setting parameter alchLambda2 to 0.5999999999999996
Info: NONBONDED TABLE R-SQUARED SPACING: 0.0625
Info: NONBONDED TABLE SIZE: 705 POINTS
TCL: Running for 1500000 steps
ETITLE: TS BOND ANGLE DIHED IMPRP ELECT VDW BOUNDARY MISC KINETIC TOTAL TEMP POTENTIAL TOTALAVG TEMPAVG PRESSURE GPRESSURE VOLUME PRESSAVG GPRESSAVG
ENERGY: 0 1.1134 7.2734 6.5789 0.0000 -10480.7894 1397.7638 0.0000 0.0000 1764.5944 -7303.4656 304.3648 -9068.0600 -7303.4656 304.3648 -281.9986 -213.4806 30672.9932 -281.9986 -213.4806
ENERGY: 300000 2.5278 5.0226 1.6945 0.0000 -10433.9827 1288.9252 0.0000 0.0000 1737.7768 -7398.0358 299.7392 -9135.8126 -7347.2601 301.0546 -1349.1279 -1291.6016 30467.5070 -426.7234 -370.1497
ENERGY: 600000 1.8919 9.1212 4.2233 0.0000 -10488.4380 1407.9874 0.0000 0.0000 1719.1996 -7346.0146 296.5349 -9065.2142 -7356.8596 298.9223 152.0443 279.3903 29677.8295 -287.2150 -210.0959
ENERGY: 900000 2.2285 12.5108 3.6608 0.0000 -10530.1002 1329.5426 0.0000 0.0000 1694.9651 -7487.1923 292.3548 -9182.1575 -7384.9286 298.4201 -1063.9425 -1007.0577 30170.2343 -391.0200 -309.8974
ENERGY: 1200000 7.2316 7.0583 3.4681 0.0000 -10560.7423 1402.7675 0.0000 0.0000 1756.6407 -7383.5762 302.9929 -9140.2169 -7387.0387 298.6879 -255.1485 -221.7989 29979.9019 -324.6410 -253.9604
ENERGY: 1500000 0.6955 7.5829 2.2154 0.0000 -10392.8811 1310.0941 0.0000 0.0000 1769.5426 -7302.7506 305.2183 -9072.2932 -7369.6013 299.2215 -808.8749 -741.6689 30225.5963 -326.6262 -255.0299
TCL: Running FEP window   9: Lambda1 0.5999999999999996 Lambda2 0.5499999999999996 [dLambda -0.050000000000000044]
TCL: Setting parameter firsttimestep to 0
TCL: Setting parameter alchLambda to 0.5999999999999996
Info: NONBONDED TABLE R-SQUARED SPACING: 0.0625
Info: NONBONDED TABLE SIZE: 705 POINTS
TCL: Setting parameter alchLambda2 to 0.5499999999999996
Info: NONBONDED TABLE R-SQUARED SPACING: 0.0625
Info: NONBONDED TABLE SIZE: 705 POINTS
TCL: Running for 1500000 steps
ETITLE: TS BOND ANGLE DIHED IMPRP ELECT VDW BOUNDARY MISC KINETIC TOTAL TEMP POTENTIAL TOTALAVG TEMPAVG PRESSURE GPRESSURE VOLUME PRESSAVG GPRESSAVG
ENERGY: 0 0.6955 7.5830 2.2154 0.0000 -10392.2439 1310.6954 0.0000 0.0000 1768.6457 -7302.4090 305.0636 -9071.0546 -7302.4090 305.0636 -822.2478 -743.1142 30225.5963 -822.2478 -743.1142
ENERGY: 300000 2.1964 8.6297 2.4274 0.0000 -10650.3344 1552.9223 0.0000 0.0000 1701.6843 -7382.4745 293.5138 -9084.1587 -7344.1338 302.4303 903.8634 998.3421 30268.6360 46.5299 127.7636
ENERGY: 600000 4.7354 4.7744 1.9607 0.0000 -10565.4821 1446.6796 0.0000 0.0000 1751.3217 -7356.0102 302.0755 -9107.3318 -7338.8403 302.0845 138.2135 168.0944 30014.0050 -127.1592 -51.4942
ENERGY: 900000 2.4846 5.4850 2.2038 0.0000 -10502.2213 1399.0630 0.0000 0.0000 1735.7745 -7357.2104 299.3938 -9092.9849 -7332.3081 301.9622 -150.7377 -83.4953 30127.3806 -81.5034 -7.6491
ENERGY: 1200000 5.6677 7.7474 1.3006 0.0000 -10544.2640 1464.7465 0.0000 0.0000 1731.1045 -7333.6973 298.5883 -9064.8018 -7326.9479 302.5699 395.1142 453.3215 29814.6097 -95.3703 -27.6502
ENERGY: 1500000 1.6730 10.6551 1.7141 0.0000 -10456.3971 1318.4647 0.0000 0.0000 1735.8503 -7388.0399 299.4069 -9123.8902 -7333.3832 301.9906 -674.8819 -677.5375 30142.8299 -154.3581 -95.3298
TCL: Running FEP window  10: Lambda1 0.5499999999999996 Lambda2 0.4999999999999996 [dLambda -0.04999999999999999]
TCL: Setting parameter firsttimestep to 0
TCL: Setting parameter alchLambda to 0.5499999999999996
Info: NONBONDED TABLE R-SQUARED SPACING: 0.0625
Info: NONBONDED TABLE SIZE: 705 POINTS
TCL: Setting parameter alchLambda2 to 0.4999999999999996
Info: NONBONDED TABLE R-SQUARED SPACING: 0.0625
Info: NONBONDED TABLE SIZE: 705 POINTS
TCL: Running for 1500000 steps
ETITLE: TS BOND ANGLE DIHED IMPRP ELECT VDW BOUNDARY MISC KINETIC TOTAL TEMP POTENTIAL TOTALAVG TEMPAVG PRESSURE GPRESSURE VOLUME PRESSAVG GPRESSAVG
ENERGY: 0 1.6730 10.6551 1.7141 0.0000 -10455.8232 1318.6003 0.0000 0.0000 1735.0071 -7388.1737 299.2614 -9123.1808 -7388.1737 299.2614 -771.4606 -681.8102 30142.8299 -771.4606 -681.8102
ENERGY: 300000 3.7825 5.8056 2.1612 0.0000 -10407.4305 1368.3613 0.0000 0.0000 1756.6547 -7270.6652 302.9953 -9027.3199 -7361.4611 303.2506 -273.2728 -197.6528 30220.9331 -121.3904 -42.5239
ENERGY: 600000 2.5087 8.8519 4.4746 0.0000 -10457.7255 1362.2740 0.0000 0.0000 1720.4572 -7359.1591 296.7518 -9079.6163 -7363.7195 300.6618 -442.2436 -371.6106 30507.1361 54.2701 127.4005
ENERGY: 900000 3.4044 8.7444 1.8271 0.0000 -10473.4886 1381.1996 0.0000 0.0000 1778.1647 -7300.1483 306.7055 -9078.3130 -7346.6436 301.8394 -521.3817 -493.2403 30532.1425 41.3468 105.3678
ENERGY: 1200000 2.8857 7.2164 1.3521 0.0000 -10533.6466 1456.1686 0.0000 0.0000 1801.1194 -7264.9044 310.6648 -9066.0239 -7347.3220 301.8258 548.5832 615.5843 29823.3286 59.7363 130.2519
ENERGY: 1500000 2.5664 11.0490 1.1187 0.0000 -10688.4963 1494.9552 0.0000 0.0000 1721.3897 -7457.4172 296.9127 -9178.8070 -7355.8586 301.7070 202.6397 270.6746 29959.5315 106.3614 172.3482
TCL: Running FEP window  11: Lambda1 0.4999999999999996 Lambda2 0.4499999999999996 [dLambda -0.04999999999999999]
TCL: Setting parameter firsttimestep to 0
TCL: Setting parameter alchLambda to 0.4999999999999996
Info: NONBONDED TABLE R-SQUARED SPACING: 0.0625
Info: NONBONDED TABLE SIZE: 705 POINTS
TCL: Setting parameter alchLambda2 to 0.4499999999999996
Info: NONBONDED TABLE R-SQUARED SPACING: 0.0625
Info: NONBONDED TABLE SIZE: 705 POINTS
TCL: Running for 1500000 steps
ETITLE: TS BOND ANGLE DIHED IMPRP ELECT VDW BOUNDARY MISC KINETIC TOTAL TEMP POTENTIAL TOTALAVG TEMPAVG PRESSURE GPRESSURE VOLUME PRESSAVG GPRESSAVG
ENERGY: 0 2.5664 11.0490 1.1187 0.0000 -10687.8946 1495.2365 0.0000 0.0000 1720.5111 -7457.4129 296.7611 -9177.9240 -7457.4129 296.7611 193.6103 265.0966 29959.5315 193.6103 265.0966
ENERGY: 300000 1.6281 9.7074 2.7108 0.0000 -10586.3940 1433.4677 0.0000 0.0000 1750.2798 -7388.6003 301.8958 -9138.8801 -7376.1555 299.6344 -7.1379 -26.8763 30259.7891 -159.0946 -112.5519
ENERGY: 600000 7.3564 5.9911 2.8357 0.0000 -10350.8161 1328.9682 0.0000 0.0000 1776.2362 -7229.4284 306.3728 -9005.6646 -7361.4395 300.1363 -868.8526 -778.5134 30642.0514 -242.6745 -183.3656
ENERGY: 900000 3.7472 4.0342 4.5961 0.0000 -10716.5242 1532.2905 0.0000 0.0000 1731.8142 -7440.0420 298.7107 -9171.8562 -7368.0179 300.9758 674.0339 753.9131 29712.6118 51.6234 106.8444
ENERGY: 1200000 2.1667 7.4726 3.9860 0.0000 -10535.3858 1367.0243 0.0000 0.0000 1715.7947 -7438.9415 295.9476 -9154.7362 -7372.9350 300.0658 -520.4752 -466.8919 30119.8240 76.5360 120.1010
ENERGY: 1500000 1.9018 6.7893 4.9306 0.0000 -10651.9910 1502.2383 0.0000 0.0000 1810.5605 -7325.5706 312.2932 -9136.1311 -7368.3891 300.5095 654.6966 740.3818 29820.0514 75.9912 125.8261
TCL: Running FEP window  12: Lambda1 0.4499999999999996 Lambda2 0.39999999999999963 [dLambda -0.04999999999999999]
TCL: Setting parameter firsttimestep to 0
TCL: Setting parameter alchLambda to 0.4499999999999996
Info: NONBONDED TABLE R-SQUARED SPACING: 0.0625
Info: NONBONDED TABLE SIZE: 705 POINTS
TCL: Setting parameter alchLambda2 to 0.39999999999999963
Info: NONBONDED TABLE R-SQUARED SPACING: 0.0625
Info: NONBONDED TABLE SIZE: 705 POINTS
TCL: Running for 1500000 steps
ETITLE: TS BOND ANGLE DIHED IMPRP ELECT VDW BOUNDARY MISC KINETIC TOTAL TEMP POTENTIAL TOTALAVG TEMPAVG PRESSURE GPRESSURE VOLUME PRESSAVG GPRESSAVG
ENERGY: 0 1.9018 6.7893 4.9306 0.0000 -10651.9897 1502.3131 0.0000 0.0000 1809.6924 -7326.3626 312.1435 -9136.0549 -7326.3626 312.1435 643.9135 732.4849 29820.0514 643.9135 732.4849
ENERGY: 300000 3.3773 8.7329 5.4168 0.0000 -10447.1996 1306.4089 0.0000 0.0000 1759.6856 -7363.5781 303.5181 -9123.2637 -7352.1217 303.0943 -836.3846 -827.1791 29644.7108 -117.2233 -57.0318
ENERGY: 600000 1.3785 6.9420 3.6955 0.0000 -10474.5520 1385.4654 0.0000 0.0000 1722.1772 -7354.8935 297.0485 -9077.0706 -7366.2011 301.6484 -188.1543 -95.8329 29816.2400 -164.7307 -102.0290
ENERGY: 900000 2.9436 8.2565 5.3289 0.0000 -10683.9103 1504.2094 0.0000 0.0000 1688.2566 -7474.9153 291.1977 -9163.1719 -7379.6364 300.4652 551.4815 679.8697 29568.7627 -78.1225 -16.3009
ENERGY: 1200000 1.9611 6.0493 2.7379 0.0000 -10558.5179 1462.8088 0.0000 0.0000 1687.7837 -7397.1771 291.1162 -9084.9608 -7383.8457 299.8876 224.2181 298.8312 30225.4256 -58.2290 1.4721
ENERGY: 1500000 2.3249 9.2655 3.3318 0.0000 -10551.1736 1411.0855 0.0000 0.0000 1792.3235 -7332.8425 309.1476 -9125.1660 -7374.0344 300.1350 181.8266 251.2250 29405.1006 -77.2690 -15.4931
TCL: Running FEP window  13: Lambda1 0.39999999999999963 Lambda2 0.34999999999999964 [dLambda -0.04999999999999999]
TCL: Setting parameter firsttimestep to 0
TCL: Setting parameter alchLambda to 0.39999999999999963
Info: NONBONDED TABLE R-SQUARED SPACING: 0.0625
Info: NONBONDED TABLE SIZE: 705 POINTS
TCL: Setting parameter alchLambda2 to 0.34999999999999964
Info: NONBONDED TABLE R-SQUARED SPACING: 0.0625
Info: NONBONDED TABLE SIZE: 705 POINTS
TCL: Running for 1500000 steps
ETITLE: TS BOND ANGLE DIHED IMPRP ELECT VDW BOUNDARY MISC KINETIC TOTAL TEMP POTENTIAL TOTALAVG TEMPAVG PRESSURE GPRESSURE VOLUME PRESSAVG GPRESSAVG
ENERGY: 0 2.3249 9.2655 3.3318 0.0000 -10551.1725 1411.5135 0.0000 0.0000 1791.4161 -7333.3209 308.9911 -9124.7370 -7333.3209 308.9911 162.7011 249.3646 29405.1006 162.7011 249.3646
ENERGY: 300000 2.8332 8.0840 3.8834 0.0000 -10494.6147 1384.0634 0.0000 0.0000 1735.1557 -7360.5949 299.2871 -9095.7506 -7344.8425 300.7533 -243.7881 -190.1636 29652.9704 102.8980 164.1383
ENERGY: 600000 3.3853 4.6391 0.9745 0.0000 -10524.2488 1424.5810 0.0000 0.0000 1794.2826 -7296.3863 309.4855 -9090.6689 -7347.8854 300.4944 -276.4481 -218.4653 30613.7135 125.5491 180.7744
ENERGY: 900000 2.1654 4.8909 2.5090 0.0000 -10525.8025 1392.0236 0.0000 0.0000 1741.8923 -7382.3213 300.4490 -9124.2136 -7361.6856 300.6479 91.2562 124.9731 29245.1443 -65.4852 -10.7034
ENERGY: 1200000 3.6924 10.1811 1.3594 0.0000 -10501.4724 1384.9622 0.0000 0.0000 1721.4255 -7379.8518 296.9188 -9101.2773 -7364.6904 300.7700 -203.2799 -209.2900 29797.5449 -139.0808 -87.5048
ENERGY: 1500000 5.6277 6.4440 3.6624 0.0000 -10522.3089 1360.6113 0.0000 0.0000 1754.9825 -7390.9809 302.7069 -9145.9634 -7367.0935 300.9154 -1009.5742 -923.1973 30342.9422 -168.9603 -113.4082
TCL: Running FEP window  14: Lambda1 0.34999999999999964 Lambda2 0.29999999999999966 [dLambda -0.04999999999999999]
TCL: Setting parameter firsttimestep to 0
TCL: Setting parameter alchLambda to 0.34999999999999964
Info: NONBONDED TABLE R-SQUARED SPACING: 0.0625
Info: NONBONDED TABLE SIZE: 705 POINTS
TCL: Setting parameter alchLambda2 to 0.29999999999999966
Info: NONBONDED TABLE R-SQUARED SPACING: 0.0625
Info: NONBONDED TABLE SIZE: 705 POINTS
TCL: Running for 1500000 steps
ETITLE: TS BOND ANGLE DIHED IMPRP ELECT VDW BOUNDARY MISC KINETIC TOTAL TEMP POTENTIAL TOTALAVG TEMPAVG PRESSURE GPRESSURE VOLUME PRESSAVG GPRESSAVG
ENERGY: 0 5.6277 6.4440 3.6624 0.0000 -10522.3092 1361.2336 0.0000 0.0000 1754.0970 -7391.2445 302.5542 -9145.3414 -7391.2445 302.5542 -1007.6736 -921.0489 30342.9422 -1007.6736 -921.0489
ENERGY: 300000 3.3202 7.8443 3.0724 0.0000 -10517.0373 1444.3972 0.0000 0.0000 1702.1848 -7356.2184 293.6001 -9058.4032 -7373.0237 299.8725 340.9113 325.2860 29830.6428 -407.2783 -374.2513
ENERGY: 600000 1.7418 9.2676 2.7711 0.0000 -10504.2014 1362.7390 0.0000 0.0000 1780.9180 -7346.7640 307.1804 -9127.6820 -7366.0941 302.9955 -438.3523 -317.8833 29576.1193 -299.6803 -241.6636
ENERGY: 900000 5.8644 4.8745 1.5650 0.0000 -10646.3891 1486.8975 0.0000 0.0000 1751.6668 -7395.5208 302.1350 -9147.1876 -7358.7836 302.9418 277.7939 381.3875 29656.5289 -171.1819 -109.6732
ENERGY: 1200000 2.3320 11.4665 1.7763 0.0000 -10471.9376 1340.7083 0.0000 0.0000 1737.1305 -7378.5240 299.6277 -9115.6545 -7371.6227 301.3091 -909.7112 -797.2593 30075.5553 -208.9869 -150.7097
ENERGY: 1500000 2.4636 8.1712 3.0285 0.0000 -10761.7459 1573.3920 0.0000 0.0000 1795.4399 -7379.2507 309.6852 -9174.6906 -7364.7271 301.8946 1075.7890 1177.3096 29388.1648 -33.8786 27.3636
TCL: Running FEP window  15: Lambda1 0.29999999999999966 Lambda2 0.24999999999999967 [dLambda -0.04999999999999999]
TCL: Setting parameter firsttimestep to 0
TCL: Setting parameter alchLambda to 0.29999999999999966
Info: NONBONDED TABLE R-SQUARED SPACING: 0.0625
Info: NONBONDED TABLE SIZE: 705 POINTS
TCL: Setting parameter alchLambda2 to 0.24999999999999967
Info: NONBONDED TABLE R-SQUARED SPACING: 0.0625
Info: NONBONDED TABLE SIZE: 705 POINTS
TCL: Running for 1500000 steps
ETITLE: TS BOND ANGLE DIHED IMPRP ELECT VDW BOUNDARY MISC KINETIC TOTAL TEMP POTENTIAL TOTALAVG TEMPAVG PRESSURE GPRESSURE VOLUME PRESSAVG GPRESSAVG
ENERGY: 0 2.4636 8.1712 3.0285 0.0000 -10761.7457 1572.7906 0.0000 0.0000 1794.5727 -7380.7190 309.5356 -9175.2918 -7380.7190 309.5356 1090.1265 1170.2209 29388.1648 1090.1265 1170.2209
ENERGY: 300000 1.0923 5.7992 1.1307 0.0000 -10607.0109 1471.1898 0.0000 0.0000 1770.8965 -7356.9025 305.4518 -9127.7990 -7346.2977 307.9911 427.1151 448.3608 29960.5848 229.9014 269.9620
ENERGY: 600000 4.8812 12.0294 4.3682 0.0000 -10520.0832 1434.7814 0.0000 0.0000 1707.9798 -7356.0432 294.5997 -9064.0230 -7366.3156 303.0639 320.2527 325.4150 29573.8295 231.8270 266.6735
ENERGY: 900000 3.5898 7.7162 2.0175 0.0000 -10505.9279 1418.9254 0.0000 0.0000 1771.3831 -7302.2959 305.5357 -9073.6790 -7340.6332 303.7665 -162.9798 -121.5538 30510.4919 47.0430 87.6804
ENERGY: 1200000 3.5128 9.6085 3.2064 0.0000 -10437.0949 1360.1849 0.0000 0.0000 1709.2786 -7351.3037 294.8237 -9060.5823 -7350.8085 302.2978 -607.5458 -429.8379 30321.2362 -77.2188 -21.1326
ENERGY: 1500000 3.2014 6.7995 4.0926 0.0000 -10506.6183 1450.4248 0.0000 0.0000 1716.7151 -7325.3850 296.1064 -9042.1001 -7354.5750 301.3430 230.5112 263.6961 30185.4726 -98.3080 -47.5357
TCL: Running FEP window  16: Lambda1 0.24999999999999967 Lambda2 0.19999999999999968 [dLambda -0.04999999999999999]
TCL: Setting parameter firsttimestep to 0
TCL: Setting parameter alchLambda to 0.24999999999999967
Info: NONBONDED TABLE R-SQUARED SPACING: 0.0625
Info: NONBONDED TABLE SIZE: 705 POINTS
TCL: Setting parameter alchLambda2 to 0.19999999999999968
Info: NONBONDED TABLE R-SQUARED SPACING: 0.0625
Info: NONBONDED TABLE SIZE: 705 POINTS
TCL: Running for 1500000 steps
ETITLE: TS BOND ANGLE DIHED IMPRP ELECT VDW BOUNDARY MISC KINETIC TOTAL TEMP POTENTIAL TOTALAVG TEMPAVG PRESSURE GPRESSURE VOLUME PRESSAVG GPRESSAVG
ENERGY: 0 3.2014 6.7995 4.0926 0.0000 -10506.6180 1450.2614 0.0000 0.0000 1715.8522 -7326.4108 295.9575 -9042.2630 -7326.4108 295.9575 160.7031 256.5694 30185.4726 160.7031 256.5694
ENERGY: 300000 2.6845 4.6930 1.7900 0.0000 -10718.1699 1503.8324 0.0000 0.0000 1789.6181 -7415.5519 308.6810 -9205.1700 -7327.4402 305.0944 217.2325 273.2916 29869.4467 64.8326 130.8011
ENERGY: 600000 4.3197 5.1614 1.1283 0.0000 -10659.7064 1510.2564 0.0000 0.0000 1724.8897 -7413.9508 297.5164 -9138.8406 -7334.8446 302.8492 587.8311 576.3600 29714.4575 164.8716 214.8682
ENERGY: 900000 3.6526 5.6973 2.1297 0.0000 -10716.5498 1554.8217 0.0000 0.0000 1759.5266 -7390.7218 303.4907 -9150.2485 -7328.7235 302.7861 1004.4067 1101.6857 29203.5810 279.7593 344.4074
ENERGY: 1200000 5.1580 5.5331 3.0013 0.0000 -10578.5915 1456.4322 0.0000 0.0000 1722.9566 -7385.5103 297.1829 -9108.4669 -7323.0041 303.1757 -36.7194 101.8060 29525.0374 228.9341 301.7869
ENERGY: 1500000 2.9167 7.4706 1.3071 0.0000 -10473.7668 1398.8649 0.0000 0.0000 1706.4605 -7356.7469 294.3376 -9063.2075 -7330.5031 301.7938 -202.1248 -160.9373 29879.2668 142.0120 210.8601
TCL: Running FEP window  17: Lambda1 0.19999999999999968 Lambda2 0.1499999999999997 [dLambda -0.04999999999999999]
TCL: Setting parameter firsttimestep to 0
TCL: Setting parameter alchLambda to 0.19999999999999968
Info: NONBONDED TABLE R-SQUARED SPACING: 0.0625
Info: NONBONDED TABLE SIZE: 705 POINTS
TCL: Setting parameter alchLambda2 to 0.1499999999999997
Info: NONBONDED TABLE R-SQUARED SPACING: 0.0625
Info: NONBONDED TABLE SIZE: 705 POINTS
TCL: Running for 1500000 steps
ETITLE: TS BOND ANGLE DIHED IMPRP ELECT VDW BOUNDARY MISC KINETIC TOTAL TEMP POTENTIAL TOTALAVG TEMPAVG PRESSURE GPRESSURE VOLUME PRESSAVG GPRESSAVG
ENERGY: 0 2.9167 7.4706 1.3071 0.0000 -10473.7673 1399.1347 0.0000 0.0000 1705.5841 -7357.3541 294.1864 -9062.9382 -7357.3541 294.1864 -251.1197 -164.3959 29879.2668 -251.1197 -164.3959
ENERGY: 300000 3.8417 5.5615 4.2903 0.0000 -10663.5043 1493.5787 0.0000 0.0000 1690.4441 -7465.7881 291.5750 -9156.2321 -7415.6442 296.6867 491.9254 492.3975 29329.8010 -125.2409 -45.7519
ENERGY: 600000 2.5336 8.4155 0.8345 0.0000 -10635.1614 1467.9790 0.0000 0.0000 1781.7521 -7373.6466 307.3242 -9155.3987 -7403.0854 297.8504 95.8878 171.7982 29970.8619 -103.0587 -37.4794
ENERGY: 900000 2.5239 9.3930 2.4406 0.0000 -10592.9508 1504.1288 0.0000 0.0000 1705.7406 -7368.7239 294.2134 -9074.4645 -7389.8637 299.1558 373.9827 468.6632 30272.8363 -59.4939 7.1446
ENERGY: 1200000 1.0345 7.2815 3.9026 0.0000 -10535.2289 1376.9673 0.0000 0.0000 1689.3419 -7456.7012 291.3849 -9146.0431 -7397.2010 298.1007 -753.0456 -729.8163 30571.5916 -153.1947 -92.3720
ENERGY: 1500000 2.8653 11.4757 4.2883 0.0000 -10632.1918 1463.3694 0.0000 0.0000 1742.8155 -7407.3776 300.6083 -9150.1931 -7404.1530 298.3910 -99.3613 12.4235 30074.7143 -107.0627 -43.7192
TCL: Running FEP window  18: Lambda1 0.1499999999999997 Lambda2 0.09999999999999969 [dLambda -0.05 ]
TCL: Setting parameter firsttimestep to 0
TCL: Setting parameter alchLambda to 0.1499999999999997
Info: NONBONDED TABLE R-SQUARED SPACING: 0.0625
Info: NONBONDED TABLE SIZE: 705 POINTS
TCL: Setting parameter alchLambda2 to 0.09999999999999969
Info: NONBONDED TABLE R-SQUARED SPACING: 0.0625
Info: NONBONDED TABLE SIZE: 705 POINTS
TCL: Running for 1500000 steps
ETITLE: TS BOND ANGLE DIHED IMPRP ELECT VDW BOUNDARY MISC KINETIC TOTAL TEMP POTENTIAL TOTALAVG TEMPAVG PRESSURE GPRESSURE VOLUME PRESSAVG GPRESSAVG
ENERGY: 0 2.8653 11.4757 4.2883 0.0000 -10632.1909 1463.7479 0.0000 0.0000 1741.9608 -7407.8529 300.4609 -9149.8137 -7407.8529 300.4609 -66.0530 12.0425 30074.7143 -66.0530 12.0425
ENERGY: 300000 5.0433 6.8637 4.6294 0.0000 -10748.9626 1539.4664 0.0000 0.0000 1744.4416 -7448.5182 300.8888 -9192.9598 -7395.8008 299.4491 794.0553 879.2918 29544.1849 293.8870 344.8815
ENERGY: 600000 2.0392 5.6425 1.8428 0.0000 -10542.0613 1407.5570 0.0000 0.0000 1732.5630 -7392.4169 298.8399 -9124.9800 -7397.2227 297.2710 -263.9066 -186.3182 29754.7548 -38.0260 16.1403
ENERGY: 900000 4.6773 7.7349 4.2539 0.0000 -10530.4439 1404.1643 0.0000 0.0000 1764.8492 -7344.7644 304.4087 -9109.6136 -7381.1154 299.9144 -325.3978 -293.8642 29935.6777 12.5185 64.4887
ENERGY: 1200000 1.8192 8.2658 3.4296 0.0000 -10535.3597 1427.2440 0.0000 0.0000 1745.8279 -7348.7732 301.1279 -9094.6011 -7370.6635 299.9153 20.6669 77.3766 29693.5490 81.9748 134.6841
ENERGY: 1500000 4.9550 8.4071 2.4503 0.0000 -10592.6721 1433.7338 0.0000 0.0000 1746.5551 -7396.5709 301.2533 -9143.1260 -7361.4424 300.2851 -182.9016 -130.5937 29850.2813 72.5102 121.1134
TCL: Running FEP window  19: Lambda1 0.09999999999999969 Lambda2 0.049999999999999684 [dLambda -0.05 ]
TCL: Setting parameter firsttimestep to 0
TCL: Setting parameter alchLambda to 0.09999999999999969
Info: NONBONDED TABLE R-SQUARED SPACING: 0.0625
Info: NONBONDED TABLE SIZE: 705 POINTS
TCL: Setting parameter alchLambda2 to 0.049999999999999684
Info: NONBONDED TABLE R-SQUARED SPACING: 0.0625
Info: NONBONDED TABLE SIZE: 705 POINTS
TCL: Running for 1500000 steps
ETITLE: TS BOND ANGLE DIHED IMPRP ELECT VDW BOUNDARY MISC KINETIC TOTAL TEMP POTENTIAL TOTALAVG TEMPAVG PRESSURE GPRESSURE VOLUME PRESSAVG GPRESSAVG
ENERGY: 0 4.9550 8.4071 2.4503 0.0000 -10592.6713 1433.8266 0.0000 0.0000 1745.6743 -7397.3581 301.1014 -9143.0324 -7397.3581 301.1014 -210.4350 -133.9964 29850.2813 -210.4350 -133.9964
ENERGY: 300000 2.8120 6.3223 1.0599 0.0000 -10428.5272 1367.6529 0.0000 0.0000 1757.5318 -7293.1482 303.1466 -9050.6800 -7345.3710 301.4271 -361.7141 -302.5901 29990.6375 -51.6246 33.2420
ENERGY: 600000 4.5108 8.0453 4.0035 0.0000 -10621.2701 1484.2231 0.0000 0.0000 1731.7754 -7388.7119 298.7040 -9120.4873 -7347.3805 301.3141 477.6076 575.8054 29586.8743 134.3854 209.0825
ENERGY: 900000 5.2982 9.4090 4.4786 0.0000 -10411.8114 1342.8334 0.0000 0.0000 1730.4823 -7319.3099 298.4810 -9049.7922 -7349.0546 301.9354 -605.6504 -618.7922 29864.6859 -46.6899 13.6956
ENERGY: 1200000 4.5267 15.1224 1.9858 0.0000 -10555.3123 1455.9284 0.0000 0.0000 1679.4808 -7398.2683 289.6840 -9077.7490 -7342.9013 301.8355 -77.1680 -46.0458 30231.1030 -63.7255 -6.6530
ENERGY: 1500000 2.3831 8.7631 2.3119 0.0000 -10415.5718 1371.2913 0.0000 0.0000 1739.7884 -7291.0340 300.0862 -9030.8224 -7338.9442 301.7087 -480.9289 -418.6650 30267.2630 -83.1719 -31.9885
TCL: Running FEP window  20: Lambda1 0.049999999999999684 Lambda2 0.0    [dLambda -0.049999999999999684]
TCL: Setting parameter firsttimestep to 0
TCL: Setting parameter alchLambda to 0.049999999999999684
Info: NONBONDED TABLE R-SQUARED SPACING: 0.0625
Info: NONBONDED TABLE SIZE: 705 POINTS
TCL: Setting parameter alchLambda2 to 0.0
Info: NONBONDED TABLE R-SQUARED SPACING: 0.0625
Info: NONBONDED TABLE SIZE: 705 POINTS
TCL: Running for 1500000 steps
ETITLE: TS BOND ANGLE DIHED IMPRP ELECT VDW BOUNDARY MISC KINETIC TOTAL TEMP POTENTIAL TOTALAVG TEMPAVG PRESSURE GPRESSURE VOLUME PRESSAVG GPRESSAVG
ENERGY: 0 2.3831 8.7631 2.3119 0.0000 -10415.5715 1371.3139 0.0000 0.0000 1738.9157 -7291.8837 299.9356 -9030.7995 -7291.8837 299.9356 -492.5395 -420.1370 30267.2630 -492.5395 -420.1370
ENERGY: 300000 5.1138 8.2723 3.0843 0.0000 -10398.3517 1319.5274 0.0000 0.0000 1742.5086 -7319.8453 300.5553 -9062.3539 -7341.3512 301.9795 -809.6417 -778.5066 29953.4847 -101.8173 -45.1950
ENERGY: 600000 1.6559 7.1045 1.5178 0.0000 -10417.9086 1325.8182 0.0000 0.0000 1738.0840 -7343.7282 299.7922 -9081.8122 -7329.5298 301.2987 -797.6468 -720.0175 29932.9656 -14.8204 45.6984
ENERGY: 900000 3.1521 6.5406 3.1432 0.0000 -10446.3549 1329.2207 0.0000 0.0000 1705.1118 -7399.1865 294.1050 -9104.2983 -7340.1919 300.9376 -861.1054 -742.5799 29990.1287 -90.1208 -19.8816
ENERGY: 1200000 3.0223 10.2419 3.6590 0.0000 -10493.4269 1382.1830 0.0000 0.0000 1702.5793 -7391.7415 293.6682 -9094.3207 -7341.6813 301.3884 -628.4798 -569.2176 30173.5426 -150.0558 -86.0941
ENERGY: 1500000 3.6304 6.4276 3.2018 0.0000 -10589.5159 1459.2518 0.0000 0.0000 1800.4727 -7316.5317 310.5532 -9117.0043 -7339.9140 302.2275 302.5179 356.9060 29640.0010 -124.7337 -65.5831
TCL: Exiting due to exit command.
