Info: SIMULATION PARAMETERS:
Info: TIMESTEP               2
Info: NUMBER OF STEPS        0
Info: STEPS PER CYCLE        10
Info: PERIODIC CELL BASIS 1  31.0245 0 0
Info: PERIODIC CELL BASIS 2  0 29.5418 0
Info: PERIODIC CELL BASIS 3  0 0 33.3762
Info: PERIODIC CELL CENTER   0 0 0
Info: WRAPPING WATERS AROUND PERIODIC BOUNDARIES ON OUTPUT.
Info: WRAPPING ALL CLUSTERS AROUND PERIODIC BOUNDARIES ON OUTPUT.
Info: FIRST LDB TIMESTEP     50
Info: LAST LDB TIMESTEP     -1
Info: HOM BACKGROUND SCALING 1
Info: PME BACKGROUND SCALING 1
Info: MIN ATOMS PER PATCH    40
Info: EMPTY PATCH LOAD       40 ATOMS
Info: VELOCITY FILE          mobley_2451097_equil.vel
Info: CENTER OF MASS MOVING INITIALLY? NO
Info: DIELECTRIC             1
Info: EXCLUDE                SCALED ONE-FOUR
Info: 1-4 ELECTROSTATICS SCALED BY 0.833333
Info: MODIFIED 1-4 VDW PARAMETERS WILL BE USED
Info: DCD FILENAME           mobley_2451097_prod.dcd
Info: DCD FREQUENCY          100000
Info: DCD FIRST STEP         100000
Info: DCD FILE WILL CONTAIN UNIT CELL DATA
Info: XST FILENAME           mobley_2451097_prod.xst
Info: XST FREQUENCY          100000
Info: NO VELOCITY DCD OUTPUT
Info: NO FORCE DCD OUTPUT
Info: OUTPUT FILENAME        mobley_2451097_prod
Info: BINARY OUTPUT FILES WILL BE USED
Info: RESTART FILENAME       mobley_2451097_prod.restart
Info: RESTART FREQUENCY      100000
Info: BINARY RESTART FILES WILL BE USED
Info: CUTOFF                 9
Info: PAIRLIST DISTANCE      11
Info: PAIRLIST SHRINK RATE   0.01
Info: PAIRLIST GROW RATE     0.01
Info: PAIRLIST TRIGGER       0.3
Info: PAIRLISTS PER CYCLE    2
Info: PAIRLISTS ENABLED
Info: MARGIN                 2
Info: HYDROGEN GROUP CUTOFF  2.5
Info: PATCH DIMENSION        15.5
Info: ENERGY OUTPUT STEPS    100000
Info: ENERGY EVALUATION STEPS    100000
Info: OUTPUT ENERGY PRECISION 4
Info: CROSSTERM ENERGY INCLUDED IN DIHEDRAL
Info: TIMING OUTPUT STEPS    1000000
Info: PRESSURE OUTPUT STEPS  100000
Info: ALCHEMICAL FEP ON
Info: FEP CURRENT LAMBDA VALUE     1
Info: FEP COMPARISON LAMBDA VALUE  0.95
Info: FEP INTRA-ALCHEMICAL NON-BONDED INTERACTIONS WILL BE RETAINED
Info: FEP INTRA-ALCHEMICAL BONDED INTERACTIONS WILL BE RETAINED
Info: FEP VDW SHIFTING COEFFICIENT 5
Info: FEP ELEC. ACTIVE FOR ANNIHILATED PARTICLES BETWEEN LAMBDA = 0 AND LAMBDA = 0.5
Info: FEP ELEC. ACTIVE FOR EXNIHILATED PARTICLES BETWEEN LAMBDA = 0.5 AND LAMBDA = 1
Info: FEP VDW ACTIVE FOR ANNIHILATED PARTICLES BETWEEN LAMBDA = 0 AND LAMBDA = 1
Info: FEP VDW ACTIVE FOR EXNIHILATED PARTICLES BETWEEN LAMBDA = 0 AND LAMBDA = 1
Info: FEP BOND ACTIVE FOR ANNIHILATED PARTICLES BETWEEN LAMBDA = 1 AND LAMBDA = 1
Info: FEP BOND ACTIVE FOR EXNIHILATED PARTICLES BETWEEN LAMBDA = 0 AND LAMBDA = 0
Info: LANGEVIN DYNAMICS ACTIVE
Info: LANGEVIN TEMPERATURE   300
Info: LANGEVIN USING BBK INTEGRATOR
Info: LANGEVIN DAMPING COEFFICIENT IS 1 INVERSE PS
Info: LANGEVIN DYNAMICS APPLIED TO HYDROGENS
Info: LANGEVIN PISTON PRESSURE CONTROL ACTIVE
Info:        TARGET PRESSURE IS 1.01325 BAR
Info:     OSCILLATION PERIOD IS 50 FS
Info:             DECAY TIME IS 25 FS
Info:     PISTON TEMPERATURE IS 300 K
Info:       PRESSURE CONTROL IS GROUP-BASED
Info:    INITIAL STRAIN RATE IS 0.000530122 0.000530122 0.000530122
Info:       CELL FLUCTUATION IS ISOTROPIC
Info: PARTICLE MESH EWALD (PME) ACTIVE
Info: PME TOLERANCE               1e-06
Info: PME EWALD COEFFICIENT       0.348832
Info: PME INTERPOLATION ORDER     4
Info: PME GRID DIMENSIONS         32 32 36
Info: PME MAXIMUM GRID SPACING    1
Info: PME CALCULATION WILL BE PERFORMED ON GPU
Info: FULL ELECTROSTATIC EVALUATION FREQUENCY      2
Info: USING VERLET I (r-RESPA) MTS SCHEME.
Info: C1 SPLITTING OF LONG RANGE ELECTROSTATICS
Info: PLACING ATOMS IN PATCHES BY HYDROGEN GROUPS
Info: RIGID BONDS TO HYDROGEN : ALL
Info:         ERROR TOLERANCE : 1e-08
Info:          MAX ITERATIONS : 100
Info: RIGID WATER USING SETTLE ALGORITHM
Info: RANDOM NUMBER SEED     1743561992
Info: USE HYDROGEN BONDS?    NO
Info: Using AMBER format force field!
Info: AMBER PARM FILE        mobley_2451097.prmtop
Info: COORDINATE PDB         mobley_2451097.pdb
Info: Exclusions will be read from PARM file!
Info: SCNB (VDW SCALING)     2
Info: USING ARITHMETIC MEAN TO COMBINE L-J SIGMA PARAMETERS
Info: BINARY COORDINATES     mobley_2451097_equil.coor
Info: SUMMARY OF PARAMETERS:
Info: 6 BONDS
Info: 4 ANGLES
Info:   4 HARMONIC
Info:   0 COSINE-BASED
Info: 3 DIHEDRAL
Info: 0 IMPROPER
Info: 0 CROSSTERM
Info: 0 VDW
Info: 21 VDW_PAIRS
Info: 0 NBTHOLE_PAIRS
Info: To read alchdata from file: mobley_2451097.pdb
Info: To read alchflag data from column: 5
Info: STRUCTURE SUMMARY:
Info: 2950 ATOMS
Info: 2950 BONDS
Info: 19 ANGLES
Info: 32 DIHEDRALS
Info: 0 IMPROPERS
Info: 0 CROSSTERMS
Info: 2992 EXCLUSIONS
Info: 2942 RIGID BONDS
Info: ALCH: 0 ATOMS TO DISAPPEAR IN FINAL STATE
Info: ALCH: 13 ATOMS TO APPEAR IN FINAL STATE
Info: 5908 DEGREES OF FREEDOM
Info: 987 HYDROGEN GROUPS
Info: 3 ATOMS IN LARGEST HYDROGEN GROUP
Info: 987 MIGRATION GROUPS
Info: 3 ATOMS IN LARGEST MIGRATION GROUP
Info: TOTAL MASS = 17740.8 amu
Info: TOTAL CHARGE = -9.99905e-05 e
Info: MASS DENSITY = 0.963057 g/cm^3
Info: ATOM DENSITY = 0.0964366 atoms/A^3
Info: ADDED 0 IMPLICIT EXCLUSIONS
Info: NONBONDED TABLE R-SQUARED SPACING: 0.0625
Info: NONBONDED TABLE SIZE: 705 POINTS
Info: REMOVING COM VELOCITY 0.0948117 -0.187655 -0.117285
Info: Use 3D box decompostion in PME FFT.
Info: Updated CUDA force table with 4096 elements.
Info: Updated CUDA LJ table with 6 x 6 elements.
Info: Found 15 unique exclusion lists needing 28 bytes
TCL: Running for 1500000 steps
ETITLE: TS BOND ANGLE DIHED IMPRP ELECT VDW BOUNDARY MISC KINETIC TOTAL TEMP POTENTIAL TOTALAVG TEMPAVG PRESSURE GPRESSURE VOLUME PRESSAVG GPRESSAVG
ENERGY: 0 2.3253 5.4157 3.9520 0.0000 -10668.8070 1395.5898 0.0000 0.0000 1770.9946 -7490.5296 301.6943 -9261.5243 -7490.5296 301.6943 -517.9226 -441.7582 30590.0317 -517.9226 -441.7582
ENERGY: 300000 5.6714 3.1652 6.2830 0.0000 -10663.8414 1379.9696 0.0000 0.0000 1770.5398 -7498.2124 301.6168 -9268.7522 -7502.0081 302.0801 -737.2928 -648.8064 30581.7272 -441.6659 -369.3624
ENERGY: 600000 1.2837 2.5831 2.6009 0.0000 -10760.9571 1460.0669 0.0000 0.0000 1824.5886 -7469.8339 310.8242 -9294.4225 -7478.4444 304.2213 170.3603 190.5518 30380.9756 -211.0226 -150.5991
ENERGY: 900000 2.1101 3.7675 3.3867 0.0000 -10660.3798 1433.1140 0.0000 0.0000 1734.6027 -7483.3988 295.4949 -9218.0015 -7482.2192 303.1368 -205.3197 -161.7920 30705.7879 -169.6437 -121.3983
ENERGY: 1200000 2.7872 2.1289 3.7083 0.0000 -10645.1188 1380.2456 0.0000 0.0000 1819.6806 -7436.5682 309.9881 -9256.2488 -7471.4013 303.9304 -496.1292 -397.1247 30312.9517 -208.2121 -153.0042
ENERGY: 1500000 4.6585 1.5533 1.5752 0.0000 -10508.6445 1330.8283 0.0000 0.0000 1715.5889 -7454.4404 292.2558 -9170.0293 -7481.6990 302.1900 -974.9714 -886.4173 30859.1681 -287.3415 -231.2937
TCL: Running FEP window   2: Lambda1 0.95   Lambda2 0.8999999999999999 [dLambda -0.050000000000000044]
TCL: Setting parameter firsttimestep to 0
TCL: Setting parameter alchLambda to 0.95
Info: NONBONDED TABLE R-SQUARED SPACING: 0.0625
Info: NONBONDED TABLE SIZE: 705 POINTS
TCL: Setting parameter alchLambda2 to 0.8999999999999999
Info: NONBONDED TABLE R-SQUARED SPACING: 0.0625
Info: NONBONDED TABLE SIZE: 705 POINTS
TCL: Running for 1500000 steps
ETITLE: TS BOND ANGLE DIHED IMPRP ELECT VDW BOUNDARY MISC KINETIC TOTAL TEMP POTENTIAL TOTALAVG TEMPAVG PRESSURE GPRESSURE VOLUME PRESSAVG GPRESSAVG
ENERGY: 0 4.6585 1.5533 1.5752 0.0000 -10507.7774 1330.7587 0.0000 0.0000 1714.6825 -7454.5492 292.1014 -9169.2317 -7454.5492 292.1014 -988.6235 -897.7095 30859.1681 -988.6235 -897.7095
ENERGY: 300000 1.5491 2.4986 2.0593 0.0000 -10670.6304 1385.4228 0.0000 0.0000 1781.5855 -7497.5151 303.4985 -9279.1006 -7463.4970 301.4714 -607.5379 -524.6186 30862.4853 -552.3236 -458.1879
ENERGY: 600000 0.7579 2.2752 5.4827 0.0000 -10738.0717 1398.5271 0.0000 0.0000 1741.5042 -7589.5246 296.6705 -9331.0288 -7503.9733 299.4188 -402.3911 -399.3783 30203.0381 -357.3879 -279.9701
ENERGY: 900000 5.7129 3.8653 2.9627 0.0000 -10687.5082 1387.3079 0.0000 0.0000 1743.4813 -7544.1781 297.0074 -9287.6594 -7511.1768 298.6226 -477.8585 -450.2288 30321.6071 -284.6599 -216.9185
ENERGY: 1200000 2.7086 2.2374 3.7098 0.0000 -10831.6570 1491.3502 0.0000 0.0000 1779.9754 -7551.6756 303.2242 -9331.6510 -7511.2274 299.0714 -54.6020 -10.7377 30580.2829 -322.1121 -253.9896
ENERGY: 1500000 2.9261 1.1133 3.4137 0.0000 -10671.3537 1450.8685 0.0000 0.0000 1763.9517 -7449.0804 300.4945 -9213.0321 -7493.5152 299.9119 372.9481 444.4308 30250.7152 -163.6534 -102.2569
TCL: Running FEP window   3: Lambda1 0.8999999999999999 Lambda2 0.8499999999999999 [dLambda -0.050000000000000044]
TCL: Setting parameter firsttimestep to 0
TCL: Setting parameter alchLambda to 0.8999999999999999
Info: NONBONDED TABLE R-SQUARED SPACING: 0.0625
Info: NONBONDED TABLE SIZE: 705 POINTS
TCL: Setting parameter alchLambda2 to 0.8499999999999999
Info: NONBONDED TABLE R-SQUARED SPACING: 0.0625
Info: NONBONDED TABLE SIZE: 705 POINTS
TCL: Running for 1500000 steps
ETITLE: TS BOND ANGLE DIHED IMPRP ELECT VDW BOUNDARY MISC KINETIC TOTAL TEMP POTENTIAL TOTALAVG TEMPAVG PRESSURE GPRESSURE VOLUME PRESSAVG GPRESSAVG
ENERGY: 0 2.9261 1.1133 3.4137 0.0000 -10670.3996 1451.1387 0.0000 0.0000 1763.1028 -7448.7050 300.3499 -9211.8078 -7448.7050 300.3499 346.1104 440.0458 30250.7152 346.1104 440.0458
ENERGY: 300000 3.3200 4.5474 2.4030 0.0000 -10610.5275 1415.8007 0.0000 0.0000 1760.0279 -7424.4284 299.8261 -9184.4563 -7445.9999 302.7431 136.7440 275.7111 30104.4807 107.9103 217.6339
ENERGY: 600000 3.8239 1.6006 2.6899 0.0000 -10672.6613 1410.1209 0.0000 0.0000 1766.4228 -7488.0031 300.9155 -9254.4259 -7467.5953 302.2898 -316.3671 -233.2758 30402.1294 -44.7856 44.0074
ENERGY: 900000 3.4376 2.3451 1.4915 0.0000 -10612.9322 1414.8140 0.0000 0.0000 1695.7397 -7495.1044 288.8744 -9190.8440 -7468.5347 300.6041 -423.7469 -314.2802 30741.6382 -122.6319 -40.3253
ENERGY: 1200000 1.9761 2.6221 1.9093 0.0000 -10684.4993 1472.2526 0.0000 0.0000 1761.7546 -7443.9846 300.1203 -9205.7393 -7472.6237 300.4652 235.1216 352.5739 30730.7377 14.6623 100.8923
ENERGY: 1500000 1.7728 0.7323 1.2941 0.0000 -10779.8972 1464.2241 0.0000 0.0000 1768.7174 -7543.1565 301.3064 -9311.8739 -7476.8063 300.4308 80.5463 153.8132 30136.0574 29.2245 114.9093
TCL: Running FEP window   4: Lambda1 0.8499999999999999 Lambda2 0.7999999999999998 [dLambda -0.050000000000000044]
TCL: Setting parameter firsttimestep to 0
TCL: Setting parameter alchLambda to 0.8499999999999999
Info: NONBONDED TABLE R-SQUARED SPACING: 0.0625
Info: NONBONDED TABLE SIZE: 705 POINTS
TCL: Setting parameter alchLambda2 to 0.7999999999999998
Info: NONBONDED TABLE R-SQUARED SPACING: 0.0625
Info: NONBONDED TABLE SIZE: 705 POINTS
TCL: Running for 1500000 steps
ETITLE: TS BOND ANGLE DIHED IMPRP ELECT VDW BOUNDARY MISC KINETIC TOTAL TEMP POTENTIAL TOTALAVG TEMPAVG PRESSURE GPRESSURE VOLUME PRESSAVG GPRESSAVG
ENERGY: 0 1.7728 0.7323 1.2941 0.0000 -10778.7049 1464.6192 0.0000 0.0000 1767.8335 -7542.4530 301.1558 -9310.2865 -7542.4530 301.1558 60.9374 148.8912 30136.0574 60.9374 148.8912
ENERGY: 300000 4.1213 1.7025 2.3004 0.0000 -10660.2832 1384.7777 0.0000 0.0000 1777.4115 -7489.9698 302.7875 -9267.3813 -7477.6391 303.9321 -470.4596 -393.0208 30202.1466 -194.4083 -135.6998
ENERGY: 600000 3.0757 2.4478 4.5854 0.0000 -10765.9489 1464.2124 0.0000 0.0000 1771.8778 -7519.7499 301.8448 -9291.6277 -7476.6879 303.1801 497.7919 567.2232 29776.9522 -187.5486 -120.2620
ENERGY: 900000 1.4414 4.7911 3.1726 0.0000 -10731.0129 1473.1772 0.0000 0.0000 1799.9378 -7448.4929 306.6249 -9248.4307 -7471.0926 302.5669 262.0538 290.4080 30480.2487 -192.1669 -136.0565
ENERGY: 1200000 4.6028 6.1462 2.9741 0.0000 -10536.2694 1338.4390 0.0000 0.0000 1787.0653 -7397.0419 304.4320 -9184.1073 -7456.4980 303.8498 -653.1754 -642.9042 30599.5468 -264.2274 -215.1966
ENERGY: 1500000 4.4389 2.6424 4.2405 0.0000 -10654.2492 1398.9541 0.0000 0.0000 1725.1117 -7518.8615 293.8780 -9243.9732 -7476.6117 302.2676 -415.6263 -311.4998 30650.5160 -200.1678 -146.6196
TCL: Running FEP window   5: Lambda1 0.7999999999999998 Lambda2 0.7499999999999998 [dLambda -0.050000000000000044]
TCL: Setting parameter firsttimestep to 0
TCL: Setting parameter alchLambda to 0.7999999999999998
Info: NONBONDED TABLE R-SQUARED SPACING: 0.0625
Info: NONBONDED TABLE SIZE: 705 POINTS
TCL: Setting parameter alchLambda2 to 0.7499999999999998
Info: NONBONDED TABLE R-SQUARED SPACING: 0.0625
Info: NONBONDED TABLE SIZE: 705 POINTS
TCL: Running for 1500000 steps
ETITLE: TS BOND ANGLE DIHED IMPRP ELECT VDW BOUNDARY MISC KINETIC TOTAL TEMP POTENTIAL TOTALAVG TEMPAVG PRESSURE GPRESSURE VOLUME PRESSAVG GPRESSAVG
ENERGY: 0 4.4389 2.6424 4.2405 0.0000 -10653.3644 1399.2125 0.0000 0.0000 1724.2515 -7518.5786 293.7315 -9242.8301 -7518.5786 293.7315 -408.0209 -316.3793 30650.5160 -408.0209 -316.3793
ENERGY: 300000 3.0191 3.6406 2.9828 0.0000 -10753.6924 1495.4830 0.0000 0.0000 1776.4444 -7472.1225 302.6227 -9248.5669 -7509.7039 295.8824 605.8791 643.3387 30242.6043 -171.2498 -99.5426
ENERGY: 600000 2.4903 1.9238 1.7121 0.0000 -10606.5359 1394.0136 0.0000 0.0000 1760.9224 -7445.4737 299.9785 -9206.3961 -7484.6332 297.6740 -361.9588 -300.2219 30839.5916 -233.4144 -163.7348
ENERGY: 900000 1.6517 2.7105 4.5614 0.0000 -10695.1196 1428.9791 0.0000 0.0000 1754.9401 -7502.2769 298.9594 -9257.2169 -7479.7896 299.1136 25.3625 66.2938 30167.8830 -143.1799 -71.5397
ENERGY: 1200000 3.8949 7.1454 5.2779 0.0000 -10735.5188 1496.2837 0.0000 0.0000 1781.4186 -7441.4983 303.4701 -9222.9169 -7482.1443 299.3374 368.4305 405.5829 30634.9937 -39.2762 21.1267
ENERGY: 1500000 3.4786 3.7833 4.4188 0.0000 -10783.5960 1498.5578 0.0000 0.0000 1705.0801 -7568.2774 290.4656 -9273.3575 -7483.1860 299.1534 748.6525 829.5585 29553.3632 48.1938 110.2134
TCL: Running FEP window   6: Lambda1 0.7499999999999998 Lambda2 0.6999999999999997 [dLambda -0.050000000000000044]
TCL: Setting parameter firsttimestep to 0
TCL: Setting parameter alchLambda to 0.7499999999999998
Info: NONBONDED TABLE R-SQUARED SPACING: 0.0625
Info: NONBONDED TABLE SIZE: 705 POINTS
TCL: Setting parameter alchLambda2 to 0.6999999999999997
Info: NONBONDED TABLE R-SQUARED SPACING: 0.0625
Info: NONBONDED TABLE SIZE: 705 POINTS
TCL: Running for 1500000 steps
ETITLE: TS BOND ANGLE DIHED IMPRP ELECT VDW BOUNDARY MISC KINETIC TOTAL TEMP POTENTIAL TOTALAVG TEMPAVG PRESSURE GPRESSURE VOLUME PRESSAVG GPRESSAVG
ENERGY: 0 3.4786 3.7833 4.4188 0.0000 -10783.0575 1498.7030 0.0000 0.0000 1704.2128 -7568.4610 290.3178 -9272.6738 -7568.4610 290.3178 728.9059 819.6530 29553.3632 728.9059 819.6530
ENERGY: 300000 1.8531 2.7606 4.4514 0.0000 -10612.1566 1374.7653 0.0000 0.0000 1817.4971 -7410.8290 309.6162 -9228.3262 -7465.9893 302.7812 -565.2951 -504.2092 30793.8523 21.9526 79.5879
ENERGY: 600000 3.7723 2.5295 2.5816 0.0000 -10570.0040 1325.2651 0.0000 0.0000 1699.2259 -7536.6298 289.4683 -9235.8556 -7463.9857 302.5034 -1038.3825 -930.7663 30948.8807 -135.1090 -73.9027
ENERGY: 900000 6.9593 1.4919 3.1794 0.0000 -10747.0639 1459.5854 0.0000 0.0000 1790.1684 -7485.6796 304.9606 -9275.8479 -7464.2848 302.9196 232.6503 335.7842 30194.9636 -109.9723 -37.6669
ENERGY: 1200000 0.7940 2.7243 2.2860 0.0000 -10767.9167 1467.4159 0.0000 0.0000 1745.8407 -7548.8558 297.4093 -9294.6965 -7478.1212 301.5441 58.0525 165.6393 30476.3284 -95.1060 -21.9480
ENERGY: 1500000 2.0101 2.8541 5.6047 0.0000 -10615.6834 1408.3453 0.0000 0.0000 1758.2110 -7438.6582 299.5166 -9196.8692 -7474.1601 301.2265 90.4733 144.6121 30052.5930 -111.3121 -41.9922
TCL: Running FEP window   7: Lambda1 0.6999999999999997 Lambda2 0.6499999999999997 [dLambda -0.050000000000000044]
TCL: Setting parameter firsttimestep to 0
TCL: Setting parameter alchLambda to 0.6999999999999997
Info: NONBONDED TABLE R-SQUARED SPACING: 0.0625
Info: NONBONDED TABLE SIZE: 705 POINTS
TCL: Setting parameter alchLambda2 to 0.6499999999999997
Info: NONBONDED TABLE R-SQUARED SPACING: 0.0625
Info: NONBONDED TABLE SIZE: 705 POINTS
TCL: Running for 1500000 steps
ETITLE: TS BOND ANGLE DIHED IMPRP ELECT VDW BOUNDARY MISC KINETIC TOTAL TEMP POTENTIAL TOTALAVG TEMPAVG PRESSURE GPRESSURE VOLUME PRESSAVG GPRESSAVG
ENERGY: 0 2.0101 2.8541 5.6047 0.0000 -10614.7100 1408.6099 0.0000 0.0000 1757.3447 -7438.2864 299.3690 -9195.6312 -7438.2864 299.3690 40.2127 140.5941 30052.5930 40.2127 140.5941
ENERGY: 300000 1.6639 1.9955 3.7841 0.0000 -10894.9318 1546.8407 0.0000 0.0000 1785.4635 -7555.1841 304.1591 -9340.6476 -7485.9405 300.0780 695.1391 738.7195 29925.3725 80.5707 120.7784
ENERGY: 600000 3.6933 3.6797 4.8723 0.0000 -10755.1788 1482.0774 0.0000 0.0000 1799.6596 -7461.1963 306.5775 -9260.8560 -7479.6610 301.4603 431.3448 501.0619 30213.6805 123.3038 175.0113
ENERGY: 900000 0.7411 4.1199 2.3649 0.0000 -10583.4612 1395.5264 0.0000 0.0000 1776.9604 -7403.7485 302.7106 -9180.7089 -7478.7049 301.0711 -103.6633 34.9668 30272.5210 17.1902 74.7535
ENERGY: 1200000 1.4917 3.9765 2.3161 0.0000 -10615.6036 1383.7715 0.0000 0.0000 1747.6903 -7476.3575 297.7244 -9224.0478 -7471.3954 300.4450 -536.8650 -452.4937 30645.4737 76.8039 146.2137
ENERGY: 1500000 6.6201 4.1152 3.3233 0.0000 -10600.1197 1405.2857 0.0000 0.0000 1716.0256 -7464.7498 292.3302 -9180.7755 -7466.5829 300.5599 -164.0805 -106.7449 30706.8835 51.8800 114.0344
TCL: Running FEP window   8: Lambda1 0.6499999999999997 Lambda2 0.5999999999999996 [dLambda -0.050000000000000044]
TCL: Setting parameter firsttimestep to 0
TCL: Setting parameter alchLambda to 0.6499999999999997
Info: NONBONDED TABLE R-SQUARED SPACING: 0.0625
Info: NONBONDED TABLE SIZE: 705 POINTS
TCL: Setting parameter alchLambda2 to 0.5999999999999996
Info: NONBONDED TABLE R-SQUARED SPACING: 0.0625
Info: NONBONDED TABLE SIZE: 705 POINTS
TCL: Running for 1500000 steps
ETITLE: TS BOND ANGLE DIHED IMPRP ELECT VDW BOUNDARY MISC KINETIC TOTAL TEMP POTENTIAL TOTALAVG TEMPAVG PRESSURE GPRESSURE VOLUME PRESSAVG GPRESSAVG
ENERGY: 0 6.6201 4.1152 3.3233 0.0000 -10599.4718 1405.2281 0.0000 0.0000 1715.1341 -7465.0510 292.1783 -9180.1852 -7465.0510 292.1783 -198.4578 -116.8001 30706.8835 -198.4578 -116.8001
ENERGY: 300000 5.8135 2.5452 2.1345 0.0000 -10715.3752 1487.9375 0.0000 0.0000 1723.2496 -7493.6948 293.5608 -9216.9444 -7479.4070 293.0634 105.8634 201.4396 30520.2698 241.6854 325.8111
ENERGY: 600000 2.8187 2.0607 3.0356 0.0000 -10712.7131 1436.0584 0.0000 0.0000 1737.1403 -7531.5994 295.9271 -9268.7397 -7505.8390 294.8168 -125.9173 -71.7184 30572.2606 12.9116 92.2859
ENERGY: 900000 5.0542 3.1862 2.9933 0.0000 -10620.7133 1362.0213 0.0000 0.0000 1807.9914 -7439.4668 307.9968 -9247.4583 -7482.5134 298.6765 -668.8803 -596.4541 30470.2637 -83.9878 0.4758
ENERGY: 1200000 1.5212 3.0372 3.5093 0.0000 -10519.8589 1395.8095 0.0000 0.0000 1769.7287 -7346.2530 301.4787 -9115.9816 -7474.3481 298.9341 -328.1490 -287.4241 30964.5957 -36.6570 40.1516
ENERGY: 1500000 1.0275 2.0366 2.4132 0.0000 -10641.1189 1416.6810 0.0000 0.0000 1757.8766 -7461.0840 299.4596 -9218.9607 -7475.3200 299.4281 -269.7407 -159.8332 30572.2542 -34.3467 31.2819
TCL: Running FEP window   9: Lambda1 0.5999999999999996 Lambda2 0.5499999999999996 [dLambda -0.050000000000000044]
TCL: Setting parameter firsttimestep to 0
TCL: Setting parameter alchLambda to 0.5999999999999996
Info: NONBONDED TABLE R-SQUARED SPACING: 0.0625
Info: NONBONDED TABLE SIZE: 705 POINTS
TCL: Setting parameter alchLambda2 to 0.5499999999999996
Info: NONBONDED TABLE R-SQUARED SPACING: 0.0625
Info: NONBONDED TABLE SIZE: 705 POINTS
TCL: Running for 1500000 steps
ETITLE: TS BOND ANGLE DIHED IMPRP ELECT VDW BOUNDARY MISC KINETIC TOTAL TEMP POTENTIAL TOTALAVG TEMPAVG PRESSURE GPRESSURE VOLUME PRESSAVG GPRESSAVG
ENERGY: 0 1.0275 2.0366 2.4132 0.0000 -10640.9711 1417.1531 0.0000 0.0000 1756.9974 -7461.3432 299.3099 -9218.3406 -7461.3432 299.3099 -245.5364 -163.5884 30572.2542 -245.5364 -163.5884
ENERGY: 300000 1.5268 6.2518 2.1678 0.0000 -10639.7052 1387.7137 0.0000 0.0000 1814.1944 -7427.8508 309.0535 -9242.0452 -7447.5110 301.9072 -218.0260 -190.7486 30175.6831 -85.2102 -22.7152
ENERGY: 600000 2.2812 3.0174 5.5175 0.0000 -10658.9674 1436.7692 0.0000 0.0000 1795.8462 -7415.5359 305.9279 -9211.3821 -7461.2862 301.4581 69.4616 131.2521 30539.6610 -98.3922 -33.4014
ENERGY: 900000 4.8562 5.8036 2.3670 0.0000 -10650.3385 1465.5284 0.0000 0.0000 1745.2717 -7426.5116 297.3124 -9171.7833 -7465.4828 299.9465 557.0962 586.4518 30089.0073 -82.4563 -30.7876
ENERGY: 1200000 3.8300 2.7469 3.9644 0.0000 -10874.6457 1592.7735 0.0000 0.0000 1799.4656 -7471.8654 306.5444 -9271.3310 -7463.1444 300.8795 1172.0863 1198.4800 30230.0499 26.1845 77.4171
ENERGY: 1500000 6.0226 3.3474 2.7159 0.0000 -10618.3602 1368.2933 0.0000 0.0000 1805.6598 -7432.3213 307.5996 -9237.9811 -7466.3899 300.3303 -626.4175 -522.3350 30281.0102 -60.5300 -9.3493
TCL: Running FEP window  10: Lambda1 0.5499999999999996 Lambda2 0.4999999999999996 [dLambda -0.04999999999999999]
TCL: Setting parameter firsttimestep to 0
TCL: Setting parameter alchLambda to 0.5499999999999996
Info: NONBONDED TABLE R-SQUARED SPACING: 0.0625
Info: NONBONDED TABLE SIZE: 705 POINTS
TCL: Setting parameter alchLambda2 to 0.4999999999999996
Info: NONBONDED TABLE R-SQUARED SPACING: 0.0625
Info: NONBONDED TABLE SIZE: 705 POINTS
TCL: Running for 1500000 steps
ETITLE: TS BOND ANGLE DIHED IMPRP ELECT VDW BOUNDARY MISC KINETIC TOTAL TEMP POTENTIAL TOTALAVG TEMPAVG PRESSURE GPRESSURE VOLUME PRESSAVG GPRESSAVG
ENERGY: 0 6.0226 3.3474 2.7159 0.0000 -10617.6642 1368.5730 0.0000 0.0000 1804.7720 -7432.2333 307.4484 -9237.0054 -7432.2333 307.4484 -621.3985 -524.4824 30281.0102 -621.3985 -524.4824
ENERGY: 300000 1.5864 2.3533 2.1246 0.0000 -10721.7010 1458.1046 0.0000 0.0000 1794.5666 -7462.9654 305.7099 -9257.5321 -7475.1741 302.9020 317.1928 320.8795 30181.1033 -114.1174 -51.7970
ENERGY: 600000 1.4694 3.7141 3.5500 0.0000 -10693.1149 1439.8214 0.0000 0.0000 1717.1884 -7527.3714 292.5283 -9244.5599 -7496.1823 300.0507 -26.2500 29.4980 30348.1580 81.8013 139.7255
ENERGY: 900000 3.5141 2.1758 2.8755 0.0000 -10617.1853 1391.9918 0.0000 0.0000 1747.5920 -7469.0362 297.7076 -9216.6282 -7482.2689 299.8016 -716.8826 -681.0574 30779.1995 -6.7693 54.1766
ENERGY: 1200000 1.5499 2.1207 2.5165 0.0000 -10842.0038 1564.2258 0.0000 0.0000 1767.2683 -7504.3226 301.0595 -9271.5909 -7480.9745 300.0119 663.7819 743.8206 30460.0782 -7.5968 53.9732
ENERGY: 1500000 2.4532 4.3016 1.4290 0.0000 -10572.5368 1436.3817 0.0000 0.0000 1745.9617 -7382.0096 297.4299 -9127.9713 -7474.5126 300.0930 -40.1152 40.9482 30915.0457 -43.1297 11.7136
TCL: Running FEP window  11: Lambda1 0.4999999999999996 Lambda2 0.4499999999999996 [dLambda -0.04999999999999999]
TCL: Setting parameter firsttimestep to 0
TCL: Setting parameter alchLambda to 0.4999999999999996
Info: NONBONDED TABLE R-SQUARED SPACING: 0.0625
Info: NONBONDED TABLE SIZE: 705 POINTS
TCL: Setting parameter alchLambda2 to 0.4499999999999996
Info: NONBONDED TABLE R-SQUARED SPACING: 0.0625
Info: NONBONDED TABLE SIZE: 705 POINTS
TCL: Running for 1500000 steps
ETITLE: TS BOND ANGLE DIHED IMPRP ELECT VDW BOUNDARY MISC KINETIC TOTAL TEMP POTENTIAL TOTALAVG TEMPAVG PRESSURE GPRESSURE VOLUME PRESSAVG GPRESSAVG
ENERGY: 0 2.4532 4.3016 1.4290 0.0000 -10572.1387 1436.4184 0.0000 0.0000 1745.0756 -7382.4609 297.2789 -9127.5365 -7382.4609 297.2789 -56.9331 35.5069 30915.0457 -56.9331 35.5069
ENERGY: 300000 1.8625 1.9872 4.1449 0.0000 -10658.4166 1411.5378 0.0000 0.0000 1805.6572 -7433.2269 307.5992 -9238.8841 -7446.9029 299.5816 -234.0750 -169.4037 30459.8056 -64.6128 21.6458
ENERGY: 600000 3.7605 3.5570 1.9355 0.0000 -10582.6185 1379.4007 0.0000 0.0000 1759.5784 -7434.3865 299.7495 -9193.9649 -7473.6637 297.5766 -337.2458 -321.0886 30387.7460 -161.1974 -94.7711
ENERGY: 900000 4.1646 3.6666 4.3253 0.0000 -10653.2368 1408.7476 0.0000 0.0000 1696.1180 -7536.2147 288.9389 -9232.3327 -7480.5251 297.3089 -399.0142 -324.5727 30406.7902 -198.0360 -134.8913
ENERGY: 1200000 3.0361 1.8909 5.0666 0.0000 -10558.9486 1319.0555 0.0000 0.0000 1771.6277 -7458.2718 301.8022 -9229.8995 -7479.4387 298.3770 -842.6900 -773.1741 30250.5930 -275.7250 -209.7086
ENERGY: 1500000 3.4875 4.6392 2.2837 0.0000 -10665.8474 1331.6764 0.0000 0.0000 1702.1055 -7621.6551 289.9589 -9323.7606 -7488.8731 298.5082 -1000.1059 -930.8395 30083.1260 -284.1142 -218.8224
TCL: Running FEP window  12: Lambda1 0.4499999999999996 Lambda2 0.39999999999999963 [dLambda -0.04999999999999999]
TCL: Setting parameter firsttimestep to 0
TCL: Setting parameter alchLambda to 0.4499999999999996
Info: NONBONDED TABLE R-SQUARED SPACING: 0.0625
Info: NONBONDED TABLE SIZE: 705 POINTS
TCL: Setting parameter alchLambda2 to 0.39999999999999963
Info: NONBONDED TABLE R-SQUARED SPACING: 0.0625
Info: NONBONDED TABLE SIZE: 705 POINTS
TCL: Running for 1500000 steps
ETITLE: TS BOND ANGLE DIHED IMPRP ELECT VDW BOUNDARY MISC KINETIC TOTAL TEMP POTENTIAL TOTALAVG TEMPAVG PRESSURE GPRESSURE VOLUME PRESSAVG GPRESSAVG
ENERGY: 0 3.4875 4.6392 2.2837 0.0000 -10665.8467 1331.6982 0.0000 0.0000 1701.2395 -7622.4986 289.8113 -9323.7381 -7622.4986 289.8113 -1023.5797 -937.8632 30083.1260 -1023.5797 -937.8632
ENERGY: 300000 3.2566 1.8992 2.5211 0.0000 -10756.2903 1508.7276 0.0000 0.0000 1793.9677 -7445.9181 305.6079 -9239.8858 -7530.3497 296.8015 571.7035 660.9709 29996.1537 15.3834 83.1668
ENERGY: 600000 2.9859 2.4510 1.9318 0.0000 -10630.0049 1456.8653 0.0000 0.0000 1733.1981 -7432.5728 295.2556 -9165.7709 -7479.1463 298.7805 96.5504 194.6565 30741.9956 194.4260 279.4399
ENERGY: 900000 3.4253 5.4951 3.1372 0.0000 -10686.9538 1433.2729 0.0000 0.0000 1769.5092 -7472.1140 301.4413 -9241.6233 -7482.8699 298.6643 -306.1791 -259.0992 30517.5286 15.1685 89.8923
ENERGY: 1200000 2.0932 3.9425 4.9386 0.0000 -10653.4906 1400.3453 0.0000 0.0000 1740.6114 -7501.5594 296.5185 -9242.1708 -7489.8740 298.6544 -206.1587 -64.1641 30151.3846 139.8720 219.0389
ENERGY: 1500000 1.4123 1.4874 1.2765 0.0000 -10672.8274 1454.9252 0.0000 0.0000 1694.6153 -7519.1107 288.6829 -9213.7260 -7487.0144 298.6419 -58.2566 -30.7400 30668.2197 166.5143 240.2545
TCL: Running FEP window  13: Lambda1 0.39999999999999963 Lambda2 0.34999999999999964 [dLambda -0.04999999999999999]
TCL: Setting parameter firsttimestep to 0
TCL: Setting parameter alchLambda to 0.39999999999999963
Info: NONBONDED TABLE R-SQUARED SPACING: 0.0625
Info: NONBONDED TABLE SIZE: 705 POINTS
TCL: Setting parameter alchLambda2 to 0.34999999999999964
Info: NONBONDED TABLE R-SQUARED SPACING: 0.0625
Info: NONBONDED TABLE SIZE: 705 POINTS
TCL: Running for 1500000 steps
ETITLE: TS BOND ANGLE DIHED IMPRP ELECT VDW BOUNDARY MISC KINETIC TOTAL TEMP POTENTIAL TOTALAVG TEMPAVG PRESSURE GPRESSURE VOLUME PRESSAVG GPRESSAVG
ENERGY: 0 1.4123 1.4874 1.2765 0.0000 -10672.8291 1454.7184 0.0000 0.0000 1693.7325 -7520.2020 288.5325 -9213.9345 -7520.2020 288.5325 -112.0551 -38.8949 30668.2197 -112.0551 -38.8949
ENERGY: 300000 3.0285 1.7391 2.4302 0.0000 -10652.5191 1403.2157 0.0000 0.0000 1748.6279 -7493.4778 297.8841 -9242.1056 -7498.3599 294.2412 -307.0589 -221.1010 30310.8523 9.9700 92.1016
ENERGY: 600000 1.1832 1.8330 1.6327 0.0000 -10628.2316 1458.7543 0.0000 0.0000 1779.4983 -7385.3301 303.1430 -9164.8284 -7473.8594 297.3340 18.6785 105.3485 30639.0644 200.7660 287.8556
ENERGY: 900000 4.4868 2.1144 2.7344 0.0000 -10537.5938 1357.8598 0.0000 0.0000 1785.8851 -7384.5133 304.2310 -9170.3984 -7471.4184 299.6954 -460.7801 -537.4871 30477.3899 75.8782 133.3409
ENERGY: 1200000 1.4818 3.0068 1.8542 0.0000 -10544.9867 1351.3642 0.0000 0.0000 1778.9981 -7408.2815 303.0577 -9187.2797 -7463.9214 299.5776 -722.8091 -656.5684 30859.6454 -34.2152 22.7289
ENERGY: 1500000 1.9869 1.1675 2.7805 0.0000 -10632.6622 1407.7386 0.0000 0.0000 1754.1009 -7464.8877 298.8164 -9218.9886 -7455.8873 299.2127 -315.5973 -281.2506 30710.6245 -32.5843 22.5846
TCL: Running FEP window  14: Lambda1 0.34999999999999964 Lambda2 0.29999999999999966 [dLambda -0.04999999999999999]
TCL: Setting parameter firsttimestep to 0
TCL: Setting parameter alchLambda to 0.34999999999999964
Info: NONBONDED TABLE R-SQUARED SPACING: 0.0625
Info: NONBONDED TABLE SIZE: 705 POINTS
TCL: Setting parameter alchLambda2 to 0.29999999999999966
Info: NONBONDED TABLE R-SQUARED SPACING: 0.0625
Info: NONBONDED TABLE SIZE: 705 POINTS
TCL: Running for 1500000 steps
ETITLE: TS BOND ANGLE DIHED IMPRP ELECT VDW BOUNDARY MISC KINETIC TOTAL TEMP POTENTIAL TOTALAVG TEMPAVG PRESSURE GPRESSURE VOLUME PRESSAVG GPRESSAVG
ENERGY: 0 1.9869 1.1675 2.7805 0.0000 -10632.6630 1407.2021 0.0000 0.0000 1753.2360 -7466.2900 298.6691 -9219.5260 -7466.2900 298.6691 -376.7308 -289.9444 30710.6245 -376.7308 -289.9444
ENERGY: 300000 1.3507 3.5709 2.4814 0.0000 -10732.7301 1472.5117 0.0000 0.0000 1748.3722 -7504.4432 297.8405 -9252.8154 -7431.4062 299.5612 231.0745 268.1967 30575.1875 -247.4384 -184.7473
ENERGY: 600000 2.0419 2.8044 2.0589 0.0000 -10732.9543 1517.8116 0.0000 0.0000 1825.5497 -7382.6878 310.9879 -9208.2375 -7416.2366 302.1933 497.0178 542.5821 30835.7764 -106.3800 -54.2951
ENERGY: 900000 1.9898 2.7286 2.7633 0.0000 -10666.4161 1454.4301 0.0000 0.0000 1714.5623 -7489.9420 292.0809 -9204.5042 -7429.3255 301.4412 298.0163 352.0987 30381.0951 34.0508 86.1403
ENERGY: 1200000 1.7539 3.3063 4.0043 0.0000 -10699.6003 1431.0174 0.0000 0.0000 1777.1194 -7482.3989 302.7377 -9259.5184 -7429.5250 301.5949 -70.4687 -7.4714 30231.9806 -1.2529 54.8587
ENERGY: 1500000 2.2291 3.2113 2.2455 0.0000 -10677.7727 1478.6718 0.0000 0.0000 1736.0894 -7455.3257 295.7481 -9191.4151 -7433.8014 300.5723 562.8725 541.2330 30163.8179 60.1272 114.2828
TCL: Running FEP window  15: Lambda1 0.29999999999999966 Lambda2 0.24999999999999967 [dLambda -0.04999999999999999]
TCL: Setting parameter firsttimestep to 0
TCL: Setting parameter alchLambda to 0.29999999999999966
Info: NONBONDED TABLE R-SQUARED SPACING: 0.0625
Info: NONBONDED TABLE SIZE: 705 POINTS
TCL: Setting parameter alchLambda2 to 0.24999999999999967
Info: NONBONDED TABLE R-SQUARED SPACING: 0.0625
Info: NONBONDED TABLE SIZE: 705 POINTS
TCL: Running for 1500000 steps
ETITLE: TS BOND ANGLE DIHED IMPRP ELECT VDW BOUNDARY MISC KINETIC TOTAL TEMP POTENTIAL TOTALAVG TEMPAVG PRESSURE GPRESSURE VOLUME PRESSAVG GPRESSAVG
ENERGY: 0 2.2291 3.2113 2.2455 0.0000 -10677.7743 1478.1281 0.0000 0.0000 1735.2412 -7456.7192 295.6036 -9191.9604 -7456.7192 295.6036 475.5454 531.8190 30163.8179 475.5454 531.8190
ENERGY: 300000 0.8748 2.0258 2.6771 0.0000 -10737.3137 1443.2365 0.0000 0.0000 1794.9724 -7493.5270 305.7790 -9288.4995 -7447.4461 300.7722 -59.1248 -14.5547 30183.3605 37.1129 77.2966
ENERGY: 600000 2.2896 5.1390 2.5588 0.0000 -10852.1184 1570.0907 0.0000 0.0000 1717.4598 -7554.5803 292.5745 -9272.0402 -7478.1743 299.1850 919.4922 975.2571 30149.6212 234.0084 291.3025
ENERGY: 900000 1.0560 5.8252 2.5529 0.0000 -10725.6713 1459.2262 0.0000 0.0000 1720.9657 -7536.0452 293.1718 -9257.0110 -7488.9885 299.1782 241.4879 354.4966 30066.7867 227.5164 284.8127
ENERGY: 1200000 2.8427 1.8789 2.0816 0.0000 -10717.8193 1436.2431 0.0000 0.0000 1725.7631 -7549.0100 293.9890 -9274.7731 -7495.8140 299.5532 -35.8600 31.3988 29932.8747 184.6310 247.1465
ENERGY: 1500000 2.0128 3.4750 3.0020 0.0000 -10734.6586 1453.0149 0.0000 0.0000 1731.4321 -7541.7218 294.9547 -9273.1539 -7496.6999 299.3744 -366.0605 -316.2038 30587.8610 97.4836 160.8545
TCL: Running FEP window  16: Lambda1 0.24999999999999967 Lambda2 0.19999999999999968 [dLambda -0.04999999999999999]
TCL: Setting parameter firsttimestep to 0
TCL: Setting parameter alchLambda to 0.24999999999999967
Info: NONBONDED TABLE R-SQUARED SPACING: 0.0625
Info: NONBONDED TABLE SIZE: 705 POINTS
TCL: Setting parameter alchLambda2 to 0.19999999999999968
Info: NONBONDED TABLE R-SQUARED SPACING: 0.0625
Info: NONBONDED TABLE SIZE: 705 POINTS
TCL: Running for 1500000 steps
ETITLE: TS BOND ANGLE DIHED IMPRP ELECT VDW BOUNDARY MISC KINETIC TOTAL TEMP POTENTIAL TOTALAVG TEMPAVG PRESSURE GPRESSURE VOLUME PRESSAVG GPRESSAVG
ENERGY: 0 2.0128 3.4750 3.0020 0.0000 -10734.6582 1453.1532 0.0000 0.0000 1730.5424 -7542.4728 294.8032 -9273.0152 -7542.4728 294.8032 -408.0980 -320.9715 30587.8610 -408.0980 -320.9715
ENERGY: 300000 5.0097 4.7024 2.3996 0.0000 -10705.4422 1452.4072 0.0000 0.0000 1818.2408 -7422.6826 309.7428 -9240.9234 -7508.4421 299.0459 386.1849 388.7641 30150.4895 -64.5387 -24.7526
ENERGY: 600000 3.2986 2.7919 3.4441 0.0000 -10803.5008 1522.7909 0.0000 0.0000 1746.0513 -7525.1240 297.4452 -9271.1753 -7496.5887 298.8496 761.0565 865.6530 29738.2835 82.4323 149.7887
ENERGY: 900000 3.8143 4.0110 1.1658 0.0000 -10827.3745 1547.4394 0.0000 0.0000 1756.7799 -7514.1641 299.2728 -9270.9440 -7508.4972 298.0001 519.3961 544.6178 30428.6637 133.8476 201.1280
ENERGY: 1200000 3.2976 2.2417 2.5749 0.0000 -10742.7444 1486.2261 0.0000 0.0000 1704.7616 -7543.6425 290.4113 -9248.4041 -7513.7326 297.4052 606.6555 634.8639 29766.6172 36.0986 97.9699
ENERGY: 1500000 5.1711 4.3283 1.7370 0.0000 -10786.8921 1458.7258 0.0000 0.0000 1782.8013 -7534.1286 303.7056 -9316.9300 -7506.4199 297.9093 -121.2311 19.4291 30168.3379 52.9612 116.7112
TCL: Running FEP window  17: Lambda1 0.19999999999999968 Lambda2 0.1499999999999997 [dLambda -0.04999999999999999]
TCL: Setting parameter firsttimestep to 0
TCL: Setting parameter alchLambda to 0.19999999999999968
Info: NONBONDED TABLE R-SQUARED SPACING: 0.0625
Info: NONBONDED TABLE SIZE: 705 POINTS
TCL: Setting parameter alchLambda2 to 0.1499999999999997
Info: NONBONDED TABLE R-SQUARED SPACING: 0.0625
Info: NONBONDED TABLE SIZE: 705 POINTS
TCL: Running for 1500000 steps
ETITLE: TS BOND ANGLE DIHED IMPRP ELECT VDW BOUNDARY MISC KINETIC TOTAL TEMP POTENTIAL TOTALAVG TEMPAVG PRESSURE GPRESSURE VOLUME PRESSAVG GPRESSAVG
ENERGY: 0 5.1711 4.3283 1.7370 0.0000 -10786.8931 1458.8122 0.0000 0.0000 1781.9365 -7534.9080 303.5583 -9316.8446 -7534.9080 303.5583 -68.6366 14.9485 30168.3379 -68.6366 14.9485
ENERGY: 300000 1.4780 3.0540 5.8283 0.0000 -10459.7091 1241.5387 0.0000 0.0000 1777.1940 -7430.6161 302.7504 -9207.8101 -7474.4625 305.2578 -1527.3216 -1436.9815 30424.2425 -220.8473 -157.9132
ENERGY: 600000 1.0113 7.6598 2.5323 0.0000 -10641.8352 1403.1434 0.0000 0.0000 1758.4922 -7468.9962 299.5645 -9227.4883 -7484.0404 302.5336 -409.3529 -278.5218 30353.7199 -369.8931 -303.4528
ENERGY: 900000 5.3753 5.2290 2.5678 0.0000 -10743.9979 1462.9625 0.0000 0.0000 1747.6394 -7520.2239 297.7157 -9267.8633 -7488.3638 301.6546 -137.8706 -53.3213 30092.1938 -343.2372 -266.0301
ENERGY: 1200000 1.2346 3.4853 6.7265 0.0000 -10681.9918 1413.1754 0.0000 0.0000 1767.7732 -7489.5967 301.1455 -9257.3700 -7482.5941 301.7789 -278.3387 -220.0518 30172.8294 -331.9634 -258.5461
ENERGY: 1500000 2.0991 5.5089 3.1872 0.0000 -10871.1201 1581.7914 0.0000 0.0000 1738.4240 -7540.1094 296.1458 -9278.5334 -7488.0411 301.3717 907.9226 964.2880 30129.1760 -152.9097 -93.1267
TCL: Running FEP window  18: Lambda1 0.1499999999999997 Lambda2 0.09999999999999969 [dLambda -0.05 ]
TCL: Setting parameter firsttimestep to 0
TCL: Setting parameter alchLambda to 0.1499999999999997
Info: NONBONDED TABLE R-SQUARED SPACING: 0.0625
Info: NONBONDED TABLE SIZE: 705 POINTS
TCL: Setting parameter alchLambda2 to 0.09999999999999969
Info: NONBONDED TABLE R-SQUARED SPACING: 0.0625
Info: NONBONDED TABLE SIZE: 705 POINTS
TCL: Running for 1500000 steps
ETITLE: TS BOND ANGLE DIHED IMPRP ELECT VDW BOUNDARY MISC KINETIC TOTAL TEMP POTENTIAL TOTALAVG TEMPAVG PRESSURE GPRESSURE VOLUME PRESSAVG GPRESSAVG
ENERGY: 0 2.0991 5.5089 3.1872 0.0000 -10871.1211 1581.6912 0.0000 0.0000 1737.5689 -7541.0659 296.0001 -9278.6347 -7541.0659 296.0001 881.8436 962.0339 30129.1760 881.8436 962.0339
ENERGY: 300000 2.2325 3.0453 1.9243 0.0000 -10552.5369 1321.0237 0.0000 0.0000 1792.9953 -7431.3159 305.4422 -9224.3111 -7492.9978 299.3653 -924.2378 -860.9637 30707.4543 -45.5789 5.3828
ENERGY: 600000 4.8042 3.4774 2.6673 0.0000 -10699.8453 1432.9852 0.0000 0.0000 1723.5853 -7532.3258 293.6180 -9255.9112 -7499.7779 298.0896 -94.1034 -23.2639 30143.9709 38.0110 82.3719
ENERGY: 900000 2.9819 1.2638 1.6021 0.0000 -11004.0653 1591.2742 0.0000 0.0000 1725.8222 -7681.1210 293.9991 -9406.9433 -7518.5145 297.5874 886.6096 948.0842 29675.9758 135.6723 184.3767
ENERGY: 1200000 2.6207 3.1159 2.5546 0.0000 -10774.7165 1484.6513 0.0000 0.0000 1748.1228 -7533.6512 297.7980 -9281.7740 -7513.1299 298.4105 184.6815 272.5997 30059.1704 99.0942 160.1986
ENERGY: 1500000 6.1062 2.6816 1.4521 0.0000 -10592.3645 1401.2560 0.0000 0.0000 1744.9590 -7435.9097 297.2591 -9180.8686 -7505.0342 298.7941 -555.9714 -467.8376 30881.5483 0.4390 64.0435
TCL: Running FEP window  19: Lambda1 0.09999999999999969 Lambda2 0.049999999999999684 [dLambda -0.05 ]
TCL: Setting parameter firsttimestep to 0
TCL: Setting parameter alchLambda to 0.09999999999999969
Info: NONBONDED TABLE R-SQUARED SPACING: 0.0625
Info: NONBONDED TABLE SIZE: 705 POINTS
TCL: Setting parameter alchLambda2 to 0.049999999999999684
Info: NONBONDED TABLE R-SQUARED SPACING: 0.0625
Info: NONBONDED TABLE SIZE: 705 POINTS
TCL: Running for 1500000 steps
ETITLE: TS BOND ANGLE DIHED IMPRP ELECT VDW BOUNDARY MISC KINETIC TOTAL TEMP POTENTIAL TOTALAVG TEMPAVG PRESSURE GPRESSURE VOLUME PRESSAVG GPRESSAVG
ENERGY: 0 6.1062 2.6816 1.4521 0.0000 -10592.3644 1400.2396 0.0000 0.0000 1744.0542 -7437.8307 297.1049 -9181.8849 -7437.8307 297.1049 -553.8163 -476.8973 30881.5483 -553.8163 -476.8973
ENERGY: 300000 1.1174 4.4480 6.0555 0.0000 -10790.1632 1487.5451 0.0000 0.0000 1772.0005 -7518.9968 301.8657 -9290.9973 -7451.2773 299.6009 58.6777 55.3981 30690.4513 -125.5723 -69.8000
ENERGY: 600000 1.9134 3.8307 3.6315 0.0000 -10758.2961 1526.8271 0.0000 0.0000 1765.8973 -7456.1962 300.8260 -9222.0934 -7439.5255 299.5741 731.3367 886.4049 30023.0557 -29.6247 46.3097
ENERGY: 900000 2.1046 4.4697 2.4761 0.0000 -10615.9511 1367.4261 0.0000 0.0000 1733.8826 -7505.5920 295.3722 -9239.4746 -7455.5942 299.6392 -515.6494 -493.0006 29887.4123 -60.6407 5.4541
ENERGY: 1200000 5.8578 2.4942 1.9345 0.0000 -10772.7857 1531.5395 0.0000 0.0000 1749.4986 -7481.4611 298.0324 -9230.9597 -7462.5214 300.4582 858.1310 881.8775 30149.4459 62.9914 122.5654
ENERGY: 1500000 2.3358 2.9245 2.2193 0.0000 -10639.0327 1449.3269 0.0000 0.0000 1807.4655 -7374.7607 307.9072 -9182.2262 -7458.0056 300.6701 295.5277 278.2383 30387.6791 -25.3181 31.7427
TCL: Running FEP window  20: Lambda1 0.049999999999999684 Lambda2 0.0    [dLambda -0.049999999999999684]
TCL: Setting parameter firsttimestep to 0
TCL: Setting parameter alchLambda to 0.049999999999999684
Info: NONBONDED TABLE R-SQUARED SPACING: 0.0625
Info: NONBONDED TABLE SIZE: 705 POINTS
TCL: Setting parameter alchLambda2 to 0.0
Info: NONBONDED TABLE R-SQUARED SPACING: 0.0625
Info: NONBONDED TABLE SIZE: 705 POINTS
TCL: Running for 1500000 steps
ETITLE: TS BOND ANGLE DIHED IMPRP ELECT VDW BOUNDARY MISC KINETIC TOTAL TEMP POTENTIAL TOTALAVG TEMPAVG PRESSURE GPRESSURE VOLUME PRESSAVG GPRESSAVG
ENERGY: 0 2.3358 2.9245 2.2193 0.0000 -10639.0311 1448.3732 0.0000 0.0000 1806.5601 -7376.6181 307.7530 -9183.1782 -7376.6181 307.7530 193.0715 273.4142 30387.6791 193.0715 273.4142
ENERGY: 300000 2.8622 5.6278 3.0868 0.0000 -10594.3751 1413.3530 0.0000 0.0000 1744.0678 -7425.3776 297.1073 -9169.4454 -7438.0641 302.0767 -139.7550 -45.1652 30053.0932 -174.8908 -78.6921
ENERGY: 600000 1.8028 2.7303 3.3235 0.0000 -10565.8375 1402.2752 0.0000 0.0000 1723.1083 -7432.5975 293.5368 -9155.7058 -7453.9470 298.1253 -617.6912 -528.3438 31219.3361 -108.7757 -25.8238
ENERGY: 900000 3.2291 1.1672 1.0681 0.0000 -10701.6622 1472.4444 0.0000 0.0000 1814.1141 -7409.6394 309.0399 -9223.7534 -7443.9015 300.2928 305.2734 387.1888 30337.2098 -15.4344 64.7031
ENERGY: 1200000 2.7703 4.4302 2.2517 0.0000 -10636.5939 1404.0038 0.0000 0.0000 1775.8741 -7447.2638 302.5256 -9223.1379 -7439.4869 299.9977 73.7861 62.4859 29794.3744 -87.9731 -13.3800
ENERGY: 1500000 4.4424 4.6891 4.2911 0.0000 -10621.0052 1409.7603 0.0000 0.0000 1786.0273 -7411.7950 304.2552 -9197.8224 -7445.1838 300.8858 -167.9145 -200.2270 30319.1317 -63.9698 -7.9334
TCL: Exiting due to exit command.
