Info: SIMULATION PARAMETERS:
Info: TIMESTEP               2
Info: NUMBER OF STEPS        0
Info: STEPS PER CYCLE        10
Info: PERIODIC CELL BASIS 1  30.7645 0 0
Info: PERIODIC CELL BASIS 2  0 29.2942 0
Info: PERIODIC CELL BASIS 3  0 0 32.932
Info: PERIODIC CELL CENTER   0 0 0
Info: WRAPPING WATERS AROUND PERIODIC BOUNDARIES ON OUTPUT.
Info: WRAPPING ALL CLUSTERS AROUND PERIODIC BOUNDARIES ON OUTPUT.
Info: FIRST LDB TIMESTEP     50
Info: LAST LDB TIMESTEP     -1
Info: HOM BACKGROUND SCALING 1
Info: PME BACKGROUND SCALING 1
Info: MIN ATOMS PER PATCH    40
Info: EMPTY PATCH LOAD       40 ATOMS
Info: VELOCITY FILE          mobley_5518547_equil.vel
Info: CENTER OF MASS MOVING INITIALLY? NO
Info: DIELECTRIC             1
Info: EXCLUDE                SCALED ONE-FOUR
Info: 1-4 ELECTROSTATICS SCALED BY 0.833333
Info: MODIFIED 1-4 VDW PARAMETERS WILL BE USED
Info: DCD FILENAME           mobley_5518547_prod.dcd
Info: DCD FREQUENCY          100000
Info: DCD FIRST STEP         100000
Info: DCD FILE WILL CONTAIN UNIT CELL DATA
Info: XST FILENAME           mobley_5518547_prod.xst
Info: XST FREQUENCY          100000
Info: NO VELOCITY DCD OUTPUT
Info: NO FORCE DCD OUTPUT
Info: OUTPUT FILENAME        mobley_5518547_prod
Info: BINARY OUTPUT FILES WILL BE USED
Info: RESTART FILENAME       mobley_5518547_prod.restart
Info: RESTART FREQUENCY      100000
Info: BINARY RESTART FILES WILL BE USED
Info: CUTOFF                 9
Info: PAIRLIST DISTANCE      11
Info: PAIRLIST SHRINK RATE   0.01
Info: PAIRLIST GROW RATE     0.01
Info: PAIRLIST TRIGGER       0.3
Info: PAIRLISTS PER CYCLE    2
Info: PAIRLISTS ENABLED
Info: MARGIN                 2
Info: HYDROGEN GROUP CUTOFF  2.5
Info: PATCH DIMENSION        15.5
Info: ENERGY OUTPUT STEPS    100000
Info: ENERGY EVALUATION STEPS    100000
Info: OUTPUT ENERGY PRECISION 4
Info: CROSSTERM ENERGY INCLUDED IN DIHEDRAL
Info: TIMING OUTPUT STEPS    1000000
Info: PRESSURE OUTPUT STEPS  100000
Info: ALCHEMICAL FEP ON
Info: FEP CURRENT LAMBDA VALUE     0
Info: FEP COMPARISON LAMBDA VALUE  0.05
Info: FEP INTRA-ALCHEMICAL NON-BONDED INTERACTIONS WILL BE RETAINED
Info: FEP INTRA-ALCHEMICAL BONDED INTERACTIONS WILL BE RETAINED
Info: FEP VDW SHIFTING COEFFICIENT 5
Info: FEP ELEC. ACTIVE FOR ANNIHILATED PARTICLES BETWEEN LAMBDA = 0 AND LAMBDA = 0.5
Info: FEP ELEC. ACTIVE FOR EXNIHILATED PARTICLES BETWEEN LAMBDA = 0.5 AND LAMBDA = 1
Info: FEP VDW ACTIVE FOR ANNIHILATED PARTICLES BETWEEN LAMBDA = 0 AND LAMBDA = 1
Info: FEP VDW ACTIVE FOR EXNIHILATED PARTICLES BETWEEN LAMBDA = 0 AND LAMBDA = 1
Info: FEP BOND ACTIVE FOR ANNIHILATED PARTICLES BETWEEN LAMBDA = 1 AND LAMBDA = 1
Info: FEP BOND ACTIVE FOR EXNIHILATED PARTICLES BETWEEN LAMBDA = 0 AND LAMBDA = 0
Info: LANGEVIN DYNAMICS ACTIVE
Info: LANGEVIN TEMPERATURE   300
Info: LANGEVIN USING BBK INTEGRATOR
Info: LANGEVIN DAMPING COEFFICIENT IS 1 INVERSE PS
Info: LANGEVIN DYNAMICS APPLIED TO HYDROGENS
Info: LANGEVIN PISTON PRESSURE CONTROL ACTIVE
Info:        TARGET PRESSURE IS 1.01325 BAR
Info:     OSCILLATION PERIOD IS 50 FS
Info:             DECAY TIME IS 25 FS
Info:     PISTON TEMPERATURE IS 300 K
Info:       PRESSURE CONTROL IS GROUP-BASED
Info:    INITIAL STRAIN RATE IS 7.11595e-05 7.11595e-05 7.11595e-05
Info:       CELL FLUCTUATION IS ISOTROPIC
Info: PARTICLE MESH EWALD (PME) ACTIVE
Info: PME TOLERANCE               1e-06
Info: PME EWALD COEFFICIENT       0.348832
Info: PME INTERPOLATION ORDER     4
Info: PME GRID DIMENSIONS         32 32 36
Info: PME MAXIMUM GRID SPACING    1
Info: PME CALCULATION WILL BE PERFORMED ON GPU
Info: FULL ELECTROSTATIC EVALUATION FREQUENCY      2
Info: USING VERLET I (r-RESPA) MTS SCHEME.
Info: C1 SPLITTING OF LONG RANGE ELECTROSTATICS
Info: PLACING ATOMS IN PATCHES BY HYDROGEN GROUPS
Info: RIGID BONDS TO HYDROGEN : ALL
Info:         ERROR TOLERANCE : 1e-08
Info:          MAX ITERATIONS : 100
Info: RIGID WATER USING SETTLE ALGORITHM
Info: RANDOM NUMBER SEED     1743590768
Info: USE HYDROGEN BONDS?    NO
Info: Using AMBER format force field!
Info: AMBER PARM FILE        mobley_5518547.prmtop
Info: COORDINATE PDB         mobley_5518547.pdb
Info: Exclusions will be read from PARM file!
Info: SCNB (VDW SCALING)     2
Info: USING ARITHMETIC MEAN TO COMBINE L-J SIGMA PARAMETERS
Info: BINARY COORDINATES     mobley_5518547_equil.coor
Info: SUMMARY OF PARAMETERS:
Info: 8 BONDS
Info: 8 ANGLES
Info:   8 HARMONIC
Info:   0 COSINE-BASED
Info: 4 DIHEDRAL
Info: 0 IMPROPER
Info: 0 CROSSTERM
Info: 0 VDW
Info: 36 VDW_PAIRS
Info: 0 NBTHOLE_PAIRS
Info: To read alchdata from file: mobley_5518547.pdb
Info: To read alchflag data from column: 5
Info: STRUCTURE SUMMARY:
Info: 2924 ATOMS
Info: 2924 BONDS
Info: 27 ANGLES
Info: 41 DIHEDRALS
Info: 0 IMPROPERS
Info: 0 CROSSTERMS
Info: 2982 EXCLUSIONS
Info: 2916 RIGID BONDS
Info: ALCH: 0 ATOMS TO DISAPPEAR IN FINAL STATE
Info: ALCH: 17 ATOMS TO APPEAR IN FINAL STATE
Info: 5856 DEGREES OF FREEDOM
Info: 977 HYDROGEN GROUPS
Info: 4 ATOMS IN LARGEST HYDROGEN GROUP
Info: 977 MIGRATION GROUPS
Info: 4 ATOMS IN LARGEST MIGRATION GROUP
Info: TOTAL MASS = 17564.7 amu
Info: TOTAL CHARGE = -0.00029999 e
Info: MASS DENSITY = 0.982763 g/cm^3
Info: ATOM DENSITY = 0.0985206 atoms/A^3
Info: ADDED 0 IMPLICIT EXCLUSIONS
Info: NONBONDED TABLE R-SQUARED SPACING: 0.0625
Info: NONBONDED TABLE SIZE: 705 POINTS
Info: REMOVING COM VELOCITY 0.0215148 -0.00195358 -0.161437
Info: Use 3D box decompostion in PME FFT.
Info: Updated CUDA force table with 4096 elements.
Info: Updated CUDA LJ table with 8 x 8 elements.
Info: Found 19 unique exclusion lists needing 48 bytes
TCL: Running for 1500000 steps
ETITLE: TS BOND ANGLE DIHED IMPRP ELECT VDW BOUNDARY MISC KINETIC TOTAL TEMP POTENTIAL TOTALAVG TEMPAVG PRESSURE GPRESSURE VOLUME PRESSAVG GPRESSAVG
ENERGY: 0 0.6821 9.1890 3.8736 0.0000 -10619.7263 1429.4518 0.0000 0.0000 1823.6066 -7352.9231 313.4155 -9176.5297 -7352.9231 313.4155 201.1231 292.4636 29679.0623 201.1231 292.4636
ENERGY: 300000 0.7368 7.5329 3.2573 0.0000 -10595.0609 1450.5789 0.0000 0.0000 1774.6110 -7358.3440 304.9948 -9132.9550 -7383.4643 302.1969 201.2377 252.2313 30308.6137 132.2390 183.5007
ENERGY: 600000 2.5527 3.6138 8.1637 0.0000 -10660.5133 1475.6259 0.0000 0.0000 1785.5244 -7385.0328 306.8705 -9170.5572 -7398.7021 300.9009 339.5066 341.3141 29928.7197 156.1102 200.9522
ENERGY: 900000 2.2856 5.7143 7.4487 0.0000 -10687.9881 1371.3325 0.0000 0.0000 1746.6664 -7554.5405 300.1921 -9301.2069 -7419.8727 299.8615 -664.1750 -604.3103 29782.6226 -112.9772 -66.2765
ENERGY: 1200000 4.0068 4.6285 5.9649 0.0000 -10652.1273 1461.8917 0.0000 0.0000 1800.0090 -7375.6264 309.3599 -9175.6354 -7421.7452 301.2991 343.8094 388.7799 29897.7917 -195.0618 -149.7362
ENERGY: 1500000 3.1285 4.2619 4.1420 0.0000 -10527.7215 1374.6246 0.0000 0.0000 1760.4951 -7381.0695 302.5688 -9141.5645 -7419.5603 301.2612 -313.5697 -227.7751 29894.3739 -231.1403 -182.5597
TCL: Running FEP window   2: Lambda1 0.05   Lambda2 0.1    [dLambda 0.05  ]
TCL: Setting parameter firsttimestep to 0
TCL: Setting parameter alchLambda to 0.05
Info: NONBONDED TABLE R-SQUARED SPACING: 0.0625
Info: NONBONDED TABLE SIZE: 705 POINTS
TCL: Setting parameter alchLambda2 to 0.1
Info: NONBONDED TABLE R-SQUARED SPACING: 0.0625
Info: NONBONDED TABLE SIZE: 705 POINTS
TCL: Running for 1500000 steps
ETITLE: TS BOND ANGLE DIHED IMPRP ELECT VDW BOUNDARY MISC KINETIC TOTAL TEMP POTENTIAL TOTALAVG TEMPAVG PRESSURE GPRESSURE VOLUME PRESSAVG GPRESSAVG
ENERGY: 0 3.1285 4.2619 4.1420 0.0000 -10527.7209 1377.5087 0.0000 0.0000 1759.6317 -7379.0482 302.4204 -9138.6798 -7379.0482 302.4204 -313.4930 -221.4961 29894.3739 -313.4930 -221.4961
ENERGY: 300000 2.2536 5.9679 8.3668 0.0000 -10593.6826 1468.2660 0.0000 0.0000 1805.8101 -7303.0182 310.3569 -9108.8283 -7381.2406 305.4410 635.5656 624.0168 30110.4272 -108.9150 -59.6779
ENERGY: 600000 1.7830 5.4103 5.5821 0.0000 -10545.4536 1322.7967 0.0000 0.0000 1701.5974 -7508.2842 292.4463 -9209.8816 -7409.6150 302.7568 -988.6145 -875.9258 29844.2892 -139.5504 -76.9916
ENERGY: 900000 2.2526 4.5043 2.0635 0.0000 -10627.8707 1423.3977 0.0000 0.0000 1767.1352 -7428.5174 303.7100 -9195.6526 -7421.2611 301.5003 -277.9740 -309.7554 30166.5132 -118.8417 -67.8598
ENERGY: 1200000 1.8398 5.3837 4.8131 0.0000 -10589.9300 1436.4253 0.0000 0.0000 1774.3299 -7367.1382 304.9465 -9141.4681 -7415.4917 300.5825 110.3133 178.9560 30083.6602 -182.1509 -116.3214
ENERGY: 1500000 3.8462 6.0970 2.6130 0.0000 -10616.9619 1429.9735 0.0000 0.0000 1679.7116 -7494.7206 288.6849 -9174.4322 -7422.6430 300.5633 10.3727 98.7858 29837.8609 -210.4578 -147.2978
TCL: Running FEP window   3: Lambda1 0.1    Lambda2 0.15000000000000002 [dLambda 0.05000000000000002]
TCL: Setting parameter firsttimestep to 0
TCL: Setting parameter alchLambda to 0.1
Info: NONBONDED TABLE R-SQUARED SPACING: 0.0625
Info: NONBONDED TABLE SIZE: 705 POINTS
TCL: Setting parameter alchLambda2 to 0.15000000000000002
Info: NONBONDED TABLE R-SQUARED SPACING: 0.0625
Info: NONBONDED TABLE SIZE: 705 POINTS
TCL: Running for 1500000 steps
ETITLE: TS BOND ANGLE DIHED IMPRP ELECT VDW BOUNDARY MISC KINETIC TOTAL TEMP POTENTIAL TOTALAVG TEMPAVG PRESSURE GPRESSURE VOLUME PRESSAVG GPRESSAVG
ENERGY: 0 3.8462 6.0970 2.6130 0.0000 -10616.9622 1430.5942 0.0000 0.0000 1678.8090 -7495.0028 288.5298 -9173.8118 -7495.0028 288.5298 13.9895 103.3087 29837.8609 13.9895 103.3087
ENERGY: 300000 1.2418 10.3795 0.8951 0.0000 -10671.7591 1412.1941 0.0000 0.0000 1749.2520 -7497.7967 300.6365 -9247.0487 -7488.1901 294.4931 -298.5532 -231.4091 29736.2809 -239.2422 -166.2143
ENERGY: 600000 4.1279 4.3292 2.3528 0.0000 -10520.2554 1374.6686 0.0000 0.0000 1697.1838 -7437.5931 291.6878 -9134.7769 -7445.5432 293.9702 -572.0482 -485.4464 30411.4511 -410.9344 -329.8319
ENERGY: 900000 4.5096 6.7085 4.0962 0.0000 -10439.9018 1328.6652 0.0000 0.0000 1773.9032 -7322.0191 304.8732 -9095.9222 -7426.2277 297.0367 -789.0009 -701.5503 30405.6675 -435.9909 -353.3139
ENERGY: 1200000 2.5648 5.2083 2.9006 0.0000 -10581.6679 1417.7159 0.0000 0.0000 1775.8492 -7377.4290 305.2076 -9153.2783 -7414.3610 298.7266 -181.3410 -80.7557 30319.3997 -435.1285 -352.6226
ENERGY: 1500000 1.9559 5.5671 2.2059 0.0000 -10385.9879 1317.6925 0.0000 0.0000 1745.4698 -7313.0967 299.9865 -9058.5665 -7407.0676 299.4888 -395.8900 -288.2203 29829.1795 -339.3118 -255.0083
TCL: Running FEP window   4: Lambda1 0.15000000000000002 Lambda2 0.2    [dLambda 0.04999999999999999]
TCL: Setting parameter firsttimestep to 0
TCL: Setting parameter alchLambda to 0.15000000000000002
Info: NONBONDED TABLE R-SQUARED SPACING: 0.0625
Info: NONBONDED TABLE SIZE: 705 POINTS
TCL: Setting parameter alchLambda2 to 0.2
Info: NONBONDED TABLE R-SQUARED SPACING: 0.0625
Info: NONBONDED TABLE SIZE: 705 POINTS
TCL: Running for 1500000 steps
ETITLE: TS BOND ANGLE DIHED IMPRP ELECT VDW BOUNDARY MISC KINETIC TOTAL TEMP POTENTIAL TOTALAVG TEMPAVG PRESSURE GPRESSURE VOLUME PRESSAVG GPRESSAVG
ENERGY: 0 1.9559 5.5671 2.2059 0.0000 -10385.9886 1318.3466 0.0000 0.0000 1744.6151 -7313.2980 299.8396 -9057.9131 -7313.2980 299.8396 -371.5764 -283.7244 29829.1795 -371.5764 -283.7244
ENERGY: 300000 3.6771 6.8407 3.4939 0.0000 -10653.0656 1449.6964 0.0000 0.0000 1758.5652 -7430.7923 302.2371 -9189.3576 -7385.6421 300.8003 28.7956 104.8709 29874.9050 -245.5974 -176.3437
ENERGY: 600000 1.4307 4.2064 3.1365 0.0000 -10807.2505 1521.8571 0.0000 0.0000 1705.5483 -7571.0715 293.1253 -9276.6198 -7423.9348 300.4830 458.3764 563.2304 29577.6787 -31.7371 28.5105
ENERGY: 900000 0.8845 3.9133 1.8850 0.0000 -10598.8015 1471.3086 0.0000 0.0000 1754.9529 -7365.8571 301.6163 -9120.8100 -7421.2126 301.1693 545.4700 602.1347 29882.1692 -63.2440 -4.6197
ENERGY: 1200000 1.1019 4.3260 2.2225 0.0000 -10579.0564 1425.7736 0.0000 0.0000 1726.8222 -7418.8102 296.7816 -9145.6324 -7413.3921 301.6330 -57.5104 -47.5629 30172.6268 -95.4310 -40.7005
ENERGY: 1500000 2.7388 3.9865 0.5843 0.0000 -10614.8165 1434.5435 0.0000 0.0000 1684.1296 -7488.8338 289.4442 -9172.9634 -7421.0062 300.5107 -73.7599 5.6854 30005.3184 -70.8717 -11.5699
TCL: Running FEP window   5: Lambda1 0.2    Lambda2 0.25   [dLambda 0.04999999999999999]
TCL: Setting parameter firsttimestep to 0
TCL: Setting parameter alchLambda to 0.2
Info: NONBONDED TABLE R-SQUARED SPACING: 0.0625
Info: NONBONDED TABLE SIZE: 705 POINTS
TCL: Setting parameter alchLambda2 to 0.25
Info: NONBONDED TABLE R-SQUARED SPACING: 0.0625
Info: NONBONDED TABLE SIZE: 705 POINTS
TCL: Running for 1500000 steps
ETITLE: TS BOND ANGLE DIHED IMPRP ELECT VDW BOUNDARY MISC KINETIC TOTAL TEMP POTENTIAL TOTALAVG TEMPAVG PRESSURE GPRESSURE VOLUME PRESSAVG GPRESSAVG
ENERGY: 0 2.7388 3.9865 0.5843 0.0000 -10614.8176 1434.4102 0.0000 0.0000 1683.2735 -7489.8243 289.2970 -9173.0977 -7489.8243 289.2970 -54.0824 9.2900 30005.3184 -54.0824 9.2900
ENERGY: 300000 2.9601 1.9883 6.7628 0.0000 -10634.0232 1443.7334 0.0000 0.0000 1720.2544 -7458.3241 295.6528 -9178.5785 -7443.9692 295.6342 60.5382 112.1357 29807.3715 63.5627 91.3607
ENERGY: 600000 2.8928 3.6691 4.4328 0.0000 -10714.3889 1463.0095 0.0000 0.0000 1725.5736 -7514.8113 296.5670 -9240.3848 -7464.3039 295.6883 -82.3506 -19.4926 29869.2486 63.1685 99.9859
ENERGY: 900000 1.7572 4.3009 6.2669 0.0000 -10688.6188 1469.0971 0.0000 0.0000 1788.7390 -7418.4576 307.4230 -9207.1966 -7456.9810 297.0175 71.7274 105.5579 30056.8001 48.1838 81.6709
ENERGY: 1200000 0.9203 6.9847 8.2141 0.0000 -10612.5652 1426.6475 0.0000 0.0000 1751.6520 -7418.1466 301.0490 -9169.7986 -7454.5222 297.9303 5.9194 58.1522 30002.2002 30.0126 76.6191
ENERGY: 1500000 5.9660 4.4420 4.1584 0.0000 -10708.9157 1524.2829 0.0000 0.0000 1769.7148 -7400.3516 304.1534 -9170.0664 -7465.4119 297.6726 532.1152 511.9089 30145.8627 -5.5076 37.8104
TCL: Running FEP window   6: Lambda1 0.25   Lambda2 0.3    [dLambda 0.04999999999999999]
TCL: Setting parameter firsttimestep to 0
TCL: Setting parameter alchLambda to 0.25
Info: NONBONDED TABLE R-SQUARED SPACING: 0.0625
Info: NONBONDED TABLE SIZE: 705 POINTS
TCL: Setting parameter alchLambda2 to 0.3
Info: NONBONDED TABLE R-SQUARED SPACING: 0.0625
Info: NONBONDED TABLE SIZE: 705 POINTS
TCL: Running for 1500000 steps
ETITLE: TS BOND ANGLE DIHED IMPRP ELECT VDW BOUNDARY MISC KINETIC TOTAL TEMP POTENTIAL TOTALAVG TEMPAVG PRESSURE GPRESSURE VOLUME PRESSAVG GPRESSAVG
ENERGY: 0 5.9660 4.4420 4.1584 0.0000 -10708.9163 1524.9042 0.0000 0.0000 1768.8512 -7400.5945 304.0049 -9169.4456 -7400.5945 304.0049 429.1801 519.5028 30145.8627 429.1801 519.5028
ENERGY: 300000 4.6287 6.0747 5.1331 0.0000 -10597.3936 1488.5567 0.0000 0.0000 1698.3525 -7394.6478 291.8886 -9093.0004 -7406.4007 296.3199 484.2306 565.5642 29997.3953 107.7365 189.8362
ENERGY: 600000 3.1241 3.1038 4.6808 0.0000 -10554.3451 1382.9868 0.0000 0.0000 1703.3433 -7457.1062 292.7464 -9160.4495 -7400.3419 298.0592 -320.6476 -293.1121 29934.2902 61.9784 126.6304
ENERGY: 900000 1.9458 5.3882 5.8145 0.0000 -10595.7203 1398.3801 0.0000 0.0000 1727.2684 -7456.9233 296.8583 -9184.1918 -7398.8418 298.0192 -270.9829 -178.0004 29890.0601 -33.1783 38.0838
ENERGY: 1200000 1.2591 3.7409 7.7871 0.0000 -10678.8613 1480.1481 0.0000 0.0000 1736.3271 -7449.5990 298.4151 -9185.9261 -7404.7273 298.6362 492.3494 497.3636 30072.9941 17.4752 78.0659
ENERGY: 1500000 3.4105 6.2607 4.2941 0.0000 -10662.4088 1409.9147 0.0000 0.0000 1778.7438 -7459.7851 305.7051 -9238.5289 -7414.7955 299.7279 -526.5190 -440.9422 30448.5101 -107.5878 -47.2436
TCL: Running FEP window   7: Lambda1 0.3    Lambda2 0.35   [dLambda 0.04999999999999999]
TCL: Setting parameter firsttimestep to 0
TCL: Setting parameter alchLambda to 0.3
Info: NONBONDED TABLE R-SQUARED SPACING: 0.0625
Info: NONBONDED TABLE SIZE: 705 POINTS
TCL: Setting parameter alchLambda2 to 0.35
Info: NONBONDED TABLE R-SQUARED SPACING: 0.0625
Info: NONBONDED TABLE SIZE: 705 POINTS
TCL: Running for 1500000 steps
ETITLE: TS BOND ANGLE DIHED IMPRP ELECT VDW BOUNDARY MISC KINETIC TOTAL TEMP POTENTIAL TOTALAVG TEMPAVG PRESSURE GPRESSURE VOLUME PRESSAVG GPRESSAVG
ENERGY: 0 3.4105 6.2607 4.2941 0.0000 -10662.4079 1410.1796 0.0000 0.0000 1777.8717 -7460.3914 305.5552 -9238.2631 -7460.3914 305.5552 -503.9792 -433.2008 30448.5101 -503.9792 -433.2008
ENERGY: 300000 0.8815 2.7892 3.3185 0.0000 -10626.4572 1415.2377 0.0000 0.0000 1713.0365 -7491.1938 294.4123 -9204.2303 -7418.4804 299.3890 -143.1252 -23.7047 30012.6379 -242.2243 -155.0887
ENERGY: 600000 1.9009 7.2912 6.5934 0.0000 -10518.9141 1367.3704 0.0000 0.0000 1720.6924 -7415.0658 295.7281 -9135.7582 -7429.5095 297.0385 -461.0601 -462.6105 30224.9518 -118.7497 -64.9284
ENERGY: 900000 2.1615 6.2173 2.9649 0.0000 -10484.3013 1331.8202 0.0000 0.0000 1729.2778 -7411.8595 297.2036 -9141.1373 -7415.9971 298.0217 -710.4901 -691.7539 30023.7859 -217.6245 -162.6328
ENERGY: 1200000 3.5557 6.1085 4.4223 0.0000 -10498.0099 1326.1908 0.0000 0.0000 1743.9728 -7413.7598 299.7292 -9157.7326 -7412.7807 298.0729 -744.2791 -700.8623 29975.9947 -298.7821 -240.6472
ENERGY: 1500000 2.9340 3.0774 4.8681 0.0000 -10703.9232 1457.1573 0.0000 0.0000 1706.4345 -7529.4520 293.2776 -9235.8864 -7420.1000 297.6762 -25.5380 40.0684 30078.7390 -302.3561 -246.7481
TCL: Running FEP window   8: Lambda1 0.35   Lambda2 0.39999999999999997 [dLambda 0.04999999999999999]
TCL: Setting parameter firsttimestep to 0
TCL: Setting parameter alchLambda to 0.35
Info: NONBONDED TABLE R-SQUARED SPACING: 0.0625
Info: NONBONDED TABLE SIZE: 705 POINTS
TCL: Setting parameter alchLambda2 to 0.39999999999999997
Info: NONBONDED TABLE R-SQUARED SPACING: 0.0625
Info: NONBONDED TABLE SIZE: 705 POINTS
TCL: Running for 1500000 steps
ETITLE: TS BOND ANGLE DIHED IMPRP ELECT VDW BOUNDARY MISC KINETIC TOTAL TEMP POTENTIAL TOTALAVG TEMPAVG PRESSURE GPRESSURE VOLUME PRESSAVG GPRESSAVG
ENERGY: 0 2.9340 3.0774 4.8681 0.0000 -10703.9233 1457.0528 0.0000 0.0000 1705.5378 -7530.4531 293.1235 -9235.9909 -7530.4531 293.1235 -29.1462 45.4492 30078.7390 -29.1462 45.4492
ENERGY: 300000 5.2132 11.1905 2.0349 0.0000 -10599.4386 1413.2508 0.0000 0.0000 1709.6288 -7458.1205 293.8266 -9167.7493 -7458.4385 295.0647 -155.9827 -78.9834 30027.7843 -190.3762 -106.2897
ENERGY: 600000 2.8197 4.0443 3.6875 0.0000 -10582.8477 1424.7749 0.0000 0.0000 1784.7183 -7362.8030 306.7319 -9147.5213 -7445.6051 296.9327 -83.9964 55.9016 30237.3734 -84.4674 11.0085
ENERGY: 900000 0.5742 5.8359 5.2841 0.0000 -10473.6964 1375.9655 0.0000 0.0000 1742.9052 -7343.1313 299.5457 -9086.0366 -7416.5390 299.1858 -182.3314 -167.7482 30073.1267 -11.0118 64.1249
ENERGY: 1200000 4.8306 8.4819 3.1615 0.0000 -10570.1825 1333.4921 0.0000 0.0000 1772.8200 -7447.3964 304.6870 -9220.2164 -7427.2112 299.6678 -729.4871 -688.2108 29741.2369 -71.6399 -6.4056
ENERGY: 1500000 2.1482 6.9554 7.7352 0.0000 -10660.2802 1478.5967 0.0000 0.0000 1784.4566 -7380.3882 306.6870 -9164.8447 -7421.5544 300.0104 404.8588 507.8015 29804.9286 49.6206 111.6814
TCL: Running FEP window   9: Lambda1 0.39999999999999997 Lambda2 0.44999999999999996 [dLambda 0.04999999999999999]
TCL: Setting parameter firsttimestep to 0
TCL: Setting parameter alchLambda to 0.39999999999999997
Info: NONBONDED TABLE R-SQUARED SPACING: 0.0625
Info: NONBONDED TABLE SIZE: 705 POINTS
TCL: Setting parameter alchLambda2 to 0.44999999999999996
Info: NONBONDED TABLE R-SQUARED SPACING: 0.0625
Info: NONBONDED TABLE SIZE: 705 POINTS
TCL: Running for 1500000 steps
ETITLE: TS BOND ANGLE DIHED IMPRP ELECT VDW BOUNDARY MISC KINETIC TOTAL TEMP POTENTIAL TOTALAVG TEMPAVG PRESSURE GPRESSURE VOLUME PRESSAVG GPRESSAVG
ENERGY: 0 2.1482 6.9554 7.7352 0.0000 -10660.2797 1478.4586 0.0000 0.0000 1783.5884 -7381.3939 306.5377 -9164.9823 -7381.3939 306.5377 438.7599 511.6474 29804.9286 438.7599 511.6474
ENERGY: 300000 6.7014 6.1195 5.4636 0.0000 -10584.5037 1412.5196 0.0000 0.0000 1774.6990 -7379.0006 305.0100 -9153.6996 -7383.5570 304.0916 -256.0488 -151.7813 29892.8830 -67.3362 7.2304
ENERGY: 600000 1.5811 4.3479 3.3490 0.0000 -10673.0294 1489.5210 0.0000 0.0000 1779.2830 -7394.9475 305.7978 -9174.2305 -7403.2291 300.9927 213.6338 262.3756 30343.9326 -124.3999 -62.4521
ENERGY: 900000 1.9493 7.0653 3.2254 0.0000 -10668.2249 1485.2908 0.0000 0.0000 1646.2699 -7524.4241 282.9374 -9170.6940 -7428.0479 298.8993 232.4848 306.0089 30339.2130 -86.9447 -29.2273
ENERGY: 1200000 1.8636 8.2210 5.1619 0.0000 -10692.0969 1426.2366 0.0000 0.0000 1766.7816 -7483.8321 303.6492 -9250.6138 -7449.6694 298.4363 -99.6716 -3.8080 29976.5818 -157.9733 -97.0754
ENERGY: 1500000 1.4653 10.6112 2.6430 0.0000 -10663.6488 1434.9994 0.0000 0.0000 1709.1150 -7504.8149 293.7383 -9213.9299 -7454.3811 298.0432 -100.6215 -88.9004 30064.3844 -144.5886 -86.1202
TCL: Running FEP window  10: Lambda1 0.44999999999999996 Lambda2 0.49999999999999994 [dLambda 0.04999999999999999]
TCL: Setting parameter firsttimestep to 0
TCL: Setting parameter alchLambda to 0.44999999999999996
Info: NONBONDED TABLE R-SQUARED SPACING: 0.0625
Info: NONBONDED TABLE SIZE: 705 POINTS
TCL: Setting parameter alchLambda2 to 0.49999999999999994
Info: NONBONDED TABLE R-SQUARED SPACING: 0.0625
Info: NONBONDED TABLE SIZE: 705 POINTS
TCL: Running for 1500000 steps
ETITLE: TS BOND ANGLE DIHED IMPRP ELECT VDW BOUNDARY MISC KINETIC TOTAL TEMP POTENTIAL TOTALAVG TEMPAVG PRESSURE GPRESSURE VOLUME PRESSAVG GPRESSAVG
ENERGY: 0 1.4653 10.6112 2.6430 0.0000 -10663.6495 1434.9250 0.0000 0.0000 1708.2702 -7505.7348 293.5931 -9214.0050 -7505.7348 293.5931 -170.2734 -84.0496 30064.3844 -170.2734 -84.0496
ENERGY: 300000 2.4679 4.9001 3.7858 0.0000 -10624.0779 1380.5522 0.0000 0.0000 1756.5349 -7475.8371 301.8882 -9232.3719 -7450.8797 299.6042 -495.1138 -482.9785 29992.4951 -204.2142 -143.8059
ENERGY: 600000 3.7610 4.0135 4.2842 0.0000 -10693.8909 1463.9777 0.0000 0.0000 1769.0013 -7448.8532 304.0307 -9217.8545 -7439.0704 299.4992 200.0544 200.5029 29835.7094 -261.1409 -196.7355
ENERGY: 900000 3.0319 5.1237 3.1942 0.0000 -10716.0160 1484.7234 0.0000 0.0000 1771.3167 -7448.6261 304.4287 -9219.9428 -7436.3531 299.1886 295.6009 339.5419 30461.2138 -241.7199 -188.0079
ENERGY: 1200000 3.5966 3.5818 2.0395 0.0000 -10553.9999 1392.9227 0.0000 0.0000 1768.2469 -7383.6124 303.9011 -9151.8593 -7419.6137 300.3046 -573.3691 -528.5721 30545.9514 -260.7961 -208.6050
ENERGY: 1500000 1.6963 4.8532 3.6458 0.0000 -10655.8787 1395.9133 0.0000 0.0000 1740.8177 -7508.9523 299.1869 -9249.7700 -7419.7900 301.2818 -721.0217 -646.4503 30275.8030 -228.2348 -176.1588
TCL: Running FEP window  11: Lambda1 0.49999999999999994 Lambda2 0.5499999999999999 [dLambda 0.04999999999999999]
TCL: Setting parameter firsttimestep to 0
TCL: Setting parameter alchLambda to 0.49999999999999994
Info: NONBONDED TABLE R-SQUARED SPACING: 0.0625
Info: NONBONDED TABLE SIZE: 705 POINTS
TCL: Setting parameter alchLambda2 to 0.5499999999999999
Info: NONBONDED TABLE R-SQUARED SPACING: 0.0625
Info: NONBONDED TABLE SIZE: 705 POINTS
TCL: Running for 1500000 steps
ETITLE: TS BOND ANGLE DIHED IMPRP ELECT VDW BOUNDARY MISC KINETIC TOTAL TEMP POTENTIAL TOTALAVG TEMPAVG PRESSURE GPRESSURE VOLUME PRESSAVG GPRESSAVG
ENERGY: 0 1.6963 4.8532 3.6458 0.0000 -10655.8777 1395.2442 0.0000 0.0000 1739.9433 -7510.4949 299.0366 -9250.4382 -7510.4949 299.0366 -727.8932 -647.1080 30275.8030 -727.8932 -647.1080
ENERGY: 300000 1.8912 7.3490 3.8309 0.0000 -10675.4935 1440.8169 0.0000 0.0000 1690.5205 -7531.0850 290.5426 -9221.6055 -7460.4375 298.2177 -349.7126 -262.1317 30525.8646 -66.8085 -7.9908
ENERGY: 600000 1.6688 3.0230 4.7888 0.0000 -10649.7702 1466.8760 0.0000 0.0000 1745.3692 -7428.0444 299.9692 -9173.4136 -7459.8594 299.4562 557.4109 639.8140 29901.8573 47.2708 102.9716
ENERGY: 900000 1.7877 4.3456 2.4639 0.0000 -10682.3766 1487.2185 0.0000 0.0000 1741.7254 -7444.8355 299.3429 -9186.5609 -7456.0269 299.1357 540.6517 626.3122 29768.6856 163.0194 225.9635
ENERGY: 1200000 2.8330 6.9136 2.9516 0.0000 -10560.8221 1410.2591 0.0000 0.0000 1731.6408 -7406.2241 297.6097 -9137.8649 -7442.4461 298.9549 345.8692 415.3032 29693.4895 126.3982 188.1274
ENERGY: 1500000 4.4258 3.6087 2.6943 0.0000 -10677.5281 1477.2204 0.0000 0.0000 1765.2212 -7424.3577 303.3811 -9189.5789 -7439.5996 298.9959 591.2911 598.2264 29616.7191 99.2130 158.4350
TCL: Running FEP window  12: Lambda1 0.5499999999999999 Lambda2 0.6    [dLambda 0.050000000000000044]
TCL: Setting parameter firsttimestep to 0
TCL: Setting parameter alchLambda to 0.5499999999999999
Info: NONBONDED TABLE R-SQUARED SPACING: 0.0625
Info: NONBONDED TABLE SIZE: 705 POINTS
TCL: Setting parameter alchLambda2 to 0.6
Info: NONBONDED TABLE R-SQUARED SPACING: 0.0625
Info: NONBONDED TABLE SIZE: 705 POINTS
TCL: Running for 1500000 steps
ETITLE: TS BOND ANGLE DIHED IMPRP ELECT VDW BOUNDARY MISC KINETIC TOTAL TEMP POTENTIAL TOTALAVG TEMPAVG PRESSURE GPRESSURE VOLUME PRESSAVG GPRESSAVG
ENERGY: 0 4.4257 3.6087 2.6943 0.0000 -10677.3618 1476.7541 0.0000 0.0000 1764.3523 -7425.5266 303.2317 -9189.8789 -7425.5266 303.2317 521.3777 600.2528 29616.7191 521.3777 600.2528
ENERGY: 300000 1.6606 3.5363 5.2062 0.0000 -10782.8033 1515.9366 0.0000 0.0000 1722.2989 -7534.1648 296.0042 -9256.4637 -7439.1820 299.7332 513.5635 528.5669 30223.0302 201.2270 246.2101
ENERGY: 600000 2.7842 5.0027 8.2966 0.0000 -10644.5109 1387.7013 0.0000 0.0000 1760.3767 -7480.3493 302.5484 -9240.7260 -7450.2382 298.9840 -279.7736 -213.0561 29542.7258 55.3454 124.2729
ENERGY: 900000 0.8181 4.3445 2.6353 0.0000 -10587.0150 1413.6312 0.0000 0.0000 1729.0949 -7436.4910 297.1722 -9165.5859 -7439.1051 299.0969 -269.2881 -203.2003 30655.1386 70.9291 134.9524
ENERGY: 1200000 4.2502 9.2350 2.0442 0.0000 -10586.9171 1400.2335 0.0000 0.0000 1749.0190 -7422.1352 300.5965 -9171.1542 -7434.3839 299.9735 -360.1360 -332.2337 30146.3735 39.1027 101.6658
ENERGY: 1500000 2.6154 4.4276 2.4524 0.0000 -10659.3456 1354.3489 0.0000 0.0000 1803.9719 -7491.5294 310.0410 -9295.5013 -7437.2392 300.2890 -801.0999 -752.7588 30033.3407 -53.5755 3.8638
TCL: Running FEP window  13: Lambda1 0.6    Lambda2 0.65   [dLambda 0.050000000000000044]
TCL: Setting parameter firsttimestep to 0
TCL: Setting parameter alchLambda to 0.6
Info: NONBONDED TABLE R-SQUARED SPACING: 0.0625
Info: NONBONDED TABLE SIZE: 705 POINTS
TCL: Setting parameter alchLambda2 to 0.65
Info: NONBONDED TABLE R-SQUARED SPACING: 0.0625
Info: NONBONDED TABLE SIZE: 705 POINTS
TCL: Running for 1500000 steps
ETITLE: TS BOND ANGLE DIHED IMPRP ELECT VDW BOUNDARY MISC KINETIC TOTAL TEMP POTENTIAL TOTALAVG TEMPAVG PRESSURE GPRESSURE VOLUME PRESSAVG GPRESSAVG
ENERGY: 0 2.6154 4.4276 2.4524 0.0000 -10659.5101 1353.9037 0.0000 0.0000 1803.0635 -7493.0476 309.8848 -9296.1110 -7493.0476 309.8848 -836.1574 -753.5866 30033.3407 -836.1574 -753.5866
ENERGY: 300000 1.3989 10.1589 4.7239 0.0000 -10651.8192 1388.6605 0.0000 0.0000 1798.0161 -7448.8608 309.0174 -9246.8770 -7453.5784 305.1333 -388.9421 -299.2113 29881.2221 -380.1731 -313.1983
ENERGY: 600000 2.5519 4.6741 3.0562 0.0000 -10643.6943 1493.1039 0.0000 0.0000 1754.1495 -7386.1588 301.4782 -9140.3082 -7453.7564 302.5321 505.7129 592.5774 30289.8866 -114.6927 -39.7719
ENERGY: 900000 1.8318 6.4988 4.8376 0.0000 -10650.3623 1451.3356 0.0000 0.0000 1807.5749 -7378.2836 310.6602 -9185.8586 -7436.1151 303.6069 32.4257 89.9696 30240.4529 -49.9573 23.0021
ENERGY: 1200000 4.3940 5.8987 4.5146 0.0000 -10749.5814 1503.2386 0.0000 0.0000 1741.2203 -7490.3153 299.2561 -9231.5356 -7436.8735 302.9378 518.3934 577.8149 29812.7330 2.5102 80.0357
ENERGY: 1500000 1.5221 3.8683 4.6428 0.0000 -10678.6121 1530.1638 0.0000 0.0000 1731.6722 -7406.7429 297.6151 -9138.4151 -7443.7409 302.2137 1141.1999 1209.4998 29654.2925 54.8222 134.2122
TCL: Running FEP window  14: Lambda1 0.65   Lambda2 0.7000000000000001 [dLambda 0.050000000000000044]
TCL: Setting parameter firsttimestep to 0
TCL: Setting parameter alchLambda to 0.65
Info: NONBONDED TABLE R-SQUARED SPACING: 0.0625
Info: NONBONDED TABLE SIZE: 705 POINTS
TCL: Setting parameter alchLambda2 to 0.7000000000000001
Info: NONBONDED TABLE R-SQUARED SPACING: 0.0625
Info: NONBONDED TABLE SIZE: 705 POINTS
TCL: Running for 1500000 steps
ETITLE: TS BOND ANGLE DIHED IMPRP ELECT VDW BOUNDARY MISC KINETIC TOTAL TEMP POTENTIAL TOTALAVG TEMPAVG PRESSURE GPRESSURE VOLUME PRESSAVG GPRESSAVG
ENERGY: 0 1.5221 3.8683 4.6428 0.0000 -10679.2769 1529.7904 0.0000 0.0000 1730.8401 -7408.6133 297.4721 -9139.4534 -7408.6133 297.4721 1132.6462 1210.0499 29654.2925 1132.6462 1210.0499
ENERGY: 300000 2.5640 5.2771 4.7108 0.0000 -10524.0837 1391.9578 0.0000 0.0000 1711.1358 -7408.4382 294.0856 -9119.5740 -7424.4314 297.4214 -399.1438 -320.4905 30209.3783 338.2684 392.4699
ENERGY: 600000 1.1959 7.0117 5.1676 0.0000 -10534.7897 1368.5644 0.0000 0.0000 1742.6689 -7410.1812 299.5051 -9152.8501 -7420.7549 298.1040 -477.8472 -465.1962 30228.8159 10.4374 63.3112
ENERGY: 900000 3.0298 6.6577 10.4228 0.0000 -10622.4072 1364.2240 0.0000 0.0000 1716.6218 -7521.4511 295.0285 -9238.0729 -7420.0801 299.2153 -711.6559 -615.1100 30132.6008 -49.1944 19.5524
ENERGY: 1200000 1.7164 3.6502 2.8754 0.0000 -10463.4059 1296.5160 0.0000 0.0000 1753.0435 -7405.6044 301.2881 -9158.6479 -7423.9792 298.8871 -989.0695 -941.2879 30182.9321 -113.9415 -42.4072
ENERGY: 1500000 0.8905 5.7578 1.2586 0.0000 -10486.5526 1339.3662 0.0000 0.0000 1736.3820 -7402.8976 298.4246 -9139.2796 -7415.4777 299.2665 -301.4256 -217.6481 29759.7113 -85.3944 -16.8862
TCL: Running FEP window  15: Lambda1 0.7000000000000001 Lambda2 0.7500000000000001 [dLambda 0.050000000000000044]
TCL: Setting parameter firsttimestep to 0
TCL: Setting parameter alchLambda to 0.7000000000000001
Info: NONBONDED TABLE R-SQUARED SPACING: 0.0625
Info: NONBONDED TABLE SIZE: 705 POINTS
TCL: Setting parameter alchLambda2 to 0.7500000000000001
Info: NONBONDED TABLE R-SQUARED SPACING: 0.0625
Info: NONBONDED TABLE SIZE: 705 POINTS
TCL: Running for 1500000 steps
ETITLE: TS BOND ANGLE DIHED IMPRP ELECT VDW BOUNDARY MISC KINETIC TOTAL TEMP POTENTIAL TOTALAVG TEMPAVG PRESSURE GPRESSURE VOLUME PRESSAVG GPRESSAVG
ENERGY: 0 0.8905 5.7578 1.2586 0.0000 -10486.8851 1339.1732 0.0000 0.0000 1735.4730 -7404.3320 298.2684 -9139.8050 -7404.3320 298.2684 -295.2618 -212.0473 29759.7113 -295.2618 -212.0473
ENERGY: 300000 1.4937 3.4464 2.7169 0.0000 -10610.5037 1453.4054 0.0000 0.0000 1776.0378 -7373.4035 305.2401 -9149.4413 -7386.9415 302.8306 53.8231 82.8775 30553.8996 -168.1243 -109.5724
ENERGY: 600000 2.4605 3.5702 4.5003 0.0000 -10635.1907 1467.0450 0.0000 0.0000 1723.1638 -7434.4511 296.1528 -9157.6148 -7423.7772 299.6071 187.1407 273.4562 30162.2788 -41.5224 8.2421
ENERGY: 900000 1.3521 4.8727 2.0607 0.0000 -10642.4826 1407.0327 0.0000 0.0000 1746.3306 -7480.8339 300.1344 -9227.1645 -7434.1511 300.8012 -342.8276 -226.2589 30077.2246 -103.2000 -32.3343
ENERGY: 1200000 5.7425 3.6690 3.3353 0.0000 -10526.9971 1328.9696 0.0000 0.0000 1823.9513 -7361.3295 313.4747 -9185.2808 -7434.9978 301.6459 -600.7924 -458.5471 29791.9610 -136.8701 -57.2159
ENERGY: 1500000 3.2349 6.2841 2.1946 0.0000 -10636.3376 1421.4455 0.0000 0.0000 1774.0553 -7429.1234 304.8993 -9203.1786 -7430.3581 301.6161 -331.5945 -309.2053 30744.9723 -159.4364 -88.8201
TCL: Running FEP window  16: Lambda1 0.7500000000000001 Lambda2 0.8000000000000002 [dLambda 0.050000000000000044]
TCL: Setting parameter firsttimestep to 0
TCL: Setting parameter alchLambda to 0.7500000000000001
Info: NONBONDED TABLE R-SQUARED SPACING: 0.0625
Info: NONBONDED TABLE SIZE: 705 POINTS
TCL: Setting parameter alchLambda2 to 0.8000000000000002
Info: NONBONDED TABLE R-SQUARED SPACING: 0.0625
Info: NONBONDED TABLE SIZE: 705 POINTS
TCL: Running for 1500000 steps
ETITLE: TS BOND ANGLE DIHED IMPRP ELECT VDW BOUNDARY MISC KINETIC TOTAL TEMP POTENTIAL TOTALAVG TEMPAVG PRESSURE GPRESSURE VOLUME PRESSAVG GPRESSAVG
ENERGY: 0 3.2349 6.2841 2.1946 0.0000 -10637.2614 1421.4968 0.0000 0.0000 1773.2213 -7430.8298 304.7560 -9204.0511 -7430.8298 304.7560 -381.8901 -299.7484 30744.9723 -381.8901 -299.7484
ENERGY: 300000 2.8803 2.5045 3.9943 0.0000 -10532.5796 1408.1642 0.0000 0.0000 1803.7973 -7311.2390 310.0110 -9115.0363 -7407.0967 302.6745 6.5612 62.9370 30199.4641 137.7570 213.9800
ENERGY: 600000 1.5305 6.7987 1.9546 0.0000 -10499.1250 1313.0552 0.0000 0.0000 1798.7673 -7377.0188 309.1465 -9175.7861 -7386.0246 305.5588 -857.8848 -777.7347 29983.4850 100.1092 179.7451
ENERGY: 900000 2.8653 6.2142 2.5135 0.0000 -10763.9370 1552.4035 0.0000 0.0000 1702.6051 -7497.3355 292.6195 -9199.9406 -7411.3113 304.6781 1170.9317 1267.7848 29322.1229 247.3359 323.8187
ENERGY: 1200000 2.2288 5.0392 4.9260 0.0000 -10592.4083 1449.6395 0.0000 0.0000 1694.0422 -7436.5327 291.1478 -9130.5749 -7402.4251 302.7373 590.6975 615.2746 29859.8458 232.0620 306.0912
ENERGY: 1500000 3.3654 3.8116 2.6409 0.0000 -10675.0168 1533.8369 0.0000 0.0000 1705.6736 -7425.6884 293.1469 -9131.3620 -7411.4262 301.5175 1088.6434 1130.0972 29715.9200 254.0809 321.1354
TCL: Running FEP window  17: Lambda1 0.8000000000000002 Lambda2 0.8500000000000002 [dLambda 0.050000000000000044]
TCL: Setting parameter firsttimestep to 0
TCL: Setting parameter alchLambda to 0.8000000000000002
Info: NONBONDED TABLE R-SQUARED SPACING: 0.0625
Info: NONBONDED TABLE SIZE: 705 POINTS
TCL: Setting parameter alchLambda2 to 0.8500000000000002
Info: NONBONDED TABLE R-SQUARED SPACING: 0.0625
Info: NONBONDED TABLE SIZE: 705 POINTS
TCL: Running for 1500000 steps
ETITLE: TS BOND ANGLE DIHED IMPRP ELECT VDW BOUNDARY MISC KINETIC TOTAL TEMP POTENTIAL TOTALAVG TEMPAVG PRESSURE GPRESSURE VOLUME PRESSAVG GPRESSAVG
ENERGY: 0 3.3654 3.8116 2.6409 0.0000 -10675.9990 1535.1122 0.0000 0.0000 1704.7837 -7426.2852 292.9939 -9131.0689 -7426.2852 292.9939 1062.6366 1155.3626 29715.9200 1062.6366 1155.3626
ENERGY: 300000 6.5015 4.2246 3.7019 0.0000 -10363.5378 1309.4379 0.0000 0.0000 1757.3276 -7282.3444 302.0244 -9039.6720 -7365.3161 299.5052 -1009.3768 -912.5727 30924.6905 42.4727 127.9717
ENERGY: 600000 2.1420 5.9435 3.6279 0.0000 -10539.5447 1366.0471 0.0000 0.0000 1731.2731 -7430.5113 297.5465 -9161.7844 -7387.9080 300.8538 -705.0099 -620.4701 30111.5759 -52.2307 27.1956
ENERGY: 900000 2.0294 10.9961 1.9976 0.0000 -10535.0191 1375.2986 0.0000 0.0000 1700.1227 -7444.5747 292.1929 -9144.6974 -7406.7682 299.2558 -211.5151 -135.5604 30091.2374 -145.6950 -67.1106
ENERGY: 1200000 2.0285 4.9963 5.4063 0.0000 -10651.9132 1465.1434 0.0000 0.0000 1760.2517 -7414.0870 302.5270 -9174.3387 -7397.8056 300.5952 215.1919 251.0690 30157.6598 -123.5556 -42.7538
ENERGY: 1500000 0.9029 6.3824 2.5375 0.0000 -10640.9646 1408.3060 0.0000 0.0000 1765.5573 -7457.2785 303.4388 -9222.8358 -7409.4717 300.1368 -305.7533 -272.0341 30289.8715 -178.0448 -112.9128
TCL: Running FEP window  18: Lambda1 0.8500000000000002 Lambda2 0.9000000000000002 [dLambda 0.050000000000000044]
TCL: Setting parameter firsttimestep to 0
TCL: Setting parameter alchLambda to 0.8500000000000002
Info: NONBONDED TABLE R-SQUARED SPACING: 0.0625
Info: NONBONDED TABLE SIZE: 705 POINTS
TCL: Setting parameter alchLambda2 to 0.9000000000000002
Info: NONBONDED TABLE R-SQUARED SPACING: 0.0625
Info: NONBONDED TABLE SIZE: 705 POINTS
TCL: Running for 1500000 steps
ETITLE: TS BOND ANGLE DIHED IMPRP ELECT VDW BOUNDARY MISC KINETIC TOTAL TEMP POTENTIAL TOTALAVG TEMPAVG PRESSURE GPRESSURE VOLUME PRESSAVG GPRESSAVG
ENERGY: 0 0.9029 6.3824 2.5375 0.0000 -10641.5388 1408.0283 0.0000 0.0000 1764.6889 -7458.9989 303.2896 -9223.6878 -7458.9989 303.2896 -339.3405 -265.9356 30289.8715 -339.3405 -265.9356
ENERGY: 300000 1.0925 5.8274 3.7403 0.0000 -10587.7971 1405.2678 0.0000 0.0000 1718.6646 -7453.2044 295.3796 -9171.8690 -7434.3504 297.6066 120.3223 144.2789 30050.3012 118.2846 164.2249
ENERGY: 600000 2.7036 5.2891 2.7677 0.0000 -10750.7188 1515.0510 0.0000 0.0000 1782.4926 -7442.4147 306.3494 -9224.9074 -7426.0307 300.2471 601.9724 707.8357 30502.2622 218.6008 267.5726
ENERGY: 900000 3.6309 4.6305 5.8020 0.0000 -10620.7782 1394.5716 0.0000 0.0000 1712.7974 -7499.3458 294.3712 -9212.1432 -7453.9818 297.7251 -536.1770 -471.0921 30275.8152 32.4025 79.4681
ENERGY: 1200000 0.9609 3.7785 4.8726 0.0000 -10547.1182 1363.8762 0.0000 0.0000 1843.7848 -7329.8452 316.8834 -9173.6300 -7438.2668 299.3143 -383.3979 -246.0828 30068.4218 -25.6574 27.6010
ENERGY: 1500000 1.1877 5.3580 1.5106 0.0000 -10505.9284 1437.4059 0.0000 0.0000 1739.6736 -7320.7926 298.9903 -9060.4662 -7420.5304 299.2383 292.3537 372.8767 30343.2124 -21.5156 32.4458
TCL: Running FEP window  19: Lambda1 0.9000000000000002 Lambda2 0.9500000000000003 [dLambda 0.050000000000000044]
TCL: Setting parameter firsttimestep to 0
TCL: Setting parameter alchLambda to 0.9000000000000002
Info: NONBONDED TABLE R-SQUARED SPACING: 0.0625
Info: NONBONDED TABLE SIZE: 705 POINTS
TCL: Setting parameter alchLambda2 to 0.9500000000000003
Info: NONBONDED TABLE R-SQUARED SPACING: 0.0625
Info: NONBONDED TABLE SIZE: 705 POINTS
TCL: Running for 1500000 steps
ETITLE: TS BOND ANGLE DIHED IMPRP ELECT VDW BOUNDARY MISC KINETIC TOTAL TEMP POTENTIAL TOTALAVG TEMPAVG PRESSURE GPRESSURE VOLUME PRESSAVG GPRESSAVG
ENERGY: 0 1.1877 5.3580 1.5106 0.0000 -10507.9531 1439.4395 0.0000 0.0000 1738.8431 -7321.6143 298.8476 -9060.4574 -7321.6143 298.8476 300.2831 402.6908 30343.2124 300.2831 402.6908
ENERGY: 300000 4.8626 5.9839 5.4623 0.0000 -10625.0263 1411.6855 0.0000 0.0000 1725.2379 -7471.7942 296.5093 -9197.0321 -7454.6751 298.1369 11.6479 81.6200 30122.3816 332.1343 434.6770
ENERGY: 600000 5.4143 4.1509 2.5058 0.0000 -10631.6124 1343.3227 0.0000 0.0000 1765.2191 -7510.9996 303.3807 -9276.2186 -7451.3088 298.7161 -867.2540 -821.8741 30164.9710 0.8632 71.9252
ENERGY: 900000 2.5924 6.1131 2.1613 0.0000 -10647.6460 1436.7093 0.0000 0.0000 1796.1225 -7403.9474 308.6919 -9200.0699 -7448.6455 300.1412 57.4396 74.9233 30187.7291 -86.8972 -24.9235
ENERGY: 1200000 4.0994 11.1975 5.0398 0.0000 -10564.0431 1308.2899 0.0000 0.0000 1715.2319 -7520.1846 294.7896 -9235.4165 -7452.0059 299.4273 -912.7159 -889.5833 30144.1646 -213.6521 -150.7867
ENERGY: 1500000 2.2111 3.6192 2.9714 0.0000 -10643.7574 1476.1145 0.0000 0.0000 1675.8571 -7482.9839 288.0224 -9158.8411 -7452.1186 298.4802 443.4263 487.0709 30248.6752 -193.7364 -130.8046
TCL: Running FEP window  20: Lambda1 0.9500000000000003 Lambda2 1.0    [dLambda 0.04999999999999971]
TCL: Setting parameter firsttimestep to 0
TCL: Setting parameter alchLambda to 0.9500000000000003
Info: NONBONDED TABLE R-SQUARED SPACING: 0.0625
Info: NONBONDED TABLE SIZE: 705 POINTS
TCL: Setting parameter alchLambda2 to 1.0
Info: NONBONDED TABLE R-SQUARED SPACING: 0.0625
Info: NONBONDED TABLE SIZE: 705 POINTS
TCL: Running for 1500000 steps
ETITLE: TS BOND ANGLE DIHED IMPRP ELECT VDW BOUNDARY MISC KINETIC TOTAL TEMP POTENTIAL TOTALAVG TEMPAVG PRESSURE GPRESSURE VOLUME PRESSAVG GPRESSAVG
ENERGY: 0 2.2111 3.6192 2.9714 0.0000 -10645.2693 1476.0085 0.0000 0.0000 1674.9747 -7485.4843 287.8708 -9160.4590 -7485.4843 287.8708 425.4214 490.9302 30248.6752 425.4214 490.9302
ENERGY: 300000 3.1618 2.8840 3.9611 0.0000 -10626.4224 1435.6379 0.0000 0.0000 1748.2028 -7432.5748 300.4562 -9180.7777 -7469.1332 298.5887 -343.5202 -240.0993 30805.4111 355.5641 424.2702
ENERGY: 600000 2.5366 5.0380 7.2198 0.0000 -10498.2004 1362.0680 0.0000 0.0000 1810.2849 -7311.0531 311.1260 -9121.3379 -7434.2050 301.6334 -1.6162 10.5231 29939.2003 165.5853 216.2522
ENERGY: 900000 1.3403 3.7099 3.6874 0.0000 -10669.4718 1383.4236 0.0000 0.0000 1797.6846 -7479.6260 308.9604 -9277.3106 -7430.3664 302.6637 -325.4171 -330.3278 29747.7177 85.6381 126.4602
ENERGY: 1200000 2.3323 8.5616 4.3813 0.0000 -10493.0005 1323.4168 0.0000 0.0000 1743.3817 -7410.9268 299.6276 -9154.3085 -7437.2928 301.2712 -449.5133 -363.9211 29876.3155 65.8832 113.2946
ENERGY: 1500000 2.4124 4.6300 2.9644 0.0000 -10627.8956 1413.3748 0.0000 0.0000 1753.0790 -7451.4350 301.2942 -9204.5140 -7425.0147 301.1161 -135.1114 -89.7253 30146.3649 12.7973 65.1294
TCL: Exiting due to exit command.
