Info: SIMULATION PARAMETERS:
Info: TIMESTEP               2
Info: NUMBER OF STEPS        0
Info: STEPS PER CYCLE        10
Info: PERIODIC CELL BASIS 1  30.3789 0 0
Info: PERIODIC CELL BASIS 2  0 31.8354 0
Info: PERIODIC CELL BASIS 3  0 0 32.148
Info: PERIODIC CELL CENTER   0 0 0
Info: WRAPPING WATERS AROUND PERIODIC BOUNDARIES ON OUTPUT.
Info: WRAPPING ALL CLUSTERS AROUND PERIODIC BOUNDARIES ON OUTPUT.
Info: FIRST LDB TIMESTEP     50
Info: LAST LDB TIMESTEP     -1
Info: HOM BACKGROUND SCALING 1
Info: PME BACKGROUND SCALING 1
Info: MIN ATOMS PER PATCH    40
Info: EMPTY PATCH LOAD       40 ATOMS
Info: VELOCITY FILE          mobley_4506634_equil.vel
Info: CENTER OF MASS MOVING INITIALLY? NO
Info: DIELECTRIC             1
Info: EXCLUDE                SCALED ONE-FOUR
Info: 1-4 ELECTROSTATICS SCALED BY 0.833333
Info: MODIFIED 1-4 VDW PARAMETERS WILL BE USED
Info: DCD FILENAME           mobley_4506634_prod.dcd
Info: DCD FREQUENCY          100000
Info: DCD FIRST STEP         100000
Info: DCD FILE WILL CONTAIN UNIT CELL DATA
Info: XST FILENAME           mobley_4506634_prod.xst
Info: XST FREQUENCY          100000
Info: NO VELOCITY DCD OUTPUT
Info: NO FORCE DCD OUTPUT
Info: OUTPUT FILENAME        mobley_4506634_prod
Info: BINARY OUTPUT FILES WILL BE USED
Info: RESTART FILENAME       mobley_4506634_prod.restart
Info: RESTART FREQUENCY      100000
Info: BINARY RESTART FILES WILL BE USED
Info: CUTOFF                 9
Info: PAIRLIST DISTANCE      11
Info: PAIRLIST SHRINK RATE   0.01
Info: PAIRLIST GROW RATE     0.01
Info: PAIRLIST TRIGGER       0.3
Info: PAIRLISTS PER CYCLE    2
Info: PAIRLISTS ENABLED
Info: MARGIN                 2
Info: HYDROGEN GROUP CUTOFF  2.5
Info: PATCH DIMENSION        15.5
Info: ENERGY OUTPUT STEPS    100000
Info: ENERGY EVALUATION STEPS    100000
Info: OUTPUT ENERGY PRECISION 4
Info: CROSSTERM ENERGY INCLUDED IN DIHEDRAL
Info: TIMING OUTPUT STEPS    1000000
Info: PRESSURE OUTPUT STEPS  100000
Info: ALCHEMICAL FEP ON
Info: FEP CURRENT LAMBDA VALUE     0
Info: FEP COMPARISON LAMBDA VALUE  0.05
Info: FEP INTRA-ALCHEMICAL NON-BONDED INTERACTIONS WILL BE RETAINED
Info: FEP INTRA-ALCHEMICAL BONDED INTERACTIONS WILL BE RETAINED
Info: FEP VDW SHIFTING COEFFICIENT 5
Info: FEP ELEC. ACTIVE FOR ANNIHILATED PARTICLES BETWEEN LAMBDA = 0 AND LAMBDA = 0.5
Info: FEP ELEC. ACTIVE FOR EXNIHILATED PARTICLES BETWEEN LAMBDA = 0.5 AND LAMBDA = 1
Info: FEP VDW ACTIVE FOR ANNIHILATED PARTICLES BETWEEN LAMBDA = 0 AND LAMBDA = 1
Info: FEP VDW ACTIVE FOR EXNIHILATED PARTICLES BETWEEN LAMBDA = 0 AND LAMBDA = 1
Info: FEP BOND ACTIVE FOR ANNIHILATED PARTICLES BETWEEN LAMBDA = 1 AND LAMBDA = 1
Info: FEP BOND ACTIVE FOR EXNIHILATED PARTICLES BETWEEN LAMBDA = 0 AND LAMBDA = 0
Info: LANGEVIN DYNAMICS ACTIVE
Info: LANGEVIN TEMPERATURE   300
Info: LANGEVIN USING BBK INTEGRATOR
Info: LANGEVIN DAMPING COEFFICIENT IS 1 INVERSE PS
Info: LANGEVIN DYNAMICS APPLIED TO HYDROGENS
Info: LANGEVIN PISTON PRESSURE CONTROL ACTIVE
Info:        TARGET PRESSURE IS 1.01325 BAR
Info:     OSCILLATION PERIOD IS 50 FS
Info:             DECAY TIME IS 25 FS
Info:     PISTON TEMPERATURE IS 300 K
Info:       PRESSURE CONTROL IS GROUP-BASED
Info:    INITIAL STRAIN RATE IS -0.000414748 -0.000414748 -0.000414748
Info:       CELL FLUCTUATION IS ISOTROPIC
Info: PARTICLE MESH EWALD (PME) ACTIVE
Info: PME TOLERANCE               1e-06
Info: PME EWALD COEFFICIENT       0.348832
Info: PME INTERPOLATION ORDER     4
Info: PME GRID DIMENSIONS         32 32 36
Info: PME MAXIMUM GRID SPACING    1
Info: PME CALCULATION WILL BE PERFORMED ON GPU
Info: FULL ELECTROSTATIC EVALUATION FREQUENCY      2
Info: USING VERLET I (r-RESPA) MTS SCHEME.
Info: C1 SPLITTING OF LONG RANGE ELECTROSTATICS
Info: PLACING ATOMS IN PATCHES BY HYDROGEN GROUPS
Info: RIGID BONDS TO HYDROGEN : ALL
Info:         ERROR TOLERANCE : 1e-08
Info:          MAX ITERATIONS : 100
Info: RIGID WATER USING SETTLE ALGORITHM
Info: RANDOM NUMBER SEED     1743489417
Info: USE HYDROGEN BONDS?    NO
Info: Using AMBER format force field!
Info: AMBER PARM FILE        mobley_4506634.prmtop
Info: COORDINATE PDB         mobley_4506634.pdb
Info: Exclusions will be read from PARM file!
Info: SCNB (VDW SCALING)     2
Info: USING ARITHMETIC MEAN TO COMBINE L-J SIGMA PARAMETERS
Info: BINARY COORDINATES     mobley_4506634_equil.coor
Info: SUMMARY OF PARAMETERS:
Info: 7 BONDS
Info: 8 ANGLES
Info:   8 HARMONIC
Info:   0 COSINE-BASED
Info: 1 DIHEDRAL
Info: 0 IMPROPER
Info: 0 CROSSTERM
Info: 0 VDW
Info: 28 VDW_PAIRS
Info: 0 NBTHOLE_PAIRS
Info: To read alchdata from file: mobley_4506634.pdb
Info: To read alchflag data from column: 5
Info: STRUCTURE SUMMARY:
Info: 2984 ATOMS
Info: 2983 BONDS
Info: 12 ANGLES
Info: 9 DIHEDRALS
Info: 0 IMPROPERS
Info: 0 CROSSTERMS
Info: 3004 EXCLUSIONS
Info: 2977 RIGID BONDS
Info: ALCH: 0 ATOMS TO DISAPPEAR IN FINAL STATE
Info: ALCH: 8 ATOMS TO APPEAR IN FINAL STATE
Info: 5975 DEGREES OF FREEDOM
Info: 999 HYDROGEN GROUPS
Info: 3 ATOMS IN LARGEST HYDROGEN GROUP
Info: 999 MIGRATION GROUPS
Info: 3 ATOMS IN LARGEST MIGRATION GROUP
Info: TOTAL MASS = 18069.3 amu
Info: TOTAL CHARGE = 9.99905e-05 e
Info: MASS DENSITY = 0.965077 g/cm^3
Info: ATOM DENSITY = 0.0959757 atoms/A^3
Info: ADDED 0 IMPLICIT EXCLUSIONS
Info: NONBONDED TABLE R-SQUARED SPACING: 0.0625
Info: NONBONDED TABLE SIZE: 705 POINTS
Info: REMOVING COM VELOCITY -0.121068 -0.091507 0.0332574
Info: Use 3D box decompostion in PME FFT.
Info: Updated CUDA force table with 4096 elements.
Info: Updated CUDA LJ table with 7 x 7 elements.
Info: Found 11 unique exclusion lists needing 16 bytes
TCL: Running for 1500000 steps
ETITLE: TS BOND ANGLE DIHED IMPRP ELECT VDW BOUNDARY MISC KINETIC TOTAL TEMP POTENTIAL TOTALAVG TEMPAVG PRESSURE GPRESSURE VOLUME PRESSAVG GPRESSAVG
ENERGY: 0 3.2458 2.0785 0.0619 0.0000 -10902.9200 1477.6212 0.0000 0.0000 1802.2317 -7617.6809 303.5730 -9419.9126 -7617.6809 303.5730 -196.1923 -123.2632 31091.2085 -196.1923 -123.2632
ENERGY: 300000 1.6742 6.3331 0.0510 0.0000 -10828.5087 1383.7461 0.0000 0.0000 1780.0440 -7656.6603 299.8356 -9436.7044 -7618.2381 300.2562 -890.9512 -838.1338 30895.7728 -618.6152 -557.8701
ENERGY: 600000 1.2740 5.8670 0.2008 0.0000 -10910.6456 1534.5526 0.0000 0.0000 1756.1163 -7612.6349 295.8052 -9368.7512 -7598.9072 301.8491 668.7030 752.0998 30401.8071 -304.5605 -239.3010
ENERGY: 900000 1.8727 1.9948 0.2274 0.0000 -10912.9376 1470.3498 0.0000 0.0000 1752.0550 -7686.4378 295.1211 -9438.4928 -7601.4539 300.3075 -1.9284 67.7279 30363.8404 -185.0987 -128.0937
ENERGY: 1200000 0.8215 6.2873 0.1255 0.0000 -10922.6463 1547.7831 0.0000 0.0000 1821.7880 -7545.8409 306.8671 -9367.6289 -7600.0412 300.8730 963.1215 975.3360 30336.6554 -32.4406 19.9090
ENERGY: 1500000 2.2437 0.8822 0.1845 0.0000 -10880.6590 1427.4519 0.0000 0.0000 1776.5603 -7673.3365 299.2488 -9449.8968 -7607.0529 301.1283 -418.4073 -330.2978 30664.5766 -15.9997 41.0126
TCL: Running FEP window   2: Lambda1 0.05   Lambda2 0.1    [dLambda 0.05  ]
TCL: Setting parameter firsttimestep to 0
TCL: Setting parameter alchLambda to 0.05
Info: NONBONDED TABLE R-SQUARED SPACING: 0.0625
Info: NONBONDED TABLE SIZE: 705 POINTS
TCL: Setting parameter alchLambda2 to 0.1
Info: NONBONDED TABLE R-SQUARED SPACING: 0.0625
Info: NONBONDED TABLE SIZE: 705 POINTS
TCL: Running for 1500000 steps
ETITLE: TS BOND ANGLE DIHED IMPRP ELECT VDW BOUNDARY MISC KINETIC TOTAL TEMP POTENTIAL TOTALAVG TEMPAVG PRESSURE GPRESSURE VOLUME PRESSAVG GPRESSAVG
ENERGY: 0 2.2437 0.8822 0.1845 0.0000 -10880.6601 1429.4529 0.0000 0.0000 1775.6117 -7672.2852 299.0890 -9447.8969 -7672.2852 299.0890 -409.9575 -319.8776 30664.5766 -409.9575 -319.8776
ENERGY: 300000 1.3394 2.2912 0.0725 0.0000 -10920.8557 1581.3009 0.0000 0.0000 1785.3193 -7550.5324 300.7242 -9335.8517 -7622.4890 298.5742 1210.5050 1240.9591 30501.3524 29.6141 77.1500
ENERGY: 600000 1.6978 1.8746 0.0271 0.0000 -10730.8955 1361.5724 0.0000 0.0000 1743.4482 -7622.2753 293.6713 -9365.7235 -7620.8747 298.5620 -722.5587 -606.3371 30605.5247 -82.2394 -14.5642
ENERGY: 900000 0.4831 4.3001 0.0472 0.0000 -10765.3816 1413.7175 0.0000 0.0000 1819.7593 -7527.0744 306.5254 -9346.8337 -7609.7592 299.4796 -274.2191 -181.1713 30462.3895 8.7319 87.0032
ENERGY: 1200000 3.5797 4.3582 0.0328 0.0000 -10848.6264 1473.6895 0.0000 0.0000 1768.8503 -7598.1160 297.9501 -9366.9662 -7599.9019 300.0492 65.5897 146.4814 30553.7616 8.3865 81.5262
ENERGY: 1500000 2.3123 2.3065 0.0220 0.0000 -10993.8404 1517.9431 0.0000 0.0000 1775.9471 -7695.3093 299.1455 -9471.2564 -7598.7434 300.0060 -58.1977 90.7588 30501.9025 80.7669 155.9777
TCL: Running FEP window   3: Lambda1 0.1    Lambda2 0.15000000000000002 [dLambda 0.05000000000000002]
TCL: Setting parameter firsttimestep to 0
TCL: Setting parameter alchLambda to 0.1
Info: NONBONDED TABLE R-SQUARED SPACING: 0.0625
Info: NONBONDED TABLE SIZE: 705 POINTS
TCL: Setting parameter alchLambda2 to 0.15000000000000002
Info: NONBONDED TABLE R-SQUARED SPACING: 0.0625
Info: NONBONDED TABLE SIZE: 705 POINTS
TCL: Running for 1500000 steps
ETITLE: TS BOND ANGLE DIHED IMPRP ELECT VDW BOUNDARY MISC KINETIC TOTAL TEMP POTENTIAL TOTALAVG TEMPAVG PRESSURE GPRESSURE VOLUME PRESSAVG GPRESSAVG
ENERGY: 0 2.3123 2.3065 0.0220 0.0000 -10993.8401 1518.2361 0.0000 0.0000 1775.0697 -7695.8934 298.9977 -9470.9632 -7695.8934 298.9977 2.3447 93.1462 30501.9025 2.3447 93.1462
ENERGY: 300000 2.0455 1.9217 0.3494 0.0000 -10742.8262 1411.1196 0.0000 0.0000 1774.3033 -7553.0868 298.8686 -9327.3901 -7576.2605 300.2705 -397.8626 -363.5980 30997.6895 92.7784 156.5948
ENERGY: 600000 5.4678 4.5229 0.0909 0.0000 -10764.0855 1432.5025 0.0000 0.0000 1787.0238 -7534.4775 301.0113 -9321.5014 -7561.8207 300.3420 -251.1045 -157.8239 30724.4443 12.3912 71.8107
ENERGY: 900000 2.8719 3.6731 0.1822 0.0000 -10724.9253 1351.0591 0.0000 0.0000 1758.3949 -7608.7440 296.1890 -9367.1389 -7553.8751 302.1424 -880.7689 -778.7406 30668.5251 -35.2062 28.9461
ENERGY: 1200000 1.6518 1.7740 0.0295 0.0000 -10847.3908 1490.2273 0.0000 0.0000 1747.0319 -7606.6762 294.2750 -9353.7081 -7560.3454 301.1911 481.9569 519.3670 30386.5818 54.5057 126.0912
ENERGY: 1500000 1.1757 3.9350 2.2466 0.0000 -10792.0307 1477.4726 0.0000 0.0000 1776.7134 -7530.4875 299.2746 -9307.2008 -7557.3818 301.1954 522.2683 587.2935 30715.1256 135.9234 212.4387
TCL: Running FEP window   4: Lambda1 0.15000000000000002 Lambda2 0.2    [dLambda 0.04999999999999999]
TCL: Setting parameter firsttimestep to 0
TCL: Setting parameter alchLambda to 0.15000000000000002
Info: NONBONDED TABLE R-SQUARED SPACING: 0.0625
Info: NONBONDED TABLE SIZE: 705 POINTS
TCL: Setting parameter alchLambda2 to 0.2
Info: NONBONDED TABLE R-SQUARED SPACING: 0.0625
Info: NONBONDED TABLE SIZE: 705 POINTS
TCL: Running for 1500000 steps
ETITLE: TS BOND ANGLE DIHED IMPRP ELECT VDW BOUNDARY MISC KINETIC TOTAL TEMP POTENTIAL TOTALAVG TEMPAVG PRESSURE GPRESSURE VOLUME PRESSAVG GPRESSAVG
ENERGY: 0 1.1756 3.9350 2.2466 0.0000 -10792.0323 1477.7300 0.0000 0.0000 1775.8080 -7531.1370 299.1221 -9306.9451 -7531.1370 299.1221 513.0032 590.6534 30715.1256 513.0032 590.6534
ENERGY: 300000 2.3810 5.1872 0.3408 0.0000 -10813.9845 1419.5897 0.0000 0.0000 1851.6910 -7534.7949 311.9040 -9386.4858 -7580.0669 302.4428 -468.3282 -399.1928 30781.3628 -290.5412 -210.9411
ENERGY: 600000 2.6971 2.4016 0.1194 0.0000 -10910.2952 1518.4299 0.0000 0.0000 1787.4625 -7599.1848 301.0852 -9386.6473 -7597.8725 302.0595 552.2534 595.1915 30329.7160 90.2373 156.2077
ENERGY: 900000 1.7667 2.1268 0.4009 0.0000 -10829.1706 1425.6519 0.0000 0.0000 1793.8102 -7605.4141 302.1544 -9399.2243 -7591.2790 302.8952 -501.1140 -461.4959 30836.1166 194.3504 251.5182
ENERGY: 1200000 1.7507 1.2592 0.1949 0.0000 -10886.1406 1424.7966 0.0000 0.0000 1778.5465 -7679.5928 299.5834 -9458.1392 -7591.6752 302.2487 -540.9824 -502.9723 30467.7900 97.4466 147.8965
ENERGY: 1500000 2.5166 3.2581 0.4809 0.0000 -10788.6644 1443.2069 0.0000 0.0000 1769.9609 -7569.2410 298.1372 -9339.2019 -7589.2147 301.3711 -295.8590 -210.6124 30891.0583 135.6428 190.3742
TCL: Running FEP window   5: Lambda1 0.2    Lambda2 0.25   [dLambda 0.04999999999999999]
TCL: Setting parameter firsttimestep to 0
TCL: Setting parameter alchLambda to 0.2
Info: NONBONDED TABLE R-SQUARED SPACING: 0.0625
Info: NONBONDED TABLE SIZE: 705 POINTS
TCL: Setting parameter alchLambda2 to 0.25
Info: NONBONDED TABLE R-SQUARED SPACING: 0.0625
Info: NONBONDED TABLE SIZE: 705 POINTS
TCL: Running for 1500000 steps
ETITLE: TS BOND ANGLE DIHED IMPRP ELECT VDW BOUNDARY MISC KINETIC TOTAL TEMP POTENTIAL TOTALAVG TEMPAVG PRESSURE GPRESSURE VOLUME PRESSAVG GPRESSAVG
ENERGY: 0 2.5166 3.2581 0.4809 0.0000 -10788.6649 1443.3021 0.0000 0.0000 1769.0571 -7570.0501 297.9849 -9339.1072 -7570.0501 297.9849 -279.4569 -208.6981 30891.0583 -279.4569 -208.6981
ENERGY: 300000 1.5568 4.1865 0.1026 0.0000 -10833.6573 1490.0073 0.0000 0.0000 1846.2207 -7491.5834 310.9826 -9337.8042 -7588.6257 300.5079 474.6048 569.6367 30378.5156 89.8924 166.6488
ENERGY: 600000 2.4918 1.2068 0.6466 0.0000 -10804.9179 1453.3969 0.0000 0.0000 1786.4195 -7560.7564 300.9095 -9347.1759 -7587.4745 301.2095 87.1371 164.5421 30452.3922 -107.5408 -21.3538
ENERGY: 900000 3.7092 2.7134 0.3298 0.0000 -10916.4538 1486.3234 0.0000 0.0000 1782.5663 -7640.8116 300.2605 -9423.3779 -7594.0506 300.2641 -124.6119 -88.2551 31014.1666 -170.5534 -96.4628
ENERGY: 1200000 2.3057 4.2774 0.4263 0.0000 -10834.7306 1473.7034 0.0000 0.0000 1793.6238 -7560.3940 302.1230 -9354.0178 -7587.4389 301.2862 383.3112 442.7642 30618.9133 -93.8469 -28.6732
ENERGY: 1500000 4.1827 4.1903 0.4510 0.0000 -10822.8800 1478.3875 0.0000 0.0000 1792.0842 -7543.5843 301.8637 -9335.6685 -7583.3894 300.8860 321.2415 335.6997 30751.7590 -48.0480 11.0774
TCL: Running FEP window   6: Lambda1 0.25   Lambda2 0.3    [dLambda 0.04999999999999999]
TCL: Setting parameter firsttimestep to 0
TCL: Setting parameter alchLambda to 0.25
Info: NONBONDED TABLE R-SQUARED SPACING: 0.0625
Info: NONBONDED TABLE SIZE: 705 POINTS
TCL: Setting parameter alchLambda2 to 0.3
Info: NONBONDED TABLE R-SQUARED SPACING: 0.0625
Info: NONBONDED TABLE SIZE: 705 POINTS
TCL: Running for 1500000 steps
ETITLE: TS BOND ANGLE DIHED IMPRP ELECT VDW BOUNDARY MISC KINETIC TOTAL TEMP POTENTIAL TOTALAVG TEMPAVG PRESSURE GPRESSURE VOLUME PRESSAVG GPRESSAVG
ENERGY: 0 4.1827 4.1903 0.4510 0.0000 -10822.8804 1479.0386 0.0000 0.0000 1791.2079 -7543.8099 301.7161 -9335.0178 -7543.8099 301.7161 252.8850 342.4734 30751.7590 252.8850 342.4734
ENERGY: 300000 4.8148 4.3749 0.0749 0.0000 -10805.3606 1428.8621 0.0000 0.0000 1804.1457 -7563.0881 303.8954 -9367.2338 -7559.7768 306.5389 -177.7723 -55.6116 30637.5328 108.7101 183.5876
ENERGY: 600000 0.6983 2.4669 0.0217 0.0000 -10818.8363 1439.4236 0.0000 0.0000 1756.0169 -7620.2089 295.7884 -9376.2258 -7590.5347 303.2506 -226.6447 -159.6562 30881.7721 -70.7426 -3.4787
ENERGY: 900000 1.3203 1.5088 0.2081 0.0000 -10799.5550 1451.3453 0.0000 0.0000 1766.3978 -7578.7747 297.5370 -9345.1725 -7588.5063 302.8786 78.7115 151.6680 30572.6670 -13.0503 56.7336
ENERGY: 1200000 0.8441 1.8858 0.0168 0.0000 -10721.6263 1412.9564 0.0000 0.0000 1771.5832 -7534.3400 298.4104 -9305.9232 -7593.3535 300.7762 -223.3849 -190.0119 30901.5370 -53.7893 12.1226
ENERGY: 1500000 4.0379 3.5955 0.0458 0.0000 -10804.0250 1371.0300 0.0000 0.0000 1750.8942 -7674.4216 294.9255 -9425.3158 -7599.9639 300.0757 -650.7231 -602.3961 30291.5402 -147.4833 -81.8447
TCL: Running FEP window   7: Lambda1 0.3    Lambda2 0.35   [dLambda 0.04999999999999999]
TCL: Setting parameter firsttimestep to 0
TCL: Setting parameter alchLambda to 0.3
Info: NONBONDED TABLE R-SQUARED SPACING: 0.0625
Info: NONBONDED TABLE SIZE: 705 POINTS
TCL: Setting parameter alchLambda2 to 0.35
Info: NONBONDED TABLE R-SQUARED SPACING: 0.0625
Info: NONBONDED TABLE SIZE: 705 POINTS
TCL: Running for 1500000 steps
ETITLE: TS BOND ANGLE DIHED IMPRP ELECT VDW BOUNDARY MISC KINETIC TOTAL TEMP POTENTIAL TOTALAVG TEMPAVG PRESSURE GPRESSURE VOLUME PRESSAVG GPRESSAVG
ENERGY: 0 4.0379 3.5955 0.0458 0.0000 -10804.0263 1371.1169 0.0000 0.0000 1750.0154 -7675.2149 294.7775 -9425.2303 -7675.2149 294.7775 -675.3164 -602.3913 30291.5402 -675.3164 -602.3913
ENERGY: 300000 1.2716 2.0698 0.1228 0.0000 -10781.3414 1491.3308 0.0000 0.0000 1744.5775 -7541.9689 293.8615 -9286.5464 -7598.5625 299.1041 62.0678 148.6725 31346.8477 -110.0505 1.4581
ENERGY: 600000 1.1128 3.8954 0.1767 0.0000 -10601.9524 1361.6766 0.0000 0.0000 1786.4533 -7448.6376 300.9152 -9235.0909 -7555.9593 301.3842 -548.2671 -438.3771 30960.3178 -320.3148 -224.5412
ENERGY: 900000 1.9927 1.7055 0.2086 0.0000 -10801.4785 1481.0460 0.0000 0.0000 1836.3854 -7480.1403 309.3259 -9316.5257 -7538.6527 303.8774 469.7227 477.8362 30981.3662 -16.5641 51.7842
ENERGY: 1200000 0.9392 1.7489 0.1111 0.0000 -10689.1958 1395.9148 0.0000 0.0000 1822.4899 -7467.9919 306.9853 -9290.4818 -7537.3489 303.0984 -460.8265 -443.7350 30984.5061 -124.4849 -63.1462
ENERGY: 1500000 1.4529 1.9258 0.0356 0.0000 -10741.4653 1458.9821 0.0000 0.0000 1780.4712 -7498.5978 299.9076 -9279.0690 -7545.8288 302.4352 109.5801 174.8762 31182.5435 -143.5520 -83.6084
TCL: Running FEP window   8: Lambda1 0.35   Lambda2 0.39999999999999997 [dLambda 0.04999999999999999]
TCL: Setting parameter firsttimestep to 0
TCL: Setting parameter alchLambda to 0.35
Info: NONBONDED TABLE R-SQUARED SPACING: 0.0625
Info: NONBONDED TABLE SIZE: 705 POINTS
TCL: Setting parameter alchLambda2 to 0.39999999999999997
Info: NONBONDED TABLE R-SQUARED SPACING: 0.0625
Info: NONBONDED TABLE SIZE: 705 POINTS
TCL: Running for 1500000 steps
ETITLE: TS BOND ANGLE DIHED IMPRP ELECT VDW BOUNDARY MISC KINETIC TOTAL TEMP POTENTIAL TOTALAVG TEMPAVG PRESSURE GPRESSURE VOLUME PRESSAVG GPRESSAVG
ENERGY: 0 1.4529 1.9258 0.0356 0.0000 -10741.4655 1459.2699 0.0000 0.0000 1779.5377 -7499.2436 299.7503 -9278.7814 -7499.2436 299.7503 90.1328 182.3833 31182.5435 90.1328 182.3833
ENERGY: 300000 3.8723 2.2907 0.6479 0.0000 -10867.6565 1493.0893 0.0000 0.0000 1782.9129 -7584.8434 300.3189 -9367.7563 -7573.8973 301.0379 425.5769 463.7130 30443.3864 201.8651 267.7605
ENERGY: 600000 4.8412 3.3466 0.4247 0.0000 -10886.9056 1501.4440 0.0000 0.0000 1827.4148 -7549.4342 307.8149 -9376.8491 -7563.0958 302.5021 556.5542 561.7468 30647.1006 303.1001 359.7403
ENERGY: 900000 0.5292 3.3171 0.2908 0.0000 -10993.2826 1558.3915 0.0000 0.0000 1815.1094 -7615.6446 305.7421 -9430.7540 -7567.7213 302.0882 814.4878 855.5603 30471.1595 260.7913 307.1015
ENERGY: 1200000 0.9186 3.0849 0.1853 0.0000 -10871.5689 1399.6831 0.0000 0.0000 1831.6627 -7636.0342 308.5304 -9467.6969 -7570.6473 303.2901 -540.4321 -529.9380 30542.2557 146.9163 185.3931
ENERGY: 1500000 1.8882 1.5998 0.0152 0.0000 -10895.9797 1490.9314 0.0000 0.0000 1769.1868 -7632.3583 298.0068 -9401.5451 -7579.8340 302.1010 250.2305 258.8805 30750.0547 72.2316 106.0408
TCL: Running FEP window   9: Lambda1 0.39999999999999997 Lambda2 0.44999999999999996 [dLambda 0.04999999999999999]
TCL: Setting parameter firsttimestep to 0
TCL: Setting parameter alchLambda to 0.39999999999999997
Info: NONBONDED TABLE R-SQUARED SPACING: 0.0625
Info: NONBONDED TABLE SIZE: 705 POINTS
TCL: Setting parameter alchLambda2 to 0.44999999999999996
Info: NONBONDED TABLE R-SQUARED SPACING: 0.0625
Info: NONBONDED TABLE SIZE: 705 POINTS
TCL: Running for 1500000 steps
ETITLE: TS BOND ANGLE DIHED IMPRP ELECT VDW BOUNDARY MISC KINETIC TOTAL TEMP POTENTIAL TOTALAVG TEMPAVG PRESSURE GPRESSURE VOLUME PRESSAVG GPRESSAVG
ENERGY: 0 1.8882 1.5998 0.0152 0.0000 -10895.9791 1490.9701 0.0000 0.0000 1768.2853 -7633.2204 297.8549 -9401.5057 -7633.2204 297.8549 177.3289 263.3610 30750.0547 177.3289 263.3610
ENERGY: 300000 2.1340 2.1631 0.0990 0.0000 -10987.5852 1567.7790 0.0000 0.0000 1814.0103 -7601.3997 305.5570 -9415.4100 -7593.1909 303.0387 853.2264 907.6049 30601.2917 565.6433 607.5652
ENERGY: 600000 2.5196 4.1542 0.5629 0.0000 -10718.9554 1371.4752 0.0000 0.0000 1841.5487 -7498.6948 310.1956 -9340.2435 -7584.5482 304.1456 -608.4635 -554.9913 31072.3350 150.0421 182.2837
ENERGY: 900000 4.6277 3.2778 0.3639 0.0000 -10767.1540 1412.6359 0.0000 0.0000 1790.2701 -7555.9785 301.5581 -9346.2486 -7570.7029 304.0540 -475.7629 -454.9591 31059.5549 48.5348 92.7581
ENERGY: 1200000 2.4908 1.8346 0.0807 0.0000 -10711.6318 1411.8250 0.0000 0.0000 1757.6174 -7537.7833 296.0580 -9295.4007 -7575.1273 303.1619 -87.7594 -83.6405 31086.9004 1.0521 45.7521
ENERGY: 1500000 0.9471 1.3556 0.0330 0.0000 -10955.6447 1475.8729 0.0000 0.0000 1758.3229 -7719.1132 296.1768 -9477.4361 -7584.7559 302.6461 -92.2815 -90.1541 30598.3245 80.1326 120.8369
TCL: Running FEP window  10: Lambda1 0.44999999999999996 Lambda2 0.49999999999999994 [dLambda 0.04999999999999999]
TCL: Setting parameter firsttimestep to 0
TCL: Setting parameter alchLambda to 0.44999999999999996
Info: NONBONDED TABLE R-SQUARED SPACING: 0.0625
Info: NONBONDED TABLE SIZE: 705 POINTS
TCL: Setting parameter alchLambda2 to 0.49999999999999994
Info: NONBONDED TABLE R-SQUARED SPACING: 0.0625
Info: NONBONDED TABLE SIZE: 705 POINTS
TCL: Running for 1500000 steps
ETITLE: TS BOND ANGLE DIHED IMPRP ELECT VDW BOUNDARY MISC KINETIC TOTAL TEMP POTENTIAL TOTALAVG TEMPAVG PRESSURE GPRESSURE VOLUME PRESSAVG GPRESSAVG
ENERGY: 0 0.9471 1.3556 0.0330 0.0000 -10955.6466 1475.9375 0.0000 0.0000 1757.4495 -7719.9240 296.0297 -9477.3735 -7719.9240 296.0297 -174.1420 -85.6080 30598.3245 -174.1420 -85.6080
ENERGY: 300000 1.7181 3.7884 0.0262 0.0000 -10850.9746 1495.0215 0.0000 0.0000 1794.4916 -7555.9288 302.2692 -9350.4204 -7626.9867 295.6273 219.2975 305.5663 31003.9674 -403.3198 -328.1008
ENERGY: 600000 2.8601 3.8706 0.3018 0.0000 -10748.3198 1430.3430 0.0000 0.0000 1791.0173 -7519.9270 301.6840 -9310.9443 -7587.7557 300.0284 -223.9997 -186.2180 31150.5480 -341.2838 -275.4015
ENERGY: 900000 1.5759 1.8934 0.0917 0.0000 -10779.8242 1426.2562 0.0000 0.0000 1732.3533 -7617.6537 291.8025 -9350.0071 -7597.0614 298.5165 -95.2850 -56.3476 30847.5210 -238.7568 -170.7955
ENERGY: 1200000 2.6175 4.3320 0.3915 0.0000 -10904.0328 1488.0804 0.0000 0.0000 1819.8351 -7588.7764 306.5381 -9408.6115 -7595.6946 299.6181 240.3999 244.4383 30834.8235 -170.6078 -112.9457
ENERGY: 1500000 1.9345 4.9492 0.5415 0.0000 -10855.4099 1456.4595 0.0000 0.0000 1806.4584 -7585.0667 304.2849 -9391.5251 -7586.0887 301.1044 85.2129 126.1683 30421.8145 -174.2168 -117.8907
TCL: Running FEP window  11: Lambda1 0.49999999999999994 Lambda2 0.5499999999999999 [dLambda 0.04999999999999999]
TCL: Setting parameter firsttimestep to 0
TCL: Setting parameter alchLambda to 0.49999999999999994
Info: NONBONDED TABLE R-SQUARED SPACING: 0.0625
Info: NONBONDED TABLE SIZE: 705 POINTS
TCL: Setting parameter alchLambda2 to 0.5499999999999999
Info: NONBONDED TABLE R-SQUARED SPACING: 0.0625
Info: NONBONDED TABLE SIZE: 705 POINTS
TCL: Running for 1500000 steps
ETITLE: TS BOND ANGLE DIHED IMPRP ELECT VDW BOUNDARY MISC KINETIC TOTAL TEMP POTENTIAL TOTALAVG TEMPAVG PRESSURE GPRESSURE VOLUME PRESSAVG GPRESSAVG
ENERGY: 0 1.9345 4.9492 0.5415 0.0000 -10855.4111 1456.3225 0.0000 0.0000 1805.5461 -7586.1174 304.1313 -9391.6635 -7586.1174 304.1313 46.0613 134.7611 30421.8145 46.0613 134.7611
ENERGY: 300000 2.7671 1.8758 0.1593 0.0000 -10653.4270 1307.5271 0.0000 0.0000 1767.7870 -7573.3107 297.7710 -9341.0977 -7567.2892 300.9306 -1191.2150 -1108.7332 31019.6104 -698.9828 -617.9103
ENERGY: 600000 1.2047 3.9785 0.0671 0.0000 -10682.2176 1370.5677 0.0000 0.0000 1773.1531 -7533.2464 298.6749 -9306.3996 -7584.4926 299.3221 -463.4507 -400.3345 30864.4813 -413.9097 -342.0326
ENERGY: 900000 2.3893 3.8252 0.6787 0.0000 -10797.3018 1412.0839 0.0000 0.0000 1823.9036 -7554.4210 307.2234 -9378.3246 -7569.3693 300.5531 -449.6011 -420.8833 30846.2669 -342.0951 -271.4895
ENERGY: 1200000 0.9739 1.7420 0.0183 0.0000 -10870.1849 1455.8810 0.0000 0.0000 1776.7347 -7634.8350 299.2782 -9411.5697 -7577.3878 300.1684 -141.6660 -138.8595 30939.5136 -332.8430 -268.0670
ENERGY: 1500000 2.7382 3.7229 0.4140 0.0000 -10928.1656 1527.4812 0.0000 0.0000 1845.4895 -7548.3199 310.8594 -9393.8094 -7582.8752 300.0540 481.6648 576.4455 30604.3477 -286.7301 -213.3285
TCL: Running FEP window  12: Lambda1 0.5499999999999999 Lambda2 0.6    [dLambda 0.050000000000000044]
TCL: Setting parameter firsttimestep to 0
TCL: Setting parameter alchLambda to 0.5499999999999999
Info: NONBONDED TABLE R-SQUARED SPACING: 0.0625
Info: NONBONDED TABLE SIZE: 705 POINTS
TCL: Setting parameter alchLambda2 to 0.6
Info: NONBONDED TABLE R-SQUARED SPACING: 0.0625
Info: NONBONDED TABLE SIZE: 705 POINTS
TCL: Running for 1500000 steps
ETITLE: TS BOND ANGLE DIHED IMPRP ELECT VDW BOUNDARY MISC KINETIC TOTAL TEMP POTENTIAL TOTALAVG TEMPAVG PRESSURE GPRESSURE VOLUME PRESSAVG GPRESSAVG
ENERGY: 0 2.7382 3.7229 0.4140 0.0000 -10927.9512 1527.5558 0.0000 0.0000 1844.5723 -7548.9481 310.7049 -9393.5204 -7548.9481 310.7049 495.7170 582.8383 30604.3477 495.7170 582.8383
ENERGY: 300000 2.6249 3.5398 0.6596 0.0000 -10779.8529 1388.5855 0.0000 0.0000 1808.5298 -7575.9133 304.6338 -9384.4431 -7615.7403 302.7404 -343.4001 -279.5155 30261.9370 95.0903 163.3647
ENERGY: 600000 0.7809 2.5092 0.0430 0.0000 -10719.4866 1367.6320 0.0000 0.0000 1792.1980 -7556.3236 301.8829 -9348.5216 -7584.2120 303.8030 -545.5968 -470.4163 30761.9540 68.0267 137.6567
ENERGY: 900000 1.7056 2.9438 0.0664 0.0000 -10771.4634 1404.8414 0.0000 0.0000 1708.7627 -7653.1435 287.8288 -9361.9062 -7586.5732 301.9922 -211.5133 -97.5755 30528.7909 37.0938 118.9688
ENERGY: 1200000 2.4254 3.9848 0.0979 0.0000 -10897.8230 1561.1536 0.0000 0.0000 1761.7205 -7568.4409 296.7491 -9330.1613 -7577.2387 301.7351 953.9124 1055.1758 30531.7029 41.4816 127.2073
ENERGY: 1500000 1.3279 1.2940 0.2559 0.0000 -10744.5469 1361.0800 0.0000 0.0000 1789.0683 -7591.5207 301.3557 -9380.5890 -7584.0934 301.2861 -881.7887 -797.0588 30821.1709 -7.1688 76.9679
TCL: Running FEP window  13: Lambda1 0.6    Lambda2 0.65   [dLambda 0.050000000000000044]
TCL: Setting parameter firsttimestep to 0
TCL: Setting parameter alchLambda to 0.6
Info: NONBONDED TABLE R-SQUARED SPACING: 0.0625
Info: NONBONDED TABLE SIZE: 705 POINTS
TCL: Setting parameter alchLambda2 to 0.65
Info: NONBONDED TABLE R-SQUARED SPACING: 0.0625
Info: NONBONDED TABLE SIZE: 705 POINTS
TCL: Running for 1500000 steps
ETITLE: TS BOND ANGLE DIHED IMPRP ELECT VDW BOUNDARY MISC KINETIC TOTAL TEMP POTENTIAL TOTALAVG TEMPAVG PRESSURE GPRESSURE VOLUME PRESSAVG GPRESSAVG
ENERGY: 0 1.3279 1.2940 0.2559 0.0000 -10744.4378 1361.6112 0.0000 0.0000 1788.2177 -7591.7311 301.2124 -9379.9488 -7591.7311 301.2124 -883.4529 -788.3278 30821.1709 -883.4529 -788.3278
ENERGY: 300000 1.8441 3.4124 0.4021 0.0000 -10931.0662 1564.3371 0.0000 0.0000 1761.9115 -7599.1589 296.7813 -9361.0704 -7583.0939 298.1897 964.2651 1026.4903 30518.3532 12.5034 74.6654
ENERGY: 600000 1.4338 3.8842 0.6532 0.0000 -10828.6543 1389.7318 0.0000 0.0000 1782.7062 -7650.2450 300.2840 -9432.9512 -7607.2457 299.2598 -921.6651 -803.1772 31148.9369 -115.7049 -53.4182
ENERGY: 900000 1.9844 4.6662 0.1083 0.0000 -10888.7573 1484.3181 0.0000 0.0000 1786.7416 -7610.9386 300.9638 -9397.6802 -7602.2499 299.2155 -43.1699 31.8753 30854.2569 -186.1761 -121.1547
ENERGY: 1200000 1.3781 2.0232 0.3772 0.0000 -10785.9952 1415.4430 0.0000 0.0000 1768.3819 -7598.3916 297.8712 -9366.7735 -7596.0677 299.7993 -17.8204 10.4967 30395.1433 -163.5602 -97.1187
ENERGY: 1500000 0.5121 3.0613 0.1466 0.0000 -10961.6068 1549.9528 0.0000 0.0000 1723.3194 -7684.6147 290.2808 -9407.9341 -7599.7403 299.2767 672.7968 712.2436 30675.3547 -80.1905 -19.0387
TCL: Running FEP window  14: Lambda1 0.65   Lambda2 0.7000000000000001 [dLambda 0.050000000000000044]
TCL: Setting parameter firsttimestep to 0
TCL: Setting parameter alchLambda to 0.65
Info: NONBONDED TABLE R-SQUARED SPACING: 0.0625
Info: NONBONDED TABLE SIZE: 705 POINTS
TCL: Setting parameter alchLambda2 to 0.7000000000000001
Info: NONBONDED TABLE R-SQUARED SPACING: 0.0625
Info: NONBONDED TABLE SIZE: 705 POINTS
TCL: Running for 1500000 steps
ETITLE: TS BOND ANGLE DIHED IMPRP ELECT VDW BOUNDARY MISC KINETIC TOTAL TEMP POTENTIAL TOTALAVG TEMPAVG PRESSURE GPRESSURE VOLUME PRESSAVG GPRESSAVG
ENERGY: 0 0.5121 3.0613 0.1466 0.0000 -10961.9074 1549.9215 0.0000 0.0000 1722.4098 -7685.8561 290.1275 -9408.2659 -7685.8561 290.1275 638.8955 716.1306 30675.3547 638.8955 716.1306
ENERGY: 300000 2.0817 3.3958 0.0757 0.0000 -10859.0763 1505.3416 0.0000 0.0000 1773.8503 -7574.3313 298.7923 -9348.1816 -7592.2149 298.9077 332.6267 380.4365 31062.8765 337.5190 385.3977
ENERGY: 600000 2.6542 1.2480 0.1192 0.0000 -10918.6460 1561.8967 0.0000 0.0000 1794.2246 -7558.5034 302.2242 -9352.7280 -7597.5715 298.3688 679.3495 738.9011 31206.0991 290.9950 336.9135
ENERGY: 900000 2.0304 1.3956 0.0813 0.0000 -10929.9585 1484.1382 0.0000 0.0000 1808.8710 -7633.4421 304.6913 -9442.3130 -7603.3703 298.3947 181.5400 263.3295 30397.1313 101.1058 162.1058
ENERGY: 1200000 1.3086 3.5773 0.0762 0.0000 -10942.6763 1539.2395 0.0000 0.0000 1771.7775 -7626.6972 298.4432 -9398.4747 -7601.6576 299.0558 759.1167 855.4377 30242.0268 132.7997 194.4730
ENERGY: 1500000 1.5379 2.7320 0.1354 0.0000 -10979.3181 1542.7177 0.0000 0.0000 1793.7393 -7638.4559 302.1425 -9432.1952 -7597.3530 299.5383 526.6238 595.1997 30579.5986 87.1575 145.1954
TCL: Running FEP window  15: Lambda1 0.7000000000000001 Lambda2 0.7500000000000001 [dLambda 0.050000000000000044]
TCL: Setting parameter firsttimestep to 0
TCL: Setting parameter alchLambda to 0.7000000000000001
Info: NONBONDED TABLE R-SQUARED SPACING: 0.0625
Info: NONBONDED TABLE SIZE: 705 POINTS
TCL: Setting parameter alchLambda2 to 0.7500000000000001
Info: NONBONDED TABLE R-SQUARED SPACING: 0.0625
Info: NONBONDED TABLE SIZE: 705 POINTS
TCL: Running for 1500000 steps
ETITLE: TS BOND ANGLE DIHED IMPRP ELECT VDW BOUNDARY MISC KINETIC TOTAL TEMP POTENTIAL TOTALAVG TEMPAVG PRESSURE GPRESSURE VOLUME PRESSAVG GPRESSAVG
ENERGY: 0 1.5379 2.7320 0.1354 0.0000 -10979.6994 1542.6074 0.0000 0.0000 1792.8404 -7639.8463 301.9911 -9432.6868 -7639.8463 301.9911 509.6951 598.0481 30579.5986 509.6951 598.0481
ENERGY: 300000 2.4328 2.5565 0.1989 0.0000 -10872.0189 1501.7425 0.0000 0.0000 1768.0551 -7597.0332 297.8162 -9365.0883 -7599.3179 296.5197 272.9818 369.0011 30781.0023 129.8794 185.6917
ENERGY: 600000 0.9491 4.2445 0.1070 0.0000 -10906.9738 1496.2776 0.0000 0.0000 1815.9657 -7589.4298 305.8864 -9405.3956 -7593.5950 298.5848 63.0426 131.8955 31213.9020 219.6041 297.8549
ENERGY: 900000 0.4164 1.4381 0.1375 0.0000 -11025.3082 1564.3453 0.0000 0.0000 1751.2478 -7707.7231 294.9851 -9458.9710 -7607.1177 297.8067 652.1969 702.6433 30496.9555 349.8013 428.2201
ENERGY: 1200000 1.1862 5.9211 0.2430 0.0000 -10870.5073 1453.4825 0.0000 0.0000 1778.3564 -7631.3180 299.5514 -9409.6744 -7621.5198 298.2596 157.4549 107.5137 30572.4482 321.6700 385.1875
ENERGY: 1500000 1.4290 3.9053 0.5402 0.0000 -10744.9337 1353.6527 0.0000 0.0000 1762.7215 -7622.6850 296.9178 -9385.4065 -7616.0943 298.5213 -804.5631 -739.2228 30720.3455 215.0077 279.0381
TCL: Running FEP window  16: Lambda1 0.7500000000000001 Lambda2 0.8000000000000002 [dLambda 0.050000000000000044]
TCL: Setting parameter firsttimestep to 0
TCL: Setting parameter alchLambda to 0.7500000000000001
Info: NONBONDED TABLE R-SQUARED SPACING: 0.0625
Info: NONBONDED TABLE SIZE: 705 POINTS
TCL: Setting parameter alchLambda2 to 0.8000000000000002
Info: NONBONDED TABLE R-SQUARED SPACING: 0.0625
Info: NONBONDED TABLE SIZE: 705 POINTS
TCL: Running for 1500000 steps
ETITLE: TS BOND ANGLE DIHED IMPRP ELECT VDW BOUNDARY MISC KINETIC TOTAL TEMP POTENTIAL TOTALAVG TEMPAVG PRESSURE GPRESSURE VOLUME PRESSAVG GPRESSAVG
ENERGY: 0 1.4290 3.9053 0.5402 0.0000 -10745.0017 1353.4584 0.0000 0.0000 1761.8399 -7623.8289 296.7693 -9385.6688 -7623.8289 296.7693 -827.4322 -738.6796 30720.3455 -827.4322 -738.6796
ENERGY: 300000 1.0281 1.3819 0.1459 0.0000 -10918.5119 1499.1164 0.0000 0.0000 1807.3651 -7609.4747 304.4376 -9416.8398 -7596.7462 300.7748 122.5732 226.0436 30775.1921 -377.3373 -301.0774
ENERGY: 600000 2.0501 2.7273 0.8524 0.0000 -11091.9404 1595.6238 0.0000 0.0000 1771.2539 -7719.4330 298.3550 -9490.6869 -7613.1597 300.6056 758.9053 861.2612 30461.8853 -192.1163 -120.9900
ENERGY: 900000 1.4514 2.2558 0.0682 0.0000 -10962.5068 1509.1333 0.0000 0.0000 1800.4716 -7649.1265 303.2765 -9449.5981 -7605.1544 300.9056 294.4446 356.4728 30525.9908 -164.0433 -96.7728
ENERGY: 1200000 1.3941 4.2804 0.0371 0.0000 -10859.1979 1469.8477 0.0000 0.0000 1813.8661 -7569.7725 305.5327 -9383.6386 -7607.6920 300.6538 -246.0746 -139.0717 31122.6753 -105.3185 -35.8897
ENERGY: 1500000 0.4980 4.1673 0.1935 0.0000 -10716.1373 1409.5987 0.0000 0.0000 1864.0086 -7437.6713 313.9788 -9301.6799 -7594.5740 302.4076 -191.1203 -139.6615 31036.1003 -96.6663 -35.6512
TCL: Running FEP window  17: Lambda1 0.8000000000000002 Lambda2 0.8500000000000002 [dLambda 0.050000000000000044]
TCL: Setting parameter firsttimestep to 0
TCL: Setting parameter alchLambda to 0.8000000000000002
Info: NONBONDED TABLE R-SQUARED SPACING: 0.0625
Info: NONBONDED TABLE SIZE: 705 POINTS
TCL: Setting parameter alchLambda2 to 0.8500000000000002
Info: NONBONDED TABLE R-SQUARED SPACING: 0.0625
Info: NONBONDED TABLE SIZE: 705 POINTS
TCL: Running for 1500000 steps
ETITLE: TS BOND ANGLE DIHED IMPRP ELECT VDW BOUNDARY MISC KINETIC TOTAL TEMP POTENTIAL TOTALAVG TEMPAVG PRESSURE GPRESSURE VOLUME PRESSAVG GPRESSAVG
ENERGY: 0 0.4980 4.1673 0.1935 0.0000 -10716.3610 1409.6006 0.0000 0.0000 1863.1147 -7438.7869 313.8283 -9301.9016 -7438.7869 313.8283 -217.9727 -131.5600 31036.1003 -217.9727 -131.5600
ENERGY: 300000 1.7332 3.5216 0.0601 0.0000 -11045.5324 1539.4518 0.0000 0.0000 1823.7871 -7676.9786 307.2038 -9500.7657 -7568.0301 309.6423 295.8389 320.1268 30579.0061 -58.1913 -0.9712
ENERGY: 600000 2.2529 3.0562 0.0522 0.0000 -10862.9359 1412.8660 0.0000 0.0000 1834.7569 -7609.9516 309.0516 -9444.7085 -7583.9311 306.9055 -340.8961 -274.8301 30588.1743 -108.8559 -64.3041
ENERGY: 900000 0.6745 2.8786 0.4356 0.0000 -10858.2671 1508.1198 0.0000 0.0000 1777.5449 -7568.6138 299.4147 -9346.1587 -7584.7732 305.2064 560.0439 585.9285 30757.1737 63.9842 114.7557
ENERGY: 1200000 1.4278 2.7360 0.2426 0.0000 -10805.0675 1399.3969 0.0000 0.0000 1781.3399 -7619.9244 300.0539 -9401.2642 -7585.5607 304.7433 -546.2463 -505.9387 31055.3560 37.1529 85.1859
ENERGY: 1500000 2.5214 2.2893 0.0457 0.0000 -10969.9925 1529.2936 0.0000 0.0000 1762.3528 -7673.4898 296.8557 -9435.8425 -7582.0743 304.1584 460.4974 598.2568 30407.0464 -31.0362 21.0962
TCL: Running FEP window  18: Lambda1 0.8500000000000002 Lambda2 0.9000000000000002 [dLambda 0.050000000000000044]
TCL: Setting parameter firsttimestep to 0
TCL: Setting parameter alchLambda to 0.8500000000000002
Info: NONBONDED TABLE R-SQUARED SPACING: 0.0625
Info: NONBONDED TABLE SIZE: 705 POINTS
TCL: Setting parameter alchLambda2 to 0.9000000000000002
Info: NONBONDED TABLE R-SQUARED SPACING: 0.0625
Info: NONBONDED TABLE SIZE: 705 POINTS
TCL: Running for 1500000 steps
ETITLE: TS BOND ANGLE DIHED IMPRP ELECT VDW BOUNDARY MISC KINETIC TOTAL TEMP POTENTIAL TOTALAVG TEMPAVG PRESSURE GPRESSURE VOLUME PRESSAVG GPRESSAVG
ENERGY: 0 2.5214 2.2893 0.0457 0.0000 -10970.1502 1529.2873 0.0000 0.0000 1761.4472 -7674.5593 296.7031 -9436.0065 -7674.5593 296.7031 531.8927 603.9591 30407.0464 531.8927 603.9591
ENERGY: 300000 0.1577 2.4930 0.3097 0.0000 -10877.0534 1442.4128 0.0000 0.0000 1754.0192 -7677.6611 295.4519 -9431.6802 -7638.1243 299.4825 -358.3613 -219.2932 30725.6908 386.9037 450.7120
ENERGY: 600000 3.0908 0.9932 0.2117 0.0000 -10773.0397 1443.0681 0.0000 0.0000 1834.6137 -7491.0623 309.0275 -9325.6759 -7595.7773 302.2006 81.4724 138.2146 30566.4127 447.7755 507.3380
ENERGY: 900000 1.8266 3.4085 0.0676 0.0000 -10740.2979 1367.0293 0.0000 0.0000 1813.6327 -7554.3332 305.4934 -9367.9658 -7581.9802 302.8956 -846.2166 -821.7508 30963.9853 57.3779 114.1127
ENERGY: 1200000 1.1767 4.4745 0.1074 0.0000 -10875.9432 1463.7997 0.0000 0.0000 1805.2509 -7601.1341 304.0815 -9406.3849 -7580.3016 302.3915 233.1495 258.9874 30370.3102 98.1011 149.2133
ENERGY: 1500000 0.3135 2.9472 0.0884 0.0000 -10884.1318 1462.9438 0.0000 0.0000 1799.5790 -7618.2599 303.1261 -9417.8390 -7582.3444 302.6750 -228.3111 -143.3535 31092.7828 108.6238 161.6187
TCL: Running FEP window  19: Lambda1 0.9000000000000002 Lambda2 0.9500000000000003 [dLambda 0.050000000000000044]
TCL: Setting parameter firsttimestep to 0
TCL: Setting parameter alchLambda to 0.9000000000000002
Info: NONBONDED TABLE R-SQUARED SPACING: 0.0625
Info: NONBONDED TABLE SIZE: 705 POINTS
TCL: Setting parameter alchLambda2 to 0.9500000000000003
Info: NONBONDED TABLE R-SQUARED SPACING: 0.0625
Info: NONBONDED TABLE SIZE: 705 POINTS
TCL: Running for 1500000 steps
ETITLE: TS BOND ANGLE DIHED IMPRP ELECT VDW BOUNDARY MISC KINETIC TOTAL TEMP POTENTIAL TOTALAVG TEMPAVG PRESSURE GPRESSURE VOLUME PRESSAVG GPRESSAVG
ENERGY: 0 0.3135 2.9472 0.0884 0.0000 -10884.3586 1462.5211 0.0000 0.0000 1798.7139 -7619.7746 302.9804 -9418.4885 -7619.7746 302.9804 -229.0171 -140.7125 31092.7828 -229.0171 -140.7125
ENERGY: 300000 1.5764 3.5332 0.1310 0.0000 -10960.6673 1514.9045 0.0000 0.0000 1779.8520 -7660.6703 299.8033 -9440.5223 -7638.4730 295.6765 338.0741 476.7757 30685.6381 -352.4502 -281.1617
ENERGY: 600000 2.3919 1.7469 0.0546 0.0000 -10753.5958 1376.7934 0.0000 0.0000 1794.4836 -7578.1254 302.2679 -9372.6089 -7610.8408 297.1806 -788.5398 -744.7821 31286.6330 -262.9301 -198.2694
ENERGY: 900000 1.1529 5.8706 0.1767 0.0000 -10771.5454 1393.8103 0.0000 0.0000 1801.7931 -7568.7417 303.4991 -9370.5348 -7598.0311 298.2117 -806.6924 -730.0785 31505.8141 -307.6739 -231.5505
ENERGY: 1200000 1.9294 3.4809 0.1237 0.0000 -10770.8165 1406.2575 0.0000 0.0000 1803.8388 -7555.1860 303.8437 -9359.0248 -7598.8061 298.9931 -442.6635 -314.7591 30782.9537 -321.5469 -244.3197
ENERGY: 1500000 1.0558 2.4575 0.2371 0.0000 -10949.8631 1527.9841 0.0000 0.0000 1808.4514 -7609.6772 304.6206 -9418.1286 -7593.7073 300.3764 621.7493 679.4888 30541.6329 -188.3052 -109.8677
TCL: Running FEP window  20: Lambda1 0.9500000000000003 Lambda2 1.0    [dLambda 0.04999999999999971]
TCL: Setting parameter firsttimestep to 0
TCL: Setting parameter alchLambda to 0.9500000000000003
Info: NONBONDED TABLE R-SQUARED SPACING: 0.0625
Info: NONBONDED TABLE SIZE: 705 POINTS
TCL: Setting parameter alchLambda2 to 1.0
Info: NONBONDED TABLE R-SQUARED SPACING: 0.0625
Info: NONBONDED TABLE SIZE: 705 POINTS
TCL: Running for 1500000 steps
ETITLE: TS BOND ANGLE DIHED IMPRP ELECT VDW BOUNDARY MISC KINETIC TOTAL TEMP POTENTIAL TOTALAVG TEMPAVG PRESSURE GPRESSURE VOLUME PRESSAVG GPRESSAVG
ENERGY: 0 1.0558 2.4575 0.2371 0.0000 -10950.1391 1528.9017 0.0000 0.0000 1807.5237 -7609.9633 304.4644 -9417.4870 -7609.9633 304.4644 614.6499 703.7426 30541.6329 614.6499 703.7426
ENERGY: 300000 0.9546 1.3480 0.0561 0.0000 -10842.5549 1436.8120 0.0000 0.0000 1762.3123 -7641.0719 296.8488 -9403.3842 -7596.0839 300.8796 -261.2021 -191.9890 30940.1142 74.5906 162.1832
ENERGY: 600000 1.1467 2.2637 0.4413 0.0000 -10890.5357 1477.8323 0.0000 0.0000 1777.6302 -7631.2215 299.4290 -9408.8517 -7622.8747 298.3096 45.6817 77.9751 30768.0004 -8.1587 63.4121
ENERGY: 900000 0.9242 5.8145 0.0274 0.0000 -10904.5347 1469.2767 0.0000 0.0000 1737.2489 -7691.2429 292.6271 -9428.4918 -7630.0847 298.1768 101.6371 131.7290 30542.8294 -1.0019 66.1563
ENERGY: 1200000 1.4158 2.5292 0.4654 0.0000 -10814.4007 1377.6704 0.0000 0.0000 1848.4285 -7583.8914 311.3545 -9432.3199 -7614.1266 300.1417 -521.6126 -436.1797 30470.4201 -178.1686 -111.4245
ENERGY: 1500000 1.4014 1.9318 0.3154 0.0000 -10845.5811 1465.9716 0.0000 0.0000 1803.7270 -7572.2339 303.8248 -9375.9609 -7608.8803 300.7496 334.3894 385.3153 30461.8325 -120.0780 -55.0049
TCL: Exiting due to exit command.
