Info: SIMULATION PARAMETERS:
Info: TIMESTEP               2
Info: NUMBER OF STEPS        0
Info: STEPS PER CYCLE        10
Info: PERIODIC CELL BASIS 1  31.4548 0 0
Info: PERIODIC CELL BASIS 2  0 31.2573 0
Info: PERIODIC CELL BASIS 3  0 0 30.1146
Info: PERIODIC CELL CENTER   0 0 0
Info: WRAPPING WATERS AROUND PERIODIC BOUNDARIES ON OUTPUT.
Info: WRAPPING ALL CLUSTERS AROUND PERIODIC BOUNDARIES ON OUTPUT.
Info: FIRST LDB TIMESTEP     50
Info: LAST LDB TIMESTEP     -1
Info: HOM BACKGROUND SCALING 1
Info: PME BACKGROUND SCALING 1
Info: MIN ATOMS PER PATCH    40
Info: EMPTY PATCH LOAD       40 ATOMS
Info: VELOCITY FILE          mobley_8558116_equil.vel
Info: CENTER OF MASS MOVING INITIALLY? NO
Info: DIELECTRIC             1
Info: EXCLUDE                SCALED ONE-FOUR
Info: 1-4 ELECTROSTATICS SCALED BY 0.833333
Info: MODIFIED 1-4 VDW PARAMETERS WILL BE USED
Info: DCD FILENAME           mobley_8558116_prod.dcd
Info: DCD FREQUENCY          100000
Info: DCD FIRST STEP         100000
Info: DCD FILE WILL CONTAIN UNIT CELL DATA
Info: XST FILENAME           mobley_8558116_prod.xst
Info: XST FREQUENCY          100000
Info: NO VELOCITY DCD OUTPUT
Info: NO FORCE DCD OUTPUT
Info: OUTPUT FILENAME        mobley_8558116_prod
Info: BINARY OUTPUT FILES WILL BE USED
Info: RESTART FILENAME       mobley_8558116_prod.restart
Info: RESTART FREQUENCY      100000
Info: BINARY RESTART FILES WILL BE USED
Info: CUTOFF                 9
Info: PAIRLIST DISTANCE      11
Info: PAIRLIST SHRINK RATE   0.01
Info: PAIRLIST GROW RATE     0.01
Info: PAIRLIST TRIGGER       0.3
Info: PAIRLISTS PER CYCLE    2
Info: PAIRLISTS ENABLED
Info: MARGIN                 2
Info: HYDROGEN GROUP CUTOFF  2.5
Info: PATCH DIMENSION        15.5
Info: ENERGY OUTPUT STEPS    100000
Info: ENERGY EVALUATION STEPS    100000
Info: OUTPUT ENERGY PRECISION 4
Info: CROSSTERM ENERGY INCLUDED IN DIHEDRAL
Info: TIMING OUTPUT STEPS    1000000
Info: PRESSURE OUTPUT STEPS  100000
Info: ALCHEMICAL FEP ON
Info: FEP CURRENT LAMBDA VALUE     0
Info: FEP COMPARISON LAMBDA VALUE  0.05
Info: FEP INTRA-ALCHEMICAL NON-BONDED INTERACTIONS WILL BE RETAINED
Info: FEP INTRA-ALCHEMICAL BONDED INTERACTIONS WILL BE RETAINED
Info: FEP VDW SHIFTING COEFFICIENT 5
Info: FEP ELEC. ACTIVE FOR ANNIHILATED PARTICLES BETWEEN LAMBDA = 0 AND LAMBDA = 0.5
Info: FEP ELEC. ACTIVE FOR EXNIHILATED PARTICLES BETWEEN LAMBDA = 0.5 AND LAMBDA = 1
Info: FEP VDW ACTIVE FOR ANNIHILATED PARTICLES BETWEEN LAMBDA = 0 AND LAMBDA = 1
Info: FEP VDW ACTIVE FOR EXNIHILATED PARTICLES BETWEEN LAMBDA = 0 AND LAMBDA = 1
Info: FEP BOND ACTIVE FOR ANNIHILATED PARTICLES BETWEEN LAMBDA = 1 AND LAMBDA = 1
Info: FEP BOND ACTIVE FOR EXNIHILATED PARTICLES BETWEEN LAMBDA = 0 AND LAMBDA = 0
Info: LANGEVIN DYNAMICS ACTIVE
Info: LANGEVIN TEMPERATURE   300
Info: LANGEVIN USING BBK INTEGRATOR
Info: LANGEVIN DAMPING COEFFICIENT IS 1 INVERSE PS
Info: LANGEVIN DYNAMICS APPLIED TO HYDROGENS
Info: LANGEVIN PISTON PRESSURE CONTROL ACTIVE
Info:        TARGET PRESSURE IS 1.01325 BAR
Info:     OSCILLATION PERIOD IS 50 FS
Info:             DECAY TIME IS 25 FS
Info:     PISTON TEMPERATURE IS 300 K
Info:       PRESSURE CONTROL IS GROUP-BASED
Info:    INITIAL STRAIN RATE IS 0.00059263 0.00059263 0.00059263
Info:       CELL FLUCTUATION IS ISOTROPIC
Info: PARTICLE MESH EWALD (PME) ACTIVE
Info: PME TOLERANCE               1e-06
Info: PME EWALD COEFFICIENT       0.348832
Info: PME INTERPOLATION ORDER     4
Info: PME GRID DIMENSIONS         32 32 32
Info: PME MAXIMUM GRID SPACING    1
Info: PME CALCULATION WILL BE PERFORMED ON GPU
Info: FULL ELECTROSTATIC EVALUATION FREQUENCY      2
Info: USING VERLET I (r-RESPA) MTS SCHEME.
Info: C1 SPLITTING OF LONG RANGE ELECTROSTATICS
Info: PLACING ATOMS IN PATCHES BY HYDROGEN GROUPS
Info: RIGID BONDS TO HYDROGEN : ALL
Info:         ERROR TOLERANCE : 1e-08
Info:          MAX ITERATIONS : 100
Info: RIGID WATER USING SETTLE ALGORITHM
Info: RANDOM NUMBER SEED     1743601240
Info: USE HYDROGEN BONDS?    NO
Info: Using AMBER format force field!
Info: AMBER PARM FILE        mobley_8558116.prmtop
Info: COORDINATE PDB         mobley_8558116.pdb
Info: Exclusions will be read from PARM file!
Info: SCNB (VDW SCALING)     2
Info: USING ARITHMETIC MEAN TO COMBINE L-J SIGMA PARAMETERS
Info: BINARY COORDINATES     mobley_8558116_equil.coor
Info: SUMMARY OF PARAMETERS:
Info: 6 BONDS
Info: 8 ANGLES
Info:   8 HARMONIC
Info:   0 COSINE-BASED
Info: 8 DIHEDRAL
Info: 0 IMPROPER
Info: 0 CROSSTERM
Info: 0 VDW
Info: 21 VDW_PAIRS
Info: 0 NBTHOLE_PAIRS
Info: To read alchdata from file: mobley_8558116.pdb
Info: To read alchflag data from column: 5
Info: STRUCTURE SUMMARY:
Info: 2919 ATOMS
Info: 2919 BONDS
Info: 34 ANGLES
Info: 52 DIHEDRALS
Info: 0 IMPROPERS
Info: 0 CROSSTERMS
Info: 2992 EXCLUSIONS
Info: 2912 RIGID BONDS
Info: ALCH: 0 ATOMS TO DISAPPEAR IN FINAL STATE
Info: ALCH: 18 ATOMS TO APPEAR IN FINAL STATE
Info: 5845 DEGREES OF FREEDOM
Info: 974 HYDROGEN GROUPS
Info: 4 ATOMS IN LARGEST HYDROGEN GROUP
Info: 974 MIGRATION GROUPS
Info: 4 ATOMS IN LARGEST MIGRATION GROUP
Info: TOTAL MASS = 17522.6 amu
Info: TOTAL CHARGE = 0.000400033 e
Info: MASS DENSITY = 0.982747 g/cm^3
Info: ATOM DENSITY = 0.0985865 atoms/A^3
Info: ADDED 0 IMPLICIT EXCLUSIONS
Info: NONBONDED TABLE R-SQUARED SPACING: 0.0625
Info: NONBONDED TABLE SIZE: 705 POINTS
Info: REDUCING NUMBER OF PATCHES TO IMPROVE LOAD BALANCE
Info: REMOVING COM VELOCITY -0.14884 0.126942 -0.0819532
Info: Use 3D box decompostion in PME FFT.
Info: Updated CUDA force table with 4096 elements.
Info: Updated CUDA LJ table with 6 x 6 elements.
Info: Found 19 unique exclusion lists needing 48 bytes
TCL: Running for 1500000 steps
ETITLE: TS BOND ANGLE DIHED IMPRP ELECT VDW BOUNDARY MISC KINETIC TOTAL TEMP POTENTIAL TOTALAVG TEMPAVG PRESSURE GPRESSURE VOLUME PRESSAVG GPRESSAVG
ENERGY: 0 2.6347 8.6995 3.1340 0.0000 -10561.9161 1478.6989 0.0000 0.0000 1725.5273 -7343.2217 297.1171 -9068.7490 -7343.2217 297.1171 489.2726 576.6766 29608.5063 489.2726 576.6766
ENERGY: 300000 2.1142 8.0806 2.9267 0.0000 -10495.0512 1409.8910 0.0000 0.0000 1750.4818 -7321.5569 301.4140 -9072.0387 -7343.2704 298.9310 194.7469 188.9309 29654.2978 -230.2731 -176.9715
ENERGY: 600000 1.5789 6.7064 2.7046 0.0000 -10489.4521 1387.9454 0.0000 0.0000 1767.7812 -7322.7355 304.3928 -9090.5167 -7370.0729 299.0286 -566.3700 -558.7913 30565.6023 -257.4975 -202.0234
ENERGY: 900000 5.1908 7.8836 3.0489 0.0000 -10695.5682 1537.5168 0.0000 0.0000 1716.3589 -7425.5690 295.5384 -9141.9280 -7360.4813 298.7850 675.3657 660.6607 30252.1235 -246.3755 -201.2698
ENERGY: 1200000 3.3708 12.2180 3.0599 0.0000 -10721.6790 1530.6317 0.0000 0.0000 1756.2054 -7416.1932 302.3996 -9172.3987 -7374.5133 298.6167 939.6749 952.4227 29448.6755 -209.9989 -166.2633
ENERGY: 1500000 2.7735 7.9479 3.1492 0.0000 -10565.3229 1446.4798 0.0000 0.0000 1771.2810 -7333.6915 304.9954 -9104.9725 -7372.9082 298.8620 252.3339 315.3020 29804.1665 -195.7580 -153.0160
TCL: Running FEP window   2: Lambda1 0.05   Lambda2 0.1    [dLambda 0.05  ]
TCL: Setting parameter firsttimestep to 0
TCL: Setting parameter alchLambda to 0.05
Info: NONBONDED TABLE R-SQUARED SPACING: 0.0625
Info: NONBONDED TABLE SIZE: 705 POINTS
TCL: Setting parameter alchLambda2 to 0.1
Info: NONBONDED TABLE R-SQUARED SPACING: 0.0625
Info: NONBONDED TABLE SIZE: 705 POINTS
TCL: Running for 1500000 steps
ETITLE: TS BOND ANGLE DIHED IMPRP ELECT VDW BOUNDARY MISC KINETIC TOTAL TEMP POTENTIAL TOTALAVG TEMPAVG PRESSURE GPRESSURE VOLUME PRESSAVG GPRESSAVG
ENERGY: 0 2.7735 7.9478 3.1492 0.0000 -10565.3220 1447.7585 0.0000 0.0000 1770.4021 -7333.2908 304.8441 -9103.6929 -7333.2908 304.8441 225.8337 317.9383 29804.1665 225.8337 317.9383
ENERGY: 300000 1.5054 9.6899 2.9176 0.0000 -10616.4814 1481.4854 0.0000 0.0000 1714.7519 -7406.1313 295.2617 -9120.8832 -7339.9871 300.7007 573.2459 614.0027 29626.2178 46.0838 110.7580
ENERGY: 600000 2.3601 5.9259 5.2645 0.0000 -10598.4042 1428.8949 0.0000 0.0000 1810.1265 -7345.8323 311.6842 -9155.9588 -7349.1718 301.5781 -192.3247 -142.7078 29933.1095 -46.6175 15.8026
ENERGY: 900000 2.2501 8.0675 2.7763 0.0000 -10559.4107 1466.2508 0.0000 0.0000 1714.1878 -7365.8780 295.1646 -9080.0658 -7344.8527 301.6127 310.5416 356.0446 29989.4415 65.3495 121.7826
ENERGY: 1200000 3.5931 7.5296 3.1449 0.0000 -10555.6409 1473.4123 0.0000 0.0000 1731.8561 -7336.1050 298.2069 -9067.9611 -7350.6417 300.7566 248.7639 299.9455 30255.6942 -3.9693 54.5885
ENERGY: 1500000 1.5408 7.5983 3.3123 0.0000 -10632.4057 1452.3606 0.0000 0.0000 1715.0049 -7452.5887 295.3053 -9167.5936 -7351.8428 301.1005 -104.7445 -25.9932 30008.4455 -2.9251 55.3365
TCL: Running FEP window   3: Lambda1 0.1    Lambda2 0.15000000000000002 [dLambda 0.05000000000000002]
TCL: Setting parameter firsttimestep to 0
TCL: Setting parameter alchLambda to 0.1
Info: NONBONDED TABLE R-SQUARED SPACING: 0.0625
Info: NONBONDED TABLE SIZE: 705 POINTS
TCL: Setting parameter alchLambda2 to 0.15000000000000002
Info: NONBONDED TABLE R-SQUARED SPACING: 0.0625
Info: NONBONDED TABLE SIZE: 705 POINTS
TCL: Running for 1500000 steps
ETITLE: TS BOND ANGLE DIHED IMPRP ELECT VDW BOUNDARY MISC KINETIC TOTAL TEMP POTENTIAL TOTALAVG TEMPAVG PRESSURE GPRESSURE VOLUME PRESSAVG GPRESSAVG
ENERGY: 0 1.5408 7.5983 3.3123 0.0000 -10632.4043 1454.6966 0.0000 0.0000 1714.1611 -7451.0952 295.1600 -9165.2563 -7451.0952 295.1600 -84.5183 -15.9953 30008.4455 -84.5183 -15.9953
ENERGY: 300000 2.2177 5.2386 3.3161 0.0000 -10549.2134 1456.4127 0.0000 0.0000 1738.3916 -7343.6367 299.3322 -9082.0283 -7400.6240 294.0875 171.5234 227.5851 29907.4596 -2.4473 77.9614
ENERGY: 600000 3.0187 8.1582 3.9335 0.0000 -10612.2961 1529.3396 0.0000 0.0000 1776.7177 -7291.1285 305.9316 -9067.8462 -7380.6063 297.6656 731.1704 779.2457 29891.7566 -28.8244 34.1962
ENERGY: 900000 1.4902 6.0172 2.8689 0.0000 -10580.7799 1466.8533 0.0000 0.0000 1716.7513 -7386.7991 295.6060 -9103.5504 -7371.3066 297.3168 171.0112 247.3099 29909.3130 48.3905 110.3236
ENERGY: 1200000 1.4033 6.3714 2.8323 0.0000 -10552.9644 1433.5802 0.0000 0.0000 1794.2004 -7314.5768 308.9419 -9108.7772 -7359.8511 297.7856 198.7801 177.5043 29821.6539 68.4462 122.2524
ENERGY: 1500000 2.0891 5.7624 4.0212 0.0000 -10767.8670 1540.2403 0.0000 0.0000 1710.2831 -7505.4709 294.4922 -9215.7540 -7365.3916 298.1222 608.9237 683.8525 29590.0349 113.9677 173.9694
TCL: Running FEP window   4: Lambda1 0.15000000000000002 Lambda2 0.2    [dLambda 0.04999999999999999]
TCL: Setting parameter firsttimestep to 0
TCL: Setting parameter alchLambda to 0.15000000000000002
Info: NONBONDED TABLE R-SQUARED SPACING: 0.0625
Info: NONBONDED TABLE SIZE: 705 POINTS
TCL: Setting parameter alchLambda2 to 0.2
Info: NONBONDED TABLE R-SQUARED SPACING: 0.0625
Info: NONBONDED TABLE SIZE: 705 POINTS
TCL: Running for 1500000 steps
ETITLE: TS BOND ANGLE DIHED IMPRP ELECT VDW BOUNDARY MISC KINETIC TOTAL TEMP POTENTIAL TOTALAVG TEMPAVG PRESSURE GPRESSURE VOLUME PRESSAVG GPRESSAVG
ENERGY: 0 2.0890 5.7624 4.0212 0.0000 -10767.8665 1540.6270 0.0000 0.0000 1709.4341 -7505.9328 294.3461 -9215.3669 -7505.9328 294.3461 605.3918 685.5510 29590.0349 605.3918 685.5510
ENERGY: 300000 2.4131 6.3421 2.7832 0.0000 -10478.2583 1354.3065 0.0000 0.0000 1722.7477 -7389.6657 296.6385 -9112.4134 -7407.9165 295.0942 -636.1160 -580.4286 30010.5484 -255.7550 -149.4454
ENERGY: 600000 2.7161 7.6438 2.7356 0.0000 -10360.5548 1332.8244 0.0000 0.0000 1711.4418 -7303.1930 294.6918 -9014.6348 -7360.0827 296.4475 -640.0688 -545.3171 30073.4830 -386.9885 -290.6534
ENERGY: 900000 2.8905 10.6860 4.3793 0.0000 -10609.3446 1464.9719 0.0000 0.0000 1765.5172 -7360.8997 304.0030 -9126.4169 -7351.4125 299.3895 -18.1263 138.4954 30053.2689 -283.4769 -185.1560
ENERGY: 1200000 2.1473 7.1148 3.9164 0.0000 -10593.3988 1486.5409 0.0000 0.0000 1748.1629 -7345.5164 301.0147 -9093.6794 -7352.0393 299.6333 472.0187 543.0211 29899.3918 -175.0663 -80.6830
ENERGY: 1500000 1.8415 9.1405 3.2811 0.0000 -10457.9392 1426.7048 0.0000 0.0000 1735.3438 -7281.6275 298.8074 -9016.9713 -7345.9806 300.0923 -57.9605 61.3079 30250.0182 -77.0765 13.2870
TCL: Running FEP window   5: Lambda1 0.2    Lambda2 0.25   [dLambda 0.04999999999999999]
TCL: Setting parameter firsttimestep to 0
TCL: Setting parameter alchLambda to 0.2
Info: NONBONDED TABLE R-SQUARED SPACING: 0.0625
Info: NONBONDED TABLE SIZE: 705 POINTS
TCL: Setting parameter alchLambda2 to 0.25
Info: NONBONDED TABLE R-SQUARED SPACING: 0.0625
Info: NONBONDED TABLE SIZE: 705 POINTS
TCL: Running for 1500000 steps
ETITLE: TS BOND ANGLE DIHED IMPRP ELECT VDW BOUNDARY MISC KINETIC TOTAL TEMP POTENTIAL TOTALAVG TEMPAVG PRESSURE GPRESSURE VOLUME PRESSAVG GPRESSAVG
ENERGY: 0 1.8415 9.1405 3.2811 0.0000 -10457.9399 1426.9691 0.0000 0.0000 1734.5069 -7282.2008 298.6633 -9016.7077 -7282.2008 298.6633 -10.4940 66.8948 30250.0182 -10.4940 66.8948
ENERGY: 300000 2.1032 10.2669 3.9335 0.0000 -10608.8179 1493.4703 0.0000 0.0000 1752.0814 -7346.9626 301.6895 -9099.0439 -7315.7098 301.6799 799.1308 926.9877 29437.2779 194.0416 280.7390
ENERGY: 600000 4.8027 9.1507 3.7526 0.0000 -10449.2089 1379.3029 0.0000 0.0000 1778.6234 -7273.5766 306.2597 -9052.2000 -7317.8841 302.0820 -142.0304 -78.7859 29852.7156 207.7334 267.5323
ENERGY: 900000 1.3629 6.3005 2.6446 0.0000 -10557.0118 1421.4285 0.0000 0.0000 1819.8202 -7305.4551 313.3534 -9125.2753 -7319.7381 303.4925 24.3378 55.6918 29862.3190 146.7381 206.0446
ENERGY: 1200000 2.7982 9.2803 3.8063 0.0000 -10452.2386 1388.8068 0.0000 0.0000 1747.8583 -7299.6887 300.9623 -9047.5469 -7326.8429 302.8594 -355.7879 -250.5565 30052.1763 55.3241 113.2634
ENERGY: 1500000 4.0598 6.9989 3.5823 0.0000 -10631.3284 1492.5361 0.0000 0.0000 1764.3286 -7359.8227 303.7983 -9124.1514 -7332.8178 302.6385 511.2545 555.2550 29688.7441 93.6097 147.1808
TCL: Running FEP window   6: Lambda1 0.25   Lambda2 0.3    [dLambda 0.04999999999999999]
TCL: Setting parameter firsttimestep to 0
TCL: Setting parameter alchLambda to 0.25
Info: NONBONDED TABLE R-SQUARED SPACING: 0.0625
Info: NONBONDED TABLE SIZE: 705 POINTS
TCL: Setting parameter alchLambda2 to 0.3
Info: NONBONDED TABLE R-SQUARED SPACING: 0.0625
Info: NONBONDED TABLE SIZE: 705 POINTS
TCL: Running for 1500000 steps
ETITLE: TS BOND ANGLE DIHED IMPRP ELECT VDW BOUNDARY MISC KINETIC TOTAL TEMP POTENTIAL TOTALAVG TEMPAVG PRESSURE GPRESSURE VOLUME PRESSAVG GPRESSAVG
ENERGY: 0 4.0598 6.9989 3.5823 0.0000 -10631.3294 1492.6269 0.0000 0.0000 1763.4604 -7360.6012 303.6488 -9124.0615 -7360.6012 303.6488 486.8305 555.9604 29688.7441 486.8305 555.9604
ENERGY: 300000 1.0722 7.1292 2.8807 0.0000 -10479.7346 1483.3145 0.0000 0.0000 1783.8120 -7201.5259 307.1531 -8985.3379 -7292.4994 304.1343 688.0259 750.0145 30161.6481 199.6316 220.6794
ENERGY: 600000 5.6890 7.4695 2.8972 0.0000 -10525.1661 1391.9786 0.0000 0.0000 1694.0500 -7423.0816 291.6971 -9117.1316 -7309.0149 302.1527 -541.6292 -532.6326 29908.7349 47.6589 83.5779
ENERGY: 900000 4.7335 6.4186 3.4647 0.0000 -10619.6309 1474.2004 0.0000 0.0000 1781.5000 -7349.3136 306.7550 -9130.8136 -7314.9276 302.9854 535.0260 587.3530 29404.8617 66.3211 117.2411
ENERGY: 1200000 3.3895 6.9909 3.1170 0.0000 -10460.3192 1382.6440 0.0000 0.0000 1753.1833 -7310.9945 301.8792 -9064.1778 -7322.5054 302.8110 -307.0866 -179.5536 30108.7185 73.7225 134.1660
ENERGY: 1500000 1.4652 6.2466 3.6051 0.0000 -10438.4081 1389.1858 0.0000 0.0000 1758.0479 -7279.8575 302.7168 -9037.9053 -7319.9226 302.0018 -339.8148 -272.1648 30560.2788 15.8257 75.7098
TCL: Running FEP window   7: Lambda1 0.3    Lambda2 0.35   [dLambda 0.04999999999999999]
TCL: Setting parameter firsttimestep to 0
TCL: Setting parameter alchLambda to 0.3
Info: NONBONDED TABLE R-SQUARED SPACING: 0.0625
Info: NONBONDED TABLE SIZE: 705 POINTS
TCL: Setting parameter alchLambda2 to 0.35
Info: NONBONDED TABLE R-SQUARED SPACING: 0.0625
Info: NONBONDED TABLE SIZE: 705 POINTS
TCL: Running for 1500000 steps
ETITLE: TS BOND ANGLE DIHED IMPRP ELECT VDW BOUNDARY MISC KINETIC TOTAL TEMP POTENTIAL TOTALAVG TEMPAVG PRESSURE GPRESSURE VOLUME PRESSAVG GPRESSAVG
ENERGY: 0 1.4652 6.2466 3.6051 0.0000 -10438.4075 1389.9069 0.0000 0.0000 1757.1542 -7280.0294 302.5629 -9037.1836 -7280.0294 302.5629 -339.2283 -262.6026 30560.2788 -339.2283 -262.6026
ENERGY: 300000 3.0718 10.8497 3.6806 0.0000 -10466.3691 1391.0669 0.0000 0.0000 1727.3091 -7330.3911 297.4239 -9057.7001 -7313.8934 299.9977 -256.4938 -199.5260 30051.7512 -185.1231 -120.0668
ENERGY: 600000 1.3383 6.4574 2.9451 0.0000 -10415.0063 1346.2753 0.0000 0.0000 1794.5924 -7263.3977 309.0094 -9057.9901 -7308.7586 301.2888 -460.8800 -408.3780 30192.2559 -86.7101 -18.1408
ENERGY: 900000 2.4635 6.8459 3.0285 0.0000 -10435.1781 1396.2599 0.0000 0.0000 1792.9929 -7233.5874 308.7340 -9026.5803 -7305.9375 301.7475 -42.1915 -38.6138 30321.7520 -110.1847 -51.6620
ENERGY: 1200000 3.6780 14.1279 4.1045 0.0000 -10572.6176 1461.0598 0.0000 0.0000 1690.7405 -7398.9070 291.1272 -9089.6475 -7313.8315 300.6556 46.9229 158.3993 30032.9489 -78.9464 -17.2087
ENERGY: 1500000 0.9336 4.9865 4.5456 0.0000 -10621.4669 1456.4443 0.0000 0.0000 1742.6065 -7411.9504 300.0580 -9154.5569 -7329.4078 300.5496 -26.7707 -14.0612 30273.0576 -76.4497 -20.5062
TCL: Running FEP window   8: Lambda1 0.35   Lambda2 0.39999999999999997 [dLambda 0.04999999999999999]
TCL: Setting parameter firsttimestep to 0
TCL: Setting parameter alchLambda to 0.35
Info: NONBONDED TABLE R-SQUARED SPACING: 0.0625
Info: NONBONDED TABLE SIZE: 705 POINTS
TCL: Setting parameter alchLambda2 to 0.39999999999999997
Info: NONBONDED TABLE R-SQUARED SPACING: 0.0625
Info: NONBONDED TABLE SIZE: 705 POINTS
TCL: Running for 1500000 steps
ETITLE: TS BOND ANGLE DIHED IMPRP ELECT VDW BOUNDARY MISC KINETIC TOTAL TEMP POTENTIAL TOTALAVG TEMPAVG PRESSURE GPRESSURE VOLUME PRESSAVG GPRESSAVG
ENERGY: 0 0.9336 4.9865 4.5456 0.0000 -10621.4677 1457.4323 0.0000 0.0000 1741.7238 -7411.8459 299.9060 -9153.5697 -7411.8459 299.9060 -85.5896 -1.2746 30273.0576 -85.5896 -1.2746
ENERGY: 300000 4.4285 6.0288 3.6895 0.0000 -10480.6560 1400.7993 0.0000 0.0000 1700.4024 -7365.3074 292.7909 -9065.7099 -7369.5152 296.2603 -386.7901 -313.7958 30141.2741 6.1657 73.2631
ENERGY: 600000 2.3347 7.0566 3.0129 0.0000 -10543.1381 1448.3309 0.0000 0.0000 1714.6278 -7367.7752 295.2404 -9082.4030 -7366.8796 296.4656 372.0142 388.0932 29889.8329 -17.0096 45.7888
ENERGY: 900000 5.8437 10.2373 3.1889 0.0000 -10593.4579 1437.1070 0.0000 0.0000 1734.1580 -7402.9231 298.6032 -9137.0811 -7364.6053 297.8995 7.7863 56.0053 29515.3183 -29.3814 29.7276
ENERGY: 1200000 1.9199 13.0505 3.7777 0.0000 -10504.1976 1364.8186 0.0000 0.0000 1773.5523 -7347.0787 305.3865 -9120.6310 -7357.8251 298.5342 -517.7692 -454.0091 30039.3570 -104.3800 -44.0384
ENERGY: 1500000 6.0169 5.3616 2.7417 0.0000 -10532.5692 1400.9248 0.0000 0.0000 1762.8613 -7354.6630 303.5456 -9117.5243 -7356.3211 299.2998 -339.7608 -296.3438 29841.5732 -108.7846 -55.1202
TCL: Running FEP window   9: Lambda1 0.39999999999999997 Lambda2 0.44999999999999996 [dLambda 0.04999999999999999]
TCL: Setting parameter firsttimestep to 0
TCL: Setting parameter alchLambda to 0.39999999999999997
Info: NONBONDED TABLE R-SQUARED SPACING: 0.0625
Info: NONBONDED TABLE SIZE: 705 POINTS
TCL: Setting parameter alchLambda2 to 0.44999999999999996
Info: NONBONDED TABLE R-SQUARED SPACING: 0.0625
Info: NONBONDED TABLE SIZE: 705 POINTS
TCL: Running for 1500000 steps
ETITLE: TS BOND ANGLE DIHED IMPRP ELECT VDW BOUNDARY MISC KINETIC TOTAL TEMP POTENTIAL TOTALAVG TEMPAVG PRESSURE GPRESSURE VOLUME PRESSAVG GPRESSAVG
ENERGY: 0 6.0169 5.3616 2.7417 0.0000 -10532.5688 1400.4009 0.0000 0.0000 1761.9949 -7356.0528 303.3965 -9118.0477 -7356.0528 303.3965 -367.1999 -293.9097 29841.5732 -367.1999 -293.9097
ENERGY: 300000 3.8113 6.2174 3.9544 0.0000 -10446.1244 1370.8088 0.0000 0.0000 1722.4062 -7338.9263 296.5797 -9061.3324 -7355.7599 300.5309 -198.1357 -181.9950 29982.5827 -185.9612 -104.4145
ENERGY: 600000 1.0286 8.3747 3.5079 0.0000 -10359.0527 1318.4422 0.0000 0.0000 1712.6841 -7315.0151 294.9057 -9027.6992 -7353.0972 300.3278 -787.5115 -744.6852 30428.2466 -180.0154 -120.4852
ENERGY: 900000 2.7000 10.8627 2.9180 0.0000 -10594.7904 1393.9802 0.0000 0.0000 1760.6464 -7423.6831 303.1643 -9184.3295 -7359.9062 300.4488 -281.4000 -176.2241 29800.1364 -33.3507 29.8725
ENERGY: 1200000 3.5031 7.6666 3.7657 0.0000 -10561.1263 1437.4046 0.0000 0.0000 1756.4875 -7352.2988 302.4482 -9108.7863 -7360.3119 300.7461 -217.4931 -199.8253 30338.8123 -53.4648 9.3566
ENERGY: 1500000 1.5066 7.4156 3.0475 0.0000 -10744.2585 1545.0468 0.0000 0.0000 1753.8463 -7433.3958 301.9934 -9187.2422 -7363.6880 300.4063 840.3513 900.9975 29646.7991 10.1428 66.8948
TCL: Running FEP window  10: Lambda1 0.44999999999999996 Lambda2 0.49999999999999994 [dLambda 0.04999999999999999]
TCL: Setting parameter firsttimestep to 0
TCL: Setting parameter alchLambda to 0.44999999999999996
Info: NONBONDED TABLE R-SQUARED SPACING: 0.0625
Info: NONBONDED TABLE SIZE: 705 POINTS
TCL: Setting parameter alchLambda2 to 0.49999999999999994
Info: NONBONDED TABLE R-SQUARED SPACING: 0.0625
Info: NONBONDED TABLE SIZE: 705 POINTS
TCL: Running for 1500000 steps
ETITLE: TS BOND ANGLE DIHED IMPRP ELECT VDW BOUNDARY MISC KINETIC TOTAL TEMP POTENTIAL TOTALAVG TEMPAVG PRESSURE GPRESSURE VOLUME PRESSAVG GPRESSAVG
ENERGY: 0 1.5066 7.4156 3.0475 0.0000 -10744.2596 1545.2069 0.0000 0.0000 1753.0141 -7434.0691 301.8501 -9187.0831 -7434.0691 301.8501 819.8097 907.4131 29646.7991 819.8097 907.4131
ENERGY: 300000 2.0782 7.5080 2.8979 0.0000 -10527.3124 1354.0263 0.0000 0.0000 1753.1977 -7407.6043 301.8817 -9160.8019 -7388.4247 300.8691 -828.3265 -793.8752 30211.3413 210.5419 255.2943
ENERGY: 600000 0.5809 9.3162 5.4231 0.0000 -10507.4564 1402.2538 0.0000 0.0000 1712.3310 -7377.5514 294.8449 -9089.8824 -7369.2044 300.8498 -224.7367 -166.6758 30104.8203 -79.8919 -23.4258
ENERGY: 900000 1.4448 12.3470 4.1229 0.0000 -10446.9240 1353.4813 0.0000 0.0000 1765.0351 -7310.4928 303.9200 -9075.5279 -7356.6728 300.6256 -628.7728 -569.4432 30231.4285 -138.4523 -76.9849
ENERGY: 1200000 1.3494 13.6801 2.9773 0.0000 -10598.2114 1425.9212 0.0000 0.0000 1806.7243 -7347.5591 311.0984 -9154.2834 -7359.5303 300.7937 -331.1922 -265.5269 30301.3339 -46.9570 12.5445
ENERGY: 1500000 3.9659 8.1238 3.5455 0.0000 -10492.5809 1424.3037 0.0000 0.0000 1691.4599 -7361.1820 291.2511 -9052.6419 -7357.9782 299.6589 103.2462 130.0165 30045.8537 -118.3419 -65.1152
TCL: Running FEP window  11: Lambda1 0.49999999999999994 Lambda2 0.5499999999999999 [dLambda 0.04999999999999999]
TCL: Setting parameter firsttimestep to 0
TCL: Setting parameter alchLambda to 0.49999999999999994
Info: NONBONDED TABLE R-SQUARED SPACING: 0.0625
Info: NONBONDED TABLE SIZE: 705 POINTS
TCL: Setting parameter alchLambda2 to 0.5499999999999999
Info: NONBONDED TABLE R-SQUARED SPACING: 0.0625
Info: NONBONDED TABLE SIZE: 705 POINTS
TCL: Running for 1500000 steps
ETITLE: TS BOND ANGLE DIHED IMPRP ELECT VDW BOUNDARY MISC KINETIC TOTAL TEMP POTENTIAL TOTALAVG TEMPAVG PRESSURE GPRESSURE VOLUME PRESSAVG GPRESSAVG
ENERGY: 0 3.9659 8.1238 3.5455 0.0000 -10492.5811 1424.3563 0.0000 0.0000 1690.6277 -7361.9618 291.1078 -9052.5896 -7361.9618 291.1078 56.2437 136.6894 30045.8537 56.2437 136.6894
ENERGY: 300000 2.5063 9.9496 4.3804 0.0000 -10670.6238 1496.5207 0.0000 0.0000 1784.1604 -7373.1065 307.2131 -9157.2668 -7354.7663 300.5488 503.7080 549.3727 29689.4272 12.0695 61.6251
ENERGY: 600000 2.1873 7.4145 3.2911 0.0000 -10498.1332 1366.0754 0.0000 0.0000 1724.0945 -7395.0705 296.8704 -9119.1650 -7389.8274 298.0784 -701.8633 -703.8195 30592.9750 -212.1846 -168.3838
ENERGY: 900000 0.9183 8.9450 2.7062 0.0000 -10481.4618 1414.7553 0.0000 0.0000 1734.3335 -7319.8035 298.6335 -9054.1370 -7373.6332 299.5590 -15.9572 62.1017 30252.9672 -152.6314 -104.9955
ENERGY: 1200000 1.7020 8.9848 3.2453 0.0000 -10603.6871 1443.1341 0.0000 0.0000 1724.1927 -7422.4284 296.8873 -9146.6211 -7374.3603 300.8014 -9.7974 27.9534 29963.1912 -56.3736 -1.4777
ENERGY: 1500000 1.3534 12.8914 3.8005 0.0000 -10380.2815 1378.4825 0.0000 0.0000 1748.2656 -7235.4881 301.0324 -8983.7537 -7366.0441 300.1544 -267.4755 -178.5661 30568.3829 -81.1768 -22.2487
TCL: Running FEP window  12: Lambda1 0.5499999999999999 Lambda2 0.6    [dLambda 0.050000000000000044]
TCL: Setting parameter firsttimestep to 0
TCL: Setting parameter alchLambda to 0.5499999999999999
Info: NONBONDED TABLE R-SQUARED SPACING: 0.0625
Info: NONBONDED TABLE SIZE: 705 POINTS
TCL: Setting parameter alchLambda2 to 0.6
Info: NONBONDED TABLE R-SQUARED SPACING: 0.0625
Info: NONBONDED TABLE SIZE: 705 POINTS
TCL: Running for 1500000 steps
ETITLE: TS BOND ANGLE DIHED IMPRP ELECT VDW BOUNDARY MISC KINETIC TOTAL TEMP POTENTIAL TOTALAVG TEMPAVG PRESSURE GPRESSURE VOLUME PRESSAVG GPRESSAVG
ENERGY: 0 1.3534 12.8915 3.8005 0.0000 -10380.6932 1378.0559 0.0000 0.0000 1747.3747 -7237.2173 300.8790 -8984.5920 -7237.2173 300.8790 -274.4121 -178.7283 30568.3829 -274.4121 -178.7283
ENERGY: 300000 0.9695 16.1110 3.5830 0.0000 -10449.8858 1343.5533 0.0000 0.0000 1771.8999 -7313.7691 305.1020 -9085.6690 -7289.0408 300.5655 -353.6341 -257.1690 29727.0128 -425.3565 -340.2836
ENERGY: 600000 4.7370 6.8051 3.7005 0.0000 -10529.6638 1435.9435 0.0000 0.0000 1757.9888 -7320.4891 302.7066 -9078.4778 -7291.2361 300.4667 -25.0498 21.3483 30148.5255 -248.0154 -181.4721
ENERGY: 900000 1.2933 11.0812 4.0322 0.0000 -10535.8364 1434.8569 0.0000 0.0000 1754.2295 -7330.3434 302.0593 -9084.5729 -7311.4642 299.1924 331.4085 374.9351 29904.1602 -61.5107 -1.7581
ENERGY: 1200000 1.7212 7.8573 3.0167 0.0000 -10478.1409 1404.3152 0.0000 0.0000 1753.4977 -7307.7327 301.9333 -9061.2304 -7335.6294 298.2056 -237.8126 -190.0502 30224.9693 -77.9388 -21.5976
ENERGY: 1500000 2.4650 11.3520 4.0287 0.0000 -10567.6739 1452.0680 0.0000 0.0000 1739.7224 -7358.0377 299.5614 -9097.7602 -7341.1678 298.8294 281.6294 315.9771 29784.2371 -133.5381 -85.1741
TCL: Running FEP window  13: Lambda1 0.6    Lambda2 0.65   [dLambda 0.050000000000000044]
TCL: Setting parameter firsttimestep to 0
TCL: Setting parameter alchLambda to 0.6
Info: NONBONDED TABLE R-SQUARED SPACING: 0.0625
Info: NONBONDED TABLE SIZE: 705 POINTS
TCL: Setting parameter alchLambda2 to 0.65
Info: NONBONDED TABLE R-SQUARED SPACING: 0.0625
Info: NONBONDED TABLE SIZE: 705 POINTS
TCL: Running for 1500000 steps
ETITLE: TS BOND ANGLE DIHED IMPRP ELECT VDW BOUNDARY MISC KINETIC TOTAL TEMP POTENTIAL TOTALAVG TEMPAVG PRESSURE GPRESSURE VOLUME PRESSAVG GPRESSAVG
ENERGY: 0 2.4650 11.3520 4.0287 0.0000 -10568.0309 1452.2712 0.0000 0.0000 1738.8272 -7359.0867 299.4072 -9097.9139 -7359.0867 299.4072 252.2365 324.2207 29784.2371 252.2365 324.2207
ENERGY: 300000 4.3592 9.5515 3.3532 0.0000 -10583.3162 1427.0139 0.0000 0.0000 1776.8913 -7362.1470 305.9615 -9139.0383 -7382.6256 297.2033 108.5499 77.9919 29424.4459 110.3843 167.2272
ENERGY: 600000 0.6838 8.2758 3.1191 0.0000 -10466.6949 1386.4262 0.0000 0.0000 1730.4125 -7337.7775 297.9583 -9068.1900 -7344.7648 296.8030 -35.0127 -22.1686 29753.4280 69.7878 133.3833
ENERGY: 900000 2.2091 9.4989 2.8540 0.0000 -10573.5225 1490.9068 0.0000 0.0000 1709.3296 -7358.7240 294.3281 -9068.0536 -7354.1787 296.0728 376.9688 393.7590 30483.4636 -23.1682 33.8695
ENERGY: 1200000 3.7154 7.1932 3.5070 0.0000 -10560.9093 1454.7501 0.0000 0.0000 1738.2063 -7353.5372 299.3003 -9091.7436 -7362.7590 296.2606 -42.0208 -32.0388 30225.7301 -42.4298 13.2689
ENERGY: 1500000 1.3048 9.6988 3.0738 0.0000 -10466.2723 1405.1741 0.0000 0.0000 1804.6969 -7242.3240 310.7493 -9047.0208 -7348.9987 297.6832 43.6244 148.3851 30085.7733 -32.9748 25.7592
TCL: Running FEP window  14: Lambda1 0.65   Lambda2 0.7000000000000001 [dLambda 0.050000000000000044]
TCL: Setting parameter firsttimestep to 0
TCL: Setting parameter alchLambda to 0.65
Info: NONBONDED TABLE R-SQUARED SPACING: 0.0625
Info: NONBONDED TABLE SIZE: 705 POINTS
TCL: Setting parameter alchLambda2 to 0.7000000000000001
Info: NONBONDED TABLE R-SQUARED SPACING: 0.0625
Info: NONBONDED TABLE SIZE: 705 POINTS
TCL: Running for 1500000 steps
ETITLE: TS BOND ANGLE DIHED IMPRP ELECT VDW BOUNDARY MISC KINETIC TOTAL TEMP POTENTIAL TOTALAVG TEMPAVG PRESSURE GPRESSURE VOLUME PRESSAVG GPRESSAVG
ENERGY: 0 1.3048 9.6988 3.0738 0.0000 -10467.1855 1406.0902 0.0000 0.0000 1803.8430 -7243.1749 310.6023 -9047.0179 -7243.1749 310.6023 74.3744 165.0208 30085.7733 74.3744 165.0208
ENERGY: 300000 1.1091 4.6764 3.6895 0.0000 -10539.3984 1460.5899 0.0000 0.0000 1717.0227 -7352.3108 295.6527 -9069.3335 -7349.5282 299.2377 271.8211 343.9025 30196.6662 444.4911 509.9956
ENERGY: 600000 2.5122 7.5488 2.6708 0.0000 -10424.8966 1416.0134 0.0000 0.0000 1744.0171 -7252.1341 300.3009 -8996.1512 -7348.4881 300.0253 230.7362 242.5150 30033.3226 213.7655 267.7270
ENERGY: 900000 1.7491 11.6330 3.2612 0.0000 -10477.4072 1401.6491 0.0000 0.0000 1752.6576 -7306.4572 301.7887 -9059.1148 -7336.3188 300.3647 -65.2953 -16.0355 29902.3976 130.4074 184.0662
ENERGY: 1200000 1.6675 8.6796 3.6638 0.0000 -10643.3771 1510.4488 0.0000 0.0000 1768.6257 -7350.2917 304.5382 -9118.9174 -7340.0113 300.1402 797.6765 853.9993 29739.9562 176.6723 231.4111
ENERGY: 1500000 1.3382 7.9161 3.3178 0.0000 -10507.1378 1460.4950 0.0000 0.0000 1755.1258 -7278.9449 302.2137 -9034.0707 -7332.0460 300.9069 556.1133 620.1530 29891.0369 115.3941 167.4046
TCL: Running FEP window  15: Lambda1 0.7000000000000001 Lambda2 0.7500000000000001 [dLambda 0.050000000000000044]
TCL: Setting parameter firsttimestep to 0
TCL: Setting parameter alchLambda to 0.7000000000000001
Info: NONBONDED TABLE R-SQUARED SPACING: 0.0625
Info: NONBONDED TABLE SIZE: 705 POINTS
TCL: Setting parameter alchLambda2 to 0.7500000000000001
Info: NONBONDED TABLE R-SQUARED SPACING: 0.0625
Info: NONBONDED TABLE SIZE: 705 POINTS
TCL: Running for 1500000 steps
ETITLE: TS BOND ANGLE DIHED IMPRP ELECT VDW BOUNDARY MISC KINETIC TOTAL TEMP POTENTIAL TOTALAVG TEMPAVG PRESSURE GPRESSURE VOLUME PRESSAVG GPRESSAVG
ENERGY: 0 1.3382 7.9161 3.3178 0.0000 -10508.3861 1460.5042 0.0000 0.0000 1754.2885 -7281.0214 302.0695 -9035.3098 -7281.0214 302.0695 541.2058 624.7677 29891.0369 541.2058 624.7677
ENERGY: 300000 2.7342 7.9228 4.6082 0.0000 -10310.2936 1303.5043 0.0000 0.0000 1767.5884 -7223.9358 304.3596 -8991.5242 -7318.0620 300.8695 -733.2912 -711.2725 30220.3145 57.8662 100.0715
ENERGY: 600000 2.3668 8.5852 2.9409 0.0000 -10515.3178 1431.2302 0.0000 0.0000 1704.3360 -7365.8585 293.4682 -9070.1945 -7346.2990 299.9379 214.1892 303.2409 29969.1710 125.1490 192.0827
ENERGY: 900000 3.3371 6.7933 3.2297 0.0000 -10561.3342 1405.3546 0.0000 0.0000 1722.5997 -7420.0197 296.6130 -9142.6194 -7355.3962 300.6778 -334.2493 -293.0096 30268.3902 -60.3848 4.1204
ENERGY: 1200000 4.0282 9.0318 3.5723 0.0000 -10511.9823 1436.9992 0.0000 0.0000 1755.5743 -7302.7764 302.2909 -9058.3507 -7345.8501 301.6374 -124.1968 -19.8869 30424.5791 9.9311 80.9162
ENERGY: 1500000 3.7697 11.4413 3.2552 0.0000 -10402.9446 1402.7103 0.0000 0.0000 1778.1980 -7203.5700 306.1865 -8981.7681 -7338.6613 300.7427 188.4821 183.4327 30181.6660 -11.7790 51.8713
TCL: Running FEP window  16: Lambda1 0.7500000000000001 Lambda2 0.8000000000000002 [dLambda 0.050000000000000044]
TCL: Setting parameter firsttimestep to 0
TCL: Setting parameter alchLambda to 0.7500000000000001
Info: NONBONDED TABLE R-SQUARED SPACING: 0.0625
Info: NONBONDED TABLE SIZE: 705 POINTS
TCL: Setting parameter alchLambda2 to 0.8000000000000002
Info: NONBONDED TABLE R-SQUARED SPACING: 0.0625
Info: NONBONDED TABLE SIZE: 705 POINTS
TCL: Running for 1500000 steps
ETITLE: TS BOND ANGLE DIHED IMPRP ELECT VDW BOUNDARY MISC KINETIC TOTAL TEMP POTENTIAL TOTALAVG TEMPAVG PRESSURE GPRESSURE VOLUME PRESSAVG GPRESSAVG
ENERGY: 0 3.7698 11.4413 3.2552 0.0000 -10403.2585 1402.8167 0.0000 0.0000 1777.3180 -7204.6576 306.0349 -8981.9756 -7204.6576 306.0349 116.8681 196.4677 30181.6660 116.8681 196.4677
ENERGY: 300000 3.4632 7.7790 4.6167 0.0000 -10458.0365 1337.4885 0.0000 0.0000 1770.5640 -7334.1250 304.8720 -9104.6890 -7318.5876 302.7762 -839.0728 -722.9278 29941.1496 -329.0319 -250.8493
ENERGY: 600000 3.1047 8.8983 3.2950 0.0000 -10492.7897 1360.9033 0.0000 0.0000 1682.8176 -7433.7708 289.7630 -9116.5884 -7347.1843 300.5146 -645.8125 -598.1588 29948.9842 -216.2251 -152.1807
ENERGY: 900000 1.4778 12.3015 2.8104 0.0000 -10534.5508 1395.4485 0.0000 0.0000 1748.8763 -7373.6362 301.1376 -9122.5126 -7364.2980 299.2195 -85.0226 -112.6340 29842.3621 -233.7086 -180.4330
ENERGY: 1200000 3.7858 9.2369 2.8257 0.0000 -10657.1765 1494.2801 0.0000 0.0000 1779.4315 -7367.6165 306.3989 -9147.0480 -7364.9684 299.8326 632.4243 705.1636 29647.9194 -167.3885 -111.7968
ENERGY: 1500000 2.8293 7.5023 3.0393 0.0000 -10676.6560 1558.6559 0.0000 0.0000 1714.2584 -7390.3708 295.1767 -9104.6292 -7363.7236 299.7568 1186.2782 1255.3785 29509.8818 -39.0662 14.7045
TCL: Running FEP window  17: Lambda1 0.8000000000000002 Lambda2 0.8500000000000002 [dLambda 0.050000000000000044]
TCL: Setting parameter firsttimestep to 0
TCL: Setting parameter alchLambda to 0.8000000000000002
Info: NONBONDED TABLE R-SQUARED SPACING: 0.0625
Info: NONBONDED TABLE SIZE: 705 POINTS
TCL: Setting parameter alchLambda2 to 0.8500000000000002
Info: NONBONDED TABLE R-SQUARED SPACING: 0.0625
Info: NONBONDED TABLE SIZE: 705 POINTS
TCL: Running for 1500000 steps
ETITLE: TS BOND ANGLE DIHED IMPRP ELECT VDW BOUNDARY MISC KINETIC TOTAL TEMP POTENTIAL TOTALAVG TEMPAVG PRESSURE GPRESSURE VOLUME PRESSAVG GPRESSAVG
ENERGY: 0 2.8293 7.5023 3.0393 0.0000 -10678.0303 1559.4418 0.0000 0.0000 1713.3815 -7391.8361 295.0258 -9105.2176 -7391.8361 295.0258 1193.3844 1276.2101 29509.8818 1193.3844 1276.2101
ENERGY: 300000 2.7461 9.8731 4.0354 0.0000 -10474.4573 1374.0015 0.0000 0.0000 1740.5006 -7343.3006 299.6954 -9083.8012 -7356.0640 298.1699 -336.5304 -387.3218 30200.3483 23.2228 86.3239
ENERGY: 600000 1.8933 6.1042 2.7175 0.0000 -10545.2730 1389.7747 0.0000 0.0000 1774.4893 -7370.2942 305.5479 -9144.7834 -7357.3204 300.1434 -432.1200 -402.8847 29988.1565 -58.4687 4.1733
ENERGY: 900000 3.1873 6.4384 3.4714 0.0000 -10465.3291 1367.3886 0.0000 0.0000 1697.8677 -7386.9756 292.3545 -9084.8433 -7358.4884 298.9817 -490.9290 -477.9738 30114.4046 -233.0948 -177.5063
ENERGY: 1200000 3.1693 13.0765 4.0885 0.0000 -10667.7033 1504.5745 0.0000 0.0000 1750.9691 -7391.8254 301.4979 -9142.7945 -7365.2952 298.6850 736.1701 823.1913 29531.9872 -83.1037 -21.7182
ENERGY: 1500000 1.8794 7.4897 3.0745 0.0000 -10531.1212 1401.7185 0.0000 0.0000 1711.1792 -7405.7799 294.6465 -9116.9591 -7364.7003 298.5842 -175.7130 -82.6950 29744.7922 -113.3205 -44.7174
TCL: Running FEP window  18: Lambda1 0.8500000000000002 Lambda2 0.9000000000000002 [dLambda 0.050000000000000044]
TCL: Setting parameter firsttimestep to 0
TCL: Setting parameter alchLambda to 0.8500000000000002
Info: NONBONDED TABLE R-SQUARED SPACING: 0.0625
Info: NONBONDED TABLE SIZE: 705 POINTS
TCL: Setting parameter alchLambda2 to 0.9000000000000002
Info: NONBONDED TABLE R-SQUARED SPACING: 0.0625
Info: NONBONDED TABLE SIZE: 705 POINTS
TCL: Running for 1500000 steps
ETITLE: TS BOND ANGLE DIHED IMPRP ELECT VDW BOUNDARY MISC KINETIC TOTAL TEMP POTENTIAL TOTALAVG TEMPAVG PRESSURE GPRESSURE VOLUME PRESSAVG GPRESSAVG
ENERGY: 0 1.8794 7.4897 3.0745 0.0000 -10533.3236 1404.7283 0.0000 0.0000 1710.3371 -7405.8146 294.5015 -9116.1517 -7405.8146 294.5015 -123.4691 -44.4617 29744.7922 -123.4691 -44.4617
ENERGY: 300000 1.3332 5.5314 3.1619 0.0000 -10438.2049 1409.0329 0.0000 0.0000 1772.8155 -7246.3300 305.2597 -9019.1455 -7351.7583 301.7595 249.3797 324.3864 29871.8393 144.6556 198.0358
ENERGY: 600000 2.0988 8.3096 4.1105 0.0000 -10498.5489 1398.4138 0.0000 0.0000 1735.9610 -7349.6552 298.9137 -9085.6162 -7353.1352 301.2649 -21.7679 58.2738 30013.3845 54.0782 111.4535
ENERGY: 900000 0.9157 10.9657 3.0384 0.0000 -10681.0175 1515.3519 0.0000 0.0000 1746.1996 -7404.5462 300.6767 -9150.7458 -7346.4527 302.1775 570.0081 593.2227 30083.7716 94.3034 142.1156
ENERGY: 1200000 0.8759 6.5187 3.5044 0.0000 -10458.4467 1355.1042 0.0000 0.0000 1744.7713 -7347.6722 300.4307 -9092.4435 -7354.7152 302.0735 -401.4493 -349.8109 30052.3106 64.2493 115.9219
ENERGY: 1500000 4.4104 9.6461 3.1703 0.0000 -10409.2623 1364.8170 0.0000 0.0000 1761.7768 -7265.4416 303.3589 -9027.2184 -7355.4497 301.5309 -289.6031 -179.2126 29838.9321 45.9826 104.2072
TCL: Running FEP window  19: Lambda1 0.9000000000000002 Lambda2 0.9500000000000003 [dLambda 0.050000000000000044]
TCL: Setting parameter firsttimestep to 0
TCL: Setting parameter alchLambda to 0.9000000000000002
Info: NONBONDED TABLE R-SQUARED SPACING: 0.0625
Info: NONBONDED TABLE SIZE: 705 POINTS
TCL: Setting parameter alchLambda2 to 0.9500000000000003
Info: NONBONDED TABLE R-SQUARED SPACING: 0.0625
Info: NONBONDED TABLE SIZE: 705 POINTS
TCL: Running for 1500000 steps
ETITLE: TS BOND ANGLE DIHED IMPRP ELECT VDW BOUNDARY MISC KINETIC TOTAL TEMP POTENTIAL TOTALAVG TEMPAVG PRESSURE GPRESSURE VOLUME PRESSAVG GPRESSAVG
ENERGY: 0 4.4104 9.6461 3.1703 0.0000 -10410.9077 1366.6017 0.0000 0.0000 1760.9161 -7266.1632 303.2107 -9027.0792 -7266.1632 303.2107 -218.5119 -148.5845 29838.9321 -218.5119 -148.5845
ENERGY: 300000 3.4939 5.9113 3.8994 0.0000 -10527.8249 1405.3413 0.0000 0.0000 1780.7076 -7328.4715 306.6186 -9109.1791 -7318.7864 303.6752 269.4662 381.1605 29497.3285 -8.1137 59.2132
ENERGY: 600000 1.8987 6.1983 3.2085 0.0000 -10402.5033 1268.8574 0.0000 0.0000 1727.6737 -7394.6668 297.4867 -9122.3404 -7350.0755 301.2928 -1150.6310 -1016.8310 29650.2418 -174.9133 -100.4137
ENERGY: 900000 2.0232 7.9992 4.9684 0.0000 -10550.4045 1403.6906 0.0000 0.0000 1724.5318 -7407.1914 296.9457 -9131.7232 -7354.0576 300.9779 -324.1067 -269.2815 30271.1554 -129.5110 -62.3191
ENERGY: 1200000 2.3107 9.1099 3.2495 0.0000 -10593.3535 1497.2194 0.0000 0.0000 1703.0262 -7378.4378 293.2427 -9081.4639 -7351.9784 300.8025 784.5982 816.6981 29812.9041 -25.6703 38.6372
ENERGY: 1500000 4.7333 11.6775 3.5293 0.0000 -10524.0520 1431.8017 0.0000 0.0000 1708.4170 -7363.8933 294.1709 -9072.3103 -7344.4459 300.4924 -59.0969 -63.7974 30375.7773 -46.8833 13.3030
TCL: Running FEP window  20: Lambda1 0.9500000000000003 Lambda2 1.0    [dLambda 0.04999999999999971]
TCL: Setting parameter firsttimestep to 0
TCL: Setting parameter alchLambda to 0.9500000000000003
Info: NONBONDED TABLE R-SQUARED SPACING: 0.0625
Info: NONBONDED TABLE SIZE: 705 POINTS
TCL: Setting parameter alchLambda2 to 1.0
Info: NONBONDED TABLE R-SQUARED SPACING: 0.0625
Info: NONBONDED TABLE SIZE: 705 POINTS
TCL: Running for 1500000 steps
ETITLE: TS BOND ANGLE DIHED IMPRP ELECT VDW BOUNDARY MISC KINETIC TOTAL TEMP POTENTIAL TOTALAVG TEMPAVG PRESSURE GPRESSURE VOLUME PRESSAVG GPRESSAVG
ENERGY: 0 4.7333 11.6775 3.5293 0.0000 -10526.1079 1434.2200 0.0000 0.0000 1707.5447 -7364.4032 294.0207 -9071.9479 -7364.4032 294.0207 -98.2491 -23.6895 30375.7773 -98.2491 -23.6895
ENERGY: 300000 1.7980 5.8847 4.6241 0.0000 -10475.8072 1339.8108 0.0000 0.0000 1757.3558 -7366.3339 302.5977 -9123.6897 -7359.5219 298.9195 -811.7535 -790.4875 30504.1903 -431.2690 -386.1447
ENERGY: 600000 2.6515 6.2794 3.2849 0.0000 -10474.3146 1359.4463 0.0000 0.0000 1688.0734 -7414.5790 290.6680 -9102.6525 -7396.9095 296.9444 -746.4169 -652.1105 30287.9436 -465.0758 -407.5360
ENERGY: 900000 3.0919 6.0353 2.8863 0.0000 -10703.7416 1596.4450 0.0000 0.0000 1701.8900 -7393.3931 293.0471 -9095.2831 -7388.2391 296.4109 1426.1644 1502.7797 29772.4885 -328.6747 -284.8183
ENERGY: 1200000 3.6548 8.5159 3.2290 0.0000 -10448.3819 1389.6090 0.0000 0.0000 1764.6957 -7278.6775 303.8615 -9043.3732 -7382.5574 298.6192 -33.2257 11.5146 30043.6540 -140.2270 -89.1743
ENERGY: 1500000 1.2807 11.6180 4.7992 0.0000 -10427.9794 1331.7306 0.0000 0.0000 1760.8189 -7317.7320 303.1940 -9078.5510 -7380.4638 298.8680 -700.0646 -624.7246 30279.9071 -118.6146 -67.2913
TCL: Exiting due to exit command.
