Info: SIMULATION PARAMETERS:
Info: TIMESTEP               2
Info: NUMBER OF STEPS        0
Info: STEPS PER CYCLE        10
Info: PERIODIC CELL BASIS 1  30.9513 0 0
Info: PERIODIC CELL BASIS 2  0 30.1675 0
Info: PERIODIC CELL BASIS 3  0 0 32.0244
Info: PERIODIC CELL CENTER   0 0 0
Info: WRAPPING WATERS AROUND PERIODIC BOUNDARIES ON OUTPUT.
Info: WRAPPING ALL CLUSTERS AROUND PERIODIC BOUNDARIES ON OUTPUT.
Info: FIRST LDB TIMESTEP     50
Info: LAST LDB TIMESTEP     -1
Info: HOM BACKGROUND SCALING 1
Info: PME BACKGROUND SCALING 1
Info: MIN ATOMS PER PATCH    40
Info: EMPTY PATCH LOAD       40 ATOMS
Info: VELOCITY FILE          mobley_2789243_equil.vel
Info: CENTER OF MASS MOVING INITIALLY? NO
Info: DIELECTRIC             1
Info: EXCLUDE                SCALED ONE-FOUR
Info: 1-4 ELECTROSTATICS SCALED BY 0.833333
Info: MODIFIED 1-4 VDW PARAMETERS WILL BE USED
Info: DCD FILENAME           mobley_2789243_prod.dcd
Info: DCD FREQUENCY          100000
Info: DCD FIRST STEP         100000
Info: DCD FILE WILL CONTAIN UNIT CELL DATA
Info: XST FILENAME           mobley_2789243_prod.xst
Info: XST FREQUENCY          100000
Info: NO VELOCITY DCD OUTPUT
Info: NO FORCE DCD OUTPUT
Info: OUTPUT FILENAME        mobley_2789243_prod
Info: BINARY OUTPUT FILES WILL BE USED
Info: RESTART FILENAME       mobley_2789243_prod.restart
Info: RESTART FREQUENCY      100000
Info: BINARY RESTART FILES WILL BE USED
Info: CUTOFF                 9
Info: PAIRLIST DISTANCE      11
Info: PAIRLIST SHRINK RATE   0.01
Info: PAIRLIST GROW RATE     0.01
Info: PAIRLIST TRIGGER       0.3
Info: PAIRLISTS PER CYCLE    2
Info: PAIRLISTS ENABLED
Info: MARGIN                 2
Info: HYDROGEN GROUP CUTOFF  2.5
Info: PATCH DIMENSION        15.5
Info: ENERGY OUTPUT STEPS    100000
Info: ENERGY EVALUATION STEPS    100000
Info: OUTPUT ENERGY PRECISION 4
Info: CROSSTERM ENERGY INCLUDED IN DIHEDRAL
Info: TIMING OUTPUT STEPS    1000000
Info: PRESSURE OUTPUT STEPS  100000
Info: ALCHEMICAL FEP ON
Info: FEP CURRENT LAMBDA VALUE     0
Info: FEP COMPARISON LAMBDA VALUE  0.05
Info: FEP INTRA-ALCHEMICAL NON-BONDED INTERACTIONS WILL BE RETAINED
Info: FEP INTRA-ALCHEMICAL BONDED INTERACTIONS WILL BE RETAINED
Info: FEP VDW SHIFTING COEFFICIENT 5
Info: FEP ELEC. ACTIVE FOR ANNIHILATED PARTICLES BETWEEN LAMBDA = 0 AND LAMBDA = 0.5
Info: FEP ELEC. ACTIVE FOR EXNIHILATED PARTICLES BETWEEN LAMBDA = 0.5 AND LAMBDA = 1
Info: FEP VDW ACTIVE FOR ANNIHILATED PARTICLES BETWEEN LAMBDA = 0 AND LAMBDA = 1
Info: FEP VDW ACTIVE FOR EXNIHILATED PARTICLES BETWEEN LAMBDA = 0 AND LAMBDA = 1
Info: FEP BOND ACTIVE FOR ANNIHILATED PARTICLES BETWEEN LAMBDA = 1 AND LAMBDA = 1
Info: FEP BOND ACTIVE FOR EXNIHILATED PARTICLES BETWEEN LAMBDA = 0 AND LAMBDA = 0
Info: LANGEVIN DYNAMICS ACTIVE
Info: LANGEVIN TEMPERATURE   300
Info: LANGEVIN USING BBK INTEGRATOR
Info: LANGEVIN DAMPING COEFFICIENT IS 1 INVERSE PS
Info: LANGEVIN DYNAMICS APPLIED TO HYDROGENS
Info: LANGEVIN PISTON PRESSURE CONTROL ACTIVE
Info:        TARGET PRESSURE IS 1.01325 BAR
Info:     OSCILLATION PERIOD IS 50 FS
Info:             DECAY TIME IS 25 FS
Info:     PISTON TEMPERATURE IS 300 K
Info:       PRESSURE CONTROL IS GROUP-BASED
Info:    INITIAL STRAIN RATE IS -0.00032779 -0.00032779 -0.00032779
Info:       CELL FLUCTUATION IS ISOTROPIC
Info: PARTICLE MESH EWALD (PME) ACTIVE
Info: PME TOLERANCE               1e-06
Info: PME EWALD COEFFICIENT       0.348832
Info: PME INTERPOLATION ORDER     4
Info: PME GRID DIMENSIONS         32 32 36
Info: PME MAXIMUM GRID SPACING    1
Info: PME CALCULATION WILL BE PERFORMED ON GPU
Info: FULL ELECTROSTATIC EVALUATION FREQUENCY      2
Info: USING VERLET I (r-RESPA) MTS SCHEME.
Info: C1 SPLITTING OF LONG RANGE ELECTROSTATICS
Info: PLACING ATOMS IN PATCHES BY HYDROGEN GROUPS
Info: RIGID BONDS TO HYDROGEN : ALL
Info:         ERROR TOLERANCE : 1e-08
Info:          MAX ITERATIONS : 100
Info: RIGID WATER USING SETTLE ALGORITHM
Info: RANDOM NUMBER SEED     1743514043
Info: USE HYDROGEN BONDS?    NO
Info: Using AMBER format force field!
Info: AMBER PARM FILE        mobley_2789243.prmtop
Info: COORDINATE PDB         mobley_2789243.pdb
Info: Exclusions will be read from PARM file!
Info: SCNB (VDW SCALING)     2
Info: USING ARITHMETIC MEAN TO COMBINE L-J SIGMA PARAMETERS
Info: BINARY COORDINATES     mobley_2789243_equil.coor
Info: SUMMARY OF PARAMETERS:
Info: 7 BONDS
Info: 7 ANGLES
Info:   7 HARMONIC
Info:   0 COSINE-BASED
Info: 3 DIHEDRAL
Info: 0 IMPROPER
Info: 0 CROSSTERM
Info: 0 VDW
Info: 28 VDW_PAIRS
Info: 0 NBTHOLE_PAIRS
Info: To read alchdata from file: mobley_2789243.pdb
Info: To read alchflag data from column: 5
Info: STRUCTURE SUMMARY:
Info: 2915 ATOMS
Info: 2915 BONDS
Info: 16 ANGLES
Info: 25 DIHEDRALS
Info: 0 IMPROPERS
Info: 0 CROSSTERMS
Info: 2948 EXCLUSIONS
Info: 2908 RIGID BONDS
Info: ALCH: 0 ATOMS TO DISAPPEAR IN FINAL STATE
Info: ALCH: 11 ATOMS TO APPEAR IN FINAL STATE
Info: 5837 DEGREES OF FREEDOM
Info: 975 HYDROGEN GROUPS
Info: 3 ATOMS IN LARGEST HYDROGEN GROUP
Info: 975 MIGRATION GROUPS
Info: 3 ATOMS IN LARGEST MIGRATION GROUP
Info: TOTAL MASS = 17553 amu
Info: TOTAL CHARGE = 0.000200003 e
Info: MASS DENSITY = 0.974795 g/cm^3
Info: ATOM DENSITY = 0.0974856 atoms/A^3
Info: ADDED 0 IMPLICIT EXCLUSIONS
Info: NONBONDED TABLE R-SQUARED SPACING: 0.0625
Info: NONBONDED TABLE SIZE: 705 POINTS
Info: REMOVING COM VELOCITY -0.270834 0.0949287 -0.16175
Info: Use 3D box decompostion in PME FFT.
Info: Updated CUDA force table with 4096 elements.
Info: Updated CUDA LJ table with 7 x 7 elements.
Info: Found 14 unique exclusion lists needing 24 bytes
TCL: Running for 1500000 steps
ETITLE: TS BOND ANGLE DIHED IMPRP ELECT VDW BOUNDARY MISC KINETIC TOTAL TEMP POTENTIAL TOTALAVG TEMPAVG PRESSURE GPRESSURE VOLUME PRESSAVG GPRESSAVG
ENERGY: 0 2.1675 2.4038 2.0462 0.0000 -10531.8005 1348.9965 0.0000 0.0000 1757.6383 -7418.5483 303.0611 -9176.1866 -7418.5483 303.0611 -697.6483 -613.4191 29901.8431 -697.6483 -613.4191
ENERGY: 300000 1.7884 2.0982 6.7570 0.0000 -10640.4939 1468.9777 0.0000 0.0000 1708.1982 -7452.6744 294.5364 -9160.8726 -7405.3781 300.0998 144.9090 202.2001 30129.5322 -260.3828 -187.5340
ENERGY: 600000 2.3709 2.9820 1.8003 0.0000 -10540.2092 1387.9088 0.0000 0.0000 1818.5350 -7326.6123 313.5612 -9145.1473 -7382.0277 301.3129 -418.5400 -326.7364 30147.8594 -227.4444 -161.9888
ENERGY: 900000 2.7492 4.3394 2.4537 0.0000 -10573.4055 1417.4796 0.0000 0.0000 1753.6695 -7392.7141 302.3768 -9146.3836 -7394.6341 300.4718 -92.7330 -57.8782 29954.9228 -225.1257 -158.9007
ENERGY: 1200000 2.9538 1.6160 1.2779 0.0000 -10512.0570 1328.7549 0.0000 0.0000 1726.8888 -7450.5657 297.7591 -9177.4545 -7395.6657 300.1591 -866.7173 -876.6976 29804.0921 -238.5869 -169.0966
ENERGY: 1500000 2.5990 2.2615 1.2541 0.0000 -10430.5666 1312.0745 0.0000 0.0000 1775.1087 -7337.2688 306.0734 -9112.3775 -7394.4894 300.8045 -633.0924 -501.2459 29744.5405 -334.5274 -262.7987
TCL: Running FEP window   2: Lambda1 0.05   Lambda2 0.1    [dLambda 0.05  ]
TCL: Setting parameter firsttimestep to 0
TCL: Setting parameter alchLambda to 0.05
Info: NONBONDED TABLE R-SQUARED SPACING: 0.0625
Info: NONBONDED TABLE SIZE: 705 POINTS
TCL: Setting parameter alchLambda2 to 0.1
Info: NONBONDED TABLE R-SQUARED SPACING: 0.0625
Info: NONBONDED TABLE SIZE: 705 POINTS
TCL: Running for 1500000 steps
ETITLE: TS BOND ANGLE DIHED IMPRP ELECT VDW BOUNDARY MISC KINETIC TOTAL TEMP POTENTIAL TOTALAVG TEMPAVG PRESSURE GPRESSURE VOLUME PRESSAVG GPRESSAVG
ENERGY: 0 2.5990 2.2615 1.2541 0.0000 -10430.5675 1313.3708 0.0000 0.0000 1774.2357 -7336.8464 305.9229 -9111.0821 -7336.8464 305.9229 -597.1860 -496.7567 29744.5405 -597.1860 -496.7567
ENERGY: 300000 4.0770 4.1325 1.9581 0.0000 -10619.6252 1480.0274 0.0000 0.0000 1711.5284 -7417.9018 295.1106 -9129.4303 -7397.8144 298.3806 220.1450 242.6382 29950.0827 -305.1641 -253.0156
ENERGY: 600000 1.8996 2.7781 2.2312 0.0000 -10520.3247 1379.6972 0.0000 0.0000 1702.8840 -7430.8347 293.6201 -9133.7187 -7417.9804 297.7910 -440.4636 -414.4627 29982.4945 -494.8035 -453.7878
ENERGY: 900000 1.7680 2.1402 1.1392 0.0000 -10639.3982 1404.3193 0.0000 0.0000 1717.0761 -7512.9553 296.0672 -9230.0314 -7411.8914 298.9468 -611.8816 -557.0382 30050.1204 -441.2174 -388.4991
ENERGY: 1200000 4.0226 2.0004 4.1447 0.0000 -10505.0361 1408.3324 0.0000 0.0000 1713.4528 -7373.0832 295.4424 -9086.5360 -7408.5121 298.4505 -101.1751 -20.3393 30027.8051 -363.5045 -310.7741
ENERGY: 1500000 2.6214 1.1418 4.9689 0.0000 -10611.4603 1472.1610 0.0000 0.0000 1728.8029 -7401.7642 298.0892 -9130.5671 -7410.0872 298.4489 375.0990 429.0127 29807.4789 -261.2806 -209.4939
TCL: Running FEP window   3: Lambda1 0.1    Lambda2 0.15000000000000002 [dLambda 0.05000000000000002]
TCL: Setting parameter firsttimestep to 0
TCL: Setting parameter alchLambda to 0.1
Info: NONBONDED TABLE R-SQUARED SPACING: 0.0625
Info: NONBONDED TABLE SIZE: 705 POINTS
TCL: Setting parameter alchLambda2 to 0.15000000000000002
Info: NONBONDED TABLE R-SQUARED SPACING: 0.0625
Info: NONBONDED TABLE SIZE: 705 POINTS
TCL: Running for 1500000 steps
ETITLE: TS BOND ANGLE DIHED IMPRP ELECT VDW BOUNDARY MISC KINETIC TOTAL TEMP POTENTIAL TOTALAVG TEMPAVG PRESSURE GPRESSURE VOLUME PRESSAVG GPRESSAVG
ENERGY: 0 2.6214 1.1418 4.9689 0.0000 -10611.4607 1474.8373 0.0000 0.0000 1727.9356 -7399.9556 297.9396 -9127.8913 -7399.9556 297.9396 364.6552 438.8665 29807.4789 364.6552 438.8665
ENERGY: 300000 1.2797 1.5708 0.8235 0.0000 -10463.4793 1334.0689 0.0000 0.0000 1762.9552 -7362.7811 303.9779 -9125.7363 -7434.4333 297.2956 -833.0939 -749.3397 30170.4941 -60.7894 -18.4388
ENERGY: 600000 1.2035 2.1125 1.5868 0.0000 -10620.7629 1503.0623 0.0000 0.0000 1774.9753 -7337.8225 306.0504 -9112.7977 -7402.7448 298.7444 844.4538 904.6341 29532.3156 35.0108 89.3887
ENERGY: 900000 2.0987 3.0179 1.7709 0.0000 -10667.0087 1451.4572 0.0000 0.0000 1706.2328 -7502.4311 294.1975 -9208.6639 -7406.7410 300.2872 -2.2981 45.6164 29923.4232 -84.7209 -33.1754
ENERGY: 1200000 3.0502 6.3581 4.7349 0.0000 -10553.7535 1377.3797 0.0000 0.0000 1729.3184 -7432.9123 298.1780 -9162.2306 -7412.1926 300.7895 -840.3622 -712.3368 30545.7041 -176.2874 -118.7203
ENERGY: 1500000 3.4648 1.9541 2.6367 0.0000 -10693.2148 1495.3152 0.0000 0.0000 1717.5035 -7472.3405 296.1409 -9189.8440 -7414.5412 300.1850 75.5247 160.2665 30232.0770 -144.5656 -91.3336
TCL: Running FEP window   4: Lambda1 0.15000000000000002 Lambda2 0.2    [dLambda 0.04999999999999999]
TCL: Setting parameter firsttimestep to 0
TCL: Setting parameter alchLambda to 0.15000000000000002
Info: NONBONDED TABLE R-SQUARED SPACING: 0.0625
Info: NONBONDED TABLE SIZE: 705 POINTS
TCL: Setting parameter alchLambda2 to 0.2
Info: NONBONDED TABLE R-SQUARED SPACING: 0.0625
Info: NONBONDED TABLE SIZE: 705 POINTS
TCL: Running for 1500000 steps
ETITLE: TS BOND ANGLE DIHED IMPRP ELECT VDW BOUNDARY MISC KINETIC TOTAL TEMP POTENTIAL TOTALAVG TEMPAVG PRESSURE GPRESSURE VOLUME PRESSAVG GPRESSAVG
ENERGY: 0 3.4648 1.9541 2.6367 0.0000 -10693.2171 1495.5665 0.0000 0.0000 1716.6309 -7472.9641 295.9904 -9189.5950 -7472.9641 295.9904 79.7994 164.5131 30232.0770 79.7994 164.5131
ENERGY: 300000 3.0725 1.5120 2.6151 0.0000 -10436.3623 1332.4047 0.0000 0.0000 1783.0065 -7313.7515 307.4352 -9096.7580 -7406.0313 303.9114 -819.7689 -751.9449 30323.0053 -465.6222 -386.3009
ENERGY: 600000 1.3578 1.2503 1.6596 0.0000 -10628.5469 1491.3231 0.0000 0.0000 1735.9845 -7396.9716 299.3274 -9132.9561 -7387.9208 303.2023 665.5785 716.3761 29859.1390 -138.1648 -60.8405
ENERGY: 900000 1.2133 1.9731 1.6605 0.0000 -10475.7937 1353.0506 0.0000 0.0000 1714.0945 -7403.8017 295.5530 -9117.8962 -7384.2962 302.1804 -521.7252 -448.1799 29863.8916 -293.0440 -222.6388
ENERGY: 1200000 1.9315 5.6274 4.4715 0.0000 -10569.7044 1433.6873 0.0000 0.0000 1714.1401 -7409.8467 295.5609 -9123.9868 -7376.8424 301.1286 -233.2640 -114.6892 30304.4228 -223.6184 -149.9004
ENERGY: 1500000 2.5379 1.6071 1.8481 0.0000 -10626.9639 1487.4595 0.0000 0.0000 1760.2643 -7373.2470 303.5139 -9133.5113 -7380.8627 300.7991 340.4381 459.9750 29939.2986 -157.7934 -77.0586
TCL: Running FEP window   5: Lambda1 0.2    Lambda2 0.25   [dLambda 0.04999999999999999]
TCL: Setting parameter firsttimestep to 0
TCL: Setting parameter alchLambda to 0.2
Info: NONBONDED TABLE R-SQUARED SPACING: 0.0625
Info: NONBONDED TABLE SIZE: 705 POINTS
TCL: Setting parameter alchLambda2 to 0.25
Info: NONBONDED TABLE R-SQUARED SPACING: 0.0625
Info: NONBONDED TABLE SIZE: 705 POINTS
TCL: Running for 1500000 steps
ETITLE: TS BOND ANGLE DIHED IMPRP ELECT VDW BOUNDARY MISC KINETIC TOTAL TEMP POTENTIAL TOTALAVG TEMPAVG PRESSURE GPRESSURE VOLUME PRESSAVG GPRESSAVG
ENERGY: 0 2.5379 1.6071 1.8481 0.0000 -10626.9635 1487.7967 0.0000 0.0000 1759.4189 -7373.7549 303.3681 -9133.1738 -7373.7549 303.3681 376.4548 462.8917 29939.2986 376.4548 462.8917
ENERGY: 300000 3.2570 1.5254 1.4710 0.0000 -10709.6970 1484.7355 0.0000 0.0000 1725.3037 -7493.4044 297.4858 -9218.7081 -7411.1446 297.6694 363.7098 422.5283 29610.3630 244.1181 306.2315
ENERGY: 600000 3.8715 3.8915 2.4686 0.0000 -10587.5734 1450.1607 0.0000 0.0000 1730.0074 -7397.1737 298.2968 -9127.1811 -7408.4336 298.0611 174.7200 247.2386 29801.5738 313.7842 367.6775
ENERGY: 900000 3.1375 2.3740 1.5019 0.0000 -10641.5907 1427.9905 0.0000 0.0000 1758.3235 -7448.2633 303.1793 -9206.5868 -7403.4126 300.0586 -120.2920 -110.4336 29629.9765 188.9039 239.2324
ENERGY: 1200000 1.3888 0.9049 2.3103 0.0000 -10773.7145 1583.3241 0.0000 0.0000 1708.7868 -7476.9996 294.6379 -9185.7864 -7405.9468 299.5656 1205.3550 1300.6046 29467.3693 325.0510 383.6609
ENERGY: 1500000 1.6487 1.2673 1.0757 0.0000 -10431.4377 1290.3043 0.0000 0.0000 1724.8405 -7412.3013 297.4059 -9137.1418 -7417.2834 298.3848 -1216.5247 -1091.6417 30213.5892 220.7401 286.6100
TCL: Running FEP window   6: Lambda1 0.25   Lambda2 0.3    [dLambda 0.04999999999999999]
TCL: Setting parameter firsttimestep to 0
TCL: Setting parameter alchLambda to 0.25
Info: NONBONDED TABLE R-SQUARED SPACING: 0.0625
Info: NONBONDED TABLE SIZE: 705 POINTS
TCL: Setting parameter alchLambda2 to 0.3
Info: NONBONDED TABLE R-SQUARED SPACING: 0.0625
Info: NONBONDED TABLE SIZE: 705 POINTS
TCL: Running for 1500000 steps
ETITLE: TS BOND ANGLE DIHED IMPRP ELECT VDW BOUNDARY MISC KINETIC TOTAL TEMP POTENTIAL TOTALAVG TEMPAVG PRESSURE GPRESSURE VOLUME PRESSAVG GPRESSAVG
ENERGY: 0 1.6486 1.2673 1.0757 0.0000 -10431.4376 1290.0362 0.0000 0.0000 1723.9712 -7413.4385 297.2560 -9137.4098 -7413.4385 297.2560 -1181.8267 -1092.6674 30213.5892 -1181.8267 -1092.6674
ENERGY: 300000 1.4597 3.1065 2.1909 0.0000 -10436.8735 1330.6913 0.0000 0.0000 1752.6632 -7346.7619 302.2033 -9099.4251 -7386.0033 301.5010 -660.4151 -616.3476 30075.2420 -476.5082 -407.6018
ENERGY: 600000 1.7791 3.0880 3.1437 0.0000 -10623.5137 1491.5384 0.0000 0.0000 1773.8265 -7350.1381 305.8523 -9123.9645 -7396.8271 300.6730 656.6412 738.7201 29713.2768 -106.9009 -51.6015
ENERGY: 900000 2.8372 2.1657 3.0124 0.0000 -10444.8834 1330.4847 0.0000 0.0000 1715.3660 -7391.0175 295.7723 -9106.3835 -7392.6723 300.6423 -792.1029 -750.2575 29928.4689 -195.9289 -141.2023
ENERGY: 1200000 5.5232 6.1348 2.4920 0.0000 -10577.0335 1412.5216 0.0000 0.0000 1781.4928 -7368.8690 307.1742 -9150.3618 -7394.1119 301.2270 -1.9706 56.9079 29912.1457 -209.0927 -158.7429
ENERGY: 1500000 1.4038 4.1169 1.6754 0.0000 -10389.7872 1285.0216 0.0000 0.0000 1756.2528 -7341.3167 302.8222 -9097.5695 -7392.9867 300.7998 -1273.6241 -1232.9759 30565.3168 -252.7228 -205.9623
TCL: Running FEP window   7: Lambda1 0.3    Lambda2 0.35   [dLambda 0.04999999999999999]
TCL: Setting parameter firsttimestep to 0
TCL: Setting parameter alchLambda to 0.3
Info: NONBONDED TABLE R-SQUARED SPACING: 0.0625
Info: NONBONDED TABLE SIZE: 705 POINTS
TCL: Setting parameter alchLambda2 to 0.35
Info: NONBONDED TABLE R-SQUARED SPACING: 0.0625
Info: NONBONDED TABLE SIZE: 705 POINTS
TCL: Running for 1500000 steps
ETITLE: TS BOND ANGLE DIHED IMPRP ELECT VDW BOUNDARY MISC KINETIC TOTAL TEMP POTENTIAL TOTALAVG TEMPAVG PRESSURE GPRESSURE VOLUME PRESSAVG GPRESSAVG
ENERGY: 0 1.4038 4.1169 1.6754 0.0000 -10389.7869 1284.6984 0.0000 0.0000 1755.3738 -7342.5186 302.6706 -9097.8924 -7342.5186 302.6706 -1320.8318 -1231.9543 30565.3168 -1320.8318 -1231.9543
ENERGY: 300000 2.0119 2.6169 2.6339 0.0000 -10573.8898 1433.7410 0.0000 0.0000 1768.9275 -7363.9586 305.0076 -9132.8862 -7367.5871 300.4022 59.3164 76.1595 30163.6329 -546.4823 -484.4249
ENERGY: 600000 1.7723 2.0405 1.5891 0.0000 -10761.6882 1548.2365 0.0000 0.0000 1736.5741 -7471.4756 299.4291 -9208.0497 -7396.8739 298.9357 893.1039 892.5243 29895.5191 -156.6518 -102.8125
ENERGY: 900000 1.4085 2.6592 3.1214 0.0000 -10785.1346 1574.6457 0.0000 0.0000 1723.4454 -7479.8543 297.1654 -9203.2997 -7397.4767 299.6232 1126.5239 1134.2043 29634.6849 7.1228 47.1690
ENERGY: 1200000 4.8591 1.7675 0.9024 0.0000 -10509.7288 1401.7198 0.0000 0.0000 1659.4074 -7441.0727 286.1236 -9100.4801 -7392.8056 299.9081 -544.5361 -441.7209 30635.2531 8.8349 49.9844
ENERGY: 1500000 2.3818 1.1262 1.2211 0.0000 -10595.2051 1438.8091 0.0000 0.0000 1736.7386 -7414.9282 299.4575 -9151.6668 -7390.4261 300.1320 -137.4567 -33.1146 30261.3059 -44.4194 -0.3079
TCL: Running FEP window   8: Lambda1 0.35   Lambda2 0.39999999999999997 [dLambda 0.04999999999999999]
TCL: Setting parameter firsttimestep to 0
TCL: Setting parameter alchLambda to 0.35
Info: NONBONDED TABLE R-SQUARED SPACING: 0.0625
Info: NONBONDED TABLE SIZE: 705 POINTS
TCL: Setting parameter alchLambda2 to 0.39999999999999997
Info: NONBONDED TABLE R-SQUARED SPACING: 0.0625
Info: NONBONDED TABLE SIZE: 705 POINTS
TCL: Running for 1500000 steps
ETITLE: TS BOND ANGLE DIHED IMPRP ELECT VDW BOUNDARY MISC KINETIC TOTAL TEMP POTENTIAL TOTALAVG TEMPAVG PRESSURE GPRESSURE VOLUME PRESSAVG GPRESSAVG
ENERGY: 0 2.3818 1.1262 1.2211 0.0000 -10595.2040 1439.9372 0.0000 0.0000 1735.9050 -7414.6328 299.3137 -9150.5377 -7414.6328 299.3137 -106.1496 -22.2264 30261.3059 -106.1496 -22.2264
ENERGY: 300000 4.1347 3.7127 3.1860 0.0000 -10593.8240 1410.1625 0.0000 0.0000 1712.1352 -7460.4928 295.2152 -9172.6280 -7424.5252 299.6126 -467.0938 -402.0560 30105.7857 -58.3583 -6.3955
ENERGY: 600000 1.5971 3.9641 3.6198 0.0000 -10689.6008 1457.1723 0.0000 0.0000 1716.5923 -7506.6552 295.9837 -9223.2476 -7416.3129 301.9011 -1.5524 76.8623 29624.2160 -110.4203 -55.2732
ENERGY: 900000 2.9150 1.7047 2.2566 0.0000 -10548.4063 1394.9757 0.0000 0.0000 1747.7247 -7398.8296 301.3517 -9146.5543 -7405.6008 303.0410 -87.2189 -82.0824 29689.1756 -42.5412 13.7826
ENERGY: 1200000 2.2633 1.5596 1.9931 0.0000 -10471.0813 1312.0685 0.0000 0.0000 1719.0121 -7434.1849 296.4010 -9153.1969 -7400.4946 301.8373 -1181.3118 -1132.5916 30415.9052 -58.2400 -5.5449
ENERGY: 1500000 1.7113 1.8557 1.8168 0.0000 -10608.9127 1432.8358 0.0000 0.0000 1672.1224 -7498.5708 288.3160 -9170.6933 -7401.5129 300.8592 310.8549 323.3033 29661.1660 -55.3284 -6.3482
TCL: Running FEP window   9: Lambda1 0.39999999999999997 Lambda2 0.44999999999999996 [dLambda 0.04999999999999999]
TCL: Setting parameter firsttimestep to 0
TCL: Setting parameter alchLambda to 0.39999999999999997
Info: NONBONDED TABLE R-SQUARED SPACING: 0.0625
Info: NONBONDED TABLE SIZE: 705 POINTS
TCL: Setting parameter alchLambda2 to 0.44999999999999996
Info: NONBONDED TABLE R-SQUARED SPACING: 0.0625
Info: NONBONDED TABLE SIZE: 705 POINTS
TCL: Running for 1500000 steps
ETITLE: TS BOND ANGLE DIHED IMPRP ELECT VDW BOUNDARY MISC KINETIC TOTAL TEMP POTENTIAL TOTALAVG TEMPAVG PRESSURE GPRESSURE VOLUME PRESSAVG GPRESSAVG
ENERGY: 0 1.7113 1.8557 1.8168 0.0000 -10608.9124 1433.0943 0.0000 0.0000 1671.2429 -7499.1915 288.1644 -9170.4345 -7499.1915 288.1644 242.9168 328.5315 29661.1660 242.9168 328.5315
ENERGY: 300000 1.0883 1.2355 0.6557 0.0000 -10644.4146 1440.0907 0.0000 0.0000 1795.6135 -7405.7309 309.6090 -9201.3444 -7457.6340 296.8430 249.1837 352.4747 29281.2471 -144.5372 -73.5507
ENERGY: 600000 1.3771 1.8786 2.1605 0.0000 -10687.0321 1474.3825 0.0000 0.0000 1735.0327 -7472.2008 299.1633 -9207.2334 -7454.4550 296.0857 387.5443 522.4816 29916.7061 -68.1932 10.4905
ENERGY: 900000 1.2923 3.4015 0.7493 0.0000 -10558.0211 1421.3848 0.0000 0.0000 1774.1818 -7357.0113 305.9136 -9131.1932 -7436.4231 297.8861 -62.4185 36.1833 29975.7754 62.1744 134.8177
ENERGY: 1200000 0.9929 0.9719 3.4264 0.0000 -10627.6731 1403.9934 0.0000 0.0000 1766.3907 -7451.8978 304.5702 -9218.2885 -7445.7426 298.3754 -158.3473 -97.6458 29510.7498 2.0691 74.9224
ENERGY: 1500000 1.1419 2.0224 1.9977 0.0000 -10595.7097 1475.6664 0.0000 0.0000 1729.0338 -7385.8475 298.1290 -9114.8813 -7428.8906 298.7880 502.3722 534.9533 29927.8206 65.8103 140.2678
TCL: Running FEP window  10: Lambda1 0.44999999999999996 Lambda2 0.49999999999999994 [dLambda 0.04999999999999999]
TCL: Setting parameter firsttimestep to 0
TCL: Setting parameter alchLambda to 0.44999999999999996
Info: NONBONDED TABLE R-SQUARED SPACING: 0.0625
Info: NONBONDED TABLE SIZE: 705 POINTS
TCL: Setting parameter alchLambda2 to 0.49999999999999994
Info: NONBONDED TABLE R-SQUARED SPACING: 0.0625
Info: NONBONDED TABLE SIZE: 705 POINTS
TCL: Running for 1500000 steps
ETITLE: TS BOND ANGLE DIHED IMPRP ELECT VDW BOUNDARY MISC KINETIC TOTAL TEMP POTENTIAL TOTALAVG TEMPAVG PRESSURE GPRESSURE VOLUME PRESSAVG GPRESSAVG
ENERGY: 0 1.1419 2.0224 1.9977 0.0000 -10595.7095 1475.2951 0.0000 0.0000 1728.1754 -7387.0770 297.9810 -9115.2524 -7387.0770 297.9810 466.0083 537.6288 29927.8206 466.0083 537.6288
ENERGY: 300000 1.7767 2.3740 4.2481 0.0000 -10564.1806 1441.4301 0.0000 0.0000 1749.8994 -7364.4522 301.7267 -9114.3516 -7397.3070 299.3762 402.4327 440.4034 29897.2930 331.9342 384.6369
ENERGY: 600000 3.4926 2.0154 3.4904 0.0000 -10593.2622 1468.2373 0.0000 0.0000 1708.8097 -7407.2168 294.6418 -9116.0265 -7387.5404 300.8304 653.7598 614.7402 29705.1745 207.3221 247.7741
ENERGY: 900000 4.8105 3.8820 2.9020 0.0000 -10482.7156 1351.8096 0.0000 0.0000 1725.3650 -7393.9466 297.4964 -9119.3116 -7387.6671 299.4924 -271.8953 -182.0104 29833.0618 110.8005 171.6762
ENERGY: 1200000 1.3900 2.3835 1.1738 0.0000 -10526.9853 1392.7799 0.0000 0.0000 1750.0183 -7379.2398 301.7472 -9129.2581 -7388.1598 300.2071 18.6944 50.6845 29837.6510 76.3822 137.1449
ENERGY: 1500000 1.4336 3.1206 3.1557 0.0000 -10543.2049 1390.9326 0.0000 0.0000 1814.4688 -7330.0935 312.8601 -9144.5624 -7390.3719 299.9261 -402.7901 -295.8595 30186.1039 9.6145 76.6432
TCL: Running FEP window  11: Lambda1 0.49999999999999994 Lambda2 0.5499999999999999 [dLambda 0.04999999999999999]
TCL: Setting parameter firsttimestep to 0
TCL: Setting parameter alchLambda to 0.49999999999999994
Info: NONBONDED TABLE R-SQUARED SPACING: 0.0625
Info: NONBONDED TABLE SIZE: 705 POINTS
TCL: Setting parameter alchLambda2 to 0.5499999999999999
Info: NONBONDED TABLE R-SQUARED SPACING: 0.0625
Info: NONBONDED TABLE SIZE: 705 POINTS
TCL: Running for 1500000 steps
ETITLE: TS BOND ANGLE DIHED IMPRP ELECT VDW BOUNDARY MISC KINETIC TOTAL TEMP POTENTIAL TOTALAVG TEMPAVG PRESSURE GPRESSURE VOLUME PRESSAVG GPRESSAVG
ENERGY: 0 1.4336 3.1206 3.1557 0.0000 -10543.2036 1390.8637 0.0000 0.0000 1813.5962 -7331.0340 312.7096 -9144.6301 -7331.0340 312.7096 -380.9011 -290.8668 30186.1039 -380.9011 -290.8668
ENERGY: 300000 3.2294 2.4808 3.1709 0.0000 -10513.5180 1404.5939 0.0000 0.0000 1718.5344 -7381.5085 296.3186 -9100.0429 -7438.2898 302.8911 -111.1139 6.3529 29963.2494 -113.0312 -19.0484
ENERGY: 600000 1.9148 2.5227 2.1184 0.0000 -10307.0920 1205.4657 0.0000 0.0000 1694.0486 -7401.0219 292.0966 -9095.0705 -7440.3543 299.1683 -1666.1384 -1608.6122 30575.7599 -456.2874 -394.0069
ENERGY: 900000 1.4685 0.9931 2.1989 0.0000 -10468.8011 1343.0482 0.0000 0.0000 1768.1158 -7352.9764 304.8677 -9121.0922 -7425.4232 299.6284 -522.0075 -489.6986 29999.4766 -351.4518 -301.2370
ENERGY: 1200000 3.9220 1.8248 1.7009 0.0000 -10610.8693 1430.9069 0.0000 0.0000 1720.4383 -7452.0764 296.6469 -9172.5147 -7438.1090 299.5027 38.8357 101.8142 29768.5980 -287.5733 -236.8100
ENERGY: 1500000 0.5684 4.4764 2.5366 0.0000 -10510.0114 1423.4574 0.0000 0.0000 1729.0427 -7349.9298 298.1305 -9078.9725 -7423.4351 300.0960 48.3663 201.2902 30116.4671 -172.6101 -108.6362
TCL: Running FEP window  12: Lambda1 0.5499999999999999 Lambda2 0.6    [dLambda 0.050000000000000044]
TCL: Setting parameter firsttimestep to 0
TCL: Setting parameter alchLambda to 0.5499999999999999
Info: NONBONDED TABLE R-SQUARED SPACING: 0.0625
Info: NONBONDED TABLE SIZE: 705 POINTS
TCL: Setting parameter alchLambda2 to 0.6
Info: NONBONDED TABLE R-SQUARED SPACING: 0.0625
Info: NONBONDED TABLE SIZE: 705 POINTS
TCL: Running for 1500000 steps
ETITLE: TS BOND ANGLE DIHED IMPRP ELECT VDW BOUNDARY MISC KINETIC TOTAL TEMP POTENTIAL TOTALAVG TEMPAVG PRESSURE GPRESSURE VOLUME PRESSAVG GPRESSAVG
ENERGY: 0 0.5684 4.4764 2.5366 0.0000 -10510.1600 1423.0210 0.0000 0.0000 1728.1695 -7351.3880 297.9799 -9079.5576 -7351.3880 297.9799 109.1557 204.1380 30116.4671 109.1557 204.1380
ENERGY: 300000 2.0772 1.6526 1.5937 0.0000 -10434.6343 1303.5567 0.0000 0.0000 1787.4312 -7338.3230 308.1981 -9125.7541 -7367.6503 301.9717 -915.2689 -909.4718 30039.5520 -342.4772 -302.0747
ENERGY: 600000 2.1250 3.4279 1.7375 0.0000 -10653.0375 1481.0936 0.0000 0.0000 1729.5330 -7435.1206 298.2150 -9164.6536 -7402.7274 300.6159 259.2257 297.0748 30225.6834 -131.5944 -78.0356
ENERGY: 900000 4.0892 1.8210 2.4291 0.0000 -10583.3176 1423.4896 0.0000 0.0000 1775.8951 -7375.5936 306.2090 -9151.4887 -7387.8592 302.5444 20.7670 63.0560 29967.4659 -77.7150 -15.5309
ENERGY: 1200000 3.9859 3.3357 2.4653 0.0000 -10587.8427 1383.6244 0.0000 0.0000 1752.6504 -7441.7811 302.2011 -9194.4314 -7394.8847 302.2886 -598.4626 -516.7757 30069.1636 -167.9426 -104.0001
ENERGY: 1500000 3.4160 1.7390 4.9624 0.0000 -10561.2671 1390.5361 0.0000 0.0000 1770.7083 -7389.9052 305.3147 -9160.6136 -7393.7902 302.2840 -496.5249 -453.0829 30429.4978 -214.2734 -155.1113
TCL: Running FEP window  13: Lambda1 0.6    Lambda2 0.65   [dLambda 0.050000000000000044]
TCL: Setting parameter firsttimestep to 0
TCL: Setting parameter alchLambda to 0.6
Info: NONBONDED TABLE R-SQUARED SPACING: 0.0625
Info: NONBONDED TABLE SIZE: 705 POINTS
TCL: Setting parameter alchLambda2 to 0.65
Info: NONBONDED TABLE R-SQUARED SPACING: 0.0625
Info: NONBONDED TABLE SIZE: 705 POINTS
TCL: Running for 1500000 steps
ETITLE: TS BOND ANGLE DIHED IMPRP ELECT VDW BOUNDARY MISC KINETIC TOTAL TEMP POTENTIAL TOTALAVG TEMPAVG PRESSURE GPRESSURE VOLUME PRESSAVG GPRESSAVG
ENERGY: 0 3.4160 1.7390 4.9624 0.0000 -10561.1134 1390.1658 0.0000 0.0000 1769.8391 -7390.9910 305.1648 -9160.8301 -7390.9910 305.1648 -536.9245 -452.6437 30429.4978 -536.9245 -452.6437
ENERGY: 300000 1.1996 1.0185 1.6436 0.0000 -10629.2415 1400.8486 0.0000 0.0000 1757.2543 -7467.2770 302.9949 -9224.5313 -7446.1487 301.1293 -263.5285 -202.3234 29907.7938 -109.6941 -32.2355
ENERGY: 600000 3.1326 3.9670 2.5914 0.0000 -10596.7110 1427.6171 0.0000 0.0000 1747.8840 -7411.5189 301.3792 -9159.4029 -7402.5010 303.4389 -195.5755 -126.3081 30468.4551 -106.3964 -26.7459
ENERGY: 900000 1.1000 2.6938 0.8111 0.0000 -10476.3981 1348.6826 0.0000 0.0000 1775.4401 -7347.6705 306.1306 -9123.1106 -7383.2695 304.8359 -639.2599 -567.1969 30380.9001 -154.0764 -77.8888
ENERGY: 1200000 2.1934 1.1610 2.0140 0.0000 -10624.5910 1444.1847 0.0000 0.0000 1734.6477 -7440.3902 299.0969 -9175.0378 -7393.4062 304.1334 118.4063 200.2832 29721.5306 -48.2937 23.0812
ENERGY: 1500000 1.2600 1.4962 4.0364 0.0000 -10705.0639 1500.7509 0.0000 0.0000 1750.0832 -7447.4372 301.7584 -9197.5203 -7387.4618 304.3897 539.2820 601.5628 30110.9656 -48.6011 24.0763
TCL: Running FEP window  14: Lambda1 0.65   Lambda2 0.7000000000000001 [dLambda 0.050000000000000044]
TCL: Setting parameter firsttimestep to 0
TCL: Setting parameter alchLambda to 0.65
Info: NONBONDED TABLE R-SQUARED SPACING: 0.0625
Info: NONBONDED TABLE SIZE: 705 POINTS
TCL: Setting parameter alchLambda2 to 0.7000000000000001
Info: NONBONDED TABLE R-SQUARED SPACING: 0.0625
Info: NONBONDED TABLE SIZE: 705 POINTS
TCL: Running for 1500000 steps
ETITLE: TS BOND ANGLE DIHED IMPRP ELECT VDW BOUNDARY MISC KINETIC TOTAL TEMP POTENTIAL TOTALAVG TEMPAVG PRESSURE GPRESSURE VOLUME PRESSAVG GPRESSAVG
ENERGY: 0 1.2600 1.4962 4.0364 0.0000 -10705.4435 1500.8601 0.0000 0.0000 1749.2218 -7448.5690 301.6099 -9197.7908 -7448.5690 301.6099 520.9748 609.5478 30110.9656 520.9748 609.5478
ENERGY: 300000 1.8023 0.9833 4.5651 0.0000 -10459.6546 1356.8436 0.0000 0.0000 1707.2950 -7388.1652 294.3807 -9095.4602 -7432.3139 296.1110 -709.2010 -689.6736 30391.1685 -110.6239 -47.3796
ENERGY: 600000 2.3341 2.3552 1.4868 0.0000 -10490.5716 1358.6903 0.0000 0.0000 1774.1447 -7351.5605 305.9072 -9125.7053 -7406.2135 298.8428 -227.9141 -182.1023 29942.0080 -144.4559 -80.8187
ENERGY: 900000 0.8775 1.0515 1.0085 0.0000 -10494.4432 1372.6715 0.0000 0.0000 1747.2104 -7371.6239 301.2631 -9118.8342 -7391.3615 300.5072 -260.3009 -174.4430 30160.9895 -16.0034 45.7044
ENERGY: 1200000 1.5029 3.5691 1.4482 0.0000 -10535.5567 1366.7778 0.0000 0.0000 1721.8357 -7440.4230 296.8878 -9162.2587 -7399.5158 299.1675 -573.5743 -469.0993 29754.1090 -82.2158 -14.2975
ENERGY: 1500000 1.2655 1.6996 1.6580 0.0000 -10501.3034 1399.5699 0.0000 0.0000 1756.4369 -7340.6735 302.8539 -9097.1103 -7402.3612 298.8620 -284.6133 -240.8505 30544.5713 -28.3859 35.3288
TCL: Running FEP window  15: Lambda1 0.7000000000000001 Lambda2 0.7500000000000001 [dLambda 0.050000000000000044]
TCL: Setting parameter firsttimestep to 0
TCL: Setting parameter alchLambda to 0.7000000000000001
Info: NONBONDED TABLE R-SQUARED SPACING: 0.0625
Info: NONBONDED TABLE SIZE: 705 POINTS
TCL: Setting parameter alchLambda2 to 0.7500000000000001
Info: NONBONDED TABLE R-SQUARED SPACING: 0.0625
Info: NONBONDED TABLE SIZE: 705 POINTS
TCL: Running for 1500000 steps
ETITLE: TS BOND ANGLE DIHED IMPRP ELECT VDW BOUNDARY MISC KINETIC TOTAL TEMP POTENTIAL TOTALAVG TEMPAVG PRESSURE GPRESSURE VOLUME PRESSAVG GPRESSAVG
ENERGY: 0 1.2655 1.6996 1.6580 0.0000 -10501.3709 1399.1934 0.0000 0.0000 1755.5694 -7341.9850 302.7044 -9097.5544 -7341.9850 302.7044 -311.5480 -237.9316 30544.5713 -311.5480 -237.9316
ENERGY: 300000 1.0781 3.1415 3.1742 0.0000 -10690.6054 1475.6558 0.0000 0.0000 1687.4765 -7520.0794 290.9634 -9207.5559 -7422.9081 298.6372 305.4961 334.8254 29804.3630 -101.7116 -37.6662
ENERGY: 600000 1.9653 0.6773 4.2242 0.0000 -10710.1093 1542.4807 0.0000 0.0000 1704.4799 -7456.2818 293.8953 -9160.7617 -7423.4903 298.8516 1112.6920 1212.3913 29385.0918 107.1192 166.2949
ENERGY: 900000 5.3175 0.8766 7.6854 0.0000 -10612.1703 1480.2017 0.0000 0.0000 1725.9157 -7392.1734 297.5913 -9118.0891 -7409.1184 298.7626 448.1144 528.6589 29485.0569 203.2854 268.7703
ENERGY: 1200000 1.6123 3.1833 0.7815 0.0000 -10454.6228 1409.1527 0.0000 0.0000 1721.4207 -7318.4723 296.8163 -9039.8930 -7398.7116 299.5099 -179.4278 -80.8918 30673.2932 96.8543 161.2696
ENERGY: 1500000 2.0353 2.4339 5.9933 0.0000 -10567.1533 1394.4895 0.0000 0.0000 1747.0201 -7415.1811 301.2303 -9162.2012 -7407.0985 299.7120 -310.5737 -226.9024 29890.8784 2.9193 68.9121
TCL: Running FEP window  16: Lambda1 0.7500000000000001 Lambda2 0.8000000000000002 [dLambda 0.050000000000000044]
TCL: Setting parameter firsttimestep to 0
TCL: Setting parameter alchLambda to 0.7500000000000001
Info: NONBONDED TABLE R-SQUARED SPACING: 0.0625
Info: NONBONDED TABLE SIZE: 705 POINTS
TCL: Setting parameter alchLambda2 to 0.8000000000000002
Info: NONBONDED TABLE R-SQUARED SPACING: 0.0625
Info: NONBONDED TABLE SIZE: 705 POINTS
TCL: Running for 1500000 steps
ETITLE: TS BOND ANGLE DIHED IMPRP ELECT VDW BOUNDARY MISC KINETIC TOTAL TEMP POTENTIAL TOTALAVG TEMPAVG PRESSURE GPRESSURE VOLUME PRESSAVG GPRESSAVG
ENERGY: 0 2.0353 2.4339 5.9933 0.0000 -10568.6834 1397.2563 0.0000 0.0000 1746.1427 -7414.8219 301.0790 -9160.9646 -7414.8219 301.0790 -286.3892 -196.0722 29890.8784 -286.3892 -196.0722
ENERGY: 300000 1.4952 2.0486 1.6395 0.0000 -10409.7035 1304.5024 0.0000 0.0000 1735.8763 -7364.1414 299.3088 -9100.0177 -7403.7098 302.5723 -807.7732 -798.4448 30137.9668 -572.9112 -536.1882
ENERGY: 600000 1.3920 5.0642 1.2930 0.0000 -10613.0108 1406.3004 0.0000 0.0000 1772.1212 -7426.8400 305.5583 -9198.9612 -7413.9817 301.7062 -451.2764 -318.5828 30197.6671 -496.4314 -460.7364
ENERGY: 900000 3.0186 2.2655 2.0285 0.0000 -10606.0044 1370.4591 0.0000 0.0000 1759.7455 -7468.4873 303.4244 -9228.2328 -7419.9335 301.5519 -521.8267 -466.6313 29936.6586 -360.1762 -322.0102
ENERGY: 1200000 2.0978 2.7910 4.4347 0.0000 -10786.7513 1460.0682 0.0000 0.0000 1717.4426 -7599.9170 296.1304 -9317.3596 -7431.1808 301.1365 -126.2725 -65.5384 29800.6990 -154.3748 -114.4600
ENERGY: 1500000 3.1259 2.0491 1.7288 0.0000 -10647.8621 1450.1533 0.0000 0.0000 1719.9055 -7470.8995 296.5550 -9190.8050 -7425.3374 301.1639 -173.8030 -84.2122 30075.5588 -224.3972 -181.3682
TCL: Running FEP window  17: Lambda1 0.8000000000000002 Lambda2 0.8500000000000002 [dLambda 0.050000000000000044]
TCL: Setting parameter firsttimestep to 0
TCL: Setting parameter alchLambda to 0.8000000000000002
Info: NONBONDED TABLE R-SQUARED SPACING: 0.0625
Info: NONBONDED TABLE SIZE: 705 POINTS
TCL: Setting parameter alchLambda2 to 0.8500000000000002
Info: NONBONDED TABLE R-SQUARED SPACING: 0.0625
Info: NONBONDED TABLE SIZE: 705 POINTS
TCL: Running for 1500000 steps
ETITLE: TS BOND ANGLE DIHED IMPRP ELECT VDW BOUNDARY MISC KINETIC TOTAL TEMP POTENTIAL TOTALAVG TEMPAVG PRESSURE GPRESSURE VOLUME PRESSAVG GPRESSAVG
ENERGY: 0 3.1259 2.0491 1.7288 0.0000 -10647.9398 1450.5474 0.0000 0.0000 1719.0163 -7471.4723 296.4017 -9190.4886 -7471.4723 296.4017 -154.2309 -68.1481 30075.5588 -154.2309 -68.1481
ENERGY: 300000 3.5295 2.3673 2.2741 0.0000 -10690.6832 1527.4989 0.0000 0.0000 1732.5034 -7422.5101 298.7272 -9155.0135 -7417.7960 298.3783 985.0549 1037.5767 29315.5284 296.8407 357.2005
ENERGY: 600000 1.6073 1.1575 1.9462 0.0000 -10531.2373 1397.6911 0.0000 0.0000 1817.6731 -7311.1620 313.4126 -9128.8351 -7422.6949 301.2627 -214.6033 -136.5691 30230.3861 12.6166 70.7468
ENERGY: 900000 3.6128 1.4541 2.7547 0.0000 -10584.3251 1435.9650 0.0000 0.0000 1765.6279 -7374.9106 304.4387 -9140.5386 -7398.9403 303.1970 -314.4371 -219.9641 30501.9578 -35.9403 23.2308
ENERGY: 1200000 1.7012 3.5919 3.9888 0.0000 -10659.1655 1460.7523 0.0000 0.0000 1742.5642 -7446.5670 300.4620 -9189.1312 -7400.6432 302.5912 53.7010 110.5420 30378.4150 -46.2572 14.1437
ENERGY: 1500000 0.1476 1.6399 1.6250 0.0000 -10667.2723 1487.9851 0.0000 0.0000 1741.6394 -7434.2352 300.3025 -9175.8746 -7409.7322 301.7667 531.7242 601.7122 29819.3198 34.6788 96.4203
TCL: Running FEP window  18: Lambda1 0.8500000000000002 Lambda2 0.9000000000000002 [dLambda 0.050000000000000044]
TCL: Setting parameter firsttimestep to 0
TCL: Setting parameter alchLambda to 0.8500000000000002
Info: NONBONDED TABLE R-SQUARED SPACING: 0.0625
Info: NONBONDED TABLE SIZE: 705 POINTS
TCL: Setting parameter alchLambda2 to 0.9000000000000002
Info: NONBONDED TABLE R-SQUARED SPACING: 0.0625
Info: NONBONDED TABLE SIZE: 705 POINTS
TCL: Running for 1500000 steps
ETITLE: TS BOND ANGLE DIHED IMPRP ELECT VDW BOUNDARY MISC KINETIC TOTAL TEMP POTENTIAL TOTALAVG TEMPAVG PRESSURE GPRESSURE VOLUME PRESSAVG GPRESSAVG
ENERGY: 0 0.1476 1.6400 1.6250 0.0000 -10668.0906 1489.6674 0.0000 0.0000 1740.7535 -7434.2571 300.1497 -9175.0106 -7434.2571 300.1497 552.8634 628.9976 29819.3198 552.8634 628.9976
ENERGY: 300000 2.3356 2.8388 3.3924 0.0000 -10597.2127 1465.2659 0.0000 0.0000 1724.6317 -7398.7483 297.3699 -9123.3800 -7418.5518 297.9999 334.7105 316.0624 30216.1065 164.3303 201.6144
ENERGY: 600000 1.2722 2.8340 2.3179 0.0000 -10525.6574 1364.6854 0.0000 0.0000 1754.8382 -7399.7098 302.5783 -9154.5480 -7406.0688 298.5698 -419.1376 -316.3054 29929.8598 -60.2374 -6.9032
ENERGY: 900000 1.1090 1.8969 3.1337 0.0000 -10689.2540 1457.6302 0.0000 0.0000 1767.5274 -7457.9569 304.7662 -9225.4843 -7406.2472 300.7660 105.8137 198.2317 30154.6475 -99.7310 -43.7490
ENERGY: 1200000 0.4272 1.4561 3.4765 0.0000 -10388.4813 1309.6422 0.0000 0.0000 1736.5480 -7336.9312 299.4246 -9073.4793 -7414.5256 300.6004 -597.1734 -473.5737 29882.5063 -148.1548 -83.8625
ENERGY: 1500000 1.3317 3.0032 2.9511 0.0000 -10614.4874 1440.4240 0.0000 0.0000 1752.7607 -7414.0167 302.2201 -9166.7774 -7410.9875 300.7740 -27.5682 -72.9816 30123.5412 -195.9556 -139.0600
TCL: Running FEP window  19: Lambda1 0.9000000000000002 Lambda2 0.9500000000000003 [dLambda 0.050000000000000044]
TCL: Setting parameter firsttimestep to 0
TCL: Setting parameter alchLambda to 0.9000000000000002
Info: NONBONDED TABLE R-SQUARED SPACING: 0.0625
Info: NONBONDED TABLE SIZE: 705 POINTS
TCL: Setting parameter alchLambda2 to 0.9500000000000003
Info: NONBONDED TABLE R-SQUARED SPACING: 0.0625
Info: NONBONDED TABLE SIZE: 705 POINTS
TCL: Running for 1500000 steps
ETITLE: TS BOND ANGLE DIHED IMPRP ELECT VDW BOUNDARY MISC KINETIC TOTAL TEMP POTENTIAL TOTALAVG TEMPAVG PRESSURE GPRESSURE VOLUME PRESSAVG GPRESSAVG
ENERGY: 0 1.3317 3.0032 2.9511 0.0000 -10615.3689 1441.9480 0.0000 0.0000 1751.8648 -7414.2702 302.0656 -9166.1350 -7414.2702 302.0656 -128.0163 -46.3690 30123.5412 -128.0163 -46.3690
ENERGY: 300000 1.7044 3.0088 0.4349 0.0000 -10687.7685 1451.3307 0.0000 0.0000 1759.1474 -7472.1424 303.3213 -9231.2898 -7440.9478 300.1234 154.7199 240.0433 29679.4971 57.0445 126.6798
ENERGY: 600000 2.1558 3.2133 3.7826 0.0000 -10522.5985 1347.8073 0.0000 0.0000 1718.4135 -7447.2260 296.2978 -9165.6395 -7452.3772 298.7952 -601.7862 -528.6204 29670.5329 -131.7185 -60.2753
ENERGY: 900000 2.0460 2.8582 1.6529 0.0000 -10704.4095 1487.9291 0.0000 0.0000 1713.3042 -7496.6191 295.4168 -9209.9233 -7441.4505 298.3173 375.2961 431.1791 30070.4203 -74.9854 -9.4343
ENERGY: 1200000 2.6938 7.5907 2.6750 0.0000 -10541.0149 1411.3918 0.0000 0.0000 1750.6666 -7365.9970 301.8590 -9116.6636 -7435.8305 298.4751 -51.0268 101.1750 30072.4103 67.4922 139.5404
ENERGY: 1500000 1.6716 4.0191 3.8906 0.0000 -10746.9098 1505.7560 0.0000 0.0000 1744.5319 -7487.0407 300.8012 -9231.5726 -7436.2837 297.9693 477.2793 532.9452 29731.5193 110.8026 187.5676
TCL: Running FEP window  20: Lambda1 0.9500000000000003 Lambda2 1.0    [dLambda 0.04999999999999971]
TCL: Setting parameter firsttimestep to 0
TCL: Setting parameter alchLambda to 0.9500000000000003
Info: NONBONDED TABLE R-SQUARED SPACING: 0.0625
Info: NONBONDED TABLE SIZE: 705 POINTS
TCL: Setting parameter alchLambda2 to 1.0
Info: NONBONDED TABLE R-SQUARED SPACING: 0.0625
Info: NONBONDED TABLE SIZE: 705 POINTS
TCL: Running for 1500000 steps
ETITLE: TS BOND ANGLE DIHED IMPRP ELECT VDW BOUNDARY MISC KINETIC TOTAL TEMP POTENTIAL TOTALAVG TEMPAVG PRESSURE GPRESSURE VOLUME PRESSAVG GPRESSAVG
ENERGY: 0 1.6716 4.0191 3.8906 0.0000 -10747.3417 1505.9915 0.0000 0.0000 1743.6680 -7488.1010 300.6523 -9231.7689 -7488.1010 300.6523 461.4734 546.3514 29731.5193 461.4734 546.3514
ENERGY: 300000 1.6815 1.7670 3.6453 0.0000 -10533.7812 1405.0668 0.0000 0.0000 1700.9804 -7420.6402 293.2918 -9121.6205 -7445.9295 298.2881 -208.8813 -97.1827 30158.1860 77.9363 158.7347
ENERGY: 600000 1.4924 2.7576 2.0349 0.0000 -10528.7919 1324.4816 0.0000 0.0000 1752.4320 -7445.5934 302.1634 -9198.0254 -7436.0053 298.5262 -869.9580 -782.3316 30020.3752 -284.0287 -206.4843
ENERGY: 900000 2.3717 1.1719 2.1045 0.0000 -10678.2440 1508.6166 0.0000 0.0000 1707.7506 -7456.2288 294.4592 -9163.9793 -7444.6598 297.9317 752.7760 825.7100 29835.7570 -216.1797 -136.3423
ENERGY: 1200000 2.1886 1.8606 1.9550 0.0000 -10473.9112 1339.3370 0.0000 0.0000 1707.2319 -7421.3380 294.3698 -9128.5700 -7456.5752 296.6352 -653.7991 -547.6804 29866.6977 -184.0933 -114.8869
ENERGY: 1500000 5.3207 1.8628 4.1952 0.0000 -10557.9820 1400.5585 0.0000 0.0000 1730.0877 -7415.9571 298.3107 -9146.0449 -7437.3298 298.5955 -280.7126 -178.8092 30410.2145 -223.1818 -147.2853
TCL: Exiting due to exit command.
