Info: SIMULATION PARAMETERS:
Info: TIMESTEP               2
Info: NUMBER OF STEPS        0
Info: STEPS PER CYCLE        10
Info: PERIODIC CELL BASIS 1  30.2918 0 0
Info: PERIODIC CELL BASIS 2  0 30.3387 0
Info: PERIODIC CELL BASIS 3  0 0 32.9378
Info: PERIODIC CELL CENTER   0 0 0
Info: WRAPPING WATERS AROUND PERIODIC BOUNDARIES ON OUTPUT.
Info: WRAPPING ALL CLUSTERS AROUND PERIODIC BOUNDARIES ON OUTPUT.
Info: FIRST LDB TIMESTEP     50
Info: LAST LDB TIMESTEP     -1
Info: HOM BACKGROUND SCALING 1
Info: PME BACKGROUND SCALING 1
Info: MIN ATOMS PER PATCH    40
Info: EMPTY PATCH LOAD       40 ATOMS
Info: VELOCITY FILE          mobley_9571888_equil.vel
Info: CENTER OF MASS MOVING INITIALLY? NO
Info: DIELECTRIC             1
Info: EXCLUDE                SCALED ONE-FOUR
Info: 1-4 ELECTROSTATICS SCALED BY 0.833333
Info: MODIFIED 1-4 VDW PARAMETERS WILL BE USED
Info: DCD FILENAME           mobley_9571888_prod.dcd
Info: DCD FREQUENCY          100000
Info: DCD FIRST STEP         100000
Info: DCD FILE WILL CONTAIN UNIT CELL DATA
Info: XST FILENAME           mobley_9571888_prod.xst
Info: XST FREQUENCY          100000
Info: NO VELOCITY DCD OUTPUT
Info: NO FORCE DCD OUTPUT
Info: OUTPUT FILENAME        mobley_9571888_prod
Info: BINARY OUTPUT FILES WILL BE USED
Info: RESTART FILENAME       mobley_9571888_prod.restart
Info: RESTART FREQUENCY      100000
Info: BINARY RESTART FILES WILL BE USED
Info: CUTOFF                 9
Info: PAIRLIST DISTANCE      11
Info: PAIRLIST SHRINK RATE   0.01
Info: PAIRLIST GROW RATE     0.01
Info: PAIRLIST TRIGGER       0.3
Info: PAIRLISTS PER CYCLE    2
Info: PAIRLISTS ENABLED
Info: MARGIN                 2
Info: HYDROGEN GROUP CUTOFF  2.5
Info: PATCH DIMENSION        15.5
Info: ENERGY OUTPUT STEPS    100000
Info: ENERGY EVALUATION STEPS    100000
Info: OUTPUT ENERGY PRECISION 4
Info: CROSSTERM ENERGY INCLUDED IN DIHEDRAL
Info: TIMING OUTPUT STEPS    1000000
Info: PRESSURE OUTPUT STEPS  100000
Info: ALCHEMICAL FEP ON
Info: FEP CURRENT LAMBDA VALUE     1
Info: FEP COMPARISON LAMBDA VALUE  0.95
Info: FEP INTRA-ALCHEMICAL NON-BONDED INTERACTIONS WILL BE RETAINED
Info: FEP INTRA-ALCHEMICAL BONDED INTERACTIONS WILL BE RETAINED
Info: FEP VDW SHIFTING COEFFICIENT 5
Info: FEP ELEC. ACTIVE FOR ANNIHILATED PARTICLES BETWEEN LAMBDA = 0 AND LAMBDA = 0.5
Info: FEP ELEC. ACTIVE FOR EXNIHILATED PARTICLES BETWEEN LAMBDA = 0.5 AND LAMBDA = 1
Info: FEP VDW ACTIVE FOR ANNIHILATED PARTICLES BETWEEN LAMBDA = 0 AND LAMBDA = 1
Info: FEP VDW ACTIVE FOR EXNIHILATED PARTICLES BETWEEN LAMBDA = 0 AND LAMBDA = 1
Info: FEP BOND ACTIVE FOR ANNIHILATED PARTICLES BETWEEN LAMBDA = 1 AND LAMBDA = 1
Info: FEP BOND ACTIVE FOR EXNIHILATED PARTICLES BETWEEN LAMBDA = 0 AND LAMBDA = 0
Info: LANGEVIN DYNAMICS ACTIVE
Info: LANGEVIN TEMPERATURE   300
Info: LANGEVIN USING BBK INTEGRATOR
Info: LANGEVIN DAMPING COEFFICIENT IS 1 INVERSE PS
Info: LANGEVIN DYNAMICS APPLIED TO HYDROGENS
Info: LANGEVIN PISTON PRESSURE CONTROL ACTIVE
Info:        TARGET PRESSURE IS 1.01325 BAR
Info:     OSCILLATION PERIOD IS 50 FS
Info:             DECAY TIME IS 25 FS
Info:     PISTON TEMPERATURE IS 300 K
Info:       PRESSURE CONTROL IS GROUP-BASED
Info:    INITIAL STRAIN RATE IS -0.000591987 -0.000591987 -0.000591987
Info:       CELL FLUCTUATION IS ISOTROPIC
Info: PARTICLE MESH EWALD (PME) ACTIVE
Info: PME TOLERANCE               1e-06
Info: PME EWALD COEFFICIENT       0.348832
Info: PME INTERPOLATION ORDER     4
Info: PME GRID DIMENSIONS         32 32 36
Info: PME MAXIMUM GRID SPACING    1
Info: PME CALCULATION WILL BE PERFORMED ON GPU
Info: FULL ELECTROSTATIC EVALUATION FREQUENCY      2
Info: USING VERLET I (r-RESPA) MTS SCHEME.
Info: C1 SPLITTING OF LONG RANGE ELECTROSTATICS
Info: PLACING ATOMS IN PATCHES BY HYDROGEN GROUPS
Info: RIGID BONDS TO HYDROGEN : ALL
Info:         ERROR TOLERANCE : 1e-08
Info:          MAX ITERATIONS : 100
Info: RIGID WATER USING SETTLE ALGORITHM
Info: RANDOM NUMBER SEED     1743662786
Info: USE HYDROGEN BONDS?    NO
Info: Using AMBER format force field!
Info: AMBER PARM FILE        mobley_9571888.prmtop
Info: COORDINATE PDB         mobley_9571888.pdb
Info: Exclusions will be read from PARM file!
Info: SCNB (VDW SCALING)     2
Info: USING ARITHMETIC MEAN TO COMBINE L-J SIGMA PARAMETERS
Info: BINARY COORDINATES     mobley_9571888_equil.coor
Info: SUMMARY OF PARAMETERS:
Info: 12 BONDS
Info: 16 ANGLES
Info:   16 HARMONIC
Info:   0 COSINE-BASED
Info: 15 DIHEDRAL
Info: 0 IMPROPER
Info: 0 CROSSTERM
Info: 0 VDW
Info: 55 VDW_PAIRS
Info: 0 NBTHOLE_PAIRS
Info: To read alchdata from file: mobley_9571888.pdb
Info: To read alchflag data from column: 5
Info: STRUCTURE SUMMARY:
Info: 2947 ATOMS
Info: 2949 BONDS
Info: 53 ANGLES
Info: 120 DIHEDRALS
Info: 0 IMPROPERS
Info: 0 CROSSTERMS
Info: 3079 EXCLUSIONS
Info: 2928 RIGID BONDS
Info: ALCH: 0 ATOMS TO DISAPPEAR IN FINAL STATE
Info: ALCH: 25 ATOMS TO APPEAR IN FINAL STATE
Info: 5913 DEGREES OF FREEDOM
Info: 993 HYDROGEN GROUPS
Info: 3 ATOMS IN LARGEST HYDROGEN GROUP
Info: 993 MIGRATION GROUPS
Info: 3 ATOMS IN LARGEST MIGRATION GROUP
Info: TOTAL MASS = 17954.5 amu
Info: TOTAL CHARGE = 7.17118e-08 e
Info: MASS DENSITY = 0.984953 g/cm^3
Info: ATOM DENSITY = 0.0973562 atoms/A^3
Info: ADDED 0 IMPLICIT EXCLUSIONS
Info: NONBONDED TABLE R-SQUARED SPACING: 0.0625
Info: NONBONDED TABLE SIZE: 705 POINTS
Info: REMOVING COM VELOCITY 0.129633 -0.112929 -0.0855346
Info: Use 3D box decompostion in PME FFT.
Info: Updated CUDA force table with 4096 elements.
Info: Updated CUDA LJ table with 10 x 10 elements.
Info: Found 28 unique exclusion lists needing 92 bytes
TCL: Running for 1500000 steps
ETITLE: TS BOND ANGLE DIHED IMPRP ELECT VDW BOUNDARY MISC KINETIC TOTAL TEMP POTENTIAL TOTALAVG TEMPAVG PRESSURE GPRESSURE VOLUME PRESSAVG GPRESSAVG
ENERGY: 0 9.8606 49.0980 16.1031 0.0000 -10788.9530 1502.0854 0.0000 0.0000 1767.7764 -7444.0296 300.8914 -9211.8060 -7444.0296 300.8914 475.0378 553.9501 30270.2969 475.0378 553.9501
ENERGY: 300000 5.3083 55.9568 14.1550 0.0000 -10597.3670 1360.3964 0.0000 0.0000 1722.7849 -7438.7657 293.2335 -9161.5506 -7422.2809 297.2539 -428.5098 -285.6472 30249.8538 -32.2332 68.2200
ENERGY: 600000 6.9357 51.0797 17.7187 0.0000 -10617.4841 1399.6605 0.0000 0.0000 1787.9071 -7354.1824 304.3179 -9142.0895 -7389.8365 299.2085 -41.2143 20.0811 30431.0257 -77.5013 -5.8147
ENERGY: 900000 5.9098 53.8762 17.2415 0.0000 -10650.4021 1415.4721 0.0000 0.0000 1791.5942 -7366.3084 304.9454 -9157.9026 -7367.3107 301.0759 -133.0965 -43.9657 30858.9014 19.5484 106.5161
ENERGY: 1200000 4.8921 53.4768 16.1922 0.0000 -10690.2075 1433.5097 0.0000 0.0000 1746.0480 -7436.0888 297.1931 -9182.1367 -7372.1042 300.5277 215.1891 193.6441 30229.2179 13.6291 90.1450
ENERGY: 1500000 6.8154 50.6762 14.3620 0.0000 -10765.4765 1474.9754 0.0000 0.0000 1740.1551 -7478.4924 296.1901 -9218.6475 -7380.5010 300.5750 500.6342 533.7104 30239.1401 50.0794 122.3201
TCL: Running FEP window   2: Lambda1 0.95   Lambda2 0.8999999999999999 [dLambda -0.050000000000000044]
TCL: Setting parameter firsttimestep to 0
TCL: Setting parameter alchLambda to 0.95
Info: NONBONDED TABLE R-SQUARED SPACING: 0.0625
Info: NONBONDED TABLE SIZE: 705 POINTS
TCL: Setting parameter alchLambda2 to 0.8999999999999999
Info: NONBONDED TABLE R-SQUARED SPACING: 0.0625
Info: NONBONDED TABLE SIZE: 705 POINTS
TCL: Running for 1500000 steps
ETITLE: TS BOND ANGLE DIHED IMPRP ELECT VDW BOUNDARY MISC KINETIC TOTAL TEMP POTENTIAL TOTALAVG TEMPAVG PRESSURE GPRESSURE VOLUME PRESSAVG GPRESSAVG
ENERGY: 0 6.8154 50.6762 14.3620 0.0000 -10763.3359 1475.4552 0.0000 0.0000 1739.2774 -7476.7497 296.0407 -9216.0271 -7476.7497 296.0407 436.9961 518.5133 30239.1401 436.9961 518.5133
ENERGY: 300000 6.1844 49.7864 14.6428 0.0000 -10456.6964 1316.2414 0.0000 0.0000 1819.6365 -7250.2049 309.7185 -9069.8414 -7363.3002 302.9876 -713.9370 -620.7676 30888.8219 -0.1444 106.4851
ENERGY: 600000 8.0348 51.8972 14.6264 0.0000 -10593.3966 1438.6240 0.0000 0.0000 1811.2065 -7269.0078 308.2836 -9080.2143 -7336.5297 304.0893 134.4843 253.8526 30793.6233 -43.7172 60.0430
ENERGY: 900000 4.7294 47.9370 15.0257 0.0000 -10532.7236 1334.2533 0.0000 0.0000 1754.7408 -7376.0373 298.6727 -9130.7781 -7363.3523 301.9774 -887.4914 -810.8415 30990.2076 -116.6736 -17.9871
ENERGY: 1200000 6.5120 52.5261 13.9988 0.0000 -10589.4521 1376.5306 0.0000 0.0000 1763.2047 -7376.6800 300.1133 -9139.8846 -7368.3234 302.2698 -235.8010 -181.7403 30622.7066 -62.0025 25.1032
ENERGY: 1500000 7.8217 47.2117 15.1931 0.0000 -10687.9848 1468.0892 0.0000 0.0000 1789.2417 -7360.4274 304.5450 -9149.6691 -7371.8801 301.2747 552.4502 580.3997 30410.9911 -59.3617 18.4720
TCL: Running FEP window   3: Lambda1 0.8999999999999999 Lambda2 0.8499999999999999 [dLambda -0.050000000000000044]
TCL: Setting parameter firsttimestep to 0
TCL: Setting parameter alchLambda to 0.8999999999999999
Info: NONBONDED TABLE R-SQUARED SPACING: 0.0625
Info: NONBONDED TABLE SIZE: 705 POINTS
TCL: Setting parameter alchLambda2 to 0.8499999999999999
Info: NONBONDED TABLE R-SQUARED SPACING: 0.0625
Info: NONBONDED TABLE SIZE: 705 POINTS
TCL: Running for 1500000 steps
ETITLE: TS BOND ANGLE DIHED IMPRP ELECT VDW BOUNDARY MISC KINETIC TOTAL TEMP POTENTIAL TOTALAVG TEMPAVG PRESSURE GPRESSURE VOLUME PRESSAVG GPRESSAVG
ENERGY: 0 7.8217 47.2117 15.1931 0.0000 -10686.1544 1468.9813 0.0000 0.0000 1788.3665 -7358.5802 304.3961 -9146.9467 -7358.5802 304.3961 484.7324 574.5395 30410.9911 484.7324 574.5395
ENERGY: 300000 3.8646 52.1857 13.8208 0.0000 -10688.2069 1410.0101 0.0000 0.0000 1809.4273 -7398.8985 307.9808 -9208.3258 -7380.0834 302.7711 -37.4253 10.8934 30426.8717 -82.2620 -4.6159
ENERGY: 600000 8.0116 49.3252 13.3671 0.0000 -10771.2910 1526.3700 0.0000 0.0000 1720.8138 -7453.4033 292.8980 -9174.2171 -7407.2769 298.9156 1081.4295 1168.2373 30010.8080 90.9015 165.3147
ENERGY: 900000 3.4256 54.0173 13.4764 0.0000 -10517.2322 1340.8430 0.0000 0.0000 1788.0764 -7317.3935 304.3467 -9105.4699 -7391.5037 300.2684 -399.9041 -309.5950 30264.9996 74.7328 148.5052
ENERGY: 1200000 9.6184 42.9734 15.7391 0.0000 -10568.3164 1367.5078 0.0000 0.0000 1784.4154 -7348.0623 303.7236 -9132.4777 -7387.3516 299.8416 -756.5314 -660.3792 30771.8830 13.1287 93.8806
ENERGY: 1500000 7.0365 45.8906 16.1524 0.0000 -10690.0020 1475.4188 0.0000 0.0000 1816.2617 -7329.2420 309.1441 -9145.5037 -7384.7929 299.8877 271.4350 293.6878 30922.9480 -10.9047 69.4230
TCL: Running FEP window   4: Lambda1 0.8499999999999999 Lambda2 0.7999999999999998 [dLambda -0.050000000000000044]
TCL: Setting parameter firsttimestep to 0
TCL: Setting parameter alchLambda to 0.8499999999999999
Info: NONBONDED TABLE R-SQUARED SPACING: 0.0625
Info: NONBONDED TABLE SIZE: 705 POINTS
TCL: Setting parameter alchLambda2 to 0.7999999999999998
Info: NONBONDED TABLE R-SQUARED SPACING: 0.0625
Info: NONBONDED TABLE SIZE: 705 POINTS
TCL: Running for 1500000 steps
ETITLE: TS BOND ANGLE DIHED IMPRP ELECT VDW BOUNDARY MISC KINETIC TOTAL TEMP POTENTIAL TOTALAVG TEMPAVG PRESSURE GPRESSURE VOLUME PRESSAVG GPRESSAVG
ENERGY: 0 7.0365 45.8906 16.1524 0.0000 -10688.8034 1475.6667 0.0000 0.0000 1815.3850 -7328.6721 308.9949 -9144.0571 -7328.6721 308.9949 209.0692 280.1697 30922.9480 209.0692 280.1697
ENERGY: 300000 11.9615 45.5898 15.1357 0.0000 -10616.5010 1356.8887 0.0000 0.0000 1739.2781 -7447.6472 296.0408 -9186.9253 -7350.7984 306.8206 -613.4910 -541.4644 30124.2477 -74.6210 -3.4670
ENERGY: 600000 6.6939 50.2946 14.5262 0.0000 -10770.2893 1445.9728 0.0000 0.0000 1698.3327 -7554.4691 289.0715 -9252.8018 -7402.9147 302.8818 -241.9537 -182.1026 30393.1614 6.5416 71.8700
ENERGY: 900000 8.1257 54.8554 14.6503 0.0000 -10735.5307 1410.3588 0.0000 0.0000 1809.5173 -7438.0232 307.9961 -9247.5405 -7389.9915 304.0318 -39.2438 74.0457 30044.9964 66.5998 139.0899
ENERGY: 1200000 3.0146 54.1146 13.9335 0.0000 -10669.4014 1453.3897 0.0000 0.0000 1788.0366 -7356.9124 304.3399 -9144.9490 -7381.6001 304.2725 52.1913 155.4114 30735.9403 -53.3904 21.3465
ENERGY: 1500000 6.4012 56.4857 17.1884 0.0000 -10605.7576 1363.5864 0.0000 0.0000 1739.2859 -7422.8099 296.0421 -9162.0959 -7395.5433 302.5738 -547.6683 -459.7835 30884.2470 -83.5997 -14.0499
TCL: Running FEP window   5: Lambda1 0.7999999999999998 Lambda2 0.7499999999999998 [dLambda -0.050000000000000044]
TCL: Setting parameter firsttimestep to 0
TCL: Setting parameter alchLambda to 0.7999999999999998
Info: NONBONDED TABLE R-SQUARED SPACING: 0.0625
Info: NONBONDED TABLE SIZE: 705 POINTS
TCL: Setting parameter alchLambda2 to 0.7499999999999998
Info: NONBONDED TABLE R-SQUARED SPACING: 0.0625
Info: NONBONDED TABLE SIZE: 705 POINTS
TCL: Running for 1500000 steps
ETITLE: TS BOND ANGLE DIHED IMPRP ELECT VDW BOUNDARY MISC KINETIC TOTAL TEMP POTENTIAL TOTALAVG TEMPAVG PRESSURE GPRESSURE VOLUME PRESSAVG GPRESSAVG
ENERGY: 0 6.4012 56.4856 17.1884 0.0000 -10604.7200 1364.6498 0.0000 0.0000 1738.3795 -7421.6153 295.8878 -9159.9948 -7421.6153 295.8878 -546.6613 -464.6319 30884.2470 -546.6613 -464.6319
ENERGY: 300000 4.0041 53.2980 14.6805 0.0000 -10556.5862 1371.4591 0.0000 0.0000 1829.3654 -7283.7791 311.3744 -9113.1445 -7392.9230 303.4590 -350.9395 -271.8192 30955.5929 -12.7739 100.5123
ENERGY: 600000 8.4704 51.3455 15.3305 0.0000 -10499.6327 1356.3219 0.0000 0.0000 1742.0549 -7326.1095 296.5134 -9068.1645 -7416.0908 299.8231 -402.7912 -345.2287 30883.0575 -113.9909 -35.7530
ENERGY: 900000 9.0970 51.6516 14.1315 0.0000 -10657.6876 1418.4469 0.0000 0.0000 1774.1806 -7390.1801 301.9815 -9164.3607 -7411.0985 297.9393 96.1945 132.8542 30274.4636 6.7002 71.5659
ENERGY: 1200000 4.9731 53.2284 13.1435 0.0000 -10557.7534 1314.9855 0.0000 0.0000 1755.9390 -7415.4838 298.8766 -9171.4228 -7415.6325 298.0390 -929.5651 -855.8635 30371.8896 -109.2123 -36.2965
ENERGY: 1500000 10.0650 46.1519 14.1607 0.0000 -10539.8428 1415.9411 0.0000 0.0000 1765.8924 -7287.6316 300.5708 -9053.5240 -7402.5780 299.2556 -63.2062 12.2186 30958.2538 -69.3043 5.5997
TCL: Running FEP window   6: Lambda1 0.7499999999999998 Lambda2 0.6999999999999997 [dLambda -0.050000000000000044]
TCL: Setting parameter firsttimestep to 0
TCL: Setting parameter alchLambda to 0.7499999999999998
Info: NONBONDED TABLE R-SQUARED SPACING: 0.0625
Info: NONBONDED TABLE SIZE: 705 POINTS
TCL: Setting parameter alchLambda2 to 0.6999999999999997
Info: NONBONDED TABLE R-SQUARED SPACING: 0.0625
Info: NONBONDED TABLE SIZE: 705 POINTS
TCL: Running for 1500000 steps
ETITLE: TS BOND ANGLE DIHED IMPRP ELECT VDW BOUNDARY MISC KINETIC TOTAL TEMP POTENTIAL TOTALAVG TEMPAVG PRESSURE GPRESSURE VOLUME PRESSAVG GPRESSAVG
ENERGY: 0 10.0650 46.1519 14.1607 0.0000 -10539.0515 1415.8296 0.0000 0.0000 1765.0550 -7287.7893 300.4282 -9052.8442 -7287.7893 300.4282 -90.3231 -6.0047 30958.2538 -90.3231 -6.0047
ENERGY: 300000 7.5686 50.1555 14.5923 0.0000 -10663.7553 1448.6914 0.0000 0.0000 1808.4103 -7334.3374 307.8077 -9142.7476 -7377.9771 300.4413 350.3150 374.1256 30492.7843 132.1793 184.3083
ENERGY: 600000 5.0819 60.1833 15.0834 0.0000 -10636.0080 1418.2731 0.0000 0.0000 1748.4825 -7388.9039 297.6075 -9137.3864 -7381.4382 302.4270 125.0375 173.2252 30574.4110 38.9450 92.0664
ENERGY: 900000 10.3489 48.6096 13.5632 0.0000 -10763.6573 1453.9909 0.0000 0.0000 1780.7899 -7456.3548 303.1065 -9237.1447 -7382.4047 303.4193 222.4965 287.5748 29913.1112 30.1378 80.9482
ENERGY: 1200000 5.4527 54.2419 15.0422 0.0000 -10554.8685 1374.3325 0.0000 0.0000 1745.7687 -7360.0305 297.1455 -9105.7992 -7390.9029 301.7126 -53.8074 -30.2386 30539.5965 -10.3100 44.2303
ENERGY: 1500000 8.4814 50.5769 15.5141 0.0000 -10753.7708 1558.2147 0.0000 0.0000 1688.6692 -7432.3145 287.4267 -9120.9837 -7389.3265 301.0082 984.5885 1059.6255 30415.5230 144.7098 200.6763
TCL: Running FEP window   7: Lambda1 0.6999999999999997 Lambda2 0.6499999999999997 [dLambda -0.050000000000000044]
TCL: Setting parameter firsttimestep to 0
TCL: Setting parameter alchLambda to 0.6999999999999997
Info: NONBONDED TABLE R-SQUARED SPACING: 0.0625
Info: NONBONDED TABLE SIZE: 705 POINTS
TCL: Setting parameter alchLambda2 to 0.6499999999999997
Info: NONBONDED TABLE R-SQUARED SPACING: 0.0625
Info: NONBONDED TABLE SIZE: 705 POINTS
TCL: Running for 1500000 steps
ETITLE: TS BOND ANGLE DIHED IMPRP ELECT VDW BOUNDARY MISC KINETIC TOTAL TEMP POTENTIAL TOTALAVG TEMPAVG PRESSURE GPRESSURE VOLUME PRESSAVG GPRESSAVG
ENERGY: 0 8.4814 50.5769 15.5141 0.0000 -10752.7590 1559.0114 0.0000 0.0000 1687.7997 -7431.3755 287.2787 -9119.1752 -7431.3755 287.2787 968.9918 1054.1584 30415.5230 968.9918 1054.1584
ENERGY: 300000 4.2029 47.4987 14.5129 0.0000 -10635.7521 1398.5990 0.0000 0.0000 1768.6728 -7402.2658 301.0440 -9170.9385 -7403.0737 297.3670 -134.0941 -42.4313 29964.2000 40.4118 121.9951
ENERGY: 600000 4.9474 47.0018 15.8996 0.0000 -10655.0918 1491.2267 0.0000 0.0000 1812.2342 -7283.7820 308.4586 -9096.0162 -7391.9515 299.5471 792.1689 847.4482 30465.0194 67.3141 145.5213
ENERGY: 900000 5.0923 48.0152 16.3224 0.0000 -10506.4646 1321.9139 0.0000 0.0000 1766.6879 -7348.4329 300.7062 -9115.1207 -7387.6323 299.2949 -733.7794 -763.0285 30753.6461 46.2240 115.7609
ENERGY: 1200000 12.5514 49.1879 14.7091 0.0000 -10672.8592 1481.2279 0.0000 0.0000 1733.2334 -7381.9496 295.0119 -9115.1830 -7390.2309 299.0511 619.3194 701.2265 29964.3865 58.0550 117.7969
ENERGY: 1500000 3.2012 48.4523 15.9184 0.0000 -10647.6074 1459.5016 0.0000 0.0000 1719.6694 -7400.8645 292.7032 -9120.5339 -7387.4168 299.1314 682.1381 749.2753 29856.1548 64.5663 121.7293
TCL: Running FEP window   8: Lambda1 0.6499999999999997 Lambda2 0.5999999999999996 [dLambda -0.050000000000000044]
TCL: Setting parameter firsttimestep to 0
TCL: Setting parameter alchLambda to 0.6499999999999997
Info: NONBONDED TABLE R-SQUARED SPACING: 0.0625
Info: NONBONDED TABLE SIZE: 705 POINTS
TCL: Setting parameter alchLambda2 to 0.5999999999999996
Info: NONBONDED TABLE R-SQUARED SPACING: 0.0625
Info: NONBONDED TABLE SIZE: 705 POINTS
TCL: Running for 1500000 steps
ETITLE: TS BOND ANGLE DIHED IMPRP ELECT VDW BOUNDARY MISC KINETIC TOTAL TEMP POTENTIAL TOTALAVG TEMPAVG PRESSURE GPRESSURE VOLUME PRESSAVG GPRESSAVG
ENERGY: 0 3.2012 48.4523 15.9184 0.0000 -10645.6702 1459.4180 0.0000 0.0000 1718.7939 -7399.8863 292.5542 -9118.6802 -7399.8863 292.5542 652.3150 732.5648 29856.1548 652.3150 732.5648
ENERGY: 300000 5.4401 51.9526 16.8990 0.0000 -10511.1159 1342.5311 0.0000 0.0000 1737.0074 -7357.2857 295.6543 -9094.2931 -7379.6526 296.8586 -695.8471 -638.8617 30486.1824 278.8620 348.4325
ENERGY: 600000 4.7235 49.3753 15.6505 0.0000 -10703.4943 1456.6356 0.0000 0.0000 1747.8852 -7429.2243 297.5058 -9177.1095 -7378.4157 299.8523 112.9595 137.8217 30622.0742 96.8482 162.3829
ENERGY: 900000 5.6845 48.7849 13.8572 0.0000 -10554.9907 1361.1602 0.0000 0.0000 1706.2875 -7419.2163 290.4255 -9125.5039 -7369.3938 299.7805 -489.1867 -366.9599 30358.3478 13.8034 77.0487
ENERGY: 1200000 6.5283 51.6606 15.2359 0.0000 -10585.3080 1391.5482 0.0000 0.0000 1704.2697 -7416.0652 290.0820 -9120.3349 -7378.1773 299.1099 -423.1909 -310.5388 30907.6082 -74.7583 -3.9041
ENERGY: 1500000 5.4813 52.1091 14.0112 0.0000 -10594.5174 1416.6826 0.0000 0.0000 1761.3073 -7344.9260 299.7903 -9106.2333 -7376.6835 299.2132 82.4291 99.9062 30188.5436 -70.4941 -2.6718
TCL: Running FEP window   9: Lambda1 0.5999999999999996 Lambda2 0.5499999999999996 [dLambda -0.050000000000000044]
TCL: Setting parameter firsttimestep to 0
TCL: Setting parameter alchLambda to 0.5999999999999996
Info: NONBONDED TABLE R-SQUARED SPACING: 0.0625
Info: NONBONDED TABLE SIZE: 705 POINTS
TCL: Setting parameter alchLambda2 to 0.5499999999999996
Info: NONBONDED TABLE R-SQUARED SPACING: 0.0625
Info: NONBONDED TABLE SIZE: 705 POINTS
TCL: Running for 1500000 steps
ETITLE: TS BOND ANGLE DIHED IMPRP ELECT VDW BOUNDARY MISC KINETIC TOTAL TEMP POTENTIAL TOTALAVG TEMPAVG PRESSURE GPRESSURE VOLUME PRESSAVG GPRESSAVG
ENERGY: 0 5.4813 52.1091 14.0112 0.0000 -10593.8610 1417.8069 0.0000 0.0000 1760.4468 -7344.0057 299.6439 -9104.4525 -7344.0057 299.6439 25.7836 97.9077 30188.5436 25.7836 97.9077
ENERGY: 300000 3.9695 49.4193 14.4939 0.0000 -10695.7330 1450.8940 0.0000 0.0000 1775.3306 -7401.6257 302.1772 -9176.9564 -7385.0396 298.7327 -10.4238 51.2750 30824.4589 -331.7140 -267.2498
ENERGY: 600000 6.5107 55.4309 14.1570 0.0000 -10646.3568 1374.9946 0.0000 0.0000 1720.1511 -7475.1126 292.7852 -9195.2637 -7384.2924 298.3222 -358.6665 -321.8810 29947.5572 -188.9054 -124.0063
ENERGY: 900000 4.4145 49.1490 15.3978 0.0000 -10549.6168 1387.4674 0.0000 0.0000 1720.0195 -7373.1686 292.7628 -9093.1882 -7383.7941 298.5718 -152.4780 13.2026 30558.1582 -193.8911 -109.7668
ENERGY: 1200000 11.2569 49.7582 14.0907 0.0000 -10558.3155 1396.3409 0.0000 0.0000 1777.4212 -7309.4476 302.5331 -9086.8688 -7380.9882 299.2309 -114.6056 -77.3653 30617.2865 -169.3318 -99.2700
ENERGY: 1500000 6.7746 51.1941 14.1205 0.0000 -10742.2414 1453.3511 0.0000 0.0000 1759.7553 -7457.0457 299.5262 -9216.8010 -7384.8855 298.9764 -3.5166 31.5282 30102.9976 -130.1959 -62.2414
TCL: Running FEP window  10: Lambda1 0.5499999999999996 Lambda2 0.4999999999999996 [dLambda -0.04999999999999999]
TCL: Setting parameter firsttimestep to 0
TCL: Setting parameter alchLambda to 0.5499999999999996
Info: NONBONDED TABLE R-SQUARED SPACING: 0.0625
Info: NONBONDED TABLE SIZE: 705 POINTS
TCL: Setting parameter alchLambda2 to 0.4999999999999996
Info: NONBONDED TABLE R-SQUARED SPACING: 0.0625
Info: NONBONDED TABLE SIZE: 705 POINTS
TCL: Running for 1500000 steps
ETITLE: TS BOND ANGLE DIHED IMPRP ELECT VDW BOUNDARY MISC KINETIC TOTAL TEMP POTENTIAL TOTALAVG TEMPAVG PRESSURE GPRESSURE VOLUME PRESSAVG GPRESSAVG
ENERGY: 0 6.7746 51.1941 14.1205 0.0000 -10741.7462 1453.8152 0.0000 0.0000 1758.8701 -7456.9717 299.3755 -9215.8418 -7456.9717 299.3755 -71.4400 19.8156 30102.9976 -71.4400 19.8156
ENERGY: 300000 4.6957 53.4248 14.2440 0.0000 -10598.7596 1375.7836 0.0000 0.0000 1772.2980 -7378.3135 301.6611 -9150.6116 -7393.3607 300.7338 -378.3656 -301.1919 30291.8744 -319.4144 -229.5623
ENERGY: 600000 8.0818 54.8615 13.5455 0.0000 -10516.1052 1333.3967 0.0000 0.0000 1778.4439 -7327.7759 302.7071 -9106.2198 -7368.8680 302.9491 -785.9541 -741.2568 30476.7726 -299.4798 -223.2850
ENERGY: 900000 7.1084 52.5109 15.7780 0.0000 -10860.8775 1612.1078 0.0000 0.0000 1768.5329 -7404.8395 301.0202 -9173.3725 -7373.9869 302.4917 1705.5308 1746.6315 29767.9901 44.8027 113.5445
ENERGY: 1200000 3.1503 53.6675 16.1778 0.0000 -10731.9244 1448.2715 0.0000 0.0000 1698.8575 -7511.7999 289.1608 -9210.6573 -7388.0484 301.1963 82.0780 217.6481 30126.9992 107.0030 181.3694
ENERGY: 1500000 8.4874 51.5218 14.9289 0.0000 -10552.1117 1294.5020 0.0000 0.0000 1780.9665 -7401.7050 303.1365 -9182.6715 -7390.5347 301.1423 -1017.1264 -991.3270 30155.3628 -19.2062 47.7359
TCL: Running FEP window  11: Lambda1 0.4999999999999996 Lambda2 0.4499999999999996 [dLambda -0.04999999999999999]
TCL: Setting parameter firsttimestep to 0
TCL: Setting parameter alchLambda to 0.4999999999999996
Info: NONBONDED TABLE R-SQUARED SPACING: 0.0625
Info: NONBONDED TABLE SIZE: 705 POINTS
TCL: Setting parameter alchLambda2 to 0.4499999999999996
Info: NONBONDED TABLE R-SQUARED SPACING: 0.0625
Info: NONBONDED TABLE SIZE: 705 POINTS
TCL: Running for 1500000 steps
ETITLE: TS BOND ANGLE DIHED IMPRP ELECT VDW BOUNDARY MISC KINETIC TOTAL TEMP POTENTIAL TOTALAVG TEMPAVG PRESSURE GPRESSURE VOLUME PRESSAVG GPRESSAVG
ENERGY: 0 8.4874 51.5218 14.9289 0.0000 -10552.2790 1295.2318 0.0000 0.0000 1780.0768 -7402.0323 302.9851 -9182.1091 -7402.0323 302.9851 -1072.7834 -996.3741 30155.3628 -1072.7834 -996.3741
ENERGY: 300000 12.0252 59.2929 13.9277 0.0000 -10439.5732 1301.1838 0.0000 0.0000 1768.0800 -7285.0635 300.9431 -9053.1435 -7384.9541 299.6814 -1082.4992 -1076.7024 30812.5064 -868.7245 -803.5049
ENERGY: 600000 4.3114 50.7878 15.4826 0.0000 -10647.3457 1402.8595 0.0000 0.0000 1784.7869 -7389.1175 303.7868 -9173.9044 -7385.3686 299.9202 -362.0883 -287.9499 30342.1001 -457.9927 -400.4103
ENERGY: 900000 6.9332 50.0933 15.1388 0.0000 -10654.9499 1397.4678 0.0000 0.0000 1809.7018 -7375.6150 308.0275 -9185.3168 -7381.9417 300.2531 -309.0460 -282.2958 30511.2264 -415.7563 -361.7872
ENERGY: 1200000 5.1432 47.0640 15.1233 0.0000 -10658.6845 1427.3806 0.0000 0.0000 1781.8657 -7382.1077 303.2896 -9163.9734 -7377.8448 299.6903 -194.2266 -168.5857 30513.9744 -290.7761 -237.2306
ENERGY: 1500000 6.6710 48.1547 14.0338 0.0000 -10573.9429 1359.2372 0.0000 0.0000 1737.4921 -7408.3539 295.7368 -9145.8461 -7370.1261 300.4747 -501.8484 -420.4568 30517.4091 -326.6014 -263.5090
TCL: Running FEP window  12: Lambda1 0.4499999999999996 Lambda2 0.39999999999999963 [dLambda -0.04999999999999999]
TCL: Setting parameter firsttimestep to 0
TCL: Setting parameter alchLambda to 0.4499999999999996
Info: NONBONDED TABLE R-SQUARED SPACING: 0.0625
Info: NONBONDED TABLE SIZE: 705 POINTS
TCL: Setting parameter alchLambda2 to 0.39999999999999963
Info: NONBONDED TABLE R-SQUARED SPACING: 0.0625
Info: NONBONDED TABLE SIZE: 705 POINTS
TCL: Running for 1500000 steps
ETITLE: TS BOND ANGLE DIHED IMPRP ELECT VDW BOUNDARY MISC KINETIC TOTAL TEMP POTENTIAL TOTALAVG TEMPAVG PRESSURE GPRESSURE VOLUME PRESSAVG GPRESSAVG
ENERGY: 0 6.6711 48.1548 14.0338 0.0000 -10573.9427 1360.2749 0.0000 0.0000 1736.6229 -7408.1853 295.5888 -9144.8082 -7408.1853 295.5888 -511.3833 -417.9299 30517.4091 -511.3833 -417.9299
ENERGY: 300000 8.8286 48.1116 13.9941 0.0000 -10609.8908 1368.4618 0.0000 0.0000 1799.8018 -7370.6930 306.3425 -9170.4947 -7371.0127 297.7282 -769.2601 -746.9232 30431.2825 -711.8183 -656.2304
ENERGY: 600000 7.5186 48.3223 15.4148 0.0000 -10688.9441 1441.6294 0.0000 0.0000 1751.2211 -7424.8379 298.0736 -9176.0590 -7375.9578 298.4667 408.0004 434.2797 29927.2669 -434.5396 -369.9680
ENERGY: 900000 9.1795 47.7967 14.0965 0.0000 -10541.7171 1394.9464 0.0000 0.0000 1781.7224 -7293.9756 303.2652 -9075.6980 -7362.2734 299.9798 -40.1462 53.9745 30324.9981 -157.9747 -93.1258
ENERGY: 1200000 3.4076 51.7406 16.7162 0.0000 -10557.3678 1410.2999 0.0000 0.0000 1735.7839 -7339.4196 295.4460 -9075.2035 -7372.0013 298.8549 137.5046 154.5408 30301.0396 -111.2537 -45.1308
ENERGY: 1500000 5.2981 50.2218 14.3276 0.0000 -10603.7172 1435.9672 0.0000 0.0000 1785.1715 -7312.7311 303.8522 -9097.9026 -7362.8303 299.4585 -134.4850 -62.8248 30804.0123 -32.9558 28.9502
TCL: Running FEP window  13: Lambda1 0.39999999999999963 Lambda2 0.34999999999999964 [dLambda -0.04999999999999999]
TCL: Setting parameter firsttimestep to 0
TCL: Setting parameter alchLambda to 0.39999999999999963
Info: NONBONDED TABLE R-SQUARED SPACING: 0.0625
Info: NONBONDED TABLE SIZE: 705 POINTS
TCL: Setting parameter alchLambda2 to 0.34999999999999964
Info: NONBONDED TABLE R-SQUARED SPACING: 0.0625
Info: NONBONDED TABLE SIZE: 705 POINTS
TCL: Running for 1500000 steps
ETITLE: TS BOND ANGLE DIHED IMPRP ELECT VDW BOUNDARY MISC KINETIC TOTAL TEMP POTENTIAL TOTALAVG TEMPAVG PRESSURE GPRESSURE VOLUME PRESSAVG GPRESSAVG
ENERGY: 0 5.2981 50.2218 14.3275 0.0000 -10603.7162 1436.5417 0.0000 0.0000 1784.2808 -7313.0462 303.7006 -9097.3271 -7313.0462 303.7006 -144.3048 -68.6375 30804.0123 -144.3048 -68.6375
ENERGY: 300000 16.8996 52.7310 15.0236 0.0000 -10597.6934 1393.7360 0.0000 0.0000 1774.7143 -7344.5890 302.0723 -9119.3033 -7376.1149 302.0053 -764.3816 -646.4623 30920.5028 -458.1176 -380.0729
ENERGY: 600000 5.5855 50.4582 13.7368 0.0000 -10637.3254 1383.3481 0.0000 0.0000 1747.6725 -7436.5243 297.4696 -9184.1968 -7395.3117 300.4632 -412.8195 -276.8547 30316.9188 -246.9281 -182.3162
ENERGY: 900000 6.4219 50.8954 15.2023 0.0000 -10587.8090 1360.9303 0.0000 0.0000 1787.6975 -7366.6616 304.2822 -9154.3591 -7379.2129 300.7638 -379.5062 -369.2826 30053.7838 -225.5354 -175.1764
ENERGY: 1200000 4.7560 52.8408 13.9918 0.0000 -10599.0288 1446.4308 0.0000 0.0000 1744.1116 -7336.8977 296.8635 -9081.0093 -7372.6342 300.7493 345.6677 419.6107 30301.4704 -1.3725 57.2994
ENERGY: 1500000 5.9978 52.6531 14.3752 0.0000 -10641.1846 1438.5436 0.0000 0.0000 1753.2391 -7376.3759 298.4171 -9129.6150 -7374.9597 300.5143 112.5852 180.0931 30270.2177 -50.0756 10.4819
TCL: Running FEP window  14: Lambda1 0.34999999999999964 Lambda2 0.29999999999999966 [dLambda -0.04999999999999999]
TCL: Setting parameter firsttimestep to 0
TCL: Setting parameter alchLambda to 0.34999999999999964
Info: NONBONDED TABLE R-SQUARED SPACING: 0.0625
Info: NONBONDED TABLE SIZE: 705 POINTS
TCL: Setting parameter alchLambda2 to 0.29999999999999966
Info: NONBONDED TABLE R-SQUARED SPACING: 0.0625
Info: NONBONDED TABLE SIZE: 705 POINTS
TCL: Running for 1500000 steps
ETITLE: TS BOND ANGLE DIHED IMPRP ELECT VDW BOUNDARY MISC KINETIC TOTAL TEMP POTENTIAL TOTALAVG TEMPAVG PRESSURE GPRESSURE VOLUME PRESSAVG GPRESSAVG
ENERGY: 0 5.9977 52.6531 14.3752 0.0000 -10641.1846 1439.2823 0.0000 0.0000 1752.3925 -7376.4838 298.2730 -9128.8762 -7376.4838 298.2730 88.9553 177.8490 30270.2177 88.9553 177.8490
ENERGY: 300000 5.3369 52.1929 14.8632 0.0000 -10718.7941 1489.9077 0.0000 0.0000 1765.3540 -7391.1396 300.4791 -9156.4935 -7387.9129 298.6836 181.1147 220.0296 30734.6598 -314.4393 -265.8862
ENERGY: 600000 7.0368 55.6999 14.3563 0.0000 -10627.4376 1423.0772 0.0000 0.0000 1768.9468 -7358.3206 301.0907 -9127.2674 -7381.8111 298.3547 64.5596 130.4306 30295.1092 -355.4397 -311.8357
ENERGY: 900000 8.0774 48.0567 15.8168 0.0000 -10649.3529 1421.3889 0.0000 0.0000 1741.3953 -7414.6178 296.4011 -9156.0131 -7387.0929 299.7093 -28.9820 -31.2663 30267.7855 -215.3583 -170.1274
ENERGY: 1200000 4.1733 50.1267 14.4588 0.0000 -10766.0039 1545.0440 0.0000 0.0000 1802.1661 -7350.0350 306.7449 -9152.2011 -7376.8571 300.2398 731.0028 768.5910 30174.7681 -206.6953 -152.7775
ENERGY: 1500000 5.0613 49.4700 14.9125 0.0000 -10509.0071 1392.9553 0.0000 0.0000 1785.4978 -7261.1102 303.9078 -9046.6080 -7367.7326 300.7912 -51.0225 -24.6860 30529.9510 -109.7421 -62.2941
TCL: Running FEP window  15: Lambda1 0.29999999999999966 Lambda2 0.24999999999999967 [dLambda -0.04999999999999999]
TCL: Setting parameter firsttimestep to 0
TCL: Setting parameter alchLambda to 0.29999999999999966
Info: NONBONDED TABLE R-SQUARED SPACING: 0.0625
Info: NONBONDED TABLE SIZE: 705 POINTS
TCL: Setting parameter alchLambda2 to 0.24999999999999967
Info: NONBONDED TABLE R-SQUARED SPACING: 0.0625
Info: NONBONDED TABLE SIZE: 705 POINTS
TCL: Running for 1500000 steps
ETITLE: TS BOND ANGLE DIHED IMPRP ELECT VDW BOUNDARY MISC KINETIC TOTAL TEMP POTENTIAL TOTALAVG TEMPAVG PRESSURE GPRESSURE VOLUME PRESSAVG GPRESSAVG
ENERGY: 0 5.0614 49.4701 14.9125 0.0000 -10509.0070 1392.9686 0.0000 0.0000 1784.6206 -7261.9738 303.7585 -9046.5944 -7261.9738 303.7585 -125.1303 -32.2607 30529.9510 -125.1303 -32.2607
ENERGY: 300000 4.2004 50.0288 13.4624 0.0000 -10754.9332 1491.6114 0.0000 0.0000 1816.9032 -7378.7270 309.2533 -9195.6302 -7348.7633 302.2272 177.6642 219.3915 30556.8018 192.7873 259.2910
ENERGY: 600000 6.3421 50.9199 14.4092 0.0000 -10564.9482 1382.4401 0.0000 0.0000 1782.7945 -7328.0424 303.4477 -9110.8368 -7354.8416 301.9689 -391.4969 -367.0970 30735.9285 181.0755 244.1167
ENERGY: 900000 11.5299 50.4425 14.8813 0.0000 -10562.8749 1371.3942 0.0000 0.0000 1771.4396 -7343.1874 301.5150 -9114.6270 -7359.9192 302.5733 -572.7545 -530.2212 30418.6972 154.9179 208.2146
ENERGY: 1200000 8.4249 47.7410 14.0225 0.0000 -10732.8844 1538.4645 0.0000 0.0000 1742.0509 -7382.1805 296.5127 -9124.2314 -7361.2721 301.4044 840.0428 904.4731 30683.9649 97.5973 156.6863
ENERGY: 1500000 9.7936 50.0867 13.6872 0.0000 -10773.2278 1528.5854 0.0000 0.0000 1780.0960 -7390.9787 302.9884 -9171.0748 -7373.4826 300.4794 644.8393 696.3192 30564.2939 116.3294 164.3074
TCL: Running FEP window  16: Lambda1 0.24999999999999967 Lambda2 0.19999999999999968 [dLambda -0.04999999999999999]
TCL: Setting parameter firsttimestep to 0
TCL: Setting parameter alchLambda to 0.24999999999999967
Info: NONBONDED TABLE R-SQUARED SPACING: 0.0625
Info: NONBONDED TABLE SIZE: 705 POINTS
TCL: Setting parameter alchLambda2 to 0.19999999999999968
Info: NONBONDED TABLE R-SQUARED SPACING: 0.0625
Info: NONBONDED TABLE SIZE: 705 POINTS
TCL: Running for 1500000 steps
ETITLE: TS BOND ANGLE DIHED IMPRP ELECT VDW BOUNDARY MISC KINETIC TOTAL TEMP POTENTIAL TOTALAVG TEMPAVG PRESSURE GPRESSURE VOLUME PRESSAVG GPRESSAVG
ENERGY: 0 9.7936 50.0867 13.6872 0.0000 -10773.2283 1529.0136 0.0000 0.0000 1779.1928 -7391.4544 302.8346 -9170.6472 -7391.4544 302.8346 605.8585 690.0865 30564.2939 605.8585 690.0865
ENERGY: 300000 4.2709 52.6581 14.5042 0.0000 -10621.6474 1419.4310 0.0000 0.0000 1734.8587 -7395.9244 295.2886 -9130.7831 -7403.3715 294.9494 -33.5275 33.1666 30207.5670 371.3982 458.0450
ENERGY: 600000 7.7857 50.5044 14.1163 0.0000 -10841.2941 1529.0287 0.0000 0.0000 1759.2112 -7480.6478 299.4336 -9239.8590 -7403.2699 296.8920 596.8070 676.8334 29946.6025 260.3041 347.0890
ENERGY: 900000 5.3861 57.8709 13.3366 0.0000 -10678.6775 1459.5056 0.0000 0.0000 1790.2585 -7352.3199 304.7181 -9142.5784 -7398.9660 297.7573 131.3836 160.3121 30271.8988 15.9962 96.9800
ENERGY: 1200000 7.1060 53.4847 14.4300 0.0000 -10551.1628 1378.8504 0.0000 0.0000 1757.8234 -7339.4683 299.1973 -9097.2917 -7390.7441 298.4141 -310.6111 -278.5058 30403.8927 -53.1879 21.0974
ENERGY: 1500000 11.0270 58.3910 16.1097 0.0000 -10634.4726 1317.6747 0.0000 0.0000 1786.9177 -7444.3525 304.1495 -9231.2703 -7391.0530 299.4760 -1252.4602 -1150.8952 30450.2204 -115.7788 -39.5013
TCL: Running FEP window  17: Lambda1 0.19999999999999968 Lambda2 0.1499999999999997 [dLambda -0.04999999999999999]
TCL: Setting parameter firsttimestep to 0
TCL: Setting parameter alchLambda to 0.19999999999999968
Info: NONBONDED TABLE R-SQUARED SPACING: 0.0625
Info: NONBONDED TABLE SIZE: 705 POINTS
TCL: Setting parameter alchLambda2 to 0.1499999999999997
Info: NONBONDED TABLE R-SQUARED SPACING: 0.0625
Info: NONBONDED TABLE SIZE: 705 POINTS
TCL: Running for 1500000 steps
ETITLE: TS BOND ANGLE DIHED IMPRP ELECT VDW BOUNDARY MISC KINETIC TOTAL TEMP POTENTIAL TOTALAVG TEMPAVG PRESSURE GPRESSURE VOLUME PRESSAVG GPRESSAVG
ENERGY: 0 11.0270 58.3910 16.1097 0.0000 -10634.4716 1318.2648 0.0000 0.0000 1786.0404 -7444.6387 304.0001 -9230.6791 -7444.6387 304.0001 -1231.4308 -1156.1420 30450.2204 -1231.4308 -1156.1420
ENERGY: 300000 5.0784 50.5187 13.0595 0.0000 -10518.2142 1365.2954 0.0000 0.0000 1741.9735 -7342.2887 296.4996 -9084.2622 -7343.3586 303.4852 -609.2630 -490.6753 30602.3875 -707.8321 -630.4794
ENERGY: 600000 7.2775 52.7073 13.9326 0.0000 -10577.7732 1425.7593 0.0000 0.0000 1764.4417 -7313.6547 300.3239 -9078.0965 -7360.0978 301.3048 84.8221 171.2920 30282.5724 -347.9330 -271.9013
ENERGY: 900000 13.0411 51.1724 14.7368 0.0000 -10634.4025 1401.3064 0.0000 0.0000 1794.9780 -7359.1678 305.5214 -9154.1458 -7365.2281 302.4542 -376.3331 -324.9073 30239.7768 -232.6509 -156.3038
ENERGY: 1200000 9.7656 52.1521 15.0779 0.0000 -10591.6395 1401.2204 0.0000 0.0000 1791.2673 -7322.1561 304.8898 -9113.4234 -7369.8063 301.8781 367.0485 398.7780 29689.4389 -190.3434 -123.5135
ENERGY: 1500000 7.5464 50.0677 14.2831 0.0000 -10541.7105 1306.6561 0.0000 0.0000 1759.1788 -7403.9783 299.4281 -9163.1571 -7369.5680 301.3574 -923.2290 -872.9896 30160.3736 -283.3541 -210.8918
TCL: Running FEP window  18: Lambda1 0.1499999999999997 Lambda2 0.09999999999999969 [dLambda -0.05 ]
TCL: Setting parameter firsttimestep to 0
TCL: Setting parameter alchLambda to 0.1499999999999997
Info: NONBONDED TABLE R-SQUARED SPACING: 0.0625
Info: NONBONDED TABLE SIZE: 705 POINTS
TCL: Setting parameter alchLambda2 to 0.09999999999999969
Info: NONBONDED TABLE R-SQUARED SPACING: 0.0625
Info: NONBONDED TABLE SIZE: 705 POINTS
TCL: Running for 1500000 steps
ETITLE: TS BOND ANGLE DIHED IMPRP ELECT VDW BOUNDARY MISC KINETIC TOTAL TEMP POTENTIAL TOTALAVG TEMPAVG PRESSURE GPRESSURE VOLUME PRESSAVG GPRESSAVG
ENERGY: 0 7.5464 50.0677 14.2831 0.0000 -10541.7088 1307.3067 0.0000 0.0000 1758.3043 -7404.2006 299.2792 -9162.5049 -7404.2006 299.2792 -959.6485 -872.9687 30160.3736 -959.6485 -872.9687
ENERGY: 300000 3.7034 53.5005 13.8173 0.0000 -10529.8506 1323.7456 0.0000 0.0000 1752.2434 -7382.8405 298.2476 -9135.0838 -7400.9562 296.4672 -912.5176 -924.1782 30545.0906 -637.4876 -571.3318
ENERGY: 600000 6.8543 49.1052 14.8835 0.0000 -10619.3620 1442.0345 0.0000 0.0000 1642.8077 -7463.6767 279.6206 -9106.4844 -7413.0032 293.7782 -34.0870 75.4513 30141.4942 -455.1093 -371.1604
ENERGY: 900000 11.3448 52.0500 14.7322 0.0000 -10773.0178 1486.9935 0.0000 0.0000 1748.4233 -7459.4740 297.5974 -9207.8973 -7420.5015 295.1648 231.8077 259.8435 30360.4592 -268.0799 -194.9046
ENERGY: 1200000 7.4593 48.4859 13.6952 0.0000 -10654.1268 1425.2037 0.0000 0.0000 1766.4863 -7392.7963 300.6719 -9159.2827 -7412.5579 296.7875 -117.7040 -83.3879 30213.7919 -273.6124 -203.7016
ENERGY: 1500000 7.8330 49.5715 13.9972 0.0000 -10581.6005 1344.5927 0.0000 0.0000 1743.0812 -7422.5249 296.6881 -9165.6060 -7410.2603 297.2022 -758.1308 -747.1682 30138.6606 -265.4566 -202.9641
TCL: Running FEP window  19: Lambda1 0.09999999999999969 Lambda2 0.049999999999999684 [dLambda -0.05 ]
TCL: Setting parameter firsttimestep to 0
TCL: Setting parameter alchLambda to 0.09999999999999969
Info: NONBONDED TABLE R-SQUARED SPACING: 0.0625
Info: NONBONDED TABLE SIZE: 705 POINTS
TCL: Setting parameter alchLambda2 to 0.049999999999999684
Info: NONBONDED TABLE R-SQUARED SPACING: 0.0625
Info: NONBONDED TABLE SIZE: 705 POINTS
TCL: Running for 1500000 steps
ETITLE: TS BOND ANGLE DIHED IMPRP ELECT VDW BOUNDARY MISC KINETIC TOTAL TEMP POTENTIAL TOTALAVG TEMPAVG PRESSURE GPRESSURE VOLUME PRESSAVG GPRESSAVG
ENERGY: 0 7.8330 49.5715 13.9972 0.0000 -10581.6002 1345.0072 0.0000 0.0000 1742.1990 -7422.9924 296.5379 -9165.1914 -7422.9924 296.5379 -813.2685 -752.5776 30138.6606 -813.2685 -752.5776
ENERGY: 300000 4.5784 52.6149 14.3291 0.0000 -10697.0585 1485.6119 0.0000 0.0000 1764.4107 -7375.5134 300.3186 -9139.9241 -7394.9397 300.2022 406.2270 449.3762 29985.1590 39.0777 101.4917
ENERGY: 600000 7.2234 49.9838 16.4315 0.0000 -10476.5462 1373.7099 0.0000 0.0000 1745.1535 -7284.0442 297.0408 -9029.1976 -7373.2712 300.4207 -433.8159 -389.3044 30776.4034 45.7267 107.9148
ENERGY: 900000 7.5862 50.0051 14.6207 0.0000 -10600.2842 1343.3858 0.0000 0.0000 1741.7108 -7442.9756 296.4548 -9184.6864 -7386.4458 300.4820 -652.0838 -567.7912 30197.0628 -7.6361 55.7411
ENERGY: 1200000 8.2311 50.9894 14.4637 0.0000 -10620.0862 1423.1850 0.0000 0.0000 1745.0934 -7378.1236 297.0306 -9123.2170 -7400.5671 298.6624 236.3877 304.4059 29857.0398 -27.5324 32.3491
ENERGY: 1500000 7.7816 46.6897 13.9846 0.0000 -10822.1608 1486.3862 0.0000 0.0000 1715.5420 -7551.7767 292.0007 -9267.3187 -7414.1661 297.6964 297.6302 393.0099 29748.2472 72.2432 133.7373
TCL: Running FEP window  20: Lambda1 0.049999999999999684 Lambda2 0.0    [dLambda -0.049999999999999684]
TCL: Setting parameter firsttimestep to 0
TCL: Setting parameter alchLambda to 0.049999999999999684
Info: NONBONDED TABLE R-SQUARED SPACING: 0.0625
Info: NONBONDED TABLE SIZE: 705 POINTS
TCL: Setting parameter alchLambda2 to 0.0
Info: NONBONDED TABLE R-SQUARED SPACING: 0.0625
Info: NONBONDED TABLE SIZE: 705 POINTS
TCL: Running for 1500000 steps
ETITLE: TS BOND ANGLE DIHED IMPRP ELECT VDW BOUNDARY MISC KINETIC TOTAL TEMP POTENTIAL TOTALAVG TEMPAVG PRESSURE GPRESSURE VOLUME PRESSAVG GPRESSAVG
ENERGY: 0 7.7816 46.6897 13.9846 0.0000 -10822.1605 1485.5872 0.0000 0.0000 1714.6788 -7553.4385 291.8538 -9268.1174 -7553.4385 291.8538 302.3732 385.8277 29748.2472 302.3732 385.8277
ENERGY: 300000 6.4222 50.3395 14.7899 0.0000 -10664.6875 1467.7027 0.0000 0.0000 1747.2040 -7378.2293 297.3898 -9125.4333 -7435.5247 296.1623 316.7544 392.5590 30255.1354 146.9369 217.2798
ENERGY: 600000 4.8111 49.9636 15.3026 0.0000 -10754.0041 1424.2738 0.0000 0.0000 1789.9518 -7469.7012 304.6659 -9259.6530 -7430.3098 296.5021 -531.2854 -394.9798 30220.5663 68.0565 131.6571
ENERGY: 900000 6.3341 49.5993 15.8404 0.0000 -10631.5937 1386.7562 0.0000 0.0000 1730.9533 -7442.1104 294.6238 -9173.0638 -7415.5978 295.8960 -902.0986 -894.0081 30275.0703 -86.4755 -32.0419
ENERGY: 1200000 7.1276 51.1989 13.6902 0.0000 -10532.9021 1338.2452 0.0000 0.0000 1713.5698 -7409.0702 291.6650 -9122.6401 -7415.0804 295.7908 -740.8720 -661.9527 29975.1336 -107.5578 -53.0503
ENERGY: 1500000 9.9580 48.4525 14.4642 0.0000 -10577.5106 1412.4595 0.0000 0.0000 1782.4031 -7309.7735 303.3810 -9092.1766 -7403.1315 297.3039 -231.1774 -89.3747 30022.6073 -63.3838 -0.5054
TCL: Exiting due to exit command.
