Info: SIMULATION PARAMETERS:
Info: TIMESTEP               2
Info: NUMBER OF STEPS        0
Info: STEPS PER CYCLE        10
Info: PERIODIC CELL BASIS 1  31.0857 0 0
Info: PERIODIC CELL BASIS 2  0 31.4633 0
Info: PERIODIC CELL BASIS 3  0 0 31.7406
Info: PERIODIC CELL CENTER   0 0 0
Info: WRAPPING WATERS AROUND PERIODIC BOUNDARIES ON OUTPUT.
Info: WRAPPING ALL CLUSTERS AROUND PERIODIC BOUNDARIES ON OUTPUT.
Info: FIRST LDB TIMESTEP     50
Info: LAST LDB TIMESTEP     -1
Info: HOM BACKGROUND SCALING 1
Info: PME BACKGROUND SCALING 1
Info: MIN ATOMS PER PATCH    40
Info: EMPTY PATCH LOAD       40 ATOMS
Info: VELOCITY FILE          mobley_7364468_equil.vel
Info: CENTER OF MASS MOVING INITIALLY? NO
Info: DIELECTRIC             1
Info: EXCLUDE                SCALED ONE-FOUR
Info: 1-4 ELECTROSTATICS SCALED BY 0.833333
Info: MODIFIED 1-4 VDW PARAMETERS WILL BE USED
Info: DCD FILENAME           mobley_7364468_prod.dcd
Info: DCD FREQUENCY          100000
Info: DCD FIRST STEP         100000
Info: DCD FILE WILL CONTAIN UNIT CELL DATA
Info: XST FILENAME           mobley_7364468_prod.xst
Info: XST FREQUENCY          100000
Info: NO VELOCITY DCD OUTPUT
Info: NO FORCE DCD OUTPUT
Info: OUTPUT FILENAME        mobley_7364468_prod
Info: BINARY OUTPUT FILES WILL BE USED
Info: RESTART FILENAME       mobley_7364468_prod.restart
Info: RESTART FREQUENCY      100000
Info: BINARY RESTART FILES WILL BE USED
Info: CUTOFF                 9
Info: PAIRLIST DISTANCE      11
Info: PAIRLIST SHRINK RATE   0.01
Info: PAIRLIST GROW RATE     0.01
Info: PAIRLIST TRIGGER       0.3
Info: PAIRLISTS PER CYCLE    2
Info: PAIRLISTS ENABLED
Info: MARGIN                 2
Info: HYDROGEN GROUP CUTOFF  2.5
Info: PATCH DIMENSION        15.5
Info: ENERGY OUTPUT STEPS    100000
Info: ENERGY EVALUATION STEPS    100000
Info: OUTPUT ENERGY PRECISION 4
Info: CROSSTERM ENERGY INCLUDED IN DIHEDRAL
Info: TIMING OUTPUT STEPS    1000000
Info: PRESSURE OUTPUT STEPS  100000
Info: ALCHEMICAL FEP ON
Info: FEP CURRENT LAMBDA VALUE     0
Info: FEP COMPARISON LAMBDA VALUE  0.05
Info: FEP INTRA-ALCHEMICAL NON-BONDED INTERACTIONS WILL BE RETAINED
Info: FEP INTRA-ALCHEMICAL BONDED INTERACTIONS WILL BE RETAINED
Info: FEP VDW SHIFTING COEFFICIENT 5
Info: FEP ELEC. ACTIVE FOR ANNIHILATED PARTICLES BETWEEN LAMBDA = 0 AND LAMBDA = 0.5
Info: FEP ELEC. ACTIVE FOR EXNIHILATED PARTICLES BETWEEN LAMBDA = 0.5 AND LAMBDA = 1
Info: FEP VDW ACTIVE FOR ANNIHILATED PARTICLES BETWEEN LAMBDA = 0 AND LAMBDA = 1
Info: FEP VDW ACTIVE FOR EXNIHILATED PARTICLES BETWEEN LAMBDA = 0 AND LAMBDA = 1
Info: FEP BOND ACTIVE FOR ANNIHILATED PARTICLES BETWEEN LAMBDA = 1 AND LAMBDA = 1
Info: FEP BOND ACTIVE FOR EXNIHILATED PARTICLES BETWEEN LAMBDA = 0 AND LAMBDA = 0
Info: LANGEVIN DYNAMICS ACTIVE
Info: LANGEVIN TEMPERATURE   300
Info: LANGEVIN USING BBK INTEGRATOR
Info: LANGEVIN DAMPING COEFFICIENT IS 1 INVERSE PS
Info: LANGEVIN DYNAMICS APPLIED TO HYDROGENS
Info: LANGEVIN PISTON PRESSURE CONTROL ACTIVE
Info:        TARGET PRESSURE IS 1.01325 BAR
Info:     OSCILLATION PERIOD IS 50 FS
Info:             DECAY TIME IS 25 FS
Info:     PISTON TEMPERATURE IS 300 K
Info:       PRESSURE CONTROL IS GROUP-BASED
Info:    INITIAL STRAIN RATE IS 0.000435805 0.000435805 0.000435805
Info:       CELL FLUCTUATION IS ISOTROPIC
Info: PARTICLE MESH EWALD (PME) ACTIVE
Info: PME TOLERANCE               1e-06
Info: PME EWALD COEFFICIENT       0.348832
Info: PME INTERPOLATION ORDER     4
Info: PME GRID DIMENSIONS         32 32 32
Info: PME MAXIMUM GRID SPACING    1
Info: PME CALCULATION WILL BE PERFORMED ON GPU
Info: FULL ELECTROSTATIC EVALUATION FREQUENCY      2
Info: USING VERLET I (r-RESPA) MTS SCHEME.
Info: C1 SPLITTING OF LONG RANGE ELECTROSTATICS
Info: PLACING ATOMS IN PATCHES BY HYDROGEN GROUPS
Info: RIGID BONDS TO HYDROGEN : ALL
Info:         ERROR TOLERANCE : 1e-08
Info:          MAX ITERATIONS : 100
Info: RIGID WATER USING SETTLE ALGORITHM
Info: RANDOM NUMBER SEED     1744247480
Info: USE HYDROGEN BONDS?    NO
Info: Using AMBER format force field!
Info: AMBER PARM FILE        mobley_7364468.prmtop
Info: COORDINATE PDB         mobley_7364468.pdb
Info: Exclusions will be read from PARM file!
Info: SCNB (VDW SCALING)     2
Info: USING ARITHMETIC MEAN TO COMBINE L-J SIGMA PARAMETERS
Info: BINARY COORDINATES     mobley_7364468_equil.coor
Info: SUMMARY OF PARAMETERS:
Info: 10 BONDS
Info: 15 ANGLES
Info:   15 HARMONIC
Info:   0 COSINE-BASED
Info: 10 DIHEDRAL
Info: 0 IMPROPER
Info: 0 CROSSTERM
Info: 0 VDW
Info: 28 VDW_PAIRS
Info: 0 NBTHOLE_PAIRS
Info: To read alchdata from file: mobley_7364468.pdb
Info: To read alchflag data from column: 5
Info: STRUCTURE SUMMARY:
Info: 2940 ATOMS
Info: 2940 BONDS
Info: 45 ANGLES
Info: 69 DIHEDRALS
Info: 0 IMPROPERS
Info: 0 CROSSTERMS
Info: 3044 EXCLUSIONS
Info: 2930 RIGID BONDS
Info: ALCH: 0 ATOMS TO DISAPPEAR IN FINAL STATE
Info: ALCH: 24 ATOMS TO APPEAR IN FINAL STATE
Info: 5890 DEGREES OF FREEDOM
Info: 982 HYDROGEN GROUPS
Info: 4 ATOMS IN LARGEST HYDROGEN GROUP
Info: 982 MIGRATION GROUPS
Info: 4 ATOMS IN LARGEST MIGRATION GROUP
Info: TOTAL MASS = 17649.8 amu
Info: TOTAL CHARGE = -3.72529e-08 e
Info: MASS DENSITY = 0.9441 g/cm^3
Info: ATOM DENSITY = 0.0947038 atoms/A^3
Info: ADDED 0 IMPLICIT EXCLUSIONS
Info: NONBONDED TABLE R-SQUARED SPACING: 0.0625
Info: NONBONDED TABLE SIZE: 705 POINTS
Info: REDUCING NUMBER OF PATCHES TO IMPROVE LOAD BALANCE
Info: REMOVING COM VELOCITY -0.00737954 0.0353076 -0.0331761
Info: Use 3D box decompostion in PME FFT.
Info: Updated CUDA force table with 4096 elements.
Info: Updated CUDA LJ table with 7 x 7 elements.
Info: Found 27 unique exclusion lists needing 84 bytes
TCL: Running for 1500000 steps
ETITLE: TS BOND ANGLE DIHED IMPRP ELECT VDW BOUNDARY MISC KINETIC TOTAL TEMP POTENTIAL TOTALAVG TEMPAVG PRESSURE GPRESSURE VOLUME PRESSAVG GPRESSAVG
ENERGY: 0 3.7061 10.5055 4.8593 0.0000 -10404.5093 1305.3359 0.0000 0.0000 1780.1685 -7299.9339 304.1839 -9080.1024 -7299.9339 304.1839 -971.4781 -893.5578 31044.1737 -971.4781 -893.5578
ENERGY: 300000 1.7985 6.9007 4.7843 0.0000 -10566.8659 1414.5703 0.0000 0.0000 1786.8727 -7351.9393 305.3295 -9138.8120 -7391.5947 302.6417 60.5732 166.9863 29816.1496 -177.9570 -114.4902
ENERGY: 600000 4.1171 12.2126 6.4421 0.0000 -10835.3038 1554.2370 0.0000 0.0000 1822.9485 -7435.3465 311.4939 -9258.2950 -7418.3611 302.4522 1204.8908 1268.1668 29311.5529 18.7731 80.0839
ENERGY: 900000 1.9506 7.2307 3.3961 0.0000 -10493.9889 1357.4959 0.0000 0.0000 1738.0958 -7385.8197 296.9948 -9123.9155 -7409.9217 302.1196 -342.8007 -233.5394 30374.7824 -73.2602 -8.4549
ENERGY: 1200000 3.8823 9.3880 4.0581 0.0000 -10659.3875 1461.4964 0.0000 0.0000 1709.8305 -7470.7323 292.1650 -9180.5629 -7420.0256 301.0141 164.4862 232.6237 29890.9925 50.1169 116.1163
ENERGY: 1500000 4.2850 9.7141 5.1769 0.0000 -10648.4292 1485.2757 0.0000 0.0000 1803.7528 -7340.2247 308.2138 -9143.9775 -7415.2300 301.7376 233.4532 315.9595 30148.4312 96.6891 155.7137
TCL: Running FEP window   2: Lambda1 0.05   Lambda2 0.1    [dLambda 0.05  ]
TCL: Setting parameter firsttimestep to 0
TCL: Setting parameter alchLambda to 0.05
Info: NONBONDED TABLE R-SQUARED SPACING: 0.0625
Info: NONBONDED TABLE SIZE: 705 POINTS
TCL: Setting parameter alchLambda2 to 0.1
Info: NONBONDED TABLE R-SQUARED SPACING: 0.0625
Info: NONBONDED TABLE SIZE: 705 POINTS
TCL: Running for 1500000 steps
ETITLE: TS BOND ANGLE DIHED IMPRP ELECT VDW BOUNDARY MISC KINETIC TOTAL TEMP POTENTIAL TOTALAVG TEMPAVG PRESSURE GPRESSURE VOLUME PRESSAVG GPRESSAVG
ENERGY: 0 4.2850 9.7141 5.1769 0.0000 -10648.4295 1489.0915 0.0000 0.0000 1802.8776 -7337.2844 308.0643 -9140.1620 -7337.2844 308.0643 244.6740 324.3953 30148.4312 244.6740 324.3953
ENERGY: 300000 2.2452 11.8571 4.0479 0.0000 -10592.2195 1361.4414 0.0000 0.0000 1789.5863 -7423.0415 305.7931 -9212.6279 -7433.5108 300.8947 -395.7263 -385.0601 29894.8404 -17.2251 32.6925
ENERGY: 600000 4.4195 9.8533 3.6313 0.0000 -10678.1573 1445.5579 0.0000 0.0000 1777.7047 -7436.9906 303.7629 -9214.6953 -7418.7954 302.9606 -76.4577 -68.1384 30115.2061 -54.2306 3.7039
ENERGY: 900000 2.1536 11.9321 5.3754 0.0000 -10568.7925 1353.2413 0.0000 0.0000 1739.0643 -7457.0258 297.1603 -9196.0900 -7431.1370 301.3968 -623.6990 -555.8540 30240.5256 -40.6711 28.0057
ENERGY: 1200000 3.7067 8.5429 4.9656 0.0000 -10686.3851 1490.5041 0.0000 0.0000 1813.7466 -7364.9192 309.9215 -9178.6658 -7423.7357 301.4794 217.9389 325.6826 30106.4437 -43.6518 29.0604
ENERGY: 1500000 2.1388 7.3778 4.4403 0.0000 -10646.8177 1462.9748 0.0000 0.0000 1727.2768 -7442.6092 295.1461 -9169.8861 -7427.5313 300.9591 65.0697 117.4234 30327.1497 -36.3219 37.0981
TCL: Running FEP window   3: Lambda1 0.1    Lambda2 0.15000000000000002 [dLambda 0.05000000000000002]
TCL: Setting parameter firsttimestep to 0
TCL: Setting parameter alchLambda to 0.1
Info: NONBONDED TABLE R-SQUARED SPACING: 0.0625
Info: NONBONDED TABLE SIZE: 705 POINTS
TCL: Setting parameter alchLambda2 to 0.15000000000000002
Info: NONBONDED TABLE R-SQUARED SPACING: 0.0625
Info: NONBONDED TABLE SIZE: 705 POINTS
TCL: Running for 1500000 steps
ETITLE: TS BOND ANGLE DIHED IMPRP ELECT VDW BOUNDARY MISC KINETIC TOTAL TEMP POTENTIAL TOTALAVG TEMPAVG PRESSURE GPRESSURE VOLUME PRESSAVG GPRESSAVG
ENERGY: 0 2.1388 7.3778 4.4403 0.0000 -10646.8200 1466.6763 0.0000 0.0000 1726.3667 -7439.8201 294.9906 -9166.1868 -7439.8201 294.9906 48.8934 133.1222 30327.1497 48.8934 133.1222
ENERGY: 300000 4.7404 13.9427 9.9580 0.0000 -10769.0011 1543.4872 0.0000 0.0000 1749.1614 -7447.7115 298.8856 -9196.8728 -7442.3525 298.7090 564.1058 677.6563 30286.9759 146.4272 214.2794
ENERGY: 600000 2.1715 12.6633 3.4750 0.0000 -10641.4208 1420.9887 0.0000 0.0000 1803.4836 -7398.6388 308.1678 -9202.1224 -7431.9702 300.5301 -203.8269 -181.1506 30089.7232 153.0982 213.5688
ENERGY: 900000 2.3362 15.5076 3.9686 0.0000 -10651.8888 1414.9469 0.0000 0.0000 1757.6715 -7457.4581 300.3397 -9215.1296 -7428.8676 301.3742 -266.9526 -215.7579 30395.9404 64.8008 120.1782
ENERGY: 1200000 4.6040 7.9359 3.6191 0.0000 -10775.9778 1416.6093 0.0000 0.0000 1824.8370 -7518.3724 311.8166 -9343.2094 -7438.8258 302.2088 -379.9251 -306.6136 29519.9854 27.5341 82.3335
ENERGY: 1500000 5.9831 11.4377 5.1371 0.0000 -10660.5844 1415.9269 0.0000 0.0000 1752.0678 -7470.0317 299.3822 -9222.0996 -7436.6324 302.5173 -432.5055 -371.7796 30245.8435 -54.6846 2.9304
TCL: Running FEP window   4: Lambda1 0.15000000000000002 Lambda2 0.2    [dLambda 0.04999999999999999]
TCL: Setting parameter firsttimestep to 0
TCL: Setting parameter alchLambda to 0.15000000000000002
Info: NONBONDED TABLE R-SQUARED SPACING: 0.0625
Info: NONBONDED TABLE SIZE: 705 POINTS
TCL: Setting parameter alchLambda2 to 0.2
Info: NONBONDED TABLE R-SQUARED SPACING: 0.0625
Info: NONBONDED TABLE SIZE: 705 POINTS
TCL: Running for 1500000 steps
ETITLE: TS BOND ANGLE DIHED IMPRP ELECT VDW BOUNDARY MISC KINETIC TOTAL TEMP POTENTIAL TOTALAVG TEMPAVG PRESSURE GPRESSURE VOLUME PRESSAVG GPRESSAVG
ENERGY: 0 5.9831 11.4377 5.1371 0.0000 -10660.5835 1417.1532 0.0000 0.0000 1751.1577 -7469.7147 299.2267 -9220.8724 -7469.7147 299.2267 -449.4058 -364.2071 30245.8435 -449.4058 -364.2071
ENERGY: 300000 1.4494 13.9671 8.5028 0.0000 -10630.4635 1444.2919 0.0000 0.0000 1763.6092 -7398.6432 301.3543 -9162.2524 -7448.9182 300.6171 172.9008 192.8048 30264.9969 21.2491 69.5225
ENERGY: 600000 5.4751 12.7299 5.1791 0.0000 -10775.3060 1538.1458 0.0000 0.0000 1810.3770 -7403.3991 309.3457 -9213.7761 -7430.0140 303.2587 547.9937 653.2615 30217.2887 130.3000 181.9470
ENERGY: 900000 3.3451 8.3599 4.4039 0.0000 -10639.1340 1407.5684 0.0000 0.0000 1749.9543 -7465.5024 299.0211 -9215.4567 -7442.0293 302.0002 -205.8014 -155.5507 29841.0648 -8.7619 47.2197
ENERGY: 1200000 4.5152 13.1007 5.3301 0.0000 -10656.5689 1452.2112 0.0000 0.0000 1829.2966 -7352.1149 312.5786 -9181.4115 -7432.6841 302.4285 361.9664 427.9156 29867.7908 106.2447 156.8002
ENERGY: 1500000 2.3325 8.0403 3.5098 0.0000 -10659.7009 1500.2511 0.0000 0.0000 1762.9645 -7382.6027 301.2442 -9145.5672 -7429.8516 302.2253 743.7276 712.2110 29901.2558 123.8640 173.5655
TCL: Running FEP window   5: Lambda1 0.2    Lambda2 0.25   [dLambda 0.04999999999999999]
TCL: Setting parameter firsttimestep to 0
TCL: Setting parameter alchLambda to 0.2
Info: NONBONDED TABLE R-SQUARED SPACING: 0.0625
Info: NONBONDED TABLE SIZE: 705 POINTS
TCL: Setting parameter alchLambda2 to 0.25
Info: NONBONDED TABLE R-SQUARED SPACING: 0.0625
Info: NONBONDED TABLE SIZE: 705 POINTS
TCL: Running for 1500000 steps
ETITLE: TS BOND ANGLE DIHED IMPRP ELECT VDW BOUNDARY MISC KINETIC TOTAL TEMP POTENTIAL TOTALAVG TEMPAVG PRESSURE GPRESSURE VOLUME PRESSAVG GPRESSAVG
ENERGY: 0 2.3325 8.0403 3.5098 0.0000 -10659.7011 1501.4774 0.0000 0.0000 1762.0659 -7382.2752 301.0906 -9144.3411 -7382.2752 301.0906 641.0524 719.9916 29901.2558 641.0524 719.9916
ENERGY: 300000 4.3761 9.1295 4.9174 0.0000 -10472.9508 1305.6804 0.0000 0.0000 1684.2187 -7464.6287 287.7886 -9148.8474 -7435.0860 297.4441 -1075.2114 -1032.3954 30388.0664 1.2178 67.5416
ENERGY: 600000 3.7060 11.5498 7.3229 0.0000 -10544.8432 1425.1909 0.0000 0.0000 1809.5998 -7287.4737 309.2129 -9097.0735 -7428.7370 299.1478 339.3490 402.7176 30173.3982 38.8032 90.9448
ENERGY: 900000 5.8742 7.0151 5.4195 0.0000 -10624.2742 1435.3030 0.0000 0.0000 1713.9542 -7456.7082 292.8696 -9170.6623 -7421.0365 299.3189 -230.7803 -194.5305 30279.3341 35.8534 93.3006
ENERGY: 1200000 2.0149 11.4971 4.6892 0.0000 -10452.4634 1293.1527 0.0000 0.0000 1704.1390 -7436.9706 291.1925 -9141.1096 -7424.3211 299.4487 -973.3959 -869.6393 30212.1486 24.4812 88.4583
ENERGY: 1500000 3.3125 8.9512 5.1267 0.0000 -10733.3218 1462.0101 0.0000 0.0000 1763.3361 -7490.5851 301.3077 -9253.9213 -7428.0254 300.0587 112.9182 163.5442 29729.2676 28.0905 94.8508
TCL: Running FEP window   6: Lambda1 0.25   Lambda2 0.3    [dLambda 0.04999999999999999]
TCL: Setting parameter firsttimestep to 0
TCL: Setting parameter alchLambda to 0.25
Info: NONBONDED TABLE R-SQUARED SPACING: 0.0625
Info: NONBONDED TABLE SIZE: 705 POINTS
TCL: Setting parameter alchLambda2 to 0.3
Info: NONBONDED TABLE R-SQUARED SPACING: 0.0625
Info: NONBONDED TABLE SIZE: 705 POINTS
TCL: Running for 1500000 steps
ETITLE: TS BOND ANGLE DIHED IMPRP ELECT VDW BOUNDARY MISC KINETIC TOTAL TEMP POTENTIAL TOTALAVG TEMPAVG PRESSURE GPRESSURE VOLUME PRESSAVG GPRESSAVG
ENERGY: 0 3.3125 8.9512 5.1267 0.0000 -10733.3228 1464.1394 0.0000 0.0000 1762.4295 -7489.3636 301.1528 -9251.7930 -7489.3636 301.1528 104.3603 179.8917 29729.2676 104.3603 179.8917
ENERGY: 300000 4.0183 8.6720 6.2512 0.0000 -10674.5682 1441.2136 0.0000 0.0000 1754.4102 -7460.0029 299.7825 -9214.4131 -7415.2919 302.0936 53.0275 159.7875 29941.2610 205.4073 276.4212
ENERGY: 600000 1.7436 9.5515 4.9453 0.0000 -10606.9249 1445.1198 0.0000 0.0000 1772.0515 -7373.5133 302.7969 -9145.5647 -7432.7663 299.4302 255.1412 357.3269 30063.0565 87.8954 167.1108
ENERGY: 900000 3.8462 9.3925 4.4720 0.0000 -10641.3206 1447.3745 0.0000 0.0000 1782.5099 -7393.7256 304.5840 -9176.2355 -7420.6136 299.8392 430.6878 426.2616 30038.6808 19.8295 94.2632
ENERGY: 1200000 2.4057 7.3501 3.8265 0.0000 -10706.6055 1488.2487 0.0000 0.0000 1777.6547 -7427.1198 303.7543 -9204.7745 -7422.2860 300.4733 544.1959 604.1121 29767.1108 73.7897 145.3280
ENERGY: 1500000 2.5044 8.3918 3.4272 0.0000 -10776.5284 1540.2956 0.0000 0.0000 1774.3834 -7447.5261 303.1954 -9221.9094 -7428.5082 300.7534 646.1903 762.6106 30265.6376 61.6183 135.2925
TCL: Running FEP window   7: Lambda1 0.3    Lambda2 0.35   [dLambda 0.04999999999999999]
TCL: Setting parameter firsttimestep to 0
TCL: Setting parameter alchLambda to 0.3
Info: NONBONDED TABLE R-SQUARED SPACING: 0.0625
Info: NONBONDED TABLE SIZE: 705 POINTS
TCL: Setting parameter alchLambda2 to 0.35
Info: NONBONDED TABLE R-SQUARED SPACING: 0.0625
Info: NONBONDED TABLE SIZE: 705 POINTS
TCL: Running for 1500000 steps
ETITLE: TS BOND ANGLE DIHED IMPRP ELECT VDW BOUNDARY MISC KINETIC TOTAL TEMP POTENTIAL TOTALAVG TEMPAVG PRESSURE GPRESSURE VOLUME PRESSAVG GPRESSAVG
ENERGY: 0 2.5044 8.3918 3.4272 0.0000 -10776.5290 1540.4730 0.0000 0.0000 1773.5442 -7448.1884 303.0520 -9221.7325 -7448.1884 303.0520 690.0751 767.9966 30265.6376 690.0751 767.9966
ENERGY: 300000 2.5544 11.2325 4.4379 0.0000 -10671.9937 1443.2462 0.0000 0.0000 1748.3088 -7462.2139 298.7399 -9210.5227 -7418.7601 299.3021 -88.0620 -41.0701 30069.2733 -221.0703 -164.1816
ENERGY: 600000 2.8357 12.2510 5.2050 0.0000 -10630.1410 1458.4545 0.0000 0.0000 1757.4338 -7393.9610 300.2991 -9151.3948 -7409.3790 298.9293 433.0894 467.9086 29873.9046 -144.4321 -76.6905
ENERGY: 900000 3.2324 10.7282 3.4208 0.0000 -10749.5758 1499.8400 0.0000 0.0000 1774.9208 -7457.4335 303.2872 -9232.3544 -7409.2778 298.9046 256.5742 270.8776 30520.2855 -28.4983 33.9011
ENERGY: 1200000 4.4531 9.7414 4.6286 0.0000 -10397.8518 1289.5705 0.0000 0.0000 1784.9520 -7304.5061 305.0013 -9089.4581 -7400.6080 299.6476 -823.0314 -766.3438 30111.5624 -39.1932 27.8069
ENERGY: 1500000 4.4520 9.3885 5.0942 0.0000 -10594.6636 1435.4591 0.0000 0.0000 1721.5792 -7418.6906 294.1725 -9140.2697 -7409.2097 299.5436 -162.0789 -74.8865 30330.7985 -25.9832 35.8814
TCL: Running FEP window   8: Lambda1 0.35   Lambda2 0.39999999999999997 [dLambda 0.04999999999999999]
TCL: Setting parameter firsttimestep to 0
TCL: Setting parameter alchLambda to 0.35
Info: NONBONDED TABLE R-SQUARED SPACING: 0.0625
Info: NONBONDED TABLE SIZE: 705 POINTS
TCL: Setting parameter alchLambda2 to 0.39999999999999997
Info: NONBONDED TABLE R-SQUARED SPACING: 0.0625
Info: NONBONDED TABLE SIZE: 705 POINTS
TCL: Running for 1500000 steps
ETITLE: TS BOND ANGLE DIHED IMPRP ELECT VDW BOUNDARY MISC KINETIC TOTAL TEMP POTENTIAL TOTALAVG TEMPAVG PRESSURE GPRESSURE VOLUME PRESSAVG GPRESSAVG
ENERGY: 0 4.4520 9.3885 5.0942 0.0000 -10594.6626 1435.8285 0.0000 0.0000 1720.6863 -7419.2129 294.0199 -9139.8992 -7419.2129 294.0199 -145.0838 -67.8407 30330.7985 -145.0838 -67.8407
ENERGY: 300000 5.2837 9.8098 3.9714 0.0000 -10567.0582 1380.1699 0.0000 0.0000 1848.0875 -7319.7359 315.7894 -9167.8234 -7404.4763 303.5076 -420.8976 -322.2678 30424.7661 -221.4247 -138.6186
ENERGY: 600000 10.0268 9.1151 4.7252 0.0000 -10571.5064 1439.3105 0.0000 0.0000 1745.8616 -7362.4672 298.3217 -9108.3287 -7418.6565 300.3092 300.2211 323.7257 30240.3450 -26.4326 38.5788
ENERGY: 900000 4.8205 10.8001 3.7626 0.0000 -10619.5440 1427.2298 0.0000 0.0000 1776.9737 -7395.9572 303.6380 -9172.9309 -7424.0452 300.1441 11.8577 93.0038 30279.4214 -66.8804 -0.0309
ENERGY: 1200000 2.9362 13.6453 4.5090 0.0000 -10579.3746 1449.7171 0.0000 0.0000 1727.2319 -7381.3351 295.1384 -9108.5670 -7427.0651 300.1736 175.4871 201.3634 30413.8642 -94.5576 -29.2471
ENERGY: 1500000 4.0087 13.0971 4.1078 0.0000 -10667.1099 1438.4915 0.0000 0.0000 1781.0923 -7426.3126 304.3417 -9207.4049 -7418.7438 301.5376 -100.9346 -76.0835 30317.1381 -138.7090 -78.6424
TCL: Running FEP window   9: Lambda1 0.39999999999999997 Lambda2 0.44999999999999996 [dLambda 0.04999999999999999]
TCL: Setting parameter firsttimestep to 0
TCL: Setting parameter alchLambda to 0.39999999999999997
Info: NONBONDED TABLE R-SQUARED SPACING: 0.0625
Info: NONBONDED TABLE SIZE: 705 POINTS
TCL: Setting parameter alchLambda2 to 0.44999999999999996
Info: NONBONDED TABLE R-SQUARED SPACING: 0.0625
Info: NONBONDED TABLE SIZE: 705 POINTS
TCL: Running for 1500000 steps
ETITLE: TS BOND ANGLE DIHED IMPRP ELECT VDW BOUNDARY MISC KINETIC TOTAL TEMP POTENTIAL TOTALAVG TEMPAVG PRESSURE GPRESSURE VOLUME PRESSAVG GPRESSAVG
ENERGY: 0 4.0087 13.0971 4.1078 0.0000 -10667.1100 1438.1133 0.0000 0.0000 1780.2257 -7427.5574 304.1937 -9207.7831 -7427.5574 304.1937 -150.3823 -73.1855 30317.1381 -150.3823 -73.1855
ENERGY: 300000 3.0478 11.6386 6.3363 0.0000 -10738.3730 1525.1863 0.0000 0.0000 1693.1105 -7499.0535 289.3080 -9192.1640 -7434.5162 297.7300 505.0904 615.2169 30454.2225 374.0044 431.7775
ENERGY: 600000 6.5504 9.1047 5.2721 0.0000 -10630.7917 1442.7816 0.0000 0.0000 1807.8958 -7359.1873 308.9217 -9167.0830 -7401.9062 299.5873 11.7716 81.9144 30140.6949 37.4677 87.2837
ENERGY: 900000 4.2240 8.2886 6.5845 0.0000 -10528.6175 1367.8482 0.0000 0.0000 1766.4852 -7375.1871 301.8458 -9141.6722 -7420.6747 300.1796 -190.9472 -177.6375 29875.4325 59.1591 112.1449
ENERGY: 1200000 3.6196 8.5349 5.0121 0.0000 -10608.6486 1481.2250 0.0000 0.0000 1757.9630 -7352.2940 300.3896 -9110.2570 -7423.0162 299.6247 234.6026 309.3037 30438.2182 39.7599 97.1199
ENERGY: 1500000 7.9194 9.3479 4.5769 0.0000 -10589.5496 1439.7358 0.0000 0.0000 1777.9796 -7349.9899 303.8099 -9127.9695 -7415.5196 300.3772 141.2118 200.4114 30535.7447 65.7130 123.1278
TCL: Running FEP window  10: Lambda1 0.44999999999999996 Lambda2 0.49999999999999994 [dLambda 0.04999999999999999]
TCL: Setting parameter firsttimestep to 0
TCL: Setting parameter alchLambda to 0.44999999999999996
Info: NONBONDED TABLE R-SQUARED SPACING: 0.0625
Info: NONBONDED TABLE SIZE: 705 POINTS
TCL: Setting parameter alchLambda2 to 0.49999999999999994
Info: NONBONDED TABLE R-SQUARED SPACING: 0.0625
Info: NONBONDED TABLE SIZE: 705 POINTS
TCL: Running for 1500000 steps
ETITLE: TS BOND ANGLE DIHED IMPRP ELECT VDW BOUNDARY MISC KINETIC TOTAL TEMP POTENTIAL TOTALAVG TEMPAVG PRESSURE GPRESSURE VOLUME PRESSAVG GPRESSAVG
ENERGY: 0 7.9194 9.3479 4.5769 0.0000 -10589.5500 1439.4938 0.0000 0.0000 1777.1172 -7351.0948 303.6625 -9128.2120 -7351.0948 303.6625 124.9028 203.7371 30535.7447 124.9028 203.7371
ENERGY: 300000 3.3218 9.3251 4.9060 0.0000 -10761.0824 1485.8325 0.0000 0.0000 1755.4899 -7502.2071 299.9670 -9257.6970 -7453.5979 301.1269 58.5390 86.8279 30193.6064 244.5553 277.5418
ENERGY: 600000 2.7863 12.6170 5.8225 0.0000 -10634.3505 1363.8905 0.0000 0.0000 1746.4894 -7502.7449 298.4290 -9249.2342 -7446.9584 301.9482 -658.4864 -627.0242 29929.6069 21.7588 66.9859
ENERGY: 900000 2.9211 15.9475 3.2947 0.0000 -10561.7692 1428.0273 0.0000 0.0000 1781.5710 -7330.0076 304.4235 -9111.5786 -7435.9787 301.8390 148.5483 271.1044 30541.7536 -71.3225 -24.6438
ENERGY: 1200000 5.5451 7.7245 4.6354 0.0000 -10498.7460 1355.7974 0.0000 0.0000 1716.6326 -7408.4110 293.3273 -9125.0436 -7438.4949 301.0230 -639.8410 -565.9797 30089.3386 -175.7774 -128.0813
ENERGY: 1500000 3.1491 8.8700 3.4634 0.0000 -10573.8944 1308.8311 0.0000 0.0000 1777.4105 -7472.1704 303.7126 -9249.5809 -7429.0095 301.4806 -1055.0507 -1042.7084 30637.0774 -252.4439 -207.1852
TCL: Running FEP window  11: Lambda1 0.49999999999999994 Lambda2 0.5499999999999999 [dLambda 0.04999999999999999]
TCL: Setting parameter firsttimestep to 0
TCL: Setting parameter alchLambda to 0.49999999999999994
Info: NONBONDED TABLE R-SQUARED SPACING: 0.0625
Info: NONBONDED TABLE SIZE: 705 POINTS
TCL: Setting parameter alchLambda2 to 0.5499999999999999
Info: NONBONDED TABLE R-SQUARED SPACING: 0.0625
Info: NONBONDED TABLE SIZE: 705 POINTS
TCL: Running for 1500000 steps
ETITLE: TS BOND ANGLE DIHED IMPRP ELECT VDW BOUNDARY MISC KINETIC TOTAL TEMP POTENTIAL TOTALAVG TEMPAVG PRESSURE GPRESSURE VOLUME PRESSAVG GPRESSAVG
ENERGY: 0 3.1491 8.8700 3.4634 0.0000 -10573.8932 1308.6733 0.0000 0.0000 1776.4976 -7473.2398 303.5566 -9249.7374 -7473.2398 303.5566 -1122.8602 -1035.8332 30637.0774 -1122.8602 -1035.8332
ENERGY: 300000 5.1907 10.3368 5.4285 0.0000 -10460.3556 1341.2943 0.0000 0.0000 1724.2965 -7373.8088 294.6368 -9098.1053 -7405.0058 301.0330 -706.0245 -626.2538 30701.0230 -689.8263 -629.5010
ENERGY: 600000 5.6996 12.5101 6.3586 0.0000 -10679.2011 1463.0181 0.0000 0.0000 1742.0829 -7449.5319 297.6761 -9191.6147 -7417.7544 300.7629 276.1140 326.4227 30266.2373 -374.7344 -328.8685
ENERGY: 900000 5.0461 10.7539 4.5591 0.0000 -10690.7188 1487.6664 0.0000 0.0000 1749.7884 -7432.9049 298.9927 -9182.6933 -7427.0895 299.5940 592.2341 623.2812 29875.7866 -225.3965 -182.9485
ENERGY: 1200000 1.9848 14.7844 4.9158 0.0000 -10642.8359 1404.6894 0.0000 0.0000 1717.2212 -7499.2403 293.4279 -9216.4615 -7429.6664 298.5545 -234.4341 -153.3356 30170.7893 -306.4800 -260.0789
ENERGY: 1500000 2.5022 9.3662 4.6008 0.0000 -10670.4783 1452.1913 0.0000 0.0000 1785.6397 -7416.1782 305.1188 -9201.8179 -7433.5346 298.6749 333.7961 393.0018 29749.1135 -209.0752 -160.7665
TCL: Running FEP window  12: Lambda1 0.5499999999999999 Lambda2 0.6    [dLambda 0.050000000000000044]
TCL: Setting parameter firsttimestep to 0
TCL: Setting parameter alchLambda to 0.5499999999999999
Info: NONBONDED TABLE R-SQUARED SPACING: 0.0625
Info: NONBONDED TABLE SIZE: 705 POINTS
TCL: Setting parameter alchLambda2 to 0.6
Info: NONBONDED TABLE R-SQUARED SPACING: 0.0625
Info: NONBONDED TABLE SIZE: 705 POINTS
TCL: Running for 1500000 steps
ETITLE: TS BOND ANGLE DIHED IMPRP ELECT VDW BOUNDARY MISC KINETIC TOTAL TEMP POTENTIAL TOTALAVG TEMPAVG PRESSURE GPRESSURE VOLUME PRESSAVG GPRESSAVG
ENERGY: 0 2.5022 9.3662 4.6008 0.0000 -10670.1867 1452.2657 0.0000 0.0000 1784.7779 -7416.6739 304.9715 -9201.4519 -7416.6739 304.9715 313.8366 400.9979 29749.1135 313.8366 400.9979
ENERGY: 300000 4.1675 12.6523 4.3741 0.0000 -10633.1770 1417.4255 0.0000 0.0000 1757.3864 -7437.1712 300.2910 -9194.5576 -7414.8201 301.8377 -195.3694 -168.3318 30388.5501 144.6085 224.7239
ENERGY: 600000 6.0906 17.2707 7.1316 0.0000 -10664.1557 1412.6196 0.0000 0.0000 1710.1550 -7510.8882 292.2204 -9221.0432 -7428.9542 299.1168 -321.3683 -152.2956 29899.5727 72.8244 170.4158
ENERGY: 900000 2.4483 16.1326 5.1490 0.0000 -10651.4088 1467.2467 0.0000 0.0000 1784.7079 -7375.7243 304.9596 -9160.4322 -7418.4667 300.9047 316.3633 294.3317 30401.4288 154.1721 237.0425
ENERGY: 1200000 6.3523 9.2283 5.3508 0.0000 -10546.1111 1423.5470 0.0000 0.0000 1741.6459 -7359.9868 297.6014 -9101.6327 -7415.9935 301.0263 131.0844 183.7866 30193.8039 177.7777 262.3915
ENERGY: 1500000 4.3283 9.5016 4.7763 0.0000 -10601.1443 1428.8869 0.0000 0.0000 1802.3491 -7351.3021 307.9740 -9153.6512 -7405.2596 300.9959 -162.1582 -77.1505 30461.9378 180.7458 264.5150
TCL: Running FEP window  13: Lambda1 0.6    Lambda2 0.65   [dLambda 0.050000000000000044]
TCL: Setting parameter firsttimestep to 0
TCL: Setting parameter alchLambda to 0.6
Info: NONBONDED TABLE R-SQUARED SPACING: 0.0625
Info: NONBONDED TABLE SIZE: 705 POINTS
TCL: Setting parameter alchLambda2 to 0.65
Info: NONBONDED TABLE R-SQUARED SPACING: 0.0625
Info: NONBONDED TABLE SIZE: 705 POINTS
TCL: Running for 1500000 steps
ETITLE: TS BOND ANGLE DIHED IMPRP ELECT VDW BOUNDARY MISC KINETIC TOTAL TEMP POTENTIAL TOTALAVG TEMPAVG PRESSURE GPRESSURE VOLUME PRESSAVG GPRESSAVG
ENERGY: 0 4.3283 9.5016 4.7763 0.0000 -10601.0607 1428.1211 0.0000 0.0000 1801.4684 -7352.8651 307.8235 -9154.3335 -7352.8651 307.8235 -167.6661 -76.8295 30461.9378 -167.6661 -76.8295
ENERGY: 300000 3.3378 7.2222 3.7467 0.0000 -10569.2645 1413.0665 0.0000 0.0000 1783.1058 -7358.7855 304.6858 -9141.8913 -7349.8164 305.8863 -171.3120 -158.3051 30642.2030 -117.9961 -62.3449
ENERGY: 600000 1.9800 11.5073 7.4096 0.0000 -10511.0078 1389.8603 0.0000 0.0000 1755.6452 -7344.6054 299.9935 -9100.2506 -7377.8777 303.3650 99.2041 155.5053 30081.7881 -2.0770 68.1643
ENERGY: 900000 3.3618 10.8925 5.1788 0.0000 -10468.6654 1403.3380 0.0000 0.0000 1696.0503 -7349.8440 289.8103 -9045.8943 -7382.2480 301.1912 -88.3048 14.6244 30567.4971 65.9910 143.8734
ENERGY: 1200000 7.1580 12.2259 5.0608 0.0000 -10640.7859 1390.0339 0.0000 0.0000 1787.4355 -7438.8718 305.4256 -9226.3073 -7389.0782 301.6251 -513.1944 -443.4408 30215.0539 27.3709 98.0353
ENERGY: 1500000 3.8436 10.2406 5.0873 0.0000 -10722.2001 1470.4143 0.0000 0.0000 1733.8627 -7498.7516 296.2714 -9232.6143 -7398.1718 301.2718 345.6382 391.7842 30089.5684 21.4152 84.7508
TCL: Running FEP window  14: Lambda1 0.65   Lambda2 0.7000000000000001 [dLambda 0.050000000000000044]
TCL: Setting parameter firsttimestep to 0
TCL: Setting parameter alchLambda to 0.65
Info: NONBONDED TABLE R-SQUARED SPACING: 0.0625
Info: NONBONDED TABLE SIZE: 705 POINTS
TCL: Setting parameter alchLambda2 to 0.7000000000000001
Info: NONBONDED TABLE R-SQUARED SPACING: 0.0625
Info: NONBONDED TABLE SIZE: 705 POINTS
TCL: Running for 1500000 steps
ETITLE: TS BOND ANGLE DIHED IMPRP ELECT VDW BOUNDARY MISC KINETIC TOTAL TEMP POTENTIAL TOTALAVG TEMPAVG PRESSURE GPRESSURE VOLUME PRESSAVG GPRESSAVG
ENERGY: 0 3.8436 10.2406 5.0873 0.0000 -10722.9629 1470.6442 0.0000 0.0000 1732.9858 -7500.1614 296.1216 -9233.1472 -7500.1614 296.1216 323.7099 405.6357 30089.5684 323.7099 405.6357
ENERGY: 300000 2.4337 8.6473 5.0550 0.0000 -10624.2589 1427.8709 0.0000 0.0000 1729.9746 -7450.2773 295.6071 -9180.2519 -7484.7195 297.9742 116.8892 136.9104 30183.9934 -149.8890 -73.4177
ENERGY: 600000 2.6508 10.5339 4.0471 0.0000 -10487.3906 1371.1436 0.0000 0.0000 1808.0832 -7290.9320 308.9538 -9099.0152 -7415.9427 301.6806 -327.9844 -294.2116 30685.2629 -106.3659 -50.9506
ENERGY: 900000 3.1238 9.1265 5.4826 0.0000 -10484.0436 1393.7249 0.0000 0.0000 1771.7712 -7300.8146 302.7490 -9072.5858 -7406.7762 302.2980 91.1173 180.0059 30387.6218 13.8233 77.0313
ENERGY: 1200000 1.6066 7.8647 4.8166 0.0000 -10568.8600 1319.9647 0.0000 0.0000 1770.5739 -7464.0335 302.5444 -9234.6074 -7425.2298 300.6871 -845.8877 -810.9156 30113.6089 -93.3965 -41.6525
ENERGY: 1500000 3.3913 9.9508 4.9432 0.0000 -10641.8909 1427.9238 0.0000 0.0000 1782.5268 -7413.1550 304.5869 -9195.6819 -7424.2021 300.6759 -157.4635 -49.3131 30198.2596 -82.6040 -24.7979
TCL: Running FEP window  15: Lambda1 0.7000000000000001 Lambda2 0.7500000000000001 [dLambda 0.050000000000000044]
TCL: Setting parameter firsttimestep to 0
TCL: Setting parameter alchLambda to 0.7000000000000001
Info: NONBONDED TABLE R-SQUARED SPACING: 0.0625
Info: NONBONDED TABLE SIZE: 705 POINTS
TCL: Setting parameter alchLambda2 to 0.7500000000000001
Info: NONBONDED TABLE R-SQUARED SPACING: 0.0625
Info: NONBONDED TABLE SIZE: 705 POINTS
TCL: Running for 1500000 steps
ETITLE: TS BOND ANGLE DIHED IMPRP ELECT VDW BOUNDARY MISC KINETIC TOTAL TEMP POTENTIAL TOTALAVG TEMPAVG PRESSURE GPRESSURE VOLUME PRESSAVG GPRESSAVG
ENERGY: 0 3.3913 9.9508 4.9432 0.0000 -10642.2702 1428.3394 0.0000 0.0000 1781.6743 -7413.9712 304.4412 -9195.6455 -7413.9712 304.4412 -126.1061 -32.3433 30198.2596 -126.1061 -32.3433
ENERGY: 300000 5.1104 8.2587 3.4717 0.0000 -10537.5166 1390.0784 0.0000 0.0000 1711.5424 -7419.0549 292.4575 -9130.5974 -7381.6465 302.1765 -324.0347 -279.1311 30540.3073 44.5940 112.9430
ENERGY: 600000 4.6809 14.4226 4.0115 0.0000 -10485.7831 1315.4444 0.0000 0.0000 1754.9264 -7392.2973 299.8707 -9147.2237 -7392.2080 301.7737 -763.9759 -667.2418 30291.5543 -74.7101 2.2663
ENERGY: 900000 3.1303 12.3647 3.8432 0.0000 -10671.6853 1416.5942 0.0000 0.0000 1798.9525 -7436.8004 307.3936 -9235.7529 -7410.3443 302.1347 -223.4070 -140.8943 30041.7964 -154.4735 -78.1186
ENERGY: 1200000 5.9400 7.1832 4.4645 0.0000 -10803.2126 1539.6694 0.0000 0.0000 1789.7249 -7456.2305 305.8168 -9245.9554 -7421.4456 301.2527 656.6921 714.3829 30043.9097 -75.3747 -5.0239
ENERGY: 1500000 1.8495 10.4288 3.3925 0.0000 -10515.7289 1344.7204 0.0000 0.0000 1715.4961 -7439.8416 293.1331 -9155.3377 -7418.4356 299.7096 -606.1141 -530.8857 30320.3154 -124.0034 -57.0656
TCL: Running FEP window  16: Lambda1 0.7500000000000001 Lambda2 0.8000000000000002 [dLambda 0.050000000000000044]
TCL: Setting parameter firsttimestep to 0
TCL: Setting parameter alchLambda to 0.7500000000000001
Info: NONBONDED TABLE R-SQUARED SPACING: 0.0625
Info: NONBONDED TABLE SIZE: 705 POINTS
TCL: Setting parameter alchLambda2 to 0.8000000000000002
Info: NONBONDED TABLE R-SQUARED SPACING: 0.0625
Info: NONBONDED TABLE SIZE: 705 POINTS
TCL: Running for 1500000 steps
ETITLE: TS BOND ANGLE DIHED IMPRP ELECT VDW BOUNDARY MISC KINETIC TOTAL TEMP POTENTIAL TOTALAVG TEMPAVG PRESSURE GPRESSURE VOLUME PRESSAVG GPRESSAVG
ENERGY: 0 1.8495 10.4288 3.3925 0.0000 -10516.2626 1344.8023 0.0000 0.0000 1714.6283 -7441.1611 292.9848 -9155.7894 -7441.1611 292.9848 -607.0585 -520.5739 30320.3154 -607.0585 -520.5739
ENERGY: 300000 1.7918 12.7791 5.9540 0.0000 -10750.9560 1474.7111 0.0000 0.0000 1784.3842 -7471.3357 304.9042 -9255.7199 -7409.8972 298.0492 379.5205 424.5390 29816.6251 250.8584 319.9453
ENERGY: 600000 3.4759 12.6846 5.3125 0.0000 -10420.6966 1327.2086 0.0000 0.0000 1773.1251 -7298.8899 302.9803 -9072.0150 -7390.8251 299.1090 -582.1191 -468.7143 30527.4691 -44.2201 30.5119
ENERGY: 900000 2.7390 12.1821 4.6134 0.0000 -10780.7211 1497.6736 0.0000 0.0000 1760.8828 -7502.6303 300.8885 -9263.5131 -7412.5206 298.8719 493.5264 512.1747 30281.0505 74.2623 138.6084
ENERGY: 1200000 1.9553 7.9197 5.3281 0.0000 -10548.2511 1372.5100 0.0000 0.0000 1787.6153 -7372.9228 305.4564 -9160.5381 -7420.7979 298.4311 -313.6715 -195.9502 30285.4136 85.2799 156.9260
ENERGY: 1500000 3.7573 9.8078 6.4210 0.0000 -10531.0566 1366.1456 0.0000 0.0000 1751.5857 -7393.3392 299.2998 -9144.9249 -7418.9924 298.4941 -300.8455 -327.0707 30225.8304 69.6740 132.4658
TCL: Running FEP window  17: Lambda1 0.8000000000000002 Lambda2 0.8500000000000002 [dLambda 0.050000000000000044]
TCL: Setting parameter firsttimestep to 0
TCL: Setting parameter alchLambda to 0.8000000000000002
Info: NONBONDED TABLE R-SQUARED SPACING: 0.0625
Info: NONBONDED TABLE SIZE: 705 POINTS
TCL: Setting parameter alchLambda2 to 0.8500000000000002
Info: NONBONDED TABLE R-SQUARED SPACING: 0.0625
Info: NONBONDED TABLE SIZE: 705 POINTS
TCL: Running for 1500000 steps
ETITLE: TS BOND ANGLE DIHED IMPRP ELECT VDW BOUNDARY MISC KINETIC TOTAL TEMP POTENTIAL TOTALAVG TEMPAVG PRESSURE GPRESSURE VOLUME PRESSAVG GPRESSAVG
ENERGY: 0 3.7573 9.8078 6.4210 0.0000 -10532.0900 1365.9166 0.0000 0.0000 1750.7065 -7395.4808 299.1496 -9146.1873 -7395.4808 299.1496 -398.7400 -321.1544 30225.8304 -398.7400 -321.1544
ENERGY: 300000 2.6652 11.1267 4.0890 0.0000 -10705.3490 1431.0409 0.0000 0.0000 1781.2611 -7475.1661 304.3706 -9256.4272 -7427.2284 302.4532 80.6987 103.6416 29997.8004 98.1955 130.2658
ENERGY: 600000 3.9051 10.5531 4.2764 0.0000 -10771.9909 1451.8742 0.0000 0.0000 1777.3573 -7524.0248 303.7035 -9301.3821 -7441.9601 303.8241 -51.7589 5.5317 29857.5914 163.4481 213.9063
ENERGY: 900000 1.6045 9.6005 5.9670 0.0000 -10661.8969 1431.1391 0.0000 0.0000 1734.3827 -7479.2031 296.3603 -9213.5858 -7441.1477 301.3036 179.3596 143.8729 30108.5712 104.6436 137.8268
ENERGY: 1200000 5.7453 11.4772 3.6377 0.0000 -10705.7424 1454.2438 0.0000 0.0000 1728.6881 -7501.9503 295.3872 -9230.6384 -7451.4397 301.5222 -185.6747 -34.0255 30356.8855 123.7595 173.3186
ENERGY: 1500000 2.5981 11.5066 4.6315 0.0000 -10823.7079 1505.2432 0.0000 0.0000 1746.8960 -7552.8326 298.4985 -9299.7286 -7450.8064 301.2782 282.6305 367.3598 30034.4780 148.6197 201.2816
TCL: Running FEP window  18: Lambda1 0.8500000000000002 Lambda2 0.9000000000000002 [dLambda 0.050000000000000044]
TCL: Setting parameter firsttimestep to 0
TCL: Setting parameter alchLambda to 0.8500000000000002
Info: NONBONDED TABLE R-SQUARED SPACING: 0.0625
Info: NONBONDED TABLE SIZE: 705 POINTS
TCL: Setting parameter alchLambda2 to 0.9000000000000002
Info: NONBONDED TABLE R-SQUARED SPACING: 0.0625
Info: NONBONDED TABLE SIZE: 705 POINTS
TCL: Running for 1500000 steps
ETITLE: TS BOND ANGLE DIHED IMPRP ELECT VDW BOUNDARY MISC KINETIC TOTAL TEMP POTENTIAL TOTALAVG TEMPAVG PRESSURE GPRESSURE VOLUME PRESSAVG GPRESSAVG
ENERGY: 0 2.5981 11.5066 4.6315 0.0000 -10824.6275 1506.5905 0.0000 0.0000 1745.9888 -7553.3120 298.3435 -9299.3008 -7553.3120 298.3435 318.4656 399.6636 30034.4780 318.4656 399.6636
ENERGY: 300000 1.8569 12.4141 3.4159 0.0000 -10625.9975 1459.4020 0.0000 0.0000 1711.5361 -7437.3725 292.4564 -9148.9086 -7473.6517 295.0773 298.7974 376.2852 30409.2472 162.3487 244.8312
ENERGY: 600000 5.3025 11.2717 4.5678 0.0000 -10631.6730 1445.4585 0.0000 0.0000 1765.1135 -7399.9589 301.6114 -9165.0724 -7462.5859 297.6421 143.8541 169.6019 30471.8327 38.3186 96.9637
ENERGY: 900000 4.5657 13.0165 3.6089 0.0000 -10702.2229 1499.7538 0.0000 0.0000 1757.0686 -7424.2095 300.2367 -9181.2781 -7458.5910 297.7064 893.7644 907.6025 29710.5672 38.8124 85.1052
ENERGY: 1200000 2.0382 9.7760 6.6471 0.0000 -10604.5453 1389.6455 0.0000 0.0000 1813.1281 -7383.3103 309.8158 -9196.4384 -7459.9142 298.1821 -447.1372 -353.5484 30729.0042 -107.3135 -54.0664
ENERGY: 1500000 4.0559 12.2365 5.5810 0.0000 -10658.5512 1452.6471 0.0000 0.0000 1797.6267 -7386.4040 307.1670 -9184.0307 -7454.9041 299.1955 34.1534 139.1788 30377.3583 -146.1502 -88.2201
TCL: Running FEP window  19: Lambda1 0.9000000000000002 Lambda2 0.9500000000000003 [dLambda 0.050000000000000044]
TCL: Setting parameter firsttimestep to 0
TCL: Setting parameter alchLambda to 0.9000000000000002
Info: NONBONDED TABLE R-SQUARED SPACING: 0.0625
Info: NONBONDED TABLE SIZE: 705 POINTS
TCL: Setting parameter alchLambda2 to 0.9500000000000003
Info: NONBONDED TABLE R-SQUARED SPACING: 0.0625
Info: NONBONDED TABLE SIZE: 705 POINTS
TCL: Running for 1500000 steps
ETITLE: TS BOND ANGLE DIHED IMPRP ELECT VDW BOUNDARY MISC KINETIC TOTAL TEMP POTENTIAL TOTALAVG TEMPAVG PRESSURE GPRESSURE VOLUME PRESSAVG GPRESSAVG
ENERGY: 0 4.0558 12.2366 5.5810 0.0000 -10659.0564 1453.1487 0.0000 0.0000 1796.7461 -7387.2883 307.0166 -9184.0344 -7387.2883 307.0166 81.2136 161.7297 30377.3583 81.2136 161.7297
ENERGY: 300000 1.5253 11.5787 3.7520 0.0000 -10663.0205 1441.5209 0.0000 0.0000 1737.9592 -7466.6845 296.9714 -9204.6437 -7398.6332 304.7670 267.8896 398.5986 29802.8831 18.0833 102.7461
ENERGY: 600000 3.0136 14.3127 5.1902 0.0000 -10683.4331 1530.2427 0.0000 0.0000 1771.2154 -7359.4585 302.6540 -9130.6739 -7395.8539 302.7200 1243.4094 1333.0368 29948.6330 80.6544 157.4918
ENERGY: 900000 6.2030 11.0125 3.6928 0.0000 -10730.2947 1516.6054 0.0000 0.0000 1722.6323 -7470.1488 294.3525 -9192.7811 -7404.7017 302.7671 613.6011 744.3574 30019.5834 197.9175 269.9891
ENERGY: 1200000 2.5879 14.4960 5.0605 0.0000 -10653.4885 1460.6188 0.0000 0.0000 1713.0417 -7457.6835 292.7137 -9170.7252 -7415.7436 301.5320 179.7732 175.1662 30456.1400 138.9890 205.6617
ENERGY: 1500000 3.4353 8.0630 5.8932 0.0000 -10796.7121 1575.3126 0.0000 0.0000 1762.7857 -7441.2223 301.2136 -9204.0080 -7419.5950 301.2719 965.6201 1016.4041 30368.5028 171.5210 234.3363
TCL: Running FEP window  20: Lambda1 0.9500000000000003 Lambda2 1.0    [dLambda 0.04999999999999971]
TCL: Setting parameter firsttimestep to 0
TCL: Setting parameter alchLambda to 0.9500000000000003
Info: NONBONDED TABLE R-SQUARED SPACING: 0.0625
Info: NONBONDED TABLE SIZE: 705 POINTS
TCL: Setting parameter alchLambda2 to 1.0
Info: NONBONDED TABLE R-SQUARED SPACING: 0.0625
Info: NONBONDED TABLE SIZE: 705 POINTS
TCL: Running for 1500000 steps
ETITLE: TS BOND ANGLE DIHED IMPRP ELECT VDW BOUNDARY MISC KINETIC TOTAL TEMP POTENTIAL TOTALAVG TEMPAVG PRESSURE GPRESSURE VOLUME PRESSAVG GPRESSAVG
ENERGY: 0 3.4353 8.0630 5.8932 0.0000 -10798.2637 1575.2847 0.0000 0.0000 1761.8938 -7443.6938 301.0612 -9205.5875 -7443.6938 301.0612 949.0285 1026.1047 30368.5028 949.0285 1026.1047
ENERGY: 300000 3.4959 10.7562 5.0362 0.0000 -10643.4650 1414.7280 0.0000 0.0000 1721.4969 -7487.9518 294.1585 -9209.4487 -7448.9625 298.2516 -33.3600 33.1984 30002.2354 17.5959 98.3745
ENERGY: 600000 3.2436 10.7971 4.6149 0.0000 -10783.4533 1554.5515 0.0000 0.0000 1823.3001 -7386.9461 311.5539 -9210.2462 -7437.6550 299.7892 855.4813 948.0854 30531.4104 109.5668 195.1243
ENERGY: 900000 3.7034 12.6122 4.0033 0.0000 -10644.5606 1433.3254 0.0000 0.0000 1735.2442 -7455.6720 296.5075 -9190.9162 -7427.5841 299.3205 6.8840 141.9804 30256.7428 -77.0129 7.2702
ENERGY: 1200000 1.7653 9.8828 5.6486 0.0000 -10581.5129 1367.7476 0.0000 0.0000 1715.2914 -7481.1773 293.0981 -9196.4687 -7438.0963 298.6118 -339.9156 -280.1946 30253.5185 -192.0033 -112.2115
ENERGY: 1500000 2.9190 10.4654 3.0909 0.0000 -10519.7421 1377.4306 0.0000 0.0000 1756.9513 -7368.8849 300.2167 -9125.8362 -7440.9187 298.3270 66.9613 109.9080 29967.9885 -71.1427 3.8833
TCL: Exiting due to exit command.
