Info: SIMULATION PARAMETERS:
Info: TIMESTEP               2
Info: NUMBER OF STEPS        0
Info: STEPS PER CYCLE        10
Info: PERIODIC CELL BASIS 1  32.3171 0 0
Info: PERIODIC CELL BASIS 2  0 30.2576 0
Info: PERIODIC CELL BASIS 3  0 0 31.5497
Info: PERIODIC CELL CENTER   0 0 0
Info: WRAPPING WATERS AROUND PERIODIC BOUNDARIES ON OUTPUT.
Info: WRAPPING ALL CLUSTERS AROUND PERIODIC BOUNDARIES ON OUTPUT.
Info: FIRST LDB TIMESTEP     50
Info: LAST LDB TIMESTEP     -1
Info: HOM BACKGROUND SCALING 1
Info: PME BACKGROUND SCALING 1
Info: MIN ATOMS PER PATCH    40
Info: EMPTY PATCH LOAD       40 ATOMS
Info: VELOCITY FILE          mobley_4553008_equil.vel
Info: CENTER OF MASS MOVING INITIALLY? NO
Info: DIELECTRIC             1
Info: EXCLUDE                SCALED ONE-FOUR
Info: 1-4 ELECTROSTATICS SCALED BY 0.833333
Info: MODIFIED 1-4 VDW PARAMETERS WILL BE USED
Info: DCD FILENAME           mobley_4553008_prod.dcd
Info: DCD FREQUENCY          100000
Info: DCD FIRST STEP         100000
Info: DCD FILE WILL CONTAIN UNIT CELL DATA
Info: XST FILENAME           mobley_4553008_prod.xst
Info: XST FREQUENCY          100000
Info: NO VELOCITY DCD OUTPUT
Info: NO FORCE DCD OUTPUT
Info: OUTPUT FILENAME        mobley_4553008_prod
Info: BINARY OUTPUT FILES WILL BE USED
Info: RESTART FILENAME       mobley_4553008_prod.restart
Info: RESTART FREQUENCY      100000
Info: BINARY RESTART FILES WILL BE USED
Info: CUTOFF                 9
Info: PAIRLIST DISTANCE      11
Info: PAIRLIST SHRINK RATE   0.01
Info: PAIRLIST GROW RATE     0.01
Info: PAIRLIST TRIGGER       0.3
Info: PAIRLISTS PER CYCLE    2
Info: PAIRLISTS ENABLED
Info: MARGIN                 2
Info: HYDROGEN GROUP CUTOFF  2.5
Info: PATCH DIMENSION        15.5
Info: ENERGY OUTPUT STEPS    100000
Info: ENERGY EVALUATION STEPS    100000
Info: OUTPUT ENERGY PRECISION 4
Info: CROSSTERM ENERGY INCLUDED IN DIHEDRAL
Info: TIMING OUTPUT STEPS    1000000
Info: PRESSURE OUTPUT STEPS  100000
Info: ALCHEMICAL FEP ON
Info: FEP CURRENT LAMBDA VALUE     0
Info: FEP COMPARISON LAMBDA VALUE  0.05
Info: FEP INTRA-ALCHEMICAL NON-BONDED INTERACTIONS WILL BE RETAINED
Info: FEP INTRA-ALCHEMICAL BONDED INTERACTIONS WILL BE RETAINED
Info: FEP VDW SHIFTING COEFFICIENT 5
Info: FEP ELEC. ACTIVE FOR ANNIHILATED PARTICLES BETWEEN LAMBDA = 0 AND LAMBDA = 0.5
Info: FEP ELEC. ACTIVE FOR EXNIHILATED PARTICLES BETWEEN LAMBDA = 0.5 AND LAMBDA = 1
Info: FEP VDW ACTIVE FOR ANNIHILATED PARTICLES BETWEEN LAMBDA = 0 AND LAMBDA = 1
Info: FEP VDW ACTIVE FOR EXNIHILATED PARTICLES BETWEEN LAMBDA = 0 AND LAMBDA = 1
Info: FEP BOND ACTIVE FOR ANNIHILATED PARTICLES BETWEEN LAMBDA = 1 AND LAMBDA = 1
Info: FEP BOND ACTIVE FOR EXNIHILATED PARTICLES BETWEEN LAMBDA = 0 AND LAMBDA = 0
Info: LANGEVIN DYNAMICS ACTIVE
Info: LANGEVIN TEMPERATURE   300
Info: LANGEVIN USING BBK INTEGRATOR
Info: LANGEVIN DAMPING COEFFICIENT IS 1 INVERSE PS
Info: LANGEVIN DYNAMICS APPLIED TO HYDROGENS
Info: LANGEVIN PISTON PRESSURE CONTROL ACTIVE
Info:        TARGET PRESSURE IS 1.01325 BAR
Info:     OSCILLATION PERIOD IS 50 FS
Info:             DECAY TIME IS 25 FS
Info:     PISTON TEMPERATURE IS 300 K
Info:       PRESSURE CONTROL IS GROUP-BASED
Info:    INITIAL STRAIN RATE IS 0.00068463 0.00068463 0.00068463
Info:       CELL FLUCTUATION IS ISOTROPIC
Info: PARTICLE MESH EWALD (PME) ACTIVE
Info: PME TOLERANCE               1e-06
Info: PME EWALD COEFFICIENT       0.348832
Info: PME INTERPOLATION ORDER     4
Info: PME GRID DIMENSIONS         36 32 32
Info: PME MAXIMUM GRID SPACING    1
Info: PME CALCULATION WILL BE PERFORMED ON GPU
Info: FULL ELECTROSTATIC EVALUATION FREQUENCY      2
Info: USING VERLET I (r-RESPA) MTS SCHEME.
Info: C1 SPLITTING OF LONG RANGE ELECTROSTATICS
Info: PLACING ATOMS IN PATCHES BY HYDROGEN GROUPS
Info: RIGID BONDS TO HYDROGEN : ALL
Info:         ERROR TOLERANCE : 1e-08
Info:          MAX ITERATIONS : 100
Info: RIGID WATER USING SETTLE ALGORITHM
Info: RANDOM NUMBER SEED     1743532076
Info: USE HYDROGEN BONDS?    NO
Info: Using AMBER format force field!
Info: AMBER PARM FILE        mobley_4553008.prmtop
Info: COORDINATE PDB         mobley_4553008.pdb
Info: Exclusions will be read from PARM file!
Info: SCNB (VDW SCALING)     2
Info: USING ARITHMETIC MEAN TO COMBINE L-J SIGMA PARAMETERS
Info: BINARY COORDINATES     mobley_4553008_equil.coor
Info: SUMMARY OF PARAMETERS:
Info: 5 BONDS
Info: 3 ANGLES
Info:   3 HARMONIC
Info:   0 COSINE-BASED
Info: 2 DIHEDRAL
Info: 0 IMPROPER
Info: 0 CROSSTERM
Info: 0 VDW
Info: 15 VDW_PAIRS
Info: 0 NBTHOLE_PAIRS
Info: To read alchdata from file: mobley_4553008.pdb
Info: To read alchflag data from column: 5
Info: STRUCTURE SUMMARY:
Info: 2979 ATOMS
Info: 2979 BONDS
Info: 18 ANGLES
Info: 30 DIHEDRALS
Info: 0 IMPROPERS
Info: 0 CROSSTERMS
Info: 3018 EXCLUSIONS
Info: 2971 RIGID BONDS
Info: ALCH: 0 ATOMS TO DISAPPEAR IN FINAL STATE
Info: ALCH: 12 ATOMS TO APPEAR IN FINAL STATE
Info: 5966 DEGREES OF FREEDOM
Info: 997 HYDROGEN GROUPS
Info: 3 ATOMS IN LARGEST HYDROGEN GROUP
Info: 997 MIGRATION GROUPS
Info: 3 ATOMS IN LARGEST MIGRATION GROUP
Info: TOTAL MASS = 17964.8 amu
Info: TOTAL CHARGE = 0.000300009 e
Info: MASS DENSITY = 0.966986 g/cm^3
Info: ATOM DENSITY = 0.0965625 atoms/A^3
Info: ADDED 0 IMPLICIT EXCLUSIONS
Info: NONBONDED TABLE R-SQUARED SPACING: 0.0625
Info: NONBONDED TABLE SIZE: 705 POINTS
Info: REMOVING COM VELOCITY 0.101979 -0.140578 0.00747208
Info: Use 3D box decompostion in PME FFT.
Info: Updated CUDA force table with 4096 elements.
Info: Updated CUDA LJ table with 5 x 5 elements.
Info: Found 14 unique exclusion lists needing 24 bytes
TCL: Running for 1500000 steps
ETITLE: TS BOND ANGLE DIHED IMPRP ELECT VDW BOUNDARY MISC KINETIC TOTAL TEMP POTENTIAL TOTALAVG TEMPAVG PRESSURE GPRESSURE VOLUME PRESSAVG GPRESSAVG
ENERGY: 0 5.5825 1.8574 2.2648 0.0000 -10802.9473 1434.3251 0.0000 0.0000 1785.9695 -7572.9480 301.2875 -9358.9175 -7572.9480 301.2875 -480.5668 -395.4097 30850.4842 -480.5668 -395.4097
ENERGY: 300000 1.1268 1.8365 1.6177 0.0000 -10742.0577 1436.9708 0.0000 0.0000 1804.9354 -7495.5706 304.4870 -9300.5060 -7554.1273 302.3781 35.3238 58.0399 30360.1103 -69.3919 -0.5068
ENERGY: 600000 3.3162 2.8922 0.9909 0.0000 -10871.5365 1462.2784 0.0000 0.0000 1720.1930 -7681.8660 290.1912 -9402.0589 -7556.6361 302.3042 -256.5535 -179.3316 30786.0189 66.5909 135.4032
ENERGY: 900000 3.1555 5.1916 3.7133 0.0000 -10791.0139 1479.1729 0.0000 0.0000 1805.3413 -7494.4394 304.5555 -9299.7807 -7546.9352 302.4420 -131.9603 -37.8690 31016.3343 -21.5255 45.8141
ENERGY: 1200000 2.2810 2.9340 2.6677 0.0000 -10785.6422 1499.6299 0.0000 0.0000 1771.2030 -7506.9266 298.7965 -9278.1296 -7540.1411 301.7184 385.1615 502.8695 30491.5358 -83.9813 -12.7804
ENERGY: 1500000 3.0250 4.0260 1.5723 0.0000 -10842.3610 1485.5750 0.0000 0.0000 1815.4982 -7532.6644 306.2689 -9348.1626 -7550.4268 300.7228 401.2871 396.1033 30284.4045 -34.7714 34.1753
TCL: Running FEP window   2: Lambda1 0.05   Lambda2 0.1    [dLambda 0.05  ]
TCL: Setting parameter firsttimestep to 0
TCL: Setting parameter alchLambda to 0.05
Info: NONBONDED TABLE R-SQUARED SPACING: 0.0625
Info: NONBONDED TABLE SIZE: 705 POINTS
TCL: Setting parameter alchLambda2 to 0.1
Info: NONBONDED TABLE R-SQUARED SPACING: 0.0625
Info: NONBONDED TABLE SIZE: 705 POINTS
TCL: Running for 1500000 steps
ETITLE: TS BOND ANGLE DIHED IMPRP ELECT VDW BOUNDARY MISC KINETIC TOTAL TEMP POTENTIAL TOTALAVG TEMPAVG PRESSURE GPRESSURE VOLUME PRESSAVG GPRESSAVG
ENERGY: 0 3.0250 4.0261 1.5724 0.0000 -10842.3630 1490.0040 0.0000 0.0000 1814.5835 -7529.1522 306.1146 -9343.7357 -7529.1522 306.1146 339.8787 406.4486 30284.4045 339.8787 406.4486
ENERGY: 300000 3.3262 2.6967 3.5917 0.0000 -10779.0606 1411.1118 0.0000 0.0000 1817.3389 -7540.9953 306.5795 -9358.3342 -7527.1560 303.6147 -439.8055 -301.4482 30609.7259 -21.6581 44.7312
ENERGY: 600000 2.5462 5.2911 1.0104 0.0000 -10917.4611 1482.0277 0.0000 0.0000 1764.9164 -7661.6693 297.7360 -9426.5857 -7578.0384 301.4291 124.1438 65.6314 30180.2251 -139.3279 -101.0318
ENERGY: 900000 1.1489 2.0132 5.9585 0.0000 -10766.5946 1421.7899 0.0000 0.0000 1835.1940 -7500.4900 309.5916 -9335.6840 -7560.0368 303.2890 -231.0357 -178.8846 30526.1591 -192.4611 -141.8367
ENERGY: 1200000 3.4142 2.2525 2.4326 0.0000 -10768.8699 1431.1152 0.0000 0.0000 1766.0425 -7563.6130 297.9259 -9329.6555 -7553.5110 303.0089 -216.5428 -174.7966 30367.7370 -124.5236 -71.9590
ENERGY: 1500000 2.2770 0.7353 2.4491 0.0000 -10840.5586 1456.8763 0.0000 0.0000 1742.7546 -7635.4663 293.9973 -9378.2209 -7562.8264 301.3243 -344.8890 -217.1941 30801.8062 -171.8994 -114.9669
TCL: Running FEP window   3: Lambda1 0.1    Lambda2 0.15000000000000002 [dLambda 0.05000000000000002]
TCL: Setting parameter firsttimestep to 0
TCL: Setting parameter alchLambda to 0.1
Info: NONBONDED TABLE R-SQUARED SPACING: 0.0625
Info: NONBONDED TABLE SIZE: 705 POINTS
TCL: Setting parameter alchLambda2 to 0.15000000000000002
Info: NONBONDED TABLE R-SQUARED SPACING: 0.0625
Info: NONBONDED TABLE SIZE: 705 POINTS
TCL: Running for 1500000 steps
ETITLE: TS BOND ANGLE DIHED IMPRP ELECT VDW BOUNDARY MISC KINETIC TOTAL TEMP POTENTIAL TOTALAVG TEMPAVG PRESSURE GPRESSURE VOLUME PRESSAVG GPRESSAVG
ENERGY: 0 2.2770 0.7353 2.4491 0.0000 -10840.5586 1457.0145 0.0000 0.0000 1741.8515 -7636.2311 293.8450 -9378.0826 -7636.2311 293.8450 -311.3910 -211.7655 30801.8062 -311.3910 -211.7655
ENERGY: 300000 4.3976 1.5033 3.2089 0.0000 -10881.6668 1533.5769 0.0000 0.0000 1738.1518 -7600.8283 293.2208 -9338.9801 -7585.5263 299.0518 561.4881 589.5466 30574.3322 -114.3482 -61.0334
ENERGY: 600000 2.6102 6.1521 2.4690 0.0000 -10740.8260 1403.0277 0.0000 0.0000 1823.4956 -7503.0715 307.6181 -9326.5671 -7563.2706 300.6192 -469.4632 -380.3138 30660.8779 -303.6452 -245.4624
ENERGY: 900000 1.5321 2.8650 2.0920 0.0000 -10784.2831 1459.4453 0.0000 0.0000 1707.3583 -7610.9904 288.0261 -9318.3486 -7562.5275 299.8461 46.7181 70.1753 30463.4722 -176.1237 -123.1359
ENERGY: 1200000 2.6042 7.8724 2.1754 0.0000 -10755.7019 1388.7694 0.0000 0.0000 1749.2211 -7605.0594 295.0882 -9354.2805 -7568.7321 299.7344 -417.2230 -414.6147 30581.5883 -184.6377 -136.2034
ENERGY: 1500000 3.5421 3.3741 1.6303 0.0000 -10813.3971 1488.2523 0.0000 0.0000 1723.1872 -7593.4111 290.6964 -9316.5983 -7577.5776 298.3578 199.4861 296.2485 30765.9399 -157.9586 -100.6702
TCL: Running FEP window   4: Lambda1 0.15000000000000002 Lambda2 0.2    [dLambda 0.04999999999999999]
TCL: Setting parameter firsttimestep to 0
TCL: Setting parameter alchLambda to 0.15000000000000002
Info: NONBONDED TABLE R-SQUARED SPACING: 0.0625
Info: NONBONDED TABLE SIZE: 705 POINTS
TCL: Setting parameter alchLambda2 to 0.2
Info: NONBONDED TABLE R-SQUARED SPACING: 0.0625
Info: NONBONDED TABLE SIZE: 705 POINTS
TCL: Running for 1500000 steps
ETITLE: TS BOND ANGLE DIHED IMPRP ELECT VDW BOUNDARY MISC KINETIC TOTAL TEMP POTENTIAL TOTALAVG TEMPAVG PRESSURE GPRESSURE VOLUME PRESSAVG GPRESSAVG
ENERGY: 0 3.5421 3.3741 1.6303 0.0000 -10813.3959 1488.2907 0.0000 0.0000 1722.3226 -7594.2362 290.5505 -9316.5588 -7594.2362 290.5505 211.3157 298.9942 30765.9399 211.3157 298.9942
ENERGY: 300000 2.2047 1.4920 2.6054 0.0000 -10965.3182 1621.6341 0.0000 0.0000 1794.0550 -7543.3270 302.6515 -9337.3820 -7601.0182 299.2573 1405.6554 1515.5251 30340.0690 464.9829 561.3406
ENERGY: 600000 2.4668 3.3454 1.9364 0.0000 -10855.5152 1454.9219 0.0000 0.0000 1718.2342 -7674.6105 289.8608 -9392.8448 -7598.9053 299.7337 -187.6805 -126.5295 30471.7183 216.4259 298.7755
ENERGY: 900000 4.1899 1.8775 0.5821 0.0000 -10736.2564 1338.2281 0.0000 0.0000 1826.6159 -7564.7629 308.1445 -9391.3789 -7586.7363 300.4058 -1298.5602 -1249.1301 31067.6433 24.8212 107.2005
ENERGY: 1200000 2.7611 1.8636 4.6168 0.0000 -10787.7202 1455.8817 0.0000 0.0000 1810.6349 -7511.9621 305.4485 -9322.5970 -7576.6980 301.3552 -32.2289 -51.6395 31205.0032 106.5277 182.1065
ENERGY: 1500000 4.1626 3.4046 2.7313 0.0000 -10816.6359 1427.3884 0.0000 0.0000 1783.5125 -7595.4364 300.8731 -9378.9490 -7572.7538 300.8906 -391.9996 -268.0372 30618.7195 80.7920 154.6282
TCL: Running FEP window   5: Lambda1 0.2    Lambda2 0.25   [dLambda 0.04999999999999999]
TCL: Setting parameter firsttimestep to 0
TCL: Setting parameter alchLambda to 0.2
Info: NONBONDED TABLE R-SQUARED SPACING: 0.0625
Info: NONBONDED TABLE SIZE: 705 POINTS
TCL: Setting parameter alchLambda2 to 0.25
Info: NONBONDED TABLE R-SQUARED SPACING: 0.0625
Info: NONBONDED TABLE SIZE: 705 POINTS
TCL: Running for 1500000 steps
ETITLE: TS BOND ANGLE DIHED IMPRP ELECT VDW BOUNDARY MISC KINETIC TOTAL TEMP POTENTIAL TOTALAVG TEMPAVG PRESSURE GPRESSURE VOLUME PRESSAVG GPRESSAVG
ENERGY: 0 4.1626 3.4046 2.7313 0.0000 -10816.6360 1427.2821 0.0000 0.0000 1782.6006 -7596.4546 300.7192 -9379.0553 -7596.4546 300.7192 -350.3711 -264.2067 30618.7195 -350.3711 -264.2067
ENERGY: 300000 2.7524 3.3467 2.1392 0.0000 -10873.7907 1487.3634 0.0000 0.0000 1747.7612 -7630.4277 294.8419 -9378.1890 -7602.0056 300.4605 -15.8671 22.1326 30581.3488 -293.4501 -207.9027
ENERGY: 600000 0.6277 1.4023 1.9624 0.0000 -10821.5951 1432.7165 0.0000 0.0000 1763.7311 -7621.1550 297.5360 -9384.8861 -7606.7707 298.0266 -275.3063 -163.6438 30498.3707 -260.3927 -182.8719
ENERGY: 900000 0.7111 3.2557 2.6791 0.0000 -10716.2209 1443.7252 0.0000 0.0000 1706.1823 -7559.6676 287.8277 -9265.8499 -7591.4364 298.0564 -145.0799 -78.3875 31077.5134 -307.4015 -233.9950
ENERGY: 1200000 3.3888 2.0632 1.7228 0.0000 -10719.1930 1459.9536 0.0000 0.0000 1854.6677 -7397.3968 312.8767 -9252.0645 -7568.8054 299.6844 225.7431 341.0876 30714.5852 -293.4779 -227.1661
ENERGY: 1500000 4.0880 0.7880 2.6166 0.0000 -10864.3152 1507.8261 0.0000 0.0000 1803.4384 -7545.5581 304.2345 -9348.9965 -7563.2221 300.2109 410.6452 483.3094 30305.0419 -195.0257 -122.9751
TCL: Running FEP window   6: Lambda1 0.25   Lambda2 0.3    [dLambda 0.04999999999999999]
TCL: Setting parameter firsttimestep to 0
TCL: Setting parameter alchLambda to 0.25
Info: NONBONDED TABLE R-SQUARED SPACING: 0.0625
Info: NONBONDED TABLE SIZE: 705 POINTS
TCL: Setting parameter alchLambda2 to 0.3
Info: NONBONDED TABLE R-SQUARED SPACING: 0.0625
Info: NONBONDED TABLE SIZE: 705 POINTS
TCL: Running for 1500000 steps
ETITLE: TS BOND ANGLE DIHED IMPRP ELECT VDW BOUNDARY MISC KINETIC TOTAL TEMP POTENTIAL TOTALAVG TEMPAVG PRESSURE GPRESSURE VOLUME PRESSAVG GPRESSAVG
ENERGY: 0 4.0880 0.7880 2.6166 0.0000 -10864.3164 1508.9804 0.0000 0.0000 1802.5443 -7545.2990 304.0837 -9347.8433 -7545.2990 304.0837 409.7744 493.5661 30305.0419 409.7744 493.5661
ENERGY: 300000 3.3071 1.7094 1.8298 0.0000 -10853.3333 1535.8817 0.0000 0.0000 1777.0798 -7533.5255 299.7879 -9310.6053 -7590.3754 295.5515 642.7343 685.1152 30732.9344 276.0314 339.3590
ENERGY: 600000 1.5152 1.3672 2.7338 0.0000 -10747.8263 1435.9288 0.0000 0.0000 1695.4090 -7610.8722 286.0103 -9306.2813 -7582.3059 295.5776 -93.1431 -56.6700 30754.9005 185.0155 224.3914
ENERGY: 900000 0.7027 3.2421 2.9880 0.0000 -10763.8108 1446.7172 0.0000 0.0000 1789.9872 -7520.1736 301.9653 -9310.1607 -7564.8622 297.3261 4.5348 15.2317 31036.9211 -45.5504 -6.4332
ENERGY: 1200000 5.0966 2.0207 3.8814 0.0000 -10738.1208 1431.1424 0.0000 0.0000 1832.6519 -7463.3278 309.1627 -9295.9797 -7554.8244 299.1819 -135.7772 -88.9968 30810.9992 -65.4308 -23.5191
ENERGY: 1500000 1.6782 0.7708 3.1817 0.0000 -10911.4628 1564.1505 0.0000 0.0000 1818.8439 -7522.8377 306.8333 -9341.6815 -7554.3532 299.4636 917.1883 893.8224 30535.5604 56.4436 101.3014
TCL: Running FEP window   7: Lambda1 0.3    Lambda2 0.35   [dLambda 0.04999999999999999]
TCL: Setting parameter firsttimestep to 0
TCL: Setting parameter alchLambda to 0.3
Info: NONBONDED TABLE R-SQUARED SPACING: 0.0625
Info: NONBONDED TABLE SIZE: 705 POINTS
TCL: Setting parameter alchLambda2 to 0.35
Info: NONBONDED TABLE R-SQUARED SPACING: 0.0625
Info: NONBONDED TABLE SIZE: 705 POINTS
TCL: Running for 1500000 steps
ETITLE: TS BOND ANGLE DIHED IMPRP ELECT VDW BOUNDARY MISC KINETIC TOTAL TEMP POTENTIAL TOTALAVG TEMPAVG PRESSURE GPRESSURE VOLUME PRESSAVG GPRESSAVG
ENERGY: 0 1.6782 0.7708 3.1817 0.0000 -10911.4623 1563.7589 0.0000 0.0000 1817.9356 -7524.1370 306.6801 -9342.0726 -7524.1370 306.6801 829.6916 898.3143 30535.5604 829.6916 898.3143
ENERGY: 300000 2.3089 2.3137 0.7715 0.0000 -10925.4454 1530.8039 0.0000 0.0000 1735.0488 -7654.1986 292.6974 -9389.2474 -7541.8281 301.9287 283.5239 363.8601 30752.4073 -119.7051 -54.1929
ENERGY: 600000 3.0310 0.8321 1.4772 0.0000 -10818.2866 1428.7141 0.0000 0.0000 1753.5659 -7630.6664 295.8212 -9384.2324 -7560.8805 300.1729 -128.5512 -131.7459 30230.9837 -148.2641 -100.9457
ENERGY: 900000 1.3808 3.7857 5.5510 0.0000 -10675.1758 1399.2978 0.0000 0.0000 1811.6277 -7453.5329 305.6160 -9265.1605 -7537.1015 300.2785 -249.4318 -140.8482 30613.3567 -95.3055 -31.5074
ENERGY: 1200000 1.8416 1.1106 1.4829 0.0000 -10832.3890 1433.2634 0.0000 0.0000 1775.9004 -7618.7901 299.5889 -9394.6904 -7552.3452 300.0568 -247.8743 -216.1011 30601.9951 -17.4629 44.3085
ENERGY: 1500000 2.6484 2.1739 1.3560 0.0000 -10886.6359 1465.3192 0.0000 0.0000 1772.8319 -7642.3064 299.0713 -9415.1383 -7553.5082 300.6079 36.6253 125.0983 29925.3229 -35.6116 26.8970
TCL: Running FEP window   8: Lambda1 0.35   Lambda2 0.39999999999999997 [dLambda 0.04999999999999999]
TCL: Setting parameter firsttimestep to 0
TCL: Setting parameter alchLambda to 0.35
Info: NONBONDED TABLE R-SQUARED SPACING: 0.0625
Info: NONBONDED TABLE SIZE: 705 POINTS
TCL: Setting parameter alchLambda2 to 0.39999999999999997
Info: NONBONDED TABLE R-SQUARED SPACING: 0.0625
Info: NONBONDED TABLE SIZE: 705 POINTS
TCL: Running for 1500000 steps
ETITLE: TS BOND ANGLE DIHED IMPRP ELECT VDW BOUNDARY MISC KINETIC TOTAL TEMP POTENTIAL TOTALAVG TEMPAVG PRESSURE GPRESSURE VOLUME PRESSAVG GPRESSAVG
ENERGY: 0 2.6484 2.1739 1.3560 0.0000 -10886.6356 1465.2618 0.0000 0.0000 1771.9024 -7643.2930 298.9145 -9415.1954 -7643.2930 298.9145 54.3725 129.3815 29925.3229 54.3725 129.3815
ENERGY: 300000 3.7544 2.6486 2.1194 0.0000 -10897.9902 1475.6285 0.0000 0.0000 1773.7723 -7640.0669 299.2299 -9413.8392 -7591.7691 301.3583 -66.1076 -1.4356 30370.5107 -29.1423 47.6304
ENERGY: 600000 2.2608 2.5050 1.9433 0.0000 -10801.7537 1483.5551 0.0000 0.0000 1741.8177 -7569.6718 293.8393 -9311.4895 -7556.2187 301.4106 396.2735 477.0558 30362.8491 66.3510 146.4387
ENERGY: 900000 1.6053 3.7493 3.0180 0.0000 -10557.6454 1346.8552 0.0000 0.0000 1807.9446 -7394.4729 304.9947 -9202.4176 -7537.3337 301.7204 -738.3934 -661.6693 31369.4590 -46.7875 24.3653
ENERGY: 1200000 4.9710 2.6163 2.9537 0.0000 -10762.7013 1467.3052 0.0000 0.0000 1745.9076 -7538.9475 294.5292 -9284.8551 -7551.0414 301.1836 -53.6263 0.3770 30984.3278 -67.9230 -6.0426
ENERGY: 1500000 3.7473 3.8423 2.9119 0.0000 -10840.5989 1490.7853 0.0000 0.0000 1741.7498 -7597.5623 293.8278 -9339.3121 -7550.9205 300.5771 160.8663 208.4104 30680.2706 -126.5661 -66.3268
TCL: Running FEP window   9: Lambda1 0.39999999999999997 Lambda2 0.44999999999999996 [dLambda 0.04999999999999999]
TCL: Setting parameter firsttimestep to 0
TCL: Setting parameter alchLambda to 0.39999999999999997
Info: NONBONDED TABLE R-SQUARED SPACING: 0.0625
Info: NONBONDED TABLE SIZE: 705 POINTS
TCL: Setting parameter alchLambda2 to 0.44999999999999996
Info: NONBONDED TABLE R-SQUARED SPACING: 0.0625
Info: NONBONDED TABLE SIZE: 705 POINTS
TCL: Running for 1500000 steps
ETITLE: TS BOND ANGLE DIHED IMPRP ELECT VDW BOUNDARY MISC KINETIC TOTAL TEMP POTENTIAL TOTALAVG TEMPAVG PRESSURE GPRESSURE VOLUME PRESSAVG GPRESSAVG
ENERGY: 0 3.7473 3.8423 2.9120 0.0000 -10840.5962 1491.5823 0.0000 0.0000 1740.8598 -7597.6526 293.6777 -9338.5123 -7597.6526 293.6777 123.5046 219.4832 30680.2706 123.5046 219.4832
ENERGY: 300000 5.1373 2.2025 3.2517 0.0000 -10619.9890 1421.7573 0.0000 0.0000 1799.0033 -7388.6369 303.4863 -9187.6402 -7516.4412 300.3676 -18.9383 108.2724 30797.5011 171.5656 261.6966
ENERGY: 600000 2.1350 5.0473 2.0579 0.0000 -10867.1944 1533.3026 0.0000 0.0000 1819.9488 -7504.7029 307.0197 -9324.6517 -7520.4763 301.3964 559.0306 595.4709 30908.1761 45.1327 115.9464
ENERGY: 900000 1.3203 3.2061 1.7136 0.0000 -10742.9708 1386.3698 0.0000 0.0000 1772.2701 -7578.0909 298.9765 -9350.3610 -7544.8248 299.2538 -592.4278 -530.1403 30880.5082 -8.1741 62.3021
ENERGY: 1200000 4.0169 0.7200 3.7696 0.0000 -10684.5827 1416.5465 0.0000 0.0000 1750.0400 -7509.4896 295.2263 -9259.5296 -7547.8506 298.0238 -596.8677 -522.7868 31485.1905 -35.9785 32.1478
ENERGY: 1500000 1.9594 0.8295 0.8857 0.0000 -10841.7088 1518.2615 0.0000 0.0000 1737.5392 -7582.2336 293.1175 -9319.7728 -7561.3388 297.9071 496.8663 523.6799 30533.9165 22.5324 85.7418
TCL: Running FEP window  10: Lambda1 0.44999999999999996 Lambda2 0.49999999999999994 [dLambda 0.04999999999999999]
TCL: Setting parameter firsttimestep to 0
TCL: Setting parameter alchLambda to 0.44999999999999996
Info: NONBONDED TABLE R-SQUARED SPACING: 0.0625
Info: NONBONDED TABLE SIZE: 705 POINTS
TCL: Setting parameter alchLambda2 to 0.49999999999999994
Info: NONBONDED TABLE R-SQUARED SPACING: 0.0625
Info: NONBONDED TABLE SIZE: 705 POINTS
TCL: Running for 1500000 steps
ETITLE: TS BOND ANGLE DIHED IMPRP ELECT VDW BOUNDARY MISC KINETIC TOTAL TEMP POTENTIAL TOTALAVG TEMPAVG PRESSURE GPRESSURE VOLUME PRESSAVG GPRESSAVG
ENERGY: 0 1.9594 0.8295 0.8857 0.0000 -10841.7080 1518.9708 0.0000 0.0000 1736.6377 -7582.4249 292.9654 -9319.0626 -7582.4249 292.9654 462.1509 533.0555 30533.9165 462.1509 533.0555
ENERGY: 300000 2.4961 2.6806 3.4455 0.0000 -10724.3753 1410.7993 0.0000 0.0000 1743.2675 -7561.6863 294.0838 -9304.9537 -7576.7796 293.1406 -331.3274 -268.3210 30665.7472 -297.0460 -238.2365
ENERGY: 600000 1.3192 2.4102 3.4517 0.0000 -10786.6643 1396.4288 0.0000 0.0000 1753.0168 -7630.0375 295.7285 -9383.0543 -7575.3332 294.3679 -559.6301 -520.6662 30546.0053 -242.7560 -197.1153
ENERGY: 900000 1.9662 1.4531 3.9447 0.0000 -10731.0737 1385.9496 0.0000 0.0000 1753.8576 -7583.9025 295.8704 -9337.7601 -7580.9672 294.7232 -510.0869 -389.0604 30474.9935 -321.8886 -260.5766
ENERGY: 1200000 3.5305 4.8884 2.5105 0.0000 -10820.3358 1430.7168 0.0000 0.0000 1810.0452 -7568.6443 305.3490 -9378.6895 -7579.0159 295.7685 -176.1706 -73.3736 30662.4011 -343.8106 -277.0080
ENERGY: 1500000 1.1978 5.5073 2.0877 0.0000 -10719.6777 1410.5780 0.0000 0.0000 1762.8369 -7537.4700 297.3851 -9300.3070 -7584.3183 296.0267 -298.1122 -213.9052 30797.0488 -328.4984 -260.5714
TCL: Running FEP window  11: Lambda1 0.49999999999999994 Lambda2 0.5499999999999999 [dLambda 0.04999999999999999]
TCL: Setting parameter firsttimestep to 0
TCL: Setting parameter alchLambda to 0.49999999999999994
Info: NONBONDED TABLE R-SQUARED SPACING: 0.0625
Info: NONBONDED TABLE SIZE: 705 POINTS
TCL: Setting parameter alchLambda2 to 0.5499999999999999
Info: NONBONDED TABLE R-SQUARED SPACING: 0.0625
Info: NONBONDED TABLE SIZE: 705 POINTS
TCL: Running for 1500000 steps
ETITLE: TS BOND ANGLE DIHED IMPRP ELECT VDW BOUNDARY MISC KINETIC TOTAL TEMP POTENTIAL TOTALAVG TEMPAVG PRESSURE GPRESSURE VOLUME PRESSAVG GPRESSAVG
ENERGY: 0 1.1978 5.5073 2.0877 0.0000 -10719.6785 1410.4203 0.0000 0.0000 1761.9651 -7538.5003 297.2381 -9300.4654 -7538.5003 297.2381 -289.4008 -209.5302 30797.0488 -289.4008 -209.5302
ENERGY: 300000 1.6560 4.5691 2.9920 0.0000 -10775.2976 1499.5612 0.0000 0.0000 1830.3959 -7436.1234 308.7821 -9266.5193 -7517.4919 302.7749 486.0045 481.1448 30960.2397 101.1920 164.8867
ENERGY: 600000 1.3318 4.1600 4.7460 0.0000 -10730.4582 1409.3502 0.0000 0.0000 1822.6208 -7488.2495 307.4705 -9310.8703 -7526.1384 302.3674 -652.8890 -573.0270 31633.7050 62.7524 123.2828
ENERGY: 900000 2.3654 2.0446 2.2608 0.0000 -10899.3624 1524.8636 0.0000 0.0000 1777.0689 -7590.7592 299.7860 -9367.8281 -7547.5050 300.5465 571.2032 676.4844 30186.6856 24.2164 82.2783
ENERGY: 1200000 1.3969 2.3185 1.7275 0.0000 -10813.3432 1482.9400 0.0000 0.0000 1774.4792 -7550.4811 299.3492 -9324.9603 -7549.2442 300.3178 184.7679 301.4270 30669.2569 26.3366 88.4248
ENERGY: 1500000 5.5420 2.4960 2.0841 0.0000 -10899.5150 1536.2245 0.0000 0.0000 1750.3476 -7602.8208 295.2782 -9353.1684 -7545.0489 300.7332 696.1426 776.5594 30473.7685 84.7286 150.1241
TCL: Running FEP window  12: Lambda1 0.5499999999999999 Lambda2 0.6    [dLambda 0.050000000000000044]
TCL: Setting parameter firsttimestep to 0
TCL: Setting parameter alchLambda to 0.5499999999999999
Info: NONBONDED TABLE R-SQUARED SPACING: 0.0625
Info: NONBONDED TABLE SIZE: 705 POINTS
TCL: Setting parameter alchLambda2 to 0.6
Info: NONBONDED TABLE R-SQUARED SPACING: 0.0625
Info: NONBONDED TABLE SIZE: 705 POINTS
TCL: Running for 1500000 steps
ETITLE: TS BOND ANGLE DIHED IMPRP ELECT VDW BOUNDARY MISC KINETIC TOTAL TEMP POTENTIAL TOTALAVG TEMPAVG PRESSURE GPRESSURE VOLUME PRESSAVG GPRESSAVG
ENERGY: 0 5.5420 2.4960 2.0841 0.0000 -10899.6372 1536.2966 0.0000 0.0000 1749.4528 -7603.7655 295.1273 -9353.2184 -7603.7655 295.1273 701.7310 780.0721 30473.7685 701.7310 780.0721
ENERGY: 300000 1.5807 6.7470 1.7520 0.0000 -10666.4763 1382.3185 0.0000 0.0000 1771.6604 -7502.4177 298.8736 -9274.0781 -7536.4220 296.9269 -505.1469 -365.7738 31088.6257 -83.2220 22.0843
ENERGY: 600000 1.9943 2.0403 2.8962 0.0000 -11007.4602 1575.3157 0.0000 0.0000 1768.0086 -7657.2051 298.2576 -9425.2137 -7574.4009 298.8343 591.2225 678.1826 30418.9476 99.6351 200.9327
ENERGY: 900000 2.0736 1.5671 1.5992 0.0000 -10814.4123 1460.9111 0.0000 0.0000 1790.8145 -7557.4469 302.1049 -9348.2614 -7567.2656 299.2818 -132.8830 -105.6072 31130.4782 47.2070 134.2512
ENERGY: 1200000 1.3717 1.2863 3.1541 0.0000 -10804.8331 1458.6525 0.0000 0.0000 1733.5758 -7606.7927 292.4489 -9340.3685 -7573.1721 298.6962 -21.1546 54.4249 30996.3962 8.7551 94.1636
ENERGY: 1500000 4.3615 1.3302 3.2657 0.0000 -10941.8492 1513.6524 0.0000 0.0000 1774.7982 -7644.4412 299.4030 -9419.2394 -7583.2241 299.1162 59.6702 146.0563 30739.3169 36.9937 120.0376
TCL: Running FEP window  13: Lambda1 0.6    Lambda2 0.65   [dLambda 0.050000000000000044]
TCL: Setting parameter firsttimestep to 0
TCL: Setting parameter alchLambda to 0.6
Info: NONBONDED TABLE R-SQUARED SPACING: 0.0625
Info: NONBONDED TABLE SIZE: 705 POINTS
TCL: Setting parameter alchLambda2 to 0.65
Info: NONBONDED TABLE R-SQUARED SPACING: 0.0625
Info: NONBONDED TABLE SIZE: 705 POINTS
TCL: Running for 1500000 steps
ETITLE: TS BOND ANGLE DIHED IMPRP ELECT VDW BOUNDARY MISC KINETIC TOTAL TEMP POTENTIAL TOTALAVG TEMPAVG PRESSURE GPRESSURE VOLUME PRESSAVG GPRESSAVG
ENERGY: 0 4.3615 1.3302 3.2657 0.0000 -10942.1669 1513.1295 0.0000 0.0000 1773.9186 -7646.1615 299.2546 -9420.0800 -7646.1615 299.2546 66.9140 147.7425 30739.3169 66.9140 147.7425
ENERGY: 300000 2.8341 1.6917 4.4682 0.0000 -10887.5539 1471.4296 0.0000 0.0000 1841.5228 -7565.6076 310.6592 -9407.1304 -7558.9105 298.8533 -219.2911 -104.0508 30829.2133 -329.5879 -275.3975
ENERGY: 600000 3.7257 2.4762 3.5043 0.0000 -10735.2565 1434.2646 0.0000 0.0000 1773.1792 -7518.1065 299.1299 -9291.2857 -7564.9807 299.2847 -364.4657 -254.3068 31150.3314 -402.0724 -331.2388
ENERGY: 900000 1.1016 2.0779 3.5098 0.0000 -10827.5047 1501.0477 0.0000 0.0000 1784.0180 -7535.7497 300.9583 -9319.7677 -7575.5195 299.8654 607.9256 699.5207 30413.2348 -234.9185 -164.6106
ENERGY: 1200000 4.6485 7.5754 1.4950 0.0000 -10883.2747 1463.4969 0.0000 0.0000 1825.2596 -7580.7993 307.9157 -9406.0589 -7573.4709 300.6560 -23.8132 58.8453 30846.5514 -128.3727 -56.9873
ENERGY: 1500000 2.5701 2.0200 1.7608 0.0000 -10718.8680 1428.5029 0.0000 0.0000 1756.5516 -7527.4626 296.3248 -9284.0142 -7565.6608 300.4544 -273.8842 -153.2622 30914.1343 -38.6798 33.5585
TCL: Running FEP window  14: Lambda1 0.65   Lambda2 0.7000000000000001 [dLambda 0.050000000000000044]
TCL: Setting parameter firsttimestep to 0
TCL: Setting parameter alchLambda to 0.65
Info: NONBONDED TABLE R-SQUARED SPACING: 0.0625
Info: NONBONDED TABLE SIZE: 705 POINTS
TCL: Setting parameter alchLambda2 to 0.7000000000000001
Info: NONBONDED TABLE R-SQUARED SPACING: 0.0625
Info: NONBONDED TABLE SIZE: 705 POINTS
TCL: Running for 1500000 steps
ETITLE: TS BOND ANGLE DIHED IMPRP ELECT VDW BOUNDARY MISC KINETIC TOTAL TEMP POTENTIAL TOTALAVG TEMPAVG PRESSURE GPRESSURE VOLUME PRESSAVG GPRESSAVG
ENERGY: 0 2.5701 2.0200 1.7608 0.0000 -10719.0262 1427.8909 0.0000 0.0000 1755.6235 -7529.1609 296.1683 -9284.7844 -7529.1609 296.1683 -249.7394 -152.5635 30914.1343 -249.7394 -152.5635
ENERGY: 300000 2.2424 1.8586 4.5885 0.0000 -10776.7145 1451.4473 0.0000 0.0000 1761.3701 -7555.2077 297.1377 -9316.5778 -7515.0914 298.1231 -42.8893 0.2272 30759.3080 -85.4350 -9.1694
ENERGY: 600000 2.3717 3.1669 2.8906 0.0000 -10691.1899 1354.8208 0.0000 0.0000 1789.0314 -7538.9085 301.8041 -9327.9399 -7534.8544 299.2980 -647.4726 -579.1668 30673.1330 -161.6852 -88.3663
ENERGY: 900000 3.4822 3.5575 4.5579 0.0000 -10673.6828 1344.0191 0.0000 0.0000 1812.9967 -7505.0693 305.8469 -9318.0660 -7551.2097 299.6778 -693.4736 -631.1886 30657.5200 -143.5376 -82.6136
ENERGY: 1200000 4.1696 3.5696 5.4184 0.0000 -10726.2194 1382.6059 0.0000 0.0000 1729.7018 -7600.7543 291.7953 -9330.4560 -7556.6240 298.5185 -924.5800 -837.8136 31338.0472 -295.8325 -224.4093
ENERGY: 1500000 4.7501 1.9939 2.0810 0.0000 -10816.8450 1519.1798 0.0000 0.0000 1781.5559 -7507.2843 300.5430 -9288.8402 -7557.8988 299.3289 204.2623 264.2445 31487.3144 -339.2601 -271.5655
TCL: Running FEP window  15: Lambda1 0.7000000000000001 Lambda2 0.7500000000000001 [dLambda 0.050000000000000044]
TCL: Setting parameter firsttimestep to 0
TCL: Setting parameter alchLambda to 0.7000000000000001
Info: NONBONDED TABLE R-SQUARED SPACING: 0.0625
Info: NONBONDED TABLE SIZE: 705 POINTS
TCL: Setting parameter alchLambda2 to 0.7500000000000001
Info: NONBONDED TABLE R-SQUARED SPACING: 0.0625
Info: NONBONDED TABLE SIZE: 705 POINTS
TCL: Running for 1500000 steps
ETITLE: TS BOND ANGLE DIHED IMPRP ELECT VDW BOUNDARY MISC KINETIC TOTAL TEMP POTENTIAL TOTALAVG TEMPAVG PRESSURE GPRESSURE VOLUME PRESSAVG GPRESSAVG
ENERGY: 0 4.7501 1.9939 2.0810 0.0000 -10817.1987 1518.6853 0.0000 0.0000 1780.6857 -7509.0027 300.3962 -9289.6884 -7509.0027 300.3962 188.5892 265.5310 31487.3144 188.5892 265.5310
ENERGY: 300000 3.9820 3.0883 2.4252 0.0000 -10825.4297 1499.2983 0.0000 0.0000 1738.3235 -7578.3124 293.2498 -9316.6359 -7594.0582 296.1647 43.4616 79.2996 31370.1001 -156.1505 -113.1361
ENERGY: 600000 1.6338 4.4173 3.5013 0.0000 -10601.3873 1349.1228 0.0000 0.0000 1772.2646 -7470.4476 298.9756 -9242.7122 -7574.7468 298.6164 -646.8782 -632.0479 31176.5539 -154.6337 -98.1701
ENERGY: 900000 3.3879 2.6850 2.9736 0.0000 -10819.8813 1401.2921 0.0000 0.0000 1770.4336 -7639.1091 298.6667 -9409.5428 -7577.8460 298.3654 -793.1682 -788.4884 30742.9215 -254.9125 -203.7781
ENERGY: 1200000 3.9729 1.6606 1.2974 0.0000 -10899.2722 1531.0758 0.0000 0.0000 1753.2009 -7608.0646 295.7596 -9361.2655 -7585.4391 296.9203 682.9089 769.3318 30285.9900 -341.4446 -276.9210
ENERGY: 1500000 1.4378 1.0570 4.4420 0.0000 -10973.7826 1592.1512 0.0000 0.0000 1719.0415 -7655.6532 289.9970 -9374.6947 -7593.5908 296.6948 1008.2409 1061.2295 30502.5484 -195.5593 -136.2454
TCL: Running FEP window  16: Lambda1 0.7500000000000001 Lambda2 0.8000000000000002 [dLambda 0.050000000000000044]
TCL: Setting parameter firsttimestep to 0
TCL: Setting parameter alchLambda to 0.7500000000000001
Info: NONBONDED TABLE R-SQUARED SPACING: 0.0625
Info: NONBONDED TABLE SIZE: 705 POINTS
TCL: Setting parameter alchLambda2 to 0.8000000000000002
Info: NONBONDED TABLE R-SQUARED SPACING: 0.0625
Info: NONBONDED TABLE SIZE: 705 POINTS
TCL: Running for 1500000 steps
ETITLE: TS BOND ANGLE DIHED IMPRP ELECT VDW BOUNDARY MISC KINETIC TOTAL TEMP POTENTIAL TOTALAVG TEMPAVG PRESSURE GPRESSURE VOLUME PRESSAVG GPRESSAVG
ENERGY: 0 1.4378 1.0570 4.4420 0.0000 -10973.7283 1591.6691 0.0000 0.0000 1718.1482 -7656.9743 289.8463 -9375.1225 -7656.9743 289.8463 969.9678 1067.2005 30502.5484 969.9678 1067.2005
ENERGY: 300000 2.3052 2.5930 3.0009 0.0000 -10764.8728 1420.0175 0.0000 0.0000 1775.5700 -7561.3862 299.5332 -9336.9562 -7555.8453 299.7910 -513.7526 -472.4641 31184.5719 375.5464 443.3364
ENERGY: 600000 1.5097 2.7689 2.7584 0.0000 -10806.4211 1385.8650 0.0000 0.0000 1725.7274 -7687.7917 291.1249 -9413.5190 -7592.4566 298.0728 -950.1610 -905.2947 30967.0771 48.6643 104.7318
ENERGY: 900000 1.1999 2.8349 2.2427 0.0000 -10834.2125 1515.7942 0.0000 0.0000 1793.9264 -7518.2143 302.6298 -9312.1407 -7587.0835 298.6419 445.2306 503.0065 30950.8368 109.4017 167.9955
ENERGY: 1200000 6.6653 5.7108 4.2601 0.0000 -10748.9919 1419.7881 0.0000 0.0000 1767.3957 -7545.1717 298.1542 -9312.5674 -7584.6277 297.9184 -186.7267 -165.6882 30459.3206 83.2372 142.1634
ENERGY: 1500000 1.5186 2.5303 4.4537 0.0000 -10778.8196 1364.1792 0.0000 0.0000 1777.7868 -7628.3512 299.9071 -9406.1380 -7574.5785 299.0764 -878.8764 -868.1760 30737.7552 -6.4776 48.1530
TCL: Running FEP window  17: Lambda1 0.8000000000000002 Lambda2 0.8500000000000002 [dLambda 0.050000000000000044]
TCL: Setting parameter firsttimestep to 0
TCL: Setting parameter alchLambda to 0.8000000000000002
Info: NONBONDED TABLE R-SQUARED SPACING: 0.0625
Info: NONBONDED TABLE SIZE: 705 POINTS
TCL: Setting parameter alchLambda2 to 0.8500000000000002
Info: NONBONDED TABLE R-SQUARED SPACING: 0.0625
Info: NONBONDED TABLE SIZE: 705 POINTS
TCL: Running for 1500000 steps
ETITLE: TS BOND ANGLE DIHED IMPRP ELECT VDW BOUNDARY MISC KINETIC TOTAL TEMP POTENTIAL TOTALAVG TEMPAVG PRESSURE GPRESSURE VOLUME PRESSAVG GPRESSAVG
ENERGY: 0 1.5186 2.5303 4.4537 0.0000 -10779.3511 1363.7577 0.0000 0.0000 1776.9050 -7630.1858 299.7584 -9407.0908 -7630.1858 299.7584 -939.2821 -865.3285 30737.7552 -939.2821 -865.3285
ENERGY: 300000 2.2361 2.7979 1.1866 0.0000 -10608.1725 1319.1264 0.0000 0.0000 1769.9107 -7512.9149 298.5785 -9282.8255 -7585.4101 296.3468 -935.2210 -944.8569 31038.0572 -542.3816 -478.6461
ENERGY: 600000 2.5088 1.9262 1.4958 0.0000 -10848.0819 1481.5438 0.0000 0.0000 1777.4455 -7583.1616 299.8496 -9360.6071 -7551.9974 299.6328 249.8615 321.2480 30511.8021 -238.8851 -182.1393
ENERGY: 900000 2.0705 2.1258 2.3099 0.0000 -10849.2919 1452.9280 0.0000 0.0000 1815.8983 -7573.9595 306.3364 -9389.8577 -7545.5179 300.3457 -123.6326 -107.4808 30673.7065 -293.1982 -239.7926
ENERGY: 1200000 4.5364 3.1533 2.8295 0.0000 -10812.5753 1466.0284 0.0000 0.0000 1807.6218 -7528.4059 304.9402 -9336.0277 -7542.4512 300.8764 72.1298 149.9288 30129.5607 -216.4339 -157.8563
ENERGY: 1500000 4.0912 3.2552 5.4865 0.0000 -10737.7898 1392.3270 0.0000 0.0000 1843.7495 -7488.8805 311.0349 -9332.6300 -7543.1992 301.2509 -239.1685 -165.8689 30827.7401 -138.1688 -77.2427
TCL: Running FEP window  18: Lambda1 0.8500000000000002 Lambda2 0.9000000000000002 [dLambda 0.050000000000000044]
TCL: Setting parameter firsttimestep to 0
TCL: Setting parameter alchLambda to 0.8500000000000002
Info: NONBONDED TABLE R-SQUARED SPACING: 0.0625
Info: NONBONDED TABLE SIZE: 705 POINTS
TCL: Setting parameter alchLambda2 to 0.9000000000000002
Info: NONBONDED TABLE R-SQUARED SPACING: 0.0625
Info: NONBONDED TABLE SIZE: 705 POINTS
TCL: Running for 1500000 steps
ETITLE: TS BOND ANGLE DIHED IMPRP ELECT VDW BOUNDARY MISC KINETIC TOTAL TEMP POTENTIAL TOTALAVG TEMPAVG PRESSURE GPRESSURE VOLUME PRESSAVG GPRESSAVG
ENERGY: 0 4.0912 3.2552 5.4865 0.0000 -10738.0596 1392.0318 0.0000 0.0000 1842.8485 -7490.3465 310.8828 -9333.1950 -7490.3465 310.8828 -249.9841 -163.2003 30827.7401 -249.9841 -163.2003
ENERGY: 300000 0.9475 3.4566 3.0281 0.0000 -10688.4996 1345.2293 0.0000 0.0000 1805.6051 -7530.2330 304.6000 -9335.8381 -7588.9025 302.9019 -920.9226 -862.8309 31044.5630 -612.1945 -542.1778
ENERGY: 600000 2.8452 4.4239 2.8586 0.0000 -10869.2696 1519.5070 0.0000 0.0000 1790.1591 -7549.4759 301.9943 -9339.6349 -7573.1696 302.0457 519.1755 586.3067 30605.9234 -539.6673 -476.1189
ENERGY: 900000 1.5092 1.4813 3.4397 0.0000 -10896.4483 1530.3909 0.0000 0.0000 1777.3787 -7582.2484 299.8383 -9359.6271 -7582.5338 300.8856 333.1789 401.1988 31234.7224 -323.2582 -266.5138
ENERGY: 1200000 4.8026 2.6896 1.3969 0.0000 -10954.7424 1521.9826 0.0000 0.0000 1772.5325 -7651.3382 299.0208 -9423.8707 -7580.1150 301.3107 521.9255 582.1132 30213.8080 -223.6618 -164.7862
ENERGY: 1500000 2.2669 0.8363 1.3661 0.0000 -10713.2039 1405.7332 0.0000 0.0000 1800.5562 -7502.4452 303.7483 -9303.0014 -7576.2046 301.0098 -265.8991 -212.8025 30571.3241 -166.1248 -105.4672
TCL: Running FEP window  19: Lambda1 0.9000000000000002 Lambda2 0.9500000000000003 [dLambda 0.050000000000000044]
TCL: Setting parameter firsttimestep to 0
TCL: Setting parameter alchLambda to 0.9000000000000002
Info: NONBONDED TABLE R-SQUARED SPACING: 0.0625
Info: NONBONDED TABLE SIZE: 705 POINTS
TCL: Setting parameter alchLambda2 to 0.9500000000000003
Info: NONBONDED TABLE R-SQUARED SPACING: 0.0625
Info: NONBONDED TABLE SIZE: 705 POINTS
TCL: Running for 1500000 steps
ETITLE: TS BOND ANGLE DIHED IMPRP ELECT VDW BOUNDARY MISC KINETIC TOTAL TEMP POTENTIAL TOTALAVG TEMPAVG PRESSURE GPRESSURE VOLUME PRESSAVG GPRESSAVG
ENERGY: 0 2.2669 0.8363 1.3661 0.0000 -10713.5833 1405.9276 0.0000 0.0000 1799.7035 -7503.4829 303.6044 -9303.1864 -7503.4829 303.6044 -292.7454 -204.2944 30571.3241 -292.7454 -204.2944
ENERGY: 300000 6.9236 2.2199 3.0344 0.0000 -10768.7143 1473.6270 0.0000 0.0000 1700.7965 -7582.1128 286.9191 -9282.9094 -7567.0353 297.5588 361.0674 362.8075 30679.2079 117.5408 158.2854
ENERGY: 600000 2.2336 2.0473 2.3642 0.0000 -10748.5436 1441.7577 0.0000 0.0000 1849.3434 -7450.7974 311.9785 -9300.1407 -7549.7648 299.8129 186.7688 211.5572 30636.4846 114.0461 165.0201
ENERGY: 900000 2.8618 3.8956 2.9134 0.0000 -10904.5654 1553.5621 0.0000 0.0000 1747.4097 -7593.9228 294.7826 -9341.3325 -7563.9019 299.6628 814.3667 847.7959 30417.7402 5.5139 64.8771
ENERGY: 1200000 1.7531 2.4157 4.5067 0.0000 -10662.3230 1319.4008 0.0000 0.0000 1777.1251 -7557.1217 299.7955 -9334.2468 -7565.4915 300.1801 -848.9388 -780.6283 30637.3193 -98.3012 -37.9166
ENERGY: 1500000 0.7908 3.4342 5.4135 0.0000 -10815.7143 1479.6300 0.0000 0.0000 1768.4448 -7558.0009 298.3312 -9326.4457 -7553.4571 300.1736 312.8539 369.3407 30792.5720 -24.8064 31.6643
TCL: Running FEP window  20: Lambda1 0.9500000000000003 Lambda2 1.0    [dLambda 0.04999999999999971]
TCL: Setting parameter firsttimestep to 0
TCL: Setting parameter alchLambda to 0.9500000000000003
Info: NONBONDED TABLE R-SQUARED SPACING: 0.0625
Info: NONBONDED TABLE SIZE: 705 POINTS
TCL: Setting parameter alchLambda2 to 1.0
Info: NONBONDED TABLE R-SQUARED SPACING: 0.0625
Info: NONBONDED TABLE SIZE: 705 POINTS
TCL: Running for 1500000 steps
ETITLE: TS BOND ANGLE DIHED IMPRP ELECT VDW BOUNDARY MISC KINETIC TOTAL TEMP POTENTIAL TOTALAVG TEMPAVG PRESSURE GPRESSURE VOLUME PRESSAVG GPRESSAVG
ENERGY: 0 0.7908 3.4342 5.4135 0.0000 -10816.0010 1478.9024 0.0000 0.0000 1767.5437 -7559.9163 298.1792 -9327.4600 -7559.9163 298.1792 289.8069 370.0218 30792.5720 289.8069 370.0218
ENERGY: 300000 2.3584 2.4925 3.0576 0.0000 -10803.6356 1448.7785 0.0000 0.0000 1765.8077 -7581.1409 297.8863 -9346.9486 -7584.2295 296.4825 -148.1295 -86.6069 30705.7921 131.1115 206.7414
ENERGY: 600000 0.8653 1.3094 2.8026 0.0000 -10808.5475 1451.7880 0.0000 0.0000 1785.1202 -7566.6620 301.1443 -9351.7822 -7560.2069 299.7721 10.1216 130.8185 30724.0956 122.5510 189.7878
ENERGY: 900000 3.1905 4.0617 2.6393 0.0000 -10799.0248 1449.9543 0.0000 0.0000 1775.4048 -7563.7742 299.5053 -9339.1790 -7563.9110 299.2611 -51.0653 -42.4383 31012.0150 57.7416 120.4879
ENERGY: 1200000 1.6253 6.7061 1.4646 0.0000 -10724.2888 1394.0139 0.0000 0.0000 1773.7650 -7546.7140 299.2287 -9320.4790 -7561.7129 299.6063 -177.5457 -164.8664 30474.6987 -94.7539 -36.9188
ENERGY: 1500000 1.1148 1.7487 3.5494 0.0000 -10798.6989 1429.8375 0.0000 0.0000 1763.8312 -7598.6173 297.5529 -9362.4486 -7558.2606 299.9556 14.2341 76.4208 30429.0683 -35.0067 20.9488
TCL: Exiting due to exit command.
