Info: SIMULATION PARAMETERS:
Info: TIMESTEP               2
Info: NUMBER OF STEPS        0
Info: STEPS PER CYCLE        10
Info: PERIODIC CELL BASIS 1  31.7999 0 0
Info: PERIODIC CELL BASIS 2  0 30.2139 0
Info: PERIODIC CELL BASIS 3  0 0 32.0736
Info: PERIODIC CELL CENTER   0 0 0
Info: WRAPPING WATERS AROUND PERIODIC BOUNDARIES ON OUTPUT.
Info: WRAPPING ALL CLUSTERS AROUND PERIODIC BOUNDARIES ON OUTPUT.
Info: FIRST LDB TIMESTEP     50
Info: LAST LDB TIMESTEP     -1
Info: HOM BACKGROUND SCALING 1
Info: PME BACKGROUND SCALING 1
Info: MIN ATOMS PER PATCH    40
Info: EMPTY PATCH LOAD       40 ATOMS
Info: VELOCITY FILE          mobley_1792062_equil.vel
Info: CENTER OF MASS MOVING INITIALLY? NO
Info: DIELECTRIC             1
Info: EXCLUDE                SCALED ONE-FOUR
Info: 1-4 ELECTROSTATICS SCALED BY 0.833333
Info: MODIFIED 1-4 VDW PARAMETERS WILL BE USED
Info: DCD FILENAME           mobley_1792062_prod.dcd
Info: DCD FREQUENCY          100000
Info: DCD FIRST STEP         100000
Info: DCD FILE WILL CONTAIN UNIT CELL DATA
Info: XST FILENAME           mobley_1792062_prod.xst
Info: XST FREQUENCY          100000
Info: NO VELOCITY DCD OUTPUT
Info: NO FORCE DCD OUTPUT
Info: OUTPUT FILENAME        mobley_1792062_prod
Info: BINARY OUTPUT FILES WILL BE USED
Info: RESTART FILENAME       mobley_1792062_prod.restart
Info: RESTART FREQUENCY      100000
Info: BINARY RESTART FILES WILL BE USED
Info: CUTOFF                 9
Info: PAIRLIST DISTANCE      11
Info: PAIRLIST SHRINK RATE   0.01
Info: PAIRLIST GROW RATE     0.01
Info: PAIRLIST TRIGGER       0.3
Info: PAIRLISTS PER CYCLE    2
Info: PAIRLISTS ENABLED
Info: MARGIN                 2
Info: HYDROGEN GROUP CUTOFF  2.5
Info: PATCH DIMENSION        15.5
Info: ENERGY OUTPUT STEPS    100000
Info: ENERGY EVALUATION STEPS    100000
Info: OUTPUT ENERGY PRECISION 4
Info: CROSSTERM ENERGY INCLUDED IN DIHEDRAL
Info: TIMING OUTPUT STEPS    1000000
Info: PRESSURE OUTPUT STEPS  100000
Info: ALCHEMICAL FEP ON
Info: FEP CURRENT LAMBDA VALUE     1
Info: FEP COMPARISON LAMBDA VALUE  0.95
Info: FEP INTRA-ALCHEMICAL NON-BONDED INTERACTIONS WILL BE RETAINED
Info: FEP INTRA-ALCHEMICAL BONDED INTERACTIONS WILL BE RETAINED
Info: FEP VDW SHIFTING COEFFICIENT 5
Info: FEP ELEC. ACTIVE FOR ANNIHILATED PARTICLES BETWEEN LAMBDA = 0 AND LAMBDA = 0.5
Info: FEP ELEC. ACTIVE FOR EXNIHILATED PARTICLES BETWEEN LAMBDA = 0.5 AND LAMBDA = 1
Info: FEP VDW ACTIVE FOR ANNIHILATED PARTICLES BETWEEN LAMBDA = 0 AND LAMBDA = 1
Info: FEP VDW ACTIVE FOR EXNIHILATED PARTICLES BETWEEN LAMBDA = 0 AND LAMBDA = 1
Info: FEP BOND ACTIVE FOR ANNIHILATED PARTICLES BETWEEN LAMBDA = 1 AND LAMBDA = 1
Info: FEP BOND ACTIVE FOR EXNIHILATED PARTICLES BETWEEN LAMBDA = 0 AND LAMBDA = 0
Info: LANGEVIN DYNAMICS ACTIVE
Info: LANGEVIN TEMPERATURE   300
Info: LANGEVIN USING BBK INTEGRATOR
Info: LANGEVIN DAMPING COEFFICIENT IS 1 INVERSE PS
Info: LANGEVIN DYNAMICS APPLIED TO HYDROGENS
Info: LANGEVIN PISTON PRESSURE CONTROL ACTIVE
Info:        TARGET PRESSURE IS 1.01325 BAR
Info:     OSCILLATION PERIOD IS 50 FS
Info:             DECAY TIME IS 25 FS
Info:     PISTON TEMPERATURE IS 300 K
Info:       PRESSURE CONTROL IS GROUP-BASED
Info:    INITIAL STRAIN RATE IS -9.33051e-05 -9.33051e-05 -9.33051e-05
Info:       CELL FLUCTUATION IS ISOTROPIC
Info: PARTICLE MESH EWALD (PME) ACTIVE
Info: PME TOLERANCE               1e-06
Info: PME EWALD COEFFICIENT       0.348832
Info: PME INTERPOLATION ORDER     4
Info: PME GRID DIMENSIONS         32 32 36
Info: PME MAXIMUM GRID SPACING    1
Info: PME CALCULATION WILL BE PERFORMED ON GPU
Info: FULL ELECTROSTATIC EVALUATION FREQUENCY      2
Info: USING VERLET I (r-RESPA) MTS SCHEME.
Info: C1 SPLITTING OF LONG RANGE ELECTROSTATICS
Info: PLACING ATOMS IN PATCHES BY HYDROGEN GROUPS
Info: RIGID BONDS TO HYDROGEN : ALL
Info:         ERROR TOLERANCE : 1e-08
Info:          MAX ITERATIONS : 100
Info: RIGID WATER USING SETTLE ALGORITHM
Info: RANDOM NUMBER SEED     1743670504
Info: USE HYDROGEN BONDS?    NO
Info: Using AMBER format force field!
Info: AMBER PARM FILE        mobley_1792062.prmtop
Info: COORDINATE PDB         mobley_1792062.pdb
Info: Exclusions will be read from PARM file!
Info: SCNB (VDW SCALING)     2
Info: USING ARITHMETIC MEAN TO COMBINE L-J SIGMA PARAMETERS
Info: BINARY COORDINATES     mobley_1792062_equil.coor
Info: SUMMARY OF PARAMETERS:
Info: 5 BONDS
Info: 4 ANGLES
Info:   4 HARMONIC
Info:   0 COSINE-BASED
Info: 4 DIHEDRAL
Info: 0 IMPROPER
Info: 0 CROSSTERM
Info: 0 VDW
Info: 15 VDW_PAIRS
Info: 0 NBTHOLE_PAIRS
Info: To read alchdata from file: mobley_1792062.pdb
Info: To read alchflag data from column: 5
Info: STRUCTURE SUMMARY:
Info: 2957 ATOMS
Info: 2956 BONDS
Info: 12 ANGLES
Info: 14 DIHEDRALS
Info: 0 IMPROPERS
Info: 0 CROSSTERMS
Info: 2977 EXCLUSIONS
Info: 2953 RIGID BONDS
Info: ALCH: 0 ATOMS TO DISAPPEAR IN FINAL STATE
Info: ALCH: 8 ATOMS TO APPEAR IN FINAL STATE
Info: 5918 DEGREES OF FREEDOM
Info: 987 HYDROGEN GROUPS
Info: 3 ATOMS IN LARGEST HYDROGEN GROUP
Info: 987 MIGRATION GROUPS
Info: 3 ATOMS IN LARGEST MIGRATION GROUP
Info: TOTAL MASS = 17897.6 amu
Info: TOTAL CHARGE = 0.000200002 e
Info: MASS DENSITY = 0.964437 g/cm^3
Info: ATOM DENSITY = 0.0959559 atoms/A^3
Info: ADDED 0 IMPLICIT EXCLUSIONS
Info: NONBONDED TABLE R-SQUARED SPACING: 0.0625
Info: NONBONDED TABLE SIZE: 705 POINTS
Info: REMOVING COM VELOCITY 0.126131 -0.0644674 -0.0912559
Info: Use 3D box decompostion in PME FFT.
Info: Updated CUDA force table with 4096 elements.
Info: Updated CUDA LJ table with 5 x 5 elements.
Info: Found 11 unique exclusion lists needing 16 bytes
TCL: Running for 1500000 steps
ETITLE: TS BOND ANGLE DIHED IMPRP ELECT VDW BOUNDARY MISC KINETIC TOTAL TEMP POTENTIAL TOTALAVG TEMPAVG PRESSURE GPRESSURE VOLUME PRESSAVG GPRESSAVG
ENERGY: 0 0.7476 2.9731 1.4868 0.0000 -10759.8240 1514.1392 0.0000 0.0000 1732.5764 -7507.9009 294.6509 -9240.4772 -7507.9009 294.6509 549.3557 622.3182 30816.2411 549.3557 622.3182
ENERGY: 300000 0.4678 3.7674 1.6550 0.0000 -10754.1408 1431.5734 0.0000 0.0000 1750.4172 -7566.2600 297.6850 -9316.6773 -7552.1363 299.1935 -305.9690 -226.1704 30581.7247 -122.5517 -64.1055
ENERGY: 600000 0.7288 3.9952 1.8288 0.0000 -10789.5009 1482.2959 0.0000 0.0000 1766.9733 -7533.6789 300.5007 -9300.6522 -7549.6751 299.5633 201.6154 262.4442 30515.9278 -39.2707 6.7471
ENERGY: 900000 0.4378 3.2197 1.7326 0.0000 -10662.4582 1383.4528 0.0000 0.0000 1764.9796 -7508.6356 300.1616 -9273.6152 -7551.0046 299.3077 -299.4158 -235.8945 30378.6765 35.8932 87.3732
ENERGY: 1200000 0.7243 3.2403 1.6938 0.0000 -10870.5192 1512.4840 0.0000 0.0000 1716.4538 -7635.9228 291.9090 -9352.3767 -7549.7845 299.4648 562.9112 634.6998 30032.2395 85.7682 140.0328
ENERGY: 1500000 0.2653 3.6841 3.7459 0.0000 -10657.3986 1423.4303 0.0000 0.0000 1790.7911 -7435.4819 304.5512 -9226.2730 -7540.6722 299.5234 -66.4797 10.4115 30886.6799 107.9920 158.9900
TCL: Running FEP window   2: Lambda1 0.95   Lambda2 0.8999999999999999 [dLambda -0.050000000000000044]
TCL: Setting parameter firsttimestep to 0
TCL: Setting parameter alchLambda to 0.95
Info: NONBONDED TABLE R-SQUARED SPACING: 0.0625
Info: NONBONDED TABLE SIZE: 705 POINTS
TCL: Setting parameter alchLambda2 to 0.8999999999999999
Info: NONBONDED TABLE R-SQUARED SPACING: 0.0625
Info: NONBONDED TABLE SIZE: 705 POINTS
TCL: Running for 1500000 steps
ETITLE: TS BOND ANGLE DIHED IMPRP ELECT VDW BOUNDARY MISC KINETIC TOTAL TEMP POTENTIAL TOTALAVG TEMPAVG PRESSURE GPRESSURE VOLUME PRESSAVG GPRESSAVG
ENERGY: 0 0.2653 3.6841 3.7459 0.0000 -10657.1499 1423.6569 0.0000 0.0000 1789.9060 -7435.8916 304.4007 -9225.7977 -7435.8916 304.4007 -85.1945 3.9655 30886.6799 -85.1945 3.9655
ENERGY: 300000 2.9454 4.0310 1.5135 0.0000 -10695.8369 1364.7614 0.0000 0.0000 1727.3703 -7595.2153 293.7656 -9322.5856 -7504.2761 300.3328 -556.9690 -510.9131 29887.0940 -551.0166 -479.0289
ENERGY: 600000 0.8323 1.4772 3.9622 0.0000 -10717.6449 1441.2044 0.0000 0.0000 1747.4011 -7522.7677 297.1721 -9270.1688 -7525.5537 298.4618 462.3457 581.3744 29989.2879 -339.2413 -263.2106
ENERGY: 900000 1.6596 2.1519 2.3510 0.0000 -10657.6565 1409.7826 0.0000 0.0000 1800.0252 -7441.6863 306.1216 -9241.7114 -7531.1983 299.0088 -147.1599 -131.7668 30636.5380 -275.8483 -209.0301
ENERGY: 1200000 0.1022 4.1282 3.2170 0.0000 -10720.0333 1469.8845 0.0000 0.0000 1806.6988 -7436.0025 307.2566 -9242.7012 -7520.7749 299.5435 390.9050 468.6079 30464.8021 -164.0476 -99.7965
ENERGY: 1500000 0.4375 7.3042 3.9415 0.0000 -10799.5430 1465.1249 0.0000 0.0000 1756.6117 -7566.1234 298.7385 -9322.7350 -7532.4316 299.5368 129.4757 211.5868 30390.1405 -104.3974 -39.3084
TCL: Running FEP window   3: Lambda1 0.8999999999999999 Lambda2 0.8499999999999999 [dLambda -0.050000000000000044]
TCL: Setting parameter firsttimestep to 0
TCL: Setting parameter alchLambda to 0.8999999999999999
Info: NONBONDED TABLE R-SQUARED SPACING: 0.0625
Info: NONBONDED TABLE SIZE: 705 POINTS
TCL: Setting parameter alchLambda2 to 0.8499999999999999
Info: NONBONDED TABLE R-SQUARED SPACING: 0.0625
Info: NONBONDED TABLE SIZE: 705 POINTS
TCL: Running for 1500000 steps
ETITLE: TS BOND ANGLE DIHED IMPRP ELECT VDW BOUNDARY MISC KINETIC TOTAL TEMP POTENTIAL TOTALAVG TEMPAVG PRESSURE GPRESSURE VOLUME PRESSAVG GPRESSAVG
ENERGY: 0 0.4375 7.3042 3.9415 0.0000 -10799.1963 1465.5131 0.0000 0.0000 1755.6807 -7566.3193 298.5802 -9322.0000 -7566.3193 298.5802 124.7242 207.1926 30390.1405 124.7242 207.1926
ENERGY: 300000 0.4405 6.8410 1.8627 0.0000 -10783.1434 1496.4221 0.0000 0.0000 1734.6048 -7542.9723 294.9959 -9277.5771 -7518.3968 300.7065 588.8604 673.2211 30090.0031 291.2177 362.2033
ENERGY: 600000 0.9032 3.0225 2.9067 0.0000 -10603.1663 1362.8660 0.0000 0.0000 1803.2181 -7430.2496 306.6646 -9233.4677 -7506.5394 302.2935 -349.7956 -301.6319 30543.6865 130.1730 184.4735
ENERGY: 900000 0.5733 3.3226 2.0033 0.0000 -10693.5037 1426.4653 0.0000 0.0000 1830.5142 -7430.6250 311.3067 -9261.1392 -7506.6223 302.6725 -192.4254 -133.8845 30582.5381 52.4770 108.5700
ENERGY: 1200000 2.1676 4.0739 1.9928 0.0000 -10544.5188 1365.5144 0.0000 0.0000 1817.4885 -7353.2815 309.0915 -9170.7700 -7500.6975 303.3807 -21.3824 19.3596 30218.8203 -25.6719 25.9834
ENERGY: 1500000 0.3881 2.0817 1.8964 0.0000 -10825.2505 1489.8265 0.0000 0.0000 1770.2380 -7560.8197 301.0559 -9331.0577 -7508.4277 302.3199 340.9115 389.6196 30174.8783 65.8399 117.1748
TCL: Running FEP window   4: Lambda1 0.8499999999999999 Lambda2 0.7999999999999998 [dLambda -0.050000000000000044]
TCL: Setting parameter firsttimestep to 0
TCL: Setting parameter alchLambda to 0.8499999999999999
Info: NONBONDED TABLE R-SQUARED SPACING: 0.0625
Info: NONBONDED TABLE SIZE: 705 POINTS
TCL: Setting parameter alchLambda2 to 0.7999999999999998
Info: NONBONDED TABLE R-SQUARED SPACING: 0.0625
Info: NONBONDED TABLE SIZE: 705 POINTS
TCL: Running for 1500000 steps
ETITLE: TS BOND ANGLE DIHED IMPRP ELECT VDW BOUNDARY MISC KINETIC TOTAL TEMP POTENTIAL TOTALAVG TEMPAVG PRESSURE GPRESSURE VOLUME PRESSAVG GPRESSAVG
ENERGY: 0 0.3881 2.0817 1.8964 0.0000 -10824.7297 1489.6219 0.0000 0.0000 1769.3947 -7561.3469 300.9125 -9330.7416 -7561.3469 300.9125 287.6682 375.5360 30174.8783 287.6682 375.5360
ENERGY: 300000 0.4942 3.6058 1.7669 0.0000 -10548.6463 1348.7944 0.0000 0.0000 1757.6994 -7436.2856 298.9235 -9193.9850 -7503.0004 301.2087 -591.6074 -556.2422 30819.8103 -142.8906 -77.2979
ENERGY: 600000 0.2116 1.7337 2.5162 0.0000 -10660.1243 1388.6309 0.0000 0.0000 1768.0447 -7498.9873 300.6829 -9267.0321 -7510.4880 301.0879 -512.5363 -439.4022 30903.7491 -196.3718 -135.3307
ENERGY: 900000 0.4706 2.4527 3.7461 0.0000 -10701.4354 1437.0643 0.0000 0.0000 1784.7196 -7472.9820 303.5187 -9257.7016 -7505.3297 301.6500 292.9459 370.0488 30307.9432 -104.0244 -53.3052
ENERGY: 1200000 3.1383 3.5407 1.6219 0.0000 -10768.6340 1433.5930 0.0000 0.0000 1762.5642 -7564.1760 299.7508 -9326.7403 -7515.7975 300.8191 -65.7235 -3.9355 30288.6493 -57.1286 -7.2148
ENERGY: 1500000 0.8894 1.7915 2.4272 0.0000 -10881.3803 1513.6978 0.0000 0.0000 1776.5470 -7586.0273 302.1288 -9362.5743 -7522.5133 300.7081 435.4366 510.2186 30107.7632 -58.6673 -8.7957
TCL: Running FEP window   5: Lambda1 0.7999999999999998 Lambda2 0.7499999999999998 [dLambda -0.050000000000000044]
TCL: Setting parameter firsttimestep to 0
TCL: Setting parameter alchLambda to 0.7999999999999998
Info: NONBONDED TABLE R-SQUARED SPACING: 0.0625
Info: NONBONDED TABLE SIZE: 705 POINTS
TCL: Setting parameter alchLambda2 to 0.7499999999999998
Info: NONBONDED TABLE R-SQUARED SPACING: 0.0625
Info: NONBONDED TABLE SIZE: 705 POINTS
TCL: Running for 1500000 steps
ETITLE: TS BOND ANGLE DIHED IMPRP ELECT VDW BOUNDARY MISC KINETIC TOTAL TEMP POTENTIAL TOTALAVG TEMPAVG PRESSURE GPRESSURE VOLUME PRESSAVG GPRESSAVG
ENERGY: 0 0.8894 1.7915 2.4272 0.0000 -10881.0430 1514.0229 0.0000 0.0000 1775.6771 -7586.2349 301.9809 -9361.9120 -7586.2349 301.9809 419.3051 508.4124 30107.7632 419.3051 508.4124
ENERGY: 300000 0.3816 1.0228 3.6203 0.0000 -10622.7707 1442.9734 0.0000 0.0000 1755.1196 -7419.6530 298.4847 -9174.7726 -7492.1245 297.9654 383.9288 443.6355 30564.0706 60.9782 117.0472
ENERGY: 600000 0.2862 5.5329 1.8907 0.0000 -10776.8394 1444.7091 0.0000 0.0000 1778.9838 -7545.4366 302.5432 -9324.4204 -7509.5386 299.2262 141.4581 85.7845 30200.1055 -56.0367 -25.4750
ENERGY: 900000 1.0267 4.4869 2.7694 0.0000 -10665.4403 1413.3113 0.0000 0.0000 1778.7198 -7465.1262 302.4983 -9243.8460 -7504.9269 300.8733 -361.9145 -265.4328 31084.9121 -149.0040 -105.9541
ENERGY: 1200000 0.2923 3.0257 1.7325 0.0000 -10843.9232 1520.8426 0.0000 0.0000 1715.4516 -7602.5784 291.7386 -9318.0300 -7513.9072 299.7425 438.8980 482.3350 30567.2837 -57.5893 -8.4420
ENERGY: 1500000 0.9257 3.9182 2.9729 0.0000 -10535.6467 1352.6745 0.0000 0.0000 1748.9836 -7426.1719 297.4412 -9175.1555 -7507.9698 299.7799 -313.6782 -264.2030 30337.6263 -67.4878 -15.8574
TCL: Running FEP window   6: Lambda1 0.7499999999999998 Lambda2 0.6999999999999997 [dLambda -0.050000000000000044]
TCL: Setting parameter firsttimestep to 0
TCL: Setting parameter alchLambda to 0.7499999999999998
Info: NONBONDED TABLE R-SQUARED SPACING: 0.0625
Info: NONBONDED TABLE SIZE: 705 POINTS
TCL: Setting parameter alchLambda2 to 0.6999999999999997
Info: NONBONDED TABLE R-SQUARED SPACING: 0.0625
Info: NONBONDED TABLE SIZE: 705 POINTS
TCL: Running for 1500000 steps
ETITLE: TS BOND ANGLE DIHED IMPRP ELECT VDW BOUNDARY MISC KINETIC TOTAL TEMP POTENTIAL TOTALAVG TEMPAVG PRESSURE GPRESSURE VOLUME PRESSAVG GPRESSAVG
ENERGY: 0 0.9257 3.9182 2.9729 0.0000 -10535.4759 1352.9492 0.0000 0.0000 1748.0905 -7426.6195 297.2893 -9174.7100 -7426.6195 297.2893 -338.8959 -267.6254 30337.6263 -338.8959 -267.6254
ENERGY: 300000 0.8105 3.6720 3.4224 0.0000 -10638.3623 1362.8834 0.0000 0.0000 1722.1836 -7545.3903 292.8835 -9267.5739 -7501.3600 298.9892 -550.2275 -506.0520 30678.3525 -60.4264 -20.2492
ENERGY: 600000 0.2984 2.4422 2.1309 0.0000 -10860.6493 1543.8012 0.0000 0.0000 1750.6199 -7561.3566 297.7195 -9311.9765 -7537.3646 296.3877 491.0965 568.1809 30823.5587 -50.5551 -5.2484
ENERGY: 900000 1.4814 4.3067 1.8468 0.0000 -10751.9306 1504.9062 0.0000 0.0000 1785.3471 -7454.0423 303.6254 -9239.3895 -7535.2303 296.9868 382.2978 400.9759 30889.2282 -22.2239 17.0228
ENERGY: 1200000 0.1582 5.1685 2.1925 0.0000 -10875.8260 1501.5172 0.0000 0.0000 1735.7305 -7631.0591 295.1873 -9366.7896 -7540.9087 297.4982 638.7616 683.5111 29696.0420 -15.8148 34.2374
ENERGY: 1500000 0.5913 3.1035 3.2241 0.0000 -10819.7011 1444.2908 0.0000 0.0000 1837.5526 -7530.9388 312.5037 -9368.4914 -7524.8170 299.9961 -47.3128 -29.2151 30316.3155 78.2583 123.9814
TCL: Running FEP window   7: Lambda1 0.6999999999999997 Lambda2 0.6499999999999997 [dLambda -0.050000000000000044]
TCL: Setting parameter firsttimestep to 0
TCL: Setting parameter alchLambda to 0.6999999999999997
Info: NONBONDED TABLE R-SQUARED SPACING: 0.0625
Info: NONBONDED TABLE SIZE: 705 POINTS
TCL: Setting parameter alchLambda2 to 0.6499999999999997
Info: NONBONDED TABLE R-SQUARED SPACING: 0.0625
Info: NONBONDED TABLE SIZE: 705 POINTS
TCL: Running for 1500000 steps
ETITLE: TS BOND ANGLE DIHED IMPRP ELECT VDW BOUNDARY MISC KINETIC TOTAL TEMP POTENTIAL TOTALAVG TEMPAVG PRESSURE GPRESSURE VOLUME PRESSAVG GPRESSAVG
ENERGY: 0 0.5913 3.1035 3.2241 0.0000 -10819.7452 1444.5812 0.0000 0.0000 1836.6560 -7531.5890 312.3513 -9368.2450 -7531.5890 312.3513 -127.0455 -31.5153 30316.3155 -127.0455 -31.5153
ENERGY: 300000 0.1263 7.8533 1.5308 0.0000 -10821.9785 1440.3594 0.0000 0.0000 1802.4667 -7569.6420 306.5368 -9372.1088 -7503.0327 304.6201 -100.8343 30.9636 30168.2946 -365.1819 -264.6065
ENERGY: 600000 0.3885 2.8079 1.7498 0.0000 -10710.7076 1411.9157 0.0000 0.0000 1762.5347 -7531.3109 299.7458 -9293.8456 -7508.8044 302.3503 -92.1705 -65.4991 30447.0047 -281.8679 -201.0656
ENERGY: 900000 2.5760 2.8344 2.4413 0.0000 -10599.0529 1403.2839 0.0000 0.0000 1722.3903 -7465.5270 292.9186 -9187.9173 -7521.5561 301.2063 -243.0145 -216.1644 30832.0744 -206.2985 -149.5378
ENERGY: 1200000 1.1325 3.4933 1.6575 0.0000 -10654.0891 1439.9898 0.0000 0.0000 1730.7649 -7477.0512 294.3429 -9207.8161 -7521.1021 301.2687 246.2204 363.6808 30309.6178 -175.4638 -116.4493
ENERGY: 1500000 0.4649 4.3014 1.9293 0.0000 -10706.9679 1408.6837 0.0000 0.0000 1746.4550 -7545.1336 297.0112 -9291.5886 -7526.9385 301.2264 9.9891 40.9721 30002.0723 -149.3641 -89.7916
TCL: Running FEP window   8: Lambda1 0.6499999999999997 Lambda2 0.5999999999999996 [dLambda -0.050000000000000044]
TCL: Setting parameter firsttimestep to 0
TCL: Setting parameter alchLambda to 0.6499999999999997
Info: NONBONDED TABLE R-SQUARED SPACING: 0.0625
Info: NONBONDED TABLE SIZE: 705 POINTS
TCL: Setting parameter alchLambda2 to 0.5999999999999996
Info: NONBONDED TABLE R-SQUARED SPACING: 0.0625
Info: NONBONDED TABLE SIZE: 705 POINTS
TCL: Running for 1500000 steps
ETITLE: TS BOND ANGLE DIHED IMPRP ELECT VDW BOUNDARY MISC KINETIC TOTAL TEMP POTENTIAL TOTALAVG TEMPAVG PRESSURE GPRESSURE VOLUME PRESSAVG GPRESSAVG
ENERGY: 0 0.4649 4.3014 1.9293 0.0000 -10706.7599 1408.6443 0.0000 0.0000 1745.5566 -7545.8634 296.8584 -9291.4200 -7545.8634 296.8584 -46.0632 33.9176 30002.0723 -46.0632 33.9176
ENERGY: 300000 1.1431 3.0943 2.4364 0.0000 -10739.0507 1423.0937 0.0000 0.0000 1708.2125 -7601.0708 290.5075 -9309.2833 -7572.8630 295.8108 -284.7619 -184.7022 30176.3452 -323.3276 -250.3329
ENERGY: 600000 2.0776 3.1823 2.1875 0.0000 -10663.0718 1428.2400 0.0000 0.0000 1754.9424 -7472.4420 298.4546 -9227.3844 -7530.8500 297.9823 -137.6653 -74.9390 30855.3766 -184.9764 -120.2431
ENERGY: 900000 3.1230 3.7671 1.7327 0.0000 -10607.1744 1363.8781 0.0000 0.0000 1767.3664 -7467.3070 300.5675 -9234.6734 -7527.7513 298.9023 -710.7319 -642.3554 30575.4813 -167.6762 -103.0367
ENERGY: 1200000 0.0564 1.9118 1.7135 0.0000 -10770.5831 1502.6588 0.0000 0.0000 1783.9475 -7480.2952 303.3874 -9264.2426 -7517.4216 299.9342 643.8326 695.3664 30249.3883 -131.7251 -59.0379
ENERGY: 1500000 2.1297 5.1838 3.6710 0.0000 -10717.2490 1434.7025 0.0000 0.0000 1858.2508 -7413.3112 316.0238 -9271.5620 -7514.0906 301.1447 52.3426 92.7358 30598.6841 -38.3606 31.0189
TCL: Running FEP window   9: Lambda1 0.5999999999999996 Lambda2 0.5499999999999996 [dLambda -0.050000000000000044]
TCL: Setting parameter firsttimestep to 0
TCL: Setting parameter alchLambda to 0.5999999999999996
Info: NONBONDED TABLE R-SQUARED SPACING: 0.0625
Info: NONBONDED TABLE SIZE: 705 POINTS
TCL: Setting parameter alchLambda2 to 0.5499999999999996
Info: NONBONDED TABLE R-SQUARED SPACING: 0.0625
Info: NONBONDED TABLE SIZE: 705 POINTS
TCL: Running for 1500000 steps
ETITLE: TS BOND ANGLE DIHED IMPRP ELECT VDW BOUNDARY MISC KINETIC TOTAL TEMP POTENTIAL TOTALAVG TEMPAVG PRESSURE GPRESSURE VOLUME PRESSAVG GPRESSAVG
ENERGY: 0 2.1297 5.1838 3.6710 0.0000 -10717.0740 1434.7590 0.0000 0.0000 1857.3424 -7413.9880 315.8693 -9271.3304 -7413.9880 315.8693 8.5344 88.6997 30598.6841 8.5344 88.6997
ENERGY: 300000 0.7726 2.8566 1.7138 0.0000 -10611.8720 1375.4823 0.0000 0.0000 1736.3554 -7494.6912 295.2936 -9231.0467 -7486.1611 303.6684 -552.6611 -516.1219 31086.4466 -135.1524 -66.3840
ENERGY: 600000 0.2175 3.5625 2.1653 0.0000 -10747.8052 1478.4175 0.0000 0.0000 1758.9209 -7504.5215 299.1312 -9263.4424 -7482.2710 302.3331 325.6707 355.0045 30684.4690 -24.4544 29.0221
ENERGY: 900000 0.5840 3.3060 1.8238 0.0000 -10765.5209 1478.4959 0.0000 0.0000 1747.4590 -7533.8522 297.1819 -9281.3112 -7502.1306 300.0629 132.1716 217.0716 30821.9190 -37.9591 22.3946
ENERGY: 1200000 0.6100 2.9072 1.7928 0.0000 -10881.2248 1537.5203 0.0000 0.0000 1745.6974 -7592.6970 296.8824 -9338.3944 -7525.3808 299.6345 321.4068 422.7017 30602.4032 34.9876 100.9692
ENERGY: 1500000 3.2894 2.8723 2.9778 0.0000 -10806.6724 1530.3286 0.0000 0.0000 1788.6423 -7478.5620 304.1858 -9267.2043 -7513.3490 300.4079 765.3252 798.8812 30143.4807 86.5913 146.4623
TCL: Running FEP window  10: Lambda1 0.5499999999999996 Lambda2 0.4999999999999996 [dLambda -0.04999999999999999]
TCL: Setting parameter firsttimestep to 0
TCL: Setting parameter alchLambda to 0.5499999999999996
Info: NONBONDED TABLE R-SQUARED SPACING: 0.0625
Info: NONBONDED TABLE SIZE: 705 POINTS
TCL: Setting parameter alchLambda2 to 0.4999999999999996
Info: NONBONDED TABLE R-SQUARED SPACING: 0.0625
Info: NONBONDED TABLE SIZE: 705 POINTS
TCL: Running for 1500000 steps
ETITLE: TS BOND ANGLE DIHED IMPRP ELECT VDW BOUNDARY MISC KINETIC TOTAL TEMP POTENTIAL TOTALAVG TEMPAVG PRESSURE GPRESSURE VOLUME PRESSAVG GPRESSAVG
ENERGY: 0 3.2894 2.8723 2.9778 0.0000 -10806.3056 1530.5050 0.0000 0.0000 1787.8114 -7478.8497 304.0445 -9266.6611 -7478.8497 304.0445 721.2224 794.8326 30143.4807 721.2224 794.8326
ENERGY: 300000 0.9381 2.9419 4.0385 0.0000 -10697.9485 1393.2446 0.0000 0.0000 1698.0789 -7598.7065 288.7841 -9296.7854 -7520.3308 299.0682 -489.7365 -363.6679 30365.9031 55.8804 135.9232
ENERGY: 600000 0.4850 3.6482 2.5986 0.0000 -10686.9806 1418.7806 0.0000 0.0000 1764.2176 -7497.2505 300.0320 -9261.4682 -7527.3113 298.6860 92.8560 182.4961 29977.5477 130.8163 201.7510
ENERGY: 900000 0.6713 3.9622 3.2351 0.0000 -10776.0252 1460.4169 0.0000 0.0000 1766.0427 -7541.6971 300.3424 -9307.7398 -7521.9868 298.0946 -89.3389 -3.4530 30487.6378 42.6666 103.4062
ENERGY: 1200000 0.7938 4.0147 1.8116 0.0000 -10805.2820 1449.7402 0.0000 0.0000 1765.0733 -7583.8484 300.1775 -9348.9217 -7532.7357 298.0542 -51.2578 -27.8537 30301.1227 27.3023 83.8126
ENERGY: 1500000 0.6106 0.9797 2.3969 0.0000 -10721.9240 1406.8366 0.0000 0.0000 1735.5987 -7575.5014 295.1649 -9311.1001 -7531.7548 298.9538 -337.7689 -220.7595 30419.2197 -103.2098 -38.7503
TCL: Running FEP window  11: Lambda1 0.4999999999999996 Lambda2 0.4499999999999996 [dLambda -0.04999999999999999]
TCL: Setting parameter firsttimestep to 0
TCL: Setting parameter alchLambda to 0.4999999999999996
Info: NONBONDED TABLE R-SQUARED SPACING: 0.0625
Info: NONBONDED TABLE SIZE: 705 POINTS
TCL: Setting parameter alchLambda2 to 0.4499999999999996
Info: NONBONDED TABLE R-SQUARED SPACING: 0.0625
Info: NONBONDED TABLE SIZE: 705 POINTS
TCL: Running for 1500000 steps
ETITLE: TS BOND ANGLE DIHED IMPRP ELECT VDW BOUNDARY MISC KINETIC TOTAL TEMP POTENTIAL TOTALAVG TEMPAVG PRESSURE GPRESSURE VOLUME PRESSAVG GPRESSAVG
ENERGY: 0 0.6106 0.9797 2.3969 0.0000 -10722.2575 1406.7798 0.0000 0.0000 1734.7428 -7576.7476 295.0194 -9311.4903 -7576.7476 295.0194 -321.2109 -227.5114 30419.2197 -321.2109 -227.5114
ENERGY: 300000 0.6900 5.9449 2.3614 0.0000 -10692.4518 1424.8676 0.0000 0.0000 1719.8388 -7538.7491 292.4847 -9258.5879 -7522.2092 298.4066 -96.2053 -54.7659 30314.7308 -196.2461 -110.3740
ENERGY: 600000 0.3702 5.4745 3.3187 0.0000 -10745.0912 1410.2442 0.0000 0.0000 1771.0056 -7554.6780 301.1864 -9325.6836 -7519.9069 299.2633 -416.3961 -395.2616 30519.9809 -202.8704 -139.7072
ENERGY: 900000 0.1597 2.4090 2.2224 0.0000 -10749.7944 1426.8054 0.0000 0.0000 1681.2094 -7636.9885 285.9152 -9318.1979 -7534.8581 297.7649 -6.1844 67.2562 30004.3311 -227.1104 -161.4072
ENERGY: 1200000 0.2414 5.5403 1.9460 0.0000 -10599.4654 1379.4093 0.0000 0.0000 1775.5394 -7436.7889 301.9574 -9212.3283 -7522.2449 298.1638 -706.1732 -709.7247 31508.9759 -169.0928 -110.0945
ENERGY: 1500000 1.7697 5.2910 1.6672 0.0000 -10615.2605 1372.7514 0.0000 0.0000 1690.6769 -7543.1044 287.5253 -9233.7812 -7528.9323 297.5291 -770.5094 -673.0072 30958.2486 -196.1765 -134.2609
TCL: Running FEP window  12: Lambda1 0.4499999999999996 Lambda2 0.39999999999999963 [dLambda -0.04999999999999999]
TCL: Setting parameter firsttimestep to 0
TCL: Setting parameter alchLambda to 0.4499999999999996
Info: NONBONDED TABLE R-SQUARED SPACING: 0.0625
Info: NONBONDED TABLE SIZE: 705 POINTS
TCL: Setting parameter alchLambda2 to 0.39999999999999963
Info: NONBONDED TABLE R-SQUARED SPACING: 0.0625
Info: NONBONDED TABLE SIZE: 705 POINTS
TCL: Running for 1500000 steps
ETITLE: TS BOND ANGLE DIHED IMPRP ELECT VDW BOUNDARY MISC KINETIC TOTAL TEMP POTENTIAL TOTALAVG TEMPAVG PRESSURE GPRESSURE VOLUME PRESSAVG GPRESSAVG
ENERGY: 0 1.7697 5.2910 1.6672 0.0000 -10615.2610 1373.1974 0.0000 0.0000 1689.8214 -7543.5143 287.3798 -9233.3358 -7543.5143 287.3798 -743.2557 -673.1698 30958.2486 -743.2557 -673.1698
ENERGY: 300000 0.8686 1.9742 1.7577 0.0000 -10648.2071 1348.1876 0.0000 0.0000 1760.5261 -7534.8930 299.4042 -9295.4191 -7521.6755 295.0049 -919.5170 -893.8847 30702.1441 -183.1338 -145.5485
ENERGY: 600000 0.9904 5.4709 2.3245 0.0000 -10709.2886 1456.1110 0.0000 0.0000 1754.2161 -7490.1757 298.3311 -9244.3919 -7510.1539 298.2159 96.0458 150.3822 30550.2892 -153.2934 -112.5007
ENERGY: 900000 0.5047 6.5006 1.5647 0.0000 -10859.9681 1532.0998 0.0000 0.0000 1749.1890 -7570.1093 297.4761 -9319.2982 -7504.2332 299.4243 342.1522 429.6288 30663.0806 -27.9352 22.3139
ENERGY: 1200000 0.7777 2.9379 1.6702 0.0000 -10782.6462 1475.0850 0.0000 0.0000 1773.7567 -7528.4187 301.6543 -9302.1753 -7507.7106 299.9821 104.7653 181.3475 30674.9661 15.7282 75.7438
ENERGY: 1500000 0.2930 3.0163 2.0320 0.0000 -10794.1209 1424.5186 0.0000 0.0000 1804.4978 -7559.7632 306.8823 -9364.2610 -7515.6735 299.9642 -576.6020 -498.8378 30766.7176 -26.2303 33.3516
TCL: Running FEP window  13: Lambda1 0.39999999999999963 Lambda2 0.34999999999999964 [dLambda -0.04999999999999999]
TCL: Setting parameter firsttimestep to 0
TCL: Setting parameter alchLambda to 0.39999999999999963
Info: NONBONDED TABLE R-SQUARED SPACING: 0.0625
Info: NONBONDED TABLE SIZE: 705 POINTS
TCL: Setting parameter alchLambda2 to 0.34999999999999964
Info: NONBONDED TABLE R-SQUARED SPACING: 0.0625
Info: NONBONDED TABLE SIZE: 705 POINTS
TCL: Running for 1500000 steps
ETITLE: TS BOND ANGLE DIHED IMPRP ELECT VDW BOUNDARY MISC KINETIC TOTAL TEMP POTENTIAL TOTALAVG TEMPAVG PRESSURE GPRESSURE VOLUME PRESSAVG GPRESSAVG
ENERGY: 0 0.2930 3.0163 2.0320 0.0000 -10794.1223 1424.9078 0.0000 0.0000 1803.6154 -7560.2577 306.7322 -9363.8732 -7560.2577 306.7322 -587.2761 -499.9523 30766.7176 -587.2761 -499.9523
ENERGY: 300000 2.0668 2.3454 2.8916 0.0000 -10783.3345 1457.3730 0.0000 0.0000 1769.3581 -7549.2996 300.9062 -9318.6577 -7554.6896 301.3249 -65.1358 -36.4994 30592.2449 -467.3636 -423.7510
ENERGY: 600000 2.4586 1.3555 1.7458 0.0000 -10655.9092 1386.9615 0.0000 0.0000 1763.2758 -7500.1120 299.8718 -9263.3877 -7535.9470 302.1973 -217.9041 -161.4206 30225.1357 -385.0736 -334.9030
ENERGY: 900000 3.2184 2.5518 3.3326 0.0000 -10697.6402 1420.9187 0.0000 0.0000 1781.7642 -7485.8545 303.0161 -9267.6188 -7516.7144 302.4696 -236.9525 -112.9068 30251.3605 -376.7454 -316.7570
ENERGY: 1200000 0.7995 5.7705 2.0361 0.0000 -10585.9337 1308.6807 0.0000 0.0000 1724.8664 -7543.7804 293.3397 -9268.6468 -7514.8666 301.2975 -966.1525 -908.0021 30129.9545 -443.0268 -377.3187
ENERGY: 1500000 2.4364 1.6438 3.6717 0.0000 -10683.1361 1421.8623 0.0000 0.0000 1754.6532 -7498.8687 298.4054 -9253.5219 -7513.2748 300.4963 25.6920 53.2783 30482.0338 -291.6111 -235.1264
TCL: Running FEP window  14: Lambda1 0.34999999999999964 Lambda2 0.29999999999999966 [dLambda -0.04999999999999999]
TCL: Setting parameter firsttimestep to 0
TCL: Setting parameter alchLambda to 0.34999999999999964
Info: NONBONDED TABLE R-SQUARED SPACING: 0.0625
Info: NONBONDED TABLE SIZE: 705 POINTS
TCL: Setting parameter alchLambda2 to 0.29999999999999966
Info: NONBONDED TABLE R-SQUARED SPACING: 0.0625
Info: NONBONDED TABLE SIZE: 705 POINTS
TCL: Running for 1500000 steps
ETITLE: TS BOND ANGLE DIHED IMPRP ELECT VDW BOUNDARY MISC KINETIC TOTAL TEMP POTENTIAL TOTALAVG TEMPAVG PRESSURE GPRESSURE VOLUME PRESSAVG GPRESSAVG
ENERGY: 0 2.4364 1.6438 3.6717 0.0000 -10683.1356 1421.4084 0.0000 0.0000 1753.7978 -7500.1775 298.2600 -9253.9753 -7500.1775 298.2600 -38.9862 45.7065 30482.0338 -38.9862 45.7065
ENERGY: 300000 1.6035 0.9638 1.9920 0.0000 -10701.6076 1437.6299 0.0000 0.0000 1779.5075 -7479.9110 302.6323 -9259.4185 -7556.7772 297.8203 359.4965 479.1422 29768.2636 270.9822 344.0009
ENERGY: 600000 1.0398 3.9725 3.3012 0.0000 -10770.6275 1468.3949 0.0000 0.0000 1824.0821 -7469.8370 310.2129 -9293.9192 -7537.0007 300.1674 125.2699 290.0639 30226.2666 265.4221 351.8824
ENERGY: 900000 2.2402 1.1676 3.6132 0.0000 -10708.3572 1376.9504 0.0000 0.0000 1740.9599 -7583.4260 296.0767 -9324.3858 -7529.0194 298.6441 -755.1737 -690.7973 30409.3618 130.9913 217.7355
ENERGY: 1200000 0.9176 3.2788 1.7263 0.0000 -10646.7125 1448.9949 0.0000 0.0000 1731.9479 -7459.8469 294.5440 -9191.7948 -7519.5383 297.9117 75.4160 167.5061 30515.5075 53.5937 136.4157
ENERGY: 1500000 0.2301 1.3860 4.0292 0.0000 -10748.4474 1461.0867 0.0000 0.0000 1738.4523 -7543.2631 295.6502 -9281.7154 -7516.3655 298.2912 -65.0122 32.7157 30558.7914 -18.3479 63.6533
TCL: Running FEP window  15: Lambda1 0.29999999999999966 Lambda2 0.24999999999999967 [dLambda -0.04999999999999999]
TCL: Setting parameter firsttimestep to 0
TCL: Setting parameter alchLambda to 0.29999999999999966
Info: NONBONDED TABLE R-SQUARED SPACING: 0.0625
Info: NONBONDED TABLE SIZE: 705 POINTS
TCL: Setting parameter alchLambda2 to 0.24999999999999967
Info: NONBONDED TABLE R-SQUARED SPACING: 0.0625
Info: NONBONDED TABLE SIZE: 705 POINTS
TCL: Running for 1500000 steps
ETITLE: TS BOND ANGLE DIHED IMPRP ELECT VDW BOUNDARY MISC KINETIC TOTAL TEMP POTENTIAL TOTALAVG TEMPAVG PRESSURE GPRESSURE VOLUME PRESSAVG GPRESSAVG
ENERGY: 0 0.2301 1.3860 4.0292 0.0000 -10748.4474 1460.6051 0.0000 0.0000 1737.5685 -7544.6285 295.4999 -9282.1970 -7544.6285 295.4999 -59.5389 24.8248 30558.7914 -59.5389 24.8248
ENERGY: 300000 0.3165 3.7870 1.4796 0.0000 -10513.2211 1346.4664 0.0000 0.0000 1792.6131 -7368.5584 304.8611 -9161.1715 -7494.3744 301.7764 -708.0002 -672.2488 31124.4063 -285.1684 -224.1878
ENERGY: 600000 0.4623 1.6279 2.0154 0.0000 -10828.5104 1500.6765 0.0000 0.0000 1783.8711 -7539.8572 303.3744 -9323.7283 -7523.3231 299.0952 276.9775 314.0878 30689.1880 -5.0816 55.6345
ENERGY: 900000 0.9636 1.5328 3.3173 0.0000 -10564.3218 1303.6599 0.0000 0.0000 1806.9118 -7447.9363 307.2928 -9254.8481 -7529.1389 298.7681 -955.5603 -939.5351 30405.7187 -125.7958 -78.3575
ENERGY: 1200000 0.4272 3.0566 3.3139 0.0000 -10685.3777 1426.2379 0.0000 0.0000 1854.8467 -7397.4954 315.4449 -9252.3422 -7512.5660 300.5082 -169.1577 -94.8142 30933.5344 -160.6730 -106.5845
ENERGY: 1500000 0.6869 5.2319 3.8180 0.0000 -10674.8575 1415.2608 0.0000 0.0000 1751.0457 -7498.8142 297.7919 -9249.8599 -7508.6238 300.8790 -276.7712 -290.2851 30683.9270 -180.7721 -134.8358
TCL: Running FEP window  16: Lambda1 0.24999999999999967 Lambda2 0.19999999999999968 [dLambda -0.04999999999999999]
TCL: Setting parameter firsttimestep to 0
TCL: Setting parameter alchLambda to 0.24999999999999967
Info: NONBONDED TABLE R-SQUARED SPACING: 0.0625
Info: NONBONDED TABLE SIZE: 705 POINTS
TCL: Setting parameter alchLambda2 to 0.19999999999999968
Info: NONBONDED TABLE R-SQUARED SPACING: 0.0625
Info: NONBONDED TABLE SIZE: 705 POINTS
TCL: Running for 1500000 steps
ETITLE: TS BOND ANGLE DIHED IMPRP ELECT VDW BOUNDARY MISC KINETIC TOTAL TEMP POTENTIAL TOTALAVG TEMPAVG PRESSURE GPRESSURE VOLUME PRESSAVG GPRESSAVG
ENERGY: 0 0.6869 5.2319 3.8180 0.0000 -10674.8567 1415.6052 0.0000 0.0000 1750.1866 -7499.3281 297.6458 -9249.5146 -7499.3281 297.6458 -363.2139 -292.6839 30683.9270 -363.2139 -292.6839
ENERGY: 300000 1.0612 4.3196 1.9960 0.0000 -10768.8571 1513.1178 0.0000 0.0000 1752.5063 -7495.8563 298.0403 -9248.3626 -7499.1428 300.0994 927.4068 968.1670 29946.8565 129.6991 187.3089
ENERGY: 600000 0.1728 3.0959 2.0913 0.0000 -10740.3295 1441.5047 0.0000 0.0000 1819.7817 -7473.6831 309.4815 -9293.4648 -7505.1722 299.6369 -40.0214 -15.0936 30517.8241 106.5673 157.8226
ENERGY: 900000 3.0440 3.2454 3.7943 0.0000 -10675.3847 1406.0577 0.0000 0.0000 1756.2370 -7503.0063 298.6748 -9259.2433 -7511.5663 298.9859 -358.1908 -353.7621 30415.2405 -14.4531 32.4089
ENERGY: 1200000 0.6742 2.6663 3.9469 0.0000 -10663.7211 1421.6253 0.0000 0.0000 1758.8539 -7475.9544 299.1198 -9234.8083 -7513.1704 298.1900 -6.3792 21.0264 30514.1612 -15.2908 43.4362
ENERGY: 1500000 0.3589 2.7389 1.7840 0.0000 -10685.8755 1495.9311 0.0000 0.0000 1759.7361 -7425.3264 299.2699 -9185.0625 -7505.6006 298.5295 586.3914 648.2715 30688.7124 6.2814 65.8508
TCL: Running FEP window  17: Lambda1 0.19999999999999968 Lambda2 0.1499999999999997 [dLambda -0.04999999999999999]
TCL: Setting parameter firsttimestep to 0
TCL: Setting parameter alchLambda to 0.19999999999999968
Info: NONBONDED TABLE R-SQUARED SPACING: 0.0625
Info: NONBONDED TABLE SIZE: 705 POINTS
TCL: Setting parameter alchLambda2 to 0.1499999999999997
Info: NONBONDED TABLE R-SQUARED SPACING: 0.0625
Info: NONBONDED TABLE SIZE: 705 POINTS
TCL: Running for 1500000 steps
ETITLE: TS BOND ANGLE DIHED IMPRP ELECT VDW BOUNDARY MISC KINETIC TOTAL TEMP POTENTIAL TOTALAVG TEMPAVG PRESSURE GPRESSURE VOLUME PRESSAVG GPRESSAVG
ENERGY: 0 0.3589 2.7389 1.7840 0.0000 -10685.8731 1495.9603 0.0000 0.0000 1758.8370 -7426.1939 299.1169 -9185.0309 -7426.1939 299.1169 571.2442 646.5529 30688.7124 571.2442 646.5529
ENERGY: 300000 0.0873 3.6009 3.4635 0.0000 -10743.5829 1455.5771 0.0000 0.0000 1808.9082 -7471.9458 307.6323 -9280.8541 -7467.5351 302.0419 66.3781 116.4081 30707.3045 423.4295 471.9144
ENERGY: 600000 3.6592 5.2854 2.2499 0.0000 -10810.4420 1466.1188 0.0000 0.0000 1767.3097 -7565.8190 300.5579 -9333.1287 -7490.6635 301.4204 154.4471 166.7695 30052.9867 141.1082 192.2676
ENERGY: 900000 1.4981 2.7087 1.7535 0.0000 -10762.2733 1450.5806 0.0000 0.0000 1736.6328 -7569.0996 295.3408 -9305.7324 -7502.8119 299.4280 102.8027 142.4106 30145.9320 112.5720 158.1583
ENERGY: 1200000 0.9727 4.2098 1.8438 0.0000 -10780.3223 1517.5130 0.0000 0.0000 1777.7992 -7477.9838 302.3418 -9255.7830 -7497.4255 300.4393 689.5474 738.1172 30401.3975 78.0107 127.3201
ENERGY: 1500000 0.8123 5.0061 3.3660 0.0000 -10699.2583 1486.1039 0.0000 0.0000 1756.7956 -7447.1744 298.7698 -9203.9699 -7491.1090 300.7056 421.2309 557.5223 30319.9372 42.5299 97.6140
TCL: Running FEP window  18: Lambda1 0.1499999999999997 Lambda2 0.09999999999999969 [dLambda -0.05 ]
TCL: Setting parameter firsttimestep to 0
TCL: Setting parameter alchLambda to 0.1499999999999997
Info: NONBONDED TABLE R-SQUARED SPACING: 0.0625
Info: NONBONDED TABLE SIZE: 705 POINTS
TCL: Setting parameter alchLambda2 to 0.09999999999999969
Info: NONBONDED TABLE R-SQUARED SPACING: 0.0625
Info: NONBONDED TABLE SIZE: 705 POINTS
TCL: Running for 1500000 steps
ETITLE: TS BOND ANGLE DIHED IMPRP ELECT VDW BOUNDARY MISC KINETIC TOTAL TEMP POTENTIAL TOTALAVG TEMPAVG PRESSURE GPRESSURE VOLUME PRESSAVG GPRESSAVG
ENERGY: 0 0.8123 5.0061 3.3660 0.0000 -10699.2591 1485.2385 0.0000 0.0000 1755.9205 -7448.9156 298.6210 -9204.8361 -7448.9156 298.6210 456.3603 549.4073 30319.9372 456.3603 549.4073
ENERGY: 300000 0.2559 2.7154 2.2158 0.0000 -10728.3350 1414.8921 0.0000 0.0000 1795.4865 -7512.7693 305.3498 -9308.2558 -7487.5271 299.8372 -305.6298 -220.3089 30424.0643 319.7354 393.3110
ENERGY: 600000 0.0930 3.3606 1.6008 0.0000 -10698.9299 1398.3533 0.0000 0.0000 1767.3392 -7528.1830 300.5629 -9295.5222 -7505.0889 298.4184 -663.3312 -559.0747 30854.2126 -94.8263 -18.5049
ENERGY: 900000 0.2053 1.9469 1.6664 0.0000 -10743.9849 1478.8583 0.0000 0.0000 1782.2333 -7479.0747 303.0958 -9261.3080 -7506.2434 298.6441 517.6025 537.9497 30108.2269 -56.8090 20.7029
ENERGY: 1200000 0.5472 3.9423 3.9174 0.0000 -10824.6129 1477.8646 0.0000 0.0000 1712.9025 -7625.4389 291.3051 -9338.3414 -7524.6933 297.6955 -123.1232 -31.8902 30377.3389 -103.1048 -28.8162
ENERGY: 1500000 0.1978 3.2254 3.1235 0.0000 -10819.0412 1517.0116 0.0000 0.0000 1760.5499 -7534.9330 299.4082 -9295.4829 -7521.2511 298.2877 468.6397 469.1616 30277.6910 -144.9846 -79.6052
TCL: Running FEP window  19: Lambda1 0.09999999999999969 Lambda2 0.049999999999999684 [dLambda -0.05 ]
TCL: Setting parameter firsttimestep to 0
TCL: Setting parameter alchLambda to 0.09999999999999969
Info: NONBONDED TABLE R-SQUARED SPACING: 0.0625
Info: NONBONDED TABLE SIZE: 705 POINTS
TCL: Setting parameter alchLambda2 to 0.049999999999999684
Info: NONBONDED TABLE R-SQUARED SPACING: 0.0625
Info: NONBONDED TABLE SIZE: 705 POINTS
TCL: Running for 1500000 steps
ETITLE: TS BOND ANGLE DIHED IMPRP ELECT VDW BOUNDARY MISC KINETIC TOTAL TEMP POTENTIAL TOTALAVG TEMPAVG PRESSURE GPRESSURE VOLUME PRESSAVG GPRESSAVG
ENERGY: 0 0.1978 3.2254 3.1235 0.0000 -10819.0403 1516.9720 0.0000 0.0000 1759.6798 -7535.8418 299.2603 -9295.5215 -7535.8418 299.2603 375.6913 466.0460 30277.6910 375.6913 466.0460
ENERGY: 300000 0.9035 3.7896 2.0770 0.0000 -10709.6754 1443.9006 0.0000 0.0000 1789.8164 -7469.1884 304.3855 -9259.0047 -7470.6323 300.7777 -77.7290 -7.7437 30398.6322 31.7249 86.2715
ENERGY: 600000 1.4759 3.1468 1.7801 0.0000 -10683.5157 1457.6296 0.0000 0.0000 1721.6643 -7497.8189 292.7952 -9219.4832 -7484.0987 298.6706 -51.7797 15.9821 31020.7312 14.9166 81.0514
ENERGY: 900000 0.6657 3.2386 3.0034 0.0000 -10685.7085 1411.1778 0.0000 0.0000 1736.7532 -7530.8698 295.3613 -9267.6230 -7494.9901 299.1186 -258.5231 -248.9265 30373.5041 38.7197 98.4512
ENERGY: 1200000 2.0099 4.4906 1.9541 0.0000 -10680.6530 1399.8660 0.0000 0.0000 1789.5516 -7482.7808 304.3404 -9272.3324 -7478.4606 300.4120 -400.2333 -308.4367 30558.9321 -19.2156 45.2470
ENERGY: 1500000 2.1600 4.8207 1.7794 0.0000 -10749.2718 1438.5842 0.0000 0.0000 1773.2906 -7528.6369 301.5750 -9301.9274 -7487.6438 300.2969 -33.6784 49.4181 29960.0477 29.7317 96.6711
TCL: Running FEP window  20: Lambda1 0.049999999999999684 Lambda2 0.0    [dLambda -0.049999999999999684]
TCL: Setting parameter firsttimestep to 0
TCL: Setting parameter alchLambda to 0.049999999999999684
Info: NONBONDED TABLE R-SQUARED SPACING: 0.0625
Info: NONBONDED TABLE SIZE: 705 POINTS
TCL: Setting parameter alchLambda2 to 0.0
Info: NONBONDED TABLE R-SQUARED SPACING: 0.0625
Info: NONBONDED TABLE SIZE: 705 POINTS
TCL: Running for 1500000 steps
ETITLE: TS BOND ANGLE DIHED IMPRP ELECT VDW BOUNDARY MISC KINETIC TOTAL TEMP POTENTIAL TOTALAVG TEMPAVG PRESSURE GPRESSURE VOLUME PRESSAVG GPRESSAVG
ENERGY: 0 2.1600 4.8207 1.7794 0.0000 -10749.2709 1438.5731 0.0000 0.0000 1772.4167 -7529.5210 301.4264 -9301.9377 -7529.5210 301.4264 -40.6112 46.7129 29960.0477 -40.6112 46.7129
ENERGY: 300000 1.8858 2.2041 3.2579 0.0000 -10816.4891 1520.1018 0.0000 0.0000 1754.8690 -7534.1705 298.4421 -9289.0394 -7502.5219 300.3222 287.7191 398.1979 30682.6252 -42.3766 6.2044
ENERGY: 600000 0.9915 2.1482 1.7814 0.0000 -10676.0874 1413.5664 0.0000 0.0000 1836.3996 -7421.2003 312.3076 -9257.5999 -7479.7507 301.0555 -105.5412 -23.5206 30295.8323 -19.1663 35.1726
ENERGY: 900000 0.3934 4.7215 2.0229 0.0000 -10611.2177 1365.3753 0.0000 0.0000 1789.7514 -7448.9532 304.3744 -9238.7046 -7490.9811 301.4723 -575.7328 -444.8002 30445.4119 -23.3434 35.6829
ENERGY: 1200000 1.1469 4.0268 1.9505 0.0000 -10707.6166 1436.2496 0.0000 0.0000 1761.1282 -7503.1146 299.5066 -9264.2428 -7502.6434 300.3356 -66.7969 47.1746 30345.7335 100.5077 168.8949
ENERGY: 1500000 1.9381 2.2400 3.2580 0.0000 -10617.2140 1363.4117 0.0000 0.0000 1747.9443 -7498.4220 297.2645 -9246.3663 -7509.7551 300.0331 -773.4648 -709.1953 30863.8502 59.1172 126.0555
TCL: Exiting due to exit command.
