Info: SIMULATION PARAMETERS:
Info: TIMESTEP               2
Info: NUMBER OF STEPS        0
Info: STEPS PER CYCLE        10
Info: PERIODIC CELL BASIS 1  30.0714 0 0
Info: PERIODIC CELL BASIS 2  0 31.1298 0
Info: PERIODIC CELL BASIS 3  0 0 31.4041
Info: PERIODIC CELL CENTER   0 0 0
Info: WRAPPING WATERS AROUND PERIODIC BOUNDARIES ON OUTPUT.
Info: WRAPPING ALL CLUSTERS AROUND PERIODIC BOUNDARIES ON OUTPUT.
Info: FIRST LDB TIMESTEP     50
Info: LAST LDB TIMESTEP     -1
Info: HOM BACKGROUND SCALING 1
Info: PME BACKGROUND SCALING 1
Info: MIN ATOMS PER PATCH    40
Info: EMPTY PATCH LOAD       40 ATOMS
Info: VELOCITY FILE          mobley_3395921_equil.vel
Info: CENTER OF MASS MOVING INITIALLY? NO
Info: DIELECTRIC             1
Info: EXCLUDE                SCALED ONE-FOUR
Info: 1-4 ELECTROSTATICS SCALED BY 0.833333
Info: MODIFIED 1-4 VDW PARAMETERS WILL BE USED
Info: DCD FILENAME           mobley_3395921_prod.dcd
Info: DCD FREQUENCY          100000
Info: DCD FIRST STEP         100000
Info: DCD FILE WILL CONTAIN UNIT CELL DATA
Info: XST FILENAME           mobley_3395921_prod.xst
Info: XST FREQUENCY          100000
Info: NO VELOCITY DCD OUTPUT
Info: NO FORCE DCD OUTPUT
Info: OUTPUT FILENAME        mobley_3395921_prod
Info: BINARY OUTPUT FILES WILL BE USED
Info: RESTART FILENAME       mobley_3395921_prod.restart
Info: RESTART FREQUENCY      100000
Info: BINARY RESTART FILES WILL BE USED
Info: CUTOFF                 9
Info: PAIRLIST DISTANCE      11
Info: PAIRLIST SHRINK RATE   0.01
Info: PAIRLIST GROW RATE     0.01
Info: PAIRLIST TRIGGER       0.3
Info: PAIRLISTS PER CYCLE    2
Info: PAIRLISTS ENABLED
Info: MARGIN                 2
Info: HYDROGEN GROUP CUTOFF  2.5
Info: PATCH DIMENSION        15.5
Info: ENERGY OUTPUT STEPS    100000
Info: ENERGY EVALUATION STEPS    100000
Info: OUTPUT ENERGY PRECISION 4
Info: CROSSTERM ENERGY INCLUDED IN DIHEDRAL
Info: TIMING OUTPUT STEPS    1000000
Info: PRESSURE OUTPUT STEPS  100000
Info: ALCHEMICAL FEP ON
Info: FEP CURRENT LAMBDA VALUE     0
Info: FEP COMPARISON LAMBDA VALUE  0.05
Info: FEP INTRA-ALCHEMICAL NON-BONDED INTERACTIONS WILL BE RETAINED
Info: FEP INTRA-ALCHEMICAL BONDED INTERACTIONS WILL BE RETAINED
Info: FEP VDW SHIFTING COEFFICIENT 5
Info: FEP ELEC. ACTIVE FOR ANNIHILATED PARTICLES BETWEEN LAMBDA = 0 AND LAMBDA = 0.5
Info: FEP ELEC. ACTIVE FOR EXNIHILATED PARTICLES BETWEEN LAMBDA = 0.5 AND LAMBDA = 1
Info: FEP VDW ACTIVE FOR ANNIHILATED PARTICLES BETWEEN LAMBDA = 0 AND LAMBDA = 1
Info: FEP VDW ACTIVE FOR EXNIHILATED PARTICLES BETWEEN LAMBDA = 0 AND LAMBDA = 1
Info: FEP BOND ACTIVE FOR ANNIHILATED PARTICLES BETWEEN LAMBDA = 1 AND LAMBDA = 1
Info: FEP BOND ACTIVE FOR EXNIHILATED PARTICLES BETWEEN LAMBDA = 0 AND LAMBDA = 0
Info: LANGEVIN DYNAMICS ACTIVE
Info: LANGEVIN TEMPERATURE   300
Info: LANGEVIN USING BBK INTEGRATOR
Info: LANGEVIN DAMPING COEFFICIENT IS 1 INVERSE PS
Info: LANGEVIN DYNAMICS APPLIED TO HYDROGENS
Info: LANGEVIN PISTON PRESSURE CONTROL ACTIVE
Info:        TARGET PRESSURE IS 1.01325 BAR
Info:     OSCILLATION PERIOD IS 50 FS
Info:             DECAY TIME IS 25 FS
Info:     PISTON TEMPERATURE IS 300 K
Info:       PRESSURE CONTROL IS GROUP-BASED
Info:    INITIAL STRAIN RATE IS -0.000360779 -0.000360779 -0.000360779
Info:       CELL FLUCTUATION IS ISOTROPIC
Info: PARTICLE MESH EWALD (PME) ACTIVE
Info: PME TOLERANCE               1e-06
Info: PME EWALD COEFFICIENT       0.348832
Info: PME INTERPOLATION ORDER     4
Info: PME GRID DIMENSIONS         32 32 32
Info: PME MAXIMUM GRID SPACING    1
Info: PME CALCULATION WILL BE PERFORMED ON GPU
Info: FULL ELECTROSTATIC EVALUATION FREQUENCY      2
Info: USING VERLET I (r-RESPA) MTS SCHEME.
Info: C1 SPLITTING OF LONG RANGE ELECTROSTATICS
Info: PLACING ATOMS IN PATCHES BY HYDROGEN GROUPS
Info: RIGID BONDS TO HYDROGEN : ALL
Info:         ERROR TOLERANCE : 1e-08
Info:          MAX ITERATIONS : 100
Info: RIGID WATER USING SETTLE ALGORITHM
Info: RANDOM NUMBER SEED     1743579974
Info: USE HYDROGEN BONDS?    NO
Info: Using AMBER format force field!
Info: AMBER PARM FILE        mobley_3395921.prmtop
Info: COORDINATE PDB         mobley_3395921.pdb
Info: Exclusions will be read from PARM file!
Info: SCNB (VDW SCALING)     2
Info: USING ARITHMETIC MEAN TO COMBINE L-J SIGMA PARAMETERS
Info: BINARY COORDINATES     mobley_3395921_equil.coor
Info: SUMMARY OF PARAMETERS:
Info: 6 BONDS
Info: 8 ANGLES
Info:   8 HARMONIC
Info:   0 COSINE-BASED
Info: 11 DIHEDRAL
Info: 0 IMPROPER
Info: 0 CROSSTERM
Info: 0 VDW
Info: 21 VDW_PAIRS
Info: 0 NBTHOLE_PAIRS
Info: To read alchdata from file: mobley_3395921.pdb
Info: To read alchflag data from column: 5
Info: STRUCTURE SUMMARY:
Info: 2905 ATOMS
Info: 2905 BONDS
Info: 31 ANGLES
Info: 52 DIHEDRALS
Info: 0 IMPROPERS
Info: 0 CROSSTERMS
Info: 2975 EXCLUSIONS
Info: 2899 RIGID BONDS
Info: ALCH: 0 ATOMS TO DISAPPEAR IN FINAL STATE
Info: ALCH: 16 ATOMS TO APPEAR IN FINAL STATE
Info: 5816 DEGREES OF FREEDOM
Info: 969 HYDROGEN GROUPS
Info: 3 ATOMS IN LARGEST HYDROGEN GROUP
Info: 969 MIGRATION GROUPS
Info: 3 ATOMS IN LARGEST MIGRATION GROUP
Info: TOTAL MASS = 17435.5 amu
Info: TOTAL CHARGE = -0.000300013 e
Info: MASS DENSITY = 0.984867 g/cm^3
Info: ATOM DENSITY = 0.0988164 atoms/A^3
Info: ADDED 0 IMPLICIT EXCLUSIONS
Info: NONBONDED TABLE R-SQUARED SPACING: 0.0625
Info: NONBONDED TABLE SIZE: 705 POINTS
Info: REMOVING COM VELOCITY -0.0519199 -0.154145 -0.174578
Info: Use 3D box decompostion in PME FFT.
Info: Updated CUDA force table with 4096 elements.
Info: Updated CUDA LJ table with 6 x 6 elements.
Info: Found 17 unique exclusion lists needing 40 bytes
TCL: Running for 1500000 steps
ETITLE: TS BOND ANGLE DIHED IMPRP ELECT VDW BOUNDARY MISC KINETIC TOTAL TEMP POTENTIAL TOTALAVG TEMPAVG PRESSURE GPRESSURE VOLUME PRESSAVG GPRESSAVG
ENERGY: 0 1.1616 8.6315 2.5669 0.0000 -10526.6371 1440.5834 0.0000 0.0000 1725.6498 -7348.0439 298.6198 -9073.6937 -7348.0439 298.6198 400.5816 484.5157 29397.9590 400.5816 484.5157
ENERGY: 300000 1.5369 8.9079 2.8812 0.0000 -10490.4009 1363.6882 0.0000 0.0000 1763.4609 -7349.9258 305.1630 -9113.3867 -7376.7077 299.1952 -789.1399 -694.4090 29921.7834 -388.4531 -326.9079
ENERGY: 600000 2.2486 6.5396 2.3582 0.0000 -10548.3509 1420.1260 0.0000 0.0000 1715.2806 -7401.7979 296.8255 -9117.0785 -7361.8793 300.5294 -441.0482 -369.9951 30320.9558 -324.8499 -250.6574
ENERGY: 900000 0.9862 6.3625 2.6229 0.0000 -10506.0320 1410.2691 0.0000 0.0000 1744.0980 -7341.6933 301.8123 -9085.7914 -7350.1071 301.2675 161.7063 178.6284 29469.6985 -175.1193 -107.1763
ENERGY: 1200000 3.9362 10.1066 2.2763 0.0000 -10598.9415 1497.4662 0.0000 0.0000 1721.9033 -7363.2530 297.9715 -9085.1563 -7357.4568 301.6001 555.9231 681.0765 29707.5184 -48.5551 11.2366
ENERGY: 1500000 2.0060 9.7345 3.7335 0.0000 -10666.6487 1557.1824 0.0000 0.0000 1741.6256 -7352.3667 301.3844 -9093.9922 -7359.1521 300.9610 1179.2107 1223.2175 29527.2652 19.5335 78.3091
TCL: Running FEP window   2: Lambda1 0.05   Lambda2 0.1    [dLambda 0.05  ]
TCL: Setting parameter firsttimestep to 0
TCL: Setting parameter alchLambda to 0.05
Info: NONBONDED TABLE R-SQUARED SPACING: 0.0625
Info: NONBONDED TABLE SIZE: 705 POINTS
TCL: Setting parameter alchLambda2 to 0.1
Info: NONBONDED TABLE R-SQUARED SPACING: 0.0625
Info: NONBONDED TABLE SIZE: 705 POINTS
TCL: Running for 1500000 steps
ETITLE: TS BOND ANGLE DIHED IMPRP ELECT VDW BOUNDARY MISC KINETIC TOTAL TEMP POTENTIAL TOTALAVG TEMPAVG PRESSURE GPRESSURE VOLUME PRESSAVG GPRESSAVG
ENERGY: 0 2.0060 9.7345 3.7335 0.0000 -10666.6464 1559.8552 0.0000 0.0000 1740.7626 -7350.5545 301.2351 -9091.3171 -7350.5545 301.2351 1175.8887 1231.1058 29527.2652 1175.8887 1231.1058
ENERGY: 300000 1.1275 5.8970 2.6729 0.0000 -10462.5233 1451.0318 0.0000 0.0000 1778.8329 -7222.9612 307.8231 -9001.7941 -7257.8551 307.5629 510.0949 643.9278 29598.6082 558.5410 638.1255
ENERGY: 600000 1.6068 7.2726 2.2307 0.0000 -10558.8271 1422.8811 0.0000 0.0000 1700.4757 -7424.3602 294.2635 -9124.8359 -7322.3132 303.2092 -267.0113 -265.2477 30154.8364 193.3355 251.0369
ENERGY: 900000 1.7010 8.7939 2.4911 0.0000 -10498.0666 1429.5542 0.0000 0.0000 1764.4896 -7291.0369 305.3410 -9055.5264 -7318.0047 303.6292 -47.1613 54.0110 30019.9776 38.6993 108.3962
ENERGY: 1200000 1.3347 4.9280 3.5986 0.0000 -10377.7426 1309.6596 0.0000 0.0000 1693.6633 -7364.5583 293.0847 -9058.2216 -7314.9943 302.6978 -696.5539 -667.7872 29498.7889 -39.2554 30.2699
ENERGY: 1500000 3.6466 5.5630 2.5969 0.0000 -10418.1209 1362.4216 0.0000 0.0000 1739.7225 -7304.1704 301.0551 -9043.8929 -7322.9657 302.2404 -397.4845 -369.3171 29880.0854 -82.9953 -8.4255
TCL: Running FEP window   3: Lambda1 0.1    Lambda2 0.15000000000000002 [dLambda 0.05000000000000002]
TCL: Setting parameter firsttimestep to 0
TCL: Setting parameter alchLambda to 0.1
Info: NONBONDED TABLE R-SQUARED SPACING: 0.0625
Info: NONBONDED TABLE SIZE: 705 POINTS
TCL: Setting parameter alchLambda2 to 0.15000000000000002
Info: NONBONDED TABLE R-SQUARED SPACING: 0.0625
Info: NONBONDED TABLE SIZE: 705 POINTS
TCL: Running for 1500000 steps
ETITLE: TS BOND ANGLE DIHED IMPRP ELECT VDW BOUNDARY MISC KINETIC TOTAL TEMP POTENTIAL TOTALAVG TEMPAVG PRESSURE GPRESSURE VOLUME PRESSAVG GPRESSAVG
ENERGY: 0 3.6466 5.5630 2.5969 0.0000 -10418.1219 1365.0680 0.0000 0.0000 1738.8812 -7302.3662 300.9095 -9041.2475 -7302.3662 300.9095 -441.9698 -360.5710 29880.0854 -441.9698 -360.5710
ENERGY: 300000 0.5597 5.1195 2.5744 0.0000 -10540.6118 1420.8233 0.0000 0.0000 1739.2965 -7372.2384 300.9814 -9111.5349 -7348.0039 300.9177 -125.5297 -78.4708 29906.6235 -310.6567 -230.4258
ENERGY: 600000 1.9584 10.5303 2.4998 0.0000 -10462.2978 1344.7064 0.0000 0.0000 1750.2347 -7352.3682 302.8742 -9102.6029 -7359.5407 301.0397 -647.1525 -550.3802 29855.0917 -366.8960 -283.5067
ENERGY: 900000 1.6335 6.2497 2.1545 0.0000 -10426.9909 1431.2179 0.0000 0.0000 1758.8573 -7226.8780 304.3663 -8985.7352 -7345.3962 300.3786 266.0672 331.1454 29882.2182 -300.9679 -223.0313
ENERGY: 1200000 1.9363 10.6080 2.7213 0.0000 -10342.1398 1282.6539 0.0000 0.0000 1737.8046 -7306.4158 300.7232 -9044.2203 -7351.8989 299.6713 -799.6535 -732.0858 29521.8186 -342.0210 -262.7223
ENERGY: 1500000 0.8205 5.1376 2.6658 0.0000 -10402.8959 1391.8965 0.0000 0.0000 1759.2017 -7243.1738 304.4259 -9002.3755 -7344.7031 300.2866 162.8099 156.8432 29640.6640 -289.0596 -212.9819
TCL: Running FEP window   4: Lambda1 0.15000000000000002 Lambda2 0.2    [dLambda 0.04999999999999999]
TCL: Setting parameter firsttimestep to 0
TCL: Setting parameter alchLambda to 0.15000000000000002
Info: NONBONDED TABLE R-SQUARED SPACING: 0.0625
Info: NONBONDED TABLE SIZE: 705 POINTS
TCL: Setting parameter alchLambda2 to 0.2
Info: NONBONDED TABLE R-SQUARED SPACING: 0.0625
Info: NONBONDED TABLE SIZE: 705 POINTS
TCL: Running for 1500000 steps
ETITLE: TS BOND ANGLE DIHED IMPRP ELECT VDW BOUNDARY MISC KINETIC TOTAL TEMP POTENTIAL TOTALAVG TEMPAVG PRESSURE GPRESSURE VOLUME PRESSAVG GPRESSAVG
ENERGY: 0 0.8205 5.1376 2.6658 0.0000 -10402.8958 1394.4262 0.0000 0.0000 1758.3716 -7241.4741 304.2823 -8999.8457 -7241.4741 304.2823 93.1823 169.1946 29640.6640 93.1823 169.1946
ENERGY: 300000 1.3829 8.5249 2.5081 0.0000 -10561.5013 1460.3245 0.0000 0.0000 1714.6304 -7374.1305 296.7130 -9088.7609 -7341.5126 303.3686 188.7663 266.2641 29681.8265 41.4210 95.4598
ENERGY: 600000 1.1262 5.8468 3.2093 0.0000 -10453.5726 1444.4297 0.0000 0.0000 1757.9818 -7240.9788 304.2148 -8998.9606 -7332.9632 303.0810 357.7808 391.3897 30112.3328 12.0546 64.3890
ENERGY: 900000 2.2912 5.1801 3.0516 0.0000 -10530.4513 1421.3791 0.0000 0.0000 1750.3368 -7348.2124 302.8919 -9098.5492 -7328.9342 303.3883 -94.6181 -24.2329 29784.0904 49.1957 108.5954
ENERGY: 1200000 2.2247 8.2124 2.4368 0.0000 -10556.7326 1430.1264 0.0000 0.0000 1693.2843 -7420.4480 293.0191 -9113.7323 -7341.5474 301.9156 -157.9090 -73.2109 29958.6642 -60.0143 10.2825
ENERGY: 1500000 1.1744 10.5176 2.4971 0.0000 -10478.1525 1463.3604 0.0000 0.0000 1726.1812 -7274.4218 298.7118 -9000.6030 -7338.2000 301.5427 433.5900 512.3268 30093.4619 -8.2195 65.5584
TCL: Running FEP window   5: Lambda1 0.2    Lambda2 0.25   [dLambda 0.04999999999999999]
TCL: Setting parameter firsttimestep to 0
TCL: Setting parameter alchLambda to 0.2
Info: NONBONDED TABLE R-SQUARED SPACING: 0.0625
Info: NONBONDED TABLE SIZE: 705 POINTS
TCL: Setting parameter alchLambda2 to 0.25
Info: NONBONDED TABLE R-SQUARED SPACING: 0.0625
Info: NONBONDED TABLE SIZE: 705 POINTS
TCL: Running for 1500000 steps
ETITLE: TS BOND ANGLE DIHED IMPRP ELECT VDW BOUNDARY MISC KINETIC TOTAL TEMP POTENTIAL TOTALAVG TEMPAVG PRESSURE GPRESSURE VOLUME PRESSAVG GPRESSAVG
ENERGY: 0 1.1744 10.5176 2.4971 0.0000 -10478.1520 1463.7099 0.0000 0.0000 1725.2939 -7274.9591 298.5582 -9000.2530 -7274.9591 298.5582 432.8889 512.8932 30093.4619 432.8889 512.8932
ENERGY: 300000 1.0898 11.0377 2.4363 0.0000 -10502.1797 1401.4398 0.0000 0.0000 1748.5378 -7337.6383 302.5806 -9086.1761 -7356.1765 299.8049 142.9288 251.6883 29201.9394 122.9061 214.0255
ENERGY: 600000 2.8328 7.0994 2.3691 0.0000 -10525.4429 1396.3344 0.0000 0.0000 1717.4651 -7399.3422 297.2035 -9116.8073 -7361.7017 298.6181 -208.8482 -261.9370 29865.0246 95.2865 147.2396
ENERGY: 900000 3.8063 4.2370 2.2544 0.0000 -10509.2616 1403.1604 0.0000 0.0000 1715.5639 -7380.2396 296.8745 -9095.8035 -7377.8426 298.3298 -27.4498 -52.9015 29844.7934 135.6274 179.3841
ENERGY: 1200000 2.0397 10.4517 3.2367 0.0000 -10485.1458 1409.0075 0.0000 0.0000 1744.8596 -7315.5506 301.9440 -9060.4102 -7376.5428 298.5448 142.8577 226.7582 29535.3710 59.0985 105.4210
ENERGY: 1500000 0.8725 13.7436 2.5137 0.0000 -10417.7896 1364.8392 0.0000 0.0000 1755.8610 -7279.9595 303.8478 -9035.8205 -7366.7589 298.8843 -167.2019 -67.0818 29642.0955 37.5937 89.5073
TCL: Running FEP window   6: Lambda1 0.25   Lambda2 0.3    [dLambda 0.04999999999999999]
TCL: Setting parameter firsttimestep to 0
TCL: Setting parameter alchLambda to 0.25
Info: NONBONDED TABLE R-SQUARED SPACING: 0.0625
Info: NONBONDED TABLE SIZE: 705 POINTS
TCL: Setting parameter alchLambda2 to 0.3
Info: NONBONDED TABLE R-SQUARED SPACING: 0.0625
Info: NONBONDED TABLE SIZE: 705 POINTS
TCL: Running for 1500000 steps
ETITLE: TS BOND ANGLE DIHED IMPRP ELECT VDW BOUNDARY MISC KINETIC TOTAL TEMP POTENTIAL TOTALAVG TEMPAVG PRESSURE GPRESSURE VOLUME PRESSAVG GPRESSAVG
ENERGY: 0 0.8725 13.7436 2.5137 0.0000 -10417.7895 1364.4048 0.0000 0.0000 1755.0001 -7281.2548 303.6988 -9036.2548 -7281.2548 303.6988 -167.1376 -64.2076 29642.0955 -167.1376 -64.2076
ENERGY: 300000 2.5118 7.0934 2.1953 0.0000 -10376.8280 1313.8646 0.0000 0.0000 1735.7985 -7315.3644 300.3761 -9051.1629 -7322.9087 303.9582 -1137.3867 -1097.3604 30359.3660 -243.5485 -181.0769
ENERGY: 600000 1.4797 7.6477 2.0927 0.0000 -10436.7653 1380.2390 0.0000 0.0000 1736.6766 -7308.6296 300.5280 -9045.3061 -7335.0374 303.5455 -350.9594 -318.1759 30256.8150 -281.1107 -220.3010
ENERGY: 900000 3.2699 6.4825 2.4035 0.0000 -10760.3324 1591.9102 0.0000 0.0000 1751.0345 -7405.2317 303.0126 -9156.2662 -7348.5080 302.1282 1168.0425 1209.7656 29385.1587 -15.2482 47.5692
ENERGY: 1200000 1.9028 6.8150 2.6240 0.0000 -10608.5282 1416.2525 0.0000 0.0000 1802.2515 -7378.6825 311.8756 -9180.9340 -7348.8210 303.5893 -215.5181 -119.1820 29634.2479 89.6878 153.3483
ENERGY: 1500000 1.5925 6.5202 2.6698 0.0000 -10517.2928 1424.2797 0.0000 0.0000 1727.6095 -7354.6210 298.9590 -9082.2306 -7348.8992 302.3690 136.0602 113.1928 29765.0223 119.1708 175.3277
TCL: Running FEP window   7: Lambda1 0.3    Lambda2 0.35   [dLambda 0.04999999999999999]
TCL: Setting parameter firsttimestep to 0
TCL: Setting parameter alchLambda to 0.3
Info: NONBONDED TABLE R-SQUARED SPACING: 0.0625
Info: NONBONDED TABLE SIZE: 705 POINTS
TCL: Setting parameter alchLambda2 to 0.35
Info: NONBONDED TABLE R-SQUARED SPACING: 0.0625
Info: NONBONDED TABLE SIZE: 705 POINTS
TCL: Running for 1500000 steps
ETITLE: TS BOND ANGLE DIHED IMPRP ELECT VDW BOUNDARY MISC KINETIC TOTAL TEMP POTENTIAL TOTALAVG TEMPAVG PRESSURE GPRESSURE VOLUME PRESSAVG GPRESSAVG
ENERGY: 0 1.5925 6.5202 2.6698 0.0000 -10517.2940 1424.3035 0.0000 0.0000 1726.7438 -7355.4642 298.8091 -9082.2080 -7355.4642 298.8091 47.0787 119.5159 29765.0223 47.0787 119.5159
ENERGY: 300000 1.3459 9.7997 2.9687 0.0000 -10456.5249 1373.3652 0.0000 0.0000 1696.1301 -7372.9153 293.5115 -9069.0454 -7360.4990 299.4126 -522.5623 -447.3087 30020.0776 -214.7375 -172.0870
ENERGY: 600000 1.8365 11.6616 2.4390 0.0000 -10500.8810 1387.7242 0.0000 0.0000 1730.9193 -7366.3004 299.5317 -9097.2197 -7338.1722 301.2409 -320.6903 -214.9316 30105.6468 -135.6294 -65.0716
ENERGY: 900000 2.2132 6.4119 2.3583 0.0000 -10514.2614 1394.9477 0.0000 0.0000 1779.1361 -7329.1942 307.8755 -9108.3303 -7334.7186 303.2485 214.5589 221.1008 29634.3681 -12.2376 56.1700
ENERGY: 1200000 0.5067 6.4111 3.1233 0.0000 -10550.1927 1451.9238 0.0000 0.0000 1711.5036 -7376.7242 296.1719 -9088.2279 -7350.2824 301.9592 139.1195 135.8649 30193.7631 96.4777 155.6976
ENERGY: 1500000 2.4124 7.9495 3.2580 0.0000 -10373.6808 1299.0588 0.0000 0.0000 1727.7351 -7333.2671 298.9807 -9061.0021 -7342.1328 301.9328 -681.7226 -601.5194 29294.8026 97.8620 155.2082
TCL: Running FEP window   8: Lambda1 0.35   Lambda2 0.39999999999999997 [dLambda 0.04999999999999999]
TCL: Setting parameter firsttimestep to 0
TCL: Setting parameter alchLambda to 0.35
Info: NONBONDED TABLE R-SQUARED SPACING: 0.0625
Info: NONBONDED TABLE SIZE: 705 POINTS
TCL: Setting parameter alchLambda2 to 0.39999999999999997
Info: NONBONDED TABLE R-SQUARED SPACING: 0.0625
Info: NONBONDED TABLE SIZE: 705 POINTS
TCL: Running for 1500000 steps
ETITLE: TS BOND ANGLE DIHED IMPRP ELECT VDW BOUNDARY MISC KINETIC TOTAL TEMP POTENTIAL TOTALAVG TEMPAVG PRESSURE GPRESSURE VOLUME PRESSAVG GPRESSAVG
ENERGY: 0 2.4124 7.9495 3.2580 0.0000 -10373.6812 1298.9373 0.0000 0.0000 1726.8811 -7334.2429 298.8329 -9061.1240 -7334.2429 298.8329 -682.4308 -600.1989 29294.8026 -682.4308 -600.1989
ENERGY: 300000 2.1970 3.9402 2.7468 0.0000 -10364.6608 1342.6616 0.0000 0.0000 1737.8278 -7275.2875 300.7272 -9013.1153 -7338.8384 300.8347 -642.6646 -570.6104 30353.1747 -418.0349 -360.9724
ENERGY: 600000 2.3465 7.7130 2.7355 0.0000 -10401.0638 1314.5781 0.0000 0.0000 1750.0643 -7323.6263 302.8447 -9073.6906 -7344.2160 299.7113 -770.1313 -806.3918 30124.1801 -363.0533 -327.0102
ENERGY: 900000 1.3915 5.6429 2.1908 0.0000 -10526.0057 1447.7869 0.0000 0.0000 1738.8713 -7330.1224 300.9078 -9068.9937 -7345.7463 299.1214 177.2935 246.1433 29929.0055 -298.9216 -256.8776
ENERGY: 1200000 0.3995 6.9852 2.5224 0.0000 -10605.5466 1517.2259 0.0000 0.0000 1754.3788 -7324.0349 303.5913 -9078.4137 -7352.0710 298.8720 1027.7603 1117.6234 29683.5866 -126.7028 -74.2745
ENERGY: 1500000 0.4701 7.2056 2.2236 0.0000 -10551.9356 1473.9181 0.0000 0.0000 1681.7813 -7386.3370 291.0285 -9068.1183 -7356.5070 298.7924 569.1868 573.6456 29812.3642 -163.6916 -107.1725
TCL: Running FEP window   9: Lambda1 0.39999999999999997 Lambda2 0.44999999999999996 [dLambda 0.04999999999999999]
TCL: Setting parameter firsttimestep to 0
TCL: Setting parameter alchLambda to 0.39999999999999997
Info: NONBONDED TABLE R-SQUARED SPACING: 0.0625
Info: NONBONDED TABLE SIZE: 705 POINTS
TCL: Setting parameter alchLambda2 to 0.44999999999999996
Info: NONBONDED TABLE R-SQUARED SPACING: 0.0625
Info: NONBONDED TABLE SIZE: 705 POINTS
TCL: Running for 1500000 steps
ETITLE: TS BOND ANGLE DIHED IMPRP ELECT VDW BOUNDARY MISC KINETIC TOTAL TEMP POTENTIAL TOTALAVG TEMPAVG PRESSURE GPRESSURE VOLUME PRESSAVG GPRESSAVG
ENERGY: 0 0.4701 7.2056 2.2236 0.0000 -10551.9356 1473.9854 0.0000 0.0000 1680.9074 -7387.1435 290.8773 -9068.0509 -7387.1435 290.8773 513.7299 579.6522 29812.3642 513.7299 579.6522
ENERGY: 300000 1.4074 6.1964 2.5381 0.0000 -10565.8595 1470.2144 0.0000 0.0000 1751.1155 -7334.3878 303.0266 -9085.5033 -7333.1660 298.6256 486.9594 479.5783 29821.4451 -319.4033 -294.0948
ENERGY: 600000 0.4118 6.7311 2.8966 0.0000 -10488.5756 1431.6711 0.0000 0.0000 1730.0057 -7316.8592 299.3736 -9046.8650 -7318.4858 299.4116 136.7061 276.5635 29923.4549 -254.0338 -216.6652
ENERGY: 900000 0.8288 6.5688 3.7496 0.0000 -10621.7412 1490.1214 0.0000 0.0000 1734.7810 -7385.6916 300.2000 -9120.4727 -7330.9685 299.3534 797.3330 888.3768 29340.2974 -83.8529 -38.8186
ENERGY: 1200000 2.2100 6.3372 2.8276 0.0000 -10431.4500 1348.6930 0.0000 0.0000 1722.4218 -7348.9603 298.0612 -9071.3821 -7336.6864 299.7358 -336.2226 -315.1566 29651.3825 -99.0456 -54.5865
ENERGY: 1500000 1.9024 9.5566 2.5060 0.0000 -10626.2002 1452.3363 0.0000 0.0000 1712.4496 -7447.4493 296.3356 -9159.8989 -7348.6523 299.2456 250.2137 274.2016 29491.4646 -102.9133 -59.8288
TCL: Running FEP window  10: Lambda1 0.44999999999999996 Lambda2 0.49999999999999994 [dLambda 0.04999999999999999]
TCL: Setting parameter firsttimestep to 0
TCL: Setting parameter alchLambda to 0.44999999999999996
Info: NONBONDED TABLE R-SQUARED SPACING: 0.0625
Info: NONBONDED TABLE SIZE: 705 POINTS
TCL: Setting parameter alchLambda2 to 0.49999999999999994
Info: NONBONDED TABLE R-SQUARED SPACING: 0.0625
Info: NONBONDED TABLE SIZE: 705 POINTS
TCL: Running for 1500000 steps
ETITLE: TS BOND ANGLE DIHED IMPRP ELECT VDW BOUNDARY MISC KINETIC TOTAL TEMP POTENTIAL TOTALAVG TEMPAVG PRESSURE GPRESSURE VOLUME PRESSAVG GPRESSAVG
ENERGY: 0 1.9024 9.5566 2.5060 0.0000 -10626.2006 1452.7888 0.0000 0.0000 1711.5917 -7447.8550 296.1871 -9159.4467 -7447.8550 296.1871 196.2290 283.5041 29491.4646 196.2290 283.5041
ENERGY: 300000 2.4793 10.5021 2.9647 0.0000 -10472.5041 1429.0040 0.0000 0.0000 1770.4220 -7257.1320 306.3676 -9027.5539 -7346.3115 301.6834 164.5686 185.2716 29821.6618 16.5981 74.8143
ENERGY: 600000 1.9766 5.4025 3.2052 0.0000 -10477.1039 1369.1718 0.0000 0.0000 1775.8505 -7321.4973 307.3070 -9097.3478 -7321.7215 302.9457 -402.6892 -335.5015 29757.0252 -116.8870 -61.3759
ENERGY: 900000 1.1166 11.5872 2.7094 0.0000 -10498.9070 1404.3035 0.0000 0.0000 1688.5525 -7390.6378 292.2002 -9079.1904 -7332.0787 301.6215 72.3858 132.8061 29730.0157 -105.5757 -46.0031
ENERGY: 1200000 1.5453 8.5683 2.7306 0.0000 -10503.8232 1421.3099 0.0000 0.0000 1758.1343 -7311.5348 304.2412 -9069.6692 -7348.0568 300.5883 36.1127 126.7268 29607.8033 -52.3171 8.1083
ENERGY: 1500000 1.6193 8.0797 3.0569 0.0000 -10594.0338 1477.8902 0.0000 0.0000 1736.9502 -7366.4374 300.5754 -9103.3877 -7345.4268 301.6750 423.3591 527.2616 30016.5410 -33.9620 34.3926
TCL: Running FEP window  11: Lambda1 0.49999999999999994 Lambda2 0.5499999999999999 [dLambda 0.04999999999999999]
TCL: Setting parameter firsttimestep to 0
TCL: Setting parameter alchLambda to 0.49999999999999994
Info: NONBONDED TABLE R-SQUARED SPACING: 0.0625
Info: NONBONDED TABLE SIZE: 705 POINTS
TCL: Setting parameter alchLambda2 to 0.5499999999999999
Info: NONBONDED TABLE R-SQUARED SPACING: 0.0625
Info: NONBONDED TABLE SIZE: 705 POINTS
TCL: Running for 1500000 steps
ETITLE: TS BOND ANGLE DIHED IMPRP ELECT VDW BOUNDARY MISC KINETIC TOTAL TEMP POTENTIAL TOTALAVG TEMPAVG PRESSURE GPRESSURE VOLUME PRESSAVG GPRESSAVG
ENERGY: 0 1.6193 8.0797 3.0569 0.0000 -10594.0329 1477.5481 0.0000 0.0000 1736.0753 -7367.6536 300.4240 -9103.7289 -7367.6536 300.4240 435.9415 527.2403 30016.5410 435.9415 527.2403
ENERGY: 300000 1.1378 9.4115 2.7932 0.0000 -10477.9802 1392.7614 0.0000 0.0000 1736.7044 -7335.1719 300.5328 -9071.8763 -7359.1570 301.4147 -209.1956 -154.8452 29948.7382 272.5031 335.8708
ENERGY: 600000 0.6843 8.0325 2.8308 0.0000 -10457.2760 1342.4428 0.0000 0.0000 1739.2703 -7364.0154 300.9768 -9103.2857 -7360.6462 300.8883 -613.8285 -640.0331 29952.1327 0.7261 47.9474
ENERGY: 900000 0.3361 5.5896 2.8192 0.0000 -10654.4988 1486.9994 0.0000 0.0000 1693.8927 -7464.8618 293.1243 -9158.7545 -7365.4604 301.1518 721.3961 813.6121 29171.1860 13.7347 81.7641
ENERGY: 1200000 2.0822 4.1001 3.2281 0.0000 -10488.6679 1357.3323 0.0000 0.0000 1733.1002 -7388.8250 299.9091 -9121.9252 -7364.1544 300.8155 -478.2338 -402.0396 29642.8660 -78.7335 -11.0023
ENERGY: 1500000 0.5807 8.2109 3.5775 0.0000 -10482.3171 1383.1403 0.0000 0.0000 1778.2688 -7308.5388 307.7254 -9086.8076 -7365.9239 301.4122 -171.4253 -115.9567 29820.0802 -49.0507 15.7281
TCL: Running FEP window  12: Lambda1 0.5499999999999999 Lambda2 0.6    [dLambda 0.050000000000000044]
TCL: Setting parameter firsttimestep to 0
TCL: Setting parameter alchLambda to 0.5499999999999999
Info: NONBONDED TABLE R-SQUARED SPACING: 0.0625
Info: NONBONDED TABLE SIZE: 705 POINTS
TCL: Setting parameter alchLambda2 to 0.6
Info: NONBONDED TABLE R-SQUARED SPACING: 0.0625
Info: NONBONDED TABLE SIZE: 705 POINTS
TCL: Running for 1500000 steps
ETITLE: TS BOND ANGLE DIHED IMPRP ELECT VDW BOUNDARY MISC KINETIC TOTAL TEMP POTENTIAL TOTALAVG TEMPAVG PRESSURE GPRESSURE VOLUME PRESSAVG GPRESSAVG
ENERGY: 0 0.5807 8.2109 3.5775 0.0000 -10482.6235 1382.8384 0.0000 0.0000 1777.3954 -7310.0206 307.5743 -9087.4160 -7310.0206 307.5743 -200.9223 -112.5498 29820.0802 -200.9223 -112.5498
ENERGY: 300000 3.1947 9.7761 3.4790 0.0000 -10525.6829 1434.9403 0.0000 0.0000 1707.9625 -7366.3303 295.5591 -9074.2928 -7318.0866 304.7099 124.1461 189.4638 29699.3336 89.3670 159.4333
ENERGY: 600000 1.3713 9.9163 2.4681 0.0000 -10520.2515 1381.0572 0.0000 0.0000 1769.9686 -7355.4698 306.2891 -9125.4385 -7334.8838 304.3270 -334.4749 -304.7264 29928.0709 5.0582 71.9038
ENERGY: 900000 1.0232 10.8322 3.4327 0.0000 -10640.0143 1468.4688 0.0000 0.0000 1731.6216 -7424.6358 299.6532 -9156.2574 -7354.6243 303.4670 -88.5280 41.8462 29961.6977 11.3500 83.2427
ENERGY: 1200000 1.1216 4.3420 2.3045 0.0000 -10436.9735 1355.3671 0.0000 0.0000 1690.2692 -7383.5690 292.4973 -9073.8382 -7353.3401 302.6570 -585.6170 -561.5914 30363.8518 -64.9490 5.4806
ENERGY: 1500000 2.0170 9.5374 2.9914 0.0000 -10490.0926 1389.5136 0.0000 0.0000 1750.7328 -7335.3004 302.9604 -9086.0332 -7352.0435 303.1290 -256.7469 -251.8008 30169.1537 -101.0886 -31.6239
TCL: Running FEP window  13: Lambda1 0.6    Lambda2 0.65   [dLambda 0.050000000000000044]
TCL: Setting parameter firsttimestep to 0
TCL: Setting parameter alchLambda to 0.6
Info: NONBONDED TABLE R-SQUARED SPACING: 0.0625
Info: NONBONDED TABLE SIZE: 705 POINTS
TCL: Setting parameter alchLambda2 to 0.65
Info: NONBONDED TABLE R-SQUARED SPACING: 0.0625
Info: NONBONDED TABLE SIZE: 705 POINTS
TCL: Running for 1500000 steps
ETITLE: TS BOND ANGLE DIHED IMPRP ELECT VDW BOUNDARY MISC KINETIC TOTAL TEMP POTENTIAL TOTALAVG TEMPAVG PRESSURE GPRESSURE VOLUME PRESSAVG GPRESSAVG
ENERGY: 0 2.0170 9.5374 2.9914 0.0000 -10490.4053 1389.4725 0.0000 0.0000 1749.8170 -7336.5701 302.8019 -9086.3871 -7336.5701 302.8019 -324.7393 -246.4852 30169.1537 -324.7393 -246.4852
ENERGY: 300000 4.3640 4.5090 2.1906 0.0000 -10432.5349 1426.0349 0.0000 0.0000 1679.6941 -7315.7422 290.6673 -8995.4363 -7335.7895 299.1197 143.9562 198.4111 30365.3954 -46.7458 13.1778
ENERGY: 600000 1.2745 9.0274 5.3086 0.0000 -10522.0783 1383.0656 0.0000 0.0000 1753.9918 -7369.4104 303.5244 -9123.4022 -7351.6290 300.7079 -343.2005 -260.1868 29935.3059 -84.8199 -31.3653
ENERGY: 900000 3.2510 10.1746 2.4459 0.0000 -10572.3178 1432.1216 0.0000 0.0000 1767.7682 -7356.5565 305.9083 -9124.3247 -7359.6004 300.2798 27.5070 98.3068 29802.1183 -94.9709 -37.9261
ENERGY: 1200000 2.9431 5.7244 2.1636 0.0000 -10387.8182 1333.0179 0.0000 0.0000 1720.2884 -7323.6809 297.6921 -9043.9693 -7353.7265 300.2932 -490.0584 -410.8576 29738.1526 -175.5449 -115.0958
ENERGY: 1500000 3.9934 5.3181 2.9172 0.0000 -10478.1473 1425.7964 0.0000 0.0000 1699.9044 -7340.2179 294.1647 -9040.1223 -7349.0575 300.5854 106.8911 182.4344 29758.2150 -159.9196 -100.0288
TCL: Running FEP window  14: Lambda1 0.65   Lambda2 0.7000000000000001 [dLambda 0.050000000000000044]
TCL: Setting parameter firsttimestep to 0
TCL: Setting parameter alchLambda to 0.65
Info: NONBONDED TABLE R-SQUARED SPACING: 0.0625
Info: NONBONDED TABLE SIZE: 705 POINTS
TCL: Setting parameter alchLambda2 to 0.7000000000000001
Info: NONBONDED TABLE R-SQUARED SPACING: 0.0625
Info: NONBONDED TABLE SIZE: 705 POINTS
TCL: Running for 1500000 steps
ETITLE: TS BOND ANGLE DIHED IMPRP ELECT VDW BOUNDARY MISC KINETIC TOTAL TEMP POTENTIAL TOTALAVG TEMPAVG PRESSURE GPRESSURE VOLUME PRESSAVG GPRESSAVG
ENERGY: 0 3.9934 5.3181 2.9172 0.0000 -10478.4662 1426.0929 0.0000 0.0000 1699.0182 -7341.1264 294.0113 -9040.1446 -7341.1264 294.0113 102.6551 193.2234 29758.2150 102.6551 193.2234
ENERGY: 300000 0.5393 6.9109 2.7527 0.0000 -10433.8920 1362.5093 0.0000 0.0000 1691.0858 -7370.0940 292.6386 -9061.1799 -7325.9653 299.2326 -338.8313 -293.4365 30018.9221 -309.2932 -252.5884
ENERGY: 600000 0.5596 10.7163 2.5836 0.0000 -10559.9665 1395.5179 0.0000 0.0000 1695.7110 -7454.8781 293.4390 -9150.5891 -7359.7158 299.3088 -303.2663 -195.6220 29831.5729 -295.1720 -234.5445
ENERGY: 900000 1.8740 9.6296 2.3947 0.0000 -10480.1197 1425.5279 0.0000 0.0000 1704.2850 -7336.4086 294.9227 -9040.6935 -7344.1800 299.3125 23.4621 139.5824 30037.3809 -286.1957 -228.4498
ENERGY: 1200000 1.7817 7.8442 2.3704 0.0000 -10619.9977 1421.3109 0.0000 0.0000 1750.6290 -7436.0615 302.9424 -9186.6905 -7353.5029 299.9080 -281.3742 -205.8417 29805.4536 -292.6583 -230.5764
ENERGY: 1500000 2.5398 6.2361 2.5094 0.0000 -10481.8139 1406.7629 0.0000 0.0000 1771.4689 -7292.2969 306.5487 -9063.7658 -7346.7135 301.0990 -337.3509 -239.3801 30139.9544 -314.2496 -251.9754
TCL: Running FEP window  15: Lambda1 0.7000000000000001 Lambda2 0.7500000000000001 [dLambda 0.050000000000000044]
TCL: Setting parameter firsttimestep to 0
TCL: Setting parameter alchLambda to 0.7000000000000001
Info: NONBONDED TABLE R-SQUARED SPACING: 0.0625
Info: NONBONDED TABLE SIZE: 705 POINTS
TCL: Setting parameter alchLambda2 to 0.7500000000000001
Info: NONBONDED TABLE R-SQUARED SPACING: 0.0625
Info: NONBONDED TABLE SIZE: 705 POINTS
TCL: Running for 1500000 steps
ETITLE: TS BOND ANGLE DIHED IMPRP ELECT VDW BOUNDARY MISC KINETIC TOTAL TEMP POTENTIAL TOTALAVG TEMPAVG PRESSURE GPRESSURE VOLUME PRESSAVG GPRESSAVG
ENERGY: 0 2.5398 6.2361 2.5094 0.0000 -10481.8957 1406.8841 0.0000 0.0000 1770.6091 -7293.1173 306.3999 -9063.7264 -7293.1173 306.3999 -317.9245 -227.9564 30139.9544 -317.9245 -227.9564
ENERGY: 300000 2.2945 10.2184 2.1793 0.0000 -10496.7034 1362.6957 0.0000 0.0000 1765.4762 -7353.8393 305.5117 -9119.3155 -7325.3281 305.3549 -305.4631 -258.8635 29502.8996 -219.8357 -167.4146
ENERGY: 600000 1.4253 6.3710 2.6948 0.0000 -10534.3505 1392.5939 0.0000 0.0000 1740.6926 -7390.5729 301.2230 -9131.2656 -7349.0319 302.7008 -120.4230 -107.4321 29712.3554 -163.7997 -115.6070
ENERGY: 900000 3.3691 5.2677 2.5795 0.0000 -10537.8396 1396.1345 0.0000 0.0000 1764.0614 -7366.4273 305.2669 -9130.4888 -7360.7394 301.2220 -532.7317 -436.7751 30191.3108 -121.4347 -77.8353
ENERGY: 1200000 0.9224 11.3204 2.9319 0.0000 -10438.1407 1366.3841 0.0000 0.0000 1727.6631 -7328.9187 298.9682 -9056.5818 -7367.7015 300.5778 -312.7093 -261.4890 29931.1003 -57.6925 -2.4845
ENERGY: 1500000 0.6777 7.3071 2.6724 0.0000 -10581.6902 1491.3754 0.0000 0.0000 1765.2016 -7314.4560 305.4642 -9079.6576 -7374.4647 300.1963 670.5942 742.0161 29902.1693 -91.9171 -35.5023
TCL: Running FEP window  16: Lambda1 0.7500000000000001 Lambda2 0.8000000000000002 [dLambda 0.050000000000000044]
TCL: Setting parameter firsttimestep to 0
TCL: Setting parameter alchLambda to 0.7500000000000001
Info: NONBONDED TABLE R-SQUARED SPACING: 0.0625
Info: NONBONDED TABLE SIZE: 705 POINTS
TCL: Setting parameter alchLambda2 to 0.8000000000000002
Info: NONBONDED TABLE R-SQUARED SPACING: 0.0625
Info: NONBONDED TABLE SIZE: 705 POINTS
TCL: Running for 1500000 steps
ETITLE: TS BOND ANGLE DIHED IMPRP ELECT VDW BOUNDARY MISC KINETIC TOTAL TEMP POTENTIAL TOTALAVG TEMPAVG PRESSURE GPRESSURE VOLUME PRESSAVG GPRESSAVG
ENERGY: 0 0.6777 7.3071 2.6724 0.0000 -10582.3182 1491.3557 0.0000 0.0000 1764.3480 -7315.9572 305.3165 -9080.3052 -7315.9572 305.3165 649.9620 748.0648 29902.1693 649.9620 748.0648
ENERGY: 300000 2.6311 8.5274 2.9563 0.0000 -10605.4170 1497.0187 0.0000 0.0000 1700.9412 -7393.3422 294.3441 -9094.2834 -7379.4279 295.8612 500.8200 588.5298 29891.7102 92.5909 153.9892
ENERGY: 600000 0.8428 8.4808 2.9581 0.0000 -10401.6758 1342.9207 0.0000 0.0000 1792.0200 -7254.4535 310.1050 -9046.4734 -7357.4631 299.5030 -361.5500 -309.5078 29680.8104 -13.0042 40.8320
ENERGY: 900000 2.2050 4.6588 2.4214 0.0000 -10562.6795 1395.9042 0.0000 0.0000 1749.9580 -7407.5323 302.8263 -9157.4902 -7372.4199 299.8787 -383.7664 -291.4631 29681.3954 -119.0140 -47.4929
ENERGY: 1200000 1.8215 7.2170 2.5436 0.0000 -10585.4609 1449.5274 0.0000 0.0000 1776.5440 -7347.8075 307.4270 -9124.3514 -7379.2806 299.7809 58.7404 146.9056 29977.6164 -27.8142 31.8840
ENERGY: 1500000 0.7656 9.4584 2.1912 0.0000 -10440.8900 1418.4452 0.0000 0.0000 1689.8994 -7320.1302 292.4333 -9010.0297 -7365.5062 300.7543 152.7358 246.5685 29913.3027 3.0241 62.1310
TCL: Running FEP window  17: Lambda1 0.8000000000000002 Lambda2 0.8500000000000002 [dLambda 0.050000000000000044]
TCL: Setting parameter firsttimestep to 0
TCL: Setting parameter alchLambda to 0.8000000000000002
Info: NONBONDED TABLE R-SQUARED SPACING: 0.0625
Info: NONBONDED TABLE SIZE: 705 POINTS
TCL: Setting parameter alchLambda2 to 0.8500000000000002
Info: NONBONDED TABLE R-SQUARED SPACING: 0.0625
Info: NONBONDED TABLE SIZE: 705 POINTS
TCL: Running for 1500000 steps
ETITLE: TS BOND ANGLE DIHED IMPRP ELECT VDW BOUNDARY MISC KINETIC TOTAL TEMP POTENTIAL TOTALAVG TEMPAVG PRESSURE GPRESSURE VOLUME PRESSAVG GPRESSAVG
ENERGY: 0 0.7656 9.4584 2.1912 0.0000 -10441.5549 1418.7758 0.0000 0.0000 1689.0524 -7321.3116 292.2867 -9010.3640 -7321.3116 292.2867 159.2643 257.0273 29913.3027 159.2643 257.0273
ENERGY: 300000 3.1638 4.5390 2.2138 0.0000 -10480.6889 1383.1897 0.0000 0.0000 1764.5999 -7322.9827 305.3601 -9087.5826 -7312.6505 296.5198 -494.3390 -492.4845 30348.2809 -397.3888 -326.3426
ENERGY: 600000 2.2827 5.3634 2.3552 0.0000 -10506.3575 1374.6247 0.0000 0.0000 1775.3047 -7346.4268 307.2125 -9121.7315 -7334.3069 297.3652 -559.5283 -479.3077 30142.9957 -326.6675 -252.6434
ENERGY: 900000 2.6321 7.1091 2.9128 0.0000 -10709.7486 1560.8403 0.0000 0.0000 1714.8241 -7421.4302 296.7465 -9136.2543 -7343.3102 297.7178 1168.9333 1218.2788 29337.1290 -212.8062 -145.6797
ENERGY: 1200000 1.3275 7.5831 2.3357 0.0000 -10564.4467 1435.0768 0.0000 0.0000 1702.6678 -7415.4559 294.6428 -9118.1237 -7353.0147 297.7252 73.0727 120.5232 29571.4866 -173.3098 -113.8910
ENERGY: 1500000 2.0214 6.4124 2.5039 0.0000 -10618.1463 1464.8813 0.0000 0.0000 1706.5667 -7435.7605 295.3175 -9142.3272 -7354.0310 297.2612 413.1038 418.3941 29717.7865 -165.3055 -107.4841
TCL: Running FEP window  18: Lambda1 0.8500000000000002 Lambda2 0.9000000000000002 [dLambda 0.050000000000000044]
TCL: Setting parameter firsttimestep to 0
TCL: Setting parameter alchLambda to 0.8500000000000002
Info: NONBONDED TABLE R-SQUARED SPACING: 0.0625
Info: NONBONDED TABLE SIZE: 705 POINTS
TCL: Setting parameter alchLambda2 to 0.9000000000000002
Info: NONBONDED TABLE R-SQUARED SPACING: 0.0625
Info: NONBONDED TABLE SIZE: 705 POINTS
TCL: Running for 1500000 steps
ETITLE: TS BOND ANGLE DIHED IMPRP ELECT VDW BOUNDARY MISC KINETIC TOTAL TEMP POTENTIAL TOTALAVG TEMPAVG PRESSURE GPRESSURE VOLUME PRESSAVG GPRESSAVG
ENERGY: 0 2.0214 6.4124 2.5039 0.0000 -10618.4311 1465.4559 0.0000 0.0000 1705.7061 -7436.3314 295.1686 -9142.0374 -7436.3314 295.1686 354.1701 437.7810 29717.7865 354.1701 437.7810
ENERGY: 300000 0.9836 7.4088 2.8736 0.0000 -10639.3934 1513.1301 0.0000 0.0000 1779.3433 -7335.6540 307.9114 -9114.9973 -7391.7868 300.9803 1116.4563 1121.9443 29312.8314 569.5766 619.9027
ENERGY: 600000 0.9789 8.2694 2.4369 0.0000 -10475.0891 1406.4136 0.0000 0.0000 1661.7318 -7395.2584 287.5590 -9056.9903 -7367.0499 299.8584 41.7098 65.1329 29913.1648 269.1125 328.9594
ENERGY: 900000 4.3347 5.4625 2.5863 0.0000 -10447.3044 1412.5646 0.0000 0.0000 1677.6857 -7344.6704 290.3198 -9022.3562 -7376.8018 298.2144 76.9506 118.3965 29764.4608 109.3341 172.4642
ENERGY: 1200000 2.3379 7.5564 2.7916 0.0000 -10600.4757 1451.8089 0.0000 0.0000 1691.5498 -7444.4310 292.7189 -9135.9809 -7375.8857 297.1943 161.2317 193.4167 29666.9306 50.6153 105.7950
ENERGY: 1500000 1.3400 9.2630 2.1757 0.0000 -10319.9410 1267.7857 0.0000 0.0000 1724.1941 -7315.1826 298.3679 -9039.3767 -7365.4484 298.5371 -1195.8748 -1058.3097 30389.9034 -3.5662 55.8632
TCL: Running FEP window  19: Lambda1 0.9000000000000002 Lambda2 0.9500000000000003 [dLambda 0.050000000000000044]
TCL: Setting parameter firsttimestep to 0
TCL: Setting parameter alchLambda to 0.9000000000000002
Info: NONBONDED TABLE R-SQUARED SPACING: 0.0625
Info: NONBONDED TABLE SIZE: 705 POINTS
TCL: Setting parameter alchLambda2 to 0.9500000000000003
Info: NONBONDED TABLE R-SQUARED SPACING: 0.0625
Info: NONBONDED TABLE SIZE: 705 POINTS
TCL: Running for 1500000 steps
ETITLE: TS BOND ANGLE DIHED IMPRP ELECT VDW BOUNDARY MISC KINETIC TOTAL TEMP POTENTIAL TOTALAVG TEMPAVG PRESSURE GPRESSURE VOLUME PRESSAVG GPRESSAVG
ENERGY: 0 1.3400 9.2630 2.1757 0.0000 -10320.9284 1268.3597 0.0000 0.0000 1723.3119 -7316.4782 298.2153 -9039.7901 -7316.4782 298.2153 -1143.6279 -1046.7295 30389.9034 -1143.6279 -1046.7295
ENERGY: 300000 1.1022 7.5143 3.1667 0.0000 -10617.7587 1406.0890 0.0000 0.0000 1775.8041 -7424.0824 307.2989 -9199.8865 -7374.8623 301.0096 -325.2219 -198.9231 29810.7158 -272.1942 -191.4314
ENERGY: 600000 1.6273 4.6747 2.2707 0.0000 -10368.3497 1288.2236 0.0000 0.0000 1754.6050 -7316.9485 303.6305 -9071.5535 -7384.3168 300.2300 -1317.1522 -1217.8824 30644.9650 -443.9013 -382.2921
ENERGY: 900000 0.6943 7.4107 2.6992 0.0000 -10484.4524 1360.2129 0.0000 0.0000 1779.3341 -7334.1012 307.9098 -9113.4353 -7378.7234 299.6858 -376.1191 -303.1766 29675.2062 -435.2022 -371.9708
ENERGY: 1200000 1.8587 15.5652 2.4224 0.0000 -10561.0282 1389.3983 0.0000 0.0000 1733.8259 -7417.9576 300.0347 -9151.7836 -7373.7133 300.8424 -420.1364 -269.4166 29805.6162 -354.5653 -284.2742
ENERGY: 1500000 3.4235 6.6611 2.5529 0.0000 -10515.8554 1408.8838 0.0000 0.0000 1776.8137 -7317.5205 307.4736 -9094.3342 -7363.7178 301.3928 -190.7166 -115.7986 30113.7048 -343.8145 -267.4980
TCL: Running FEP window  20: Lambda1 0.9500000000000003 Lambda2 1.0    [dLambda 0.04999999999999971]
TCL: Setting parameter firsttimestep to 0
TCL: Setting parameter alchLambda to 0.9500000000000003
Info: NONBONDED TABLE R-SQUARED SPACING: 0.0625
Info: NONBONDED TABLE SIZE: 705 POINTS
TCL: Setting parameter alchLambda2 to 1.0
Info: NONBONDED TABLE R-SQUARED SPACING: 0.0625
Info: NONBONDED TABLE SIZE: 705 POINTS
TCL: Running for 1500000 steps
ETITLE: TS BOND ANGLE DIHED IMPRP ELECT VDW BOUNDARY MISC KINETIC TOTAL TEMP POTENTIAL TOTALAVG TEMPAVG PRESSURE GPRESSURE VOLUME PRESSAVG GPRESSAVG
ENERGY: 0 3.4235 6.6611 2.5529 0.0000 -10516.5918 1408.9554 0.0000 0.0000 1775.9840 -7319.0149 307.3301 -9094.9990 -7319.0149 307.3301 -197.4940 -106.2511 30113.7048 -197.4940 -106.2511
ENERGY: 300000 1.9602 10.7932 3.5697 0.0000 -10480.9825 1344.3975 0.0000 0.0000 1726.2732 -7393.9887 298.7277 -9120.2619 -7390.5214 300.2817 -807.3853 -787.1721 30321.8558 -321.0506 -269.3689
ENERGY: 600000 0.8263 6.8179 2.7043 0.0000 -10508.8556 1375.4943 0.0000 0.0000 1678.7836 -7444.2293 290.5097 -9123.0128 -7379.6944 297.8994 -336.3612 -319.2106 29835.0295 -189.7304 -136.1165
ENERGY: 900000 2.7155 9.3361 2.5068 0.0000 -10535.2499 1371.2744 0.0000 0.0000 1706.3289 -7443.0883 295.2764 -9149.4171 -7383.1146 298.2728 -546.3286 -468.0730 29731.3187 -246.4451 -186.3119
ENERGY: 1200000 2.9189 7.4730 3.0116 0.0000 -10577.8210 1456.8757 0.0000 0.0000 1765.6949 -7341.8469 305.5496 -9107.5418 -7372.5935 299.2622 369.1730 438.6215 29816.4085 -149.9175 -85.2261
ENERGY: 1500000 0.7146 7.3606 2.5185 0.0000 -10646.0191 1470.8800 0.0000 0.0000 1763.0133 -7401.5321 305.0855 -9164.5454 -7367.0388 300.3700 194.3159 188.3231 30231.1774 -107.9461 -45.1311
TCL: Exiting due to exit command.
