Info: SIMULATION PARAMETERS:
Info: TIMESTEP               2
Info: NUMBER OF STEPS        0
Info: STEPS PER CYCLE        10
Info: PERIODIC CELL BASIS 1  31.3073 0 0
Info: PERIODIC CELL BASIS 2  0 30.6366 0
Info: PERIODIC CELL BASIS 3  0 0 32.3705
Info: PERIODIC CELL CENTER   0 0 0
Info: WRAPPING WATERS AROUND PERIODIC BOUNDARIES ON OUTPUT.
Info: WRAPPING ALL CLUSTERS AROUND PERIODIC BOUNDARIES ON OUTPUT.
Info: FIRST LDB TIMESTEP     50
Info: LAST LDB TIMESTEP     -1
Info: HOM BACKGROUND SCALING 1
Info: PME BACKGROUND SCALING 1
Info: MIN ATOMS PER PATCH    40
Info: EMPTY PATCH LOAD       40 ATOMS
Info: VELOCITY FILE          mobley_6190089_equil.vel
Info: CENTER OF MASS MOVING INITIALLY? NO
Info: DIELECTRIC             1
Info: EXCLUDE                SCALED ONE-FOUR
Info: 1-4 ELECTROSTATICS SCALED BY 0.833333
Info: MODIFIED 1-4 VDW PARAMETERS WILL BE USED
Info: DCD FILENAME           mobley_6190089_prod.dcd
Info: DCD FREQUENCY          100000
Info: DCD FIRST STEP         100000
Info: DCD FILE WILL CONTAIN UNIT CELL DATA
Info: XST FILENAME           mobley_6190089_prod.xst
Info: XST FREQUENCY          100000
Info: NO VELOCITY DCD OUTPUT
Info: NO FORCE DCD OUTPUT
Info: OUTPUT FILENAME        mobley_6190089_prod
Info: BINARY OUTPUT FILES WILL BE USED
Info: RESTART FILENAME       mobley_6190089_prod.restart
Info: RESTART FREQUENCY      100000
Info: BINARY RESTART FILES WILL BE USED
Info: CUTOFF                 9
Info: PAIRLIST DISTANCE      11
Info: PAIRLIST SHRINK RATE   0.01
Info: PAIRLIST GROW RATE     0.01
Info: PAIRLIST TRIGGER       0.3
Info: PAIRLISTS PER CYCLE    2
Info: PAIRLISTS ENABLED
Info: MARGIN                 2
Info: HYDROGEN GROUP CUTOFF  2.5
Info: PATCH DIMENSION        15.5
Info: ENERGY OUTPUT STEPS    100000
Info: ENERGY EVALUATION STEPS    100000
Info: OUTPUT ENERGY PRECISION 4
Info: CROSSTERM ENERGY INCLUDED IN DIHEDRAL
Info: TIMING OUTPUT STEPS    1000000
Info: PRESSURE OUTPUT STEPS  100000
Info: ALCHEMICAL FEP ON
Info: FEP CURRENT LAMBDA VALUE     0
Info: FEP COMPARISON LAMBDA VALUE  0.05
Info: FEP INTRA-ALCHEMICAL NON-BONDED INTERACTIONS WILL BE RETAINED
Info: FEP INTRA-ALCHEMICAL BONDED INTERACTIONS WILL BE RETAINED
Info: FEP VDW SHIFTING COEFFICIENT 5
Info: FEP ELEC. ACTIVE FOR ANNIHILATED PARTICLES BETWEEN LAMBDA = 0 AND LAMBDA = 0.5
Info: FEP ELEC. ACTIVE FOR EXNIHILATED PARTICLES BETWEEN LAMBDA = 0.5 AND LAMBDA = 1
Info: FEP VDW ACTIVE FOR ANNIHILATED PARTICLES BETWEEN LAMBDA = 0 AND LAMBDA = 1
Info: FEP VDW ACTIVE FOR EXNIHILATED PARTICLES BETWEEN LAMBDA = 0 AND LAMBDA = 1
Info: FEP BOND ACTIVE FOR ANNIHILATED PARTICLES BETWEEN LAMBDA = 1 AND LAMBDA = 1
Info: FEP BOND ACTIVE FOR EXNIHILATED PARTICLES BETWEEN LAMBDA = 0 AND LAMBDA = 0
Info: LANGEVIN DYNAMICS ACTIVE
Info: LANGEVIN TEMPERATURE   300
Info: LANGEVIN USING BBK INTEGRATOR
Info: LANGEVIN DAMPING COEFFICIENT IS 1 INVERSE PS
Info: LANGEVIN DYNAMICS APPLIED TO HYDROGENS
Info: LANGEVIN PISTON PRESSURE CONTROL ACTIVE
Info:        TARGET PRESSURE IS 1.01325 BAR
Info:     OSCILLATION PERIOD IS 50 FS
Info:             DECAY TIME IS 25 FS
Info:     PISTON TEMPERATURE IS 300 K
Info:       PRESSURE CONTROL IS GROUP-BASED
Info:    INITIAL STRAIN RATE IS 0.000198355 0.000198355 0.000198355
Info:       CELL FLUCTUATION IS ISOTROPIC
Info: PARTICLE MESH EWALD (PME) ACTIVE
Info: PME TOLERANCE               1e-06
Info: PME EWALD COEFFICIENT       0.348832
Info: PME INTERPOLATION ORDER     4
Info: PME GRID DIMENSIONS         32 32 36
Info: PME MAXIMUM GRID SPACING    1
Info: PME CALCULATION WILL BE PERFORMED ON GPU
Info: FULL ELECTROSTATIC EVALUATION FREQUENCY      2
Info: USING VERLET I (r-RESPA) MTS SCHEME.
Info: C1 SPLITTING OF LONG RANGE ELECTROSTATICS
Info: PLACING ATOMS IN PATCHES BY HYDROGEN GROUPS
Info: RIGID BONDS TO HYDROGEN : ALL
Info:         ERROR TOLERANCE : 1e-08
Info:          MAX ITERATIONS : 100
Info: RIGID WATER USING SETTLE ALGORITHM
Info: RANDOM NUMBER SEED     1743671798
Info: USE HYDROGEN BONDS?    NO
Info: Using AMBER format force field!
Info: AMBER PARM FILE        mobley_6190089.prmtop
Info: COORDINATE PDB         mobley_6190089.pdb
Info: Exclusions will be read from PARM file!
Info: SCNB (VDW SCALING)     2
Info: USING ARITHMETIC MEAN TO COMBINE L-J SIGMA PARAMETERS
Info: BINARY COORDINATES     mobley_6190089_equil.coor
Info: SUMMARY OF PARAMETERS:
Info: 5 BONDS
Info: 4 ANGLES
Info:   4 HARMONIC
Info:   0 COSINE-BASED
Info: 3 DIHEDRAL
Info: 0 IMPROPER
Info: 0 CROSSTERM
Info: 0 VDW
Info: 15 VDW_PAIRS
Info: 0 NBTHOLE_PAIRS
Info: To read alchdata from file: mobley_6190089.pdb
Info: To read alchflag data from column: 5
Info: STRUCTURE SUMMARY:
Info: 2978 ATOMS
Info: 2977 BONDS
Info: 12 ANGLES
Info: 13 DIHEDRALS
Info: 0 IMPROPERS
Info: 0 CROSSTERMS
Info: 2998 EXCLUSIONS
Info: 2972 RIGID BONDS
Info: ALCH: 0 ATOMS TO DISAPPEAR IN FINAL STATE
Info: ALCH: 8 ATOMS TO APPEAR IN FINAL STATE
Info: 5962 DEGREES OF FREEDOM
Info: 996 HYDROGEN GROUPS
Info: 3 ATOMS IN LARGEST HYDROGEN GROUP
Info: 996 MIGRATION GROUPS
Info: 3 ATOMS IN LARGEST MIGRATION GROUP
Info: TOTAL MASS = 18003.7 amu
Info: TOTAL CHARGE = -0.000199974 e
Info: MASS DENSITY = 0.962907 g/cm^3
Info: ATOM DENSITY = 0.0959155 atoms/A^3
Info: ADDED 0 IMPLICIT EXCLUSIONS
Info: NONBONDED TABLE R-SQUARED SPACING: 0.0625
Info: NONBONDED TABLE SIZE: 705 POINTS
Info: REMOVING COM VELOCITY -0.000709865 0.229424 -0.221904
Info: Use 3D box decompostion in PME FFT.
Info: Updated CUDA force table with 4096 elements.
Info: Updated CUDA LJ table with 5 x 5 elements.
Info: Found 11 unique exclusion lists needing 16 bytes
TCL: Running for 1500000 steps
ETITLE: TS BOND ANGLE DIHED IMPRP ELECT VDW BOUNDARY MISC KINETIC TOTAL TEMP POTENTIAL TOTALAVG TEMPAVG PRESSURE GPRESSURE VOLUME PRESSAVG GPRESSAVG
ENERGY: 0 5.0142 4.9163 1.7537 0.0000 -10733.4818 1447.5176 0.0000 0.0000 1798.2179 -7476.0620 303.5573 -9274.2800 -7476.0620 303.5573 -179.6545 -100.1144 31048.1687 -179.6545 -100.1144
ENERGY: 300000 1.2508 2.3327 1.7513 0.0000 -10824.7253 1432.9626 0.0000 0.0000 1784.9196 -7601.5083 301.3124 -9386.4278 -7578.1809 299.8246 -251.6183 -182.9071 30639.9169 -276.4860 -197.6754
ENERGY: 600000 0.9923 3.0508 2.4610 0.0000 -10728.2961 1398.0624 0.0000 0.0000 1817.2348 -7506.4948 306.7676 -9323.7296 -7573.5299 300.6993 -444.6076 -372.7171 30953.7289 -82.7083 -20.8734
ENERGY: 900000 2.3004 2.8258 2.2767 0.0000 -10761.7829 1417.6980 0.0000 0.0000 1762.5636 -7574.1184 297.5385 -9336.6820 -7571.5836 300.6311 -462.6952 -389.0794 30887.7216 -165.4821 -97.6490
ENERGY: 1200000 0.8720 3.1221 2.5489 0.0000 -10757.6912 1408.2357 0.0000 0.0000 1732.3197 -7610.5926 292.4331 -9342.9124 -7573.3040 300.3499 -481.7518 -443.0358 30764.5379 -165.8750 -99.7505
ENERGY: 1500000 3.7802 2.7027 2.3177 0.0000 -10771.1326 1461.9505 0.0000 0.0000 1761.9849 -7538.3965 297.4408 -9300.3814 -7579.6622 299.0345 -53.7762 82.2844 30534.6379 -134.4893 -65.0137
TCL: Running FEP window   2: Lambda1 0.05   Lambda2 0.1    [dLambda 0.05  ]
TCL: Setting parameter firsttimestep to 0
TCL: Setting parameter alchLambda to 0.05
Info: NONBONDED TABLE R-SQUARED SPACING: 0.0625
Info: NONBONDED TABLE SIZE: 705 POINTS
TCL: Setting parameter alchLambda2 to 0.1
Info: NONBONDED TABLE R-SQUARED SPACING: 0.0625
Info: NONBONDED TABLE SIZE: 705 POINTS
TCL: Running for 1500000 steps
ETITLE: TS BOND ANGLE DIHED IMPRP ELECT VDW BOUNDARY MISC KINETIC TOTAL TEMP POTENTIAL TOTALAVG TEMPAVG PRESSURE GPRESSURE VOLUME PRESSAVG GPRESSAVG
ENERGY: 0 3.7802 2.7027 2.3177 0.0000 -10771.1322 1464.0863 0.0000 0.0000 1761.1193 -7537.1260 297.2947 -9298.2453 -7537.1260 297.2947 -0.7543 92.0847 30534.6379 -0.7543 92.0847
ENERGY: 300000 2.7968 1.3627 2.3297 0.0000 -10683.3388 1410.3889 0.0000 0.0000 1727.6298 -7538.8309 291.6413 -9266.4607 -7561.1872 294.6388 -180.5677 -118.7508 30872.6843 257.9258 333.7198
ENERGY: 600000 2.2943 3.2916 1.5056 0.0000 -10801.1044 1480.8417 0.0000 0.0000 1768.9252 -7544.2460 298.6124 -9313.1712 -7519.0091 298.8958 -4.7691 11.9980 31086.1582 133.9859 190.6870
ENERGY: 900000 1.4757 1.7107 2.4278 0.0000 -10884.8402 1496.8614 0.0000 0.0000 1746.3168 -7636.0479 294.7959 -9382.3646 -7553.1555 298.1760 439.6373 520.7814 30398.4150 289.5274 347.8715
ENERGY: 1200000 4.4812 3.1212 2.2343 0.0000 -10712.8385 1400.5988 0.0000 0.0000 1792.8953 -7509.5077 302.6588 -9302.4030 -7546.5636 298.1329 -114.6810 -110.1421 30485.3760 186.4060 244.9989
ENERGY: 1500000 3.0944 3.7631 2.2922 0.0000 -10686.1762 1412.7615 0.0000 0.0000 1723.8542 -7540.4108 291.0040 -9264.2650 -7553.8207 297.4313 -363.0968 -286.8485 30712.6502 99.7673 157.1271
TCL: Running FEP window   3: Lambda1 0.1    Lambda2 0.15000000000000002 [dLambda 0.05000000000000002]
TCL: Setting parameter firsttimestep to 0
TCL: Setting parameter alchLambda to 0.1
Info: NONBONDED TABLE R-SQUARED SPACING: 0.0625
Info: NONBONDED TABLE SIZE: 705 POINTS
TCL: Setting parameter alchLambda2 to 0.15000000000000002
Info: NONBONDED TABLE R-SQUARED SPACING: 0.0625
Info: NONBONDED TABLE SIZE: 705 POINTS
TCL: Running for 1500000 steps
ETITLE: TS BOND ANGLE DIHED IMPRP ELECT VDW BOUNDARY MISC KINETIC TOTAL TEMP POTENTIAL TOTALAVG TEMPAVG PRESSURE GPRESSURE VOLUME PRESSAVG GPRESSAVG
ENERGY: 0 3.0944 3.7631 2.2922 0.0000 -10686.1767 1414.4369 0.0000 0.0000 1722.9849 -7539.6052 290.8572 -9262.5901 -7539.6052 290.8572 -354.7010 -279.2751 30712.6502 -354.7010 -279.2751
ENERGY: 300000 1.6891 6.0878 3.1890 0.0000 -10663.5871 1361.7249 0.0000 0.0000 1799.3454 -7491.5509 303.7477 -9290.8963 -7562.0646 297.6532 -762.6056 -672.7096 30746.5417 -181.2208 -139.0566
ENERGY: 600000 4.5592 1.2332 2.2605 0.0000 -10692.8493 1365.9805 0.0000 0.0000 1766.5936 -7552.2223 298.2188 -9318.8159 -7568.9228 297.7843 -753.9762 -685.3831 30669.7432 -264.3383 -213.3244
ENERGY: 900000 0.9951 7.1238 2.3242 0.0000 -10810.0551 1401.8603 0.0000 0.0000 1778.0920 -7619.6596 300.1599 -9397.7517 -7564.9747 299.4386 -526.8410 -432.8482 30350.0168 -259.4905 -205.5708
ENERGY: 1200000 3.8201 1.0273 1.6376 0.0000 -10984.1593 1559.4533 0.0000 0.0000 1755.8789 -7662.3421 296.4101 -9418.2210 -7573.3420 299.6374 566.5977 652.9472 30461.1836 -181.7674 -110.6570
ENERGY: 1500000 1.1289 4.5570 2.2405 0.0000 -10771.4213 1449.6835 0.0000 0.0000 1751.4463 -7562.3652 295.6618 -9313.8115 -7575.7947 299.0120 104.9600 101.7693 30549.5433 -181.5458 -118.7899
TCL: Running FEP window   4: Lambda1 0.15000000000000002 Lambda2 0.2    [dLambda 0.04999999999999999]
TCL: Setting parameter firsttimestep to 0
TCL: Setting parameter alchLambda to 0.15000000000000002
Info: NONBONDED TABLE R-SQUARED SPACING: 0.0625
Info: NONBONDED TABLE SIZE: 705 POINTS
TCL: Setting parameter alchLambda2 to 0.2
Info: NONBONDED TABLE R-SQUARED SPACING: 0.0625
Info: NONBONDED TABLE SIZE: 705 POINTS
TCL: Running for 1500000 steps
ETITLE: TS BOND ANGLE DIHED IMPRP ELECT VDW BOUNDARY MISC KINETIC TOTAL TEMP POTENTIAL TOTALAVG TEMPAVG PRESSURE GPRESSURE VOLUME PRESSAVG GPRESSAVG
ENERGY: 0 1.1289 4.5570 2.2405 0.0000 -10771.4219 1450.4257 0.0000 0.0000 1750.5454 -7562.5245 295.5097 -9313.0699 -7562.5245 295.5097 15.5610 105.6664 30549.5433 15.5610 105.6664
ENERGY: 300000 0.6432 3.2856 2.5151 0.0000 -10876.3623 1489.7678 0.0000 0.0000 1792.7903 -7587.3603 302.6411 -9380.1506 -7585.1671 298.1806 135.8507 149.2002 30743.6174 66.1969 112.6695
ENERGY: 600000 2.4286 2.0198 2.3539 0.0000 -10878.1272 1492.2421 0.0000 0.0000 1827.4076 -7551.6753 308.4849 -9379.0829 -7577.0207 299.7596 317.1161 376.0607 30221.7521 67.8024 127.1758
ENERGY: 900000 1.3766 3.4379 2.0181 0.0000 -10815.5071 1462.8179 0.0000 0.0000 1750.1710 -7595.6856 295.4465 -9345.8566 -7582.0736 298.8841 31.8950 102.2322 30712.0595 9.0232 70.9421
ENERGY: 1200000 2.8634 4.1259 2.6561 0.0000 -10850.1974 1473.3709 0.0000 0.0000 1767.9631 -7599.2180 298.4500 -9367.1811 -7589.3077 298.7116 -171.5988 -116.5460 31121.0193 -67.3913 -4.4676
ENERGY: 1500000 0.7800 2.0094 2.2911 0.0000 -10816.9069 1407.9452 0.0000 0.0000 1817.2186 -7586.6626 306.7648 -9403.8812 -7597.8204 298.1733 -519.3011 -490.3726 30914.1479 -147.6250 -91.4462
TCL: Running FEP window   5: Lambda1 0.2    Lambda2 0.25   [dLambda 0.04999999999999999]
TCL: Setting parameter firsttimestep to 0
TCL: Setting parameter alchLambda to 0.2
Info: NONBONDED TABLE R-SQUARED SPACING: 0.0625
Info: NONBONDED TABLE SIZE: 705 POINTS
TCL: Setting parameter alchLambda2 to 0.25
Info: NONBONDED TABLE R-SQUARED SPACING: 0.0625
Info: NONBONDED TABLE SIZE: 705 POINTS
TCL: Running for 1500000 steps
ETITLE: TS BOND ANGLE DIHED IMPRP ELECT VDW BOUNDARY MISC KINETIC TOTAL TEMP POTENTIAL TOTALAVG TEMPAVG PRESSURE GPRESSURE VOLUME PRESSAVG GPRESSAVG
ENERGY: 0 0.7800 2.0094 2.2911 0.0000 -10816.9059 1408.2498 0.0000 0.0000 1816.3469 -7587.2288 306.6177 -9403.5757 -7587.2288 306.6177 -558.4066 -483.6920 30914.1479 -558.4066 -483.6920
ENERGY: 300000 1.1018 3.1051 1.8749 0.0000 -10803.4266 1448.7099 0.0000 0.0000 1779.7923 -7568.8427 300.4469 -9348.6350 -7561.6839 302.8832 7.1186 22.4132 30653.9286 -284.5741 -266.4631
ENERGY: 600000 1.0313 1.7440 1.9883 0.0000 -10782.1241 1448.9143 0.0000 0.0000 1766.4105 -7562.0358 298.1879 -9328.4462 -7556.4932 301.9537 -46.1239 17.6298 30807.0932 -115.9894 -71.0253
ENERGY: 900000 0.6519 2.0251 1.7219 0.0000 -10895.5572 1488.8241 0.0000 0.0000 1741.0497 -7661.2847 293.9068 -9402.3343 -7572.7410 299.9960 264.2910 302.7787 30331.7895 -80.6014 -25.1802
ENERGY: 1200000 0.9310 1.9218 1.6798 0.0000 -10815.4737 1463.2214 0.0000 0.0000 1833.2634 -7514.4563 309.4734 -9347.7197 -7570.4463 300.8129 -264.7164 -179.0963 31540.3205 -124.3267 -56.6070
ENERGY: 1500000 2.0908 3.2051 2.1385 0.0000 -10869.8022 1503.0910 0.0000 0.0000 1783.2812 -7575.9955 301.0359 -9359.2767 -7578.1099 300.2375 353.9461 409.6780 30461.9197 -26.6245 34.0913
TCL: Running FEP window   6: Lambda1 0.25   Lambda2 0.3    [dLambda 0.04999999999999999]
TCL: Setting parameter firsttimestep to 0
TCL: Setting parameter alchLambda to 0.25
Info: NONBONDED TABLE R-SQUARED SPACING: 0.0625
Info: NONBONDED TABLE SIZE: 705 POINTS
TCL: Setting parameter alchLambda2 to 0.3
Info: NONBONDED TABLE R-SQUARED SPACING: 0.0625
Info: NONBONDED TABLE SIZE: 705 POINTS
TCL: Running for 1500000 steps
ETITLE: TS BOND ANGLE DIHED IMPRP ELECT VDW BOUNDARY MISC KINETIC TOTAL TEMP POTENTIAL TOTALAVG TEMPAVG PRESSURE GPRESSURE VOLUME PRESSAVG GPRESSAVG
ENERGY: 0 2.0908 3.2051 2.1385 0.0000 -10869.8019 1503.7370 0.0000 0.0000 1782.4085 -7576.2219 300.8885 -9358.6304 -7576.2219 300.8885 329.9177 418.1062 30461.9197 329.9177 418.1062
ENERGY: 300000 0.2830 3.6715 1.6508 0.0000 -10756.8527 1378.7393 0.0000 0.0000 1774.7017 -7597.8064 299.5876 -9372.5081 -7600.6068 302.7338 -550.3139 -482.8606 30406.9951 -200.6344 -141.4334
ENERGY: 600000 1.4929 5.3722 1.6542 0.0000 -10893.3462 1540.7554 0.0000 0.0000 1825.1948 -7518.8765 308.1113 -9344.0714 -7581.0248 302.7773 423.2336 531.9709 30905.5881 28.7831 102.4939
ENERGY: 900000 2.2674 2.8715 1.7572 0.0000 -10808.0627 1486.6659 0.0000 0.0000 1795.0993 -7519.4014 303.0309 -9314.5007 -7574.3374 301.9864 273.7909 343.2857 30745.8117 69.0402 139.9916
ENERGY: 1200000 2.8201 1.5986 1.6230 0.0000 -10800.8904 1448.1175 0.0000 0.0000 1788.0162 -7558.7150 301.8352 -9346.7312 -7570.3240 302.1001 -190.7281 -77.0714 30721.7912 -72.6311 2.3917
ENERGY: 1500000 1.0947 1.4848 2.8444 0.0000 -10854.8362 1466.7926 0.0000 0.0000 1761.8216 -7620.7981 297.4133 -9382.6197 -7571.9837 301.3374 46.7088 69.3495 30427.3508 -69.8062 2.9803
TCL: Running FEP window   7: Lambda1 0.3    Lambda2 0.35   [dLambda 0.04999999999999999]
TCL: Setting parameter firsttimestep to 0
TCL: Setting parameter alchLambda to 0.3
Info: NONBONDED TABLE R-SQUARED SPACING: 0.0625
Info: NONBONDED TABLE SIZE: 705 POINTS
TCL: Setting parameter alchLambda2 to 0.35
Info: NONBONDED TABLE R-SQUARED SPACING: 0.0625
Info: NONBONDED TABLE SIZE: 705 POINTS
TCL: Running for 1500000 steps
ETITLE: TS BOND ANGLE DIHED IMPRP ELECT VDW BOUNDARY MISC KINETIC TOTAL TEMP POTENTIAL TOTALAVG TEMPAVG PRESSURE GPRESSURE VOLUME PRESSAVG GPRESSAVG
ENERGY: 0 1.0947 1.4848 2.8444 0.0000 -10854.8355 1466.8559 0.0000 0.0000 1760.9233 -7621.6323 297.2616 -9382.5556 -7621.6323 297.2616 -18.6388 75.7657 30427.3508 -18.6388 75.7657
ENERGY: 300000 1.3099 3.9431 2.3048 0.0000 -10843.7255 1507.4074 0.0000 0.0000 1747.5982 -7581.1620 295.0122 -9328.7602 -7610.1951 295.2297 291.4764 347.8724 30693.6585 0.7461 69.9388
ENERGY: 600000 1.1514 5.1904 1.6758 0.0000 -10905.4000 1516.3408 0.0000 0.0000 1765.3395 -7615.7021 298.0071 -9381.0416 -7601.0270 296.6102 662.9127 696.4063 30176.2851 56.7190 115.5849
ENERGY: 900000 1.0883 2.6893 1.6602 0.0000 -10742.7202 1425.0607 0.0000 0.0000 1768.4571 -7543.7645 298.5334 -9312.2217 -7578.2588 298.0417 -97.1410 -25.3509 30687.9813 -64.9819 -5.4914
ENERGY: 1200000 1.1088 1.9814 2.6072 0.0000 -10673.5159 1374.3232 0.0000 0.0000 1773.9275 -7519.5679 299.4569 -9293.4954 -7571.5739 298.5089 -754.0999 -661.0180 31161.9638 -137.2938 -76.0182
ENERGY: 1500000 1.2708 3.7270 1.8332 0.0000 -10768.3227 1438.6260 0.0000 0.0000 1781.3974 -7541.4683 300.7179 -9322.8658 -7569.9679 299.6996 176.1843 271.4879 30089.5442 -95.9722 -31.6302
TCL: Running FEP window   8: Lambda1 0.35   Lambda2 0.39999999999999997 [dLambda 0.04999999999999999]
TCL: Setting parameter firsttimestep to 0
TCL: Setting parameter alchLambda to 0.35
Info: NONBONDED TABLE R-SQUARED SPACING: 0.0625
Info: NONBONDED TABLE SIZE: 705 POINTS
TCL: Setting parameter alchLambda2 to 0.39999999999999997
Info: NONBONDED TABLE R-SQUARED SPACING: 0.0625
Info: NONBONDED TABLE SIZE: 705 POINTS
TCL: Running for 1500000 steps
ETITLE: TS BOND ANGLE DIHED IMPRP ELECT VDW BOUNDARY MISC KINETIC TOTAL TEMP POTENTIAL TOTALAVG TEMPAVG PRESSURE GPRESSURE VOLUME PRESSAVG GPRESSAVG
ENERGY: 0 1.2708 3.7270 1.8332 0.0000 -10768.3219 1439.4782 0.0000 0.0000 1780.5575 -7541.4553 300.5761 -9322.0128 -7541.4553 300.5761 212.5430 285.2982 30089.5442 212.5430 285.2982
ENERGY: 300000 2.8882 3.4702 2.4488 0.0000 -10677.8641 1372.3531 0.0000 0.0000 1735.2295 -7561.4743 292.9243 -9296.7038 -7586.7323 295.0237 -429.5116 -409.3794 30576.5105 -87.8138 -21.9258
ENERGY: 600000 0.8471 3.7836 2.4950 0.0000 -10700.6352 1399.8876 0.0000 0.0000 1801.2487 -7492.3733 304.0690 -9293.6219 -7573.0669 297.9415 -209.4760 -165.9930 30729.5332 -108.0626 -45.7684
ENERGY: 900000 0.2073 3.9369 1.8735 0.0000 -10628.6002 1371.8394 0.0000 0.0000 1745.9644 -7504.7786 294.7364 -9250.7430 -7565.8044 297.4503 -427.4990 -323.7828 30965.4567 -188.8430 -122.4707
ENERGY: 1200000 2.0679 1.4545 2.3372 0.0000 -10799.8880 1411.3371 0.0000 0.0000 1789.2361 -7593.4551 302.0411 -9382.6913 -7582.3040 296.9353 -545.8598 -448.4082 30862.7946 -240.8474 -168.5156
ENERGY: 1500000 2.1617 4.0639 1.8251 0.0000 -10734.1355 1425.7176 0.0000 0.0000 1766.0545 -7534.3126 298.1278 -9300.3672 -7580.6601 296.4145 -95.2649 -75.1473 30550.2769 -215.3631 -151.1762
TCL: Running FEP window   9: Lambda1 0.39999999999999997 Lambda2 0.44999999999999996 [dLambda 0.04999999999999999]
TCL: Setting parameter firsttimestep to 0
TCL: Setting parameter alchLambda to 0.39999999999999997
Info: NONBONDED TABLE R-SQUARED SPACING: 0.0625
Info: NONBONDED TABLE SIZE: 705 POINTS
TCL: Setting parameter alchLambda2 to 0.44999999999999996
Info: NONBONDED TABLE R-SQUARED SPACING: 0.0625
Info: NONBONDED TABLE SIZE: 705 POINTS
TCL: Running for 1500000 steps
ETITLE: TS BOND ANGLE DIHED IMPRP ELECT VDW BOUNDARY MISC KINETIC TOTAL TEMP POTENTIAL TOTALAVG TEMPAVG PRESSURE GPRESSURE VOLUME PRESSAVG GPRESSAVG
ENERGY: 0 2.1617 4.0639 1.8251 0.0000 -10734.1345 1425.9466 0.0000 0.0000 1765.1373 -7534.9999 297.9730 -9300.1372 -7534.9999 297.9730 -156.9953 -69.3777 30550.2769 -156.9953 -69.3777
ENERGY: 300000 1.5402 2.4799 1.6094 0.0000 -10884.4653 1506.1309 0.0000 0.0000 1775.6692 -7597.0356 299.7509 -9372.7048 -7629.1193 296.2066 91.8554 162.0881 30759.9596 -158.2366 -82.7197
ENERGY: 600000 4.0010 7.2603 2.2442 0.0000 -10852.6173 1479.2679 0.0000 0.0000 1801.9833 -7557.8605 304.1930 -9359.8438 -7607.7224 298.8694 -104.3055 21.9411 30657.3451 -206.7464 -123.6569
ENERGY: 900000 2.9747 1.5636 2.2570 0.0000 -10833.6499 1466.9630 0.0000 0.0000 1856.1623 -7503.7292 313.3389 -9359.8916 -7592.4542 300.1317 171.7090 195.3247 30799.5222 -51.9240 24.5849
ENERGY: 1200000 0.9163 2.2232 2.2290 0.0000 -10681.8622 1357.6373 0.0000 0.0000 1786.7806 -7532.0758 301.6266 -9318.8564 -7582.2663 300.3386 -823.1516 -734.7422 30893.7302 -63.8198 11.6078
ENERGY: 1500000 0.6524 2.6320 1.8283 0.0000 -10889.4598 1476.5188 0.0000 0.0000 1744.9638 -7662.8646 294.5675 -9407.8283 -7582.5947 299.7179 351.0668 389.6212 30178.7513 -80.0395 -9.7644
TCL: Running FEP window  10: Lambda1 0.44999999999999996 Lambda2 0.49999999999999994 [dLambda 0.04999999999999999]
TCL: Setting parameter firsttimestep to 0
TCL: Setting parameter alchLambda to 0.44999999999999996
Info: NONBONDED TABLE R-SQUARED SPACING: 0.0625
Info: NONBONDED TABLE SIZE: 705 POINTS
TCL: Setting parameter alchLambda2 to 0.49999999999999994
Info: NONBONDED TABLE R-SQUARED SPACING: 0.0625
Info: NONBONDED TABLE SIZE: 705 POINTS
TCL: Running for 1500000 steps
ETITLE: TS BOND ANGLE DIHED IMPRP ELECT VDW BOUNDARY MISC KINETIC TOTAL TEMP POTENTIAL TOTALAVG TEMPAVG PRESSURE GPRESSURE VOLUME PRESSAVG GPRESSAVG
ENERGY: 0 0.6524 2.6320 1.8283 0.0000 -10889.4596 1476.0227 0.0000 0.0000 1744.1167 -7664.2075 294.4245 -9408.3242 -7664.2075 294.4245 304.4315 390.3558 30178.7513 304.4315 390.3558
ENERGY: 300000 0.1683 4.6746 1.6394 0.0000 -10912.9560 1511.6959 0.0000 0.0000 1715.6320 -7679.1458 289.6160 -9394.7778 -7629.4037 295.9721 261.3343 298.0917 30513.5686 470.1038 548.6259
ENERGY: 600000 2.1489 3.8929 2.0684 0.0000 -10668.5394 1374.6820 0.0000 0.0000 1762.1386 -7523.6086 297.4668 -9285.7472 -7603.6286 297.3317 -527.0957 -384.3294 30743.2351 225.5460 324.8882
ENERGY: 900000 1.3326 2.2528 1.6576 0.0000 -10880.1566 1464.6739 0.0000 0.0000 1790.3418 -7619.8979 302.2278 -9410.2397 -7580.6110 299.2173 -76.5454 -86.4916 30712.5350 50.4386 124.4237
ENERGY: 1200000 0.7616 2.4560 2.5475 0.0000 -10773.8815 1471.5304 0.0000 0.0000 1761.5950 -7534.9910 297.3750 -9296.5860 -7588.3766 298.6436 112.7828 179.0371 30901.0064 37.4437 106.1426
ENERGY: 1500000 2.4447 3.3310 1.6276 0.0000 -10905.1159 1452.2792 0.0000 0.0000 1803.8939 -7641.5394 304.5155 -9445.4333 -7588.3914 299.9455 -154.6686 -96.3533 30307.6783 -2.9412 64.7586
TCL: Running FEP window  11: Lambda1 0.49999999999999994 Lambda2 0.5499999999999999 [dLambda 0.04999999999999999]
TCL: Setting parameter firsttimestep to 0
TCL: Setting parameter alchLambda to 0.49999999999999994
Info: NONBONDED TABLE R-SQUARED SPACING: 0.0625
Info: NONBONDED TABLE SIZE: 705 POINTS
TCL: Setting parameter alchLambda2 to 0.5499999999999999
Info: NONBONDED TABLE R-SQUARED SPACING: 0.0625
Info: NONBONDED TABLE SIZE: 705 POINTS
TCL: Running for 1500000 steps
ETITLE: TS BOND ANGLE DIHED IMPRP ELECT VDW BOUNDARY MISC KINETIC TOTAL TEMP POTENTIAL TOTALAVG TEMPAVG PRESSURE GPRESSURE VOLUME PRESSAVG GPRESSAVG
ENERGY: 0 2.4447 3.3310 1.6276 0.0000 -10905.1176 1451.9559 0.0000 0.0000 1803.0358 -7642.7225 304.3706 -9445.7583 -7642.7225 304.3706 -177.8796 -93.2606 30307.6783 -177.8796 -93.2606
ENERGY: 300000 4.4103 2.4031 2.3469 0.0000 -10842.8965 1465.9757 0.0000 0.0000 1754.6298 -7613.1308 296.1992 -9367.7606 -7595.5121 299.7223 -111.8273 -3.5049 30767.7464 -219.5290 -146.3145
ENERGY: 600000 2.2310 5.7498 2.3386 0.0000 -10939.0205 1494.3901 0.0000 0.0000 1787.3891 -7646.9221 301.7293 -9434.3111 -7572.3624 301.4463 228.2414 314.6888 30215.4102 -284.4461 -210.1737
ENERGY: 900000 2.7830 3.1309 2.3090 0.0000 -10809.9491 1472.0432 0.0000 0.0000 1712.4520 -7617.2310 289.0792 -9329.6830 -7568.1987 302.0896 420.1718 471.8999 30203.0061 -88.3141 -15.8911
ENERGY: 1200000 1.7999 2.3110 1.9398 0.0000 -10859.2810 1463.1985 0.0000 0.0000 1811.3776 -7578.6543 305.7788 -9390.0319 -7570.4232 302.2434 -208.5929 -129.4459 30863.2820 -233.3841 -152.4517
ENERGY: 1500000 3.4196 2.7806 2.3429 0.0000 -10947.4931 1499.5756 0.0000 0.0000 1762.3500 -7677.0243 297.5025 -9439.3743 -7582.9312 300.8867 -57.6803 13.1356 30625.0040 -166.8146 -83.5355
TCL: Running FEP window  12: Lambda1 0.5499999999999999 Lambda2 0.6    [dLambda 0.050000000000000044]
TCL: Setting parameter firsttimestep to 0
TCL: Setting parameter alchLambda to 0.5499999999999999
Info: NONBONDED TABLE R-SQUARED SPACING: 0.0625
Info: NONBONDED TABLE SIZE: 705 POINTS
TCL: Setting parameter alchLambda2 to 0.6
Info: NONBONDED TABLE R-SQUARED SPACING: 0.0625
Info: NONBONDED TABLE SIZE: 705 POINTS
TCL: Running for 1500000 steps
ETITLE: TS BOND ANGLE DIHED IMPRP ELECT VDW BOUNDARY MISC KINETIC TOTAL TEMP POTENTIAL TOTALAVG TEMPAVG PRESSURE GPRESSURE VOLUME PRESSAVG GPRESSAVG
ENERGY: 0 3.4196 2.7806 2.3429 0.0000 -10947.8494 1499.6518 0.0000 0.0000 1761.4412 -7678.2132 297.3491 -9439.6545 -7678.2132 297.3491 -43.1465 22.7222 30625.0040 -43.1465 22.7222
ENERGY: 300000 2.2876 3.3278 1.7094 0.0000 -10836.8058 1407.4725 0.0000 0.0000 1773.1533 -7648.8551 299.3262 -9422.0084 -7597.4921 300.9183 -778.1670 -691.6321 30838.3665 -334.1207 -289.9621
ENERGY: 600000 1.2577 1.6989 2.5275 0.0000 -10928.7528 1574.8877 0.0000 0.0000 1761.5066 -7586.8744 297.3601 -9348.3810 -7575.7174 301.2359 1035.6190 1133.7701 30358.1289 -73.5189 -22.0762
ENERGY: 900000 0.9057 4.4151 2.2639 0.0000 -10860.2966 1455.2973 0.0000 0.0000 1814.6897 -7582.7249 306.3379 -9397.4146 -7568.4910 302.4235 -104.4483 -57.0591 30845.9495 0.0031 59.3900
ENERGY: 1200000 1.7429 5.0686 2.1361 0.0000 -10937.6241 1533.5701 0.0000 0.0000 1814.9544 -7580.1521 306.3826 -9395.1065 -7566.3156 302.6993 631.6990 664.0013 30486.0255 76.8390 131.0471
ENERGY: 1500000 2.0014 2.2775 1.6641 0.0000 -10729.3173 1390.6773 0.0000 0.0000 1769.8718 -7562.8253 298.7722 -9332.6971 -7565.1696 301.9637 -495.1874 -439.3117 30774.4426 54.5911 111.1371
TCL: Running FEP window  13: Lambda1 0.6    Lambda2 0.65   [dLambda 0.050000000000000044]
TCL: Setting parameter firsttimestep to 0
TCL: Setting parameter alchLambda to 0.6
Info: NONBONDED TABLE R-SQUARED SPACING: 0.0625
Info: NONBONDED TABLE SIZE: 705 POINTS
TCL: Setting parameter alchLambda2 to 0.65
Info: NONBONDED TABLE R-SQUARED SPACING: 0.0625
Info: NONBONDED TABLE SIZE: 705 POINTS
TCL: Running for 1500000 steps
ETITLE: TS BOND ANGLE DIHED IMPRP ELECT VDW BOUNDARY MISC KINETIC TOTAL TEMP POTENTIAL TOTALAVG TEMPAVG PRESSURE GPRESSURE VOLUME PRESSAVG GPRESSAVG
ENERGY: 0 2.0014 2.2775 1.6641 0.0000 -10729.2736 1390.3732 0.0000 0.0000 1768.9824 -7563.9751 298.6221 -9332.9575 -7563.9751 298.6221 -523.1767 -439.6831 30774.4426 -523.1767 -439.6831
ENERGY: 300000 2.1910 6.1409 2.0850 0.0000 -10788.4222 1372.9574 0.0000 0.0000 1811.6968 -7593.3510 305.8327 -9405.0478 -7567.8168 300.4156 -627.6447 -536.6547 30493.3488 -593.0844 -501.4058
ENERGY: 600000 1.6877 3.8267 2.3229 0.0000 -10658.2627 1344.4017 0.0000 0.0000 1835.9884 -7470.0352 309.9334 -9306.0237 -7572.6989 300.4842 -530.2550 -476.8700 30666.7525 -373.8122 -301.5630
ENERGY: 900000 1.0914 2.0955 2.0398 0.0000 -10735.5256 1455.7542 0.0000 0.0000 1776.8437 -7497.7011 299.9492 -9274.5448 -7565.1994 300.1509 -125.3857 -50.1158 31186.0446 -235.9990 -162.6756
ENERGY: 1200000 0.7588 1.1328 1.5746 0.0000 -10769.3746 1453.6511 0.0000 0.0000 1760.9385 -7551.3188 297.2642 -9312.2573 -7566.4565 299.0387 -170.0126 -70.7046 30893.5742 -207.5619 -128.3303
ENERGY: 1500000 0.7363 2.5151 2.4067 0.0000 -10739.2557 1435.2728 0.0000 0.0000 1754.9687 -7543.3561 296.2564 -9298.3248 -7568.2776 298.7574 -223.6750 -96.1758 30891.8994 -187.4759 -111.3261
TCL: Running FEP window  14: Lambda1 0.65   Lambda2 0.7000000000000001 [dLambda 0.050000000000000044]
TCL: Setting parameter firsttimestep to 0
TCL: Setting parameter alchLambda to 0.65
Info: NONBONDED TABLE R-SQUARED SPACING: 0.0625
Info: NONBONDED TABLE SIZE: 705 POINTS
TCL: Setting parameter alchLambda2 to 0.7000000000000001
Info: NONBONDED TABLE R-SQUARED SPACING: 0.0625
Info: NONBONDED TABLE SIZE: 705 POINTS
TCL: Running for 1500000 steps
ETITLE: TS BOND ANGLE DIHED IMPRP ELECT VDW BOUNDARY MISC KINETIC TOTAL TEMP POTENTIAL TOTALAVG TEMPAVG PRESSURE GPRESSURE VOLUME PRESSAVG GPRESSAVG
ENERGY: 0 0.7363 2.5151 2.4067 0.0000 -10739.1701 1435.4018 0.0000 0.0000 1754.0953 -7544.0149 296.1090 -9298.1103 -7544.0149 296.1090 -181.1799 -90.4524 30891.8994 -181.1799 -90.4524
ENERGY: 300000 1.8862 3.3166 2.0187 0.0000 -10874.2266 1461.9848 0.0000 0.0000 1834.5036 -7570.5167 309.6827 -9405.0203 -7551.2761 303.4877 75.9450 129.5039 30768.4029 -98.6872 -68.3869
ENERGY: 600000 0.8214 4.5377 2.3318 0.0000 -10639.0000 1346.5041 0.0000 0.0000 1762.5957 -7522.2093 297.5439 -9284.8050 -7537.6543 302.4459 -904.1683 -795.8358 31282.1359 -305.2823 -256.3218
ENERGY: 900000 2.5204 1.3061 2.2818 0.0000 -10756.7865 1369.7827 0.0000 0.0000 1796.2530 -7584.6424 303.2256 -9380.8955 -7550.9712 302.2134 -1067.1008 -893.0276 30999.9005 -418.1566 -364.9428
ENERGY: 1200000 1.7527 3.3796 2.6135 0.0000 -10760.5196 1408.7233 0.0000 0.0000 1770.9202 -7573.1302 298.9492 -9344.0504 -7566.5429 300.9734 -316.8883 -292.2791 30980.5265 -348.6415 -299.6350
ENERGY: 1500000 1.8171 4.9428 2.3558 0.0000 -10863.5260 1468.9882 0.0000 0.0000 1805.2982 -7580.1238 304.7526 -9385.4221 -7575.6946 301.1156 102.9330 159.8031 30461.3497 -333.0126 -281.8695
TCL: Running FEP window  15: Lambda1 0.7000000000000001 Lambda2 0.7500000000000001 [dLambda 0.050000000000000044]
TCL: Setting parameter firsttimestep to 0
TCL: Setting parameter alchLambda to 0.7000000000000001
Info: NONBONDED TABLE R-SQUARED SPACING: 0.0625
Info: NONBONDED TABLE SIZE: 705 POINTS
TCL: Setting parameter alchLambda2 to 0.7500000000000001
Info: NONBONDED TABLE R-SQUARED SPACING: 0.0625
Info: NONBONDED TABLE SIZE: 705 POINTS
TCL: Running for 1500000 steps
ETITLE: TS BOND ANGLE DIHED IMPRP ELECT VDW BOUNDARY MISC KINETIC TOTAL TEMP POTENTIAL TOTALAVG TEMPAVG PRESSURE GPRESSURE VOLUME PRESSAVG GPRESSAVG
ENERGY: 0 1.8171 4.9428 2.3558 0.0000 -10863.8481 1468.7514 0.0000 0.0000 1804.4265 -7581.5545 304.6054 -9385.9810 -7581.5545 304.6054 87.1875 167.0128 30461.3497 87.1875 167.0128
ENERGY: 300000 2.7297 3.1610 1.7347 0.0000 -10621.4240 1286.3913 0.0000 0.0000 1835.4086 -7491.9988 309.8355 -9327.4073 -7582.9094 302.2609 -1300.4220 -1293.4419 31080.3118 -286.0556 -236.3175
ENERGY: 600000 1.3459 3.1642 2.3088 0.0000 -10916.2129 1495.9654 0.0000 0.0000 1769.6769 -7643.7516 298.7393 -9413.4285 -7608.4207 299.6746 -8.5920 146.1878 30748.0867 -254.3791 -188.7042
ENERGY: 900000 1.4189 0.8180 1.6478 0.0000 -10834.0729 1507.0051 0.0000 0.0000 1795.2764 -7527.9067 303.0608 -9323.1831 -7585.0595 300.8921 446.6674 461.6747 30828.7069 -187.1275 -117.9810
ENERGY: 1200000 0.5488 3.3174 1.6324 0.0000 -10866.0146 1484.2803 0.0000 0.0000 1761.9002 -7614.3355 297.4265 -9376.2357 -7593.6855 299.4219 -34.9726 39.0082 30854.9562 -34.1098 33.5037
ENERGY: 1500000 2.8754 2.9348 2.2772 0.0000 -10781.6775 1389.9477 0.0000 0.0000 1783.5591 -7600.0834 301.0828 -9383.6424 -7594.4143 299.8787 -457.5305 -464.2162 30367.7522 -92.5519 -27.9574
TCL: Running FEP window  16: Lambda1 0.7500000000000001 Lambda2 0.8000000000000002 [dLambda 0.050000000000000044]
TCL: Setting parameter firsttimestep to 0
TCL: Setting parameter alchLambda to 0.7500000000000001
Info: NONBONDED TABLE R-SQUARED SPACING: 0.0625
Info: NONBONDED TABLE SIZE: 705 POINTS
TCL: Setting parameter alchLambda2 to 0.8000000000000002
Info: NONBONDED TABLE R-SQUARED SPACING: 0.0625
Info: NONBONDED TABLE SIZE: 705 POINTS
TCL: Running for 1500000 steps
ETITLE: TS BOND ANGLE DIHED IMPRP ELECT VDW BOUNDARY MISC KINETIC TOTAL TEMP POTENTIAL TOTALAVG TEMPAVG PRESSURE GPRESSURE VOLUME PRESSAVG GPRESSAVG
ENERGY: 0 2.8754 2.9348 2.2772 0.0000 -10781.9154 1389.4846 0.0000 0.0000 1782.6896 -7601.6537 300.9360 -9384.3434 -7601.6537 300.9360 -542.0831 -461.9669 30367.7522 -542.0831 -461.9669
ENERGY: 300000 1.1802 2.9927 1.5864 0.0000 -10685.9276 1394.0332 0.0000 0.0000 1770.2058 -7515.9294 298.8286 -9286.1352 -7534.1799 300.8444 -488.8482 -515.0082 31218.0106 -367.0857 -328.6051
ENERGY: 600000 1.0362 1.7515 1.6309 0.0000 -10931.8153 1465.7688 0.0000 0.0000 1729.6719 -7731.9560 291.9861 -9461.6279 -7571.8375 299.4925 -87.4069 -103.7183 30656.3274 -299.5369 -265.7559
ENERGY: 900000 0.7067 2.8820 1.5786 0.0000 -10693.2099 1344.4500 0.0000 0.0000 1759.1725 -7584.4201 296.9661 -9343.5926 -7588.1993 299.9469 -1082.9372 -1008.1366 31214.2906 -302.1999 -264.6910
ENERGY: 1200000 1.5208 2.3947 1.5814 0.0000 -10876.4833 1485.3437 0.0000 0.0000 1802.0490 -7583.5936 304.2041 -9385.6427 -7590.2497 299.3578 241.1531 379.9534 30444.4420 -186.5373 -135.5090
ENERGY: 1500000 1.2737 2.8499 1.5558 0.0000 -10926.4518 1575.2429 0.0000 0.0000 1723.2854 -7622.2441 290.9080 -9345.5295 -7595.3707 298.0681 964.3071 1037.9435 30307.6427 -74.4534 -21.9128
TCL: Running FEP window  17: Lambda1 0.8000000000000002 Lambda2 0.8500000000000002 [dLambda 0.050000000000000044]
TCL: Setting parameter firsttimestep to 0
TCL: Setting parameter alchLambda to 0.8000000000000002
Info: NONBONDED TABLE R-SQUARED SPACING: 0.0625
Info: NONBONDED TABLE SIZE: 705 POINTS
TCL: Setting parameter alchLambda2 to 0.8500000000000002
Info: NONBONDED TABLE R-SQUARED SPACING: 0.0625
Info: NONBONDED TABLE SIZE: 705 POINTS
TCL: Running for 1500000 steps
ETITLE: TS BOND ANGLE DIHED IMPRP ELECT VDW BOUNDARY MISC KINETIC TOTAL TEMP POTENTIAL TOTALAVG TEMPAVG PRESSURE GPRESSURE VOLUME PRESSAVG GPRESSAVG
ENERGY: 0 1.2737 2.8499 1.5558 0.0000 -10926.6860 1575.0088 0.0000 0.0000 1722.3704 -7623.6274 290.7535 -9345.9978 -7623.6274 290.7535 958.5864 1045.5440 30307.6427 958.5864 1045.5440
ENERGY: 300000 3.5325 2.5819 2.5953 0.0000 -10813.9857 1453.0510 0.0000 0.0000 1772.5125 -7579.7125 299.2180 -9352.2250 -7624.0242 295.6704 58.5800 95.9808 30679.4670 157.0789 192.3748
ENERGY: 600000 0.9472 3.6674 1.6924 0.0000 -10854.4872 1446.2969 0.0000 0.0000 1771.4870 -7630.3963 299.0449 -9401.8833 -7596.4673 296.3943 -198.4010 -103.0513 30685.3251 -65.9427 -21.5573
ENERGY: 900000 3.6203 2.6560 2.2174 0.0000 -10795.5457 1410.7573 0.0000 0.0000 1781.4995 -7594.7952 300.7351 -9376.2948 -7592.1318 298.2507 -633.1250 -603.2003 31192.1636 -125.0965 -70.1104
ENERGY: 1200000 2.0149 1.6067 1.6504 0.0000 -10847.6995 1420.4634 0.0000 0.0000 1743.8348 -7678.1293 294.3769 -9421.9641 -7594.6125 298.0863 -359.9428 -315.5071 30733.2063 -55.3560 -3.4458
ENERGY: 1500000 3.9552 3.9874 1.9014 0.0000 -10896.9141 1468.4658 0.0000 0.0000 1835.7509 -7582.8534 309.8933 -9418.6043 -7590.1311 299.2199 237.2336 253.2663 30416.4925 -80.8276 -31.3331
TCL: Running FEP window  18: Lambda1 0.8500000000000002 Lambda2 0.9000000000000002 [dLambda 0.050000000000000044]
TCL: Setting parameter firsttimestep to 0
TCL: Setting parameter alchLambda to 0.8500000000000002
Info: NONBONDED TABLE R-SQUARED SPACING: 0.0625
Info: NONBONDED TABLE SIZE: 705 POINTS
TCL: Setting parameter alchLambda2 to 0.9000000000000002
Info: NONBONDED TABLE R-SQUARED SPACING: 0.0625
Info: NONBONDED TABLE SIZE: 705 POINTS
TCL: Running for 1500000 steps
ETITLE: TS BOND ANGLE DIHED IMPRP ELECT VDW BOUNDARY MISC KINETIC TOTAL TEMP POTENTIAL TOTALAVG TEMPAVG PRESSURE GPRESSURE VOLUME PRESSAVG GPRESSAVG
ENERGY: 0 3.9552 3.9874 1.9014 0.0000 -10897.0446 1468.4232 0.0000 0.0000 1834.8639 -7583.9136 309.7435 -9418.7775 -7583.9136 309.7435 185.0570 265.1107 30416.4925 185.0570 265.1107
ENERGY: 300000 2.6412 1.1542 1.6163 0.0000 -10813.1763 1509.7744 0.0000 0.0000 1814.8463 -7483.1440 306.3644 -9297.9903 -7608.2538 302.0845 901.2281 900.1569 30187.1302 259.9218 319.9097
ENERGY: 600000 0.5706 2.9899 1.6113 0.0000 -10868.7820 1492.0146 0.0000 0.0000 1834.9199 -7536.6758 309.7530 -9371.5957 -7597.8081 301.3863 386.2150 536.6240 30308.0823 61.8507 126.6564
ENERGY: 900000 2.2699 1.6829 2.2597 0.0000 -10771.3016 1458.8914 0.0000 0.0000 1750.1609 -7556.0368 295.4448 -9306.1978 -7582.5170 302.8271 209.2360 263.2267 30381.7832 162.3190 224.0550
ENERGY: 1200000 1.6636 2.6625 1.6503 0.0000 -10773.7246 1394.8022 0.0000 0.0000 1766.2035 -7606.7426 298.1530 -9372.9460 -7584.6266 302.4427 -375.7073 -300.3438 30602.5432 175.0020 239.8057
ENERGY: 1500000 1.3246 3.3242 2.1162 0.0000 -10676.4166 1402.4445 0.0000 0.0000 1762.4294 -7504.7778 297.5159 -9267.2071 -7575.2815 302.2450 -35.7651 49.0330 30930.4663 179.0335 243.6120
TCL: Running FEP window  19: Lambda1 0.9000000000000002 Lambda2 0.9500000000000003 [dLambda 0.050000000000000044]
TCL: Setting parameter firsttimestep to 0
TCL: Setting parameter alchLambda to 0.9000000000000002
Info: NONBONDED TABLE R-SQUARED SPACING: 0.0625
Info: NONBONDED TABLE SIZE: 705 POINTS
TCL: Setting parameter alchLambda2 to 0.9500000000000003
Info: NONBONDED TABLE R-SQUARED SPACING: 0.0625
Info: NONBONDED TABLE SIZE: 705 POINTS
TCL: Running for 1500000 steps
ETITLE: TS BOND ANGLE DIHED IMPRP ELECT VDW BOUNDARY MISC KINETIC TOTAL TEMP POTENTIAL TOTALAVG TEMPAVG PRESSURE GPRESSURE VOLUME PRESSAVG GPRESSAVG
ENERGY: 0 1.3246 3.3242 2.1162 0.0000 -10676.5837 1402.3657 0.0000 0.0000 1761.5776 -7505.8754 297.3721 -9267.4530 -7505.8754 297.3721 -33.2428 57.3970 30930.4663 -33.2428 57.3970
ENERGY: 300000 3.1452 4.4291 1.6846 0.0000 -10843.2093 1377.6918 0.0000 0.0000 1721.5557 -7734.7030 290.6160 -9456.2587 -7621.8108 296.8717 -850.4828 -824.2262 30487.7181 120.3495 189.7061
ENERGY: 600000 0.8330 3.1056 1.5518 0.0000 -10735.3804 1424.3237 0.0000 0.0000 1784.7083 -7520.8581 301.2768 -9305.5664 -7578.3743 299.8351 -6.6572 21.4456 30591.3853 168.5997 224.8927
ENERGY: 900000 1.2987 5.5422 2.4217 0.0000 -10791.2434 1434.5773 0.0000 0.0000 1799.8972 -7547.5063 303.8408 -9347.4035 -7559.0953 301.5505 -212.2447 -170.1234 31098.2383 118.6166 174.6001
ENERGY: 1200000 2.7364 1.3124 1.8654 0.0000 -10904.0008 1449.2101 0.0000 0.0000 1791.8245 -7657.0520 302.4781 -9448.8766 -7562.5661 302.5511 -79.1225 2.7332 30351.4586 68.5829 122.2237
ENERGY: 1500000 0.7833 3.6464 1.6681 0.0000 -10692.5476 1392.7863 0.0000 0.0000 1796.2337 -7497.4298 303.2224 -9293.6635 -7560.9712 301.8475 -206.3609 -133.1047 30749.8588 58.8204 116.1466
TCL: Running FEP window  20: Lambda1 0.9500000000000003 Lambda2 1.0    [dLambda 0.04999999999999971]
TCL: Setting parameter firsttimestep to 0
TCL: Setting parameter alchLambda to 0.9500000000000003
Info: NONBONDED TABLE R-SQUARED SPACING: 0.0625
Info: NONBONDED TABLE SIZE: 705 POINTS
TCL: Setting parameter alchLambda2 to 1.0
Info: NONBONDED TABLE R-SQUARED SPACING: 0.0625
Info: NONBONDED TABLE SIZE: 705 POINTS
TCL: Running for 1500000 steps
ETITLE: TS BOND ANGLE DIHED IMPRP ELECT VDW BOUNDARY MISC KINETIC TOTAL TEMP POTENTIAL TOTALAVG TEMPAVG PRESSURE GPRESSURE VOLUME PRESSAVG GPRESSAVG
ENERGY: 0 0.7833 3.6464 1.6681 0.0000 -10693.1440 1392.1330 0.0000 0.0000 1795.3626 -7499.5506 303.0753 -9294.9132 -7499.5506 303.0753 -206.0766 -132.9979 30749.8588 -206.0766 -132.9979
ENERGY: 300000 0.7415 2.0884 1.6143 0.0000 -10893.6012 1536.6033 0.0000 0.0000 1814.2768 -7538.2770 306.2682 -9352.5537 -7513.4146 304.3161 681.6921 784.6247 30659.8433 183.8132 231.6545
ENERGY: 600000 0.3722 2.8058 1.6725 0.0000 -10863.5999 1449.2858 0.0000 0.0000 1749.5086 -7659.9550 295.3347 -9409.4636 -7543.8325 303.2656 -78.6619 -35.1546 30573.2015 -7.5842 45.0703
ENERGY: 900000 0.6993 3.8754 1.5954 0.0000 -10669.1020 1315.3691 0.0000 0.0000 1778.7045 -7568.8582 300.2633 -9347.5627 -7539.2535 303.4899 -1198.5924 -1144.0785 31326.8057 -109.6641 -54.8962
ENERGY: 1200000 2.4411 2.7828 2.2361 0.0000 -10759.5860 1415.8826 0.0000 0.0000 1769.2432 -7567.0002 298.6661 -9336.2434 -7552.9657 302.4503 -40.0407 15.1560 30841.3681 -189.4744 -133.5060
ENERGY: 1500000 1.7546 0.9787 1.7771 0.0000 -10719.5719 1357.9339 0.0000 0.0000 1798.6213 -7558.5062 303.6254 -9357.1276 -7558.6943 302.2521 -812.7852 -708.6249 30933.3520 -154.7305 -94.3043
TCL: Exiting due to exit command.
