Info: SIMULATION PARAMETERS:
Info: TIMESTEP               2
Info: NUMBER OF STEPS        0
Info: STEPS PER CYCLE        10
Info: PERIODIC CELL BASIS 1  32.1211 0 0
Info: PERIODIC CELL BASIS 2  0 30.3318 0
Info: PERIODIC CELL BASIS 3  0 0 31.7448
Info: PERIODIC CELL CENTER   0 0 0
Info: WRAPPING WATERS AROUND PERIODIC BOUNDARIES ON OUTPUT.
Info: WRAPPING ALL CLUSTERS AROUND PERIODIC BOUNDARIES ON OUTPUT.
Info: FIRST LDB TIMESTEP     50
Info: LAST LDB TIMESTEP     -1
Info: HOM BACKGROUND SCALING 1
Info: PME BACKGROUND SCALING 1
Info: MIN ATOMS PER PATCH    40
Info: EMPTY PATCH LOAD       40 ATOMS
Info: VELOCITY FILE          mobley_2371092_equil.vel
Info: CENTER OF MASS MOVING INITIALLY? NO
Info: DIELECTRIC             1
Info: EXCLUDE                SCALED ONE-FOUR
Info: 1-4 ELECTROSTATICS SCALED BY 0.833333
Info: MODIFIED 1-4 VDW PARAMETERS WILL BE USED
Info: DCD FILENAME           mobley_2371092_prod.dcd
Info: DCD FREQUENCY          100000
Info: DCD FIRST STEP         100000
Info: DCD FILE WILL CONTAIN UNIT CELL DATA
Info: XST FILENAME           mobley_2371092_prod.xst
Info: XST FREQUENCY          100000
Info: NO VELOCITY DCD OUTPUT
Info: NO FORCE DCD OUTPUT
Info: OUTPUT FILENAME        mobley_2371092_prod
Info: BINARY OUTPUT FILES WILL BE USED
Info: RESTART FILENAME       mobley_2371092_prod.restart
Info: RESTART FREQUENCY      100000
Info: BINARY RESTART FILES WILL BE USED
Info: CUTOFF                 9
Info: PAIRLIST DISTANCE      11
Info: PAIRLIST SHRINK RATE   0.01
Info: PAIRLIST GROW RATE     0.01
Info: PAIRLIST TRIGGER       0.3
Info: PAIRLISTS PER CYCLE    2
Info: PAIRLISTS ENABLED
Info: MARGIN                 2
Info: HYDROGEN GROUP CUTOFF  2.5
Info: PATCH DIMENSION        15.5
Info: ENERGY OUTPUT STEPS    100000
Info: ENERGY EVALUATION STEPS    100000
Info: OUTPUT ENERGY PRECISION 4
Info: CROSSTERM ENERGY INCLUDED IN DIHEDRAL
Info: TIMING OUTPUT STEPS    1000000
Info: PRESSURE OUTPUT STEPS  100000
Info: ALCHEMICAL FEP ON
Info: FEP CURRENT LAMBDA VALUE     0
Info: FEP COMPARISON LAMBDA VALUE  0.05
Info: FEP INTRA-ALCHEMICAL NON-BONDED INTERACTIONS WILL BE RETAINED
Info: FEP INTRA-ALCHEMICAL BONDED INTERACTIONS WILL BE RETAINED
Info: FEP VDW SHIFTING COEFFICIENT 5
Info: FEP ELEC. ACTIVE FOR ANNIHILATED PARTICLES BETWEEN LAMBDA = 0 AND LAMBDA = 0.5
Info: FEP ELEC. ACTIVE FOR EXNIHILATED PARTICLES BETWEEN LAMBDA = 0.5 AND LAMBDA = 1
Info: FEP VDW ACTIVE FOR ANNIHILATED PARTICLES BETWEEN LAMBDA = 0 AND LAMBDA = 1
Info: FEP VDW ACTIVE FOR EXNIHILATED PARTICLES BETWEEN LAMBDA = 0 AND LAMBDA = 1
Info: FEP BOND ACTIVE FOR ANNIHILATED PARTICLES BETWEEN LAMBDA = 1 AND LAMBDA = 1
Info: FEP BOND ACTIVE FOR EXNIHILATED PARTICLES BETWEEN LAMBDA = 0 AND LAMBDA = 0
Info: LANGEVIN DYNAMICS ACTIVE
Info: LANGEVIN TEMPERATURE   300
Info: LANGEVIN USING BBK INTEGRATOR
Info: LANGEVIN DAMPING COEFFICIENT IS 1 INVERSE PS
Info: LANGEVIN DYNAMICS APPLIED TO HYDROGENS
Info: LANGEVIN PISTON PRESSURE CONTROL ACTIVE
Info:        TARGET PRESSURE IS 1.01325 BAR
Info:     OSCILLATION PERIOD IS 50 FS
Info:             DECAY TIME IS 25 FS
Info:     PISTON TEMPERATURE IS 300 K
Info:       PRESSURE CONTROL IS GROUP-BASED
Info:    INITIAL STRAIN RATE IS -3.75568e-05 -3.75568e-05 -3.75568e-05
Info:       CELL FLUCTUATION IS ISOTROPIC
Info: PARTICLE MESH EWALD (PME) ACTIVE
Info: PME TOLERANCE               1e-06
Info: PME EWALD COEFFICIENT       0.348832
Info: PME INTERPOLATION ORDER     4
Info: PME GRID DIMENSIONS         36 32 32
Info: PME MAXIMUM GRID SPACING    1
Info: PME CALCULATION WILL BE PERFORMED ON GPU
Info: FULL ELECTROSTATIC EVALUATION FREQUENCY      2
Info: USING VERLET I (r-RESPA) MTS SCHEME.
Info: C1 SPLITTING OF LONG RANGE ELECTROSTATICS
Info: PLACING ATOMS IN PATCHES BY HYDROGEN GROUPS
Info: RIGID BONDS TO HYDROGEN : ALL
Info:         ERROR TOLERANCE : 1e-08
Info:          MAX ITERATIONS : 100
Info: RIGID WATER USING SETTLE ALGORITHM
Info: RANDOM NUMBER SEED     1743588577
Info: USE HYDROGEN BONDS?    NO
Info: Using AMBER format force field!
Info: AMBER PARM FILE        mobley_2371092.prmtop
Info: COORDINATE PDB         mobley_2371092.pdb
Info: Exclusions will be read from PARM file!
Info: SCNB (VDW SCALING)     2
Info: USING ARITHMETIC MEAN TO COMBINE L-J SIGMA PARAMETERS
Info: BINARY COORDINATES     mobley_2371092_equil.coor
Info: SUMMARY OF PARAMETERS:
Info: 8 BONDS
Info: 9 ANGLES
Info:   9 HARMONIC
Info:   0 COSINE-BASED
Info: 4 DIHEDRAL
Info: 0 IMPROPER
Info: 0 CROSSTERM
Info: 0 VDW
Info: 36 VDW_PAIRS
Info: 0 NBTHOLE_PAIRS
Info: To read alchdata from file: mobley_2371092.pdb
Info: To read alchflag data from column: 5
Info: STRUCTURE SUMMARY:
Info: 2987 ATOMS
Info: 2987 BONDS
Info: 28 ANGLES
Info: 37 DIHEDRALS
Info: 0 IMPROPERS
Info: 0 CROSSTERMS
Info: 3044 EXCLUSIONS
Info: 2979 RIGID BONDS
Info: ALCH: 0 ATOMS TO DISAPPEAR IN FINAL STATE
Info: ALCH: 17 ATOMS TO APPEAR IN FINAL STATE
Info: 5982 DEGREES OF FREEDOM
Info: 998 HYDROGEN GROUPS
Info: 4 ATOMS IN LARGEST HYDROGEN GROUP
Info: 998 MIGRATION GROUPS
Info: 4 ATOMS IN LARGEST MIGRATION GROUP
Info: TOTAL MASS = 17943 amu
Info: TOTAL CHARGE = 0.00029997 e
Info: MASS DENSITY = 0.963368 g/cm^3
Info: ATOM DENSITY = 0.0965769 atoms/A^3
Info: ADDED 0 IMPLICIT EXCLUSIONS
Info: NONBONDED TABLE R-SQUARED SPACING: 0.0625
Info: NONBONDED TABLE SIZE: 705 POINTS
Info: REMOVING COM VELOCITY 0.0700466 0.196914 -0.0100548
Info: Use 3D box decompostion in PME FFT.
Info: Updated CUDA force table with 4096 elements.
Info: Updated CUDA LJ table with 8 x 8 elements.
Info: Found 15 unique exclusion lists needing 32 bytes
TCL: Running for 1500000 steps
ETITLE: TS BOND ANGLE DIHED IMPRP ELECT VDW BOUNDARY MISC KINETIC TOTAL TEMP POTENTIAL TOTALAVG TEMPAVG PRESSURE GPRESSURE VOLUME PRESSAVG GPRESSAVG
ENERGY: 0 3.6242 3.3336 1.9212 0.0000 -10822.5168 1447.4064 0.0000 0.0000 1793.8689 -7572.3624 301.8107 -9366.2313 -7572.3624 301.8107 -217.4068 -127.0528 30928.7072 -217.4068 -127.0528
ENERGY: 300000 2.8412 6.8302 2.3010 0.0000 -10769.3022 1395.9713 0.0000 0.0000 1776.6096 -7584.7490 298.9069 -9361.3586 -7587.8166 299.0120 -287.4930 -149.1116 30283.7175 -93.0006 -16.4151
ENERGY: 600000 2.9670 4.4842 1.1558 0.0000 -10790.4322 1452.5684 0.0000 0.0000 1803.8600 -7525.3968 303.4917 -9329.2568 -7596.3170 300.0494 -91.8156 -53.7555 30803.7494 -139.4726 -74.5283
ENERGY: 900000 4.0695 4.8125 0.9695 0.0000 -10793.1246 1485.7265 0.0000 0.0000 1768.6594 -7528.8872 297.5693 -9297.5466 -7581.6291 299.1123 374.8172 453.0672 30680.3147 -216.0265 -147.7020
ENERGY: 1200000 1.8120 4.1089 0.4001 0.0000 -10720.2906 1400.8083 0.0000 0.0000 1821.9733 -7491.1879 306.5392 -9313.1612 -7570.9000 300.0404 -382.2209 -272.0051 30673.2626 -169.5284 -103.0239
ENERGY: 1500000 3.6258 6.2653 2.1183 0.0000 -10908.6664 1507.9334 0.0000 0.0000 1787.8499 -7600.8736 300.7981 -9388.7235 -7574.4849 300.0593 350.5893 411.7285 30218.6743 -146.5373 -83.6506
TCL: Running FEP window   2: Lambda1 0.05   Lambda2 0.1    [dLambda 0.05  ]
TCL: Setting parameter firsttimestep to 0
TCL: Setting parameter alchLambda to 0.05
Info: NONBONDED TABLE R-SQUARED SPACING: 0.0625
Info: NONBONDED TABLE SIZE: 705 POINTS
TCL: Setting parameter alchLambda2 to 0.1
Info: NONBONDED TABLE R-SQUARED SPACING: 0.0625
Info: NONBONDED TABLE SIZE: 705 POINTS
TCL: Running for 1500000 steps
ETITLE: TS BOND ANGLE DIHED IMPRP ELECT VDW BOUNDARY MISC KINETIC TOTAL TEMP POTENTIAL TOTALAVG TEMPAVG PRESSURE GPRESSURE VOLUME PRESSAVG GPRESSAVG
ENERGY: 0 3.6258 6.2653 2.1183 0.0000 -10908.6660 1511.5511 0.0000 0.0000 1786.9462 -7598.1592 300.6460 -9385.1054 -7598.1592 300.6460 334.1173 420.3224 30218.6743 334.1173 420.3224
ENERGY: 300000 2.4413 5.3578 2.0758 0.0000 -10736.1440 1350.6678 0.0000 0.0000 1769.7305 -7605.8708 297.7496 -9375.6013 -7558.5504 301.8845 -734.3968 -677.1467 30643.1382 -503.0554 -425.3090
ENERGY: 600000 2.7763 7.5329 1.9106 0.0000 -10786.1282 1427.3685 0.0000 0.0000 1833.5103 -7513.0296 308.4802 -9346.5399 -7545.3342 301.8916 -53.4914 -20.3944 30548.5637 -351.3571 -294.0686
ENERGY: 900000 3.2221 4.9405 2.7205 0.0000 -10864.9835 1505.2232 0.0000 0.0000 1766.3885 -7582.4886 297.1873 -9348.8771 -7542.5985 302.0950 334.4793 409.3353 30618.7928 -119.6648 -57.7756
ENERGY: 1200000 3.3217 8.5434 1.6717 0.0000 -10722.1425 1395.3142 0.0000 0.0000 1760.7006 -7552.5909 296.2303 -9313.2915 -7557.3959 300.0567 -463.7378 -420.4596 30684.6883 -157.7011 -91.2777
ENERGY: 1500000 0.9467 4.0940 3.4077 0.0000 -10756.2626 1398.1255 0.0000 0.0000 1734.6584 -7615.0303 291.8488 -9349.6888 -7561.9027 299.3650 -559.3703 -526.8553 30968.3810 -183.5424 -126.8871
TCL: Running FEP window   3: Lambda1 0.1    Lambda2 0.15000000000000002 [dLambda 0.05000000000000002]
TCL: Setting parameter firsttimestep to 0
TCL: Setting parameter alchLambda to 0.1
Info: NONBONDED TABLE R-SQUARED SPACING: 0.0625
Info: NONBONDED TABLE SIZE: 705 POINTS
TCL: Setting parameter alchLambda2 to 0.15000000000000002
Info: NONBONDED TABLE R-SQUARED SPACING: 0.0625
Info: NONBONDED TABLE SIZE: 705 POINTS
TCL: Running for 1500000 steps
ETITLE: TS BOND ANGLE DIHED IMPRP ELECT VDW BOUNDARY MISC KINETIC TOTAL TEMP POTENTIAL TOTALAVG TEMPAVG PRESSURE GPRESSURE VOLUME PRESSAVG GPRESSAVG
ENERGY: 0 0.9467 4.0940 3.4077 0.0000 -10756.2618 1401.0708 0.0000 0.0000 1733.7771 -7612.9655 291.7005 -9346.7427 -7612.9655 291.7005 -620.3141 -518.0901 30968.3810 -620.3141 -518.0901
ENERGY: 300000 5.2510 4.5356 3.7212 0.0000 -10804.4720 1467.4616 0.0000 0.0000 1774.2439 -7549.2588 298.5089 -9323.5026 -7636.3309 295.4972 -109.2875 -33.6646 30734.6169 -399.0406 -312.8513
ENERGY: 600000 4.2094 5.4775 2.3748 0.0000 -10915.3054 1502.6343 0.0000 0.0000 1774.9747 -7625.6347 298.6319 -9400.6094 -7624.6630 297.2492 179.0119 220.2861 30047.9418 -171.0806 -98.6992
ENERGY: 900000 4.1413 5.3257 2.4552 0.0000 -10897.8180 1514.1097 0.0000 0.0000 1792.9347 -7578.8513 301.6536 -9371.7860 -7606.3013 298.1078 347.4557 359.5133 30534.8018 -41.8791 21.0419
ENERGY: 1200000 0.8866 7.3661 1.8322 0.0000 -10828.7825 1448.4502 0.0000 0.0000 1754.7493 -7615.4981 295.2290 -9370.2474 -7615.0740 298.1262 -7.5286 116.0852 30257.3278 -63.4796 9.1374
ENERGY: 1500000 1.6590 6.2548 2.6100 0.0000 -10648.6138 1303.2364 0.0000 0.0000 1763.2010 -7571.6526 296.6510 -9334.8536 -7605.9396 298.8535 -1265.7328 -1277.3355 30896.6056 -155.9056 -92.5998
TCL: Running FEP window   4: Lambda1 0.15000000000000002 Lambda2 0.2    [dLambda 0.04999999999999999]
TCL: Setting parameter firsttimestep to 0
TCL: Setting parameter alchLambda to 0.15000000000000002
Info: NONBONDED TABLE R-SQUARED SPACING: 0.0625
Info: NONBONDED TABLE SIZE: 705 POINTS
TCL: Setting parameter alchLambda2 to 0.2
Info: NONBONDED TABLE R-SQUARED SPACING: 0.0625
Info: NONBONDED TABLE SIZE: 705 POINTS
TCL: Running for 1500000 steps
ETITLE: TS BOND ANGLE DIHED IMPRP ELECT VDW BOUNDARY MISC KINETIC TOTAL TEMP POTENTIAL TOTALAVG TEMPAVG PRESSURE GPRESSURE VOLUME PRESSAVG GPRESSAVG
ENERGY: 0 1.6590 6.2548 2.6100 0.0000 -10648.6144 1306.5974 0.0000 0.0000 1762.3197 -7569.1735 296.5027 -9331.4933 -7569.1735 296.5027 -1327.6572 -1262.7961 30896.6056 -1327.6572 -1262.7961
ENERGY: 300000 3.3984 4.2961 1.5499 0.0000 -10932.3948 1538.7786 0.0000 0.0000 1795.3772 -7588.9945 302.0645 -9384.3717 -7604.4096 301.5855 458.7378 522.4765 30733.1318 -343.6331 -287.5557
ENERGY: 600000 2.6973 5.7673 0.7960 0.0000 -10914.6885 1447.9441 0.0000 0.0000 1802.6593 -7654.8245 303.2897 -9457.4838 -7602.7353 301.0203 -379.6015 -327.2260 30506.2483 -312.5327 -252.1298
ENERGY: 900000 1.5386 7.1554 3.5284 0.0000 -10779.1306 1419.0110 0.0000 0.0000 1783.0935 -7564.8037 299.9978 -9347.8972 -7587.7327 301.4844 -561.1150 -526.3070 31343.3985 -280.2516 -215.7929
ENERGY: 1200000 2.4707 6.1901 1.6645 0.0000 -10841.2042 1501.3055 0.0000 0.0000 1816.9663 -7512.6071 305.6968 -9329.5734 -7579.3304 301.4819 175.0986 258.2149 30924.4893 -147.2953 -84.5859
ENERGY: 1500000 3.0151 6.1169 0.8637 0.0000 -10697.5481 1354.9006 0.0000 0.0000 1778.0220 -7554.6298 299.1446 -9332.6517 -7576.4621 301.3733 -828.1970 -785.2145 31127.5962 -198.1209 -135.3214
TCL: Running FEP window   5: Lambda1 0.2    Lambda2 0.25   [dLambda 0.04999999999999999]
TCL: Setting parameter firsttimestep to 0
TCL: Setting parameter alchLambda to 0.2
Info: NONBONDED TABLE R-SQUARED SPACING: 0.0625
Info: NONBONDED TABLE SIZE: 705 POINTS
TCL: Setting parameter alchLambda2 to 0.25
Info: NONBONDED TABLE R-SQUARED SPACING: 0.0625
Info: NONBONDED TABLE SIZE: 705 POINTS
TCL: Running for 1500000 steps
ETITLE: TS BOND ANGLE DIHED IMPRP ELECT VDW BOUNDARY MISC KINETIC TOTAL TEMP POTENTIAL TOTALAVG TEMPAVG PRESSURE GPRESSURE VOLUME PRESSAVG GPRESSAVG
ENERGY: 0 3.0151 6.1169 0.8637 0.0000 -10697.5489 1355.4813 0.0000 0.0000 1777.1413 -7554.9305 298.9964 -9332.0719 -7554.9305 298.9964 -855.6234 -779.4154 31127.5962 -855.6234 -779.4154
ENERGY: 300000 4.4412 7.9437 3.2323 0.0000 -10831.6311 1403.5783 0.0000 0.0000 1759.1615 -7653.2742 295.9714 -9412.4357 -7602.0220 298.8452 -862.3119 -753.0283 30725.8702 -626.3137 -525.8961
ENERGY: 600000 3.0901 5.5934 2.6392 0.0000 -10749.5801 1434.6827 0.0000 0.0000 1744.5691 -7559.0057 293.5163 -9303.5748 -7578.4481 301.6479 78.4001 165.8416 30645.8615 -227.4532 -136.9005
ENERGY: 900000 1.7840 4.1107 0.7068 0.0000 -10859.8059 1517.9513 0.0000 0.0000 1762.0475 -7573.2057 296.4569 -9335.2532 -7581.1402 299.7102 595.6955 688.3143 30278.7523 -127.8426 -47.2147
ENERGY: 1200000 4.2302 4.5949 3.5471 0.0000 -10720.6603 1410.5418 0.0000 0.0000 1822.4026 -7475.3437 306.6114 -9297.7463 -7568.6424 300.6481 -519.1847 -471.6154 30840.4092 -53.4387 24.3547
ENERGY: 1500000 2.9139 5.0017 1.0824 0.0000 -10770.1680 1406.2624 0.0000 0.0000 1804.6612 -7550.2464 303.6265 -9354.9076 -7568.2283 301.1926 -518.2036 -462.5572 30974.7013 -118.1228 -42.0848
TCL: Running FEP window   6: Lambda1 0.25   Lambda2 0.3    [dLambda 0.04999999999999999]
TCL: Setting parameter firsttimestep to 0
TCL: Setting parameter alchLambda to 0.25
Info: NONBONDED TABLE R-SQUARED SPACING: 0.0625
Info: NONBONDED TABLE SIZE: 705 POINTS
TCL: Setting parameter alchLambda2 to 0.3
Info: NONBONDED TABLE R-SQUARED SPACING: 0.0625
Info: NONBONDED TABLE SIZE: 705 POINTS
TCL: Running for 1500000 steps
ETITLE: TS BOND ANGLE DIHED IMPRP ELECT VDW BOUNDARY MISC KINETIC TOTAL TEMP POTENTIAL TOTALAVG TEMPAVG PRESSURE GPRESSURE VOLUME PRESSAVG GPRESSAVG
ENERGY: 0 2.9139 5.0017 1.0824 0.0000 -10770.1695 1406.0255 0.0000 0.0000 1803.7922 -7551.3538 303.4803 -9355.1460 -7551.3538 303.4803 -537.3214 -459.1462 30974.7013 -537.3214 -459.1462
ENERGY: 300000 2.8021 5.2760 2.5765 0.0000 -10821.2811 1456.6821 0.0000 0.0000 1790.9818 -7562.9625 301.3250 -9353.9443 -7557.7752 305.3394 404.5871 397.4488 30091.4335 -214.1205 -168.2913
ENERGY: 600000 1.8017 5.8839 0.9126 0.0000 -10713.4962 1402.9256 0.0000 0.0000 1711.5778 -7590.3946 287.9656 -9301.9724 -7584.5026 301.1862 -471.3512 -407.6086 30962.6907 -220.5863 -162.5186
ENERGY: 900000 2.8682 7.9493 1.2514 0.0000 -10798.4096 1370.8218 0.0000 0.0000 1891.7542 -7523.7646 318.2795 -9415.5188 -7570.5370 303.9035 -749.8769 -641.9690 30728.4282 -94.3391 -36.1473
ENERGY: 1200000 3.2021 5.3719 1.0690 0.0000 -10931.4070 1507.2681 0.0000 0.0000 1777.4667 -7637.0291 299.0511 -9414.4958 -7570.9394 303.8279 247.5149 293.0629 30525.9154 -28.7632 28.7999
ENERGY: 1500000 2.2867 6.7334 2.1495 0.0000 -10810.6367 1498.7410 0.0000 0.0000 1802.7253 -7498.0008 303.3008 -9300.7261 -7565.1290 303.2186 638.0896 662.5107 30594.3031 12.1883 67.0795
TCL: Running FEP window   7: Lambda1 0.3    Lambda2 0.35   [dLambda 0.04999999999999999]
TCL: Setting parameter firsttimestep to 0
TCL: Setting parameter alchLambda to 0.3
Info: NONBONDED TABLE R-SQUARED SPACING: 0.0625
Info: NONBONDED TABLE SIZE: 705 POINTS
TCL: Setting parameter alchLambda2 to 0.35
Info: NONBONDED TABLE R-SQUARED SPACING: 0.0625
Info: NONBONDED TABLE SIZE: 705 POINTS
TCL: Running for 1500000 steps
ETITLE: TS BOND ANGLE DIHED IMPRP ELECT VDW BOUNDARY MISC KINETIC TOTAL TEMP POTENTIAL TOTALAVG TEMPAVG PRESSURE GPRESSURE VOLUME PRESSAVG GPRESSAVG
ENERGY: 0 2.2867 6.7335 2.1495 0.0000 -10810.6359 1498.3351 0.0000 0.0000 1801.8388 -7499.2923 303.1516 -9301.1311 -7499.2923 303.1516 577.4112 664.0145 30594.3031 577.4112 664.0145
ENERGY: 300000 2.4424 6.0113 5.1988 0.0000 -10849.5238 1521.9251 0.0000 0.0000 1752.4043 -7561.5420 294.8345 -9313.9463 -7555.0606 298.3442 498.0478 591.2268 30848.6759 73.2023 135.9695
ENERGY: 600000 1.1291 8.4915 3.3321 0.0000 -10886.2090 1527.2902 0.0000 0.0000 1810.1109 -7535.8552 304.5434 -9345.9661 -7561.6716 298.7302 716.2662 751.7716 30572.0574 263.8849 314.3016
ENERGY: 900000 5.0801 7.9924 1.2311 0.0000 -10775.5325 1424.1225 0.0000 0.0000 1812.9421 -7524.1644 305.0197 -9337.1064 -7563.2475 299.2176 -494.3171 -442.1146 30949.0854 124.3037 174.5401
ENERGY: 1200000 2.2853 6.2204 0.8935 0.0000 -10738.0283 1380.4045 0.0000 0.0000 1761.7336 -7586.4910 296.4041 -9348.2246 -7567.8106 298.2481 -611.7750 -536.1071 30746.8763 31.8775 89.2500
ENERGY: 1500000 3.8287 10.6031 3.8674 0.0000 -10932.2283 1521.7078 0.0000 0.0000 1790.6638 -7601.5575 301.2715 -9392.2213 -7568.7423 299.5550 189.5841 291.4430 30247.8893 25.0456 85.9127
TCL: Running FEP window   8: Lambda1 0.35   Lambda2 0.39999999999999997 [dLambda 0.04999999999999999]
TCL: Setting parameter firsttimestep to 0
TCL: Setting parameter alchLambda to 0.35
Info: NONBONDED TABLE R-SQUARED SPACING: 0.0625
Info: NONBONDED TABLE SIZE: 705 POINTS
TCL: Setting parameter alchLambda2 to 0.39999999999999997
Info: NONBONDED TABLE R-SQUARED SPACING: 0.0625
Info: NONBONDED TABLE SIZE: 705 POINTS
TCL: Running for 1500000 steps
ETITLE: TS BOND ANGLE DIHED IMPRP ELECT VDW BOUNDARY MISC KINETIC TOTAL TEMP POTENTIAL TOTALAVG TEMPAVG PRESSURE GPRESSURE VOLUME PRESSAVG GPRESSAVG
ENERGY: 0 3.8287 10.6031 3.8674 0.0000 -10932.2278 1522.4729 0.0000 0.0000 1789.7452 -7601.7105 301.1169 -9391.4557 -7601.7105 301.1169 215.4256 301.7194 30247.8893 215.4256 301.7194
ENERGY: 300000 2.8402 5.2515 1.7400 0.0000 -10927.1349 1586.2687 0.0000 0.0000 1809.1337 -7521.9008 304.3790 -9331.0345 -7557.0518 302.1422 1220.1873 1304.7992 30404.3845 325.9358 394.5380
ENERGY: 600000 2.7699 4.3445 2.4950 0.0000 -11005.9874 1561.0872 0.0000 0.0000 1833.7009 -7601.5901 308.5123 -9435.2910 -7577.0495 302.7362 527.0550 692.3917 30491.4303 288.6667 366.1332
ENERGY: 900000 3.3764 5.4589 3.2963 0.0000 -10811.9747 1424.1438 0.0000 0.0000 1749.6889 -7626.0105 294.3776 -9375.6994 -7570.1639 300.4045 -321.6967 -275.4636 30439.0772 156.8926 233.5039
ENERGY: 1200000 3.6793 5.3167 2.5395 0.0000 -10871.8750 1420.4633 0.0000 0.0000 1796.1246 -7643.7516 302.1902 -9439.8762 -7571.9794 300.1788 -495.7047 -377.8799 30429.4055 75.4565 157.5994
ENERGY: 1500000 2.3920 7.4449 2.8992 0.0000 -10785.6426 1510.0022 0.0000 0.0000 1756.9581 -7505.9462 295.6007 -9262.9043 -7566.2382 299.7780 512.7740 573.0682 31143.0452 75.3913 151.6524
TCL: Running FEP window   9: Lambda1 0.39999999999999997 Lambda2 0.44999999999999996 [dLambda 0.04999999999999999]
TCL: Setting parameter firsttimestep to 0
TCL: Setting parameter alchLambda to 0.39999999999999997
Info: NONBONDED TABLE R-SQUARED SPACING: 0.0625
Info: NONBONDED TABLE SIZE: 705 POINTS
TCL: Setting parameter alchLambda2 to 0.44999999999999996
Info: NONBONDED TABLE R-SQUARED SPACING: 0.0625
Info: NONBONDED TABLE SIZE: 705 POINTS
TCL: Running for 1500000 steps
ETITLE: TS BOND ANGLE DIHED IMPRP ELECT VDW BOUNDARY MISC KINETIC TOTAL TEMP POTENTIAL TOTALAVG TEMPAVG PRESSURE GPRESSURE VOLUME PRESSAVG GPRESSAVG
ENERGY: 0 2.3920 7.4449 2.8992 0.0000 -10785.6416 1509.7965 0.0000 0.0000 1756.0332 -7507.0758 295.4450 -9263.1090 -7507.0758 295.4450 498.1358 576.8387 31143.0452 498.1358 576.8387
ENERGY: 300000 2.7031 5.6187 0.8060 0.0000 -10826.3822 1474.2052 0.0000 0.0000 1715.9060 -7627.1432 288.6938 -9343.0492 -7535.9608 296.2770 287.7503 353.4486 30578.1988 454.5544 507.8117
ENERGY: 600000 6.2819 4.6524 3.2057 0.0000 -10796.1594 1429.0848 0.0000 0.0000 1778.1444 -7574.7901 299.1652 -9352.9345 -7555.2860 297.6967 -311.3542 -227.4234 30564.5899 118.7090 187.1325
ENERGY: 900000 2.8608 5.6960 0.9963 0.0000 -10889.2085 1533.6423 0.0000 0.0000 1772.3194 -7573.6936 298.1851 -9346.0130 -7559.6255 297.9612 574.8754 630.4463 30638.5896 200.4499 269.4855
ENERGY: 1200000 3.3554 7.0292 0.7493 0.0000 -10842.3847 1469.6824 0.0000 0.0000 1789.3273 -7572.2411 301.0466 -9361.5684 -7568.1546 298.1333 -67.6903 -21.1985 31076.5991 108.8495 174.0916
ENERGY: 1500000 3.1096 6.4044 3.8142 0.0000 -10897.9468 1497.8073 0.0000 0.0000 1751.1790 -7635.6324 294.6283 -9386.8114 -7565.0987 299.3175 58.8963 184.4084 30451.1477 157.0953 229.5350
TCL: Running FEP window  10: Lambda1 0.44999999999999996 Lambda2 0.49999999999999994 [dLambda 0.04999999999999999]
TCL: Setting parameter firsttimestep to 0
TCL: Setting parameter alchLambda to 0.44999999999999996
Info: NONBONDED TABLE R-SQUARED SPACING: 0.0625
Info: NONBONDED TABLE SIZE: 705 POINTS
TCL: Setting parameter alchLambda2 to 0.49999999999999994
Info: NONBONDED TABLE R-SQUARED SPACING: 0.0625
Info: NONBONDED TABLE SIZE: 705 POINTS
TCL: Running for 1500000 steps
ETITLE: TS BOND ANGLE DIHED IMPRP ELECT VDW BOUNDARY MISC KINETIC TOTAL TEMP POTENTIAL TOTALAVG TEMPAVG PRESSURE GPRESSURE VOLUME PRESSAVG GPRESSAVG
ENERGY: 0 3.1096 6.4044 3.8142 0.0000 -10897.9472 1498.7002 0.0000 0.0000 1750.2885 -7635.6304 294.4785 -9385.9189 -7635.6304 294.4785 119.0819 198.2597 30451.1477 119.0819 198.2597
ENERGY: 300000 4.2780 7.1031 3.2681 0.0000 -11006.2660 1482.7993 0.0000 0.0000 1796.2580 -7712.5594 302.2127 -9508.8174 -7644.0496 300.0280 132.4941 176.7164 30217.4738 134.2791 187.2927
ENERGY: 600000 2.2363 7.7167 3.8387 0.0000 -10923.1115 1484.3063 0.0000 0.0000 1776.5802 -7648.4334 298.9020 -9425.0135 -7614.1625 300.8246 304.0556 338.0141 30445.9418 151.7506 199.2298
ENERGY: 900000 1.8585 6.0148 3.5776 0.0000 -10829.7447 1471.2847 0.0000 0.0000 1839.8005 -7507.2088 309.5385 -9347.0092 -7599.0186 301.4162 291.0094 290.7401 30618.3244 143.6917 185.2358
ENERGY: 1200000 2.6848 3.5232 3.2746 0.0000 -10777.8073 1469.6882 0.0000 0.0000 1757.5204 -7541.1161 295.6952 -9298.6364 -7589.9917 301.3691 486.4202 481.0229 30267.8079 130.2170 171.6556
ENERGY: 1500000 2.7925 4.0887 4.4792 0.0000 -10902.3856 1496.8278 0.0000 0.0000 1776.6866 -7617.5108 298.9199 -9394.1974 -7581.7437 301.0603 357.4699 410.1143 30331.4602 78.2820 126.5528
TCL: Running FEP window  11: Lambda1 0.49999999999999994 Lambda2 0.5499999999999999 [dLambda 0.04999999999999999]
TCL: Setting parameter firsttimestep to 0
TCL: Setting parameter alchLambda to 0.49999999999999994
Info: NONBONDED TABLE R-SQUARED SPACING: 0.0625
Info: NONBONDED TABLE SIZE: 705 POINTS
TCL: Setting parameter alchLambda2 to 0.5499999999999999
Info: NONBONDED TABLE R-SQUARED SPACING: 0.0625
Info: NONBONDED TABLE SIZE: 705 POINTS
TCL: Running for 1500000 steps
ETITLE: TS BOND ANGLE DIHED IMPRP ELECT VDW BOUNDARY MISC KINETIC TOTAL TEMP POTENTIAL TOTALAVG TEMPAVG PRESSURE GPRESSURE VOLUME PRESSAVG GPRESSAVG
ENERGY: 0 2.7925 4.0887 4.4792 0.0000 -10902.3856 1497.2132 0.0000 0.0000 1775.7737 -7618.0383 298.7663 -9393.8121 -7618.0383 298.7663 342.5428 418.9783 30331.4602 342.5428 418.9783
ENERGY: 300000 1.8737 6.7907 1.3050 0.0000 -10947.3150 1544.7213 0.0000 0.0000 1730.2339 -7662.3904 291.1044 -9392.6243 -7609.6695 298.6157 820.5473 842.5302 30384.1213 332.9593 382.2530
ENERGY: 600000 3.3351 5.4397 1.5990 0.0000 -10955.2680 1516.3785 0.0000 0.0000 1796.7018 -7631.8140 302.2874 -9428.5158 -7588.3125 300.5240 285.4558 368.3878 30518.9274 168.7759 230.2642
ENERGY: 900000 2.6730 7.0642 3.5649 0.0000 -10836.6750 1404.0790 0.0000 0.0000 1790.5850 -7628.7088 301.2582 -9419.2939 -7598.4449 299.7519 -463.3309 -477.9920 30642.5624 106.3064 156.9253
ENERGY: 1200000 1.8851 6.7372 1.8827 0.0000 -10792.6316 1410.3360 0.0000 0.0000 1826.6238 -7545.1668 307.3216 -9371.7905 -7588.5973 300.5628 -661.9838 -542.1162 31120.0867 5.9667 64.9327
ENERGY: 1500000 1.6536 3.5826 2.9298 0.0000 -10995.3399 1534.4762 0.0000 0.0000 1768.6846 -7684.0131 297.5736 -9452.6978 -7590.2125 300.1401 528.6952 562.5167 30382.2495 -18.1062 42.3367
TCL: Running FEP window  12: Lambda1 0.5499999999999999 Lambda2 0.6    [dLambda 0.050000000000000044]
TCL: Setting parameter firsttimestep to 0
TCL: Setting parameter alchLambda to 0.5499999999999999
Info: NONBONDED TABLE R-SQUARED SPACING: 0.0625
Info: NONBONDED TABLE SIZE: 705 POINTS
TCL: Setting parameter alchLambda2 to 0.6
Info: NONBONDED TABLE R-SQUARED SPACING: 0.0625
Info: NONBONDED TABLE SIZE: 705 POINTS
TCL: Running for 1500000 steps
ETITLE: TS BOND ANGLE DIHED IMPRP ELECT VDW BOUNDARY MISC KINETIC TOTAL TEMP POTENTIAL TOTALAVG TEMPAVG PRESSURE GPRESSURE VOLUME PRESSAVG GPRESSAVG
ENERGY: 0 1.6536 3.5826 2.9298 0.0000 -10996.2107 1534.4347 0.0000 0.0000 1767.8159 -7685.7941 297.4274 -9453.6100 -7685.7941 297.4274 486.6984 567.5879 30382.2495 486.6984 567.5879
ENERGY: 300000 2.7028 3.3773 3.6812 0.0000 -10884.8222 1498.9706 0.0000 0.0000 1735.6972 -7640.3931 292.0236 -9376.0904 -7624.9407 297.6940 277.1667 330.1143 30373.8598 -90.8155 -18.2093
ENERGY: 600000 3.8503 5.1147 3.1558 0.0000 -10784.9101 1463.0536 0.0000 0.0000 1754.2050 -7555.5306 295.1374 -9309.7356 -7618.7395 296.8266 -1.0128 91.2394 30567.5605 62.4968 123.0432
ENERGY: 900000 3.9738 6.5100 3.3736 0.0000 -10788.1806 1412.1716 0.0000 0.0000 1795.5696 -7566.5819 302.0969 -9362.1515 -7614.5058 297.8315 -651.0061 -576.9168 30720.7883 -52.3661 12.8332
ENERGY: 1200000 1.7992 4.2135 3.3417 0.0000 -10827.1853 1493.4242 0.0000 0.0000 1776.0636 -7548.3431 298.8151 -9324.4066 -7611.8619 298.1361 209.3999 198.2311 31230.3260 -62.6855 2.1421
ENERGY: 1500000 1.5097 5.6970 1.7765 0.0000 -10890.8472 1488.0926 0.0000 0.0000 1811.3773 -7582.3940 304.7564 -9393.7713 -7599.6549 299.2408 281.2674 323.7378 30609.9489 7.0747 68.0566
TCL: Running FEP window  13: Lambda1 0.6    Lambda2 0.65   [dLambda 0.050000000000000044]
TCL: Setting parameter firsttimestep to 0
TCL: Setting parameter alchLambda to 0.6
Info: NONBONDED TABLE R-SQUARED SPACING: 0.0625
Info: NONBONDED TABLE SIZE: 705 POINTS
TCL: Setting parameter alchLambda2 to 0.65
Info: NONBONDED TABLE R-SQUARED SPACING: 0.0625
Info: NONBONDED TABLE SIZE: 705 POINTS
TCL: Running for 1500000 steps
ETITLE: TS BOND ANGLE DIHED IMPRP ELECT VDW BOUNDARY MISC KINETIC TOTAL TEMP POTENTIAL TOTALAVG TEMPAVG PRESSURE GPRESSURE VOLUME PRESSAVG GPRESSAVG
ENERGY: 0 1.5097 5.6970 1.7765 0.0000 -10890.9480 1488.1186 0.0000 0.0000 1810.5105 -7583.3357 304.6106 -9393.8462 -7583.3357 304.6106 265.2928 333.6004 30609.9489 265.2928 333.6004
ENERGY: 300000 2.0050 4.7955 1.6488 0.0000 -10759.5174 1404.9383 0.0000 0.0000 1791.1720 -7554.9578 301.3570 -9346.1297 -7558.4820 299.2654 -342.7490 -266.9654 30700.2488 -50.9154 30.4694
ENERGY: 600000 1.2465 4.9269 1.8374 0.0000 -10855.4330 1519.7507 0.0000 0.0000 1843.3627 -7484.3088 310.1379 -9327.6715 -7549.2168 304.3580 591.7230 649.3380 30878.4593 81.2248 156.2499
ENERGY: 900000 5.0009 6.1476 2.4144 0.0000 -10894.2579 1490.9657 0.0000 0.0000 1730.8764 -7658.8529 291.2125 -9389.7293 -7561.3230 303.1494 -151.8905 -49.8816 30856.7648 44.1340 116.3859
ENERGY: 1200000 4.6847 5.5386 2.8881 0.0000 -10647.1844 1349.4026 0.0000 0.0000 1778.8511 -7505.8194 299.2841 -9284.6705 -7553.3052 302.0221 -794.0161 -741.8102 30994.0968 -79.8018 -14.4588
ENERGY: 1500000 1.9347 6.3346 2.2645 0.0000 -10877.9757 1507.3912 0.0000 0.0000 1749.7061 -7610.3446 294.3805 -9360.0507 -7553.0500 300.9906 483.3129 543.9395 30667.8212 -89.7447 -31.6237
TCL: Running FEP window  14: Lambda1 0.65   Lambda2 0.7000000000000001 [dLambda 0.050000000000000044]
TCL: Setting parameter firsttimestep to 0
TCL: Setting parameter alchLambda to 0.65
Info: NONBONDED TABLE R-SQUARED SPACING: 0.0625
Info: NONBONDED TABLE SIZE: 705 POINTS
TCL: Setting parameter alchLambda2 to 0.7000000000000001
Info: NONBONDED TABLE R-SQUARED SPACING: 0.0625
Info: NONBONDED TABLE SIZE: 705 POINTS
TCL: Running for 1500000 steps
ETITLE: TS BOND ANGLE DIHED IMPRP ELECT VDW BOUNDARY MISC KINETIC TOTAL TEMP POTENTIAL TOTALAVG TEMPAVG PRESSURE GPRESSURE VOLUME PRESSAVG GPRESSAVG
ENERGY: 0 1.9347 6.3346 2.2645 0.0000 -10878.1467 1507.4832 0.0000 0.0000 1748.8354 -7611.2943 294.2340 -9360.1297 -7611.2943 294.2340 459.2197 551.9073 30667.8212 459.2197 551.9073
ENERGY: 300000 4.4216 3.8857 1.2453 0.0000 -10880.9363 1490.6201 0.0000 0.0000 1848.6440 -7532.1195 311.0264 -9380.7635 -7580.0533 301.5207 231.5705 308.0770 30695.8769 45.3353 116.9484
ENERGY: 600000 2.9740 5.0711 2.2197 0.0000 -10833.6401 1421.4313 0.0000 0.0000 1743.8863 -7658.0577 293.4014 -9401.9440 -7581.5915 300.1828 -425.6909 -327.7605 30454.7508 101.7410 173.3814
ENERGY: 900000 3.1728 4.2459 1.3030 0.0000 -10716.8563 1365.3577 0.0000 0.0000 1801.2789 -7541.4980 303.0574 -9342.7769 -7571.4830 301.3564 -641.5561 -618.5212 31034.7205 117.9703 180.2397
ENERGY: 1200000 2.0902 17.2200 3.1731 0.0000 -10806.2267 1386.6643 0.0000 0.0000 1755.9032 -7641.1758 295.4232 -9397.0791 -7580.5797 300.5758 -631.9293 -530.8325 30714.2237 7.0509 74.1889
ENERGY: 1500000 3.5879 5.1960 2.4588 0.0000 -10963.8616 1578.2609 0.0000 0.0000 1772.1891 -7602.1689 298.1632 -9374.3580 -7572.0850 301.4527 826.4468 910.3411 30837.4508 91.0064 162.4743
TCL: Running FEP window  15: Lambda1 0.7000000000000001 Lambda2 0.7500000000000001 [dLambda 0.050000000000000044]
TCL: Setting parameter firsttimestep to 0
TCL: Setting parameter alchLambda to 0.7000000000000001
Info: NONBONDED TABLE R-SQUARED SPACING: 0.0625
Info: NONBONDED TABLE SIZE: 705 POINTS
TCL: Setting parameter alchLambda2 to 0.7500000000000001
Info: NONBONDED TABLE R-SQUARED SPACING: 0.0625
Info: NONBONDED TABLE SIZE: 705 POINTS
TCL: Running for 1500000 steps
ETITLE: TS BOND ANGLE DIHED IMPRP ELECT VDW BOUNDARY MISC KINETIC TOTAL TEMP POTENTIAL TOTALAVG TEMPAVG PRESSURE GPRESSURE VOLUME PRESSAVG GPRESSAVG
ENERGY: 0 3.5879 5.1960 2.4588 0.0000 -10965.2276 1578.7691 0.0000 0.0000 1771.3299 -7603.8860 298.0186 -9375.2159 -7603.8860 298.0186 827.4134 922.6303 30837.4508 827.4134 922.6303
ENERGY: 300000 2.6147 9.5513 4.3701 0.0000 -10626.7977 1309.4924 0.0000 0.0000 1790.5233 -7510.2459 301.2479 -9300.7692 -7551.7371 298.6721 -1236.4651 -1188.5580 31310.3468 -148.1059 -87.6601
ENERGY: 600000 2.9320 4.1563 2.0421 0.0000 -11005.5354 1541.6240 0.0000 0.0000 1762.7766 -7692.0045 296.5796 -9454.7811 -7584.9061 299.6964 787.3984 869.1322 30036.2184 -126.1334 -54.7866
ENERGY: 900000 0.9418 6.5224 2.5150 0.0000 -10807.8381 1519.4727 0.0000 0.0000 1792.8554 -7485.5309 301.6402 -9278.3863 -7577.0746 300.9947 889.4163 889.0430 30701.4124 45.0073 102.1208
ENERGY: 1200000 3.2249 8.3777 1.7014 0.0000 -10903.4413 1529.9803 0.0000 0.0000 1794.3528 -7565.8042 301.8921 -9360.1570 -7564.1565 301.6646 211.9047 276.6252 31507.5558 24.3605 81.2675
ENERGY: 1500000 2.0993 6.5145 0.6388 0.0000 -10796.8162 1425.8850 0.0000 0.0000 1761.2989 -7600.3797 296.3310 -9361.6786 -7567.1514 300.6930 -280.2834 -272.6605 31003.0179 -7.5846 41.7530
TCL: Running FEP window  16: Lambda1 0.7500000000000001 Lambda2 0.8000000000000002 [dLambda 0.050000000000000044]
TCL: Setting parameter firsttimestep to 0
TCL: Setting parameter alchLambda to 0.7500000000000001
Info: NONBONDED TABLE R-SQUARED SPACING: 0.0625
Info: NONBONDED TABLE SIZE: 705 POINTS
TCL: Setting parameter alchLambda2 to 0.8000000000000002
Info: NONBONDED TABLE R-SQUARED SPACING: 0.0625
Info: NONBONDED TABLE SIZE: 705 POINTS
TCL: Running for 1500000 steps
ETITLE: TS BOND ANGLE DIHED IMPRP ELECT VDW BOUNDARY MISC KINETIC TOTAL TEMP POTENTIAL TOTALAVG TEMPAVG PRESSURE GPRESSURE VOLUME PRESSAVG GPRESSAVG
ENERGY: 0 2.0993 6.5145 0.6388 0.0000 -10797.8663 1426.9207 0.0000 0.0000 1760.3979 -7601.2950 296.1794 -9361.6929 -7601.2950 296.1794 -332.4164 -256.3288 31003.0179 -332.4164 -256.3288
ENERGY: 300000 3.8840 4.2164 2.7696 0.0000 -10939.0400 1441.6253 0.0000 0.0000 1862.8429 -7623.7018 313.4153 -9486.5446 -7598.9536 301.0298 -269.5585 -206.6869 30510.0960 -526.0084 -470.2991
ENERGY: 600000 6.3566 5.4565 1.5262 0.0000 -10924.8626 1478.7223 0.0000 0.0000 1751.9598 -7680.8411 294.7597 -9432.8010 -7603.4187 299.3556 -30.8220 45.3678 30443.7575 -163.3419 -90.3712
ENERGY: 900000 6.0265 8.1363 3.6854 0.0000 -10914.0336 1516.3743 0.0000 0.0000 1836.0305 -7543.7806 308.9042 -9379.8111 -7585.3168 300.2880 311.4713 433.6970 30601.8623 -160.9224 -77.6169
ENERGY: 1200000 2.1320 9.5040 2.2963 0.0000 -10716.7392 1373.7503 0.0000 0.0000 1794.7682 -7534.2885 301.9620 -9329.0567 -7574.9407 299.9134 -797.8712 -781.6659 31262.3640 -117.1142 -56.6756
ENERGY: 1500000 6.2442 8.5667 2.2641 0.0000 -10849.8576 1495.9155 0.0000 0.0000 1790.9562 -7545.9110 301.3207 -9336.8672 -7574.9238 300.3717 298.8844 347.9113 30707.3390 -75.3469 -11.1732
TCL: Running FEP window  17: Lambda1 0.8000000000000002 Lambda2 0.8500000000000002 [dLambda 0.050000000000000044]
TCL: Setting parameter firsttimestep to 0
TCL: Setting parameter alchLambda to 0.8000000000000002
Info: NONBONDED TABLE R-SQUARED SPACING: 0.0625
Info: NONBONDED TABLE SIZE: 705 POINTS
TCL: Setting parameter alchLambda2 to 0.8500000000000002
Info: NONBONDED TABLE R-SQUARED SPACING: 0.0625
Info: NONBONDED TABLE SIZE: 705 POINTS
TCL: Running for 1500000 steps
ETITLE: TS BOND ANGLE DIHED IMPRP ELECT VDW BOUNDARY MISC KINETIC TOTAL TEMP POTENTIAL TOTALAVG TEMPAVG PRESSURE GPRESSURE VOLUME PRESSAVG GPRESSAVG
ENERGY: 0 6.2442 8.5667 2.2641 0.0000 -10850.0080 1495.9031 0.0000 0.0000 1790.0913 -7546.9387 301.1752 -9337.0300 -7546.9387 301.1752 271.3406 361.3229 30707.3390 271.3406 361.3229
ENERGY: 300000 2.6255 5.3132 2.2602 0.0000 -10822.8004 1434.8707 0.0000 0.0000 1815.4012 -7562.3297 305.4334 -9377.7308 -7546.5969 303.2229 -127.8294 -51.9395 30713.3696 32.8687 113.1223
ENERGY: 600000 1.4789 4.2184 1.3960 0.0000 -10852.6241 1449.0678 0.0000 0.0000 1848.7837 -7547.6794 311.0499 -9396.4631 -7547.6461 303.3282 -55.6034 58.4658 30692.9926 -46.1726 46.7019
ENERGY: 900000 3.3380 4.6082 2.5633 0.0000 -10888.6996 1511.0373 0.0000 0.0000 1704.3749 -7662.7778 286.7538 -9367.1527 -7566.8668 299.6953 521.3439 565.8546 30078.9590 15.9951 98.0514
ENERGY: 1200000 4.2371 4.3891 1.7302 0.0000 -10832.8159 1465.5855 0.0000 0.0000 1773.5157 -7583.3583 298.3864 -9356.8739 -7574.8370 299.6036 -17.7728 38.7079 30871.1127 15.8097 95.1082
ENERGY: 1500000 3.6620 6.0825 1.9454 0.0000 -10707.9726 1435.9595 0.0000 0.0000 1810.2058 -7450.1175 304.5593 -9260.3233 -7571.5650 299.8975 10.2175 12.8901 31081.5847 -32.7692 30.5404
TCL: Running FEP window  18: Lambda1 0.8500000000000002 Lambda2 0.9000000000000002 [dLambda 0.050000000000000044]
TCL: Setting parameter firsttimestep to 0
TCL: Setting parameter alchLambda to 0.8500000000000002
Info: NONBONDED TABLE R-SQUARED SPACING: 0.0625
Info: NONBONDED TABLE SIZE: 705 POINTS
TCL: Setting parameter alchLambda2 to 0.9000000000000002
Info: NONBONDED TABLE R-SQUARED SPACING: 0.0625
Info: NONBONDED TABLE SIZE: 705 POINTS
TCL: Running for 1500000 steps
ETITLE: TS BOND ANGLE DIHED IMPRP ELECT VDW BOUNDARY MISC KINETIC TOTAL TEMP POTENTIAL TOTALAVG TEMPAVG PRESSURE GPRESSURE VOLUME PRESSAVG GPRESSAVG
ENERGY: 0 3.6620 6.0825 1.9454 0.0000 -10709.3779 1436.8375 0.0000 0.0000 1809.2907 -7451.5598 304.4054 -9260.8505 -7451.5598 304.4054 -38.1439 28.0067 31081.5847 -38.1439 28.0067
ENERGY: 300000 5.0613 3.1637 1.9122 0.0000 -10915.2876 1503.6094 0.0000 0.0000 1740.3144 -7661.2266 292.8004 -9401.5410 -7562.5431 295.6894 -76.6445 9.6972 31005.5388 -150.8426 -85.0832
ENERGY: 600000 3.7401 5.3524 1.4450 0.0000 -10776.7030 1435.2741 0.0000 0.0000 1774.5323 -7556.3592 298.5574 -9330.8915 -7569.4456 296.7975 -156.2671 -105.6616 30994.5407 -189.0255 -123.4045
ENERGY: 900000 2.4395 7.4067 0.8582 0.0000 -10814.3111 1421.1329 0.0000 0.0000 1737.7962 -7644.6775 292.3767 -9382.4737 -7583.8967 295.8007 -512.3986 -442.8978 30834.9123 -235.4873 -155.0960
ENERGY: 1200000 2.1706 6.2321 3.2585 0.0000 -10882.6373 1500.1207 0.0000 0.0000 1818.1435 -7552.7118 305.8948 -9370.8553 -7578.2895 297.3147 319.8203 429.7135 30402.4887 -221.5633 -143.0026
ENERGY: 1500000 2.6893 5.1711 2.0081 0.0000 -10938.2668 1537.3379 0.0000 0.0000 1783.0406 -7608.0198 299.9889 -9391.0604 -7580.3143 298.3994 474.9697 516.7997 30703.4413 -230.0573 -156.6355
TCL: Running FEP window  19: Lambda1 0.9000000000000002 Lambda2 0.9500000000000003 [dLambda 0.050000000000000044]
TCL: Setting parameter firsttimestep to 0
TCL: Setting parameter alchLambda to 0.9000000000000002
Info: NONBONDED TABLE R-SQUARED SPACING: 0.0625
Info: NONBONDED TABLE SIZE: 705 POINTS
TCL: Setting parameter alchLambda2 to 0.9500000000000003
Info: NONBONDED TABLE R-SQUARED SPACING: 0.0625
Info: NONBONDED TABLE SIZE: 705 POINTS
TCL: Running for 1500000 steps
ETITLE: TS BOND ANGLE DIHED IMPRP ELECT VDW BOUNDARY MISC KINETIC TOTAL TEMP POTENTIAL TOTALAVG TEMPAVG PRESSURE GPRESSURE VOLUME PRESSAVG GPRESSAVG
ENERGY: 0 2.6893 5.1711 2.0081 0.0000 -10939.1939 1537.4877 0.0000 0.0000 1782.1380 -7609.6998 299.8371 -9391.8378 -7609.6998 299.8371 451.6221 531.4312 30703.4413 451.6221 531.4312
ENERGY: 300000 3.6412 4.2393 0.7724 0.0000 -10750.8857 1409.7144 0.0000 0.0000 1764.0702 -7568.4482 296.7972 -9332.5184 -7580.2530 300.9303 -339.3050 -218.4643 30895.8173 34.8962 145.1197
ENERGY: 600000 5.2484 3.9957 2.5096 0.0000 -10860.0077 1440.7770 0.0000 0.0000 1789.4006 -7618.0763 301.0590 -9407.4769 -7594.9843 300.5846 -370.4290 -288.6277 30897.9257 100.2979 196.3765
ENERGY: 900000 3.5284 7.8405 2.2562 0.0000 -10881.6515 1459.0505 0.0000 0.0000 1776.8671 -7632.1089 298.9502 -9408.9760 -7597.5434 300.1508 -284.4501 -199.0288 30822.6235 116.9496 211.0629
ENERGY: 1200000 0.5512 6.1983 1.0770 0.0000 -10803.8385 1437.3997 0.0000 0.0000 1807.9490 -7550.6633 304.1797 -9358.6124 -7593.0956 300.3495 -16.3566 -5.5483 30929.7207 37.8502 115.8695
ENERGY: 1500000 4.8941 6.6155 1.5808 0.0000 -10879.7449 1493.6727 0.0000 0.0000 1849.6876 -7523.2942 311.2020 -9372.9818 -7585.2410 300.4122 296.0586 398.3216 30802.4625 -9.3255 66.6407
TCL: Running FEP window  20: Lambda1 0.9500000000000003 Lambda2 1.0    [dLambda 0.04999999999999971]
TCL: Setting parameter firsttimestep to 0
TCL: Setting parameter alchLambda to 0.9500000000000003
Info: NONBONDED TABLE R-SQUARED SPACING: 0.0625
Info: NONBONDED TABLE SIZE: 705 POINTS
TCL: Setting parameter alchLambda2 to 1.0
Info: NONBONDED TABLE R-SQUARED SPACING: 0.0625
Info: NONBONDED TABLE SIZE: 705 POINTS
TCL: Running for 1500000 steps
ETITLE: TS BOND ANGLE DIHED IMPRP ELECT VDW BOUNDARY MISC KINETIC TOTAL TEMP POTENTIAL TOTALAVG TEMPAVG PRESSURE GPRESSURE VOLUME PRESSAVG GPRESSAVG
ENERGY: 0 4.8941 6.6155 1.5808 0.0000 -10880.8643 1494.2855 0.0000 0.0000 1848.8084 -7524.6800 311.0541 -9373.4884 -7524.6800 311.0541 328.8635 415.7549 30802.4625 328.8635 415.7549
ENERGY: 300000 2.4512 3.2516 3.9371 0.0000 -10832.9619 1453.9521 0.0000 0.0000 1786.0991 -7583.2707 300.5035 -9369.3698 -7610.0783 302.2118 -155.9946 -120.2076 31166.4927 -241.2632 -176.9200
ENERGY: 600000 3.4445 6.1322 2.5411 0.0000 -10761.6597 1471.0082 0.0000 0.0000 1791.4084 -7487.1252 301.3968 -9278.5336 -7584.3663 301.0400 134.8974 187.5714 31205.3942 -163.1932 -97.4912
ENERGY: 900000 3.5644 7.9760 3.2418 0.0000 -10795.4959 1457.2442 0.0000 0.0000 1775.1780 -7548.2916 298.6661 -9323.4696 -7595.9319 300.5971 -21.6299 165.4968 30479.8514 -33.7104 44.7286
ENERGY: 1200000 4.0049 8.3588 4.9754 0.0000 -10784.4661 1461.7639 0.0000 0.0000 1740.5629 -7564.8003 292.8422 -9305.3632 -7603.0001 299.5579 312.3194 371.6245 30851.7689 -62.7148 12.1421
ENERGY: 1500000 1.7638 4.2353 1.6809 0.0000 -10783.0200 1366.1702 0.0000 0.0000 1789.5953 -7619.5746 301.0917 -9409.1699 -7596.4000 299.5594 -766.8738 -715.7444 30982.7492 -123.5192 -47.2426
TCL: Exiting due to exit command.
