Info: SIMULATION PARAMETERS:
Info: TIMESTEP               2
Info: NUMBER OF STEPS        0
Info: STEPS PER CYCLE        10
Info: PERIODIC CELL BASIS 1  31.7224 0 0
Info: PERIODIC CELL BASIS 2  0 30.044 0
Info: PERIODIC CELL BASIS 3  0 0 31.8933
Info: PERIODIC CELL CENTER   0 0 0
Info: WRAPPING WATERS AROUND PERIODIC BOUNDARIES ON OUTPUT.
Info: WRAPPING ALL CLUSTERS AROUND PERIODIC BOUNDARIES ON OUTPUT.
Info: FIRST LDB TIMESTEP     50
Info: LAST LDB TIMESTEP     -1
Info: HOM BACKGROUND SCALING 1
Info: PME BACKGROUND SCALING 1
Info: MIN ATOMS PER PATCH    40
Info: EMPTY PATCH LOAD       40 ATOMS
Info: VELOCITY FILE          mobley_7009711_equil.vel
Info: CENTER OF MASS MOVING INITIALLY? NO
Info: DIELECTRIC             1
Info: EXCLUDE                SCALED ONE-FOUR
Info: 1-4 ELECTROSTATICS SCALED BY 0.833333
Info: MODIFIED 1-4 VDW PARAMETERS WILL BE USED
Info: DCD FILENAME           mobley_7009711_prod.dcd
Info: DCD FREQUENCY          100000
Info: DCD FIRST STEP         100000
Info: DCD FILE WILL CONTAIN UNIT CELL DATA
Info: XST FILENAME           mobley_7009711_prod.xst
Info: XST FREQUENCY          100000
Info: NO VELOCITY DCD OUTPUT
Info: NO FORCE DCD OUTPUT
Info: OUTPUT FILENAME        mobley_7009711_prod
Info: BINARY OUTPUT FILES WILL BE USED
Info: RESTART FILENAME       mobley_7009711_prod.restart
Info: RESTART FREQUENCY      100000
Info: BINARY RESTART FILES WILL BE USED
Info: CUTOFF                 9
Info: PAIRLIST DISTANCE      11
Info: PAIRLIST SHRINK RATE   0.01
Info: PAIRLIST GROW RATE     0.01
Info: PAIRLIST TRIGGER       0.3
Info: PAIRLISTS PER CYCLE    2
Info: PAIRLISTS ENABLED
Info: MARGIN                 2
Info: HYDROGEN GROUP CUTOFF  2.5
Info: PATCH DIMENSION        15.5
Info: ENERGY OUTPUT STEPS    100000
Info: ENERGY EVALUATION STEPS    100000
Info: OUTPUT ENERGY PRECISION 4
Info: CROSSTERM ENERGY INCLUDED IN DIHEDRAL
Info: TIMING OUTPUT STEPS    1000000
Info: PRESSURE OUTPUT STEPS  100000
Info: ALCHEMICAL FEP ON
Info: FEP CURRENT LAMBDA VALUE     0
Info: FEP COMPARISON LAMBDA VALUE  0.05
Info: FEP INTRA-ALCHEMICAL NON-BONDED INTERACTIONS WILL BE RETAINED
Info: FEP INTRA-ALCHEMICAL BONDED INTERACTIONS WILL BE RETAINED
Info: FEP VDW SHIFTING COEFFICIENT 5
Info: FEP ELEC. ACTIVE FOR ANNIHILATED PARTICLES BETWEEN LAMBDA = 0 AND LAMBDA = 0.5
Info: FEP ELEC. ACTIVE FOR EXNIHILATED PARTICLES BETWEEN LAMBDA = 0.5 AND LAMBDA = 1
Info: FEP VDW ACTIVE FOR ANNIHILATED PARTICLES BETWEEN LAMBDA = 0 AND LAMBDA = 1
Info: FEP VDW ACTIVE FOR EXNIHILATED PARTICLES BETWEEN LAMBDA = 0 AND LAMBDA = 1
Info: FEP BOND ACTIVE FOR ANNIHILATED PARTICLES BETWEEN LAMBDA = 1 AND LAMBDA = 1
Info: FEP BOND ACTIVE FOR EXNIHILATED PARTICLES BETWEEN LAMBDA = 0 AND LAMBDA = 0
Info: LANGEVIN DYNAMICS ACTIVE
Info: LANGEVIN TEMPERATURE   300
Info: LANGEVIN USING BBK INTEGRATOR
Info: LANGEVIN DAMPING COEFFICIENT IS 1 INVERSE PS
Info: LANGEVIN DYNAMICS APPLIED TO HYDROGENS
Info: LANGEVIN PISTON PRESSURE CONTROL ACTIVE
Info:        TARGET PRESSURE IS 1.01325 BAR
Info:     OSCILLATION PERIOD IS 50 FS
Info:             DECAY TIME IS 25 FS
Info:     PISTON TEMPERATURE IS 300 K
Info:       PRESSURE CONTROL IS GROUP-BASED
Info:    INITIAL STRAIN RATE IS -0.000120283 -0.000120283 -0.000120283
Info:       CELL FLUCTUATION IS ISOTROPIC
Info: PARTICLE MESH EWALD (PME) ACTIVE
Info: PME TOLERANCE               1e-06
Info: PME EWALD COEFFICIENT       0.348832
Info: PME INTERPOLATION ORDER     4
Info: PME GRID DIMENSIONS         32 32 32
Info: PME MAXIMUM GRID SPACING    1
Info: PME CALCULATION WILL BE PERFORMED ON GPU
Info: FULL ELECTROSTATIC EVALUATION FREQUENCY      2
Info: USING VERLET I (r-RESPA) MTS SCHEME.
Info: C1 SPLITTING OF LONG RANGE ELECTROSTATICS
Info: PLACING ATOMS IN PATCHES BY HYDROGEN GROUPS
Info: RIGID BONDS TO HYDROGEN : ALL
Info:         ERROR TOLERANCE : 1e-08
Info:          MAX ITERATIONS : 100
Info: RIGID WATER USING SETTLE ALGORITHM
Info: RANDOM NUMBER SEED     1743613496
Info: USE HYDROGEN BONDS?    NO
Info: Using AMBER format force field!
Info: AMBER PARM FILE        mobley_7009711.prmtop
Info: COORDINATE PDB         mobley_7009711.pdb
Info: Exclusions will be read from PARM file!
Info: SCNB (VDW SCALING)     2
Info: USING ARITHMETIC MEAN TO COMBINE L-J SIGMA PARAMETERS
Info: BINARY COORDINATES     mobley_7009711_equil.coor
Info: SUMMARY OF PARAMETERS:
Info: 8 BONDS
Info: 7 ANGLES
Info:   7 HARMONIC
Info:   0 COSINE-BASED
Info: 4 DIHEDRAL
Info: 0 IMPROPER
Info: 0 CROSSTERM
Info: 0 VDW
Info: 28 VDW_PAIRS
Info: 0 NBTHOLE_PAIRS
Info: To read alchdata from file: mobley_7009711.pdb
Info: To read alchflag data from column: 5
Info: STRUCTURE SUMMARY:
Info: 2920 ATOMS
Info: 2920 BONDS
Info: 31 ANGLES
Info: 44 DIHEDRALS
Info: 0 IMPROPERS
Info: 0 CROSSTERMS
Info: 2986 EXCLUSIONS
Info: 2911 RIGID BONDS
Info: ALCH: 0 ATOMS TO DISAPPEAR IN FINAL STATE
Info: ALCH: 19 ATOMS TO APPEAR IN FINAL STATE
Info: 5849 DEGREES OF FREEDOM
Info: 976 HYDROGEN GROUPS
Info: 4 ATOMS IN LARGEST HYDROGEN GROUP
Info: 976 MIGRATION GROUPS
Info: 4 ATOMS IN LARGEST MIGRATION GROUP
Info: TOTAL MASS = 17543.6 amu
Info: TOTAL CHARGE = 9.99719e-05 e
Info: MASS DENSITY = 0.95842 g/cm^3
Info: ATOM DENSITY = 0.0960639 atoms/A^3
Info: ADDED 0 IMPLICIT EXCLUSIONS
Info: NONBONDED TABLE R-SQUARED SPACING: 0.0625
Info: NONBONDED TABLE SIZE: 705 POINTS
Info: REMOVING COM VELOCITY 0.0020627 -0.0369084 -0.0549521
Info: Use 3D box decompostion in PME FFT.
Info: Updated CUDA force table with 4096 elements.
Info: Updated CUDA LJ table with 7 x 7 elements.
Info: Found 22 unique exclusion lists needing 60 bytes
TCL: Running for 1500000 steps
ETITLE: TS BOND ANGLE DIHED IMPRP ELECT VDW BOUNDARY MISC KINETIC TOTAL TEMP POTENTIAL TOTALAVG TEMPAVG PRESSURE GPRESSURE VOLUME PRESSAVG GPRESSAVG
ENERGY: 0 1.2716 4.8666 3.5690 0.0000 -10487.4403 1436.7451 0.0000 0.0000 1731.6483 -7309.3397 297.9672 -9040.9880 -7309.3397 297.9672 313.3454 398.5780 30396.4399 313.3454 398.5780
ENERGY: 300000 3.1789 11.3305 1.3766 0.0000 -10623.6331 1461.4941 0.0000 0.0000 1710.1644 -7436.0885 294.2704 -9146.2530 -7389.0647 298.5506 325.6364 323.4426 29758.4257 102.0722 140.6528
ENERGY: 600000 3.2760 6.9272 2.6489 0.0000 -10549.1497 1439.7611 0.0000 0.0000 1742.9400 -7353.5966 299.9102 -9096.5366 -7404.3387 298.7705 191.5386 273.8317 29967.1784 246.2459 303.4272
ENERGY: 900000 2.1372 7.6332 1.7833 0.0000 -10545.0862 1412.1965 0.0000 0.0000 1766.4111 -7354.9248 303.9489 -9121.3359 -7426.6246 298.0607 135.5550 200.5778 29889.2692 244.7555 293.2457
ENERGY: 1200000 4.5789 4.7211 2.4565 0.0000 -10625.1840 1414.1663 0.0000 0.0000 1721.0349 -7478.2262 296.1409 -9199.2611 -7428.0222 297.0844 -224.9410 -135.1611 29633.4077 173.4551 232.1928
ENERGY: 1500000 1.9824 4.6851 1.6914 0.0000 -10665.6141 1459.8997 0.0000 0.0000 1808.5957 -7388.7598 311.2076 -9197.3554 -7421.6275 298.3746 393.1830 495.1165 29303.0180 137.9734 196.5664
TCL: Running FEP window   2: Lambda1 0.05   Lambda2 0.1    [dLambda 0.05  ]
TCL: Setting parameter firsttimestep to 0
TCL: Setting parameter alchLambda to 0.05
Info: NONBONDED TABLE R-SQUARED SPACING: 0.0625
Info: NONBONDED TABLE SIZE: 705 POINTS
TCL: Setting parameter alchLambda2 to 0.1
Info: NONBONDED TABLE R-SQUARED SPACING: 0.0625
Info: NONBONDED TABLE SIZE: 705 POINTS
TCL: Running for 1500000 steps
ETITLE: TS BOND ANGLE DIHED IMPRP ELECT VDW BOUNDARY MISC KINETIC TOTAL TEMP POTENTIAL TOTALAVG TEMPAVG PRESSURE GPRESSURE VOLUME PRESSAVG GPRESSAVG
ENERGY: 0 1.9824 4.6851 1.6914 0.0000 -10665.6142 1462.4687 0.0000 0.0000 1807.7324 -7387.0541 311.0591 -9194.7865 -7387.0541 311.0591 412.6070 505.8708 29303.0180 412.6070 505.8708
ENERGY: 300000 1.2689 5.5098 2.1009 0.0000 -10708.1121 1517.1671 0.0000 0.0000 1752.2420 -7429.8234 301.5108 -9182.0654 -7401.6851 303.4758 921.0755 939.6519 29545.8837 -309.4301 -247.8138
ENERGY: 600000 3.8856 4.1617 3.0414 0.0000 -10523.4648 1399.0579 0.0000 0.0000 1800.8206 -7312.4977 309.8698 -9113.3183 -7394.2662 303.6884 -402.3131 -355.7377 30447.8997 -125.7710 -67.2533
ENERGY: 900000 4.0720 4.6916 4.1551 0.0000 -10536.2802 1403.5536 0.0000 0.0000 1743.7395 -7376.0685 300.0477 -9119.8080 -7397.0645 302.6924 -233.6041 -61.5578 29664.5006 -71.2428 2.6960
ENERGY: 1200000 0.8728 10.1416 2.4435 0.0000 -10519.1924 1334.1427 0.0000 0.0000 1804.8315 -7366.7603 310.5599 -9171.5918 -7395.0535 303.2791 -888.2629 -854.3911 30205.8992 -239.2483 -173.9635
ENERGY: 1500000 4.2290 4.4715 1.4284 0.0000 -10569.5529 1417.6094 0.0000 0.0000 1772.8487 -7368.9659 305.0566 -9141.8146 -7387.1655 303.4806 99.1458 175.5782 29930.7603 -187.2216 -124.3089
TCL: Running FEP window   3: Lambda1 0.1    Lambda2 0.15000000000000002 [dLambda 0.05000000000000002]
TCL: Setting parameter firsttimestep to 0
TCL: Setting parameter alchLambda to 0.1
Info: NONBONDED TABLE R-SQUARED SPACING: 0.0625
Info: NONBONDED TABLE SIZE: 705 POINTS
TCL: Setting parameter alchLambda2 to 0.15000000000000002
Info: NONBONDED TABLE R-SQUARED SPACING: 0.0625
Info: NONBONDED TABLE SIZE: 705 POINTS
TCL: Running for 1500000 steps
ETITLE: TS BOND ANGLE DIHED IMPRP ELECT VDW BOUNDARY MISC KINETIC TOTAL TEMP POTENTIAL TOTALAVG TEMPAVG PRESSURE GPRESSURE VOLUME PRESSAVG GPRESSAVG
ENERGY: 0 4.2290 4.4715 1.4284 0.0000 -10569.5522 1419.1867 0.0000 0.0000 1771.9664 -7368.2701 304.9048 -9140.2365 -7368.2701 304.9048 105.8688 184.3047 29930.7603 105.8688 184.3047
ENERGY: 300000 3.6737 4.4633 4.6085 0.0000 -10536.9984 1375.3286 0.0000 0.0000 1720.2292 -7428.6952 296.0023 -9148.9244 -7426.3366 298.2954 -496.1876 -470.8555 29956.8001 -61.9163 -14.3507
ENERGY: 600000 1.9670 7.9593 3.1656 0.0000 -10648.0794 1456.6640 0.0000 0.0000 1786.0150 -7392.3085 307.3222 -9178.3235 -7414.1138 298.6155 208.3333 203.8965 30120.3471 223.4495 269.1081
ENERGY: 900000 1.7925 3.6248 3.7538 0.0000 -10450.6110 1382.2808 0.0000 0.0000 1766.5233 -7292.6358 303.9682 -9059.1591 -7394.5612 299.9174 -272.0173 -253.3400 30399.8723 182.8728 237.1398
ENERGY: 1200000 3.8759 7.1561 10.2475 0.0000 -10561.9789 1420.8395 0.0000 0.0000 1715.1702 -7404.6898 295.1318 -9119.8600 -7392.5809 300.2584 -277.2949 -192.0811 30345.9086 81.0353 132.4706
ENERGY: 1500000 3.6719 4.3162 7.5010 0.0000 -10461.4716 1371.6986 0.0000 0.0000 1822.2501 -7252.0338 313.5572 -9074.2839 -7388.4055 301.0331 -349.1272 -294.8236 29971.5756 1.7456 52.9887
TCL: Running FEP window   4: Lambda1 0.15000000000000002 Lambda2 0.2    [dLambda 0.04999999999999999]
TCL: Setting parameter firsttimestep to 0
TCL: Setting parameter alchLambda to 0.15000000000000002
Info: NONBONDED TABLE R-SQUARED SPACING: 0.0625
Info: NONBONDED TABLE SIZE: 705 POINTS
TCL: Setting parameter alchLambda2 to 0.2
Info: NONBONDED TABLE R-SQUARED SPACING: 0.0625
Info: NONBONDED TABLE SIZE: 705 POINTS
TCL: Running for 1500000 steps
ETITLE: TS BOND ANGLE DIHED IMPRP ELECT VDW BOUNDARY MISC KINETIC TOTAL TEMP POTENTIAL TOTALAVG TEMPAVG PRESSURE GPRESSURE VOLUME PRESSAVG GPRESSAVG
ENERGY: 0 3.6719 4.3162 7.5010 0.0000 -10461.4711 1371.6053 0.0000 0.0000 1821.3966 -7252.9801 313.4103 -9074.3767 -7252.9801 313.4103 -373.3071 -296.0713 29971.5756 -373.3071 -296.0713
ENERGY: 300000 3.7239 3.8248 1.7654 0.0000 -10609.2000 1455.8268 0.0000 0.0000 1743.4248 -7400.6342 299.9936 -9144.0590 -7357.5049 303.7172 510.6983 561.2162 29720.6651 138.0032 179.1580
ENERGY: 600000 1.4119 5.2144 4.4939 0.0000 -10612.5150 1457.0936 0.0000 0.0000 1686.3854 -7457.9160 290.1787 -9144.3014 -7376.0225 302.4483 266.1216 312.4692 29820.2989 238.4787 280.8845
ENERGY: 900000 3.5758 6.4917 3.9390 0.0000 -10586.5039 1368.5301 0.0000 0.0000 1753.4037 -7450.5636 301.7107 -9203.9673 -7386.4149 302.9105 -551.0063 -505.2696 29790.6360 121.5713 169.2975
ENERGY: 1200000 2.6488 4.6574 4.7244 0.0000 -10633.9603 1438.3782 0.0000 0.0000 1717.4296 -7466.1219 295.5206 -9183.5515 -7394.7343 302.1869 128.4982 192.3320 30050.5624 123.0788 165.2934
ENERGY: 1500000 2.0260 4.5644 2.1409 0.0000 -10710.3672 1504.1874 0.0000 0.0000 1721.3911 -7476.0574 296.2022 -9197.4485 -7405.8115 301.0829 446.0720 538.2270 29669.3646 153.8987 207.2466
TCL: Running FEP window   5: Lambda1 0.2    Lambda2 0.25   [dLambda 0.04999999999999999]
TCL: Setting parameter firsttimestep to 0
TCL: Setting parameter alchLambda to 0.2
Info: NONBONDED TABLE R-SQUARED SPACING: 0.0625
Info: NONBONDED TABLE SIZE: 705 POINTS
TCL: Setting parameter alchLambda2 to 0.25
Info: NONBONDED TABLE R-SQUARED SPACING: 0.0625
Info: NONBONDED TABLE SIZE: 705 POINTS
TCL: Running for 1500000 steps
ETITLE: TS BOND ANGLE DIHED IMPRP ELECT VDW BOUNDARY MISC KINETIC TOTAL TEMP POTENTIAL TOTALAVG TEMPAVG PRESSURE GPRESSURE VOLUME PRESSAVG GPRESSAVG
ENERGY: 0 2.0260 4.5644 2.1409 0.0000 -10710.3665 1504.3291 0.0000 0.0000 1720.5151 -7476.7910 296.0515 -9197.3062 -7476.7910 296.0515 452.4137 543.0026 29669.3646 452.4137 543.0026
ENERGY: 300000 1.4852 7.8340 2.8214 0.0000 -10623.4563 1500.7599 0.0000 0.0000 1758.6390 -7351.9167 302.6115 -9110.5557 -7410.7693 300.1045 774.8622 806.5238 30020.4137 386.1637 430.9344
ENERGY: 600000 2.5176 5.6605 4.1471 0.0000 -10705.4904 1487.4982 0.0000 0.0000 1765.3361 -7440.3308 303.7639 -9205.6669 -7428.3354 301.2953 675.2848 668.2569 29473.4707 240.4169 297.9768
ENERGY: 900000 0.8862 6.5862 1.3131 0.0000 -10606.5386 1448.1730 0.0000 0.0000 1697.8180 -7451.7620 292.1460 -9149.5800 -7430.2963 299.9611 -14.8360 -9.9613 30400.4721 129.9679 180.2227
ENERGY: 1200000 2.1850 7.2994 4.2256 0.0000 -10742.0857 1455.0231 0.0000 0.0000 1742.6065 -7530.7461 299.8528 -9273.3526 -7436.5751 300.2801 -268.3119 -170.9938 29629.9453 121.1414 174.9052
ENERGY: 1500000 2.6843 5.4954 5.0238 0.0000 -10410.7431 1369.4233 0.0000 0.0000 1743.0477 -7285.0685 299.9287 -9028.1162 -7427.6178 300.3614 -458.4178 -333.3368 30427.7262 51.2049 120.8496
TCL: Running FEP window   6: Lambda1 0.25   Lambda2 0.3    [dLambda 0.04999999999999999]
TCL: Setting parameter firsttimestep to 0
TCL: Setting parameter alchLambda to 0.25
Info: NONBONDED TABLE R-SQUARED SPACING: 0.0625
Info: NONBONDED TABLE SIZE: 705 POINTS
TCL: Setting parameter alchLambda2 to 0.3
Info: NONBONDED TABLE R-SQUARED SPACING: 0.0625
Info: NONBONDED TABLE SIZE: 705 POINTS
TCL: Running for 1500000 steps
ETITLE: TS BOND ANGLE DIHED IMPRP ELECT VDW BOUNDARY MISC KINETIC TOTAL TEMP POTENTIAL TOTALAVG TEMPAVG PRESSURE GPRESSURE VOLUME PRESSAVG GPRESSAVG
ENERGY: 0 2.6843 5.4954 5.0238 0.0000 -10410.7425 1371.1202 0.0000 0.0000 1742.1825 -7284.2362 299.7798 -9026.4188 -7284.2362 299.7798 -415.0272 -322.5541 30427.7262 -415.0272 -322.5541
ENERGY: 300000 2.6251 6.1015 1.5224 0.0000 -10653.7385 1518.3047 0.0000 0.0000 1752.6279 -7372.5570 301.5772 -9125.1849 -7379.6763 298.7898 656.4234 744.7864 29902.9626 109.1346 169.3596
ENERGY: 600000 1.3159 7.7587 2.4534 0.0000 -10541.3292 1436.2716 0.0000 0.0000 1745.7218 -7347.8079 300.3888 -9093.5296 -7381.6771 299.6426 254.3263 312.8960 30211.4705 -31.6572 56.6752
ENERGY: 900000 4.4128 4.1960 3.5866 0.0000 -10647.8957 1449.5685 0.0000 0.0000 1768.6040 -7417.5276 304.3262 -9186.1317 -7395.3181 299.5241 43.7993 17.3476 30089.3360 -47.3332 23.0992
ENERGY: 1200000 1.6147 7.9193 0.9495 0.0000 -10515.4040 1370.7715 0.0000 0.0000 1778.3654 -7355.7835 306.0059 -9134.1490 -7394.4459 299.9812 -779.3450 -687.6717 31013.2005 -72.8840 -7.6256
ENERGY: 1500000 6.9251 7.9548 1.4296 0.0000 -10630.8301 1444.6270 0.0000 0.0000 1754.4578 -7415.4357 301.8921 -9169.8935 -7396.9379 299.6043 77.5524 173.4463 29751.0385 -19.6369 45.2241
TCL: Running FEP window   7: Lambda1 0.3    Lambda2 0.35   [dLambda 0.04999999999999999]
TCL: Setting parameter firsttimestep to 0
TCL: Setting parameter alchLambda to 0.3
Info: NONBONDED TABLE R-SQUARED SPACING: 0.0625
Info: NONBONDED TABLE SIZE: 705 POINTS
TCL: Setting parameter alchLambda2 to 0.35
Info: NONBONDED TABLE R-SQUARED SPACING: 0.0625
Info: NONBONDED TABLE SIZE: 705 POINTS
TCL: Running for 1500000 steps
ETITLE: TS BOND ANGLE DIHED IMPRP ELECT VDW BOUNDARY MISC KINETIC TOTAL TEMP POTENTIAL TOTALAVG TEMPAVG PRESSURE GPRESSURE VOLUME PRESSAVG GPRESSAVG
ENERGY: 0 6.9251 7.9548 1.4296 0.0000 -10630.8297 1444.3421 0.0000 0.0000 1753.5761 -7416.6019 301.7403 -9170.1781 -7416.6019 301.7403 85.5858 178.0341 29751.0385 85.5858 178.0341
ENERGY: 300000 3.0164 5.7066 4.2300 0.0000 -10503.3809 1353.9397 0.0000 0.0000 1757.3466 -7379.1416 302.3891 -9136.4882 -7431.8427 299.1100 -817.5908 -750.4362 30265.0187 -97.7293 -41.3938
ENERGY: 600000 1.9644 4.3271 2.1283 0.0000 -10570.8012 1360.1023 0.0000 0.0000 1773.1811 -7429.0980 305.1138 -9202.2791 -7413.3915 300.8869 -494.2461 -432.5957 29949.4810 -177.8989 -120.5523
ENERGY: 900000 3.5705 10.6058 2.8899 0.0000 -10590.2459 1463.2129 0.0000 0.0000 1719.9531 -7390.0138 295.9548 -9109.9669 -7420.1972 300.2383 368.6742 462.5174 29984.3208 -76.5113 -14.9024
ENERGY: 1200000 5.1994 8.1247 4.4170 0.0000 -10579.7273 1421.8057 0.0000 0.0000 1742.9241 -7397.2564 299.9074 -9140.1805 -7421.7842 299.4938 19.2747 87.0606 29835.3342 -68.5087 -15.9198
ENERGY: 1500000 1.5998 4.4497 3.0645 0.0000 -10565.9811 1453.1980 0.0000 0.0000 1749.9318 -7353.7372 301.1133 -9103.6690 -7417.9229 300.0140 309.1528 372.1163 29985.8606 -76.9882 -21.1819
TCL: Running FEP window   8: Lambda1 0.35   Lambda2 0.39999999999999997 [dLambda 0.04999999999999999]
TCL: Setting parameter firsttimestep to 0
TCL: Setting parameter alchLambda to 0.35
Info: NONBONDED TABLE R-SQUARED SPACING: 0.0625
Info: NONBONDED TABLE SIZE: 705 POINTS
TCL: Setting parameter alchLambda2 to 0.39999999999999997
Info: NONBONDED TABLE R-SQUARED SPACING: 0.0625
Info: NONBONDED TABLE SIZE: 705 POINTS
TCL: Running for 1500000 steps
ETITLE: TS BOND ANGLE DIHED IMPRP ELECT VDW BOUNDARY MISC KINETIC TOTAL TEMP POTENTIAL TOTALAVG TEMPAVG PRESSURE GPRESSURE VOLUME PRESSAVG GPRESSAVG
ENERGY: 0 1.5998 4.4497 3.0645 0.0000 -10565.9818 1453.4212 0.0000 0.0000 1749.0369 -7354.4096 300.9593 -9103.4465 -7354.4096 300.9593 305.9320 381.3812 29985.8606 305.9320 381.3812
ENERGY: 300000 2.7638 7.7711 2.4176 0.0000 -10686.5626 1428.4740 0.0000 0.0000 1788.4542 -7456.6819 307.7419 -9245.1361 -7416.8347 300.8406 -36.9130 -26.7798 29720.4562 -262.3915 -182.5325
ENERGY: 600000 3.0873 6.0388 3.3550 0.0000 -10465.1280 1366.7355 0.0000 0.0000 1796.3985 -7289.5128 309.1089 -9085.9114 -7397.9185 299.9284 -431.3742 -339.4022 30320.9278 -199.9497 -118.1087
ENERGY: 900000 2.3423 8.1188 3.7855 0.0000 -10647.9769 1464.4798 0.0000 0.0000 1706.2418 -7463.0087 293.5955 -9169.2505 -7414.0827 299.3644 342.1844 373.6374 29881.4571 -175.9948 -104.1516
ENERGY: 1200000 3.3217 5.1743 2.5012 0.0000 -10559.7987 1433.3852 0.0000 0.0000 1760.5381 -7354.8782 302.9383 -9115.4163 -7399.0089 299.0824 123.6048 207.4292 30102.2017 -133.6981 -61.6129
ENERGY: 1500000 0.9398 7.8173 1.4319 0.0000 -10551.4748 1351.7676 0.0000 0.0000 1713.6410 -7475.8772 294.8686 -9189.5182 -7404.4298 298.9018 -595.8823 -553.3157 30083.2709 -116.4927 -48.3172
TCL: Running FEP window   9: Lambda1 0.39999999999999997 Lambda2 0.44999999999999996 [dLambda 0.04999999999999999]
TCL: Setting parameter firsttimestep to 0
TCL: Setting parameter alchLambda to 0.39999999999999997
Info: NONBONDED TABLE R-SQUARED SPACING: 0.0625
Info: NONBONDED TABLE SIZE: 705 POINTS
TCL: Setting parameter alchLambda2 to 0.44999999999999996
Info: NONBONDED TABLE R-SQUARED SPACING: 0.0625
Info: NONBONDED TABLE SIZE: 705 POINTS
TCL: Running for 1500000 steps
ETITLE: TS BOND ANGLE DIHED IMPRP ELECT VDW BOUNDARY MISC KINETIC TOTAL TEMP POTENTIAL TOTALAVG TEMPAVG PRESSURE GPRESSURE VOLUME PRESSAVG GPRESSAVG
ENERGY: 0 0.9398 7.8173 1.4319 0.0000 -10551.4744 1352.0130 0.0000 0.0000 1712.7634 -7476.5090 294.7177 -9189.2724 -7476.5090 294.7177 -631.1161 -543.5159 30083.2709 -631.1161 -543.5159
ENERGY: 300000 7.3154 5.2070 1.4628 0.0000 -10610.9935 1458.9836 0.0000 0.0000 1753.7488 -7384.2759 301.7701 -9138.0247 -7408.5653 302.6154 -43.5094 8.1633 30425.5882 -506.7770 -442.5409
ENERGY: 600000 4.2151 4.4526 1.4298 0.0000 -10602.5397 1430.9483 0.0000 0.0000 1727.1275 -7434.3665 297.1893 -9161.4939 -7420.5791 299.2912 -23.1993 69.6164 30041.8602 -203.6598 -140.5007
ENERGY: 900000 3.8333 4.7435 4.3313 0.0000 -10577.1217 1414.5818 0.0000 0.0000 1736.1768 -7413.4551 298.7464 -9149.6319 -7420.2335 299.0255 -359.7802 -333.1089 30495.6105 -134.4207 -74.9987
ENERGY: 1200000 1.4291 4.9343 2.8758 0.0000 -10664.6854 1473.5065 0.0000 0.0000 1740.4459 -7441.4939 299.4810 -9181.9398 -7429.3512 298.4080 315.8444 397.1539 30035.6444 -95.8727 -35.4915
ENERGY: 1500000 3.9528 7.0590 0.9650 0.0000 -10593.3986 1471.0582 0.0000 0.0000 1708.0775 -7402.2862 293.9113 -9110.3637 -7423.4358 298.0010 302.2975 360.0284 30490.4073 -67.4032 2.1482
TCL: Running FEP window  10: Lambda1 0.44999999999999996 Lambda2 0.49999999999999994 [dLambda 0.04999999999999999]
TCL: Setting parameter firsttimestep to 0
TCL: Setting parameter alchLambda to 0.44999999999999996
Info: NONBONDED TABLE R-SQUARED SPACING: 0.0625
Info: NONBONDED TABLE SIZE: 705 POINTS
TCL: Setting parameter alchLambda2 to 0.49999999999999994
Info: NONBONDED TABLE R-SQUARED SPACING: 0.0625
Info: NONBONDED TABLE SIZE: 705 POINTS
TCL: Running for 1500000 steps
ETITLE: TS BOND ANGLE DIHED IMPRP ELECT VDW BOUNDARY MISC KINETIC TOTAL TEMP POTENTIAL TOTALAVG TEMPAVG PRESSURE GPRESSURE VOLUME PRESSAVG GPRESSAVG
ENERGY: 0 3.9528 7.0590 0.9650 0.0000 -10593.3986 1470.6768 0.0000 0.0000 1707.2208 -7403.5243 293.7639 -9110.7451 -7403.5243 293.7639 275.3816 361.2315 30490.4073 275.3816 361.2315
ENERGY: 300000 1.3423 5.4560 1.8233 0.0000 -10693.1028 1510.1753 0.0000 0.0000 1734.9298 -7439.3762 298.5318 -9174.3060 -7386.3836 299.1785 651.8607 705.7820 29674.9702 57.1087 122.3080
ENERGY: 600000 3.2419 5.4402 1.8745 0.0000 -10571.4247 1374.6331 0.0000 0.0000 1818.4687 -7367.7664 312.9065 -9186.2351 -7406.9280 302.4773 -510.8639 -476.7687 30030.0001 -221.6581 -144.8833
ENERGY: 900000 1.4853 6.6257 3.9019 0.0000 -10732.6692 1530.8964 0.0000 0.0000 1772.2123 -7417.5477 304.9471 -9189.7600 -7410.6270 303.1252 740.5856 709.3410 30137.4047 -117.7439 -44.7590
ENERGY: 1200000 3.5943 7.1059 2.6229 0.0000 -10655.8886 1475.6312 0.0000 0.0000 1715.1639 -7451.7704 295.1307 -9166.9343 -7413.5904 302.0735 542.0048 616.8890 29530.9181 -100.7562 -30.5710
ENERGY: 1500000 1.6627 7.0654 3.0959 0.0000 -10633.6831 1472.0316 0.0000 0.0000 1696.7801 -7453.0476 291.9674 -9149.8276 -7423.2081 300.9721 359.2671 366.6385 29907.0701 -74.5558 -10.5336
TCL: Running FEP window  11: Lambda1 0.49999999999999994 Lambda2 0.5499999999999999 [dLambda 0.04999999999999999]
TCL: Setting parameter firsttimestep to 0
TCL: Setting parameter alchLambda to 0.49999999999999994
Info: NONBONDED TABLE R-SQUARED SPACING: 0.0625
Info: NONBONDED TABLE SIZE: 705 POINTS
TCL: Setting parameter alchLambda2 to 0.5499999999999999
Info: NONBONDED TABLE R-SQUARED SPACING: 0.0625
Info: NONBONDED TABLE SIZE: 705 POINTS
TCL: Running for 1500000 steps
ETITLE: TS BOND ANGLE DIHED IMPRP ELECT VDW BOUNDARY MISC KINETIC TOTAL TEMP POTENTIAL TOTALAVG TEMPAVG PRESSURE GPRESSURE VOLUME PRESSAVG GPRESSAVG
ENERGY: 0 1.6627 7.0654 3.0959 0.0000 -10633.6835 1471.9447 0.0000 0.0000 1695.9187 -7453.9962 291.8191 -9149.9149 -7453.9962 291.8191 300.2917 373.0401 29907.0701 300.2917 373.0401
ENERGY: 300000 1.0116 6.9871 2.4522 0.0000 -10690.1536 1456.2490 0.0000 0.0000 1784.5919 -7438.8618 307.0773 -9223.4537 -7429.7280 301.2445 346.5205 434.2841 29471.7654 175.5455 263.5726
ENERGY: 600000 0.8237 8.6548 3.8435 0.0000 -10720.9635 1485.2039 0.0000 0.0000 1741.1334 -7481.3042 299.5993 -9222.4376 -7436.5713 301.8335 390.5800 439.9703 29739.2339 173.7185 252.3063
ENERGY: 900000 5.4282 7.5661 4.4157 0.0000 -10624.9543 1405.5560 0.0000 0.0000 1802.2857 -7399.7026 310.1219 -9201.9884 -7410.9131 304.2530 -271.7564 -259.9124 30025.1540 161.1528 229.1266
ENERGY: 1200000 2.8485 7.1160 1.5072 0.0000 -10554.1454 1424.8645 0.0000 0.0000 1748.0687 -7369.7405 300.7927 -9117.8091 -7410.5544 303.5874 347.7580 465.6280 29810.6625 157.8400 227.3208
ENERGY: 1500000 5.1320 8.3453 3.0464 0.0000 -10565.8943 1379.3454 0.0000 0.0000 1763.2863 -7406.7388 303.4112 -9170.0251 -7413.2230 302.5511 -395.3100 -352.9091 29900.2729 175.1886 239.5665
TCL: Running FEP window  12: Lambda1 0.5499999999999999 Lambda2 0.6    [dLambda 0.050000000000000044]
TCL: Setting parameter firsttimestep to 0
TCL: Setting parameter alchLambda to 0.5499999999999999
Info: NONBONDED TABLE R-SQUARED SPACING: 0.0625
Info: NONBONDED TABLE SIZE: 705 POINTS
TCL: Setting parameter alchLambda2 to 0.6
Info: NONBONDED TABLE R-SQUARED SPACING: 0.0625
Info: NONBONDED TABLE SIZE: 705 POINTS
TCL: Running for 1500000 steps
ETITLE: TS BOND ANGLE DIHED IMPRP ELECT VDW BOUNDARY MISC KINETIC TOTAL TEMP POTENTIAL TOTALAVG TEMPAVG PRESSURE GPRESSURE VOLUME PRESSAVG GPRESSAVG
ENERGY: 0 5.1320 8.3453 3.0464 0.0000 -10566.0375 1379.6948 0.0000 0.0000 1762.4277 -7407.3913 303.2634 -9169.8190 -7407.3913 303.2634 -424.2736 -341.3402 29900.2729 -424.2736 -341.3402
ENERGY: 300000 2.9151 3.4389 3.0547 0.0000 -10623.8973 1394.2673 0.0000 0.0000 1706.0472 -7514.1742 293.5620 -9220.2213 -7466.9236 295.6378 -26.5904 39.3459 29559.3935 -169.8591 -107.0706
ENERGY: 600000 2.9908 6.5717 2.7320 0.0000 -10514.7863 1378.0710 0.0000 0.0000 1709.3847 -7415.0361 294.1363 -9124.4208 -7418.4021 298.6119 -248.1088 -156.1306 30067.4067 -120.1089 -63.8034
ENERGY: 900000 2.3566 7.9647 2.9174 0.0000 -10513.9115 1347.5494 0.0000 0.0000 1771.9568 -7381.1666 304.9031 -9153.1234 -7412.8242 299.6088 -567.2246 -462.1352 30078.4743 -154.7543 -95.8394
ENERGY: 1200000 2.5835 6.8498 6.3429 0.0000 -10494.9338 1362.1441 0.0000 0.0000 1733.9112 -7383.1023 298.3566 -9117.0135 -7416.2617 300.1884 -318.7767 -264.2541 30170.8828 -90.1178 -39.7833
ENERGY: 1500000 2.1143 5.0695 4.6707 0.0000 -10567.2382 1412.3659 0.0000 0.0000 1742.2701 -7400.7477 299.7949 -9143.0178 -7413.8086 299.5213 -207.8829 -99.6290 29992.4139 -153.7148 -100.7216
TCL: Running FEP window  13: Lambda1 0.6    Lambda2 0.65   [dLambda 0.050000000000000044]
TCL: Setting parameter firsttimestep to 0
TCL: Setting parameter alchLambda to 0.6
Info: NONBONDED TABLE R-SQUARED SPACING: 0.0625
Info: NONBONDED TABLE SIZE: 705 POINTS
TCL: Setting parameter alchLambda2 to 0.65
Info: NONBONDED TABLE R-SQUARED SPACING: 0.0625
Info: NONBONDED TABLE SIZE: 705 POINTS
TCL: Running for 1500000 steps
ETITLE: TS BOND ANGLE DIHED IMPRP ELECT VDW BOUNDARY MISC KINETIC TOTAL TEMP POTENTIAL TOTALAVG TEMPAVG PRESSURE GPRESSURE VOLUME PRESSAVG GPRESSAVG
ENERGY: 0 2.1143 5.0695 4.6707 0.0000 -10567.7681 1413.0424 0.0000 0.0000 1741.4116 -7401.4596 299.6472 -9142.8712 -7401.4596 299.6472 -168.2025 -82.7549 29992.4139 -168.2025 -82.7549
ENERGY: 300000 2.8649 11.5519 2.8691 0.0000 -10594.6204 1400.7038 0.0000 0.0000 1724.1303 -7452.5004 296.6736 -9176.6307 -7418.3026 298.2395 -276.8081 -170.0029 30050.3005 -486.4148 -400.4672
ENERGY: 600000 0.8287 5.8683 1.9646 0.0000 -10614.5831 1456.6457 0.0000 0.0000 1714.9260 -7434.3498 295.0898 -9149.2758 -7416.4331 297.9670 356.6420 384.9802 29909.6286 -181.6433 -104.0567
ENERGY: 900000 7.9053 5.6339 1.7612 0.0000 -10559.4977 1374.8187 0.0000 0.0000 1726.4743 -7442.9043 297.0769 -9169.3786 -7426.3986 297.4445 -537.4443 -440.3157 29956.3538 -174.8049 -106.8059
ENERGY: 1200000 3.6975 6.6791 2.8856 0.0000 -10492.3837 1372.6953 0.0000 0.0000 1753.0311 -7353.3953 301.6466 -9106.4263 -7420.5508 297.5905 -21.3866 67.8653 29430.8664 -145.0218 -67.1509
ENERGY: 1500000 1.2069 6.0370 5.4934 0.0000 -10672.6230 1461.0659 0.0000 0.0000 1748.1377 -7450.6821 300.8046 -9198.8198 -7423.4840 297.4258 353.1096 385.8666 29877.3383 -69.0139 10.4767
TCL: Running FEP window  14: Lambda1 0.65   Lambda2 0.7000000000000001 [dLambda 0.050000000000000044]
TCL: Setting parameter firsttimestep to 0
TCL: Setting parameter alchLambda to 0.65
Info: NONBONDED TABLE R-SQUARED SPACING: 0.0625
Info: NONBONDED TABLE SIZE: 705 POINTS
TCL: Setting parameter alchLambda2 to 0.7000000000000001
Info: NONBONDED TABLE R-SQUARED SPACING: 0.0625
Info: NONBONDED TABLE SIZE: 705 POINTS
TCL: Running for 1500000 steps
ETITLE: TS BOND ANGLE DIHED IMPRP ELECT VDW BOUNDARY MISC KINETIC TOTAL TEMP POTENTIAL TOTALAVG TEMPAVG PRESSURE GPRESSURE VOLUME PRESSAVG GPRESSAVG
ENERGY: 0 1.2069 6.0370 5.4934 0.0000 -10673.4826 1461.1542 0.0000 0.0000 1747.2372 -7452.3539 300.6496 -9199.5911 -7452.3539 300.6496 304.7391 392.5919 29877.3383 304.7391 392.5919
ENERGY: 300000 3.2427 6.5596 1.5886 0.0000 -10608.1549 1409.7211 0.0000 0.0000 1774.5176 -7412.5253 305.3438 -9187.0429 -7440.3146 296.5157 -502.3304 -379.0147 30518.1155 -419.1007 -341.7460
ENERGY: 600000 2.7382 3.9931 4.5818 0.0000 -10467.3572 1391.3718 0.0000 0.0000 1766.1589 -7298.5134 303.9055 -9064.6723 -7404.1958 300.2997 242.1561 325.1094 29860.5136 -442.1220 -378.9393
ENERGY: 900000 2.9590 8.2286 2.3636 0.0000 -10552.2936 1399.9630 0.0000 0.0000 1784.0651 -7354.7143 306.9866 -9138.7794 -7410.2478 299.9528 -367.1816 -247.4834 30329.2505 -219.9190 -155.9064
ENERGY: 1200000 2.8941 8.6625 5.6337 0.0000 -10573.4725 1425.9900 0.0000 0.0000 1709.3849 -7420.9074 294.1363 -9130.2922 -7419.0535 299.9642 92.4914 171.7404 30237.6841 -197.0499 -125.6800
ENERGY: 1500000 3.7082 6.0808 1.6795 0.0000 -10649.1956 1494.0843 0.0000 0.0000 1717.4158 -7426.2270 295.5182 -9143.6427 -7416.7589 299.1707 581.6076 651.4595 29779.4887 -122.1613 -50.7400
TCL: Running FEP window  15: Lambda1 0.7000000000000001 Lambda2 0.7500000000000001 [dLambda 0.050000000000000044]
TCL: Setting parameter firsttimestep to 0
TCL: Setting parameter alchLambda to 0.7000000000000001
Info: NONBONDED TABLE R-SQUARED SPACING: 0.0625
Info: NONBONDED TABLE SIZE: 705 POINTS
TCL: Setting parameter alchLambda2 to 0.7500000000000001
Info: NONBONDED TABLE R-SQUARED SPACING: 0.0625
Info: NONBONDED TABLE SIZE: 705 POINTS
TCL: Running for 1500000 steps
ETITLE: TS BOND ANGLE DIHED IMPRP ELECT VDW BOUNDARY MISC KINETIC TOTAL TEMP POTENTIAL TOTALAVG TEMPAVG PRESSURE GPRESSURE VOLUME PRESSAVG GPRESSAVG
ENERGY: 0 3.7082 6.0808 1.6795 0.0000 -10649.3377 1493.5433 0.0000 0.0000 1716.5372 -7427.7886 295.3670 -9144.3258 -7427.7886 295.3670 559.9767 650.9532 29779.4887 559.9767 650.9532
ENERGY: 300000 2.5072 4.4883 3.1405 0.0000 -10522.0604 1410.9435 0.0000 0.0000 1699.2916 -7401.6893 292.3995 -9100.9809 -7422.1233 293.8211 84.2831 123.2445 30129.0170 4.3269 67.2673
ENERGY: 600000 5.4192 4.7349 2.3689 0.0000 -10670.8473 1453.5932 0.0000 0.0000 1706.3309 -7498.4003 293.6108 -9204.7311 -7422.1228 297.1636 135.8222 200.3476 29938.8678 29.3207 106.6604
ENERGY: 900000 3.2614 5.4673 3.3233 0.0000 -10570.3285 1363.4820 0.0000 0.0000 1756.5320 -7438.2625 302.2490 -9194.7946 -7420.9693 299.0800 -587.7391 -556.6153 29971.5765 -100.3363 -30.7840
ENERGY: 1200000 3.5834 5.5793 2.4841 0.0000 -10510.2942 1337.6769 0.0000 0.0000 1737.1159 -7423.8547 298.9080 -9160.9706 -7412.1836 299.8249 -442.0533 -449.2041 30222.1435 -200.3043 -138.8696
ENERGY: 1500000 1.2360 7.6681 2.4087 0.0000 -10749.5623 1537.8954 0.0000 0.0000 1726.5545 -7473.7995 297.0907 -9200.3540 -7422.5960 299.6699 932.2207 929.9374 29853.1471 -119.2774 -61.3187
TCL: Running FEP window  16: Lambda1 0.7500000000000001 Lambda2 0.8000000000000002 [dLambda 0.050000000000000044]
TCL: Setting parameter firsttimestep to 0
TCL: Setting parameter alchLambda to 0.7500000000000001
Info: NONBONDED TABLE R-SQUARED SPACING: 0.0625
Info: NONBONDED TABLE SIZE: 705 POINTS
TCL: Setting parameter alchLambda2 to 0.8000000000000002
Info: NONBONDED TABLE R-SQUARED SPACING: 0.0625
Info: NONBONDED TABLE SIZE: 705 POINTS
TCL: Running for 1500000 steps
ETITLE: TS BOND ANGLE DIHED IMPRP ELECT VDW BOUNDARY MISC KINETIC TOTAL TEMP POTENTIAL TOTALAVG TEMPAVG PRESSURE GPRESSURE VOLUME PRESSAVG GPRESSAVG
ENERGY: 0 1.2360 7.6681 2.4087 0.0000 -10750.9076 1538.3197 0.0000 0.0000 1725.6936 -7475.5815 296.9426 -9201.2751 -7475.5815 296.9426 861.2215 942.4136 29853.1471 861.2215 942.4136
ENERGY: 300000 1.5364 2.5507 1.7550 0.0000 -10539.8701 1397.5645 0.0000 0.0000 1755.7407 -7380.7228 302.1128 -9136.4635 -7413.8954 299.7843 -88.4405 -81.5279 30200.5215 394.3249 448.0175
ENERGY: 600000 6.3041 6.3609 5.7974 0.0000 -10568.0974 1362.3440 0.0000 0.0000 1743.1058 -7444.1851 299.9387 -9187.2909 -7418.4772 299.7113 -568.9700 -522.3097 29855.6260 199.9802 249.6553
ENERGY: 900000 3.5269 6.7122 2.5638 0.0000 -10598.1958 1416.9221 0.0000 0.0000 1793.0323 -7375.4385 308.5296 -9168.4708 -7406.5136 301.7002 96.9549 159.9548 30071.3031 116.5691 170.7521
ENERGY: 1200000 1.2612 5.5199 5.7377 0.0000 -10492.7015 1320.6326 0.0000 0.0000 1740.1262 -7419.4239 299.4260 -9159.5502 -7409.7058 301.9219 -563.6710 -523.5797 29842.6050 88.7629 144.2149
ENERGY: 1500000 2.1984 3.7451 1.9458 0.0000 -10619.0395 1452.9331 0.0000 0.0000 1719.8833 -7438.3337 295.9428 -9158.2171 -7415.5962 301.8454 355.9330 427.3410 29693.3749 77.5716 133.6278
TCL: Running FEP window  17: Lambda1 0.8000000000000002 Lambda2 0.8500000000000002 [dLambda 0.050000000000000044]
TCL: Setting parameter firsttimestep to 0
TCL: Setting parameter alchLambda to 0.8000000000000002
Info: NONBONDED TABLE R-SQUARED SPACING: 0.0625
Info: NONBONDED TABLE SIZE: 705 POINTS
TCL: Setting parameter alchLambda2 to 0.8500000000000002
Info: NONBONDED TABLE R-SQUARED SPACING: 0.0625
Info: NONBONDED TABLE SIZE: 705 POINTS
TCL: Running for 1500000 steps
ETITLE: TS BOND ANGLE DIHED IMPRP ELECT VDW BOUNDARY MISC KINETIC TOTAL TEMP POTENTIAL TOTALAVG TEMPAVG PRESSURE GPRESSURE VOLUME PRESSAVG GPRESSAVG
ENERGY: 0 2.1984 3.7451 1.9458 0.0000 -10621.3294 1453.4217 0.0000 0.0000 1719.0263 -7440.9922 295.7953 -9160.0184 -7440.9922 295.7953 352.3723 433.8744 29693.3749 352.3723 433.8744
ENERGY: 300000 4.6759 9.8618 2.9728 0.0000 -10697.7155 1484.1274 0.0000 0.0000 1775.2066 -7420.8711 305.4623 -9196.0777 -7418.1381 303.5269 640.6893 702.5273 29593.7491 194.8623 252.9904
ENERGY: 600000 5.4616 3.7763 3.7583 0.0000 -10525.7595 1332.7878 0.0000 0.0000 1776.3049 -7403.6706 305.6513 -9179.9755 -7420.5194 301.8957 -843.9697 -761.9152 30104.8405 5.6516 72.1615
ENERGY: 900000 1.4597 8.5802 3.1738 0.0000 -10557.6193 1442.3319 0.0000 0.0000 1729.5970 -7372.4767 297.6142 -9102.0738 -7423.5573 299.9406 171.3978 249.5825 30455.4421 73.6154 135.6182
ENERGY: 1200000 1.6774 8.9381 1.8443 0.0000 -10412.1698 1314.7671 0.0000 0.0000 1760.8118 -7324.1311 302.9854 -9084.9429 -7404.9439 301.0466 -913.0272 -782.0938 30496.6225 -86.2145 -19.9934
ENERGY: 1500000 4.3057 4.8752 1.9525 0.0000 -10759.4470 1502.4680 0.0000 0.0000 1721.7434 -7524.1021 296.2628 -9245.8455 -7408.6559 300.7446 259.0323 299.4357 30278.8654 -24.3784 38.1329
TCL: Running FEP window  18: Lambda1 0.8500000000000002 Lambda2 0.9000000000000002 [dLambda 0.050000000000000044]
TCL: Setting parameter firsttimestep to 0
TCL: Setting parameter alchLambda to 0.8500000000000002
Info: NONBONDED TABLE R-SQUARED SPACING: 0.0625
Info: NONBONDED TABLE SIZE: 705 POINTS
TCL: Setting parameter alchLambda2 to 0.9000000000000002
Info: NONBONDED TABLE R-SQUARED SPACING: 0.0625
Info: NONBONDED TABLE SIZE: 705 POINTS
TCL: Running for 1500000 steps
ETITLE: TS BOND ANGLE DIHED IMPRP ELECT VDW BOUNDARY MISC KINETIC TOTAL TEMP POTENTIAL TOTALAVG TEMPAVG PRESSURE GPRESSURE VOLUME PRESSAVG GPRESSAVG
ENERGY: 0 4.3057 4.8752 1.9525 0.0000 -10760.6000 1502.5376 0.0000 0.0000 1720.8926 -7526.0364 296.1164 -9246.9290 -7526.0364 296.1164 230.2878 306.8723 30278.8654 230.2878 306.8723
ENERGY: 300000 3.1723 4.9539 2.1362 0.0000 -10678.4175 1450.6430 0.0000 0.0000 1710.6487 -7506.8635 294.3538 -9217.5122 -7452.5103 299.8312 359.0686 437.6059 29744.1920 72.8500 149.0399
ENERGY: 600000 3.8713 8.2009 4.2147 0.0000 -10649.2505 1500.7165 0.0000 0.0000 1760.3054 -7371.9417 302.8983 -9132.2472 -7431.7224 298.9882 635.1234 694.4903 30159.2391 188.9119 258.7130
ENERGY: 900000 3.2798 7.2561 1.3705 0.0000 -10540.6105 1402.5577 0.0000 0.0000 1737.4517 -7388.6947 298.9658 -9126.1464 -7436.3046 299.4195 -180.4128 -87.5344 30565.8131 160.6787 236.3101
ENERGY: 1200000 3.0872 9.3621 4.5498 0.0000 -10592.3822 1380.4298 0.0000 0.0000 1808.8829 -7386.0703 311.2571 -9194.9532 -7439.2787 299.8911 -315.9456 -299.2161 29933.2591 84.7448 158.0982
ENERGY: 1500000 2.7207 5.8428 1.4728 0.0000 -10645.0194 1432.0065 0.0000 0.0000 1734.5493 -7468.4274 298.4664 -9202.9767 -7439.7875 299.7671 169.5388 224.6035 29858.6460 146.1038 211.6162
TCL: Running FEP window  19: Lambda1 0.9000000000000002 Lambda2 0.9500000000000003 [dLambda 0.050000000000000044]
TCL: Setting parameter firsttimestep to 0
TCL: Setting parameter alchLambda to 0.9000000000000002
Info: NONBONDED TABLE R-SQUARED SPACING: 0.0625
Info: NONBONDED TABLE SIZE: 705 POINTS
TCL: Setting parameter alchLambda2 to 0.9500000000000003
Info: NONBONDED TABLE R-SQUARED SPACING: 0.0625
Info: NONBONDED TABLE SIZE: 705 POINTS
TCL: Running for 1500000 steps
ETITLE: TS BOND ANGLE DIHED IMPRP ELECT VDW BOUNDARY MISC KINETIC TOTAL TEMP POTENTIAL TOTALAVG TEMPAVG PRESSURE GPRESSURE VOLUME PRESSAVG GPRESSAVG
ENERGY: 0 2.7207 5.8428 1.4728 0.0000 -10647.0203 1433.7648 0.0000 0.0000 1733.6736 -7469.5456 298.3157 -9203.2192 -7469.5456 298.3157 158.8291 254.6916 29858.6460 158.8291 254.6916
ENERGY: 300000 4.1252 4.1818 4.2869 0.0000 -10786.2144 1551.1617 0.0000 0.0000 1775.5393 -7446.9194 305.5196 -9222.4587 -7434.7976 300.5610 971.3730 1062.2865 30152.1127 310.5468 389.8667
ENERGY: 600000 0.7989 2.5096 1.1905 0.0000 -10515.3546 1444.0368 0.0000 0.0000 1741.2915 -7325.5273 299.6265 -9066.8188 -7431.3203 298.5853 414.7565 509.3347 30285.6110 237.6618 314.9191
ENERGY: 900000 3.8094 3.7201 1.3951 0.0000 -10607.7156 1466.0980 0.0000 0.0000 1702.5599 -7430.1331 292.9619 -9132.6930 -7420.7211 298.2849 552.7020 623.7746 29613.2759 167.1847 229.5740
ENERGY: 1200000 3.3292 3.7097 2.2479 0.0000 -10524.6996 1351.4582 0.0000 0.0000 1732.4719 -7431.4828 298.1089 -9163.9547 -7417.9262 298.1718 -728.0809 -650.6619 30456.2551 -32.3860 35.2345
ENERGY: 1500000 4.0321 4.7027 3.1723 0.0000 -10803.4632 1552.4700 0.0000 0.0000 1793.6662 -7445.4200 308.6387 -9239.0862 -7415.7891 299.0767 677.0803 751.4826 29988.1211 -63.9226 4.1577
TCL: Running FEP window  20: Lambda1 0.9500000000000003 Lambda2 1.0    [dLambda 0.04999999999999971]
TCL: Setting parameter firsttimestep to 0
TCL: Setting parameter alchLambda to 0.9500000000000003
Info: NONBONDED TABLE R-SQUARED SPACING: 0.0625
Info: NONBONDED TABLE SIZE: 705 POINTS
TCL: Setting parameter alchLambda2 to 1.0
Info: NONBONDED TABLE R-SQUARED SPACING: 0.0625
Info: NONBONDED TABLE SIZE: 705 POINTS
TCL: Running for 1500000 steps
ETITLE: TS BOND ANGLE DIHED IMPRP ELECT VDW BOUNDARY MISC KINETIC TOTAL TEMP POTENTIAL TOTALAVG TEMPAVG PRESSURE GPRESSURE VOLUME PRESSAVG GPRESSAVG
ENERGY: 0 4.0321 4.7027 3.1723 0.0000 -10804.6034 1553.0476 0.0000 0.0000 1792.8140 -7446.8347 308.4921 -9239.6487 -7446.8347 308.4921 682.1432 771.0402 29988.1211 682.1432 771.0402
ENERGY: 300000 3.3570 5.3180 3.0178 0.0000 -10619.9717 1437.3787 0.0000 0.0000 1728.4104 -7442.4898 297.4100 -9170.9002 -7429.3346 304.1127 189.7507 259.5703 29866.0665 376.7878 436.8936
ENERGY: 600000 3.5016 8.4094 4.5005 0.0000 -10587.9279 1428.5808 0.0000 0.0000 1685.3990 -7457.5366 290.0090 -9142.9356 -7448.0565 298.6014 128.7178 199.9060 29854.8089 -33.8140 31.4578
ENERGY: 900000 0.9074 12.4903 7.8586 0.0000 -10565.6174 1398.4946 0.0000 0.0000 1749.3065 -7396.5600 301.0057 -9145.8665 -7439.2120 299.1402 -151.2556 -42.8596 30220.4115 -71.1805 -2.3406
ENERGY: 1200000 4.0350 3.6526 3.8414 0.0000 -10601.1675 1432.4124 0.0000 0.0000 1723.9664 -7433.2597 296.6454 -9157.2261 -7431.4204 299.5511 104.8310 168.1519 30173.8712 -12.0412 49.3622
ENERGY: 1500000 2.1838 12.2344 4.2991 0.0000 -10676.1228 1472.1613 0.0000 0.0000 1717.3519 -7467.8922 295.5072 -9185.2441 -7438.2333 298.6961 438.7683 475.3411 30161.0299 -122.1751 -70.3980
TCL: Exiting due to exit command.
