Info: SIMULATION PARAMETERS:
Info: TIMESTEP               2
Info: NUMBER OF STEPS        0
Info: STEPS PER CYCLE        10
Info: PERIODIC CELL BASIS 1  31.7728 0 0
Info: PERIODIC CELL BASIS 2  0 30.0917 0
Info: PERIODIC CELL BASIS 3  0 0 32.199
Info: PERIODIC CELL CENTER   0 0 0
Info: WRAPPING WATERS AROUND PERIODIC BOUNDARIES ON OUTPUT.
Info: WRAPPING ALL CLUSTERS AROUND PERIODIC BOUNDARIES ON OUTPUT.
Info: FIRST LDB TIMESTEP     50
Info: LAST LDB TIMESTEP     -1
Info: HOM BACKGROUND SCALING 1
Info: PME BACKGROUND SCALING 1
Info: MIN ATOMS PER PATCH    40
Info: EMPTY PATCH LOAD       40 ATOMS
Info: VELOCITY FILE          mobley_1755375_equil.vel
Info: CENTER OF MASS MOVING INITIALLY? NO
Info: DIELECTRIC             1
Info: EXCLUDE                SCALED ONE-FOUR
Info: 1-4 ELECTROSTATICS SCALED BY 0.833333
Info: MODIFIED 1-4 VDW PARAMETERS WILL BE USED
Info: DCD FILENAME           mobley_1755375_prod.dcd
Info: DCD FREQUENCY          100000
Info: DCD FIRST STEP         100000
Info: DCD FILE WILL CONTAIN UNIT CELL DATA
Info: XST FILENAME           mobley_1755375_prod.xst
Info: XST FREQUENCY          100000
Info: NO VELOCITY DCD OUTPUT
Info: NO FORCE DCD OUTPUT
Info: OUTPUT FILENAME        mobley_1755375_prod
Info: BINARY OUTPUT FILES WILL BE USED
Info: RESTART FILENAME       mobley_1755375_prod.restart
Info: RESTART FREQUENCY      100000
Info: BINARY RESTART FILES WILL BE USED
Info: CUTOFF                 9
Info: PAIRLIST DISTANCE      11
Info: PAIRLIST SHRINK RATE   0.01
Info: PAIRLIST GROW RATE     0.01
Info: PAIRLIST TRIGGER       0.3
Info: PAIRLISTS PER CYCLE    2
Info: PAIRLISTS ENABLED
Info: MARGIN                 2
Info: HYDROGEN GROUP CUTOFF  2.5
Info: PATCH DIMENSION        15.5
Info: ENERGY OUTPUT STEPS    100000
Info: ENERGY EVALUATION STEPS    100000
Info: OUTPUT ENERGY PRECISION 4
Info: CROSSTERM ENERGY INCLUDED IN DIHEDRAL
Info: TIMING OUTPUT STEPS    1000000
Info: PRESSURE OUTPUT STEPS  100000
Info: ALCHEMICAL FEP ON
Info: FEP CURRENT LAMBDA VALUE     1
Info: FEP COMPARISON LAMBDA VALUE  0.95
Info: FEP INTRA-ALCHEMICAL NON-BONDED INTERACTIONS WILL BE RETAINED
Info: FEP INTRA-ALCHEMICAL BONDED INTERACTIONS WILL BE RETAINED
Info: FEP VDW SHIFTING COEFFICIENT 5
Info: FEP ELEC. ACTIVE FOR ANNIHILATED PARTICLES BETWEEN LAMBDA = 0 AND LAMBDA = 0.5
Info: FEP ELEC. ACTIVE FOR EXNIHILATED PARTICLES BETWEEN LAMBDA = 0.5 AND LAMBDA = 1
Info: FEP VDW ACTIVE FOR ANNIHILATED PARTICLES BETWEEN LAMBDA = 0 AND LAMBDA = 1
Info: FEP VDW ACTIVE FOR EXNIHILATED PARTICLES BETWEEN LAMBDA = 0 AND LAMBDA = 1
Info: FEP BOND ACTIVE FOR ANNIHILATED PARTICLES BETWEEN LAMBDA = 1 AND LAMBDA = 1
Info: FEP BOND ACTIVE FOR EXNIHILATED PARTICLES BETWEEN LAMBDA = 0 AND LAMBDA = 0
Info: LANGEVIN DYNAMICS ACTIVE
Info: LANGEVIN TEMPERATURE   300
Info: LANGEVIN USING BBK INTEGRATOR
Info: LANGEVIN DAMPING COEFFICIENT IS 1 INVERSE PS
Info: LANGEVIN DYNAMICS APPLIED TO HYDROGENS
Info: LANGEVIN PISTON PRESSURE CONTROL ACTIVE
Info:        TARGET PRESSURE IS 1.01325 BAR
Info:     OSCILLATION PERIOD IS 50 FS
Info:             DECAY TIME IS 25 FS
Info:     PISTON TEMPERATURE IS 300 K
Info:       PRESSURE CONTROL IS GROUP-BASED
Info:    INITIAL STRAIN RATE IS 0.000357397 0.000357397 0.000357397
Info:       CELL FLUCTUATION IS ISOTROPIC
Info: PARTICLE MESH EWALD (PME) ACTIVE
Info: PME TOLERANCE               1e-06
Info: PME EWALD COEFFICIENT       0.348832
Info: PME INTERPOLATION ORDER     4
Info: PME GRID DIMENSIONS         32 32 36
Info: PME MAXIMUM GRID SPACING    1
Info: PME CALCULATION WILL BE PERFORMED ON GPU
Info: FULL ELECTROSTATIC EVALUATION FREQUENCY      2
Info: USING VERLET I (r-RESPA) MTS SCHEME.
Info: C1 SPLITTING OF LONG RANGE ELECTROSTATICS
Info: PLACING ATOMS IN PATCHES BY HYDROGEN GROUPS
Info: RIGID BONDS TO HYDROGEN : ALL
Info:         ERROR TOLERANCE : 1e-08
Info:          MAX ITERATIONS : 100
Info: RIGID WATER USING SETTLE ALGORITHM
Info: RANDOM NUMBER SEED     1743620652
Info: USE HYDROGEN BONDS?    NO
Info: Using AMBER format force field!
Info: AMBER PARM FILE        mobley_1755375.prmtop
Info: COORDINATE PDB         mobley_1755375.pdb
Info: Exclusions will be read from PARM file!
Info: SCNB (VDW SCALING)     2
Info: USING ARITHMETIC MEAN TO COMBINE L-J SIGMA PARAMETERS
Info: BINARY COORDINATES     mobley_1755375_equil.coor
Info: SUMMARY OF PARAMETERS:
Info: 8 BONDS
Info: 7 ANGLES
Info:   7 HARMONIC
Info:   0 COSINE-BASED
Info: 4 DIHEDRAL
Info: 0 IMPROPER
Info: 0 CROSSTERM
Info: 0 VDW
Info: 28 VDW_PAIRS
Info: 0 NBTHOLE_PAIRS
Info: To read alchdata from file: mobley_1755375.pdb
Info: To read alchflag data from column: 5
Info: STRUCTURE SUMMARY:
Info: 2986 ATOMS
Info: 2986 BONDS
Info: 31 ANGLES
Info: 44 DIHEDRALS
Info: 0 IMPROPERS
Info: 0 CROSSTERMS
Info: 3052 EXCLUSIONS
Info: 2977 RIGID BONDS
Info: ALCH: 0 ATOMS TO DISAPPEAR IN FINAL STATE
Info: ALCH: 19 ATOMS TO APPEAR IN FINAL STATE
Info: 5981 DEGREES OF FREEDOM
Info: 998 HYDROGEN GROUPS
Info: 4 ATOMS IN LARGEST HYDROGEN GROUP
Info: 998 MIGRATION GROUPS
Info: 4 ATOMS IN LARGEST MIGRATION GROUP
Info: TOTAL MASS = 17940 amu
Info: TOTAL CHARGE = -9.99272e-05 e
Info: MASS DENSITY = 0.96769 g/cm^3
Info: ATOM DENSITY = 0.096994 atoms/A^3
Info: ADDED 0 IMPLICIT EXCLUSIONS
Info: NONBONDED TABLE R-SQUARED SPACING: 0.0625
Info: NONBONDED TABLE SIZE: 705 POINTS
Info: REMOVING COM VELOCITY 0.0208287 0.0377727 0.141502
Info: Use 3D box decompostion in PME FFT.
Info: Updated CUDA force table with 4096 elements.
Info: Updated CUDA LJ table with 7 x 7 elements.
Info: Found 20 unique exclusion lists needing 52 bytes
TCL: Running for 1500000 steps
ETITLE: TS BOND ANGLE DIHED IMPRP ELECT VDW BOUNDARY MISC KINETIC TOTAL TEMP POTENTIAL TOTALAVG TEMPAVG PRESSURE GPRESSURE VOLUME PRESSAVG GPRESSAVG
ENERGY: 0 2.8203 6.3406 2.7610 0.0000 -10755.7982 1421.0117 0.0000 0.0000 1784.9991 -7537.8655 300.3686 -9322.8646 -7537.8655 300.3686 -117.1414 -40.9423 30785.4077 -117.1414 -40.9423
ENERGY: 300000 3.9213 3.7048 2.7196 0.0000 -10844.8156 1486.2194 0.0000 0.0000 1818.6127 -7529.6378 306.0249 -9348.2505 -7538.8308 299.4019 451.7393 458.2691 30541.9511 191.8820 232.8881
ENERGY: 600000 3.9048 8.7491 6.2499 0.0000 -10742.3628 1396.1018 0.0000 0.0000 1783.6856 -7543.6716 300.1476 -9327.3571 -7553.8722 300.1761 -450.7813 -438.7488 30619.3457 192.9487 225.3665
ENERGY: 900000 3.9177 8.0829 4.1617 0.0000 -10892.9372 1472.5711 0.0000 0.0000 1788.9091 -7615.2949 301.0266 -9404.2040 -7571.7678 300.3834 -174.1634 -130.5764 31035.3364 154.2230 197.1855
ENERGY: 1200000 1.7982 4.9826 6.2955 0.0000 -10983.3044 1561.3989 0.0000 0.0000 1738.2060 -7670.6232 292.4946 -9408.8292 -7589.0164 299.2477 828.3883 888.0885 30351.3136 209.4155 253.5708
ENERGY: 1500000 6.1951 8.0302 6.2773 0.0000 -10720.0438 1421.7295 0.0000 0.0000 1772.5021 -7505.3096 298.2657 -9277.8118 -7583.2325 299.1322 -200.1361 -95.2083 30862.0668 143.2450 192.5176
TCL: Running FEP window   2: Lambda1 0.95   Lambda2 0.8999999999999999 [dLambda -0.050000000000000044]
TCL: Setting parameter firsttimestep to 0
TCL: Setting parameter alchLambda to 0.95
Info: NONBONDED TABLE R-SQUARED SPACING: 0.0625
Info: NONBONDED TABLE SIZE: 705 POINTS
TCL: Setting parameter alchLambda2 to 0.8999999999999999
Info: NONBONDED TABLE R-SQUARED SPACING: 0.0625
Info: NONBONDED TABLE SIZE: 705 POINTS
TCL: Running for 1500000 steps
ETITLE: TS BOND ANGLE DIHED IMPRP ELECT VDW BOUNDARY MISC KINETIC TOTAL TEMP POTENTIAL TOTALAVG TEMPAVG PRESSURE GPRESSURE VOLUME PRESSAVG GPRESSAVG
ENERGY: 0 6.1951 8.0302 6.2773 0.0000 -10717.4377 1420.5363 0.0000 0.0000 1771.5875 -7504.8114 298.1118 -9276.3989 -7504.8114 298.1118 -196.0058 -114.9879 30862.0668 -196.0058 -114.9879
ENERGY: 300000 1.4486 5.9883 7.2298 0.0000 -10763.6793 1456.9691 0.0000 0.0000 1818.0152 -7474.0283 305.9244 -9292.0435 -7546.4276 302.3201 52.7748 84.5474 30966.0948 -381.9600 -307.5560
ENERGY: 600000 4.2343 8.6084 6.1226 0.0000 -10690.5249 1361.8054 0.0000 0.0000 1679.1244 -7630.6298 282.5527 -9309.7542 -7580.3947 297.9176 -1048.7794 -946.3332 31486.6981 -465.1603 -399.6823
ENERGY: 900000 3.6674 3.4976 3.2994 0.0000 -10838.8537 1411.4321 0.0000 0.0000 1806.5240 -7610.4332 303.9907 -9416.9572 -7583.0556 299.6781 -525.0102 -468.5980 30725.0240 -291.7216 -232.3986
ENERGY: 1200000 1.6020 7.3804 4.4560 0.0000 -10809.3367 1402.6409 0.0000 0.0000 1811.0365 -7582.2209 304.7500 -9393.2574 -7576.1861 299.4591 -412.9696 -349.0542 30512.8338 -261.3187 -199.1971
ENERGY: 1500000 1.8271 7.0766 4.1919 0.0000 -10753.5887 1391.9856 0.0000 0.0000 1751.0306 -7597.4770 294.6526 -9348.5076 -7574.8359 299.7075 -567.7642 -519.2830 31053.6100 -278.6274 -221.4907
TCL: Running FEP window   3: Lambda1 0.8999999999999999 Lambda2 0.8499999999999999 [dLambda -0.050000000000000044]
TCL: Setting parameter firsttimestep to 0
TCL: Setting parameter alchLambda to 0.8999999999999999
Info: NONBONDED TABLE R-SQUARED SPACING: 0.0625
Info: NONBONDED TABLE SIZE: 705 POINTS
TCL: Setting parameter alchLambda2 to 0.8499999999999999
Info: NONBONDED TABLE R-SQUARED SPACING: 0.0625
Info: NONBONDED TABLE SIZE: 705 POINTS
TCL: Running for 1500000 steps
ETITLE: TS BOND ANGLE DIHED IMPRP ELECT VDW BOUNDARY MISC KINETIC TOTAL TEMP POTENTIAL TOTALAVG TEMPAVG PRESSURE GPRESSURE VOLUME PRESSAVG GPRESSAVG
ENERGY: 0 1.8271 7.0766 4.1919 0.0000 -10752.1649 1391.3238 0.0000 0.0000 1750.1459 -7597.5996 294.5038 -9347.7456 -7597.5996 294.5038 -616.2008 -538.7186 31053.6100 -616.2008 -538.7186
ENERGY: 300000 2.1569 7.4762 3.9237 0.0000 -10848.1458 1497.5335 0.0000 0.0000 1778.2273 -7558.8281 299.2291 -9337.0554 -7604.8755 297.1255 737.3174 733.0646 30391.7849 -199.7933 -148.6727
ENERGY: 600000 1.9117 3.0980 3.7783 0.0000 -10713.4221 1400.5739 0.0000 0.0000 1718.1300 -7585.9302 289.1163 -9304.0602 -7594.0105 295.7579 -634.0787 -514.2785 31053.1069 -379.6348 -320.1570
ENERGY: 900000 4.9832 4.7406 2.9452 0.0000 -10716.3650 1441.6554 0.0000 0.0000 1832.0789 -7429.9615 308.2909 -9262.0404 -7574.4157 297.3896 66.2302 80.2210 31057.8431 -284.4196 -228.1403
ENERGY: 1200000 3.7700 7.3076 6.1946 0.0000 -10849.8137 1494.4719 0.0000 0.0000 1806.8580 -7531.2117 304.0469 -9338.0697 -7565.5170 298.2094 369.3738 514.0725 30619.2259 -257.9880 -188.9671
ENERGY: 1500000 2.4326 5.9884 5.1412 0.0000 -10730.8975 1357.5908 0.0000 0.0000 1781.3115 -7578.4330 299.7481 -9359.7445 -7557.7580 299.1638 -775.0550 -721.7373 30804.8511 -274.4682 -207.4460
TCL: Running FEP window   4: Lambda1 0.8499999999999999 Lambda2 0.7999999999999998 [dLambda -0.050000000000000044]
TCL: Setting parameter firsttimestep to 0
TCL: Setting parameter alchLambda to 0.8499999999999999
Info: NONBONDED TABLE R-SQUARED SPACING: 0.0625
Info: NONBONDED TABLE SIZE: 705 POINTS
TCL: Setting parameter alchLambda2 to 0.7999999999999998
Info: NONBONDED TABLE R-SQUARED SPACING: 0.0625
Info: NONBONDED TABLE SIZE: 705 POINTS
TCL: Running for 1500000 steps
ETITLE: TS BOND ANGLE DIHED IMPRP ELECT VDW BOUNDARY MISC KINETIC TOTAL TEMP POTENTIAL TOTALAVG TEMPAVG PRESSURE GPRESSURE VOLUME PRESSAVG GPRESSAVG
ENERGY: 0 2.4326 5.9884 5.1412 0.0000 -10728.8822 1357.1785 0.0000 0.0000 1780.4169 -7577.7245 299.5976 -9358.1415 -7577.7245 299.5976 -818.3817 -735.5934 30804.8511 -818.3817 -735.5934
ENERGY: 300000 2.9245 7.4596 3.6479 0.0000 -10780.4762 1424.9590 0.0000 0.0000 1793.5119 -7547.9733 301.8011 -9341.4852 -7570.2261 297.6113 -73.2907 -14.5111 30351.6950 -347.4436 -275.7994
ENERGY: 600000 1.5013 4.1077 2.4810 0.0000 -10677.4712 1442.1916 0.0000 0.0000 1796.5157 -7430.6738 302.3066 -9227.1895 -7544.1876 298.0535 202.2652 267.5719 30593.0581 -169.2488 -95.6438
ENERGY: 900000 1.1152 8.8764 2.9550 0.0000 -10771.9019 1427.3988 0.0000 0.0000 1751.0464 -7580.5101 294.6553 -9331.5565 -7553.6941 297.7968 95.7065 157.1751 30323.5265 -133.8414 -72.5356
ENERGY: 1200000 3.6004 5.0504 5.8612 0.0000 -10749.1343 1388.6370 0.0000 0.0000 1819.0522 -7526.9331 306.0989 -9345.9853 -7554.7054 299.1766 -445.1327 -383.7345 30902.1614 -91.5309 -27.8648
ENERGY: 1500000 5.5663 5.5953 5.2694 0.0000 -10808.2395 1406.7607 0.0000 0.0000 1768.8142 -7616.2336 297.6451 -9385.0478 -7560.2391 299.6663 -377.9756 -330.9255 30546.3251 -164.4593 -103.4589
TCL: Running FEP window   5: Lambda1 0.7999999999999998 Lambda2 0.7499999999999998 [dLambda -0.050000000000000044]
TCL: Setting parameter firsttimestep to 0
TCL: Setting parameter alchLambda to 0.7999999999999998
Info: NONBONDED TABLE R-SQUARED SPACING: 0.0625
Info: NONBONDED TABLE SIZE: 705 POINTS
TCL: Setting parameter alchLambda2 to 0.7499999999999998
Info: NONBONDED TABLE R-SQUARED SPACING: 0.0625
Info: NONBONDED TABLE SIZE: 705 POINTS
TCL: Running for 1500000 steps
ETITLE: TS BOND ANGLE DIHED IMPRP ELECT VDW BOUNDARY MISC KINETIC TOTAL TEMP POTENTIAL TOTALAVG TEMPAVG PRESSURE GPRESSURE VOLUME PRESSAVG GPRESSAVG
ENERGY: 0 5.5663 5.5953 5.2694 0.0000 -10806.6441 1406.5910 0.0000 0.0000 1767.9413 -7615.6807 297.4983 -9383.6220 -7615.6807 297.4983 -410.2838 -342.2541 30546.3251 -410.2838 -342.2541
ENERGY: 300000 1.0206 5.2124 1.7086 0.0000 -10704.8610 1399.0152 0.0000 0.0000 1797.6674 -7500.2368 302.5004 -9297.9042 -7537.6627 300.0064 -136.8988 -116.2859 30614.8666 -139.2326 -95.4268
ENERGY: 600000 4.7725 4.7792 1.5153 0.0000 -10701.6037 1421.5988 0.0000 0.0000 1763.3576 -7505.5802 296.7269 -9268.9378 -7532.3901 298.7232 -163.6571 -141.9758 30804.9072 -163.4536 -109.5235
ENERGY: 900000 7.5519 4.9060 3.5425 0.0000 -10909.5971 1448.9330 0.0000 0.0000 1819.9104 -7624.7533 306.2433 -9444.6637 -7542.8069 300.8378 -132.9230 -41.4024 30069.4397 -206.0300 -144.0341
ENERGY: 1200000 1.8710 5.7305 1.4647 0.0000 -10814.3455 1431.3787 0.0000 0.0000 1768.5180 -7605.3825 297.5953 -9373.9005 -7541.2289 300.8514 -272.3516 -228.2479 30563.0801 -158.9549 -101.3070
ENERGY: 1500000 3.5851 3.9470 2.4822 0.0000 -10908.3872 1545.5125 0.0000 0.0000 1778.9247 -7573.9358 299.3465 -9352.8604 -7535.5721 301.4115 325.7419 403.6403 31138.0975 -55.3776 12.3678
TCL: Running FEP window   6: Lambda1 0.7499999999999998 Lambda2 0.6999999999999997 [dLambda -0.050000000000000044]
TCL: Setting parameter firsttimestep to 0
TCL: Setting parameter alchLambda to 0.7499999999999998
Info: NONBONDED TABLE R-SQUARED SPACING: 0.0625
Info: NONBONDED TABLE SIZE: 705 POINTS
TCL: Setting parameter alchLambda2 to 0.6999999999999997
Info: NONBONDED TABLE R-SQUARED SPACING: 0.0625
Info: NONBONDED TABLE SIZE: 705 POINTS
TCL: Running for 1500000 steps
ETITLE: TS BOND ANGLE DIHED IMPRP ELECT VDW BOUNDARY MISC KINETIC TOTAL TEMP POTENTIAL TOTALAVG TEMPAVG PRESSURE GPRESSURE VOLUME PRESSAVG GPRESSAVG
ENERGY: 0 3.5851 3.9470 2.4822 0.0000 -10907.7043 1545.9666 0.0000 0.0000 1778.0714 -7573.6520 299.2029 -9351.7234 -7573.6520 299.2029 322.4351 403.8299 31138.0975 322.4351 403.8299
ENERGY: 300000 2.3098 6.4728 4.3768 0.0000 -10925.6065 1518.7259 0.0000 0.0000 1829.0893 -7564.6319 307.7879 -9393.7212 -7600.3480 298.7447 443.3725 524.0413 30510.7461 235.6038 314.0357
ENERGY: 600000 2.2173 4.7626 2.4287 0.0000 -10833.6967 1532.2273 0.0000 0.0000 1736.7326 -7555.3282 292.2467 -9292.0608 -7605.6589 297.4705 898.9125 966.3094 30266.1693 301.8928 368.5752
ENERGY: 900000 2.1662 6.4871 2.0489 0.0000 -10805.0145 1360.2400 0.0000 0.0000 1773.9590 -7660.1134 298.5109 -9434.0723 -7604.3520 298.5116 -1019.1170 -914.0195 30673.4349 84.1851 151.7021
ENERGY: 1200000 2.6346 9.3701 3.5823 0.0000 -10865.0190 1448.1495 0.0000 0.0000 1784.2629 -7617.0196 300.2447 -9401.2825 -7604.7126 298.8549 -262.4044 -215.5122 30684.3904 57.6155 125.4597
ENERGY: 1500000 3.5929 5.8120 4.1779 0.0000 -10790.8466 1516.4423 0.0000 0.0000 1774.2531 -7486.5685 298.5604 -9260.8216 -7594.5226 299.3002 742.3601 763.0509 30943.8013 45.1282 108.4490
TCL: Running FEP window   7: Lambda1 0.6999999999999997 Lambda2 0.6499999999999997 [dLambda -0.050000000000000044]
TCL: Setting parameter firsttimestep to 0
TCL: Setting parameter alchLambda to 0.6999999999999997
Info: NONBONDED TABLE R-SQUARED SPACING: 0.0625
Info: NONBONDED TABLE SIZE: 705 POINTS
TCL: Setting parameter alchLambda2 to 0.6499999999999997
Info: NONBONDED TABLE R-SQUARED SPACING: 0.0625
Info: NONBONDED TABLE SIZE: 705 POINTS
TCL: Running for 1500000 steps
ETITLE: TS BOND ANGLE DIHED IMPRP ELECT VDW BOUNDARY MISC KINETIC TOTAL TEMP POTENTIAL TOTALAVG TEMPAVG PRESSURE GPRESSURE VOLUME PRESSAVG GPRESSAVG
ENERGY: 0 3.5929 5.8120 4.1779 0.0000 -10789.3826 1515.9802 0.0000 0.0000 1773.3628 -7486.4569 298.4105 -9259.8196 -7486.4569 298.4105 676.8337 751.3020 30943.8013 676.8337 751.3020
ENERGY: 300000 3.5847 5.7513 2.1025 0.0000 -10665.8593 1375.2747 0.0000 0.0000 1793.8007 -7485.3454 301.8497 -9279.1461 -7529.9071 298.6630 -670.6794 -627.9908 30996.3347 -184.2512 -123.7887
ENERGY: 600000 2.8261 8.2470 4.5646 0.0000 -11029.0669 1609.4557 0.0000 0.0000 1791.6331 -7612.3404 301.4850 -9403.9735 -7569.1458 299.1288 1230.3829 1254.5106 30214.2322 -124.1115 -67.1232
ENERGY: 900000 5.6772 5.4394 4.4034 0.0000 -10902.3833 1534.9801 0.0000 0.0000 1764.4816 -7587.4015 296.9161 -9351.8832 -7570.0080 299.2249 450.8479 468.2598 30747.8856 19.6390 69.3621
ENERGY: 1200000 5.2004 4.9709 3.1095 0.0000 -10860.1287 1466.4526 0.0000 0.0000 1765.8702 -7614.5252 297.1497 -9380.3953 -7563.1778 300.1916 177.9290 226.0134 30667.7250 36.4381 88.8673
ENERGY: 1500000 2.9387 8.8417 3.7753 0.0000 -10680.9782 1392.4150 0.0000 0.0000 1749.2697 -7523.7378 294.3563 -9273.0075 -7554.3312 299.7891 -468.8581 -408.0662 31011.8174 -38.5791 11.7632
TCL: Running FEP window   8: Lambda1 0.6499999999999997 Lambda2 0.5999999999999996 [dLambda -0.050000000000000044]
TCL: Setting parameter firsttimestep to 0
TCL: Setting parameter alchLambda to 0.6499999999999997
Info: NONBONDED TABLE R-SQUARED SPACING: 0.0625
Info: NONBONDED TABLE SIZE: 705 POINTS
TCL: Setting parameter alchLambda2 to 0.5999999999999996
Info: NONBONDED TABLE R-SQUARED SPACING: 0.0625
Info: NONBONDED TABLE SIZE: 705 POINTS
TCL: Running for 1500000 steps
ETITLE: TS BOND ANGLE DIHED IMPRP ELECT VDW BOUNDARY MISC KINETIC TOTAL TEMP POTENTIAL TOTALAVG TEMPAVG PRESSURE GPRESSURE VOLUME PRESSAVG GPRESSAVG
ENERGY: 0 2.9387 8.8417 3.7753 0.0000 -10680.1765 1392.8018 0.0000 0.0000 1748.4058 -7523.4131 294.2109 -9271.8190 -7523.4131 294.2109 -506.6888 -413.2390 31011.8174 -506.6888 -413.2390
ENERGY: 300000 1.2784 4.4405 1.6180 0.0000 -10867.8897 1498.4833 0.0000 0.0000 1835.1233 -7526.9462 308.8032 -9362.0695 -7548.4213 298.8495 614.8694 637.6508 30558.8395 81.1920 141.9027
ENERGY: 600000 3.6733 7.3415 6.3885 0.0000 -10706.6218 1438.7019 0.0000 0.0000 1764.4968 -7486.0198 296.9186 -9250.5166 -7523.8417 299.7980 37.4235 73.6582 30956.7937 136.8729 202.6738
ENERGY: 900000 1.2665 5.5286 3.0900 0.0000 -10775.5426 1424.1751 0.0000 0.0000 1781.9204 -7559.5620 299.8506 -9341.4824 -7523.8282 300.2497 -546.9491 -493.4996 31551.3335 -21.5766 34.0113
ENERGY: 1200000 4.6768 6.0384 3.1595 0.0000 -10704.0284 1349.5439 0.0000 0.0000 1813.4526 -7527.1572 305.1566 -9340.6098 -7533.1217 300.3478 -1041.2932 -934.3344 30885.8630 -150.0087 -87.8293
ENERGY: 1500000 3.3013 8.1662 1.6952 0.0000 -10714.7171 1400.5027 0.0000 0.0000 1830.5497 -7470.5021 308.0336 -9301.0518 -7529.0273 301.1063 -304.6794 -201.5551 30876.5694 -170.1036 -104.0754
TCL: Running FEP window   9: Lambda1 0.5999999999999996 Lambda2 0.5499999999999996 [dLambda -0.050000000000000044]
TCL: Setting parameter firsttimestep to 0
TCL: Setting parameter alchLambda to 0.5999999999999996
Info: NONBONDED TABLE R-SQUARED SPACING: 0.0625
Info: NONBONDED TABLE SIZE: 705 POINTS
TCL: Setting parameter alchLambda2 to 0.5499999999999996
Info: NONBONDED TABLE R-SQUARED SPACING: 0.0625
Info: NONBONDED TABLE SIZE: 705 POINTS
TCL: Running for 1500000 steps
ETITLE: TS BOND ANGLE DIHED IMPRP ELECT VDW BOUNDARY MISC KINETIC TOTAL TEMP POTENTIAL TOTALAVG TEMPAVG PRESSURE GPRESSURE VOLUME PRESSAVG GPRESSAVG
ENERGY: 0 3.3013 8.1662 1.6952 0.0000 -10714.5894 1401.1529 0.0000 0.0000 1829.6962 -7470.5777 307.8900 -9300.2739 -7470.5777 307.8900 -287.0321 -203.5546 30876.5694 -287.0321 -203.5546
ENERGY: 300000 2.9955 4.7100 4.4407 0.0000 -10700.6889 1369.3441 0.0000 0.0000 1842.3556 -7476.8431 310.0202 -9319.1987 -7537.1364 301.6963 -524.2746 -509.1589 30729.6807 -146.3452 -108.8323
ENERGY: 600000 4.3246 5.7407 6.5166 0.0000 -10829.7912 1497.4536 0.0000 0.0000 1859.7504 -7456.0053 312.9473 -9315.7556 -7524.3815 302.4823 580.5292 667.8131 30275.3681 -121.3560 -72.4693
ENERGY: 900000 1.7552 9.2223 3.3183 0.0000 -10964.9228 1591.6499 0.0000 0.0000 1778.4916 -7580.4855 299.2736 -9358.9771 -7534.3078 301.2095 1234.9311 1258.3865 30411.4101 27.4242 62.7398
ENERGY: 1200000 1.5465 5.5247 6.0353 0.0000 -10914.8810 1548.8974 0.0000 0.0000 1825.5357 -7527.3416 307.1899 -9352.8772 -7539.8918 300.8289 868.3067 875.9759 30537.1789 36.5406 70.8670
ENERGY: 1500000 4.8003 3.1967 4.5916 0.0000 -10658.0182 1350.4365 0.0000 0.0000 1722.5498 -7572.4433 289.8601 -9294.9931 -7544.8279 299.9535 -719.0985 -718.8994 30625.7973 33.3287 69.9715
TCL: Running FEP window  10: Lambda1 0.5499999999999996 Lambda2 0.4999999999999996 [dLambda -0.04999999999999999]
TCL: Setting parameter firsttimestep to 0
TCL: Setting parameter alchLambda to 0.5499999999999996
Info: NONBONDED TABLE R-SQUARED SPACING: 0.0625
Info: NONBONDED TABLE SIZE: 705 POINTS
TCL: Setting parameter alchLambda2 to 0.4999999999999996
Info: NONBONDED TABLE R-SQUARED SPACING: 0.0625
Info: NONBONDED TABLE SIZE: 705 POINTS
TCL: Running for 1500000 steps
ETITLE: TS BOND ANGLE DIHED IMPRP ELECT VDW BOUNDARY MISC KINETIC TOTAL TEMP POTENTIAL TOTALAVG TEMPAVG PRESSURE GPRESSURE VOLUME PRESSAVG GPRESSAVG
ENERGY: 0 4.8003 3.1967 4.5916 0.0000 -10657.7320 1350.1953 0.0000 0.0000 1721.6647 -7573.2833 289.7111 -9294.9481 -7573.2833 289.7111 -812.0404 -728.3057 30625.7973 -812.0404 -728.3057
ENERGY: 300000 1.6827 4.9229 2.6412 0.0000 -10886.3232 1516.2677 0.0000 0.0000 1863.8985 -7496.9101 313.6453 -9360.8086 -7539.9819 301.7921 326.3493 388.2823 30753.1534 -186.3580 -100.3550
ENERGY: 600000 3.9856 6.1291 2.1486 0.0000 -10781.8266 1404.2149 0.0000 0.0000 1783.4136 -7581.9347 300.1018 -9365.3483 -7553.3948 300.9713 -134.0335 -54.0831 30119.2033 -265.6260 -181.2280
ENERGY: 900000 4.4329 5.2430 4.6014 0.0000 -10711.8610 1389.8814 0.0000 0.0000 1809.2222 -7498.4801 304.4447 -9307.7023 -7548.3748 301.7750 -480.9688 -402.0758 30610.9128 -304.2991 -226.1895
ENERGY: 1200000 0.9963 8.0330 6.6822 0.0000 -10740.1819 1455.2611 0.0000 0.0000 1799.4097 -7469.7996 302.7936 -9269.2093 -7541.4124 302.0914 409.7866 437.2346 30570.1767 -193.7271 -120.3313
ENERGY: 1500000 2.5627 7.2464 4.4399 0.0000 -10899.8425 1480.7063 0.0000 0.0000 1780.4154 -7624.4718 299.5973 -9404.8872 -7548.0378 301.9557 339.1437 429.6336 30017.2836 -161.5440 -88.2717
TCL: Running FEP window  11: Lambda1 0.4999999999999996 Lambda2 0.4499999999999996 [dLambda -0.04999999999999999]
TCL: Setting parameter firsttimestep to 0
TCL: Setting parameter alchLambda to 0.4999999999999996
Info: NONBONDED TABLE R-SQUARED SPACING: 0.0625
Info: NONBONDED TABLE SIZE: 705 POINTS
TCL: Setting parameter alchLambda2 to 0.4499999999999996
Info: NONBONDED TABLE R-SQUARED SPACING: 0.0625
Info: NONBONDED TABLE SIZE: 705 POINTS
TCL: Running for 1500000 steps
ETITLE: TS BOND ANGLE DIHED IMPRP ELECT VDW BOUNDARY MISC KINETIC TOTAL TEMP POTENTIAL TOTALAVG TEMPAVG PRESSURE GPRESSURE VOLUME PRESSAVG GPRESSAVG
ENERGY: 0 2.5627 7.2464 4.4399 0.0000 -10900.3136 1480.9536 0.0000 0.0000 1779.4882 -7625.6228 299.4413 -9405.1110 -7625.6228 299.4413 317.2405 419.8881 30017.2836 317.2405 419.8881
ENERGY: 300000 3.3588 8.3855 1.8213 0.0000 -10873.6325 1505.4389 0.0000 0.0000 1803.8456 -7550.7823 303.5400 -9354.6280 -7589.6020 298.2731 637.9710 615.4202 30233.2014 32.8407 77.7103
ENERGY: 600000 3.8161 5.2191 1.6544 0.0000 -10888.3678 1507.5812 0.0000 0.0000 1798.8296 -7571.2674 302.6960 -9370.0971 -7557.0454 300.2761 -2.9238 82.7479 30970.4868 214.1102 269.2093
ENERGY: 900000 2.1643 4.4913 1.3112 0.0000 -10711.3081 1375.6084 0.0000 0.0000 1735.9573 -7591.7755 292.1162 -9327.7328 -7553.6987 299.7878 -772.0306 -673.6853 31103.0606 125.8921 188.9964
ENERGY: 1200000 2.1598 4.1021 1.5557 0.0000 -10747.1225 1414.5735 0.0000 0.0000 1752.1695 -7572.5619 294.8443 -9324.7314 -7554.2207 300.0088 -315.3653 -324.1555 30978.6452 48.4464 114.9347
ENERGY: 1500000 1.3632 8.0535 3.4953 0.0000 -10862.6789 1484.5653 0.0000 0.0000 1741.3927 -7623.8089 293.0308 -9365.2016 -7565.1701 298.7730 370.0272 352.0171 30354.6678 16.6095 70.5848
TCL: Running FEP window  12: Lambda1 0.4499999999999996 Lambda2 0.39999999999999963 [dLambda -0.04999999999999999]
TCL: Setting parameter firsttimestep to 0
TCL: Setting parameter alchLambda to 0.4499999999999996
Info: NONBONDED TABLE R-SQUARED SPACING: 0.0625
Info: NONBONDED TABLE SIZE: 705 POINTS
TCL: Setting parameter alchLambda2 to 0.39999999999999963
Info: NONBONDED TABLE R-SQUARED SPACING: 0.0625
Info: NONBONDED TABLE SIZE: 705 POINTS
TCL: Running for 1500000 steps
ETITLE: TS BOND ANGLE DIHED IMPRP ELECT VDW BOUNDARY MISC KINETIC TOTAL TEMP POTENTIAL TOTALAVG TEMPAVG PRESSURE GPRESSURE VOLUME PRESSAVG GPRESSAVG
ENERGY: 0 1.3632 8.0535 3.4953 0.0000 -10862.6793 1485.0785 0.0000 0.0000 1740.5387 -7624.1502 292.8871 -9364.6889 -7624.1502 292.8871 267.5527 347.4439 30354.6678 267.5527 347.4439
ENERGY: 300000 4.6878 4.4219 2.7398 0.0000 -10797.1659 1520.6458 0.0000 0.0000 1806.6254 -7458.0452 304.0078 -9264.6706 -7594.6970 295.8870 634.7121 686.1721 30758.9086 19.1343 73.3957
ENERGY: 600000 0.8054 8.0879 3.2522 0.0000 -10741.2678 1466.6415 0.0000 0.0000 1801.1923 -7461.2884 303.0935 -9262.4808 -7573.1666 297.6747 190.5050 338.2309 30576.6108 19.6001 84.7164
ENERGY: 900000 2.2138 9.6163 4.2163 0.0000 -10962.2547 1561.1727 0.0000 0.0000 1815.3657 -7569.6700 305.4785 -9385.0357 -7562.2369 298.3902 786.5750 908.0165 30644.4261 189.9769 268.2812
ENERGY: 1200000 2.8623 8.9212 2.7643 0.0000 -10781.9853 1477.3306 0.0000 0.0000 1783.2647 -7506.8423 300.0768 -9290.1070 -7560.7297 298.2305 41.8221 93.7142 30893.7488 121.7801 196.2423
ENERGY: 1500000 2.2869 6.2933 2.7848 0.0000 -10874.1244 1445.7673 0.0000 0.0000 1796.4994 -7620.4928 302.3038 -9416.9922 -7566.7099 298.4693 304.8385 324.8724 29702.0497 62.0825 138.2738
TCL: Running FEP window  13: Lambda1 0.39999999999999963 Lambda2 0.34999999999999964 [dLambda -0.04999999999999999]
TCL: Setting parameter firsttimestep to 0
TCL: Setting parameter alchLambda to 0.39999999999999963
Info: NONBONDED TABLE R-SQUARED SPACING: 0.0625
Info: NONBONDED TABLE SIZE: 705 POINTS
TCL: Setting parameter alchLambda2 to 0.34999999999999964
Info: NONBONDED TABLE R-SQUARED SPACING: 0.0625
Info: NONBONDED TABLE SIZE: 705 POINTS
TCL: Running for 1500000 steps
ETITLE: TS BOND ANGLE DIHED IMPRP ELECT VDW BOUNDARY MISC KINETIC TOTAL TEMP POTENTIAL TOTALAVG TEMPAVG PRESSURE GPRESSURE VOLUME PRESSAVG GPRESSAVG
ENERGY: 0 2.2869 6.2933 2.7848 0.0000 -10874.1243 1444.6343 0.0000 0.0000 1795.6100 -7622.5150 302.1542 -9418.1250 -7622.5150 302.1542 218.2801 308.4088 29702.0497 218.2801 308.4088
ENERGY: 300000 2.8536 7.6718 2.3841 0.0000 -10813.5550 1472.9748 0.0000 0.0000 1867.3321 -7460.3387 314.2231 -9327.6708 -7543.2403 306.7844 330.0967 348.6089 30705.5988 351.4212 430.5359
ENERGY: 600000 4.0142 6.5871 4.4254 0.0000 -10827.7399 1496.5177 0.0000 0.0000 1763.7733 -7552.4223 296.7969 -9316.1956 -7541.0220 304.6671 65.9977 140.4019 30949.2564 299.4016 364.1500
ENERGY: 900000 5.1535 6.3720 2.8666 0.0000 -10866.6107 1509.1285 0.0000 0.0000 1846.5037 -7496.5864 310.7183 -9343.0902 -7536.7362 304.8202 286.1412 335.6633 30665.5248 242.6105 305.7359
ENERGY: 1200000 2.8376 5.4745 3.6827 0.0000 -10851.9149 1530.8767 0.0000 0.0000 1828.0586 -7480.9848 307.6144 -9309.0434 -7539.0503 304.1250 777.1279 841.1372 30382.7432 212.9555 276.2017
ENERGY: 1500000 5.7114 9.4313 2.6675 0.0000 -10721.9548 1426.3805 0.0000 0.0000 1780.3288 -7497.4353 299.5827 -9277.7641 -7537.2568 303.2141 -285.0966 -244.8000 30755.9020 115.9940 179.8285
TCL: Running FEP window  14: Lambda1 0.34999999999999964 Lambda2 0.29999999999999966 [dLambda -0.04999999999999999]
TCL: Setting parameter firsttimestep to 0
TCL: Setting parameter alchLambda to 0.34999999999999964
Info: NONBONDED TABLE R-SQUARED SPACING: 0.0625
Info: NONBONDED TABLE SIZE: 705 POINTS
TCL: Setting parameter alchLambda2 to 0.29999999999999966
Info: NONBONDED TABLE R-SQUARED SPACING: 0.0625
Info: NONBONDED TABLE SIZE: 705 POINTS
TCL: Running for 1500000 steps
ETITLE: TS BOND ANGLE DIHED IMPRP ELECT VDW BOUNDARY MISC KINETIC TOTAL TEMP POTENTIAL TOTALAVG TEMPAVG PRESSURE GPRESSURE VOLUME PRESSAVG GPRESSAVG
ENERGY: 0 5.7114 9.4312 2.6675 0.0000 -10721.9541 1425.8804 0.0000 0.0000 1779.4662 -7498.7974 299.4376 -9278.2636 -7498.7974 299.4376 -344.3615 -255.0421 30755.9020 -344.3615 -255.0421
ENERGY: 300000 2.6805 4.7076 2.2509 0.0000 -10861.4571 1515.9651 0.0000 0.0000 1765.3347 -7570.5183 297.0596 -9335.8530 -7542.8559 300.1625 619.1471 607.3094 30461.8864 -323.7380 -281.2018
ENERGY: 600000 3.2329 7.7962 2.8949 0.0000 -10827.8327 1460.5822 0.0000 0.0000 1739.1420 -7614.1845 292.6521 -9353.3265 -7572.8834 297.1229 -118.4441 -63.3532 30417.2508 -389.3574 -349.8927
ENERGY: 900000 4.7833 3.1246 2.5739 0.0000 -11017.9305 1546.7660 0.0000 0.0000 1790.6639 -7670.0187 301.3219 -9460.6826 -7587.0081 298.9180 765.4177 832.8812 30085.9134 -200.0686 -156.6338
ENERGY: 1200000 1.4368 7.8065 4.4507 0.0000 -10777.2274 1399.4991 0.0000 0.0000 1787.2646 -7576.7698 300.7499 -9364.0343 -7581.0999 299.0402 -459.5004 -392.8068 30644.6280 -124.1589 -80.5045
ENERGY: 1500000 5.9068 9.8444 3.8386 0.0000 -10784.5738 1430.3265 0.0000 0.0000 1779.9876 -7554.6698 299.5253 -9334.6574 -7579.9166 298.9020 -442.2310 -354.2429 30690.3492 -91.3406 -45.1989
TCL: Running FEP window  15: Lambda1 0.29999999999999966 Lambda2 0.24999999999999967 [dLambda -0.04999999999999999]
TCL: Setting parameter firsttimestep to 0
TCL: Setting parameter alchLambda to 0.29999999999999966
Info: NONBONDED TABLE R-SQUARED SPACING: 0.0625
Info: NONBONDED TABLE SIZE: 705 POINTS
TCL: Setting parameter alchLambda2 to 0.24999999999999967
Info: NONBONDED TABLE R-SQUARED SPACING: 0.0625
Info: NONBONDED TABLE SIZE: 705 POINTS
TCL: Running for 1500000 steps
ETITLE: TS BOND ANGLE DIHED IMPRP ELECT VDW BOUNDARY MISC KINETIC TOTAL TEMP POTENTIAL TOTALAVG TEMPAVG PRESSURE GPRESSURE VOLUME PRESSAVG GPRESSAVG
ENERGY: 0 5.9068 9.8444 3.8386 0.0000 -10784.5734 1430.1031 0.0000 0.0000 1779.0845 -7555.7959 299.3734 -9334.8804 -7555.7959 299.3734 -457.7433 -363.6011 30690.3492 -457.7433 -363.6011
ENERGY: 300000 2.5201 8.2025 6.8154 0.0000 -10747.4292 1410.1883 0.0000 0.0000 1808.4819 -7511.2209 304.3202 -9319.7028 -7568.1573 301.7412 -303.9697 -200.8556 30453.3017 -625.2657 -530.5540
ENERGY: 600000 2.9701 4.7470 2.8702 0.0000 -10968.3791 1509.4339 0.0000 0.0000 1767.0623 -7681.2955 297.3504 -9448.3579 -7597.2407 299.0213 95.8037 135.6581 30460.3493 -256.2810 -179.8458
ENERGY: 900000 2.8382 3.6453 1.0932 0.0000 -10902.8416 1489.1476 0.0000 0.0000 1791.6995 -7614.4178 301.4961 -9406.1173 -7587.3806 300.1710 65.0643 150.8188 30605.8925 -82.6296 -8.1589
ENERGY: 1200000 2.9177 6.1288 4.9318 0.0000 -10868.7866 1462.4231 0.0000 0.0000 1807.3654 -7585.0198 304.1323 -9392.3852 -7586.1779 299.1715 182.3624 206.3860 30440.1971 -96.4834 -21.7317
ENERGY: 1500000 3.8977 5.7218 4.1499 0.0000 -10658.9011 1365.1524 0.0000 0.0000 1792.0085 -7487.9708 301.5481 -9279.9793 -7577.2323 299.1394 -764.3597 -646.7463 30930.1962 -67.0611 13.6144
TCL: Running FEP window  16: Lambda1 0.24999999999999967 Lambda2 0.19999999999999968 [dLambda -0.04999999999999999]
TCL: Setting parameter firsttimestep to 0
TCL: Setting parameter alchLambda to 0.24999999999999967
Info: NONBONDED TABLE R-SQUARED SPACING: 0.0625
Info: NONBONDED TABLE SIZE: 705 POINTS
TCL: Setting parameter alchLambda2 to 0.19999999999999968
Info: NONBONDED TABLE R-SQUARED SPACING: 0.0625
Info: NONBONDED TABLE SIZE: 705 POINTS
TCL: Running for 1500000 steps
ETITLE: TS BOND ANGLE DIHED IMPRP ELECT VDW BOUNDARY MISC KINETIC TOTAL TEMP POTENTIAL TOTALAVG TEMPAVG PRESSURE GPRESSURE VOLUME PRESSAVG GPRESSAVG
ENERGY: 0 3.8977 5.7218 4.1499 0.0000 -10658.9006 1365.1361 0.0000 0.0000 1791.1332 -7488.8619 301.4008 -9279.9951 -7488.8619 301.4008 -739.0451 -653.2157 30930.1962 -739.0451 -653.2157
ENERGY: 300000 6.3613 6.8226 2.0979 0.0000 -10757.1479 1415.0617 0.0000 0.0000 1821.8219 -7504.9825 306.5650 -9326.8044 -7528.0039 299.3117 -418.3713 -390.9163 30586.2968 -536.4355 -478.6905
ENERGY: 600000 3.2004 5.2429 2.1797 0.0000 -10944.7010 1613.8715 0.0000 0.0000 1809.4991 -7510.7074 304.4913 -9320.2065 -7533.2540 300.4839 1351.4286 1463.0475 30224.7298 -285.0610 -224.3889
ENERGY: 900000 2.9113 6.2414 4.0688 0.0000 -10880.1398 1451.6384 0.0000 0.0000 1786.0350 -7629.2448 300.5430 -9415.2798 -7549.9196 301.0913 -388.1783 -294.0238 30841.8436 -179.4927 -110.4096
ENERGY: 1200000 1.9720 5.7469 4.9043 0.0000 -10805.7731 1450.1682 0.0000 0.0000 1740.6728 -7602.3089 292.9097 -9342.9818 -7549.1575 300.6829 64.1163 85.0334 30170.3534 -159.0956 -93.1731
ENERGY: 1500000 3.4901 5.6500 3.1455 0.0000 -10732.0255 1392.2567 0.0000 0.0000 1754.4113 -7573.0719 295.2215 -9327.4833 -7550.4043 299.6890 -641.9388 -507.4647 30451.6111 -251.8779 -182.8239
TCL: Running FEP window  17: Lambda1 0.19999999999999968 Lambda2 0.1499999999999997 [dLambda -0.04999999999999999]
TCL: Setting parameter firsttimestep to 0
TCL: Setting parameter alchLambda to 0.19999999999999968
Info: NONBONDED TABLE R-SQUARED SPACING: 0.0625
Info: NONBONDED TABLE SIZE: 705 POINTS
TCL: Setting parameter alchLambda2 to 0.1499999999999997
Info: NONBONDED TABLE R-SQUARED SPACING: 0.0625
Info: NONBONDED TABLE SIZE: 705 POINTS
TCL: Running for 1500000 steps
ETITLE: TS BOND ANGLE DIHED IMPRP ELECT VDW BOUNDARY MISC KINETIC TOTAL TEMP POTENTIAL TOTALAVG TEMPAVG PRESSURE GPRESSURE VOLUME PRESSAVG GPRESSAVG
ENERGY: 0 3.4901 5.6500 3.1455 0.0000 -10732.0238 1392.2523 0.0000 0.0000 1753.5329 -7573.9530 295.0737 -9327.4859 -7573.9530 295.0737 -589.6330 -511.2381 30451.6111 -589.6330 -511.2381
ENERGY: 300000 3.8535 6.9221 4.0050 0.0000 -10980.6344 1532.2970 0.0000 0.0000 1812.3944 -7621.1623 304.9786 -9433.5567 -7555.7114 302.3260 251.7194 314.8887 30402.1679 56.7522 134.5300
ENERGY: 600000 10.3553 5.7719 2.3828 0.0000 -10581.6439 1346.9217 0.0000 0.0000 1769.9515 -7446.2607 297.8365 -9216.2122 -7548.3000 301.1444 -790.2302 -713.8254 30547.3725 -198.6689 -118.0970
ENERGY: 900000 3.0724 9.8943 1.8315 0.0000 -10892.0082 1523.2782 0.0000 0.0000 1784.0598 -7569.8720 300.2106 -9353.9318 -7554.1185 302.5506 313.4464 376.1304 30512.2148 -40.4181 31.8511
ENERGY: 1200000 1.8413 4.6918 0.9686 0.0000 -10864.1372 1512.3903 0.0000 0.0000 1810.6996 -7533.5456 304.6934 -9344.2452 -7550.6017 302.3360 136.1044 195.6689 31346.1463 33.5643 99.5462
ENERGY: 1500000 4.6336 9.6128 4.1341 0.0000 -10743.1327 1461.9886 0.0000 0.0000 1767.2618 -7495.5017 297.3839 -9262.7635 -7551.3478 301.7150 -34.2818 54.7258 30933.5722 110.8051 178.8309
TCL: Running FEP window  18: Lambda1 0.1499999999999997 Lambda2 0.09999999999999969 [dLambda -0.05 ]
TCL: Setting parameter firsttimestep to 0
TCL: Setting parameter alchLambda to 0.1499999999999997
Info: NONBONDED TABLE R-SQUARED SPACING: 0.0625
Info: NONBONDED TABLE SIZE: 705 POINTS
TCL: Setting parameter alchLambda2 to 0.09999999999999969
Info: NONBONDED TABLE R-SQUARED SPACING: 0.0625
Info: NONBONDED TABLE SIZE: 705 POINTS
TCL: Running for 1500000 steps
ETITLE: TS BOND ANGLE DIHED IMPRP ELECT VDW BOUNDARY MISC KINETIC TOTAL TEMP POTENTIAL TOTALAVG TEMPAVG PRESSURE GPRESSURE VOLUME PRESSAVG GPRESSAVG
ENERGY: 0 4.6336 9.6128 4.1341 0.0000 -10743.1327 1462.3743 0.0000 0.0000 1766.3356 -7496.0422 297.2281 -9262.3778 -7496.0422 297.2281 -31.3370 51.4963 30933.5722 -31.3370 51.4963
ENERGY: 300000 5.9681 7.1198 3.7518 0.0000 -10839.7079 1460.7322 0.0000 0.0000 1848.0081 -7514.1279 310.9714 -9362.1361 -7562.8557 300.7658 -222.1474 -166.6708 30870.0247 -251.1501 -197.1832
ENERGY: 600000 8.3536 5.5207 4.2145 0.0000 -10725.5059 1401.2946 0.0000 0.0000 1725.4744 -7580.6481 290.3522 -9306.1225 -7553.1791 298.5788 -569.8396 -482.6631 30585.8846 -276.2388 -214.3096
ENERGY: 900000 3.6223 5.9946 2.6568 0.0000 -10826.5493 1461.2125 0.0000 0.0000 1772.4222 -7580.6409 298.2523 -9353.0631 -7553.6858 298.2551 105.8275 200.6393 30302.1265 -200.3490 -136.8935
ENERGY: 1200000 3.8698 7.5966 2.9925 0.0000 -10946.9140 1524.1372 0.0000 0.0000 1745.6338 -7662.6840 293.7445 -9408.3178 -7551.6902 299.2729 466.6537 476.4365 30143.0298 -77.2376 -19.6077
ENERGY: 1500000 4.9708 4.1460 3.2163 0.0000 -10669.1313 1352.1513 0.0000 0.0000 1745.8879 -7558.7590 293.7872 -9304.6470 -7556.6744 298.7619 -872.7761 -833.7256 30744.6192 -152.9479 -98.7232
TCL: Running FEP window  19: Lambda1 0.09999999999999969 Lambda2 0.049999999999999684 [dLambda -0.05 ]
TCL: Setting parameter firsttimestep to 0
TCL: Setting parameter alchLambda to 0.09999999999999969
Info: NONBONDED TABLE R-SQUARED SPACING: 0.0625
Info: NONBONDED TABLE SIZE: 705 POINTS
TCL: Setting parameter alchLambda2 to 0.049999999999999684
Info: NONBONDED TABLE R-SQUARED SPACING: 0.0625
Info: NONBONDED TABLE SIZE: 705 POINTS
TCL: Running for 1500000 steps
ETITLE: TS BOND ANGLE DIHED IMPRP ELECT VDW BOUNDARY MISC KINETIC TOTAL TEMP POTENTIAL TOTALAVG TEMPAVG PRESSURE GPRESSURE VOLUME PRESSAVG GPRESSAVG
ENERGY: 0 4.9708 4.1460 3.2163 0.0000 -10669.1313 1352.3020 0.0000 0.0000 1745.0128 -7559.4834 293.6400 -9304.4962 -7559.4834 293.6400 -915.7192 -834.5046 30744.6192 -915.7192 -834.5046
ENERGY: 300000 3.1908 8.1597 2.5815 0.0000 -10816.3702 1393.5175 0.0000 0.0000 1799.5371 -7609.3835 302.8150 -9408.9207 -7564.2825 300.1137 -494.2182 -449.0817 30596.2580 -303.8096 -223.4326
ENERGY: 600000 2.5355 3.5873 2.5092 0.0000 -10829.7003 1470.6215 0.0000 0.0000 1811.1739 -7539.2730 304.7732 -9350.4469 -7580.5701 300.5738 230.8331 265.0115 30460.2654 -32.6041 33.8346
ENERGY: 900000 1.0158 4.1581 4.5036 0.0000 -10870.5259 1517.5444 0.0000 0.0000 1716.6020 -7626.7021 288.8592 -9343.3040 -7587.6927 299.0364 463.6466 501.9276 30419.7733 -65.4497 -6.9167
ENERGY: 1200000 3.1455 5.4237 2.7911 0.0000 -10945.2845 1514.3622 0.0000 0.0000 1780.8103 -7638.7515 299.6638 -9419.5619 -7586.1648 299.3457 70.0796 178.6168 30513.8252 -13.2824 47.4196
ENERGY: 1500000 4.9038 6.3457 2.5288 0.0000 -10845.5666 1453.6749 0.0000 0.0000 1836.1540 -7541.9593 308.9767 -9378.1133 -7578.7990 299.6377 -197.5323 -218.6918 30726.0677 -63.8473 -7.7417
TCL: Running FEP window  20: Lambda1 0.049999999999999684 Lambda2 0.0    [dLambda -0.049999999999999684]
TCL: Setting parameter firsttimestep to 0
TCL: Setting parameter alchLambda to 0.049999999999999684
Info: NONBONDED TABLE R-SQUARED SPACING: 0.0625
Info: NONBONDED TABLE SIZE: 705 POINTS
TCL: Setting parameter alchLambda2 to 0.0
Info: NONBONDED TABLE R-SQUARED SPACING: 0.0625
Info: NONBONDED TABLE SIZE: 705 POINTS
TCL: Running for 1500000 steps
ETITLE: TS BOND ANGLE DIHED IMPRP ELECT VDW BOUNDARY MISC KINETIC TOTAL TEMP POTENTIAL TOTALAVG TEMPAVG PRESSURE GPRESSURE VOLUME PRESSAVG GPRESSAVG
ENERGY: 0 4.9038 6.3457 2.5288 0.0000 -10845.5666 1453.3005 0.0000 0.0000 1835.2907 -7543.1971 308.8314 -9378.4877 -7543.1971 308.8314 -304.2026 -225.2933 30726.0677 -304.2026 -225.2933
ENERGY: 300000 2.7924 5.7599 4.2051 0.0000 -10879.0819 1439.6514 0.0000 0.0000 1785.2559 -7641.4172 300.4118 -9426.6731 -7555.2591 303.5529 -451.9298 -351.9999 30397.2749 -260.9634 -168.5268
ENERGY: 600000 1.8285 3.4095 2.7657 0.0000 -10900.0994 1574.1554 0.0000 0.0000 1822.6561 -7495.2842 306.7053 -9317.9403 -7545.9865 301.2060 1024.8754 1111.4768 30432.3159 132.3810 218.1171
ENERGY: 900000 4.5231 6.8555 2.4879 0.0000 -10786.5582 1413.8925 0.0000 0.0000 1851.9979 -7506.8012 311.6428 -9358.7991 -7547.0970 302.4065 -318.3198 -245.7498 30565.3021 84.7728 163.5996
ENERGY: 1200000 3.8232 7.8638 4.2185 0.0000 -10716.3916 1388.9429 0.0000 0.0000 1813.8795 -7497.6637 305.2285 -9311.5432 -7543.7547 302.4422 -785.2659 -653.8357 31040.8395 -30.1722 49.4213
ENERGY: 1500000 4.7513 5.5155 3.6559 0.0000 -10736.1028 1362.1128 0.0000 0.0000 1803.5487 -7556.5186 303.4900 -9360.0673 -7546.0500 302.3589 -1001.4769 -934.2767 30562.4959 -74.7051 -0.0964
TCL: Exiting due to exit command.
