Info: SIMULATION PARAMETERS:
Info: TIMESTEP               2
Info: NUMBER OF STEPS        0
Info: STEPS PER CYCLE        10
Info: PERIODIC CELL BASIS 1  31.1085 0 0
Info: PERIODIC CELL BASIS 2  0 30.4421 0
Info: PERIODIC CELL BASIS 3  0 0 31.742
Info: PERIODIC CELL CENTER   0 0 0
Info: WRAPPING WATERS AROUND PERIODIC BOUNDARIES ON OUTPUT.
Info: WRAPPING ALL CLUSTERS AROUND PERIODIC BOUNDARIES ON OUTPUT.
Info: FIRST LDB TIMESTEP     50
Info: LAST LDB TIMESTEP     -1
Info: HOM BACKGROUND SCALING 1
Info: PME BACKGROUND SCALING 1
Info: MIN ATOMS PER PATCH    40
Info: EMPTY PATCH LOAD       40 ATOMS
Info: VELOCITY FILE          mobley_5346580_equil.vel
Info: CENTER OF MASS MOVING INITIALLY? NO
Info: DIELECTRIC             1
Info: EXCLUDE                SCALED ONE-FOUR
Info: 1-4 ELECTROSTATICS SCALED BY 0.833333
Info: MODIFIED 1-4 VDW PARAMETERS WILL BE USED
Info: DCD FILENAME           mobley_5346580_prod.dcd
Info: DCD FREQUENCY          100000
Info: DCD FIRST STEP         100000
Info: DCD FILE WILL CONTAIN UNIT CELL DATA
Info: XST FILENAME           mobley_5346580_prod.xst
Info: XST FREQUENCY          100000
Info: NO VELOCITY DCD OUTPUT
Info: NO FORCE DCD OUTPUT
Info: OUTPUT FILENAME        mobley_5346580_prod
Info: BINARY OUTPUT FILES WILL BE USED
Info: RESTART FILENAME       mobley_5346580_prod.restart
Info: RESTART FREQUENCY      100000
Info: BINARY RESTART FILES WILL BE USED
Info: CUTOFF                 9
Info: PAIRLIST DISTANCE      11
Info: PAIRLIST SHRINK RATE   0.01
Info: PAIRLIST GROW RATE     0.01
Info: PAIRLIST TRIGGER       0.3
Info: PAIRLISTS PER CYCLE    2
Info: PAIRLISTS ENABLED
Info: MARGIN                 2
Info: HYDROGEN GROUP CUTOFF  2.5
Info: PATCH DIMENSION        15.5
Info: ENERGY OUTPUT STEPS    100000
Info: ENERGY EVALUATION STEPS    100000
Info: OUTPUT ENERGY PRECISION 4
Info: CROSSTERM ENERGY INCLUDED IN DIHEDRAL
Info: TIMING OUTPUT STEPS    1000000
Info: PRESSURE OUTPUT STEPS  100000
Info: ALCHEMICAL FEP ON
Info: FEP CURRENT LAMBDA VALUE     1
Info: FEP COMPARISON LAMBDA VALUE  0.95
Info: FEP INTRA-ALCHEMICAL NON-BONDED INTERACTIONS WILL BE RETAINED
Info: FEP INTRA-ALCHEMICAL BONDED INTERACTIONS WILL BE RETAINED
Info: FEP VDW SHIFTING COEFFICIENT 5
Info: FEP ELEC. ACTIVE FOR ANNIHILATED PARTICLES BETWEEN LAMBDA = 0 AND LAMBDA = 0.5
Info: FEP ELEC. ACTIVE FOR EXNIHILATED PARTICLES BETWEEN LAMBDA = 0.5 AND LAMBDA = 1
Info: FEP VDW ACTIVE FOR ANNIHILATED PARTICLES BETWEEN LAMBDA = 0 AND LAMBDA = 1
Info: FEP VDW ACTIVE FOR EXNIHILATED PARTICLES BETWEEN LAMBDA = 0 AND LAMBDA = 1
Info: FEP BOND ACTIVE FOR ANNIHILATED PARTICLES BETWEEN LAMBDA = 1 AND LAMBDA = 1
Info: FEP BOND ACTIVE FOR EXNIHILATED PARTICLES BETWEEN LAMBDA = 0 AND LAMBDA = 0
Info: LANGEVIN DYNAMICS ACTIVE
Info: LANGEVIN TEMPERATURE   300
Info: LANGEVIN USING BBK INTEGRATOR
Info: LANGEVIN DAMPING COEFFICIENT IS 1 INVERSE PS
Info: LANGEVIN DYNAMICS APPLIED TO HYDROGENS
Info: LANGEVIN PISTON PRESSURE CONTROL ACTIVE
Info:        TARGET PRESSURE IS 1.01325 BAR
Info:     OSCILLATION PERIOD IS 50 FS
Info:             DECAY TIME IS 25 FS
Info:     PISTON TEMPERATURE IS 300 K
Info:       PRESSURE CONTROL IS GROUP-BASED
Info:    INITIAL STRAIN RATE IS 0.000598474 0.000598474 0.000598474
Info:       CELL FLUCTUATION IS ISOTROPIC
Info: PARTICLE MESH EWALD (PME) ACTIVE
Info: PME TOLERANCE               1e-06
Info: PME EWALD COEFFICIENT       0.348832
Info: PME INTERPOLATION ORDER     4
Info: PME GRID DIMENSIONS         32 32 32
Info: PME MAXIMUM GRID SPACING    1
Info: PME CALCULATION WILL BE PERFORMED ON GPU
Info: FULL ELECTROSTATIC EVALUATION FREQUENCY      2
Info: USING VERLET I (r-RESPA) MTS SCHEME.
Info: C1 SPLITTING OF LONG RANGE ELECTROSTATICS
Info: PLACING ATOMS IN PATCHES BY HYDROGEN GROUPS
Info: RIGID BONDS TO HYDROGEN : ALL
Info:         ERROR TOLERANCE : 1e-08
Info:          MAX ITERATIONS : 100
Info: RIGID WATER USING SETTLE ALGORITHM
Info: RANDOM NUMBER SEED     1743624276
Info: USE HYDROGEN BONDS?    NO
Info: Using AMBER format force field!
Info: AMBER PARM FILE        mobley_5346580.prmtop
Info: COORDINATE PDB         mobley_5346580.pdb
Info: Exclusions will be read from PARM file!
Info: SCNB (VDW SCALING)     2
Info: USING ARITHMETIC MEAN TO COMBINE L-J SIGMA PARAMETERS
Info: BINARY COORDINATES     mobley_5346580_equil.coor
Info: SUMMARY OF PARAMETERS:
Info: 6 BONDS
Info: 7 ANGLES
Info:   7 HARMONIC
Info:   0 COSINE-BASED
Info: 7 DIHEDRAL
Info: 0 IMPROPER
Info: 0 CROSSTERM
Info: 0 VDW
Info: 21 VDW_PAIRS
Info: 0 NBTHOLE_PAIRS
Info: To read alchdata from file: mobley_5346580.pdb
Info: To read alchflag data from column: 5
Info: STRUCTURE SUMMARY:
Info: 2923 ATOMS
Info: 2922 BONDS
Info: 33 ANGLES
Info: 46 DIHEDRALS
Info: 0 IMPROPERS
Info: 0 CROSSTERMS
Info: 2994 EXCLUSIONS
Info: 2916 RIGID BONDS
Info: ALCH: 0 ATOMS TO DISAPPEAR IN FINAL STATE
Info: ALCH: 19 ATOMS TO APPEAR IN FINAL STATE
Info: 5853 DEGREES OF FREEDOM
Info: 975 HYDROGEN GROUPS
Info: 4 ATOMS IN LARGEST HYDROGEN GROUP
Info: 975 MIGRATION GROUPS
Info: 4 ATOMS IN LARGEST MIGRATION GROUP
Info: TOTAL MASS = 17539.6 amu
Info: TOTAL CHARGE = -9.99793e-05 e
Info: MASS DENSITY = 0.968931 g/cm^3
Info: ATOM DENSITY = 0.0972392 atoms/A^3
Info: ADDED 0 IMPLICIT EXCLUSIONS
Info: NONBONDED TABLE R-SQUARED SPACING: 0.0625
Info: NONBONDED TABLE SIZE: 705 POINTS
Info: REMOVING COM VELOCITY 0.176082 -0.129184 0.0977595
Info: Use 3D box decompostion in PME FFT.
Info: Updated CUDA force table with 4096 elements.
Info: Updated CUDA LJ table with 6 x 6 elements.
Info: Found 19 unique exclusion lists needing 48 bytes
TCL: Running for 1500000 steps
ETITLE: TS BOND ANGLE DIHED IMPRP ELECT VDW BOUNDARY MISC KINETIC TOTAL TEMP POTENTIAL TOTALAVG TEMPAVG PRESSURE GPRESSURE VOLUME PRESSAVG GPRESSAVG
ENERGY: 0 0.5553 6.2617 3.3391 0.0000 -10546.5308 1409.6403 0.0000 0.0000 1749.2102 -7377.5241 300.7834 -9126.7343 -7377.5241 300.7834 51.0748 133.9075 30059.8860 51.0748 133.9075
ENERGY: 300000 0.6935 7.2403 3.6737 0.0000 -10433.1705 1368.8856 0.0000 0.0000 1710.1511 -7342.5262 294.0670 -9052.6773 -7384.5658 298.9162 -571.3485 -520.7233 30987.3540 -251.8671 -209.9608
ENERGY: 600000 2.4256 8.7245 4.9182 0.0000 -10599.3113 1432.7107 0.0000 0.0000 1720.3301 -7430.2022 295.8173 -9150.5323 -7374.8470 301.9149 138.3751 220.4261 29828.8144 -237.3904 -187.2476
ENERGY: 900000 3.5424 7.9416 2.7364 0.0000 -10522.6822 1396.5620 0.0000 0.0000 1750.0439 -7361.8559 300.9268 -9111.8998 -7372.8134 301.7007 -32.8094 28.7263 29872.2177 -91.0003 -45.2137
ENERGY: 1200000 3.3897 12.6831 4.7860 0.0000 -10602.8677 1438.5506 0.0000 0.0000 1783.6679 -7359.7903 306.7085 -9143.4582 -7375.7780 301.9475 131.0156 204.8990 30024.0316 -163.1784 -115.6162
ENERGY: 1500000 1.6508 8.0612 3.3373 0.0000 -10503.0212 1392.5918 0.0000 0.0000 1737.9412 -7359.4388 298.8456 -9097.3800 -7382.6778 301.7655 -278.4091 -211.5817 30444.0444 -147.0330 -94.9696
TCL: Running FEP window   2: Lambda1 0.95   Lambda2 0.8999999999999999 [dLambda -0.050000000000000044]
TCL: Setting parameter firsttimestep to 0
TCL: Setting parameter alchLambda to 0.95
Info: NONBONDED TABLE R-SQUARED SPACING: 0.0625
Info: NONBONDED TABLE SIZE: 705 POINTS
TCL: Setting parameter alchLambda2 to 0.8999999999999999
Info: NONBONDED TABLE R-SQUARED SPACING: 0.0625
Info: NONBONDED TABLE SIZE: 705 POINTS
TCL: Running for 1500000 steps
ETITLE: TS BOND ANGLE DIHED IMPRP ELECT VDW BOUNDARY MISC KINETIC TOTAL TEMP POTENTIAL TOTALAVG TEMPAVG PRESSURE GPRESSURE VOLUME PRESSAVG GPRESSAVG
ENERGY: 0 1.6508 8.0612 3.3373 0.0000 -10501.6895 1391.7616 0.0000 0.0000 1737.0844 -7359.7942 298.6983 -9096.8785 -7359.7942 298.6983 -312.7885 -231.1277 30444.0444 -312.7885 -231.1277
ENERGY: 300000 3.4190 8.8770 2.6586 0.0000 -10566.1601 1425.1681 0.0000 0.0000 1722.5930 -7403.4444 296.2065 -9126.0374 -7386.2458 301.8500 6.4878 87.0025 30064.9285 -13.5056 64.8711
ENERGY: 600000 2.2912 9.5867 3.4459 0.0000 -10531.2311 1365.4919 0.0000 0.0000 1737.7885 -7412.6268 298.8194 -9150.4153 -7396.7713 299.8277 -337.7516 -255.4003 29734.8449 156.6130 227.2767
ENERGY: 900000 3.1866 8.5369 3.2030 0.0000 -10544.5917 1396.7442 0.0000 0.0000 1767.6278 -7365.2932 303.9504 -9132.9210 -7385.7886 300.0900 -236.1253 -194.1723 30256.9933 145.8240 220.6647
ENERGY: 1200000 1.4735 8.1294 3.0092 0.0000 -10602.6100 1424.8434 0.0000 0.0000 1730.4800 -7434.6745 297.5627 -9165.1544 -7386.0770 300.0340 -49.8115 -10.7212 30113.6317 89.7157 151.4575
ENERGY: 1500000 3.0441 6.9394 2.8751 0.0000 -10575.1482 1439.8860 0.0000 0.0000 1770.6306 -7351.7731 304.4667 -9122.4037 -7377.8625 300.2041 149.9954 174.7205 30096.8086 60.4991 117.4474
TCL: Running FEP window   3: Lambda1 0.8999999999999999 Lambda2 0.8499999999999999 [dLambda -0.050000000000000044]
TCL: Setting parameter firsttimestep to 0
TCL: Setting parameter alchLambda to 0.8999999999999999
Info: NONBONDED TABLE R-SQUARED SPACING: 0.0625
Info: NONBONDED TABLE SIZE: 705 POINTS
TCL: Setting parameter alchLambda2 to 0.8499999999999999
Info: NONBONDED TABLE R-SQUARED SPACING: 0.0625
Info: NONBONDED TABLE SIZE: 705 POINTS
TCL: Running for 1500000 steps
ETITLE: TS BOND ANGLE DIHED IMPRP ELECT VDW BOUNDARY MISC KINETIC TOTAL TEMP POTENTIAL TOTALAVG TEMPAVG PRESSURE GPRESSURE VOLUME PRESSAVG GPRESSAVG
ENERGY: 0 3.0441 6.9394 2.8751 0.0000 -10573.3275 1438.6701 0.0000 0.0000 1769.7749 -7352.0240 304.3196 -9121.7988 -7352.0240 304.3196 65.6232 152.6194 30096.8086 65.6232 152.6194
ENERGY: 300000 2.2153 10.9797 2.8072 0.0000 -10620.4245 1425.5489 0.0000 0.0000 1688.4796 -7490.3938 290.3405 -9178.8734 -7433.8546 295.5595 162.3054 255.0549 29663.9118 291.8880 355.9050
ENERGY: 600000 0.8602 7.5083 3.2450 0.0000 -10456.2548 1353.6366 0.0000 0.0000 1736.1116 -7354.8932 298.5310 -9091.0047 -7409.5673 297.6555 -598.3029 -573.8245 30786.4556 -6.2487 49.9531
ENERGY: 900000 1.6232 9.5178 3.3313 0.0000 -10672.5892 1471.3722 0.0000 0.0000 1704.9668 -7481.7779 293.1756 -9186.7447 -7398.2697 297.9667 296.0649 362.9742 29987.5913 -63.4805 -5.0719
ENERGY: 1200000 1.4954 6.7972 3.7417 0.0000 -10664.9360 1491.5017 0.0000 0.0000 1837.4383 -7323.9619 315.9546 -9161.4001 -7393.8890 299.4162 632.1294 677.4724 29908.7657 -29.0915 28.4807
ENERGY: 1500000 2.0718 8.1604 3.0792 0.0000 -10568.5355 1440.1232 0.0000 0.0000 1726.5281 -7388.5728 296.8831 -9115.1009 -7396.0303 299.6045 -24.5423 21.5568 30367.1469 -51.5975 6.6893
TCL: Running FEP window   4: Lambda1 0.8499999999999999 Lambda2 0.7999999999999998 [dLambda -0.050000000000000044]
TCL: Setting parameter firsttimestep to 0
TCL: Setting parameter alchLambda to 0.8499999999999999
Info: NONBONDED TABLE R-SQUARED SPACING: 0.0625
Info: NONBONDED TABLE SIZE: 705 POINTS
TCL: Setting parameter alchLambda2 to 0.7999999999999998
Info: NONBONDED TABLE R-SQUARED SPACING: 0.0625
Info: NONBONDED TABLE SIZE: 705 POINTS
TCL: Running for 1500000 steps
ETITLE: TS BOND ANGLE DIHED IMPRP ELECT VDW BOUNDARY MISC KINETIC TOTAL TEMP POTENTIAL TOTALAVG TEMPAVG PRESSURE GPRESSURE VOLUME PRESSAVG GPRESSAVG
ENERGY: 0 2.0718 8.1604 3.0792 0.0000 -10567.4086 1440.0654 0.0000 0.0000 1725.6475 -7388.3842 296.7317 -9114.0317 -7388.3842 296.7317 -66.2432 11.9017 30367.1469 -66.2432 11.9017
ENERGY: 300000 2.3629 7.1524 2.7468 0.0000 -10495.9056 1374.8085 0.0000 0.0000 1767.2926 -7341.5424 303.8927 -9108.8350 -7358.0583 298.9325 -384.0791 -352.4420 30434.8407 -316.5912 -265.2993
ENERGY: 600000 4.0411 6.1087 5.5269 0.0000 -10662.6483 1493.5063 0.0000 0.0000 1718.8470 -7434.6182 295.5623 -9153.4652 -7396.0273 296.2305 276.2372 262.4667 30281.0312 82.3502 117.7098
ENERGY: 900000 4.5859 7.3214 3.5357 0.0000 -10655.6929 1474.5902 0.0000 0.0000 1667.4647 -7498.1950 286.7270 -9165.6597 -7406.3689 297.4613 -57.6103 31.8562 30377.7046 24.9691 62.6573
ENERGY: 1200000 0.8503 4.7400 3.1946 0.0000 -10567.5532 1406.0412 0.0000 0.0000 1710.9804 -7441.7467 294.2096 -9152.7271 -7407.7958 296.6886 -78.4811 -13.5921 29949.0342 14.2152 66.5537
ENERGY: 1500000 3.2053 7.6093 3.3660 0.0000 -10583.2677 1337.1658 0.0000 0.0000 1737.5160 -7494.4052 298.7725 -9231.9212 -7419.7005 297.1194 -903.0121 -841.5651 29969.6027 -31.4477 19.3430
TCL: Running FEP window   5: Lambda1 0.7999999999999998 Lambda2 0.7499999999999998 [dLambda -0.050000000000000044]
TCL: Setting parameter firsttimestep to 0
TCL: Setting parameter alchLambda to 0.7999999999999998
Info: NONBONDED TABLE R-SQUARED SPACING: 0.0625
Info: NONBONDED TABLE SIZE: 705 POINTS
TCL: Setting parameter alchLambda2 to 0.7499999999999998
Info: NONBONDED TABLE R-SQUARED SPACING: 0.0625
Info: NONBONDED TABLE SIZE: 705 POINTS
TCL: Running for 1500000 steps
ETITLE: TS BOND ANGLE DIHED IMPRP ELECT VDW BOUNDARY MISC KINETIC TOTAL TEMP POTENTIAL TOTALAVG TEMPAVG PRESSURE GPRESSURE VOLUME PRESSAVG GPRESSAVG
ENERGY: 0 3.2053 7.6093 3.3660 0.0000 -10582.2914 1337.2107 0.0000 0.0000 1736.6629 -7494.2370 298.6258 -9230.9000 -7494.2370 298.6258 -919.4438 -850.0723 29969.6027 -919.4438 -850.0723
ENERGY: 300000 1.4940 6.3919 3.0757 0.0000 -10477.4695 1325.0879 0.0000 0.0000 1715.1742 -7426.2459 294.9308 -9141.4200 -7439.4969 296.9458 -887.8611 -783.2936 30177.6359 -464.7186 -369.1411
ENERGY: 600000 3.6683 10.0559 3.5104 0.0000 -10519.3789 1419.0241 0.0000 0.0000 1807.3944 -7275.7257 310.7884 -9083.1201 -7419.7623 299.8324 162.6317 225.4837 29967.2023 -201.4610 -127.3459
ENERGY: 900000 1.4950 9.1780 2.8805 0.0000 -10505.3750 1388.1462 0.0000 0.0000 1691.8124 -7411.8630 290.9136 -9103.6753 -7421.8541 298.5884 -218.7263 -204.4367 30393.1739 -91.2280 -35.6059
ENERGY: 1200000 1.4343 7.8146 3.0492 0.0000 -10683.5341 1473.1932 0.0000 0.0000 1776.2387 -7421.8042 305.4311 -9198.0429 -7422.3061 298.7389 352.8951 404.2262 29687.9273 31.1043 86.9360
ENERGY: 1500000 1.1080 7.2902 3.2584 0.0000 -10586.3904 1428.8622 0.0000 0.0000 1731.0358 -7414.8357 297.6582 -9145.8715 -7423.6102 298.6536 35.5751 96.4865 30109.8509 -19.3183 40.6411
TCL: Running FEP window   6: Lambda1 0.7499999999999998 Lambda2 0.6999999999999997 [dLambda -0.050000000000000044]
TCL: Setting parameter firsttimestep to 0
TCL: Setting parameter alchLambda to 0.7499999999999998
Info: NONBONDED TABLE R-SQUARED SPACING: 0.0625
Info: NONBONDED TABLE SIZE: 705 POINTS
TCL: Setting parameter alchLambda2 to 0.6999999999999997
Info: NONBONDED TABLE R-SQUARED SPACING: 0.0625
Info: NONBONDED TABLE SIZE: 705 POINTS
TCL: Running for 1500000 steps
ETITLE: TS BOND ANGLE DIHED IMPRP ELECT VDW BOUNDARY MISC KINETIC TOTAL TEMP POTENTIAL TOTALAVG TEMPAVG PRESSURE GPRESSURE VOLUME PRESSAVG GPRESSAVG
ENERGY: 0 1.1080 7.2902 3.2584 0.0000 -10585.1091 1427.8739 0.0000 0.0000 1730.1975 -7415.3811 297.5141 -9145.5786 -7415.3811 297.5141 1.1524 80.8226 30109.8509 1.1524 80.8226
ENERGY: 300000 1.9060 8.6308 3.1055 0.0000 -10588.1531 1466.3936 0.0000 0.0000 1791.6927 -7316.4245 308.0884 -9108.1172 -7363.3873 302.8916 493.8618 550.8363 30085.2223 220.7940 270.3264
ENERGY: 600000 1.7577 12.5720 3.0998 0.0000 -10546.6208 1354.0967 0.0000 0.0000 1788.9005 -7386.1941 307.6083 -9175.0945 -7392.7196 301.6649 -613.7500 -609.9865 30126.9244 -5.7998 45.5897
ENERGY: 900000 1.6812 10.5024 2.5001 0.0000 -10567.9805 1417.9016 0.0000 0.0000 1671.2943 -7464.1008 287.3855 -9135.3951 -7396.0300 300.6661 39.0476 29.6178 30198.0321 -64.6090 -17.3836
ENERGY: 1200000 3.1698 7.6373 2.6849 0.0000 -10650.5679 1437.8878 0.0000 0.0000 1754.9529 -7444.2352 301.7709 -9199.1881 -7401.0079 300.4978 90.5750 113.1374 29620.7195 -58.9587 -11.9457
ENERGY: 1500000 4.1533 11.5535 5.6859 0.0000 -10492.8030 1403.0987 0.0000 0.0000 1715.5625 -7352.7491 294.9976 -9068.3116 -7389.4462 300.5649 -303.9992 -156.8451 30692.4485 -86.8096 -24.9317
TCL: Running FEP window   7: Lambda1 0.6999999999999997 Lambda2 0.6499999999999997 [dLambda -0.050000000000000044]
TCL: Setting parameter firsttimestep to 0
TCL: Setting parameter alchLambda to 0.6999999999999997
Info: NONBONDED TABLE R-SQUARED SPACING: 0.0625
Info: NONBONDED TABLE SIZE: 705 POINTS
TCL: Setting parameter alchLambda2 to 0.6499999999999997
Info: NONBONDED TABLE R-SQUARED SPACING: 0.0625
Info: NONBONDED TABLE SIZE: 705 POINTS
TCL: Running for 1500000 steps
ETITLE: TS BOND ANGLE DIHED IMPRP ELECT VDW BOUNDARY MISC KINETIC TOTAL TEMP POTENTIAL TOTALAVG TEMPAVG PRESSURE GPRESSURE VOLUME PRESSAVG GPRESSAVG
ENERGY: 0 4.1533 11.5535 5.6859 0.0000 -10491.7160 1403.1579 0.0000 0.0000 1714.7009 -7352.4644 294.8494 -9067.1653 -7352.4644 294.8494 -253.0541 -159.7127 30692.4485 -253.0541 -159.7127
ENERGY: 300000 3.3096 8.1616 3.1129 0.0000 -10613.7696 1469.6245 0.0000 0.0000 1715.4512 -7414.1096 294.9784 -9129.5608 -7377.1009 298.4946 484.6680 556.4827 30114.1979 234.8738 271.8878
ENERGY: 600000 2.0311 8.2630 2.8024 0.0000 -10393.2764 1343.1886 0.0000 0.0000 1749.0340 -7287.9573 300.7531 -9036.9912 -7370.9812 300.4589 -321.7897 -269.1033 30121.5489 78.7410 125.1811
ENERGY: 900000 1.5522 7.4806 3.2505 0.0000 -10623.7299 1390.0170 0.0000 0.0000 1782.3865 -7439.0430 306.4882 -9221.4295 -7395.1293 299.7866 -572.4275 -457.3735 30103.2437 -119.8106 -68.1321
ENERGY: 1200000 1.3749 9.0667 2.5370 0.0000 -10606.2151 1450.3400 0.0000 0.0000 1726.7733 -7416.1231 296.9253 -9142.8964 -7396.1296 299.5611 326.0923 401.5279 29962.3375 -89.2717 -28.3853
ENERGY: 1500000 1.3109 6.7752 3.2434 0.0000 -10404.4593 1287.4089 0.0000 0.0000 1760.0758 -7345.6450 302.6518 -9105.7209 -7386.5827 300.9844 -924.7466 -875.2615 30145.8114 -82.6582 -27.1699
TCL: Running FEP window   8: Lambda1 0.6499999999999997 Lambda2 0.5999999999999996 [dLambda -0.050000000000000044]
TCL: Setting parameter firsttimestep to 0
TCL: Setting parameter alchLambda to 0.6499999999999997
Info: NONBONDED TABLE R-SQUARED SPACING: 0.0625
Info: NONBONDED TABLE SIZE: 705 POINTS
TCL: Setting parameter alchLambda2 to 0.5999999999999996
Info: NONBONDED TABLE R-SQUARED SPACING: 0.0625
Info: NONBONDED TABLE SIZE: 705 POINTS
TCL: Running for 1500000 steps
ETITLE: TS BOND ANGLE DIHED IMPRP ELECT VDW BOUNDARY MISC KINETIC TOTAL TEMP POTENTIAL TOTALAVG TEMPAVG PRESSURE GPRESSURE VOLUME PRESSAVG GPRESSAVG
ENERGY: 0 1.3109 6.7752 3.2434 0.0000 -10403.2014 1287.3397 0.0000 0.0000 1759.1975 -7345.3346 302.5008 -9104.5322 -7345.3346 302.5008 -972.4185 -880.2264 30145.8114 -972.4185 -880.2264
ENERGY: 300000 1.8138 9.6330 4.0115 0.0000 -10500.4478 1360.6019 0.0000 0.0000 1787.7101 -7336.6775 307.4036 -9124.3876 -7389.7362 301.7280 -492.5020 -401.1281 30055.6294 -546.9359 -469.6854
ENERGY: 600000 1.5474 10.4938 3.2710 0.0000 -10538.5248 1405.1716 0.0000 0.0000 1737.7960 -7380.2451 298.8207 -9118.0411 -7394.1293 300.4291 -112.3085 21.3560 30054.7015 -400.7838 -318.3494
ENERGY: 900000 2.0028 8.2673 3.3658 0.0000 -10671.7287 1460.1850 0.0000 0.0000 1792.4983 -7405.4094 308.2270 -9197.9077 -7384.8378 301.3023 228.5246 317.6403 29800.4672 -309.3339 -231.3316
ENERGY: 1200000 1.6848 12.0778 4.3244 0.0000 -10553.2965 1428.8686 0.0000 0.0000 1718.1433 -7388.1977 295.4413 -9106.3410 -7383.6144 299.7624 205.1460 209.0544 30228.8674 -293.2032 -225.8867
ENERGY: 1500000 1.8901 12.2042 3.1414 0.0000 -10565.9370 1444.2237 0.0000 0.0000 1707.6362 -7396.8414 293.6346 -9104.4777 -7386.4847 298.7860 44.2277 75.2487 30123.7699 -285.5692 -221.8638
TCL: Running FEP window   9: Lambda1 0.5999999999999996 Lambda2 0.5499999999999996 [dLambda -0.050000000000000044]
TCL: Setting parameter firsttimestep to 0
TCL: Setting parameter alchLambda to 0.5999999999999996
Info: NONBONDED TABLE R-SQUARED SPACING: 0.0625
Info: NONBONDED TABLE SIZE: 705 POINTS
TCL: Setting parameter alchLambda2 to 0.5499999999999996
Info: NONBONDED TABLE R-SQUARED SPACING: 0.0625
Info: NONBONDED TABLE SIZE: 705 POINTS
TCL: Running for 1500000 steps
ETITLE: TS BOND ANGLE DIHED IMPRP ELECT VDW BOUNDARY MISC KINETIC TOTAL TEMP POTENTIAL TOTALAVG TEMPAVG PRESSURE GPRESSURE VOLUME PRESSAVG GPRESSAVG
ENERGY: 0 1.8901 12.2042 3.1414 0.0000 -10566.0874 1444.6598 0.0000 0.0000 1706.7748 -7397.4171 293.4865 -9104.1919 -7397.4171 293.4865 6.5887 72.8833 30123.7699 6.5887 72.8833
ENERGY: 300000 1.0099 6.2851 3.0980 0.0000 -10614.4436 1488.3497 0.0000 0.0000 1809.2917 -7306.4093 311.1146 -9115.7010 -7388.7514 298.8108 447.0049 536.6142 30345.9177 368.4101 437.5391
ENERGY: 600000 2.5754 7.0442 2.6711 0.0000 -10472.0512 1320.4407 0.0000 0.0000 1718.3039 -7421.0158 295.4689 -9139.3197 -7407.1054 297.2302 -888.6170 -846.0435 30208.6334 -111.5771 -29.9924
ENERGY: 900000 2.6621 8.9069 2.9642 0.0000 -10626.4144 1365.5539 0.0000 0.0000 1784.0699 -7462.2574 306.7777 -9246.3274 -7413.7891 298.0099 -672.4977 -571.7105 29736.5173 -151.6402 -70.2432
ENERGY: 1200000 1.5492 11.2677 3.7414 0.0000 -10530.1046 1324.7828 0.0000 0.0000 1711.2415 -7477.5220 294.2545 -9188.7635 -7412.9235 297.3379 -943.3369 -865.2208 29887.9066 -157.8472 -76.9629
ENERGY: 1500000 1.1834 9.9822 3.7546 0.0000 -10544.1854 1399.0738 0.0000 0.0000 1751.3291 -7378.8623 301.1478 -9130.1914 -7404.8441 298.3921 -163.0708 -87.0406 29962.0082 -69.7206 8.5763
TCL: Running FEP window  10: Lambda1 0.5499999999999996 Lambda2 0.4999999999999996 [dLambda -0.04999999999999999]
TCL: Setting parameter firsttimestep to 0
TCL: Setting parameter alchLambda to 0.5499999999999996
Info: NONBONDED TABLE R-SQUARED SPACING: 0.0625
Info: NONBONDED TABLE SIZE: 705 POINTS
TCL: Setting parameter alchLambda2 to 0.4999999999999996
Info: NONBONDED TABLE R-SQUARED SPACING: 0.0625
Info: NONBONDED TABLE SIZE: 705 POINTS
TCL: Running for 1500000 steps
ETITLE: TS BOND ANGLE DIHED IMPRP ELECT VDW BOUNDARY MISC KINETIC TOTAL TEMP POTENTIAL TOTALAVG TEMPAVG PRESSURE GPRESSURE VOLUME PRESSAVG GPRESSAVG
ENERGY: 0 1.1834 9.9822 3.7546 0.0000 -10543.7486 1399.4389 0.0000 0.0000 1750.4492 -7378.9402 300.9964 -9129.3894 -7378.9402 300.9964 -172.6246 -89.2476 29962.0082 -172.6246 -89.2476
ENERGY: 300000 1.1652 9.1889 3.1124 0.0000 -10657.2202 1558.5759 0.0000 0.0000 1738.7213 -7346.4565 298.9798 -9085.1778 -7372.0788 301.7159 963.4499 1015.9459 30359.6684 88.5345 177.8661
ENERGY: 600000 3.5867 12.2958 2.9922 0.0000 -10444.1854 1373.6993 0.0000 0.0000 1775.7370 -7275.8744 305.3448 -9051.6114 -7370.0518 300.5410 -184.0288 -143.8097 29985.3752 95.6048 165.4675
ENERGY: 900000 2.3240 12.3595 3.5262 0.0000 -10599.4519 1434.2959 0.0000 0.0000 1711.0554 -7435.8907 294.2225 -9146.9462 -7380.5179 300.4831 -253.7220 -200.2893 30786.1365 115.5135 182.5580
ENERGY: 1200000 1.6468 8.7538 2.9874 0.0000 -10668.5059 1474.6151 0.0000 0.0000 1746.6708 -7433.8321 300.3467 -9180.5029 -7385.5555 300.5398 296.7760 307.5657 30001.1959 186.7737 258.1686
ENERGY: 1500000 3.4100 9.0330 3.3819 0.0000 -10525.1928 1425.8670 0.0000 0.0000 1759.2928 -7324.2080 302.5171 -9083.5008 -7379.1359 301.0484 89.7484 156.3178 29940.4613 104.4747 175.7304
TCL: Running FEP window  11: Lambda1 0.4999999999999996 Lambda2 0.4499999999999996 [dLambda -0.04999999999999999]
TCL: Setting parameter firsttimestep to 0
TCL: Setting parameter alchLambda to 0.4999999999999996
Info: NONBONDED TABLE R-SQUARED SPACING: 0.0625
Info: NONBONDED TABLE SIZE: 705 POINTS
TCL: Setting parameter alchLambda2 to 0.4499999999999996
Info: NONBONDED TABLE R-SQUARED SPACING: 0.0625
Info: NONBONDED TABLE SIZE: 705 POINTS
TCL: Running for 1500000 steps
ETITLE: TS BOND ANGLE DIHED IMPRP ELECT VDW BOUNDARY MISC KINETIC TOTAL TEMP POTENTIAL TOTALAVG TEMPAVG PRESSURE GPRESSURE VOLUME PRESSAVG GPRESSAVG
ENERGY: 0 3.4100 9.0330 3.3819 0.0000 -10524.7502 1425.9551 0.0000 0.0000 1758.4122 -7324.5579 302.3657 -9082.9701 -7324.5579 302.3657 82.6567 148.4923 29940.4613 82.6567 148.4923
ENERGY: 300000 2.1702 6.9057 4.3651 0.0000 -10434.9042 1345.0258 0.0000 0.0000 1745.2736 -7331.1638 300.1065 -9076.4375 -7369.8873 299.4716 -447.8244 -367.0738 30262.2901 -549.8196 -480.6061
ENERGY: 600000 3.2099 6.2507 3.8535 0.0000 -10596.4831 1440.5530 0.0000 0.0000 1777.5366 -7365.0794 305.6542 -9142.6160 -7385.8459 298.2876 184.6204 299.3041 29644.7991 -374.7904 -303.7937
ENERGY: 900000 0.9095 5.8529 3.5008 0.0000 -10559.5492 1424.6243 0.0000 0.0000 1766.6577 -7358.0041 303.7836 -9124.6618 -7385.7532 300.0711 -53.4155 79.7943 30230.1585 -349.1327 -279.4726
ENERGY: 1200000 2.0702 6.6350 2.8592 0.0000 -10744.5802 1494.0341 0.0000 0.0000 1711.3005 -7527.6811 294.2647 -9238.9817 -7401.9182 298.5237 460.0605 583.3875 29308.8389 -372.8346 -301.1842
ENERGY: 1500000 2.6533 11.5046 4.5612 0.0000 -10490.0033 1389.6530 0.0000 0.0000 1742.2250 -7339.4062 299.5823 -9081.6312 -7394.7725 298.5093 -472.9545 -412.2868 30724.5792 -338.6459 -269.0582
TCL: Running FEP window  12: Lambda1 0.4499999999999996 Lambda2 0.39999999999999963 [dLambda -0.04999999999999999]
TCL: Setting parameter firsttimestep to 0
TCL: Setting parameter alchLambda to 0.4499999999999996
Info: NONBONDED TABLE R-SQUARED SPACING: 0.0625
Info: NONBONDED TABLE SIZE: 705 POINTS
TCL: Setting parameter alchLambda2 to 0.39999999999999963
Info: NONBONDED TABLE R-SQUARED SPACING: 0.0625
Info: NONBONDED TABLE SIZE: 705 POINTS
TCL: Running for 1500000 steps
ETITLE: TS BOND ANGLE DIHED IMPRP ELECT VDW BOUNDARY MISC KINETIC TOTAL TEMP POTENTIAL TOTALAVG TEMPAVG PRESSURE GPRESSURE VOLUME PRESSAVG GPRESSAVG
ENERGY: 0 2.6533 11.5046 4.5612 0.0000 -10490.0025 1389.5253 0.0000 0.0000 1741.3770 -7340.3811 299.4365 -9081.7581 -7340.3811 299.4365 -499.3915 -421.4126 30724.5792 -499.3915 -421.4126
ENERGY: 300000 1.7459 13.1005 2.9622 0.0000 -10709.5339 1483.8543 0.0000 0.0000 1728.1346 -7479.7363 297.1594 -9207.8709 -7407.4579 298.5099 -74.5394 7.9730 30184.1328 -97.4490 -44.9868
ENERGY: 600000 3.7893 9.3564 2.8761 0.0000 -10736.5632 1520.2970 0.0000 0.0000 1803.4764 -7396.7680 310.1147 -9200.2444 -7384.3996 301.3517 881.8170 938.5161 29413.2776 -83.2879 -21.2221
ENERGY: 900000 2.3655 9.4635 2.9456 0.0000 -10611.0821 1399.6854 0.0000 0.0000 1751.6093 -7445.0129 301.1959 -9196.6222 -7390.5938 301.1919 -481.8162 -358.5369 29755.0687 -110.5554 -47.3304
ENERGY: 1200000 2.7087 12.1399 3.0345 0.0000 -10682.8387 1488.1988 0.0000 0.0000 1771.9661 -7404.7908 304.6964 -9176.7568 -7387.4687 301.5851 459.9877 480.2901 29846.9816 -69.6191 -11.1722
ENERGY: 1500000 2.6962 11.5858 2.8670 0.0000 -10615.3762 1405.8490 0.0000 0.0000 1724.6405 -7467.7379 296.5585 -9192.3783 -7394.9184 301.0308 -76.2072 -7.1977 29659.6802 3.8070 59.7032
TCL: Running FEP window  13: Lambda1 0.39999999999999963 Lambda2 0.34999999999999964 [dLambda -0.04999999999999999]
TCL: Setting parameter firsttimestep to 0
TCL: Setting parameter alchLambda to 0.39999999999999963
Info: NONBONDED TABLE R-SQUARED SPACING: 0.0625
Info: NONBONDED TABLE SIZE: 705 POINTS
TCL: Setting parameter alchLambda2 to 0.34999999999999964
Info: NONBONDED TABLE R-SQUARED SPACING: 0.0625
Info: NONBONDED TABLE SIZE: 705 POINTS
TCL: Running for 1500000 steps
ETITLE: TS BOND ANGLE DIHED IMPRP ELECT VDW BOUNDARY MISC KINETIC TOTAL TEMP POTENTIAL TOTALAVG TEMPAVG PRESSURE GPRESSURE VOLUME PRESSAVG GPRESSAVG
ENERGY: 0 2.6962 11.5858 2.8670 0.0000 -10615.3741 1405.9544 0.0000 0.0000 1723.7510 -7468.5198 296.4056 -9192.2708 -7468.5198 296.4056 -97.8432 -12.8212 29659.6802 -97.8432 -12.8212
ENERGY: 300000 3.1424 8.2451 2.6987 0.0000 -10724.0034 1548.7712 0.0000 0.0000 1745.2029 -7415.9431 300.0943 -9161.1460 -7428.2717 296.9384 822.8392 916.1132 29907.0817 203.5657 285.6407
ENERGY: 600000 2.4843 7.8282 3.1053 0.0000 -10485.9934 1374.2006 0.0000 0.0000 1702.9387 -7395.4362 292.8268 -9098.3749 -7396.3986 297.3579 -325.2794 -293.1655 29863.9404 41.6397 109.3242
ENERGY: 900000 4.5402 15.5244 3.5912 0.0000 -10653.4451 1490.0610 0.0000 0.0000 1728.0890 -7411.6394 297.1515 -9139.7283 -7395.5421 297.3808 629.4653 651.5214 29639.8636 68.2571 137.4634
ENERGY: 1200000 2.3434 7.2233 4.2809 0.0000 -10507.4496 1329.7231 0.0000 0.0000 1717.6129 -7446.2660 295.3501 -9163.8789 -7398.9013 297.5328 -658.4185 -651.5796 29770.8780 -110.5116 -43.5932
ENERGY: 1500000 1.5463 9.9408 4.9744 0.0000 -10595.4446 1476.1838 0.0000 0.0000 1766.7434 -7336.0560 303.7983 -9102.7994 -7392.9655 297.8174 401.3478 501.2948 29952.6140 -79.6532 -13.2452
TCL: Running FEP window  14: Lambda1 0.34999999999999964 Lambda2 0.29999999999999966 [dLambda -0.04999999999999999]
TCL: Setting parameter firsttimestep to 0
TCL: Setting parameter alchLambda to 0.34999999999999964
Info: NONBONDED TABLE R-SQUARED SPACING: 0.0625
Info: NONBONDED TABLE SIZE: 705 POINTS
TCL: Setting parameter alchLambda2 to 0.29999999999999966
Info: NONBONDED TABLE R-SQUARED SPACING: 0.0625
Info: NONBONDED TABLE SIZE: 705 POINTS
TCL: Running for 1500000 steps
ETITLE: TS BOND ANGLE DIHED IMPRP ELECT VDW BOUNDARY MISC KINETIC TOTAL TEMP POTENTIAL TOTALAVG TEMPAVG PRESSURE GPRESSURE VOLUME PRESSAVG GPRESSAVG
ENERGY: 0 1.5463 9.9408 4.9744 0.0000 -10595.4445 1476.0627 0.0000 0.0000 1765.8731 -7337.0473 303.6486 -9102.9204 -7337.0473 303.6486 403.8190 496.6328 29952.6140 403.8190 496.6328
ENERGY: 300000 2.0193 7.6663 2.7787 0.0000 -10615.0257 1456.3112 0.0000 0.0000 1696.3840 -7449.8661 291.6997 -9146.2501 -7390.0626 297.1880 360.0205 455.1330 29680.5531 -112.4979 -26.9084
ENERGY: 600000 2.2147 5.6667 4.0325 0.0000 -10588.2044 1382.8217 0.0000 0.0000 1769.0293 -7424.4394 304.1914 -9193.4687 -7374.7010 300.5732 -303.3240 -283.4691 29744.4378 -94.5672 -19.4625
ENERGY: 900000 3.5622 13.5745 3.4086 0.0000 -10525.9501 1366.4546 0.0000 0.0000 1719.1186 -7419.8315 295.6090 -9138.9502 -7384.6760 300.1719 -496.4722 -412.6652 29824.3669 -247.4218 -172.8748
ENERGY: 1200000 1.9859 12.3651 3.5966 0.0000 -10425.0682 1318.5641 0.0000 0.0000 1785.5334 -7303.0231 307.0293 -9088.5565 -7383.5080 300.6311 -753.7510 -724.7380 30538.4651 -283.8218 -220.8037
ENERGY: 1500000 0.4477 9.9708 3.4990 0.0000 -10524.9313 1443.4461 0.0000 0.0000 1744.8584 -7322.7094 300.0351 -9067.5678 -7380.7290 300.4165 340.4021 452.8949 29905.2972 -239.2563 -171.2376
TCL: Running FEP window  15: Lambda1 0.29999999999999966 Lambda2 0.24999999999999967 [dLambda -0.04999999999999999]
TCL: Setting parameter firsttimestep to 0
TCL: Setting parameter alchLambda to 0.29999999999999966
Info: NONBONDED TABLE R-SQUARED SPACING: 0.0625
Info: NONBONDED TABLE SIZE: 705 POINTS
TCL: Setting parameter alchLambda2 to 0.24999999999999967
Info: NONBONDED TABLE R-SQUARED SPACING: 0.0625
Info: NONBONDED TABLE SIZE: 705 POINTS
TCL: Running for 1500000 steps
ETITLE: TS BOND ANGLE DIHED IMPRP ELECT VDW BOUNDARY MISC KINETIC TOTAL TEMP POTENTIAL TOTALAVG TEMPAVG PRESSURE GPRESSURE VOLUME PRESSAVG GPRESSAVG
ENERGY: 0 0.4477 9.9708 3.4990 0.0000 -10524.9319 1443.9635 0.0000 0.0000 1743.9854 -7323.0656 299.8850 -9067.0510 -7323.0656 299.8850 375.2830 452.1316 29905.2972 375.2830 452.1316
ENERGY: 300000 2.3914 11.3706 3.0457 0.0000 -10578.1392 1377.3870 0.0000 0.0000 1725.8994 -7458.0452 296.7750 -9183.9446 -7398.1677 298.8221 -667.9864 -622.5691 30085.8131 229.9373 305.2119
ENERGY: 600000 1.1174 5.5050 3.2774 0.0000 -10527.7049 1422.6866 0.0000 0.0000 1738.9523 -7356.1661 299.0195 -9095.1185 -7385.1266 298.9192 219.7575 256.7975 29933.8531 386.7632 460.0730
ENERGY: 900000 7.3246 8.2339 4.1134 0.0000 -10613.4609 1416.6298 0.0000 0.0000 1818.5197 -7358.6394 312.7014 -9177.1591 -7384.0582 300.5571 -197.0775 -203.8506 30107.5507 206.4673 265.9959
ENERGY: 1200000 4.2896 7.4256 3.2307 0.0000 -10740.1116 1507.0720 0.0000 0.0000 1747.7960 -7470.2977 300.5402 -9218.0937 -7386.9149 301.0424 600.0543 619.4254 29503.0813 235.3247 293.5599
ENERGY: 1500000 3.8166 8.5195 3.0927 0.0000 -10702.0639 1516.9653 0.0000 0.0000 1743.5261 -7426.1436 299.8060 -9169.6697 -7386.1597 300.8608 766.1380 793.3825 29678.4236 240.0273 298.3653
TCL: Running FEP window  16: Lambda1 0.24999999999999967 Lambda2 0.19999999999999968 [dLambda -0.04999999999999999]
TCL: Setting parameter firsttimestep to 0
TCL: Setting parameter alchLambda to 0.24999999999999967
Info: NONBONDED TABLE R-SQUARED SPACING: 0.0625
Info: NONBONDED TABLE SIZE: 705 POINTS
TCL: Setting parameter alchLambda2 to 0.19999999999999968
Info: NONBONDED TABLE R-SQUARED SPACING: 0.0625
Info: NONBONDED TABLE SIZE: 705 POINTS
TCL: Running for 1500000 steps
ETITLE: TS BOND ANGLE DIHED IMPRP ELECT VDW BOUNDARY MISC KINETIC TOTAL TEMP POTENTIAL TOTALAVG TEMPAVG PRESSURE GPRESSURE VOLUME PRESSAVG GPRESSAVG
ENERGY: 0 3.8166 8.5195 3.0927 0.0000 -10702.0643 1517.4723 0.0000 0.0000 1742.6543 -7426.5089 299.6561 -9169.1632 -7426.5089 299.6561 693.8388 793.9567 29678.4236 693.8388 793.9567
ENERGY: 300000 1.1031 11.8691 2.8462 0.0000 -10613.3377 1461.7744 0.0000 0.0000 1784.3340 -7351.4109 306.8231 -9135.7449 -7382.2662 302.4362 116.4971 157.0625 30489.9486 -125.4746 -47.5494
ENERGY: 600000 1.7401 7.1101 2.6754 0.0000 -10441.1965 1336.3487 0.0000 0.0000 1752.9258 -7340.3965 301.4223 -9093.3222 -7375.3569 300.3563 -556.9525 -452.8632 29755.5155 -143.5332 -57.7477
ENERGY: 900000 3.1093 7.7907 2.7823 0.0000 -10574.2818 1402.3239 0.0000 0.0000 1790.8449 -7367.4307 307.9427 -9158.2757 -7367.7002 300.4457 -246.7363 -165.7411 30001.2277 -119.4469 -44.2325
ENERGY: 1200000 2.0833 14.5299 3.0817 0.0000 -10502.1022 1384.6677 0.0000 0.0000 1799.5907 -7298.1488 309.4465 -9097.7396 -7366.8606 301.5755 -367.2036 -300.3911 30139.3464 -91.4190 -22.3628
ENERGY: 1500000 0.8354 8.4355 2.7957 0.0000 -10527.3137 1469.0467 0.0000 0.0000 1704.8470 -7341.3533 293.1550 -9046.2003 -7374.7377 300.3753 462.2795 516.7640 30255.9548 -51.4620 16.4908
TCL: Running FEP window  17: Lambda1 0.19999999999999968 Lambda2 0.1499999999999997 [dLambda -0.04999999999999999]
TCL: Setting parameter firsttimestep to 0
TCL: Setting parameter alchLambda to 0.19999999999999968
Info: NONBONDED TABLE R-SQUARED SPACING: 0.0625
Info: NONBONDED TABLE SIZE: 705 POINTS
TCL: Setting parameter alchLambda2 to 0.1499999999999997
Info: NONBONDED TABLE R-SQUARED SPACING: 0.0625
Info: NONBONDED TABLE SIZE: 705 POINTS
TCL: Running for 1500000 steps
ETITLE: TS BOND ANGLE DIHED IMPRP ELECT VDW BOUNDARY MISC KINETIC TOTAL TEMP POTENTIAL TOTALAVG TEMPAVG PRESSURE GPRESSURE VOLUME PRESSAVG GPRESSAVG
ENERGY: 0 0.8354 8.4356 2.7957 0.0000 -10527.3126 1469.0031 0.0000 0.0000 1704.0037 -7342.2390 293.0100 -9046.2427 -7342.2390 293.0100 439.8033 511.5247 30255.9548 439.8033 511.5247
ENERGY: 300000 3.0084 11.3383 4.9336 0.0000 -10516.5088 1400.3221 0.0000 0.0000 1717.7769 -7379.1295 295.3783 -9096.9064 -7386.4747 297.9911 -138.6891 -140.5214 30127.3709 -25.4280 18.6597
ENERGY: 600000 2.1611 9.0373 3.8544 0.0000 -10604.0367 1458.8931 0.0000 0.0000 1718.6534 -7411.4375 295.5290 -9130.0909 -7404.4481 297.1453 330.3750 368.5964 29700.9147 -215.5669 -156.6491
ENERGY: 900000 2.0355 6.7285 3.1610 0.0000 -10590.8337 1467.6320 0.0000 0.0000 1733.0618 -7378.2149 298.0066 -9111.2767 -7403.6974 296.9403 873.2557 979.2609 29466.3859 -55.7256 13.8696
ENERGY: 1200000 4.0055 6.3564 3.4833 0.0000 -10618.5594 1431.1664 0.0000 0.0000 1751.5108 -7422.0370 301.1790 -9173.5478 -7396.4061 298.5555 -145.3228 -97.2239 29863.2778 -45.6552 23.3182
ENERGY: 1500000 3.5137 7.6734 4.4559 0.0000 -10638.8252 1451.1540 0.0000 0.0000 1747.5065 -7424.5217 300.4904 -9172.0282 -7396.5753 299.3290 9.7186 95.6053 29961.0068 25.1086 89.2835
TCL: Running FEP window  18: Lambda1 0.1499999999999997 Lambda2 0.09999999999999969 [dLambda -0.05 ]
TCL: Setting parameter firsttimestep to 0
TCL: Setting parameter alchLambda to 0.1499999999999997
Info: NONBONDED TABLE R-SQUARED SPACING: 0.0625
Info: NONBONDED TABLE SIZE: 705 POINTS
TCL: Setting parameter alchLambda2 to 0.09999999999999969
Info: NONBONDED TABLE R-SQUARED SPACING: 0.0625
Info: NONBONDED TABLE SIZE: 705 POINTS
TCL: Running for 1500000 steps
ETITLE: TS BOND ANGLE DIHED IMPRP ELECT VDW BOUNDARY MISC KINETIC TOTAL TEMP POTENTIAL TOTALAVG TEMPAVG PRESSURE GPRESSURE VOLUME PRESSAVG GPRESSAVG
ENERGY: 0 3.5137 7.6734 4.4559 0.0000 -10638.8259 1450.8096 0.0000 0.0000 1746.6253 -7425.7481 300.3389 -9172.3734 -7425.7481 300.3389 1.1940 91.7390 29961.0068 1.1940 91.7390
ENERGY: 300000 3.7401 5.8414 3.5385 0.0000 -10559.8103 1427.0318 0.0000 0.0000 1747.7894 -7371.8691 300.5391 -9119.6585 -7397.8142 299.7328 -67.2462 -9.1395 29982.0143 40.5406 114.9440
ENERGY: 600000 4.2714 10.5454 3.1740 0.0000 -10603.1721 1435.3613 0.0000 0.0000 1729.0656 -7420.7544 297.3195 -9149.8201 -7413.7141 299.3697 -6.4403 136.3905 29676.2244 -68.3377 24.8542
ENERGY: 900000 4.6944 11.1081 3.0829 0.0000 -10553.0010 1393.8736 0.0000 0.0000 1834.5062 -7305.7357 315.4504 -9140.2419 -7394.3672 301.9651 -359.4505 -331.7861 30086.3721 -41.8108 35.3504
ENERGY: 1200000 2.2199 11.6018 2.9762 0.0000 -10611.8776 1418.5609 0.0000 0.0000 1736.6921 -7439.8267 298.6309 -9176.5188 -7400.6170 300.9198 -224.7106 -159.1994 30055.8309 34.5463 109.9491
ENERGY: 1500000 4.0985 8.3875 3.1834 0.0000 -10632.7380 1465.4485 0.0000 0.0000 1719.7200 -7431.9000 295.7125 -9151.6200 -7408.9970 300.8719 502.5592 555.9569 29312.3671 15.0120 85.3159
TCL: Running FEP window  19: Lambda1 0.09999999999999969 Lambda2 0.049999999999999684 [dLambda -0.05 ]
TCL: Setting parameter firsttimestep to 0
TCL: Setting parameter alchLambda to 0.09999999999999969
Info: NONBONDED TABLE R-SQUARED SPACING: 0.0625
Info: NONBONDED TABLE SIZE: 705 POINTS
TCL: Setting parameter alchLambda2 to 0.049999999999999684
Info: NONBONDED TABLE R-SQUARED SPACING: 0.0625
Info: NONBONDED TABLE SIZE: 705 POINTS
TCL: Running for 1500000 steps
ETITLE: TS BOND ANGLE DIHED IMPRP ELECT VDW BOUNDARY MISC KINETIC TOTAL TEMP POTENTIAL TOTALAVG TEMPAVG PRESSURE GPRESSURE VOLUME PRESSAVG GPRESSAVG
ENERGY: 0 4.0985 8.3875 3.1834 0.0000 -10632.7374 1465.0923 0.0000 0.0000 1718.8600 -7433.1156 295.5646 -9151.9756 -7433.1156 295.5646 465.8853 549.3844 29312.3671 465.8853 549.3844
ENERGY: 300000 0.8755 8.8649 2.6556 0.0000 -10339.7029 1304.7525 0.0000 0.0000 1753.5622 -7268.9922 301.5317 -9022.5544 -7367.0471 300.1121 -892.5126 -835.1514 30322.7957 31.6143 83.7319
ENERGY: 600000 2.5176 6.4493 3.1420 0.0000 -10542.9804 1391.1138 0.0000 0.0000 1715.7758 -7423.9820 295.0342 -9139.7578 -7362.1780 301.2169 -227.7822 -177.0500 29717.6014 -97.3817 -48.5004
ENERGY: 900000 1.2418 8.8480 3.1112 0.0000 -10576.6059 1433.7433 0.0000 0.0000 1780.1594 -7349.5023 306.1052 -9129.6616 -7348.4581 303.3855 156.6049 200.5934 29851.3672 -82.0576 -44.1475
ENERGY: 1200000 3.5483 8.6707 3.4794 0.0000 -10621.7799 1457.7715 0.0000 0.0000 1705.7663 -7442.5437 293.3131 -9148.3100 -7361.6964 301.7213 124.7690 188.9889 30048.9151 19.7586 68.0424
ENERGY: 1500000 1.3199 10.9597 3.7389 0.0000 -10614.1513 1461.3925 0.0000 0.0000 1798.3085 -7338.4318 309.2260 -9136.7403 -7358.6173 302.0474 513.3128 579.1677 29558.3007 -66.5210 -10.0132
TCL: Running FEP window  20: Lambda1 0.049999999999999684 Lambda2 0.0    [dLambda -0.049999999999999684]
TCL: Setting parameter firsttimestep to 0
TCL: Setting parameter alchLambda to 0.049999999999999684
Info: NONBONDED TABLE R-SQUARED SPACING: 0.0625
Info: NONBONDED TABLE SIZE: 705 POINTS
TCL: Setting parameter alchLambda2 to 0.0
Info: NONBONDED TABLE R-SQUARED SPACING: 0.0625
Info: NONBONDED TABLE SIZE: 705 POINTS
TCL: Running for 1500000 steps
ETITLE: TS BOND ANGLE DIHED IMPRP ELECT VDW BOUNDARY MISC KINETIC TOTAL TEMP POTENTIAL TOTALAVG TEMPAVG PRESSURE GPRESSURE VOLUME PRESSAVG GPRESSAVG
ENERGY: 0 1.3199 10.9597 3.7389 0.0000 -10614.1520 1459.8987 0.0000 0.0000 1797.4714 -7340.7635 309.0821 -9138.2349 -7340.7635 309.0821 493.1680 575.3354 29558.3007 493.1680 575.3354
ENERGY: 300000 0.7912 11.4791 2.9827 0.0000 -10630.0981 1443.9856 0.0000 0.0000 1727.6461 -7443.2134 297.0754 -9170.8595 -7378.3361 301.5685 137.3578 201.3046 29834.4564 -234.1853 -158.4322
ENERGY: 600000 1.8236 10.4224 2.7964 0.0000 -10560.8069 1437.1510 0.0000 0.0000 1721.8454 -7386.7681 296.0779 -9108.6135 -7400.0377 300.2725 42.5191 17.3837 29996.7638 78.2438 153.1044
ENERGY: 900000 3.4536 15.1109 4.0274 0.0000 -10641.3920 1421.9802 0.0000 0.0000 1775.3705 -7421.4494 305.2818 -9196.8199 -7401.4855 300.7444 -368.9689 -294.6871 29950.5542 -29.6487 49.9990
ENERGY: 1200000 1.4980 8.2046 3.3631 0.0000 -10610.9973 1471.7541 0.0000 0.0000 1733.1820 -7392.9954 298.0273 -9126.1775 -7402.2471 299.5564 564.6724 612.2035 29522.8563 -52.0454 23.1197
ENERGY: 1500000 3.4335 10.4919 3.3422 0.0000 -10602.9570 1392.4583 0.0000 0.0000 1709.1021 -7484.1290 293.8867 -9193.2311 -7408.9600 298.7973 -398.6823 -354.1135 29492.4113 -25.9011 40.4345
TCL: Exiting due to exit command.
