Info: SIMULATION PARAMETERS:
Info: TIMESTEP               2
Info: NUMBER OF STEPS        0
Info: STEPS PER CYCLE        10
Info: PERIODIC CELL BASIS 1  32.2399 0 0
Info: PERIODIC CELL BASIS 2  0 30.619 0
Info: PERIODIC CELL BASIS 3  0 0 31.744
Info: PERIODIC CELL CENTER   0 0 0
Info: WRAPPING WATERS AROUND PERIODIC BOUNDARIES ON OUTPUT.
Info: WRAPPING ALL CLUSTERS AROUND PERIODIC BOUNDARIES ON OUTPUT.
Info: FIRST LDB TIMESTEP     50
Info: LAST LDB TIMESTEP     -1
Info: HOM BACKGROUND SCALING 1
Info: PME BACKGROUND SCALING 1
Info: MIN ATOMS PER PATCH    40
Info: EMPTY PATCH LOAD       40 ATOMS
Info: VELOCITY FILE          mobley_7015518_equil.vel
Info: CENTER OF MASS MOVING INITIALLY? NO
Info: DIELECTRIC             1
Info: EXCLUDE                SCALED ONE-FOUR
Info: 1-4 ELECTROSTATICS SCALED BY 0.833333
Info: MODIFIED 1-4 VDW PARAMETERS WILL BE USED
Info: DCD FILENAME           mobley_7015518_prod.dcd
Info: DCD FREQUENCY          100000
Info: DCD FIRST STEP         100000
Info: DCD FILE WILL CONTAIN UNIT CELL DATA
Info: XST FILENAME           mobley_7015518_prod.xst
Info: XST FREQUENCY          100000
Info: NO VELOCITY DCD OUTPUT
Info: NO FORCE DCD OUTPUT
Info: OUTPUT FILENAME        mobley_7015518_prod
Info: BINARY OUTPUT FILES WILL BE USED
Info: RESTART FILENAME       mobley_7015518_prod.restart
Info: RESTART FREQUENCY      100000
Info: BINARY RESTART FILES WILL BE USED
Info: CUTOFF                 9
Info: PAIRLIST DISTANCE      11
Info: PAIRLIST SHRINK RATE   0.01
Info: PAIRLIST GROW RATE     0.01
Info: PAIRLIST TRIGGER       0.3
Info: PAIRLISTS PER CYCLE    2
Info: PAIRLISTS ENABLED
Info: MARGIN                 2
Info: HYDROGEN GROUP CUTOFF  2.5
Info: PATCH DIMENSION        15.5
Info: ENERGY OUTPUT STEPS    100000
Info: ENERGY EVALUATION STEPS    100000
Info: OUTPUT ENERGY PRECISION 4
Info: CROSSTERM ENERGY INCLUDED IN DIHEDRAL
Info: TIMING OUTPUT STEPS    1000000
Info: PRESSURE OUTPUT STEPS  100000
Info: ALCHEMICAL FEP ON
Info: FEP CURRENT LAMBDA VALUE     1
Info: FEP COMPARISON LAMBDA VALUE  0.95
Info: FEP INTRA-ALCHEMICAL NON-BONDED INTERACTIONS WILL BE RETAINED
Info: FEP INTRA-ALCHEMICAL BONDED INTERACTIONS WILL BE RETAINED
Info: FEP VDW SHIFTING COEFFICIENT 5
Info: FEP ELEC. ACTIVE FOR ANNIHILATED PARTICLES BETWEEN LAMBDA = 0 AND LAMBDA = 0.5
Info: FEP ELEC. ACTIVE FOR EXNIHILATED PARTICLES BETWEEN LAMBDA = 0.5 AND LAMBDA = 1
Info: FEP VDW ACTIVE FOR ANNIHILATED PARTICLES BETWEEN LAMBDA = 0 AND LAMBDA = 1
Info: FEP VDW ACTIVE FOR EXNIHILATED PARTICLES BETWEEN LAMBDA = 0 AND LAMBDA = 1
Info: FEP BOND ACTIVE FOR ANNIHILATED PARTICLES BETWEEN LAMBDA = 1 AND LAMBDA = 1
Info: FEP BOND ACTIVE FOR EXNIHILATED PARTICLES BETWEEN LAMBDA = 0 AND LAMBDA = 0
Info: LANGEVIN DYNAMICS ACTIVE
Info: LANGEVIN TEMPERATURE   300
Info: LANGEVIN USING BBK INTEGRATOR
Info: LANGEVIN DAMPING COEFFICIENT IS 1 INVERSE PS
Info: LANGEVIN DYNAMICS APPLIED TO HYDROGENS
Info: LANGEVIN PISTON PRESSURE CONTROL ACTIVE
Info:        TARGET PRESSURE IS 1.01325 BAR
Info:     OSCILLATION PERIOD IS 50 FS
Info:             DECAY TIME IS 25 FS
Info:     PISTON TEMPERATURE IS 300 K
Info:       PRESSURE CONTROL IS GROUP-BASED
Info:    INITIAL STRAIN RATE IS -0.000481694 -0.000481694 -0.000481694
Info:       CELL FLUCTUATION IS ISOTROPIC
Info: PARTICLE MESH EWALD (PME) ACTIVE
Info: PME TOLERANCE               1e-06
Info: PME EWALD COEFFICIENT       0.348832
Info: PME INTERPOLATION ORDER     4
Info: PME GRID DIMENSIONS         36 32 32
Info: PME MAXIMUM GRID SPACING    1
Info: PME CALCULATION WILL BE PERFORMED ON GPU
Info: FULL ELECTROSTATIC EVALUATION FREQUENCY      2
Info: USING VERLET I (r-RESPA) MTS SCHEME.
Info: C1 SPLITTING OF LONG RANGE ELECTROSTATICS
Info: PLACING ATOMS IN PATCHES BY HYDROGEN GROUPS
Info: RIGID BONDS TO HYDROGEN : ALL
Info:         ERROR TOLERANCE : 1e-08
Info:          MAX ITERATIONS : 100
Info: RIGID WATER USING SETTLE ALGORITHM
Info: RANDOM NUMBER SEED     1743515908
Info: USE HYDROGEN BONDS?    NO
Info: Using AMBER format force field!
Info: AMBER PARM FILE        mobley_7015518.prmtop
Info: COORDINATE PDB         mobley_7015518.pdb
Info: Exclusions will be read from PARM file!
Info: SCNB (VDW SCALING)     2
Info: USING ARITHMETIC MEAN TO COMBINE L-J SIGMA PARAMETERS
Info: BINARY COORDINATES     mobley_7015518_equil.coor
Info: SUMMARY OF PARAMETERS:
Info: 4 BONDS
Info: 3 ANGLES
Info:   3 HARMONIC
Info:   0 COSINE-BASED
Info: 1 DIHEDRAL
Info: 0 IMPROPER
Info: 0 CROSSTERM
Info: 0 VDW
Info: 15 VDW_PAIRS
Info: 0 NBTHOLE_PAIRS
Info: To read alchdata from file: mobley_7015518.pdb
Info: To read alchflag data from column: 5
Info: STRUCTURE SUMMARY:
Info: 3000 ATOMS
Info: 2999 BONDS
Info: 13 ANGLES
Info: 6 DIHEDRALS
Info: 0 IMPROPERS
Info: 0 CROSSTERMS
Info: 3018 EXCLUSIONS
Info: 2997 RIGID BONDS
Info: ALCH: 0 ATOMS TO DISAPPEAR IN FINAL STATE
Info: ALCH: 9 ATOMS TO APPEAR IN FINAL STATE
Info: 6003 DEGREES OF FREEDOM
Info: 1000 HYDROGEN GROUPS
Info: 4 ATOMS IN LARGEST HYDROGEN GROUP
Info: 1000 MIGRATION GROUPS
Info: 4 ATOMS IN LARGEST MIGRATION GROUP
Info: TOTAL MASS = 18008 amu
Info: TOTAL CHARGE = 9.99942e-05 e
Info: MASS DENSITY = 0.954287 g/cm^3
Info: ATOM DENSITY = 0.095736 atoms/A^3
Info: ADDED 0 IMPLICIT EXCLUSIONS
Info: NONBONDED TABLE R-SQUARED SPACING: 0.0625
Info: NONBONDED TABLE SIZE: 705 POINTS
Info: REMOVING COM VELOCITY -0.0221828 0.0385485 -0.0643012
Info: Use 3D box decompostion in PME FFT.
Info: Updated CUDA force table with 4096 elements.
Info: Updated CUDA LJ table with 5 x 5 elements.
Info: Found 12 unique exclusion lists needing 16 bytes
TCL: Running for 1500000 steps
ETITLE: TS BOND ANGLE DIHED IMPRP ELECT VDW BOUNDARY MISC KINETIC TOTAL TEMP POTENTIAL TOTALAVG TEMPAVG PRESSURE GPRESSURE VOLUME PRESSAVG GPRESSAVG
ENERGY: 0 1.4456 5.2004 0.1315 0.0000 -10791.8982 1317.0116 0.0000 0.0000 1786.8635 -7681.2456 299.5804 -9468.1091 -7681.2456 299.5804 -1349.5089 -1272.3869 31336.1754 -1349.5089 -1272.3869
ENERGY: 300000 0.1559 2.9441 0.4110 0.0000 -10925.0348 1481.0048 0.0000 0.0000 1811.4607 -7629.0582 303.7043 -9440.5190 -7649.5381 302.2983 -96.1215 -32.6971 31171.8127 -366.3722 -307.5613
ENERGY: 600000 0.8436 1.5422 1.3266 0.0000 -10831.7277 1443.2097 0.0000 0.0000 1759.9361 -7624.8695 295.0658 -9384.8056 -7626.2259 300.3981 122.4383 152.4088 30435.0454 -211.6320 -158.0233
ENERGY: 900000 1.6038 2.0869 1.1427 0.0000 -10939.4528 1490.9862 0.0000 0.0000 1782.7695 -7660.8637 298.8940 -9443.6332 -7638.4697 298.0221 477.0112 597.1486 30196.8015 -254.6612 -187.7048
ENERGY: 1200000 1.5045 4.7082 0.4223 0.0000 -10807.5252 1381.9320 0.0000 0.0000 1754.0375 -7664.9207 294.0769 -9418.9582 -7633.6513 299.5479 -948.3818 -846.9076 31205.2211 -287.8351 -223.2810
ENERGY: 1500000 0.1981 2.0908 0.1574 0.0000 -10902.2915 1473.9447 0.0000 0.0000 1788.6465 -7637.2540 299.8793 -9425.9005 -7629.9171 299.4080 169.1085 195.8243 30715.2110 -223.2487 -163.6266
TCL: Running FEP window   2: Lambda1 0.95   Lambda2 0.8999999999999999 [dLambda -0.050000000000000044]
TCL: Setting parameter firsttimestep to 0
TCL: Setting parameter alchLambda to 0.95
Info: NONBONDED TABLE R-SQUARED SPACING: 0.0625
Info: NONBONDED TABLE SIZE: 705 POINTS
TCL: Setting parameter alchLambda2 to 0.8999999999999999
Info: NONBONDED TABLE R-SQUARED SPACING: 0.0625
Info: NONBONDED TABLE SIZE: 705 POINTS
TCL: Running for 1500000 steps
ETITLE: TS BOND ANGLE DIHED IMPRP ELECT VDW BOUNDARY MISC KINETIC TOTAL TEMP POTENTIAL TOTALAVG TEMPAVG PRESSURE GPRESSURE VOLUME PRESSAVG GPRESSAVG
ENERGY: 0 0.1981 2.0908 0.1574 0.0000 -10901.6820 1474.0849 0.0000 0.0000 1787.7405 -7637.4103 299.7275 -9425.1508 -7637.4103 299.7275 119.0741 194.9945 30715.2110 119.0741 194.9945
ENERGY: 300000 0.7878 5.9704 0.1582 0.0000 -10777.6016 1366.0452 0.0000 0.0000 1821.3515 -7583.2885 305.3626 -9404.6400 -7611.5594 300.2904 -829.4398 -759.7984 31297.3478 -23.8396 45.2793
ENERGY: 600000 0.1317 2.1953 0.2915 0.0000 -10974.8269 1528.4745 0.0000 0.0000 1820.5335 -7623.2005 305.2254 -9443.7340 -7606.1457 302.8576 355.6360 385.1885 30995.4695 -110.5172 -62.6401
ENERGY: 900000 1.2270 2.8065 0.4251 0.0000 -10877.0988 1440.5345 0.0000 0.0000 1801.3726 -7630.7332 302.0130 -9432.1058 -7627.6929 301.7804 -534.4688 -478.0131 31437.5537 -326.3895 -269.8390
ENERGY: 1200000 0.8023 1.2955 0.0250 0.0000 -10792.0232 1436.4650 0.0000 0.0000 1807.2528 -7546.1827 302.9988 -9353.4355 -7623.0867 301.3305 220.7599 213.1987 30623.1965 -314.6420 -259.7240
ENERGY: 1500000 4.2352 1.3993 0.5309 0.0000 -10811.6837 1392.0604 0.0000 0.0000 1778.7639 -7634.6940 298.2225 -9413.4579 -7638.0096 300.7471 -491.1250 -457.1245 30908.0443 -306.2981 -250.0910
TCL: Running FEP window   3: Lambda1 0.8999999999999999 Lambda2 0.8499999999999999 [dLambda -0.050000000000000044]
TCL: Setting parameter firsttimestep to 0
TCL: Setting parameter alchLambda to 0.8999999999999999
Info: NONBONDED TABLE R-SQUARED SPACING: 0.0625
Info: NONBONDED TABLE SIZE: 705 POINTS
TCL: Setting parameter alchLambda2 to 0.8499999999999999
Info: NONBONDED TABLE R-SQUARED SPACING: 0.0625
Info: NONBONDED TABLE SIZE: 705 POINTS
TCL: Running for 1500000 steps
ETITLE: TS BOND ANGLE DIHED IMPRP ELECT VDW BOUNDARY MISC KINETIC TOTAL TEMP POTENTIAL TOTALAVG TEMPAVG PRESSURE GPRESSURE VOLUME PRESSAVG GPRESSAVG
ENERGY: 0 4.2352 1.3993 0.5309 0.0000 -10811.0699 1391.9778 0.0000 0.0000 1777.8664 -7635.0604 298.0720 -9412.9267 -7635.0604 298.0720 -552.1965 -460.9885 30908.0443 -552.1965 -460.9885
ENERGY: 300000 0.7121 0.7690 0.2165 0.0000 -11004.0768 1551.3589 0.0000 0.0000 1764.7556 -7686.2647 295.8739 -9451.0203 -7658.7120 296.2055 516.9717 569.6508 30832.4532 -41.3305 3.0047
ENERGY: 600000 1.2021 1.4547 1.1239 0.0000 -10857.9253 1435.6593 0.0000 0.0000 1832.4974 -7585.9879 307.2313 -9418.4853 -7646.2565 299.6998 34.0321 67.0389 30528.0003 -56.4710 -10.5825
ENERGY: 900000 0.8023 2.7250 0.2704 0.0000 -11026.8786 1476.1454 0.0000 0.0000 1801.8251 -7745.1104 302.0888 -9546.9355 -7667.8051 298.9583 -240.2767 -210.4977 30638.5787 -57.9715 -11.1588
ENERGY: 1200000 0.8823 8.6258 0.7337 0.0000 -10988.1705 1502.0626 0.0000 0.0000 1758.7312 -7717.1348 294.8638 -9475.8660 -7666.1492 298.8124 -3.8422 28.0091 30998.9591 -27.1660 21.6062
ENERGY: 1500000 0.2146 1.7622 1.2112 0.0000 -10939.4601 1517.1423 0.0000 0.0000 1821.8390 -7597.2909 305.4443 -9419.1299 -7656.9168 298.8576 298.2474 343.9608 30955.5845 -22.7486 28.0783
TCL: Running FEP window   4: Lambda1 0.8499999999999999 Lambda2 0.7999999999999998 [dLambda -0.050000000000000044]
TCL: Setting parameter firsttimestep to 0
TCL: Setting parameter alchLambda to 0.8499999999999999
Info: NONBONDED TABLE R-SQUARED SPACING: 0.0625
Info: NONBONDED TABLE SIZE: 705 POINTS
TCL: Setting parameter alchLambda2 to 0.7999999999999998
Info: NONBONDED TABLE R-SQUARED SPACING: 0.0625
Info: NONBONDED TABLE SIZE: 705 POINTS
TCL: Running for 1500000 steps
ETITLE: TS BOND ANGLE DIHED IMPRP ELECT VDW BOUNDARY MISC KINETIC TOTAL TEMP POTENTIAL TOTALAVG TEMPAVG PRESSURE GPRESSURE VOLUME PRESSAVG GPRESSAVG
ENERGY: 0 0.2146 1.7622 1.2112 0.0000 -10939.3715 1517.4885 0.0000 0.0000 1820.9552 -7597.7399 305.2961 -9418.6951 -7597.7399 305.2961 267.5591 344.0838 30955.5845 267.5591 344.0838
ENERGY: 300000 0.1969 2.9821 0.1453 0.0000 -10824.0708 1354.9570 0.0000 0.0000 1828.0484 -7637.7412 306.4854 -9465.7896 -7595.3509 303.3478 -955.7849 -853.1585 30876.5571 -228.3308 -142.9145
ENERGY: 600000 0.3383 2.8065 1.3885 0.0000 -10910.6306 1461.0397 0.0000 0.0000 1821.1539 -7623.9038 305.3294 -9445.0576 -7613.8774 301.5235 -117.7149 -88.6919 30758.7550 -157.4002 -97.2316
ENERGY: 900000 0.2088 2.8616 2.2152 0.0000 -10875.1516 1379.0738 0.0000 0.0000 1813.1889 -7677.6033 303.9941 -9490.7922 -7627.4572 300.9923 -992.4970 -886.0533 31082.4927 -270.2628 -207.5061
ENERGY: 1200000 1.0212 5.9201 0.4310 0.0000 -10870.8480 1434.0962 0.0000 0.0000 1810.4369 -7618.9425 303.5327 -9429.3795 -7624.3903 301.6605 35.5888 91.1565 30253.0596 -224.8366 -162.0829
ENERGY: 1500000 1.2341 2.0057 0.2802 0.0000 -10670.4215 1326.9584 0.0000 0.0000 1827.3368 -7512.6064 306.3660 -9339.9432 -7621.3432 301.1370 -864.0706 -808.1960 31217.6897 -254.6159 -188.0703
TCL: Running FEP window   5: Lambda1 0.7999999999999998 Lambda2 0.7499999999999998 [dLambda -0.050000000000000044]
TCL: Setting parameter firsttimestep to 0
TCL: Setting parameter alchLambda to 0.7999999999999998
Info: NONBONDED TABLE R-SQUARED SPACING: 0.0625
Info: NONBONDED TABLE SIZE: 705 POINTS
TCL: Setting parameter alchLambda2 to 0.7499999999999998
Info: NONBONDED TABLE R-SQUARED SPACING: 0.0625
Info: NONBONDED TABLE SIZE: 705 POINTS
TCL: Running for 1500000 steps
ETITLE: TS BOND ANGLE DIHED IMPRP ELECT VDW BOUNDARY MISC KINETIC TOTAL TEMP POTENTIAL TOTALAVG TEMPAVG PRESSURE GPRESSURE VOLUME PRESSAVG GPRESSAVG
ENERGY: 0 1.2341 2.0057 0.2802 0.0000 -10669.8716 1326.8333 0.0000 0.0000 1826.4735 -7513.0448 306.2213 -9339.5184 -7513.0448 306.2213 -899.6440 -812.1341 31217.6897 -899.6440 -812.1341
ENERGY: 300000 0.0530 4.6698 0.8379 0.0000 -10863.9453 1446.7644 0.0000 0.0000 1831.0788 -7580.5415 306.9934 -9411.6203 -7550.3229 302.3305 111.7869 133.5689 30696.5070 -397.7954 -356.4427
ENERGY: 600000 0.7261 1.5608 0.1974 0.0000 -10934.4259 1447.4259 0.0000 0.0000 1802.8871 -7681.6285 302.2669 -9484.5156 -7565.6411 303.9907 45.0995 140.8233 30365.2190 -273.6176 -201.8504
ENERGY: 900000 0.3295 2.6115 0.1351 0.0000 -10895.0557 1480.5570 0.0000 0.0000 1823.8945 -7587.5282 305.7889 -9411.4226 -7574.0455 302.8737 19.8462 110.3033 31459.5140 -249.0601 -172.0404
ENERGY: 1200000 0.9110 3.8685 0.7859 0.0000 -10866.9759 1475.4725 0.0000 0.0000 1749.8510 -7636.0870 293.3750 -9385.9381 -7582.0382 301.1660 91.6227 132.2689 30856.0417 -177.0334 -95.8454
ENERGY: 1500000 0.6416 2.6569 0.6475 0.0000 -11003.7558 1552.5237 0.0000 0.0000 1798.8837 -7648.4023 301.5957 -9447.2860 -7591.5758 300.8315 323.7360 357.0553 31501.2199 -102.1334 -23.5934
TCL: Running FEP window   6: Lambda1 0.7499999999999998 Lambda2 0.6999999999999997 [dLambda -0.050000000000000044]
TCL: Setting parameter firsttimestep to 0
TCL: Setting parameter alchLambda to 0.7499999999999998
Info: NONBONDED TABLE R-SQUARED SPACING: 0.0625
Info: NONBONDED TABLE SIZE: 705 POINTS
TCL: Setting parameter alchLambda2 to 0.6999999999999997
Info: NONBONDED TABLE R-SQUARED SPACING: 0.0625
Info: NONBONDED TABLE SIZE: 705 POINTS
TCL: Running for 1500000 steps
ETITLE: TS BOND ANGLE DIHED IMPRP ELECT VDW BOUNDARY MISC KINETIC TOTAL TEMP POTENTIAL TOTALAVG TEMPAVG PRESSURE GPRESSURE VOLUME PRESSAVG GPRESSAVG
ENERGY: 0 0.6416 2.6569 0.6475 0.0000 -11003.6513 1552.6812 0.0000 0.0000 1797.9495 -7649.0745 301.4391 -9447.0241 -7649.0745 301.4391 272.4537 355.9654 31501.2199 272.4537 355.9654
ENERGY: 300000 1.5233 3.6825 1.0797 0.0000 -11022.2653 1512.5003 0.0000 0.0000 1805.6791 -7697.8004 302.7350 -9503.4795 -7651.0980 299.5116 159.1702 212.4648 30939.5926 293.9157 360.4648
ENERGY: 600000 0.0392 3.0561 0.1329 0.0000 -10922.9924 1507.1081 0.0000 0.0000 1688.8006 -7723.8555 283.1395 -9412.6561 -7631.1025 300.9913 278.3050 371.8027 30727.6566 94.0493 164.0131
ENERGY: 900000 0.6283 5.1241 0.4530 0.0000 -10944.1087 1540.5088 0.0000 0.0000 1801.9472 -7595.4474 302.1093 -9397.3946 -7635.1878 301.0723 563.9357 626.4706 30788.3387 90.3486 154.0526
ENERGY: 1200000 0.5453 5.0671 1.4372 0.0000 -10777.2483 1379.4704 0.0000 0.0000 1769.7253 -7621.0029 296.7071 -9390.7282 -7632.0825 299.8528 -817.5694 -701.0553 31211.7401 -44.7530 19.0793
ENERGY: 1500000 0.2853 3.7336 1.1081 0.0000 -10709.4795 1410.6084 0.0000 0.0000 1773.0602 -7520.6839 297.2662 -9293.7441 -7627.6725 299.6760 -149.5411 -76.1202 30877.9747 -23.9820 36.4217
TCL: Running FEP window   7: Lambda1 0.6999999999999997 Lambda2 0.6499999999999997 [dLambda -0.050000000000000044]
TCL: Setting parameter firsttimestep to 0
TCL: Setting parameter alchLambda to 0.6999999999999997
Info: NONBONDED TABLE R-SQUARED SPACING: 0.0625
Info: NONBONDED TABLE SIZE: 705 POINTS
TCL: Setting parameter alchLambda2 to 0.6499999999999997
Info: NONBONDED TABLE R-SQUARED SPACING: 0.0625
Info: NONBONDED TABLE SIZE: 705 POINTS
TCL: Running for 1500000 steps
ETITLE: TS BOND ANGLE DIHED IMPRP ELECT VDW BOUNDARY MISC KINETIC TOTAL TEMP POTENTIAL TOTALAVG TEMPAVG PRESSURE GPRESSURE VOLUME PRESSAVG GPRESSAVG
ENERGY: 0 0.2853 3.7336 1.1081 0.0000 -10709.1308 1410.8237 0.0000 0.0000 1772.1588 -7521.0213 297.1151 -9293.1801 -7521.0213 297.1151 -181.7403 -75.4077 30877.9747 -181.7403 -75.4077
ENERGY: 300000 0.7453 1.5960 0.0209 0.0000 -10950.4900 1483.6651 0.0000 0.0000 1850.6603 -7613.8023 310.2764 -9464.4627 -7577.9557 301.2020 -95.3019 -24.9750 30930.4211 -44.5848 27.7697
ENERGY: 600000 0.7959 3.1810 0.1121 0.0000 -11007.4956 1508.3015 0.0000 0.0000 1748.9785 -7746.1266 293.2287 -9495.1051 -7618.9311 299.2554 336.6378 444.1283 29973.5539 -56.6991 20.6270
ENERGY: 900000 0.3867 4.5689 0.6003 0.0000 -10792.4432 1484.8259 0.0000 0.0000 1833.9811 -7468.0803 307.4800 -9302.0614 -7604.7194 298.9396 446.2999 466.3508 31227.6985 38.1458 110.3185
ENERGY: 1200000 0.3949 5.6848 0.5859 0.0000 -10884.1276 1482.5949 0.0000 0.0000 1784.3507 -7610.5163 299.1591 -9394.8670 -7611.3989 299.1997 165.8218 229.7333 30855.8973 -39.4595 27.7007
ENERGY: 1500000 0.1012 2.4124 0.4329 0.0000 -10948.2421 1485.3174 0.0000 0.0000 1741.6077 -7718.3706 291.9930 -9459.9783 -7616.7078 298.9445 41.8057 171.7515 30621.1336 -116.0097 -44.0403
TCL: Running FEP window   8: Lambda1 0.6499999999999997 Lambda2 0.5999999999999996 [dLambda -0.050000000000000044]
TCL: Setting parameter firsttimestep to 0
TCL: Setting parameter alchLambda to 0.6499999999999997
Info: NONBONDED TABLE R-SQUARED SPACING: 0.0625
Info: NONBONDED TABLE SIZE: 705 POINTS
TCL: Setting parameter alchLambda2 to 0.5999999999999996
Info: NONBONDED TABLE R-SQUARED SPACING: 0.0625
Info: NONBONDED TABLE SIZE: 705 POINTS
TCL: Running for 1500000 steps
ETITLE: TS BOND ANGLE DIHED IMPRP ELECT VDW BOUNDARY MISC KINETIC TOTAL TEMP POTENTIAL TOTALAVG TEMPAVG PRESSURE GPRESSURE VOLUME PRESSAVG GPRESSAVG
ENERGY: 0 0.1012 2.4124 0.4329 0.0000 -10947.3122 1485.3153 0.0000 0.0000 1740.7236 -7718.3270 291.8447 -9459.0505 -7718.3270 291.8447 77.9299 169.7722 30621.1336 77.9299 169.7722
ENERGY: 300000 0.0314 1.8063 0.7528 0.0000 -10866.4934 1440.1776 0.0000 0.0000 1815.9157 -7607.8097 304.4512 -9423.7253 -7629.2280 301.7631 -323.0734 -279.4684 31042.0893 127.6799 187.6029
ENERGY: 600000 1.6441 3.2591 0.1101 0.0000 -11037.2250 1547.7751 0.0000 0.0000 1710.7641 -7773.6725 286.8218 -9484.4366 -7635.0170 299.1672 558.6295 544.5921 30713.0766 339.8851 382.2223
ENERGY: 900000 0.2850 2.3228 0.1106 0.0000 -10914.8379 1476.1608 0.0000 0.0000 1795.1866 -7640.7720 300.9758 -9435.9586 -7629.9018 299.6690 -21.0434 48.0961 30958.7284 339.7362 385.6342
ENERGY: 1200000 1.1553 6.3761 0.1764 0.0000 -10970.6753 1492.0713 0.0000 0.0000 1786.7004 -7684.1959 299.5531 -9470.8963 -7623.8578 299.4123 201.5429 223.6118 30644.1824 321.9317 362.4819
ENERGY: 1500000 0.4287 2.4456 0.6097 0.0000 -10799.5556 1373.9564 0.0000 0.0000 1819.8737 -7602.2414 305.1148 -9422.1152 -7626.4579 299.6211 -590.5191 -498.1680 30659.9731 208.6743 255.4533
TCL: Running FEP window   9: Lambda1 0.5999999999999996 Lambda2 0.5499999999999996 [dLambda -0.050000000000000044]
TCL: Setting parameter firsttimestep to 0
TCL: Setting parameter alchLambda to 0.5999999999999996
Info: NONBONDED TABLE R-SQUARED SPACING: 0.0625
Info: NONBONDED TABLE SIZE: 705 POINTS
TCL: Setting parameter alchLambda2 to 0.5499999999999996
Info: NONBONDED TABLE R-SQUARED SPACING: 0.0625
Info: NONBONDED TABLE SIZE: 705 POINTS
TCL: Running for 1500000 steps
ETITLE: TS BOND ANGLE DIHED IMPRP ELECT VDW BOUNDARY MISC KINETIC TOTAL TEMP POTENTIAL TOTALAVG TEMPAVG PRESSURE GPRESSURE VOLUME PRESSAVG GPRESSAVG
ENERGY: 0 0.4287 2.4456 0.6097 0.0000 -10799.3508 1374.2427 0.0000 0.0000 1818.9886 -7602.6355 304.9664 -9421.6241 -7602.6355 304.9664 -572.0075 -500.5282 30659.9731 -572.0075 -500.5282
ENERGY: 300000 0.0207 4.6305 0.3733 0.0000 -10879.8495 1459.8389 0.0000 0.0000 1771.5300 -7643.4562 297.0096 -9414.9862 -7611.5187 300.2020 118.6612 215.4654 30410.9653 -418.9258 -362.2502
ENERGY: 600000 0.3707 3.6782 1.4213 0.0000 -10808.1836 1341.1258 0.0000 0.0000 1841.4814 -7620.1062 308.7375 -9461.5876 -7619.8903 300.8992 -1087.9502 -994.0869 30786.9181 -313.2310 -260.6799
ENERGY: 900000 0.3771 3.9878 0.2183 0.0000 -10944.7622 1498.9211 0.0000 0.0000 1765.8338 -7675.4241 296.0546 -9441.2579 -7625.6227 300.5370 41.9038 131.2357 30849.4955 -267.6896 -205.8726
ENERGY: 1200000 0.1872 4.9456 0.2153 0.0000 -10900.2737 1455.2210 0.0000 0.0000 1769.9197 -7669.7848 296.7397 -9439.7046 -7631.4605 299.9062 -112.5298 -70.4318 30765.3603 -252.4761 -192.0466
ENERGY: 1500000 0.4904 2.0127 1.2966 0.0000 -10950.1362 1485.2166 0.0000 0.0000 1844.9295 -7616.1903 309.3156 -9461.1198 -7627.0523 300.5174 -3.0002 92.1550 30957.2051 -274.2594 -211.8144
TCL: Running FEP window  10: Lambda1 0.5499999999999996 Lambda2 0.4999999999999996 [dLambda -0.04999999999999999]
TCL: Setting parameter firsttimestep to 0
TCL: Setting parameter alchLambda to 0.5499999999999996
Info: NONBONDED TABLE R-SQUARED SPACING: 0.0625
Info: NONBONDED TABLE SIZE: 705 POINTS
TCL: Setting parameter alchLambda2 to 0.4999999999999996
Info: NONBONDED TABLE R-SQUARED SPACING: 0.0625
Info: NONBONDED TABLE SIZE: 705 POINTS
TCL: Running for 1500000 steps
ETITLE: TS BOND ANGLE DIHED IMPRP ELECT VDW BOUNDARY MISC KINETIC TOTAL TEMP POTENTIAL TOTALAVG TEMPAVG PRESSURE GPRESSURE VOLUME PRESSAVG GPRESSAVG
ENERGY: 0 0.4904 2.0127 1.2966 0.0000 -10950.0369 1484.8097 0.0000 0.0000 1844.0413 -7617.3861 309.1667 -9461.4274 -7617.3861 309.1667 -15.5883 84.0980 30957.2051 -15.5883 84.0980
ENERGY: 300000 0.0672 2.8253 0.0688 0.0000 -10858.3245 1460.2381 0.0000 0.0000 1709.5881 -7685.5370 286.6246 -9395.1251 -7611.5454 300.5898 -188.8510 -100.3090 31262.3527 54.3723 122.5620
ENERGY: 600000 0.4596 3.2371 0.1167 0.0000 -10853.7127 1438.6532 0.0000 0.0000 1790.9550 -7620.2912 300.2664 -9411.2462 -7634.5695 299.8893 -417.6604 -414.8218 31142.6957 -77.9591 -37.0774
ENERGY: 900000 1.0055 2.0628 0.5652 0.0000 -10833.0871 1385.6249 0.0000 0.0000 1840.2135 -7603.6152 308.5249 -9443.8287 -7617.9241 301.1968 -772.2609 -667.7259 30726.5675 -141.7099 -95.1074
ENERGY: 1200000 2.0845 4.9140 0.3807 0.0000 -10849.5561 1437.9106 0.0000 0.0000 1782.8882 -7621.3780 298.9139 -9404.2662 -7617.8015 300.5014 -333.2648 -252.4013 30792.0211 -190.0474 -129.8765
ENERGY: 1500000 0.7423 4.0836 0.9312 0.0000 -11008.7544 1526.4404 0.0000 0.0000 1816.8773 -7659.6797 304.6124 -9476.5569 -7615.5765 300.9865 388.9465 470.9493 30496.6573 -169.6476 -106.4945
TCL: Running FEP window  11: Lambda1 0.4999999999999996 Lambda2 0.4499999999999996 [dLambda -0.04999999999999999]
TCL: Setting parameter firsttimestep to 0
TCL: Setting parameter alchLambda to 0.4999999999999996
Info: NONBONDED TABLE R-SQUARED SPACING: 0.0625
Info: NONBONDED TABLE SIZE: 705 POINTS
TCL: Setting parameter alchLambda2 to 0.4499999999999996
Info: NONBONDED TABLE R-SQUARED SPACING: 0.0625
Info: NONBONDED TABLE SIZE: 705 POINTS
TCL: Running for 1500000 steps
ETITLE: TS BOND ANGLE DIHED IMPRP ELECT VDW BOUNDARY MISC KINETIC TOTAL TEMP POTENTIAL TOTALAVG TEMPAVG PRESSURE GPRESSURE VOLUME PRESSAVG GPRESSAVG
ENERGY: 0 0.7423 4.0836 0.9312 0.0000 -11008.6918 1526.2306 0.0000 0.0000 1815.9935 -7660.7106 304.4643 -9476.7041 -7660.7106 304.4643 385.6671 467.9649 30496.6573 385.6671 467.9649
ENERGY: 300000 0.2251 4.9774 0.3768 0.0000 -10911.6627 1490.9442 0.0000 0.0000 1786.4595 -7628.6797 299.5127 -9415.1392 -7605.5540 301.7668 363.4885 456.7377 30283.7649 304.6101 394.2065
ENERGY: 600000 0.9260 3.4939 1.8023 0.0000 -10994.7868 1560.8990 0.0000 0.0000 1782.8765 -7644.7891 298.9120 -9427.6656 -7615.9740 300.0420 609.6633 645.9918 30846.5499 170.6963 246.2406
ENERGY: 900000 0.3665 1.4909 0.2825 0.0000 -10903.7606 1491.8435 0.0000 0.0000 1821.1647 -7588.6125 305.3313 -9409.7772 -7625.7192 301.0622 318.0300 379.9824 30811.5251 166.8316 232.3754
ENERGY: 1200000 0.0685 1.5347 0.3214 0.0000 -10804.2152 1485.6661 0.0000 0.0000 1777.6820 -7538.9425 298.0411 -9316.6245 -7628.6656 299.6670 81.7030 121.1057 31477.3426 151.8765 212.8328
ENERGY: 1500000 0.8728 2.8909 0.3343 0.0000 -10961.0276 1520.0340 0.0000 0.0000 1793.2205 -7643.6751 300.6462 -9436.8956 -7629.9401 299.3176 540.7611 658.1214 30424.0505 72.1639 137.7508
TCL: Running FEP window  12: Lambda1 0.4499999999999996 Lambda2 0.39999999999999963 [dLambda -0.04999999999999999]
TCL: Setting parameter firsttimestep to 0
TCL: Setting parameter alchLambda to 0.4499999999999996
Info: NONBONDED TABLE R-SQUARED SPACING: 0.0625
Info: NONBONDED TABLE SIZE: 705 POINTS
TCL: Setting parameter alchLambda2 to 0.39999999999999963
Info: NONBONDED TABLE R-SQUARED SPACING: 0.0625
Info: NONBONDED TABLE SIZE: 705 POINTS
TCL: Running for 1500000 steps
ETITLE: TS BOND ANGLE DIHED IMPRP ELECT VDW BOUNDARY MISC KINETIC TOTAL TEMP POTENTIAL TOTALAVG TEMPAVG PRESSURE GPRESSURE VOLUME PRESSAVG GPRESSAVG
ENERGY: 0 0.8728 2.8909 0.3343 0.0000 -10961.0282 1520.3641 0.0000 0.0000 1792.3352 -7644.2308 300.4978 -9436.5660 -7644.2308 300.4978 563.1085 656.7991 30424.0505 563.1085 656.7991
ENERGY: 300000 0.1371 6.3970 0.0733 0.0000 -10909.7987 1519.2419 0.0000 0.0000 1811.0089 -7572.9406 303.6286 -9383.9495 -7615.1320 304.4519 729.4369 840.2237 30467.3893 192.6393 257.7864
ENERGY: 600000 0.8031 3.5881 0.6628 0.0000 -10830.9145 1451.0728 0.0000 0.0000 1761.8837 -7612.9040 295.3924 -9374.7876 -7635.7942 299.5432 -138.2372 -36.9450 30699.3099 -41.6630 41.0881
ENERGY: 900000 0.9647 2.2907 0.1904 0.0000 -10875.5694 1502.7883 0.0000 0.0000 1769.9509 -7599.3844 296.7449 -9369.3354 -7634.6084 299.2249 217.0832 252.4381 31034.9900 28.9739 106.2067
ENERGY: 1200000 0.4966 3.5181 0.0822 0.0000 -10943.3974 1468.8833 0.0000 0.0000 1757.3257 -7713.0914 294.6282 -9470.4171 -7640.3215 298.8795 -273.1735 -182.9319 30954.1977 -47.1625 27.2286
ENERGY: 1500000 0.0609 2.6004 0.4947 0.0000 -10801.8655 1429.5311 0.0000 0.0000 1748.0734 -7621.1050 293.0770 -9369.1784 -7642.5339 298.1335 -155.4563 -100.7348 30843.7671 -37.5532 32.0172
TCL: Running FEP window  13: Lambda1 0.39999999999999963 Lambda2 0.34999999999999964 [dLambda -0.04999999999999999]
TCL: Setting parameter firsttimestep to 0
TCL: Setting parameter alchLambda to 0.39999999999999963
Info: NONBONDED TABLE R-SQUARED SPACING: 0.0625
Info: NONBONDED TABLE SIZE: 705 POINTS
TCL: Setting parameter alchLambda2 to 0.34999999999999964
Info: NONBONDED TABLE R-SQUARED SPACING: 0.0625
Info: NONBONDED TABLE SIZE: 705 POINTS
TCL: Running for 1500000 steps
ETITLE: TS BOND ANGLE DIHED IMPRP ELECT VDW BOUNDARY MISC KINETIC TOTAL TEMP POTENTIAL TOTALAVG TEMPAVG PRESSURE GPRESSURE VOLUME PRESSAVG GPRESSAVG
ENERGY: 0 0.0609 2.6004 0.4947 0.0000 -10801.8669 1429.4818 0.0000 0.0000 1747.1699 -7622.0591 292.9255 -9369.2290 -7622.0591 292.9255 -188.9118 -103.1338 30843.7671 -188.9118 -103.1338
ENERGY: 300000 0.1702 4.9382 0.1808 0.0000 -10857.0830 1472.5919 0.0000 0.0000 1801.2320 -7577.9699 301.9894 -9379.2019 -7618.7594 299.4991 -95.6160 -23.1387 31165.9874 -56.7414 22.9385
ENERGY: 600000 0.6337 6.1449 0.5370 0.0000 -10943.4456 1492.0649 0.0000 0.0000 1748.8056 -7695.2596 293.1997 -9444.0651 -7642.0324 297.0211 102.4591 187.7991 30824.6324 60.9530 136.6243
ENERGY: 900000 0.0131 4.4507 0.5973 0.0000 -10953.6506 1437.3659 0.0000 0.0000 1778.0250 -7733.1986 298.0986 -9511.2236 -7653.7717 296.7687 -309.5646 -253.9120 30528.9493 22.6523 99.2617
ENERGY: 1200000 0.3847 4.8561 0.2755 0.0000 -10796.5170 1465.5137 0.0000 0.0000 1713.3082 -7612.1788 287.2484 -9325.4870 -7650.7363 295.9526 77.0996 152.7402 31103.2333 23.3065 89.5895
ENERGY: 1500000 0.6954 2.2246 1.4672 0.0000 -10834.3200 1365.3696 0.0000 0.0000 1815.2072 -7649.3560 304.3324 -9464.5632 -7648.3850 297.5114 -1096.6484 -1075.4935 31274.4643 -69.0143 -8.0052
TCL: Running FEP window  14: Lambda1 0.34999999999999964 Lambda2 0.29999999999999966 [dLambda -0.04999999999999999]
TCL: Setting parameter firsttimestep to 0
TCL: Setting parameter alchLambda to 0.34999999999999964
Info: NONBONDED TABLE R-SQUARED SPACING: 0.0625
Info: NONBONDED TABLE SIZE: 705 POINTS
TCL: Setting parameter alchLambda2 to 0.29999999999999966
Info: NONBONDED TABLE R-SQUARED SPACING: 0.0625
Info: NONBONDED TABLE SIZE: 705 POINTS
TCL: Running for 1500000 steps
ETITLE: TS BOND ANGLE DIHED IMPRP ELECT VDW BOUNDARY MISC KINETIC TOTAL TEMP POTENTIAL TOTALAVG TEMPAVG PRESSURE GPRESSURE VOLUME PRESSAVG GPRESSAVG
ENERGY: 0 0.6954 2.2246 1.4672 0.0000 -10834.3205 1365.4841 0.0000 0.0000 1814.2805 -7650.1687 304.1771 -9464.4492 -7650.1687 304.1771 -1158.3239 -1077.8617 31274.4643 -1158.3239 -1077.8617
ENERGY: 300000 0.4802 3.1659 0.3488 0.0000 -10984.2172 1509.7786 0.0000 0.0000 1780.3686 -7690.0752 298.4915 -9470.4438 -7628.1646 304.4782 156.6211 258.7153 30733.5813 -62.6561 10.6356
ENERGY: 600000 0.1228 3.1642 0.5159 0.0000 -10973.2973 1525.5519 0.0000 0.0000 1776.4563 -7667.4861 297.8356 -9443.9424 -7630.2189 301.0268 524.0145 540.9646 30576.5276 -124.9690 -62.4868
ENERGY: 900000 0.0065 1.6560 0.1025 0.0000 -10781.1293 1352.9203 0.0000 0.0000 1810.1696 -7616.2743 303.4879 -9426.4439 -7623.0341 300.7481 -1040.5646 -923.7965 31018.5165 -211.4405 -144.5016
ENERGY: 1200000 0.1538 5.9432 0.1147 0.0000 -10960.2082 1488.1503 0.0000 0.0000 1850.7173 -7615.1289 310.2860 -9465.8462 -7610.4078 301.8718 190.7010 312.5264 30435.8491 -148.9069 -79.7882
ENERGY: 1500000 0.1953 1.2985 0.2806 0.0000 -10863.7886 1453.6926 0.0000 0.0000 1794.3862 -7613.9354 300.8416 -9408.3216 -7614.8093 301.8201 -214.5222 -107.0553 31121.3042 -191.9276 -118.0588
TCL: Running FEP window  15: Lambda1 0.29999999999999966 Lambda2 0.24999999999999967 [dLambda -0.04999999999999999]
TCL: Setting parameter firsttimestep to 0
TCL: Setting parameter alchLambda to 0.29999999999999966
Info: NONBONDED TABLE R-SQUARED SPACING: 0.0625
Info: NONBONDED TABLE SIZE: 705 POINTS
TCL: Setting parameter alchLambda2 to 0.24999999999999967
Info: NONBONDED TABLE R-SQUARED SPACING: 0.0625
Info: NONBONDED TABLE SIZE: 705 POINTS
TCL: Running for 1500000 steps
ETITLE: TS BOND ANGLE DIHED IMPRP ELECT VDW BOUNDARY MISC KINETIC TOTAL TEMP POTENTIAL TOTALAVG TEMPAVG PRESSURE GPRESSURE VOLUME PRESSAVG GPRESSAVG
ENERGY: 0 0.1953 1.2985 0.2806 0.0000 -10863.7895 1453.7562 0.0000 0.0000 1793.4824 -7614.7765 300.6901 -9408.2589 -7614.7765 300.6901 -185.6634 -107.1096 31121.3042 -185.6634 -107.1096
ENERGY: 300000 1.3390 3.2750 1.6507 0.0000 -10858.3784 1455.3408 0.0000 0.0000 1749.8677 -7646.9053 293.3778 -9396.7730 -7623.4001 299.6337 -88.2092 -90.8548 30799.0283 -354.9305 -314.7841
ENERGY: 600000 0.8414 2.2038 0.4278 0.0000 -11031.1571 1557.0891 0.0000 0.0000 1802.6245 -7667.9706 302.2229 -9470.5950 -7651.1448 299.4174 613.1223 689.1733 30530.6364 -306.2188 -243.1471
ENERGY: 900000 0.9611 2.2032 0.1680 0.0000 -10851.1090 1464.7392 0.0000 0.0000 1755.1340 -7627.9035 294.2607 -9383.0375 -7649.9322 299.6202 -62.2873 9.8121 31167.7367 -346.7327 -285.5896
ENERGY: 1200000 0.1863 1.3293 0.5275 0.0000 -10899.6731 1422.0584 0.0000 0.0000 1736.1904 -7739.3812 291.0847 -9475.5716 -7656.5326 299.7741 -681.8301 -595.4747 31083.7070 -319.5858 -250.0794
ENERGY: 1500000 0.3218 0.7620 0.4045 0.0000 -10731.5555 1388.3668 0.0000 0.0000 1748.6700 -7593.0304 293.1770 -9341.7003 -7654.0976 299.1314 -441.5955 -326.8700 31046.5871 -306.8295 -234.5187
TCL: Running FEP window  16: Lambda1 0.24999999999999967 Lambda2 0.19999999999999968 [dLambda -0.04999999999999999]
TCL: Setting parameter firsttimestep to 0
TCL: Setting parameter alchLambda to 0.24999999999999967
Info: NONBONDED TABLE R-SQUARED SPACING: 0.0625
Info: NONBONDED TABLE SIZE: 705 POINTS
TCL: Setting parameter alchLambda2 to 0.19999999999999968
Info: NONBONDED TABLE R-SQUARED SPACING: 0.0625
Info: NONBONDED TABLE SIZE: 705 POINTS
TCL: Running for 1500000 steps
ETITLE: TS BOND ANGLE DIHED IMPRP ELECT VDW BOUNDARY MISC KINETIC TOTAL TEMP POTENTIAL TOTALAVG TEMPAVG PRESSURE GPRESSURE VOLUME PRESSAVG GPRESSAVG
ENERGY: 0 0.3218 0.7620 0.4045 0.0000 -10731.5560 1388.5936 0.0000 0.0000 1747.7803 -7593.6938 293.0278 -9341.4741 -7593.6938 293.0278 -412.2143 -329.6508 31046.5871 -412.2143 -329.6508
ENERGY: 300000 0.3044 4.5049 0.2272 0.0000 -10963.7634 1458.8013 0.0000 0.0000 1785.7243 -7714.2013 299.3894 -9499.9257 -7634.4607 297.9686 -460.6067 -395.1052 30967.2012 -492.5023 -420.4245
ENERGY: 600000 0.0242 1.5502 0.1112 0.0000 -10926.1185 1478.8582 0.0000 0.0000 1729.2547 -7716.3201 289.9219 -9445.5748 -7645.7109 296.9162 -288.7194 -242.5117 31248.0513 -405.6131 -345.5670
ENERGY: 900000 0.1354 3.1713 0.4811 0.0000 -10858.1861 1481.0729 0.0000 0.0000 1770.0661 -7603.2594 296.7642 -9373.3254 -7627.2727 298.5955 195.3744 215.7126 30647.3396 -272.8590 -221.0639
ENERGY: 1200000 0.2450 2.4146 1.9387 0.0000 -10948.7274 1456.6442 0.0000 0.0000 1752.9430 -7734.5418 293.8934 -9487.4849 -7631.2846 299.3166 -126.6876 -48.4516 30577.8741 -277.2518 -217.3778
ENERGY: 1500000 0.0428 3.0016 0.6091 0.0000 -10862.7109 1448.8835 0.0000 0.0000 1830.5873 -7579.5866 306.9110 -9410.1739 -7633.2131 299.1676 -88.1248 -79.8891 30934.9331 -249.5592 -181.8367
TCL: Running FEP window  17: Lambda1 0.19999999999999968 Lambda2 0.1499999999999997 [dLambda -0.04999999999999999]
TCL: Setting parameter firsttimestep to 0
TCL: Setting parameter alchLambda to 0.19999999999999968
Info: NONBONDED TABLE R-SQUARED SPACING: 0.0625
Info: NONBONDED TABLE SIZE: 705 POINTS
TCL: Setting parameter alchLambda2 to 0.1499999999999997
Info: NONBONDED TABLE R-SQUARED SPACING: 0.0625
Info: NONBONDED TABLE SIZE: 705 POINTS
TCL: Running for 1500000 steps
ETITLE: TS BOND ANGLE DIHED IMPRP ELECT VDW BOUNDARY MISC KINETIC TOTAL TEMP POTENTIAL TOTALAVG TEMPAVG PRESSURE GPRESSURE VOLUME PRESSAVG GPRESSAVG
ENERGY: 0 0.0428 3.0016 0.6091 0.0000 -10862.7121 1449.1671 0.0000 0.0000 1829.7127 -7580.1788 306.7644 -9409.8916 -7580.1788 306.7644 -168.8558 -80.3023 30934.9331 -168.8558 -80.3023
ENERGY: 300000 0.7297 3.5066 0.6989 0.0000 -11049.3702 1551.6568 0.0000 0.0000 1758.2292 -7734.5490 294.7797 -9492.7782 -7666.8839 300.5088 432.0474 513.9647 30625.1409 -46.5657 17.6481
ENERGY: 600000 0.1254 4.7156 0.4464 0.0000 -10912.1580 1479.1155 0.0000 0.0000 1785.7814 -7641.9737 299.3990 -9427.7551 -7650.2906 300.9805 -39.2191 16.0518 30769.4835 -53.2171 0.3199
ENERGY: 900000 0.0822 4.6571 0.0259 0.0000 -10880.8116 1479.2310 0.0000 0.0000 1749.7494 -7647.0662 293.3580 -9396.8156 -7650.7079 299.4653 43.0012 165.1320 30787.7647 -54.8791 11.6847
ENERGY: 1200000 0.3251 2.0721 1.0797 0.0000 -11016.9525 1556.1611 0.0000 0.0000 1827.8534 -7629.4612 306.4527 -9457.3146 -7640.5132 300.6891 621.3235 715.8591 30634.7725 7.5260 81.1212
ENERGY: 1500000 1.8985 4.9805 0.3911 0.0000 -10934.5805 1530.7354 0.0000 0.0000 1848.2609 -7548.3142 309.8741 -9396.5751 -7638.4394 300.9516 532.2076 657.5401 30485.4469 62.5033 137.7129
TCL: Running FEP window  18: Lambda1 0.1499999999999997 Lambda2 0.09999999999999969 [dLambda -0.05 ]
TCL: Setting parameter firsttimestep to 0
TCL: Setting parameter alchLambda to 0.1499999999999997
Info: NONBONDED TABLE R-SQUARED SPACING: 0.0625
Info: NONBONDED TABLE SIZE: 705 POINTS
TCL: Setting parameter alchLambda2 to 0.09999999999999969
Info: NONBONDED TABLE R-SQUARED SPACING: 0.0625
Info: NONBONDED TABLE SIZE: 705 POINTS
TCL: Running for 1500000 steps
ETITLE: TS BOND ANGLE DIHED IMPRP ELECT VDW BOUNDARY MISC KINETIC TOTAL TEMP POTENTIAL TOTALAVG TEMPAVG PRESSURE GPRESSURE VOLUME PRESSAVG GPRESSAVG
ENERGY: 0 1.8985 4.9805 0.3911 0.0000 -10934.5795 1529.7721 0.0000 0.0000 1847.3858 -7550.1516 309.7274 -9397.5373 -7550.1516 309.7274 561.3374 650.8934 30485.4469 561.3374 650.8934
ENERGY: 300000 0.5498 3.9963 0.1228 0.0000 -10951.3505 1571.7793 0.0000 0.0000 1800.6139 -7574.2884 301.8858 -9374.9022 -7602.1325 302.7879 908.6334 1001.9119 30870.9138 262.4353 341.3161
ENERGY: 600000 0.0174 3.6408 1.6633 0.0000 -10841.3888 1435.8460 0.0000 0.0000 1791.1846 -7609.0365 300.3049 -9400.2211 -7584.2436 304.9517 -263.7921 -208.8474 31114.0810 240.2814 317.9346
ENERGY: 900000 0.2616 3.6111 1.5043 0.0000 -10776.4344 1413.9773 0.0000 0.0000 1797.8576 -7559.2225 301.4237 -9357.0800 -7577.0046 303.5793 -321.6052 -256.5552 30902.2623 129.9172 202.8495
ENERGY: 1200000 0.0213 3.9376 0.0985 0.0000 -10910.7529 1511.5811 0.0000 0.0000 1813.3604 -7581.7539 304.0228 -9395.1144 -7573.0405 304.1585 156.3114 252.3254 31474.0855 200.2904 267.6309
ENERGY: 1500000 0.9980 8.2228 1.3297 0.0000 -10921.6138 1481.3297 0.0000 0.0000 1830.7986 -7598.9350 306.9465 -9429.7336 -7577.7858 303.9136 265.6212 318.2451 30619.5919 207.3070 262.8907
TCL: Running FEP window  19: Lambda1 0.09999999999999969 Lambda2 0.049999999999999684 [dLambda -0.05 ]
TCL: Setting parameter firsttimestep to 0
TCL: Setting parameter alchLambda to 0.09999999999999969
Info: NONBONDED TABLE R-SQUARED SPACING: 0.0625
Info: NONBONDED TABLE SIZE: 705 POINTS
TCL: Setting parameter alchLambda2 to 0.049999999999999684
Info: NONBONDED TABLE R-SQUARED SPACING: 0.0625
Info: NONBONDED TABLE SIZE: 705 POINTS
TCL: Running for 1500000 steps
ETITLE: TS BOND ANGLE DIHED IMPRP ELECT VDW BOUNDARY MISC KINETIC TOTAL TEMP POTENTIAL TOTALAVG TEMPAVG PRESSURE GPRESSURE VOLUME PRESSAVG GPRESSAVG
ENERGY: 0 0.9980 8.2227 1.3297 0.0000 -10921.6149 1481.4121 0.0000 0.0000 1829.9116 -7599.7407 306.7977 -9429.6523 -7599.7407 306.7977 249.6085 318.5183 30619.5919 249.6085 318.5183
ENERGY: 300000 0.4661 5.0750 0.3315 0.0000 -10869.3590 1509.7955 0.0000 0.0000 1731.1290 -7622.5618 290.2361 -9353.6908 -7627.4358 298.1919 247.2933 332.2002 31135.6635 -17.7381 44.6226
ENERGY: 600000 0.7982 1.7841 0.3605 0.0000 -10970.2811 1577.5022 0.0000 0.0000 1779.9583 -7609.8778 298.4227 -9389.8361 -7627.8503 299.0077 915.3036 964.7017 30697.6597 24.8292 85.7661
ENERGY: 900000 0.1344 3.1307 0.3768 0.0000 -10745.7181 1357.7740 0.0000 0.0000 1823.2427 -7561.0595 305.6796 -9384.3022 -7616.1948 300.5017 -750.6173 -724.3434 31257.1086 -94.8576 -43.1960
ENERGY: 1200000 0.3084 2.0016 0.2791 0.0000 -11010.0324 1512.6478 0.0000 0.0000 1754.0502 -7740.7452 294.0790 -9494.7955 -7634.0010 299.2388 278.6761 323.0862 30622.2783 -36.7142 16.4300
ENERGY: 1500000 0.7416 5.2000 3.2830 0.0000 -10767.7342 1442.3694 0.0000 0.0000 1812.0111 -7504.1291 303.7966 -9316.1402 -7618.0289 300.3925 202.6753 213.0695 30931.4601 -49.4431 1.2609
TCL: Running FEP window  20: Lambda1 0.049999999999999684 Lambda2 0.0    [dLambda -0.049999999999999684]
TCL: Setting parameter firsttimestep to 0
TCL: Setting parameter alchLambda to 0.049999999999999684
Info: NONBONDED TABLE R-SQUARED SPACING: 0.0625
Info: NONBONDED TABLE SIZE: 705 POINTS
TCL: Setting parameter alchLambda2 to 0.0
Info: NONBONDED TABLE R-SQUARED SPACING: 0.0625
Info: NONBONDED TABLE SIZE: 705 POINTS
TCL: Running for 1500000 steps
ETITLE: TS BOND ANGLE DIHED IMPRP ELECT VDW BOUNDARY MISC KINETIC TOTAL TEMP POTENTIAL TOTALAVG TEMPAVG PRESSURE GPRESSURE VOLUME PRESSAVG GPRESSAVG
ENERGY: 0 0.7416 5.2000 3.2830 0.0000 -10767.7331 1442.2570 0.0000 0.0000 1811.0890 -7505.1625 303.6420 -9316.2515 -7505.1625 303.6420 135.6383 211.4225 30931.4601 135.6383 211.4225
ENERGY: 300000 0.8674 3.3109 0.2792 0.0000 -10857.2989 1438.4179 0.0000 0.0000 1779.6754 -7634.7482 298.3753 -9414.4236 -7625.0901 300.5406 -502.9909 -467.0251 31103.0400 27.5959 100.7086
ENERGY: 600000 0.2761 3.4735 1.1861 0.0000 -10810.5658 1358.3039 0.0000 0.0000 1852.3729 -7594.9534 310.5635 -9447.3263 -7604.3484 303.7872 -930.9937 -860.3086 30970.3428 -151.3327 -65.7356
ENERGY: 900000 0.1656 2.8178 0.3959 0.0000 -10900.2760 1515.1695 0.0000 0.0000 1737.1923 -7644.5348 291.2527 -9381.7271 -7625.1836 300.5411 606.3250 712.5812 30290.7042 -33.5870 42.0207
ENERGY: 1200000 0.0031 4.1733 0.4117 0.0000 -10896.7256 1460.4527 0.0000 0.0000 1800.3021 -7631.3827 301.8335 -9431.6848 -7640.5798 299.7532 -73.5077 -17.8149 30847.5008 49.5430 131.6509
ENERGY: 1500000 0.0546 4.6792 0.4057 0.0000 -10751.5565 1400.5668 0.0000 0.0000 1780.1896 -7565.6606 298.4615 -9345.8502 -7636.7666 299.5495 -448.7687 -416.7282 31390.9133 -35.1014 37.7138
TCL: Exiting due to exit command.
