Info: SIMULATION PARAMETERS:
Info: TIMESTEP               2
Info: NUMBER OF STEPS        0
Info: STEPS PER CYCLE        10
Info: PERIODIC CELL BASIS 1  32.1379 0 0
Info: PERIODIC CELL BASIS 2  0 29.9493 0
Info: PERIODIC CELL BASIS 3  0 0 31.3747
Info: PERIODIC CELL CENTER   0 0 0
Info: WRAPPING WATERS AROUND PERIODIC BOUNDARIES ON OUTPUT.
Info: WRAPPING ALL CLUSTERS AROUND PERIODIC BOUNDARIES ON OUTPUT.
Info: FIRST LDB TIMESTEP     50
Info: LAST LDB TIMESTEP     -1
Info: HOM BACKGROUND SCALING 1
Info: PME BACKGROUND SCALING 1
Info: MIN ATOMS PER PATCH    40
Info: EMPTY PATCH LOAD       40 ATOMS
Info: VELOCITY FILE          mobley_3105103_equil.vel
Info: CENTER OF MASS MOVING INITIALLY? NO
Info: DIELECTRIC             1
Info: EXCLUDE                SCALED ONE-FOUR
Info: 1-4 ELECTROSTATICS SCALED BY 0.833333
Info: MODIFIED 1-4 VDW PARAMETERS WILL BE USED
Info: DCD FILENAME           mobley_3105103_prod.dcd
Info: DCD FREQUENCY          100000
Info: DCD FIRST STEP         100000
Info: DCD FILE WILL CONTAIN UNIT CELL DATA
Info: XST FILENAME           mobley_3105103_prod.xst
Info: XST FREQUENCY          100000
Info: NO VELOCITY DCD OUTPUT
Info: NO FORCE DCD OUTPUT
Info: OUTPUT FILENAME        mobley_3105103_prod
Info: BINARY OUTPUT FILES WILL BE USED
Info: RESTART FILENAME       mobley_3105103_prod.restart
Info: RESTART FREQUENCY      100000
Info: BINARY RESTART FILES WILL BE USED
Info: CUTOFF                 9
Info: PAIRLIST DISTANCE      11
Info: PAIRLIST SHRINK RATE   0.01
Info: PAIRLIST GROW RATE     0.01
Info: PAIRLIST TRIGGER       0.3
Info: PAIRLISTS PER CYCLE    2
Info: PAIRLISTS ENABLED
Info: MARGIN                 2
Info: HYDROGEN GROUP CUTOFF  2.5
Info: PATCH DIMENSION        15.5
Info: ENERGY OUTPUT STEPS    100000
Info: ENERGY EVALUATION STEPS    100000
Info: OUTPUT ENERGY PRECISION 4
Info: CROSSTERM ENERGY INCLUDED IN DIHEDRAL
Info: TIMING OUTPUT STEPS    1000000
Info: PRESSURE OUTPUT STEPS  100000
Info: ALCHEMICAL FEP ON
Info: FEP CURRENT LAMBDA VALUE     0
Info: FEP COMPARISON LAMBDA VALUE  0.05
Info: FEP INTRA-ALCHEMICAL NON-BONDED INTERACTIONS WILL BE RETAINED
Info: FEP INTRA-ALCHEMICAL BONDED INTERACTIONS WILL BE RETAINED
Info: FEP VDW SHIFTING COEFFICIENT 5
Info: FEP ELEC. ACTIVE FOR ANNIHILATED PARTICLES BETWEEN LAMBDA = 0 AND LAMBDA = 0.5
Info: FEP ELEC. ACTIVE FOR EXNIHILATED PARTICLES BETWEEN LAMBDA = 0.5 AND LAMBDA = 1
Info: FEP VDW ACTIVE FOR ANNIHILATED PARTICLES BETWEEN LAMBDA = 0 AND LAMBDA = 1
Info: FEP VDW ACTIVE FOR EXNIHILATED PARTICLES BETWEEN LAMBDA = 0 AND LAMBDA = 1
Info: FEP BOND ACTIVE FOR ANNIHILATED PARTICLES BETWEEN LAMBDA = 1 AND LAMBDA = 1
Info: FEP BOND ACTIVE FOR EXNIHILATED PARTICLES BETWEEN LAMBDA = 0 AND LAMBDA = 0
Info: LANGEVIN DYNAMICS ACTIVE
Info: LANGEVIN TEMPERATURE   300
Info: LANGEVIN USING BBK INTEGRATOR
Info: LANGEVIN DAMPING COEFFICIENT IS 1 INVERSE PS
Info: LANGEVIN DYNAMICS APPLIED TO HYDROGENS
Info: LANGEVIN PISTON PRESSURE CONTROL ACTIVE
Info:        TARGET PRESSURE IS 1.01325 BAR
Info:     OSCILLATION PERIOD IS 50 FS
Info:             DECAY TIME IS 25 FS
Info:     PISTON TEMPERATURE IS 300 K
Info:       PRESSURE CONTROL IS GROUP-BASED
Info:    INITIAL STRAIN RATE IS -1.81446e-05 -1.81446e-05 -1.81446e-05
Info:       CELL FLUCTUATION IS ISOTROPIC
Info: PARTICLE MESH EWALD (PME) ACTIVE
Info: PME TOLERANCE               1e-06
Info: PME EWALD COEFFICIENT       0.348832
Info: PME INTERPOLATION ORDER     4
Info: PME GRID DIMENSIONS         36 32 32
Info: PME MAXIMUM GRID SPACING    1
Info: PME CALCULATION WILL BE PERFORMED ON GPU
Info: FULL ELECTROSTATIC EVALUATION FREQUENCY      2
Info: USING VERLET I (r-RESPA) MTS SCHEME.
Info: C1 SPLITTING OF LONG RANGE ELECTROSTATICS
Info: PLACING ATOMS IN PATCHES BY HYDROGEN GROUPS
Info: RIGID BONDS TO HYDROGEN : ALL
Info:         ERROR TOLERANCE : 1e-08
Info:          MAX ITERATIONS : 100
Info: RIGID WATER USING SETTLE ALGORITHM
Info: RANDOM NUMBER SEED     1743663569
Info: USE HYDROGEN BONDS?    NO
Info: Using AMBER format force field!
Info: AMBER PARM FILE        mobley_3105103.prmtop
Info: COORDINATE PDB         mobley_3105103.pdb
Info: Exclusions will be read from PARM file!
Info: SCNB (VDW SCALING)     2
Info: USING ARITHMETIC MEAN TO COMBINE L-J SIGMA PARAMETERS
Info: BINARY COORDINATES     mobley_3105103_equil.coor
Info: SUMMARY OF PARAMETERS:
Info: 13 BONDS
Info: 20 ANGLES
Info:   20 HARMONIC
Info:   0 COSINE-BASED
Info: 14 DIHEDRAL
Info: 0 IMPROPER
Info: 0 CROSSTERM
Info: 0 VDW
Info: 45 VDW_PAIRS
Info: 0 NBTHOLE_PAIRS
Info: To read alchdata from file: mobley_3105103.pdb
Info: To read alchflag data from column: 5
Info: STRUCTURE SUMMARY:
Info: 2943 ATOMS
Info: 2943 BONDS
Info: 48 ANGLES
Info: 88 DIHEDRALS
Info: 0 IMPROPERS
Info: 0 CROSSTERMS
Info: 3051 EXCLUSIONS
Info: 2929 RIGID BONDS
Info: ALCH: 0 ATOMS TO DISAPPEAR IN FINAL STATE
Info: ALCH: 27 ATOMS TO APPEAR IN FINAL STATE
Info: 5900 DEGREES OF FREEDOM
Info: 986 HYDROGEN GROUPS
Info: 4 ATOMS IN LARGEST HYDROGEN GROUP
Info: 986 MIGRATION GROUPS
Info: 4 ATOMS IN LARGEST MIGRATION GROUP
Info: TOTAL MASS = 17728.2 amu
Info: TOTAL CHARGE = 2.6077e-08 e
Info: MASS DENSITY = 0.974856 g/cm^3
Info: ATOM DENSITY = 0.0974555 atoms/A^3
Info: ADDED 0 IMPLICIT EXCLUSIONS
Info: NONBONDED TABLE R-SQUARED SPACING: 0.0625
Info: NONBONDED TABLE SIZE: 705 POINTS
Info: REMOVING COM VELOCITY -0.306359 -0.0599676 -0.0893828
Info: Use 3D box decompostion in PME FFT.
Info: Updated CUDA force table with 4096 elements.
Info: Updated CUDA LJ table with 9 x 9 elements.
Info: Found 29 unique exclusion lists needing 88 bytes
TCL: Running for 1500000 steps
ETITLE: TS BOND ANGLE DIHED IMPRP ELECT VDW BOUNDARY MISC KINETIC TOTAL TEMP POTENTIAL TOTALAVG TEMPAVG PRESSURE GPRESSURE VOLUME PRESSAVG GPRESSAVG
ENERGY: 0 9.5889 22.6810 13.9629 0.0000 -10802.0579 1481.7709 0.0000 0.0000 1786.2134 -7487.8409 304.6995 -9274.0542 -7487.8409 304.6995 190.3930 273.6210 30198.3947 190.3930 273.6210
ENERGY: 300000 5.5446 15.7869 13.8531 0.0000 -10900.7446 1540.5242 0.0000 0.0000 1737.3349 -7587.7009 296.3616 -9325.0358 -7479.8156 301.9821 646.9079 702.0658 29900.5533 -63.4747 26.9703
ENERGY: 600000 5.7766 16.7145 13.2270 0.0000 -10787.3590 1418.7539 0.0000 0.0000 1712.9156 -7619.9715 292.1960 -9332.8871 -7521.7820 300.1389 -285.5667 -269.7357 29872.4342 -148.2719 -86.7167
ENERGY: 900000 7.5256 24.2396 17.6892 0.0000 -10718.1300 1457.5879 0.0000 0.0000 1803.5481 -7407.5396 307.6565 -9211.0878 -7514.6362 301.0056 370.9230 356.4827 30169.1015 -156.5125 -95.9254
ENERGY: 1200000 8.7706 17.8477 17.6516 0.0000 -10708.7327 1427.9932 0.0000 0.0000 1712.6597 -7523.8099 292.1524 -9236.4696 -7508.8507 300.3560 -174.9050 -136.9385 29952.1930 -94.9579 -29.9133
ENERGY: 1500000 5.8515 22.2564 14.1539 0.0000 -10736.3374 1455.4693 0.0000 0.0000 1817.1213 -7421.4850 309.9719 -9238.6063 -7508.3873 300.2906 -54.0754 89.6279 30374.2477 -80.3475 -10.5869
TCL: Running FEP window   2: Lambda1 0.05   Lambda2 0.1    [dLambda 0.05  ]
TCL: Setting parameter firsttimestep to 0
TCL: Setting parameter alchLambda to 0.05
Info: NONBONDED TABLE R-SQUARED SPACING: 0.0625
Info: NONBONDED TABLE SIZE: 705 POINTS
TCL: Setting parameter alchLambda2 to 0.1
Info: NONBONDED TABLE R-SQUARED SPACING: 0.0625
Info: NONBONDED TABLE SIZE: 705 POINTS
TCL: Running for 1500000 steps
ETITLE: TS BOND ANGLE DIHED IMPRP ELECT VDW BOUNDARY MISC KINETIC TOTAL TEMP POTENTIAL TOTALAVG TEMPAVG PRESSURE GPRESSURE VOLUME PRESSAVG GPRESSAVG
ENERGY: 0 5.8515 22.2564 14.1539 0.0000 -10736.3370 1459.3536 0.0000 0.0000 1816.2518 -7418.4698 309.8235 -9234.7216 -7418.4698 309.8235 15.8365 98.5115 30374.2477 15.8365 98.5115
ENERGY: 300000 6.3973 16.5821 22.5643 0.0000 -10705.6445 1380.8820 0.0000 0.0000 1766.7962 -7512.4225 301.3872 -9279.2187 -7518.5470 302.4555 -670.5089 -511.1833 30345.6830 -409.8287 -299.7960
ENERGY: 600000 8.6167 23.4672 18.5277 0.0000 -10797.8916 1488.1127 0.0000 0.0000 1708.6931 -7550.4742 291.4758 -9259.1673 -7507.6649 299.3916 286.5028 405.3234 30111.2702 -189.2345 -97.1788
ENERGY: 900000 7.4568 22.8174 13.4731 0.0000 -10651.1313 1405.6585 0.0000 0.0000 1743.6952 -7458.0303 297.4465 -9201.7254 -7503.9442 299.9889 207.9729 216.8630 29988.8344 -129.8758 -58.4638
ENERGY: 1200000 7.3966 17.8762 15.8809 0.0000 -10780.4458 1490.7713 0.0000 0.0000 1795.3858 -7453.1350 306.2641 -9248.5207 -7506.2786 300.2901 505.5740 507.5792 29825.7389 -62.5274 9.7381
ENERGY: 1500000 4.3673 24.0426 14.2602 0.0000 -10782.4506 1435.4185 0.0000 0.0000 1731.7084 -7572.6535 295.4018 -9304.3619 -7510.2316 300.3588 -261.9338 -181.2323 30138.2551 -50.8106 19.7637
TCL: Running FEP window   3: Lambda1 0.1    Lambda2 0.15000000000000002 [dLambda 0.05000000000000002]
TCL: Setting parameter firsttimestep to 0
TCL: Setting parameter alchLambda to 0.1
Info: NONBONDED TABLE R-SQUARED SPACING: 0.0625
Info: NONBONDED TABLE SIZE: 705 POINTS
TCL: Setting parameter alchLambda2 to 0.15000000000000002
Info: NONBONDED TABLE R-SQUARED SPACING: 0.0625
Info: NONBONDED TABLE SIZE: 705 POINTS
TCL: Running for 1500000 steps
ETITLE: TS BOND ANGLE DIHED IMPRP ELECT VDW BOUNDARY MISC KINETIC TOTAL TEMP POTENTIAL TOTALAVG TEMPAVG PRESSURE GPRESSURE VOLUME PRESSAVG GPRESSAVG
ENERGY: 0 4.3673 24.0426 14.2602 0.0000 -10782.4509 1438.4988 0.0000 0.0000 1730.7875 -7570.4945 295.2447 -9301.2820 -7570.4945 295.2447 -259.1814 -169.5354 30138.2551 -259.1814 -169.5354
ENERGY: 300000 3.9256 24.0335 14.5968 0.0000 -10712.0005 1423.5782 0.0000 0.0000 1823.7994 -7422.0671 311.1111 -9245.8664 -7518.7530 300.6948 -10.5652 41.9222 30232.3176 -307.3985 -231.2353
ENERGY: 600000 10.4652 22.0525 19.9800 0.0000 -10776.9869 1421.1698 0.0000 0.0000 1728.2048 -7575.1147 294.8041 -9303.3195 -7502.9139 302.4012 -203.7960 -191.1780 29605.1419 -277.9553 -230.0166
ENERGY: 900000 9.2369 15.8923 15.2546 0.0000 -10639.4816 1388.4924 0.0000 0.0000 1756.3799 -7454.2256 299.6104 -9210.6056 -7503.0560 300.8867 -460.1458 -362.9878 30052.0179 -230.4720 -167.5493
ENERGY: 1200000 3.9258 20.1507 15.2540 0.0000 -10706.6580 1400.9780 0.0000 0.0000 1806.5024 -7459.8470 308.1605 -9266.3494 -7495.5195 302.8032 -298.3288 -239.5667 30170.0014 -210.7526 -141.3126
ENERGY: 1500000 10.4129 16.3962 13.5226 0.0000 -10652.8777 1417.7867 0.0000 0.0000 1757.1074 -7437.6518 299.7345 -9194.7593 -7492.6515 302.5148 -445.8599 -399.1904 30759.7343 -227.2321 -164.0389
TCL: Running FEP window   4: Lambda1 0.15000000000000002 Lambda2 0.2    [dLambda 0.04999999999999999]
TCL: Setting parameter firsttimestep to 0
TCL: Setting parameter alchLambda to 0.15000000000000002
Info: NONBONDED TABLE R-SQUARED SPACING: 0.0625
Info: NONBONDED TABLE SIZE: 705 POINTS
TCL: Setting parameter alchLambda2 to 0.2
Info: NONBONDED TABLE R-SQUARED SPACING: 0.0625
Info: NONBONDED TABLE SIZE: 705 POINTS
TCL: Running for 1500000 steps
ETITLE: TS BOND ANGLE DIHED IMPRP ELECT VDW BOUNDARY MISC KINETIC TOTAL TEMP POTENTIAL TOTALAVG TEMPAVG PRESSURE GPRESSURE VOLUME PRESSAVG GPRESSAVG
ENERGY: 0 10.4129 16.3962 13.5226 0.0000 -10652.8783 1417.8049 0.0000 0.0000 1756.2440 -7438.4976 299.5872 -9194.7416 -7438.4976 299.5872 -473.8750 -394.3903 30759.7343 -473.8750 -394.3903
ENERGY: 300000 7.0373 13.9590 14.4058 0.0000 -10798.1621 1391.7336 0.0000 0.0000 1771.2143 -7599.8121 302.1409 -9371.0265 -7496.0805 302.8960 -573.5034 -560.4997 30286.0892 -222.8405 -162.0833
ENERGY: 600000 8.4898 15.8801 19.8985 0.0000 -10775.4911 1430.9015 0.0000 0.0000 1765.3692 -7534.9521 301.1438 -9300.3212 -7502.2795 302.3112 -38.9215 58.1506 29656.3975 -138.0764 -66.6952
ENERGY: 900000 8.2886 12.9735 16.3979 0.0000 -10723.6334 1453.0646 0.0000 0.0000 1753.7501 -7479.1587 299.1618 -9232.9088 -7505.0669 301.1211 135.0486 213.2874 30456.1332 -115.3305 -42.3972
ENERGY: 1200000 7.3522 14.3761 15.3011 0.0000 -10755.6720 1410.7360 0.0000 0.0000 1777.4795 -7530.4270 303.2096 -9307.9065 -7511.1964 301.1637 10.8970 -1.8295 29921.2058 -99.9090 -33.2600
ENERGY: 1500000 6.7382 20.8764 15.5858 0.0000 -10821.1454 1429.9710 0.0000 0.0000 1745.5003 -7602.4737 297.7545 -9347.9740 -7515.2151 300.9628 -541.2996 -490.9425 30499.2199 -156.8320 -96.4005
TCL: Running FEP window   5: Lambda1 0.2    Lambda2 0.25   [dLambda 0.04999999999999999]
TCL: Setting parameter firsttimestep to 0
TCL: Setting parameter alchLambda to 0.2
Info: NONBONDED TABLE R-SQUARED SPACING: 0.0625
Info: NONBONDED TABLE SIZE: 705 POINTS
TCL: Setting parameter alchLambda2 to 0.25
Info: NONBONDED TABLE R-SQUARED SPACING: 0.0625
Info: NONBONDED TABLE SIZE: 705 POINTS
TCL: Running for 1500000 steps
ETITLE: TS BOND ANGLE DIHED IMPRP ELECT VDW BOUNDARY MISC KINETIC TOTAL TEMP POTENTIAL TOTALAVG TEMPAVG PRESSURE GPRESSURE VOLUME PRESSAVG GPRESSAVG
ENERGY: 0 6.7382 20.8764 15.5858 0.0000 -10821.1442 1429.9798 0.0000 0.0000 1744.6817 -7603.2823 297.6148 -9347.9640 -7603.2823 297.6148 -557.4596 -485.8079 30499.2199 -557.4596 -485.8079
ENERGY: 300000 11.6838 14.2087 18.3890 0.0000 -10966.2424 1494.8163 0.0000 0.0000 1781.2489 -7645.8958 303.8526 -9427.1447 -7577.7804 299.3656 22.8777 105.2975 30067.9475 -114.0136 -55.4118
ENERGY: 600000 4.4856 18.0485 14.5359 0.0000 -10945.6813 1534.0724 0.0000 0.0000 1790.3637 -7584.1754 305.4075 -9374.5391 -7548.3617 301.2547 678.5958 651.5085 29797.4432 3.2407 30.6325
ENERGY: 900000 3.9994 22.6723 14.5545 0.0000 -10840.2824 1530.2604 0.0000 0.0000 1786.8058 -7481.9900 304.8005 -9268.7958 -7534.8693 301.6920 721.9866 736.9814 30286.8691 69.1039 100.4681
ENERGY: 1200000 8.4852 24.1297 15.2441 0.0000 -10732.7510 1467.2331 0.0000 0.0000 1773.3500 -7444.3089 302.5052 -9217.6589 -7530.7161 301.0801 634.3053 759.0628 29795.5209 190.0150 234.6942
ENERGY: 1500000 9.9804 13.6389 16.8555 0.0000 -10793.5267 1456.7095 0.0000 0.0000 1791.1057 -7505.2368 305.5340 -9296.3426 -7531.0258 301.3338 91.6143 136.2402 29964.9040 156.9609 206.3261
TCL: Running FEP window   6: Lambda1 0.25   Lambda2 0.3    [dLambda 0.04999999999999999]
TCL: Setting parameter firsttimestep to 0
TCL: Setting parameter alchLambda to 0.25
Info: NONBONDED TABLE R-SQUARED SPACING: 0.0625
Info: NONBONDED TABLE SIZE: 705 POINTS
TCL: Setting parameter alchLambda2 to 0.3
Info: NONBONDED TABLE R-SQUARED SPACING: 0.0625
Info: NONBONDED TABLE SIZE: 705 POINTS
TCL: Running for 1500000 steps
ETITLE: TS BOND ANGLE DIHED IMPRP ELECT VDW BOUNDARY MISC KINETIC TOTAL TEMP POTENTIAL TOTALAVG TEMPAVG PRESSURE GPRESSURE VOLUME PRESSAVG GPRESSAVG
ENERGY: 0 9.9804 13.6389 16.8555 0.0000 -10793.5273 1459.4039 0.0000 0.0000 1790.2243 -7503.4244 305.3837 -9293.6487 -7503.4244 305.3837 66.9422 157.8119 29964.9040 66.9422 157.8119
ENERGY: 300000 5.7173 21.9913 14.8247 0.0000 -10685.7352 1342.7788 0.0000 0.0000 1749.7545 -7550.6686 298.4802 -9300.4231 -7535.4696 299.9072 -907.4011 -871.7940 30459.8308 -343.4323 -271.2611
ENERGY: 600000 11.1919 16.5783 15.5984 0.0000 -10728.3603 1389.5742 0.0000 0.0000 1764.8110 -7530.6064 301.0486 -9295.4175 -7562.0053 299.0430 -458.4863 -457.3566 30136.7313 -273.2779 -233.1957
ENERGY: 900000 11.5519 13.2965 13.1640 0.0000 -10653.3573 1359.4145 0.0000 0.0000 1741.4736 -7514.4568 297.0676 -9255.9304 -7549.0151 298.6562 -359.0477 -333.6048 30042.0252 -294.4842 -260.9606
ENERGY: 1200000 5.3305 21.4156 15.0185 0.0000 -10665.8351 1353.1104 0.0000 0.0000 1690.4735 -7580.4868 288.3678 -9270.9602 -7533.0806 298.4210 -773.7822 -689.2948 30236.1973 -362.8786 -316.7462
ENERGY: 1500000 7.8600 19.4958 15.0341 0.0000 -10767.4137 1525.4787 0.0000 0.0000 1758.9522 -7440.5929 300.0492 -9199.5451 -7529.8013 298.4406 1133.5512 1199.6273 30070.3130 -322.5931 -273.6933
TCL: Running FEP window   7: Lambda1 0.3    Lambda2 0.35   [dLambda 0.04999999999999999]
TCL: Setting parameter firsttimestep to 0
TCL: Setting parameter alchLambda to 0.3
Info: NONBONDED TABLE R-SQUARED SPACING: 0.0625
Info: NONBONDED TABLE SIZE: 705 POINTS
TCL: Setting parameter alchLambda2 to 0.35
Info: NONBONDED TABLE R-SQUARED SPACING: 0.0625
Info: NONBONDED TABLE SIZE: 705 POINTS
TCL: Running for 1500000 steps
ETITLE: TS BOND ANGLE DIHED IMPRP ELECT VDW BOUNDARY MISC KINETIC TOTAL TEMP POTENTIAL TOTALAVG TEMPAVG PRESSURE GPRESSURE VOLUME PRESSAVG GPRESSAVG
ENERGY: 0 7.8600 19.4958 15.0341 0.0000 -10767.4122 1526.0008 0.0000 0.0000 1758.0866 -7440.9349 299.9015 -9199.0215 -7440.9349 299.9015 1118.5649 1206.7992 30070.3130 1118.5649 1206.7992
ENERGY: 300000 7.2615 17.4782 15.6570 0.0000 -10772.0621 1400.2492 0.0000 0.0000 1761.9090 -7569.5071 300.5535 -9331.4162 -7515.6626 300.4154 -620.8393 -563.3962 30415.9112 -52.5976 -1.1972
ENERGY: 600000 5.6462 18.6826 15.5575 0.0000 -10760.2323 1462.5677 0.0000 0.0000 1739.5875 -7518.1907 296.7459 -9257.7783 -7514.9408 299.4678 134.1715 199.1499 30098.7001 -84.8951 -22.5709
ENERGY: 900000 7.1294 17.7658 14.2981 0.0000 -10766.1340 1446.1477 0.0000 0.0000 1755.0340 -7525.7590 299.3808 -9280.7930 -7535.5214 299.0316 -54.7882 13.5090 30199.4883 -108.4817 -46.8867
ENERGY: 1200000 3.0919 19.3069 14.3563 0.0000 -10779.5937 1442.4892 0.0000 0.0000 1754.6460 -7545.7035 299.3146 -9300.3495 -7536.1710 300.1107 314.4148 322.3084 29983.5921 -94.8821 -35.5365
ENERGY: 1500000 7.0013 18.3051 13.2027 0.0000 -10717.8570 1442.2585 0.0000 0.0000 1689.9924 -7547.0970 288.2857 -9237.0894 -7524.2000 299.3889 -102.5932 -74.2013 30628.0742 -71.7856 -11.2345
TCL: Running FEP window   8: Lambda1 0.35   Lambda2 0.39999999999999997 [dLambda 0.04999999999999999]
TCL: Setting parameter firsttimestep to 0
TCL: Setting parameter alchLambda to 0.35
Info: NONBONDED TABLE R-SQUARED SPACING: 0.0625
Info: NONBONDED TABLE SIZE: 705 POINTS
TCL: Setting parameter alchLambda2 to 0.39999999999999997
Info: NONBONDED TABLE R-SQUARED SPACING: 0.0625
Info: NONBONDED TABLE SIZE: 705 POINTS
TCL: Running for 1500000 steps
ETITLE: TS BOND ANGLE DIHED IMPRP ELECT VDW BOUNDARY MISC KINETIC TOTAL TEMP POTENTIAL TOTALAVG TEMPAVG PRESSURE GPRESSURE VOLUME PRESSAVG GPRESSAVG
ENERGY: 0 7.0013 18.3051 13.2027 0.0000 -10717.8570 1442.2935 0.0000 0.0000 1689.0746 -7547.9797 288.1292 -9237.0543 -7547.9797 288.1292 -144.3260 -68.0233 30628.0742 -144.3260 -68.0233
ENERGY: 300000 3.7854 18.4104 20.3533 0.0000 -10789.1140 1458.2956 0.0000 0.0000 1705.7964 -7582.4728 290.9816 -9288.2692 -7570.1695 297.2610 17.0545 116.4692 30185.8693 -5.1458 80.3513
ENERGY: 600000 11.1872 18.2797 13.5935 0.0000 -10850.4243 1481.1433 0.0000 0.0000 1775.4297 -7550.7909 302.8599 -9326.2206 -7567.6503 297.1781 97.5731 179.8999 30070.9333 65.2059 140.1933
ENERGY: 900000 4.9780 20.6080 17.1306 0.0000 -10793.0328 1458.0084 0.0000 0.0000 1795.1794 -7497.1285 306.2289 -9292.3078 -7545.5369 299.0351 -26.0008 24.7249 30568.9049 -79.3699 -19.0487
ENERGY: 1200000 3.5778 15.3418 14.2089 0.0000 -10807.1788 1481.7748 0.0000 0.0000 1823.9545 -7468.3209 311.1375 -9292.2755 -7525.1896 301.3965 343.4224 475.4642 30122.9707 -64.2931 0.6915
ENERGY: 1500000 6.2447 14.1646 18.7487 0.0000 -10724.1226 1339.7128 0.0000 0.0000 1753.6228 -7591.6291 299.1400 -9345.2518 -7526.7928 301.1949 -1088.2517 -1077.2669 30379.2177 -239.7373 -176.9707
TCL: Running FEP window   9: Lambda1 0.39999999999999997 Lambda2 0.44999999999999996 [dLambda 0.04999999999999999]
TCL: Setting parameter firsttimestep to 0
TCL: Setting parameter alchLambda to 0.39999999999999997
Info: NONBONDED TABLE R-SQUARED SPACING: 0.0625
Info: NONBONDED TABLE SIZE: 705 POINTS
TCL: Setting parameter alchLambda2 to 0.44999999999999996
Info: NONBONDED TABLE R-SQUARED SPACING: 0.0625
Info: NONBONDED TABLE SIZE: 705 POINTS
TCL: Running for 1500000 steps
ETITLE: TS BOND ANGLE DIHED IMPRP ELECT VDW BOUNDARY MISC KINETIC TOTAL TEMP POTENTIAL TOTALAVG TEMPAVG PRESSURE GPRESSURE VOLUME PRESSAVG GPRESSAVG
ENERGY: 0 6.2447 14.1646 18.7487 0.0000 -10724.1235 1339.5176 0.0000 0.0000 1752.7681 -7592.6798 298.9942 -9345.4479 -7592.6798 298.9942 -1139.4789 -1071.8175 30379.2177 -1139.4789 -1071.8175
ENERGY: 300000 4.2412 20.9564 16.9995 0.0000 -10764.5048 1458.4569 0.0000 0.0000 1750.8824 -7512.9684 298.6726 -9263.8508 -7540.5322 297.3166 -20.8694 140.7341 30213.6276 -420.4595 -329.2667
ENERGY: 600000 6.8946 16.7522 14.7156 0.0000 -10847.5584 1531.8433 0.0000 0.0000 1762.6299 -7514.7228 300.6765 -9277.3527 -7515.2608 298.0208 667.6516 725.0400 30387.7185 -62.8892 15.9813
ENERGY: 900000 9.6812 18.3348 14.0057 0.0000 -10617.5052 1336.3771 0.0000 0.0000 1754.7594 -7484.3471 299.3339 -9239.1064 -7501.6820 298.6622 -755.8698 -636.2540 29818.8227 -158.1801 -80.8530
ENERGY: 1200000 8.4147 19.2031 17.5862 0.0000 -10842.1515 1464.6711 0.0000 0.0000 1742.9602 -7589.3162 297.3212 -9332.2764 -7510.3503 298.9646 125.8200 211.9948 29913.6082 -53.1699 17.8879
ENERGY: 1500000 6.9031 15.7554 14.9472 0.0000 -10785.0318 1468.5172 0.0000 0.0000 1764.5648 -7514.3441 301.0066 -9278.9089 -7515.1310 298.9692 229.3784 259.2922 30326.6911 -26.4945 37.1202
TCL: Running FEP window  10: Lambda1 0.44999999999999996 Lambda2 0.49999999999999994 [dLambda 0.04999999999999999]
TCL: Setting parameter firsttimestep to 0
TCL: Setting parameter alchLambda to 0.44999999999999996
Info: NONBONDED TABLE R-SQUARED SPACING: 0.0625
Info: NONBONDED TABLE SIZE: 705 POINTS
TCL: Setting parameter alchLambda2 to 0.49999999999999994
Info: NONBONDED TABLE R-SQUARED SPACING: 0.0625
Info: NONBONDED TABLE SIZE: 705 POINTS
TCL: Running for 1500000 steps
ETITLE: TS BOND ANGLE DIHED IMPRP ELECT VDW BOUNDARY MISC KINETIC TOTAL TEMP POTENTIAL TOTALAVG TEMPAVG PRESSURE GPRESSURE VOLUME PRESSAVG GPRESSAVG
ENERGY: 0 6.9031 15.7554 14.9472 0.0000 -10785.0338 1468.4830 0.0000 0.0000 1763.6395 -7515.3056 300.8487 -9278.9451 -7515.3056 300.8487 198.2594 270.6586 30326.6911 198.2594 270.6586
ENERGY: 300000 2.5812 15.1512 14.3464 0.0000 -10842.7081 1512.2573 0.0000 0.0000 1730.8205 -7567.5514 295.2503 -9298.3719 -7513.3255 296.9572 603.4899 691.6594 30211.3061 137.9391 200.5983
ENERGY: 600000 5.9094 18.9516 12.5829 0.0000 -10722.8710 1417.1260 0.0000 0.0000 1813.0137 -7455.2875 309.2712 -9268.3011 -7513.0477 298.5566 140.9974 148.5568 29965.0457 264.1931 317.9639
ENERGY: 900000 5.1334 23.8669 12.8063 0.0000 -10756.1320 1440.9466 0.0000 0.0000 1748.9675 -7524.4113 298.3459 -9273.3788 -7512.1980 299.4046 141.6627 243.4735 30147.0502 286.9749 345.8131
ENERGY: 1200000 8.7170 23.1697 14.0163 0.0000 -10700.0625 1339.8283 0.0000 0.0000 1731.6291 -7582.7021 295.3883 -9314.3312 -7525.7082 297.9267 -967.1504 -838.5178 30056.5193 131.2196 196.5382
ENERGY: 1500000 10.0288 13.8348 13.5504 0.0000 -10681.1792 1410.6936 0.0000 0.0000 1746.7736 -7486.2980 297.9717 -9233.0716 -7522.1983 298.1649 -421.1045 -328.4437 30395.6930 112.8410 177.1946
TCL: Running FEP window  11: Lambda1 0.49999999999999994 Lambda2 0.5499999999999999 [dLambda 0.04999999999999999]
TCL: Setting parameter firsttimestep to 0
TCL: Setting parameter alchLambda to 0.49999999999999994
Info: NONBONDED TABLE R-SQUARED SPACING: 0.0625
Info: NONBONDED TABLE SIZE: 705 POINTS
TCL: Setting parameter alchLambda2 to 0.5499999999999999
Info: NONBONDED TABLE R-SQUARED SPACING: 0.0625
Info: NONBONDED TABLE SIZE: 705 POINTS
TCL: Running for 1500000 steps
ETITLE: TS BOND ANGLE DIHED IMPRP ELECT VDW BOUNDARY MISC KINETIC TOTAL TEMP POTENTIAL TOTALAVG TEMPAVG PRESSURE GPRESSURE VOLUME PRESSAVG GPRESSAVG
ENERGY: 0 10.0288 13.8348 13.5504 0.0000 -10681.1795 1410.0496 0.0000 0.0000 1745.8628 -7487.8531 297.8163 -9233.7158 -7487.8531 297.8163 -410.7860 -322.6115 30395.6930 -410.7860 -322.6115
ENERGY: 300000 3.6174 21.1328 13.0019 0.0000 -10792.8410 1509.3080 0.0000 0.0000 1804.1737 -7441.6072 307.7632 -9245.7809 -7489.8494 299.9293 813.2536 848.9885 30369.3597 103.8173 162.8832
ENERGY: 600000 4.0001 20.7424 12.5758 0.0000 -10724.5878 1455.9432 0.0000 0.0000 1765.8113 -7465.5150 301.2192 -9231.3263 -7507.8331 300.4022 269.2888 363.1606 30390.7237 -157.1699 -83.1173
ENERGY: 900000 5.1322 15.0300 18.9349 0.0000 -10727.6490 1461.1451 0.0000 0.0000 1793.8469 -7433.5601 306.0016 -9227.4069 -7512.0113 300.7247 448.9018 505.2064 30325.0702 -35.1526 33.1877
ENERGY: 1200000 7.6072 18.6003 14.2269 0.0000 -10567.1311 1321.8858 0.0000 0.0000 1747.7601 -7457.0508 298.1400 -9204.8109 -7516.4805 299.6971 -543.9128 -493.6310 30372.9254 -51.0441 15.0402
ENERGY: 1500000 9.4869 13.1075 18.2587 0.0000 -10718.3419 1325.8289 0.0000 0.0000 1772.0612 -7579.5988 302.2853 -9351.6600 -7509.8101 300.7143 -996.6769 -937.2562 29844.1519 -63.3371 1.1243
TCL: Running FEP window  12: Lambda1 0.5499999999999999 Lambda2 0.6    [dLambda 0.050000000000000044]
TCL: Setting parameter firsttimestep to 0
TCL: Setting parameter alchLambda to 0.5499999999999999
Info: NONBONDED TABLE R-SQUARED SPACING: 0.0625
Info: NONBONDED TABLE SIZE: 705 POINTS
TCL: Setting parameter alchLambda2 to 0.6
Info: NONBONDED TABLE R-SQUARED SPACING: 0.0625
Info: NONBONDED TABLE SIZE: 705 POINTS
TCL: Running for 1500000 steps
ETITLE: TS BOND ANGLE DIHED IMPRP ELECT VDW BOUNDARY MISC KINETIC TOTAL TEMP POTENTIAL TOTALAVG TEMPAVG PRESSURE GPRESSURE VOLUME PRESSAVG GPRESSAVG
ENERGY: 0 9.4869 13.1075 18.2587 0.0000 -10719.1899 1325.2461 0.0000 0.0000 1771.1465 -7581.9443 302.1293 -9353.0908 -7581.9443 302.1293 -1029.3664 -928.5101 29844.1519 -1029.3664 -928.5101
ENERGY: 300000 8.3863 21.8854 13.9063 0.0000 -10958.3532 1515.6199 0.0000 0.0000 1742.4018 -7656.1536 297.2259 -9398.5554 -7580.2406 299.7566 487.1440 530.0523 29823.5134 -399.2129 -340.5423
ENERGY: 600000 6.2093 18.4762 20.9610 0.0000 -10857.6350 1474.2658 0.0000 0.0000 1743.6796 -7594.0431 297.4439 -9337.7227 -7572.6174 298.4479 201.1255 256.5521 30172.4621 -140.4495 -90.8800
ENERGY: 900000 3.1454 19.5232 14.8233 0.0000 -10782.0677 1415.7714 0.0000 0.0000 1782.9173 -7545.8872 304.1372 -9328.8045 -7565.0906 300.2957 -227.7240 -163.7653 30162.7834 -101.3553 -38.8391
ENERGY: 1200000 9.3337 17.8030 13.7008 0.0000 -10831.9032 1481.1840 0.0000 0.0000 1753.7659 -7556.1159 299.1645 -9309.8818 -7559.9058 299.9608 166.3812 322.1485 30144.1852 -106.8155 -37.4602
ENERGY: 1500000 6.8841 22.4707 15.3526 0.0000 -10714.5990 1410.8598 0.0000 0.0000 1771.3693 -7487.6624 302.1673 -9259.0317 -7540.2732 300.2476 -612.1245 -565.4907 31242.8441 -118.5696 -47.7466
TCL: Running FEP window  13: Lambda1 0.6    Lambda2 0.65   [dLambda 0.050000000000000044]
TCL: Setting parameter firsttimestep to 0
TCL: Setting parameter alchLambda to 0.6
Info: NONBONDED TABLE R-SQUARED SPACING: 0.0625
Info: NONBONDED TABLE SIZE: 705 POINTS
TCL: Setting parameter alchLambda2 to 0.65
Info: NONBONDED TABLE R-SQUARED SPACING: 0.0625
Info: NONBONDED TABLE SIZE: 705 POINTS
TCL: Running for 1500000 steps
ETITLE: TS BOND ANGLE DIHED IMPRP ELECT VDW BOUNDARY MISC KINETIC TOTAL TEMP POTENTIAL TOTALAVG TEMPAVG PRESSURE GPRESSURE VOLUME PRESSAVG GPRESSAVG
ENERGY: 0 6.8841 22.4707 15.3526 0.0000 -10714.7406 1410.6861 0.0000 0.0000 1770.5031 -7488.8439 302.0196 -9259.3471 -7488.8439 302.0196 -634.6553 -561.5870 31242.8441 -634.6553 -561.5870
ENERGY: 300000 7.4388 21.0665 21.4803 0.0000 -10658.6479 1362.8033 0.0000 0.0000 1740.3955 -7505.4635 296.8837 -9245.8590 -7489.8719 297.7063 -502.7629 -429.9055 30375.5273 -699.3050 -646.7682
ENERGY: 600000 12.9524 22.2935 14.7846 0.0000 -10765.3793 1398.7114 0.0000 0.0000 1746.3440 -7570.2935 297.8984 -9316.6375 -7510.3170 300.0471 -216.3990 -199.5907 29972.1723 -425.3293 -376.1229
ENERGY: 900000 4.5696 19.6510 19.7372 0.0000 -10751.2425 1405.6438 0.0000 0.0000 1713.2803 -7588.3606 292.2583 -9301.6409 -7520.9213 299.2475 -201.7671 -173.4639 30009.6905 -285.5047 -236.3915
ENERGY: 1200000 8.5212 24.9964 12.4550 0.0000 -10831.9689 1518.9495 0.0000 0.0000 1738.7892 -7528.2576 296.6097 -9267.0468 -7515.7601 299.4535 951.0745 939.1199 30135.5282 -166.7685 -122.9772
ENERGY: 1500000 7.4266 18.2297 15.8390 0.0000 -10903.3740 1479.7725 0.0000 0.0000 1784.3645 -7597.7417 304.3841 -9382.1062 -7525.6789 299.8249 233.9377 315.9128 29851.8823 -112.5444 -67.5479
TCL: Running FEP window  14: Lambda1 0.65   Lambda2 0.7000000000000001 [dLambda 0.050000000000000044]
TCL: Setting parameter firsttimestep to 0
TCL: Setting parameter alchLambda to 0.65
Info: NONBONDED TABLE R-SQUARED SPACING: 0.0625
Info: NONBONDED TABLE SIZE: 705 POINTS
TCL: Setting parameter alchLambda2 to 0.7000000000000001
Info: NONBONDED TABLE R-SQUARED SPACING: 0.0625
Info: NONBONDED TABLE SIZE: 705 POINTS
TCL: Running for 1500000 steps
ETITLE: TS BOND ANGLE DIHED IMPRP ELECT VDW BOUNDARY MISC KINETIC TOTAL TEMP POTENTIAL TOTALAVG TEMPAVG PRESSURE GPRESSURE VOLUME PRESSAVG GPRESSAVG
ENERGY: 0 7.4266 18.2297 15.8390 0.0000 -10904.1967 1479.8153 0.0000 0.0000 1783.4893 -7599.3968 304.2348 -9382.8861 -7599.3968 304.2348 244.6481 327.9734 29851.8823 244.6481 327.9734
ENERGY: 300000 3.9556 21.6650 17.3430 0.0000 -10637.3731 1328.1211 0.0000 0.0000 1793.3883 -7472.9000 305.9234 -9266.2884 -7533.2765 302.9823 -938.8612 -891.4778 30571.4098 -381.6540 -301.3188
ENERGY: 600000 9.2542 16.9991 17.7422 0.0000 -10760.6918 1474.5079 0.0000 0.0000 1743.5459 -7498.6424 297.4211 -9242.1884 -7551.6464 300.4315 329.6469 408.5718 30049.0059 -239.6035 -160.1423
ENERGY: 900000 9.1059 13.2393 17.3255 0.0000 -10891.9167 1429.0324 0.0000 0.0000 1721.8369 -7701.3769 293.7179 -9423.2137 -7566.8781 298.0891 -394.3170 -313.4908 29790.1437 -118.4892 -30.4338
ENERGY: 1200000 8.2269 23.6151 18.9936 0.0000 -10759.6724 1422.8249 0.0000 0.0000 1756.9959 -7529.0159 299.7154 -9286.0119 -7547.5542 299.1449 -38.9673 -0.3727 30250.6513 -86.4495 -16.2863
ENERGY: 1500000 7.2537 18.8694 16.6777 0.0000 -10851.4815 1495.2038 0.0000 0.0000 1809.3219 -7504.1551 308.6414 -9313.4770 -7551.3539 298.8067 368.8833 388.7787 30411.0263 -98.2384 -34.4696
TCL: Running FEP window  15: Lambda1 0.7000000000000001 Lambda2 0.7500000000000001 [dLambda 0.050000000000000044]
TCL: Setting parameter firsttimestep to 0
TCL: Setting parameter alchLambda to 0.7000000000000001
Info: NONBONDED TABLE R-SQUARED SPACING: 0.0625
Info: NONBONDED TABLE SIZE: 705 POINTS
TCL: Setting parameter alchLambda2 to 0.7500000000000001
Info: NONBONDED TABLE R-SQUARED SPACING: 0.0625
Info: NONBONDED TABLE SIZE: 705 POINTS
TCL: Running for 1500000 steps
ETITLE: TS BOND ANGLE DIHED IMPRP ELECT VDW BOUNDARY MISC KINETIC TOTAL TEMP POTENTIAL TOTALAVG TEMPAVG PRESSURE GPRESSURE VOLUME PRESSAVG GPRESSAVG
ENERGY: 0 7.2537 18.8694 16.6777 0.0000 -10853.0289 1497.1832 0.0000 0.0000 1808.4472 -7504.5978 308.4922 -9313.0450 -7504.5978 308.4922 328.8605 423.8078 30411.0263 328.8605 423.8078
ENERGY: 300000 8.4852 18.2326 15.6937 0.0000 -10894.4351 1559.1279 0.0000 0.0000 1729.9785 -7562.9173 295.1067 -9292.8957 -7529.0458 299.8057 966.1946 1027.8768 30280.9473 167.4835 215.0673
ENERGY: 600000 3.2001 14.4670 15.5250 0.0000 -10782.7799 1429.4701 0.0000 0.0000 1786.8301 -7533.2875 304.8047 -9320.1177 -7532.2072 300.4337 -204.1902 -108.8742 30658.7923 -75.7412 -25.0725
ENERGY: 900000 5.8924 18.8821 17.7676 0.0000 -10845.2076 1454.1242 0.0000 0.0000 1733.4834 -7615.0579 295.7046 -9348.5413 -7538.9186 300.6373 -22.6930 57.4268 30364.1788 -119.0245 -72.8675
ENERGY: 1200000 7.4749 17.0670 16.1667 0.0000 -10845.0659 1465.3777 0.0000 0.0000 1763.7333 -7575.2464 300.8647 -9338.9796 -7547.6145 299.8808 200.2064 257.2601 29828.0155 -133.3207 -86.4847
ENERGY: 1500000 5.9947 16.8741 16.8576 0.0000 -10773.1223 1443.1002 0.0000 0.0000 1728.9573 -7561.3383 294.9325 -9290.2956 -7548.6490 298.9778 -85.1215 10.7959 30535.5084 -115.8550 -66.3997
TCL: Running FEP window  16: Lambda1 0.7500000000000001 Lambda2 0.8000000000000002 [dLambda 0.050000000000000044]
TCL: Setting parameter firsttimestep to 0
TCL: Setting parameter alchLambda to 0.7500000000000001
Info: NONBONDED TABLE R-SQUARED SPACING: 0.0625
Info: NONBONDED TABLE SIZE: 705 POINTS
TCL: Setting parameter alchLambda2 to 0.8000000000000002
Info: NONBONDED TABLE R-SQUARED SPACING: 0.0625
Info: NONBONDED TABLE SIZE: 705 POINTS
TCL: Running for 1500000 steps
ETITLE: TS BOND ANGLE DIHED IMPRP ELECT VDW BOUNDARY MISC KINETIC TOTAL TEMP POTENTIAL TOTALAVG TEMPAVG PRESSURE GPRESSURE VOLUME PRESSAVG GPRESSAVG
ENERGY: 0 5.9947 16.8741 16.8576 0.0000 -10775.9923 1443.0655 0.0000 0.0000 1728.1017 -7565.0986 294.7866 -9293.2003 -7565.0986 294.7866 -66.6632 17.7458 30535.5084 -66.6632 17.7458
ENERGY: 300000 5.0244 25.8817 17.5599 0.0000 -10730.4587 1422.9176 0.0000 0.0000 1764.0431 -7495.0320 300.9176 -9259.0751 -7536.2541 297.8114 -115.2325 -6.9766 30528.4556 110.4529 197.7530
ENERGY: 600000 4.4129 19.8125 13.8986 0.0000 -10618.5722 1307.4892 0.0000 0.0000 1769.8950 -7503.0640 301.9158 -9272.9591 -7513.4960 300.6571 -678.5194 -691.7363 30104.0012 -62.7199 9.3368
ENERGY: 900000 8.4723 21.1762 13.6936 0.0000 -10827.7661 1467.8985 0.0000 0.0000 1784.7704 -7531.7552 304.4533 -9316.5256 -7520.0883 301.3485 -70.8671 -7.9853 30246.3704 -127.4413 -60.1541
ENERGY: 1200000 7.7049 24.1215 16.0413 0.0000 -11003.0282 1610.9460 0.0000 0.0000 1762.9979 -7581.2167 300.7393 -9344.2146 -7518.5421 301.4598 978.9463 1094.4256 30264.4325 26.9121 93.7047
ENERGY: 1500000 8.2571 21.7516 14.2977 0.0000 -10806.3334 1496.7084 0.0000 0.0000 1762.3150 -7503.0036 300.6228 -9265.3186 -7523.6103 301.3328 564.9803 596.1514 30149.4271 117.7601 183.6415
TCL: Running FEP window  17: Lambda1 0.8000000000000002 Lambda2 0.8500000000000002 [dLambda 0.050000000000000044]
TCL: Setting parameter firsttimestep to 0
TCL: Setting parameter alchLambda to 0.8000000000000002
Info: NONBONDED TABLE R-SQUARED SPACING: 0.0625
Info: NONBONDED TABLE SIZE: 705 POINTS
TCL: Setting parameter alchLambda2 to 0.8500000000000002
Info: NONBONDED TABLE R-SQUARED SPACING: 0.0625
Info: NONBONDED TABLE SIZE: 705 POINTS
TCL: Running for 1500000 steps
ETITLE: TS BOND ANGLE DIHED IMPRP ELECT VDW BOUNDARY MISC KINETIC TOTAL TEMP POTENTIAL TOTALAVG TEMPAVG PRESSURE GPRESSURE VOLUME PRESSAVG GPRESSAVG
ENERGY: 0 8.2571 21.7516 14.2977 0.0000 -10808.8565 1497.1962 0.0000 0.0000 1761.4634 -7505.8905 300.4775 -9267.3539 -7505.8905 300.4775 549.1409 614.2622 30149.4271 549.1409 614.2622
ENERGY: 300000 6.8277 15.6329 15.3957 0.0000 -10961.3454 1535.3215 0.0000 0.0000 1706.2100 -7681.9577 291.0522 -9388.1677 -7526.3673 299.3572 785.1837 859.6119 29569.8699 59.2367 135.2028
ENERGY: 600000 8.9507 19.2046 14.4060 0.0000 -10786.1581 1410.3163 0.0000 0.0000 1712.8768 -7620.4037 292.1894 -9333.2805 -7535.6880 298.3178 -268.1407 -185.9512 29902.8064 -26.0673 46.7375
ENERGY: 900000 6.0971 15.0894 14.9259 0.0000 -10804.5015 1493.2917 0.0000 0.0000 1805.0655 -7470.0319 307.9153 -9275.0974 -7535.9429 299.4532 444.6527 500.2406 30516.4496 30.4325 104.9788
ENERGY: 1200000 6.5341 21.3833 14.3573 0.0000 -10703.4519 1402.8728 0.0000 0.0000 1771.2100 -7487.0944 302.1401 -9258.3043 -7521.5982 300.9097 -272.7229 -170.3308 30294.2263 -92.9331 -19.6659
ENERGY: 1500000 6.0302 19.4396 16.9710 0.0000 -10872.2454 1456.7209 0.0000 0.0000 1731.4160 -7641.6677 295.3519 -9373.0837 -7527.7326 299.9973 -32.3855 -12.5958 30073.4075 -50.8870 20.3143
TCL: Running FEP window  18: Lambda1 0.8500000000000002 Lambda2 0.9000000000000002 [dLambda 0.050000000000000044]
TCL: Setting parameter firsttimestep to 0
TCL: Setting parameter alchLambda to 0.8500000000000002
Info: NONBONDED TABLE R-SQUARED SPACING: 0.0625
Info: NONBONDED TABLE SIZE: 705 POINTS
TCL: Setting parameter alchLambda2 to 0.9000000000000002
Info: NONBONDED TABLE R-SQUARED SPACING: 0.0625
Info: NONBONDED TABLE SIZE: 705 POINTS
TCL: Running for 1500000 steps
ETITLE: TS BOND ANGLE DIHED IMPRP ELECT VDW BOUNDARY MISC KINETIC TOTAL TEMP POTENTIAL TOTALAVG TEMPAVG PRESSURE GPRESSURE VOLUME PRESSAVG GPRESSAVG
ENERGY: 0 6.0302 19.4396 16.9710 0.0000 -10875.8330 1458.2291 0.0000 0.0000 1730.5362 -7644.6270 295.2018 -9375.1632 -7644.6270 295.2018 -71.8651 10.9085 30073.4075 -71.8651 10.9085
ENERGY: 300000 3.1830 18.2946 14.3097 0.0000 -10670.4259 1391.5803 0.0000 0.0000 1765.4557 -7477.6025 301.1586 -9243.0582 -7566.2299 295.9538 -123.9768 -19.0304 30398.9063 -329.1933 -255.9508
ENERGY: 600000 6.1412 15.9291 13.9566 0.0000 -10867.6707 1463.8102 0.0000 0.0000 1681.2059 -7686.6276 286.7869 -9367.8335 -7573.1166 294.6201 8.6857 90.9042 29940.3907 -248.2378 -175.7386
ENERGY: 900000 4.8108 17.2725 14.5008 0.0000 -10760.3843 1458.4800 0.0000 0.0000 1775.1264 -7490.1939 302.8082 -9265.3203 -7554.1702 296.2800 135.4918 213.0603 30347.1431 -175.5648 -103.8894
ENERGY: 1200000 6.7717 21.9119 16.9769 0.0000 -10680.2401 1382.5972 0.0000 0.0000 1742.2850 -7509.6974 297.2060 -9251.9823 -7553.6211 296.9166 -440.2566 -307.0466 30145.6606 -142.4085 -67.4157
ENERGY: 1500000 2.3662 19.9881 16.2045 0.0000 -10752.9023 1387.4879 0.0000 0.0000 1708.6714 -7618.1841 291.4721 -9326.8554 -7558.5058 296.9142 -468.9380 -497.3038 30513.9772 -265.0563 -199.3533
TCL: Running FEP window  19: Lambda1 0.9000000000000002 Lambda2 0.9500000000000003 [dLambda 0.050000000000000044]
TCL: Setting parameter firsttimestep to 0
TCL: Setting parameter alchLambda to 0.9000000000000002
Info: NONBONDED TABLE R-SQUARED SPACING: 0.0625
Info: NONBONDED TABLE SIZE: 705 POINTS
TCL: Setting parameter alchLambda2 to 0.9500000000000003
Info: NONBONDED TABLE R-SQUARED SPACING: 0.0625
Info: NONBONDED TABLE SIZE: 705 POINTS
TCL: Running for 1500000 steps
ETITLE: TS BOND ANGLE DIHED IMPRP ELECT VDW BOUNDARY MISC KINETIC TOTAL TEMP POTENTIAL TOTALAVG TEMPAVG PRESSURE GPRESSURE VOLUME PRESSAVG GPRESSAVG
ENERGY: 0 2.3662 19.9881 16.2045 0.0000 -10757.0678 1389.0160 0.0000 0.0000 1707.7699 -7621.7231 291.3183 -9329.4929 -7621.7231 291.3183 -541.0571 -471.1758 30513.9772 -541.0571 -471.1758
ENERGY: 300000 3.7210 28.0347 13.9992 0.0000 -10724.6413 1375.2148 0.0000 0.0000 1782.5303 -7521.1414 304.0712 -9303.6717 -7555.4143 300.2413 -550.8507 -503.0073 30418.8200 -573.3969 -509.5970
ENERGY: 600000 3.3461 16.0503 20.9235 0.0000 -10841.3785 1451.2313 0.0000 0.0000 1733.4906 -7616.3367 295.7058 -9349.8274 -7554.7942 300.2766 554.1036 563.5762 29780.0173 -174.7910 -111.4449
ENERGY: 900000 8.5436 21.8229 17.2332 0.0000 -10617.8475 1377.2686 0.0000 0.0000 1741.6723 -7451.3068 297.1015 -9192.9791 -7530.3910 300.7166 -412.2351 -411.4362 30604.9818 -187.4450 -138.3598
ENERGY: 1200000 6.5721 20.1373 16.8152 0.0000 -10636.2683 1325.6559 0.0000 0.0000 1755.1193 -7511.9685 299.3953 -9267.0878 -7523.8297 301.0998 -729.2617 -674.0594 30477.2565 -234.5346 -182.9035
ENERGY: 1500000 7.9426 20.2787 14.5782 0.0000 -10777.7666 1368.8716 0.0000 0.0000 1749.7181 -7616.3773 298.4740 -9366.0955 -7528.0865 301.0608 -710.2755 -575.0565 30133.1618 -255.2350 -192.8627
TCL: Running FEP window  20: Lambda1 0.9500000000000003 Lambda2 1.0    [dLambda 0.04999999999999971]
TCL: Setting parameter firsttimestep to 0
TCL: Setting parameter alchLambda to 0.9500000000000003
Info: NONBONDED TABLE R-SQUARED SPACING: 0.0625
Info: NONBONDED TABLE SIZE: 705 POINTS
TCL: Setting parameter alchLambda2 to 1.0
Info: NONBONDED TABLE R-SQUARED SPACING: 0.0625
Info: NONBONDED TABLE SIZE: 705 POINTS
TCL: Running for 1500000 steps
ETITLE: TS BOND ANGLE DIHED IMPRP ELECT VDW BOUNDARY MISC KINETIC TOTAL TEMP POTENTIAL TOTALAVG TEMPAVG PRESSURE GPRESSURE VOLUME PRESSAVG GPRESSAVG
ENERGY: 0 7.9426 20.2787 14.5782 0.0000 -10780.5877 1369.5114 0.0000 0.0000 1748.8377 -7619.4392 298.3238 -9368.2769 -7619.4392 298.3238 -661.6825 -556.2643 30133.1618 -661.6825 -556.2643
ENERGY: 300000 13.0497 17.1995 15.5365 0.0000 -10644.9829 1314.8901 0.0000 0.0000 1767.3793 -7516.9277 301.4867 -9284.3070 -7561.4434 295.7756 -920.6955 -914.9673 30284.6575 -215.8677 -156.2047
ENERGY: 600000 6.4071 19.3122 17.9540 0.0000 -10839.6104 1468.6376 0.0000 0.0000 1708.1769 -7619.1225 291.3877 -9327.2994 -7581.8299 295.3938 150.3494 215.1354 30252.7540 36.5934 96.0289
ENERGY: 900000 7.4302 17.6915 14.3580 0.0000 -10795.0937 1396.7929 0.0000 0.0000 1754.2054 -7604.6157 299.2394 -9358.8211 -7580.9606 297.0023 -360.8290 -284.8567 30383.8633 17.8700 79.6000
ENERGY: 1200000 10.6013 18.2410 15.6466 0.0000 -10811.9615 1539.3911 0.0000 0.0000 1754.0153 -7474.0662 299.2070 -9228.0814 -7559.9032 297.7644 1075.9320 1147.8383 30192.6383 142.6390 199.6999
ENERGY: 1500000 7.3535 18.2319 16.5620 0.0000 -10749.6343 1464.9467 0.0000 0.0000 1772.4164 -7470.1238 302.3459 -9242.5402 -7559.1495 297.4177 393.4079 479.6426 30416.5037 142.3678 208.5185
TCL: Exiting due to exit command.
