Info: SIMULATION PARAMETERS:
Info: TIMESTEP               2
Info: NUMBER OF STEPS        0
Info: STEPS PER CYCLE        10
Info: PERIODIC CELL BASIS 1  30.8085 0 0
Info: PERIODIC CELL BASIS 2  0 31.5667 0
Info: PERIODIC CELL BASIS 3  0 0 31.2752
Info: PERIODIC CELL CENTER   0 0 0
Info: WRAPPING WATERS AROUND PERIODIC BOUNDARIES ON OUTPUT.
Info: WRAPPING ALL CLUSTERS AROUND PERIODIC BOUNDARIES ON OUTPUT.
Info: FIRST LDB TIMESTEP     50
Info: LAST LDB TIMESTEP     -1
Info: HOM BACKGROUND SCALING 1
Info: PME BACKGROUND SCALING 1
Info: MIN ATOMS PER PATCH    40
Info: EMPTY PATCH LOAD       40 ATOMS
Info: VELOCITY FILE          mobley_8191186_equil.vel
Info: CENTER OF MASS MOVING INITIALLY? NO
Info: DIELECTRIC             1
Info: EXCLUDE                SCALED ONE-FOUR
Info: 1-4 ELECTROSTATICS SCALED BY 0.833333
Info: MODIFIED 1-4 VDW PARAMETERS WILL BE USED
Info: DCD FILENAME           mobley_8191186_prod.dcd
Info: DCD FREQUENCY          100000
Info: DCD FIRST STEP         100000
Info: DCD FILE WILL CONTAIN UNIT CELL DATA
Info: XST FILENAME           mobley_8191186_prod.xst
Info: XST FREQUENCY          100000
Info: NO VELOCITY DCD OUTPUT
Info: NO FORCE DCD OUTPUT
Info: OUTPUT FILENAME        mobley_8191186_prod
Info: BINARY OUTPUT FILES WILL BE USED
Info: RESTART FILENAME       mobley_8191186_prod.restart
Info: RESTART FREQUENCY      100000
Info: BINARY RESTART FILES WILL BE USED
Info: CUTOFF                 9
Info: PAIRLIST DISTANCE      11
Info: PAIRLIST SHRINK RATE   0.01
Info: PAIRLIST GROW RATE     0.01
Info: PAIRLIST TRIGGER       0.3
Info: PAIRLISTS PER CYCLE    2
Info: PAIRLISTS ENABLED
Info: MARGIN                 2
Info: HYDROGEN GROUP CUTOFF  2.5
Info: PATCH DIMENSION        15.5
Info: ENERGY OUTPUT STEPS    100000
Info: ENERGY EVALUATION STEPS    100000
Info: OUTPUT ENERGY PRECISION 4
Info: CROSSTERM ENERGY INCLUDED IN DIHEDRAL
Info: TIMING OUTPUT STEPS    1000000
Info: PRESSURE OUTPUT STEPS  100000
Info: ALCHEMICAL FEP ON
Info: FEP CURRENT LAMBDA VALUE     0
Info: FEP COMPARISON LAMBDA VALUE  0.05
Info: FEP INTRA-ALCHEMICAL NON-BONDED INTERACTIONS WILL BE RETAINED
Info: FEP INTRA-ALCHEMICAL BONDED INTERACTIONS WILL BE RETAINED
Info: FEP VDW SHIFTING COEFFICIENT 5
Info: FEP ELEC. ACTIVE FOR ANNIHILATED PARTICLES BETWEEN LAMBDA = 0 AND LAMBDA = 0.5
Info: FEP ELEC. ACTIVE FOR EXNIHILATED PARTICLES BETWEEN LAMBDA = 0.5 AND LAMBDA = 1
Info: FEP VDW ACTIVE FOR ANNIHILATED PARTICLES BETWEEN LAMBDA = 0 AND LAMBDA = 1
Info: FEP VDW ACTIVE FOR EXNIHILATED PARTICLES BETWEEN LAMBDA = 0 AND LAMBDA = 1
Info: FEP BOND ACTIVE FOR ANNIHILATED PARTICLES BETWEEN LAMBDA = 1 AND LAMBDA = 1
Info: FEP BOND ACTIVE FOR EXNIHILATED PARTICLES BETWEEN LAMBDA = 0 AND LAMBDA = 0
Info: LANGEVIN DYNAMICS ACTIVE
Info: LANGEVIN TEMPERATURE   300
Info: LANGEVIN USING BBK INTEGRATOR
Info: LANGEVIN DAMPING COEFFICIENT IS 1 INVERSE PS
Info: LANGEVIN DYNAMICS APPLIED TO HYDROGENS
Info: LANGEVIN PISTON PRESSURE CONTROL ACTIVE
Info:        TARGET PRESSURE IS 1.01325 BAR
Info:     OSCILLATION PERIOD IS 50 FS
Info:             DECAY TIME IS 25 FS
Info:     PISTON TEMPERATURE IS 300 K
Info:       PRESSURE CONTROL IS GROUP-BASED
Info:    INITIAL STRAIN RATE IS -0.000672652 -0.000672652 -0.000672652
Info:       CELL FLUCTUATION IS ISOTROPIC
Info: PARTICLE MESH EWALD (PME) ACTIVE
Info: PME TOLERANCE               1e-06
Info: PME EWALD COEFFICIENT       0.348832
Info: PME INTERPOLATION ORDER     4
Info: PME GRID DIMENSIONS         32 32 32
Info: PME MAXIMUM GRID SPACING    1
Info: PME CALCULATION WILL BE PERFORMED ON GPU
Info: FULL ELECTROSTATIC EVALUATION FREQUENCY      2
Info: USING VERLET I (r-RESPA) MTS SCHEME.
Info: C1 SPLITTING OF LONG RANGE ELECTROSTATICS
Info: PLACING ATOMS IN PATCHES BY HYDROGEN GROUPS
Info: RIGID BONDS TO HYDROGEN : ALL
Info:         ERROR TOLERANCE : 1e-08
Info:          MAX ITERATIONS : 100
Info: RIGID WATER USING SETTLE ALGORITHM
Info: RANDOM NUMBER SEED     1743489830
Info: USE HYDROGEN BONDS?    NO
Info: Using AMBER format force field!
Info: AMBER PARM FILE        mobley_8191186.prmtop
Info: COORDINATE PDB         mobley_8191186.pdb
Info: Exclusions will be read from PARM file!
Info: SCNB (VDW SCALING)     2
Info: USING ARITHMETIC MEAN TO COMBINE L-J SIGMA PARAMETERS
Info: BINARY COORDINATES     mobley_8191186_equil.coor
Info: SUMMARY OF PARAMETERS:
Info: 6 BONDS
Info: 6 ANGLES
Info:   6 HARMONIC
Info:   0 COSINE-BASED
Info: 3 DIHEDRAL
Info: 0 IMPROPER
Info: 0 CROSSTERM
Info: 0 VDW
Info: 21 VDW_PAIRS
Info: 0 NBTHOLE_PAIRS
Info: To read alchdata from file: mobley_8191186.pdb
Info: To read alchflag data from column: 5
Info: STRUCTURE SUMMARY:
Info: 2915 ATOMS
Info: 2914 BONDS
Info: 12 ANGLES
Info: 15 DIHEDRALS
Info: 0 IMPROPERS
Info: 0 CROSSTERMS
Info: 2935 EXCLUSIONS
Info: 2909 RIGID BONDS
Info: ALCH: 0 ATOMS TO DISAPPEAR IN FINAL STATE
Info: ALCH: 8 ATOMS TO APPEAR IN FINAL STATE
Info: 5836 DEGREES OF FREEDOM
Info: 975 HYDROGEN GROUPS
Info: 3 ATOMS IN LARGEST HYDROGEN GROUP
Info: 975 MIGRATION GROUPS
Info: 3 ATOMS IN LARGEST MIGRATION GROUP
Info: TOTAL MASS = 17576 amu
Info: TOTAL CHARGE = 9.99831e-05 e
Info: MASS DENSITY = 0.959577 g/cm^3
Info: ATOM DENSITY = 0.0958383 atoms/A^3
Info: ADDED 0 IMPLICIT EXCLUSIONS
Info: NONBONDED TABLE R-SQUARED SPACING: 0.0625
Info: NONBONDED TABLE SIZE: 705 POINTS
Info: REMOVING COM VELOCITY -0.159728 0.0452288 0.0593253
Info: Use 3D box decompostion in PME FFT.
Info: Updated CUDA force table with 4096 elements.
Info: Updated CUDA LJ table with 6 x 6 elements.
Info: Found 11 unique exclusion lists needing 16 bytes
TCL: Running for 1500000 steps
ETITLE: TS BOND ANGLE DIHED IMPRP ELECT VDW BOUNDARY MISC KINETIC TOTAL TEMP POTENTIAL TOTALAVG TEMPAVG PRESSURE GPRESSURE VOLUME PRESSAVG GPRESSAVG
ENERGY: 0 1.5846 2.2998 1.2416 0.0000 -10511.5239 1429.8497 0.0000 0.0000 1772.1659 -7304.3823 305.6184 -9076.5482 -7304.3823 305.6184 46.1254 131.0797 30415.8039 46.1254 131.0797
ENERGY: 300000 1.3892 2.1192 1.4676 0.0000 -10624.5524 1452.8640 0.0000 0.0000 1759.3985 -7407.3140 303.4166 -9166.7125 -7380.4762 303.6637 448.6051 555.7090 29505.2644 153.1533 204.4987
ENERGY: 600000 3.9191 5.3725 1.1436 0.0000 -10574.0269 1324.2619 0.0000 0.0000 1703.3984 -7535.9315 293.7591 -9239.3299 -7399.7352 302.8148 -842.8522 -832.8099 29994.1906 -57.1188 -0.7154
ENERGY: 900000 0.7089 2.2581 1.3942 0.0000 -10720.5817 1526.9875 0.0000 0.0000 1757.2515 -7431.9815 303.0463 -9189.2331 -7412.6152 302.6265 765.0469 788.6042 29908.0285 51.1312 91.3534
ENERGY: 1200000 2.0430 2.1672 1.1677 0.0000 -10539.0844 1385.0953 0.0000 0.0000 1721.0173 -7427.5938 296.7976 -9148.6111 -7423.8785 300.9804 -630.4070 -507.2362 30294.0108 -5.7532 43.3432
ENERGY: 1500000 3.5534 3.7658 1.1346 0.0000 -10636.8395 1416.1817 0.0000 0.0000 1664.0602 -7548.1438 286.9750 -9212.2040 -7438.4905 300.0569 -419.8772 -423.7164 29924.0232 -70.3149 -21.5325
TCL: Running FEP window   2: Lambda1 0.05   Lambda2 0.1    [dLambda 0.05  ]
TCL: Setting parameter firsttimestep to 0
TCL: Setting parameter alchLambda to 0.05
Info: NONBONDED TABLE R-SQUARED SPACING: 0.0625
Info: NONBONDED TABLE SIZE: 705 POINTS
TCL: Setting parameter alchLambda2 to 0.1
Info: NONBONDED TABLE R-SQUARED SPACING: 0.0625
Info: NONBONDED TABLE SIZE: 705 POINTS
TCL: Running for 1500000 steps
ETITLE: TS BOND ANGLE DIHED IMPRP ELECT VDW BOUNDARY MISC KINETIC TOTAL TEMP POTENTIAL TOTALAVG TEMPAVG PRESSURE GPRESSURE VOLUME PRESSAVG GPRESSAVG
ENERGY: 0 3.5534 3.7658 1.1346 0.0000 -10636.8397 1419.1356 0.0000 0.0000 1663.1970 -7546.0534 286.8262 -9209.2504 -7546.0534 286.8262 -503.7200 -421.1841 29924.0232 -503.7200 -421.1841
ENERGY: 300000 1.4862 2.1393 1.1389 0.0000 -10545.2044 1386.9508 0.0000 0.0000 1752.3940 -7401.0952 302.2086 -9153.4892 -7429.7784 297.9699 -286.5075 -216.9221 29942.5407 -75.2755 -12.9500
ENERGY: 600000 1.5911 3.6365 1.8880 0.0000 -10551.6055 1441.8413 0.0000 0.0000 1733.5560 -7369.0927 298.9599 -9102.6487 -7414.8890 299.5810 -11.2644 49.2478 30162.9093 -77.7373 -13.0555
ENERGY: 900000 1.7429 2.8806 1.3435 0.0000 -10516.7954 1386.3297 0.0000 0.0000 1716.3323 -7408.1665 295.9896 -9124.4988 -7421.8678 298.1091 -241.6869 -200.3827 29774.1692 -94.8675 -36.3051
ENERGY: 1200000 0.2289 2.9719 1.1988 0.0000 -10482.6917 1336.8986 0.0000 0.0000 1756.8338 -7384.5598 302.9743 -9141.3936 -7423.9944 298.5066 -619.9879 -523.7452 29940.2091 -131.4753 -55.8692
ENERGY: 1500000 1.8958 5.3406 1.3556 0.0000 -10473.1049 1389.1636 0.0000 0.0000 1731.0317 -7344.3175 298.5246 -9075.3492 -7413.5665 298.8067 -60.1571 -26.0651 29888.5635 -105.2246 -29.5004
TCL: Running FEP window   3: Lambda1 0.1    Lambda2 0.15000000000000002 [dLambda 0.05000000000000002]
TCL: Setting parameter firsttimestep to 0
TCL: Setting parameter alchLambda to 0.1
Info: NONBONDED TABLE R-SQUARED SPACING: 0.0625
Info: NONBONDED TABLE SIZE: 705 POINTS
TCL: Setting parameter alchLambda2 to 0.15000000000000002
Info: NONBONDED TABLE R-SQUARED SPACING: 0.0625
Info: NONBONDED TABLE SIZE: 705 POINTS
TCL: Running for 1500000 steps
ETITLE: TS BOND ANGLE DIHED IMPRP ELECT VDW BOUNDARY MISC KINETIC TOTAL TEMP POTENTIAL TOTALAVG TEMPAVG PRESSURE GPRESSURE VOLUME PRESSAVG GPRESSAVG
ENERGY: 0 1.8958 5.3406 1.3556 0.0000 -10473.1044 1389.6070 0.0000 0.0000 1730.1545 -7344.7509 298.3733 -9074.9054 -7344.7509 298.3733 -112.9189 -24.2825 29888.5635 -112.9189 -24.2825
ENERGY: 300000 1.4703 1.5425 1.3266 0.0000 -10559.6535 1411.7515 0.0000 0.0000 1772.6943 -7370.8683 305.7095 -9143.5626 -7384.7447 300.3249 -257.7172 -164.0534 30134.7660 -294.4565 -201.9067
ENERGY: 600000 1.2953 3.6399 1.1778 0.0000 -10652.0456 1489.7145 0.0000 0.0000 1756.8531 -7399.3651 302.9776 -9156.2182 -7384.0664 300.3312 488.1097 548.8920 29642.4662 -195.8979 -108.5531
ENERGY: 900000 0.6591 1.2599 1.2051 0.0000 -10568.3826 1385.8250 0.0000 0.0000 1728.7035 -7450.7300 298.1231 -9179.4336 -7406.2971 299.4685 -278.8917 -174.1713 29852.8504 -246.0270 -161.2188
ENERGY: 1200000 0.8391 2.7071 1.2335 0.0000 -10464.7134 1339.4631 0.0000 0.0000 1702.0399 -7418.4307 293.5248 -9120.4705 -7413.6584 298.3757 -699.4072 -677.6808 30194.0199 -265.5350 -190.6628
ENERGY: 1500000 1.3997 1.5180 1.2244 0.0000 -10609.0694 1431.4979 0.0000 0.0000 1774.9224 -7398.5069 306.0938 -9173.4293 -7407.7436 299.1310 -88.3682 17.9639 30250.5630 -127.5485 -56.9962
TCL: Running FEP window   4: Lambda1 0.15000000000000002 Lambda2 0.2    [dLambda 0.04999999999999999]
TCL: Setting parameter firsttimestep to 0
TCL: Setting parameter alchLambda to 0.15000000000000002
Info: NONBONDED TABLE R-SQUARED SPACING: 0.0625
Info: NONBONDED TABLE SIZE: 705 POINTS
TCL: Setting parameter alchLambda2 to 0.2
Info: NONBONDED TABLE R-SQUARED SPACING: 0.0625
Info: NONBONDED TABLE SIZE: 705 POINTS
TCL: Running for 1500000 steps
ETITLE: TS BOND ANGLE DIHED IMPRP ELECT VDW BOUNDARY MISC KINETIC TOTAL TEMP POTENTIAL TOTALAVG TEMPAVG PRESSURE GPRESSURE VOLUME PRESSAVG GPRESSAVG
ENERGY: 0 1.3997 1.5180 1.2244 0.0000 -10609.0714 1431.6539 0.0000 0.0000 1774.0291 -7399.2463 305.9397 -9173.2754 -7399.2463 305.9397 -55.9117 20.6141 30250.5630 -55.9117 20.6141
ENERGY: 300000 1.2631 4.5128 1.2127 0.0000 -10616.1995 1440.8950 0.0000 0.0000 1777.8220 -7390.4940 306.5938 -9168.3159 -7403.6068 303.7868 15.8542 132.6663 30093.4971 154.5944 228.1849
ENERGY: 600000 1.5212 6.0968 1.1838 0.0000 -10652.5533 1416.1664 0.0000 0.0000 1754.1554 -7473.4297 302.5124 -9227.5851 -7413.3275 300.5108 -108.9005 -125.4956 29757.8956 -122.3113 -75.0936
ENERGY: 900000 4.1594 4.5792 1.1646 0.0000 -10584.4574 1433.8228 0.0000 0.0000 1709.8172 -7430.9142 294.8661 -9140.7314 -7422.3488 300.0636 -63.1617 -5.6417 30354.4792 -63.2258 -14.0973
ENERGY: 1200000 1.7933 2.8430 1.1915 0.0000 -10585.7223 1474.3416 0.0000 0.0000 1700.0756 -7405.4773 293.1861 -9105.5529 -7418.5062 300.0768 179.2799 292.1196 30675.4197 -39.2288 15.5160
ENERGY: 1500000 3.0968 6.4717 1.2128 0.0000 -10545.1508 1331.6206 0.0000 0.0000 1750.8898 -7451.8590 301.9492 -9202.7488 -7416.5969 300.2957 -762.9004 -730.6918 29934.8140 16.0902 66.7400
TCL: Running FEP window   5: Lambda1 0.2    Lambda2 0.25   [dLambda 0.04999999999999999]
TCL: Setting parameter firsttimestep to 0
TCL: Setting parameter alchLambda to 0.2
Info: NONBONDED TABLE R-SQUARED SPACING: 0.0625
Info: NONBONDED TABLE SIZE: 705 POINTS
TCL: Setting parameter alchLambda2 to 0.25
Info: NONBONDED TABLE R-SQUARED SPACING: 0.0625
Info: NONBONDED TABLE SIZE: 705 POINTS
TCL: Running for 1500000 steps
ETITLE: TS BOND ANGLE DIHED IMPRP ELECT VDW BOUNDARY MISC KINETIC TOTAL TEMP POTENTIAL TOTALAVG TEMPAVG PRESSURE GPRESSURE VOLUME PRESSAVG GPRESSAVG
ENERGY: 0 3.0968 6.4717 1.2128 0.0000 -10545.1512 1332.6040 0.0000 0.0000 1750.0582 -7451.7077 301.8058 -9201.7659 -7451.7077 301.8058 -793.9526 -722.9945 29934.8140 -793.9526 -722.9945
ENERGY: 300000 3.2022 1.5713 1.3149 0.0000 -10584.9412 1442.3395 0.0000 0.0000 1757.4257 -7379.0876 303.0764 -9136.5134 -7397.6851 302.1748 -35.7583 -10.5337 30470.1135 -469.9420 -427.8466
ENERGY: 600000 1.1156 3.4430 1.2671 0.0000 -10659.0412 1470.5504 0.0000 0.0000 1788.5456 -7394.1196 308.4431 -9182.6652 -7401.2742 303.6924 404.4113 465.8496 29607.8693 -210.7211 -172.3183
ENERGY: 900000 1.0889 6.7324 1.2400 0.0000 -10676.3993 1459.6751 0.0000 0.0000 1702.7103 -7504.9526 293.6404 -9207.6628 -7405.5354 302.3337 128.9078 212.5872 29689.8702 -90.0306 -44.7356
ENERGY: 1200000 1.4540 4.3557 1.4237 0.0000 -10568.9441 1442.3075 0.0000 0.0000 1748.6221 -7370.7812 301.5581 -9119.4033 -7412.6832 300.9741 364.5323 395.6875 29831.5346 -75.4330 -22.1014
ENERGY: 1500000 0.6117 4.6808 1.1643 0.0000 -10739.3091 1459.1361 0.0000 0.0000 1814.5925 -7459.1237 312.9351 -9273.7162 -7411.1154 302.1658 204.5063 305.2855 29615.9889 -89.5605 -31.3246
TCL: Running FEP window   6: Lambda1 0.25   Lambda2 0.3    [dLambda 0.04999999999999999]
TCL: Setting parameter firsttimestep to 0
TCL: Setting parameter alchLambda to 0.25
Info: NONBONDED TABLE R-SQUARED SPACING: 0.0625
Info: NONBONDED TABLE SIZE: 705 POINTS
TCL: Setting parameter alchLambda2 to 0.3
Info: NONBONDED TABLE R-SQUARED SPACING: 0.0625
Info: NONBONDED TABLE SIZE: 705 POINTS
TCL: Running for 1500000 steps
ETITLE: TS BOND ANGLE DIHED IMPRP ELECT VDW BOUNDARY MISC KINETIC TOTAL TEMP POTENTIAL TOTALAVG TEMPAVG PRESSURE GPRESSURE VOLUME PRESSAVG GPRESSAVG
ENERGY: 0 0.6117 4.6808 1.1643 0.0000 -10739.3092 1459.6033 0.0000 0.0000 1813.6803 -7459.5689 312.7777 -9273.2491 -7459.5689 312.7777 216.3053 312.3081 29615.9889 216.3053 312.3081
ENERGY: 300000 0.3240 3.8167 1.5104 0.0000 -10699.4554 1476.8024 0.0000 0.0000 1730.9478 -7486.0541 298.5101 -9217.0019 -7457.9802 302.5080 445.5901 590.2127 29348.6849 573.5685 648.6660
ENERGY: 600000 1.1626 3.7989 1.4517 0.0000 -10501.1113 1367.0756 0.0000 0.0000 1748.3841 -7379.2384 301.5171 -9127.6225 -7432.5092 301.7026 -547.9473 -481.6092 30385.4885 308.4369 382.9923
ENERGY: 900000 1.3901 2.3562 1.5188 0.0000 -10593.2717 1456.1148 0.0000 0.0000 1738.2807 -7393.6110 299.7747 -9131.8918 -7425.9600 301.8046 254.2113 338.4830 30024.6871 184.3965 259.1474
ENERGY: 1200000 1.3215 4.9178 1.5484 0.0000 -10660.6213 1488.9663 0.0000 0.0000 1771.5722 -7392.2951 305.5160 -9163.8673 -7418.0935 301.8736 151.5334 193.6139 30562.6169 195.9910 268.0977
ENERGY: 1500000 2.4654 1.6900 1.7473 0.0000 -10682.5026 1508.3386 0.0000 0.0000 1738.7789 -7429.4823 299.8606 -9168.2612 -7417.8366 301.7755 743.4367 790.2853 29920.0596 129.1573 196.0569
TCL: Running FEP window   7: Lambda1 0.3    Lambda2 0.35   [dLambda 0.04999999999999999]
TCL: Setting parameter firsttimestep to 0
TCL: Setting parameter alchLambda to 0.3
Info: NONBONDED TABLE R-SQUARED SPACING: 0.0625
Info: NONBONDED TABLE SIZE: 705 POINTS
TCL: Setting parameter alchLambda2 to 0.35
Info: NONBONDED TABLE R-SQUARED SPACING: 0.0625
Info: NONBONDED TABLE SIZE: 705 POINTS
TCL: Running for 1500000 steps
ETITLE: TS BOND ANGLE DIHED IMPRP ELECT VDW BOUNDARY MISC KINETIC TOTAL TEMP POTENTIAL TOTALAVG TEMPAVG PRESSURE GPRESSURE VOLUME PRESSAVG GPRESSAVG
ENERGY: 0 2.4654 1.6900 1.7473 0.0000 -10682.5030 1508.0654 0.0000 0.0000 1737.8801 -7430.6547 299.7056 -9168.5348 -7430.6547 299.7056 710.4297 788.8650 29920.0596 710.4297 788.8650
ENERGY: 300000 1.0745 5.2283 1.1435 0.0000 -10621.4541 1487.9659 0.0000 0.0000 1699.8219 -7426.2200 293.1423 -9126.0419 -7431.2540 298.4704 530.2281 636.3833 29695.2959 190.4126 261.6550
ENERGY: 600000 0.8207 1.4791 1.1564 0.0000 -10664.9062 1445.7684 0.0000 0.0000 1721.8951 -7493.7864 296.9490 -9215.6815 -7449.2606 297.3981 -43.1138 -23.3417 30393.3114 -18.1968 38.0662
ENERGY: 900000 0.8439 1.5945 1.2976 0.0000 -10551.8515 1354.3554 0.0000 0.0000 1704.7951 -7488.9650 294.0000 -9193.7600 -7445.0967 297.3037 -746.9962 -646.4855 30065.8264 -73.7360 -21.3960
ENERGY: 1200000 0.6881 4.3666 1.3850 0.0000 -10557.7694 1372.1713 0.0000 0.0000 1717.7201 -7461.4384 296.2289 -9179.1585 -7440.0325 297.3425 -558.1734 -531.8773 30150.1991 -157.7745 -111.9828
ENERGY: 1500000 0.9041 3.8058 1.3904 0.0000 -10636.3055 1462.8600 0.0000 0.0000 1725.9367 -7441.4084 297.6459 -9167.3451 -7430.9196 298.9342 282.5572 337.4198 29985.9140 -193.1659 -150.0005
TCL: Running FEP window   8: Lambda1 0.35   Lambda2 0.39999999999999997 [dLambda 0.04999999999999999]
TCL: Setting parameter firsttimestep to 0
TCL: Setting parameter alchLambda to 0.35
Info: NONBONDED TABLE R-SQUARED SPACING: 0.0625
Info: NONBONDED TABLE SIZE: 705 POINTS
TCL: Setting parameter alchLambda2 to 0.39999999999999997
Info: NONBONDED TABLE R-SQUARED SPACING: 0.0625
Info: NONBONDED TABLE SIZE: 705 POINTS
TCL: Running for 1500000 steps
ETITLE: TS BOND ANGLE DIHED IMPRP ELECT VDW BOUNDARY MISC KINETIC TOTAL TEMP POTENTIAL TOTALAVG TEMPAVG PRESSURE GPRESSURE VOLUME PRESSAVG GPRESSAVG
ENERGY: 0 0.9041 3.8058 1.3904 0.0000 -10636.3044 1463.1003 0.0000 0.0000 1725.1085 -7441.9953 297.5031 -9167.1038 -7441.9953 297.5031 263.1325 341.3281 29985.9140 263.1325 341.3281
ENERGY: 300000 3.5381 2.3486 1.1652 0.0000 -10636.3806 1438.1818 0.0000 0.0000 1777.5232 -7413.6237 306.5423 -9191.1469 -7475.6791 296.7825 103.7831 84.0144 29946.5743 148.7331 199.0960
ENERGY: 600000 1.4048 4.1341 1.2410 0.0000 -10424.1508 1343.2922 0.0000 0.0000 1697.5342 -7376.5445 292.7478 -9074.0787 -7466.4614 296.1260 -664.1190 -643.2639 30584.5744 -44.5779 -7.1011
ENERGY: 900000 0.9220 3.9087 1.3609 0.0000 -10656.1306 1445.8087 0.0000 0.0000 1757.4953 -7446.6350 303.0884 -9204.1303 -7452.2270 298.9796 353.0122 414.6190 29773.1316 26.9911 65.7335
ENERGY: 1200000 0.7731 4.9578 1.1486 0.0000 -10562.8891 1414.6099 0.0000 0.0000 1713.9091 -7427.4905 295.5717 -9141.3996 -7445.5471 298.8803 -281.1356 -223.9869 30600.4462 47.4811 79.0300
ENERGY: 1500000 0.4519 3.2653 1.3904 0.0000 -10618.9571 1423.1324 0.0000 0.0000 1664.9948 -7525.7223 287.1362 -9190.7171 -7442.3700 298.3199 -71.3945 21.9839 29902.4189 -62.5639 -22.8125
TCL: Running FEP window   9: Lambda1 0.39999999999999997 Lambda2 0.44999999999999996 [dLambda 0.04999999999999999]
TCL: Setting parameter firsttimestep to 0
TCL: Setting parameter alchLambda to 0.39999999999999997
Info: NONBONDED TABLE R-SQUARED SPACING: 0.0625
Info: NONBONDED TABLE SIZE: 705 POINTS
TCL: Setting parameter alchLambda2 to 0.44999999999999996
Info: NONBONDED TABLE R-SQUARED SPACING: 0.0625
Info: NONBONDED TABLE SIZE: 705 POINTS
TCL: Running for 1500000 steps
ETITLE: TS BOND ANGLE DIHED IMPRP ELECT VDW BOUNDARY MISC KINETIC TOTAL TEMP POTENTIAL TOTALAVG TEMPAVG PRESSURE GPRESSURE VOLUME PRESSAVG GPRESSAVG
ENERGY: 0 0.4519 3.2653 1.3904 0.0000 -10618.9562 1423.0489 0.0000 0.0000 1664.1263 -7526.6734 286.9865 -9190.7997 -7526.6734 286.9865 -60.7866 26.5615 29902.4189 -60.7866 26.5615
ENERGY: 300000 0.9534 4.2941 1.2174 0.0000 -10565.2010 1425.9514 0.0000 0.0000 1724.9233 -7407.8614 297.4712 -9132.7847 -7467.0692 294.5769 140.0360 200.7867 29943.6458 -169.6023 -99.3697
ENERGY: 600000 0.2668 2.7196 1.3696 0.0000 -10571.0681 1454.5764 0.0000 0.0000 1825.2479 -7286.8878 314.7726 -9112.1356 -7429.6448 299.9469 296.9572 389.4963 30299.3783 -166.0034 -99.7812
ENERGY: 900000 0.9186 4.2071 1.2702 0.0000 -10756.2516 1609.2421 0.0000 0.0000 1732.6791 -7407.9344 298.8087 -9140.6136 -7439.5898 300.0079 1423.3097 1480.1640 30054.2379 53.7604 115.2537
ENERGY: 1200000 0.1099 1.2306 1.1613 0.0000 -10597.7509 1472.4838 0.0000 0.0000 1694.3433 -7428.4221 292.1975 -9122.7654 -7434.4431 300.2620 487.7348 485.2550 29990.4615 98.5028 152.6121
ENERGY: 1500000 1.6777 2.5567 1.2045 0.0000 -10613.1832 1436.5166 0.0000 0.0000 1760.6900 -7410.5378 303.6393 -9171.2277 -7434.7183 300.4311 199.9605 191.5002 30079.6524 91.9417 143.9868
TCL: Running FEP window  10: Lambda1 0.44999999999999996 Lambda2 0.49999999999999994 [dLambda 0.04999999999999999]
TCL: Setting parameter firsttimestep to 0
TCL: Setting parameter alchLambda to 0.44999999999999996
Info: NONBONDED TABLE R-SQUARED SPACING: 0.0625
Info: NONBONDED TABLE SIZE: 705 POINTS
TCL: Setting parameter alchLambda2 to 0.49999999999999994
Info: NONBONDED TABLE R-SQUARED SPACING: 0.0625
Info: NONBONDED TABLE SIZE: 705 POINTS
TCL: Running for 1500000 steps
ETITLE: TS BOND ANGLE DIHED IMPRP ELECT VDW BOUNDARY MISC KINETIC TOTAL TEMP POTENTIAL TOTALAVG TEMPAVG PRESSURE GPRESSURE VOLUME PRESSAVG GPRESSAVG
ENERGY: 0 1.6777 2.5567 1.2045 0.0000 -10613.1852 1436.2864 0.0000 0.0000 1759.7983 -7411.6616 303.4855 -9171.4599 -7411.6616 303.4855 108.6495 190.6085 30079.6524 108.6495 190.6085
ENERGY: 300000 1.1916 4.9511 1.4004 0.0000 -10778.0709 1517.8476 0.0000 0.0000 1728.5668 -7524.1135 298.0995 -9252.6803 -7489.4302 299.5648 229.7930 281.3928 30295.8397 95.0442 158.9526
ENERGY: 600000 2.9652 3.9159 1.9490 0.0000 -10479.5949 1385.3240 0.0000 0.0000 1710.3168 -7375.1242 294.9522 -9085.4409 -7457.0159 298.5455 -32.7040 49.2493 30020.4357 257.4275 330.9413
ENERGY: 900000 0.9979 1.9928 1.1834 0.0000 -10811.0272 1548.3484 0.0000 0.0000 1732.8465 -7525.6583 298.8376 -9258.5048 -7472.2420 298.5782 1003.7713 1046.2557 29298.9446 185.9170 258.8784
ENERGY: 1200000 3.3836 4.2983 1.6085 0.0000 -10702.8090 1524.1495 0.0000 0.0000 1779.5380 -7389.8310 306.8897 -9169.3691 -7471.4412 299.0360 748.4871 841.9037 29832.0743 25.1264 103.5443
ENERGY: 1500000 2.0051 7.9558 1.1819 0.0000 -10784.3203 1575.2211 0.0000 0.0000 1788.1493 -7409.8070 308.3748 -9197.9564 -7473.2403 298.3516 1453.8395 1491.9387 29430.7428 49.0375 119.5791
TCL: Running FEP window  11: Lambda1 0.49999999999999994 Lambda2 0.5499999999999999 [dLambda 0.04999999999999999]
TCL: Setting parameter firsttimestep to 0
TCL: Setting parameter alchLambda to 0.49999999999999994
Info: NONBONDED TABLE R-SQUARED SPACING: 0.0625
Info: NONBONDED TABLE SIZE: 705 POINTS
TCL: Setting parameter alchLambda2 to 0.5499999999999999
Info: NONBONDED TABLE R-SQUARED SPACING: 0.0625
Info: NONBONDED TABLE SIZE: 705 POINTS
TCL: Running for 1500000 steps
ETITLE: TS BOND ANGLE DIHED IMPRP ELECT VDW BOUNDARY MISC KINETIC TOTAL TEMP POTENTIAL TOTALAVG TEMPAVG PRESSURE GPRESSURE VOLUME PRESSAVG GPRESSAVG
ENERGY: 0 2.0051 7.9558 1.1819 0.0000 -10784.3192 1574.8098 0.0000 0.0000 1787.2977 -7411.0689 308.2279 -9198.3666 -7411.0689 308.2279 1411.2697 1489.9910 29430.7428 1411.2697 1489.9910
ENERGY: 300000 0.2631 4.0340 1.6274 0.0000 -10432.5202 1315.1706 0.0000 0.0000 1776.0122 -7335.4128 306.2817 -9111.4250 -7393.4792 305.0437 -799.2077 -683.9327 30177.6826 229.5806 329.4457
ENERGY: 600000 2.2111 3.8001 1.4556 0.0000 -10650.0721 1497.7364 0.0000 0.0000 1740.4699 -7404.3990 300.1523 -9144.8689 -7411.2568 302.5612 300.6891 426.7457 30508.0027 153.6929 249.9584
ENERGY: 900000 1.1268 0.9756 1.2274 0.0000 -10528.9199 1360.8866 0.0000 0.0000 1751.9832 -7412.7202 302.1378 -9164.7035 -7413.1034 301.6829 -399.8370 -321.0846 29958.3766 65.3490 153.8591
ENERGY: 1200000 2.3141 2.7340 1.1781 0.0000 -10721.3120 1396.3976 0.0000 0.0000 1769.3707 -7549.3176 305.1363 -9318.6882 -7433.3307 301.6313 -602.4252 -521.8677 29676.3526 -54.8972 26.1342
ENERGY: 1500000 0.6502 1.3053 1.1465 0.0000 -10470.2360 1318.9267 0.0000 0.0000 1753.0571 -7395.1503 302.3230 -9148.2073 -7430.1235 301.1735 -834.0002 -777.4696 30214.2054 -113.3297 -34.5543
TCL: Running FEP window  12: Lambda1 0.5499999999999999 Lambda2 0.6    [dLambda 0.050000000000000044]
TCL: Setting parameter firsttimestep to 0
TCL: Setting parameter alchLambda to 0.5499999999999999
Info: NONBONDED TABLE R-SQUARED SPACING: 0.0625
Info: NONBONDED TABLE SIZE: 705 POINTS
TCL: Setting parameter alchLambda2 to 0.6
Info: NONBONDED TABLE R-SQUARED SPACING: 0.0625
Info: NONBONDED TABLE SIZE: 705 POINTS
TCL: Running for 1500000 steps
ETITLE: TS BOND ANGLE DIHED IMPRP ELECT VDW BOUNDARY MISC KINETIC TOTAL TEMP POTENTIAL TOTALAVG TEMPAVG PRESSURE GPRESSURE VOLUME PRESSAVG GPRESSAVG
ENERGY: 0 0.6502 1.3053 1.1465 0.0000 -10470.4539 1319.3008 0.0000 0.0000 1752.1970 -7395.8541 302.1747 -9148.0511 -7395.8541 302.1747 -844.9868 -770.6912 30214.2054 -844.9868 -770.6912
ENERGY: 300000 0.4625 2.2990 1.9342 0.0000 -10599.6794 1424.9858 0.0000 0.0000 1752.7509 -7417.2470 302.2702 -9169.9979 -7409.6531 301.3273 -378.1402 -313.4934 30493.4461 -418.5291 -334.8939
ENERGY: 600000 3.0682 1.4483 1.2928 0.0000 -10687.8612 1477.5957 0.0000 0.0000 1747.5810 -7456.8753 301.3786 -9204.4563 -7442.9585 301.1253 425.1524 508.8529 29916.8438 -215.9201 -133.8490
ENERGY: 900000 0.8460 4.3880 1.2246 0.0000 -10620.3144 1484.3801 0.0000 0.0000 1735.0588 -7394.4169 299.2191 -9129.4757 -7421.4541 302.7292 653.3014 684.0981 30144.1426 -101.2715 -28.1060
ENERGY: 1200000 1.3483 1.8915 1.1416 0.0000 -10573.8238 1387.9029 0.0000 0.0000 1801.3538 -7380.1856 310.6520 -9181.5395 -7416.1635 302.9139 -546.8634 -448.6508 30237.0092 -180.5467 -103.7377
ENERGY: 1500000 1.0121 2.4558 1.1640 0.0000 -10663.6735 1481.8807 0.0000 0.0000 1753.4229 -7423.7379 302.3861 -9177.1609 -7418.4741 302.5272 583.4084 598.6533 29878.8889 -119.6878 -48.3832
TCL: Running FEP window  13: Lambda1 0.6    Lambda2 0.65   [dLambda 0.050000000000000044]
TCL: Setting parameter firsttimestep to 0
TCL: Setting parameter alchLambda to 0.6
Info: NONBONDED TABLE R-SQUARED SPACING: 0.0625
Info: NONBONDED TABLE SIZE: 705 POINTS
TCL: Setting parameter alchLambda2 to 0.65
Info: NONBONDED TABLE R-SQUARED SPACING: 0.0625
Info: NONBONDED TABLE SIZE: 705 POINTS
TCL: Running for 1500000 steps
ETITLE: TS BOND ANGLE DIHED IMPRP ELECT VDW BOUNDARY MISC KINETIC TOTAL TEMP POTENTIAL TOTALAVG TEMPAVG PRESSURE GPRESSURE VOLUME PRESSAVG GPRESSAVG
ENERGY: 0 1.0121 2.4558 1.1640 0.0000 -10663.7813 1481.7329 0.0000 0.0000 1752.5444 -7424.8721 302.2346 -9177.4165 -7424.8721 302.2346 510.1824 604.9399 29878.8889 510.1824 604.9399
ENERGY: 300000 1.1144 1.5578 1.1579 0.0000 -10572.1813 1412.6648 0.0000 0.0000 1726.5384 -7429.1479 297.7497 -9155.6863 -7416.7566 299.6046 -30.9254 -1.4151 30069.7327 -115.7990 -58.3212
ENERGY: 600000 1.0346 5.4491 1.2139 0.0000 -10557.2292 1355.7328 0.0000 0.0000 1765.4752 -7428.3237 304.4645 -9193.7989 -7430.4709 300.6043 -746.1934 -644.1558 30196.3152 -72.5114 -14.9841
ENERGY: 900000 2.3824 3.4364 1.1482 0.0000 -10491.1869 1333.7793 0.0000 0.0000 1703.9544 -7446.4863 293.8550 -9150.4406 -7435.6177 298.4660 -769.0759 -708.0272 30049.5765 -26.3903 34.1848
ENERGY: 1200000 2.1042 1.8104 1.1435 0.0000 -10664.0106 1545.1655 0.0000 0.0000 1725.0679 -7388.7190 297.4961 -9113.7869 -7434.0863 298.4762 932.4730 1096.1446 29667.4962 30.4329 98.9673
ENERGY: 1500000 0.0846 3.6926 1.5932 0.0000 -10702.5132 1506.7456 0.0000 0.0000 1707.6646 -7482.7327 294.4948 -9190.3973 -7439.0325 298.2576 834.1182 866.6993 29631.8498 56.7185 115.6413
TCL: Running FEP window  14: Lambda1 0.65   Lambda2 0.7000000000000001 [dLambda 0.050000000000000044]
TCL: Setting parameter firsttimestep to 0
TCL: Setting parameter alchLambda to 0.65
Info: NONBONDED TABLE R-SQUARED SPACING: 0.0625
Info: NONBONDED TABLE SIZE: 705 POINTS
TCL: Setting parameter alchLambda2 to 0.7000000000000001
Info: NONBONDED TABLE R-SQUARED SPACING: 0.0625
Info: NONBONDED TABLE SIZE: 705 POINTS
TCL: Running for 1500000 steps
ETITLE: TS BOND ANGLE DIHED IMPRP ELECT VDW BOUNDARY MISC KINETIC TOTAL TEMP POTENTIAL TOTALAVG TEMPAVG PRESSURE GPRESSURE VOLUME PRESSAVG GPRESSAVG
ENERGY: 0 0.0846 3.6926 1.5932 0.0000 -10702.5054 1506.7060 0.0000 0.0000 1706.7924 -7483.6366 294.3444 -9190.4291 -7483.6366 294.3444 789.8150 870.8616 29631.8498 789.8150 870.8616
ENERGY: 300000 1.1609 1.9471 1.9196 0.0000 -10656.6283 1446.1849 0.0000 0.0000 1720.0542 -7485.3615 296.6315 -9205.4158 -7468.4170 299.8790 -42.5870 -6.2431 30143.4876 220.4175 281.2717
ENERGY: 600000 1.0269 2.9021 1.1785 0.0000 -10489.2677 1343.7830 0.0000 0.0000 1737.0851 -7403.2922 299.5685 -9140.3773 -7427.4748 300.1398 -679.1231 -553.5978 30357.0290 26.6061 104.4744
ENERGY: 900000 2.2218 4.8502 1.2342 0.0000 -10568.5183 1440.3406 0.0000 0.0000 1746.7420 -7373.1295 301.2339 -9119.8715 -7422.1165 301.9737 388.9748 477.7647 29785.3037 216.4922 298.3183
ENERGY: 1200000 1.3929 1.3941 1.1607 0.0000 -10491.8135 1351.5527 0.0000 0.0000 1702.5455 -7433.7676 293.6120 -9136.3131 -7419.4176 300.9590 -786.0372 -746.5039 30592.3753 13.1188 90.6214
ENERGY: 1500000 0.7384 2.3058 2.0677 0.0000 -10411.8532 1307.2279 0.0000 0.0000 1803.4431 -7296.0703 311.0123 -9099.5134 -7414.6545 301.8019 -1031.3431 -943.1998 30621.1788 -42.8422 37.3888
TCL: Running FEP window  15: Lambda1 0.7000000000000001 Lambda2 0.7500000000000001 [dLambda 0.050000000000000044]
TCL: Setting parameter firsttimestep to 0
TCL: Setting parameter alchLambda to 0.7000000000000001
Info: NONBONDED TABLE R-SQUARED SPACING: 0.0625
Info: NONBONDED TABLE SIZE: 705 POINTS
TCL: Setting parameter alchLambda2 to 0.7500000000000001
Info: NONBONDED TABLE R-SQUARED SPACING: 0.0625
Info: NONBONDED TABLE SIZE: 705 POINTS
TCL: Running for 1500000 steps
ETITLE: TS BOND ANGLE DIHED IMPRP ELECT VDW BOUNDARY MISC KINETIC TOTAL TEMP POTENTIAL TOTALAVG TEMPAVG PRESSURE GPRESSURE VOLUME PRESSAVG GPRESSAVG
ENERGY: 0 0.7384 2.3058 2.0677 0.0000 -10412.1929 1307.3083 0.0000 0.0000 1802.6072 -7297.1655 310.8681 -9099.7727 -7297.1655 310.8681 -1015.7341 -937.4602 30621.1788 -1015.7341 -937.4602
ENERGY: 300000 2.2354 3.5541 1.2027 0.0000 -10501.5309 1329.8959 0.0000 0.0000 1732.2326 -7432.4102 298.7317 -9164.6428 -7378.2324 302.4570 -719.1220 -717.4787 29772.5087 -655.2788 -612.9713
ENERGY: 600000 1.8814 5.7269 1.1763 0.0000 -10724.8026 1489.2410 0.0000 0.0000 1740.4409 -7486.3362 300.1473 -9226.7771 -7413.1446 301.4327 624.3161 672.0866 29581.6856 -554.0507 -494.1385
ENERGY: 900000 2.3152 6.1679 1.1691 0.0000 -10587.9785 1373.0305 0.0000 0.0000 1822.9043 -7382.3915 314.3685 -9205.2958 -7421.3027 302.0574 -697.6379 -652.7536 30399.5376 -491.0275 -434.4763
ENERGY: 1200000 2.2381 6.0275 1.3380 0.0000 -10547.0454 1370.5787 0.0000 0.0000 1764.6472 -7402.2158 304.3217 -9166.8630 -7413.1029 303.4067 -611.6468 -478.5247 30043.3578 -470.4233 -403.3380
ENERGY: 1500000 0.8651 2.3387 1.1438 0.0000 -10608.2083 1409.2222 0.0000 0.0000 1763.7876 -7430.8509 304.1735 -9194.6385 -7409.2386 302.5892 -128.0168 -95.9525 29810.8798 -412.5240 -352.8235
TCL: Running FEP window  16: Lambda1 0.7500000000000001 Lambda2 0.8000000000000002 [dLambda 0.050000000000000044]
TCL: Setting parameter firsttimestep to 0
TCL: Setting parameter alchLambda to 0.7500000000000001
Info: NONBONDED TABLE R-SQUARED SPACING: 0.0625
Info: NONBONDED TABLE SIZE: 705 POINTS
TCL: Setting parameter alchLambda2 to 0.8000000000000002
Info: NONBONDED TABLE R-SQUARED SPACING: 0.0625
Info: NONBONDED TABLE SIZE: 705 POINTS
TCL: Running for 1500000 steps
ETITLE: TS BOND ANGLE DIHED IMPRP ELECT VDW BOUNDARY MISC KINETIC TOTAL TEMP POTENTIAL TOTALAVG TEMPAVG PRESSURE GPRESSURE VOLUME PRESSAVG GPRESSAVG
ENERGY: 0 0.8651 2.3387 1.1438 0.0000 -10608.1369 1409.8227 0.0000 0.0000 1762.8965 -7431.0702 304.0198 -9193.9666 -7431.0702 304.0198 -160.9905 -83.9812 29810.8798 -160.9905 -83.9812
ENERGY: 300000 3.4557 3.8207 1.1513 0.0000 -10705.5103 1472.8443 0.0000 0.0000 1727.9894 -7496.2488 297.9999 -9224.2382 -7417.0938 300.5880 66.6487 155.1807 30122.3136 -296.1369 -236.5502
ENERGY: 600000 3.9185 3.1666 1.3058 0.0000 -10575.3282 1377.8423 0.0000 0.0000 1742.8538 -7446.2411 300.5634 -9189.0949 -7428.7502 300.4711 -346.1922 -274.0552 29901.8971 -133.6009 -77.3824
ENERGY: 900000 1.1849 3.8422 1.2757 0.0000 -10628.7325 1437.8952 0.0000 0.0000 1760.4197 -7424.1147 303.5927 -9184.5345 -7425.6769 299.7711 34.1477 98.3050 30072.1136 -168.5879 -119.9841
ENERGY: 1200000 1.6274 2.4224 1.1512 0.0000 -10481.6993 1365.2090 0.0000 0.0000 1798.3998 -7312.8894 310.1426 -9111.2893 -7404.8893 300.4734 -106.7996 -58.1728 29897.9585 -146.8278 -92.7748
ENERGY: 1500000 0.8062 4.1426 1.3600 0.0000 -10697.0923 1506.8881 0.0000 0.0000 1677.2888 -7506.6066 289.2564 -9183.8954 -7415.9037 299.8563 553.9732 610.6263 29987.3218 -85.1287 -29.3451
TCL: Running FEP window  17: Lambda1 0.8000000000000002 Lambda2 0.8500000000000002 [dLambda 0.050000000000000044]
TCL: Setting parameter firsttimestep to 0
TCL: Setting parameter alchLambda to 0.8000000000000002
Info: NONBONDED TABLE R-SQUARED SPACING: 0.0625
Info: NONBONDED TABLE SIZE: 705 POINTS
TCL: Setting parameter alchLambda2 to 0.8500000000000002
Info: NONBONDED TABLE R-SQUARED SPACING: 0.0625
Info: NONBONDED TABLE SIZE: 705 POINTS
TCL: Running for 1500000 steps
ETITLE: TS BOND ANGLE DIHED IMPRP ELECT VDW BOUNDARY MISC KINETIC TOTAL TEMP POTENTIAL TOTALAVG TEMPAVG PRESSURE GPRESSURE VOLUME PRESSAVG GPRESSAVG
ENERGY: 0 0.8062 4.1426 1.3600 0.0000 -10697.9065 1507.4646 0.0000 0.0000 1676.4485 -7507.6846 289.1115 -9184.1330 -7507.6846 289.1115 562.1945 624.2985 29987.3218 562.1945 624.2985
ENERGY: 300000 2.6458 4.8302 1.1345 0.0000 -10666.0632 1419.6355 0.0000 0.0000 1745.8992 -7491.9180 301.0886 -9237.8172 -7475.9561 292.8309 -351.8543 -281.3818 30055.6676 190.3942 259.3891
ENERGY: 600000 3.5807 7.6116 1.2351 0.0000 -10574.7576 1410.0869 0.0000 0.0000 1701.2955 -7450.9479 293.3964 -9152.2434 -7436.3845 296.5093 69.1376 57.4186 30211.8815 148.9355 206.5995
ENERGY: 900000 1.0649 2.2336 1.4397 0.0000 -10580.2764 1445.1990 0.0000 0.0000 1687.8803 -7442.4591 291.0829 -9130.3394 -7422.4205 297.3943 79.0161 75.8179 30521.3124 163.9814 217.1968
ENERGY: 1200000 2.9183 3.0497 1.7462 0.0000 -10598.4338 1401.9951 0.0000 0.0000 1735.6426 -7453.0819 299.3198 -9188.7246 -7420.5095 298.4915 -113.6602 -68.0825 29954.8406 77.6651 128.3956
ENERGY: 1500000 1.2847 2.7565 1.2336 0.0000 -10661.0567 1439.9187 0.0000 0.0000 1797.7076 -7418.1556 310.0232 -9215.8633 -7428.5505 298.4577 178.2808 200.1296 29810.4135 52.2042 106.2805
TCL: Running FEP window  18: Lambda1 0.8500000000000002 Lambda2 0.9000000000000002 [dLambda 0.050000000000000044]
TCL: Setting parameter firsttimestep to 0
TCL: Setting parameter alchLambda to 0.8500000000000002
Info: NONBONDED TABLE R-SQUARED SPACING: 0.0625
Info: NONBONDED TABLE SIZE: 705 POINTS
TCL: Setting parameter alchLambda2 to 0.9000000000000002
Info: NONBONDED TABLE R-SQUARED SPACING: 0.0625
Info: NONBONDED TABLE SIZE: 705 POINTS
TCL: Running for 1500000 steps
ETITLE: TS BOND ANGLE DIHED IMPRP ELECT VDW BOUNDARY MISC KINETIC TOTAL TEMP POTENTIAL TOTALAVG TEMPAVG PRESSURE GPRESSURE VOLUME PRESSAVG GPRESSAVG
ENERGY: 0 1.2847 2.7565 1.2336 0.0000 -10661.3467 1440.1315 0.0000 0.0000 1796.8537 -7419.0868 309.8759 -9215.9405 -7419.0868 309.8759 131.2834 209.2491 29810.4135 131.2834 209.2491
ENERGY: 300000 5.0148 1.7651 1.1617 0.0000 -10357.9871 1298.9689 0.0000 0.0000 1769.3957 -7281.6810 305.1406 -9051.0766 -7391.5562 303.4985 -807.3085 -709.7246 30557.7278 -143.3881 -61.9952
ENERGY: 600000 1.2641 3.6282 1.1600 0.0000 -10656.8235 1407.4399 0.0000 0.0000 1743.3066 -7500.0247 300.6415 -9243.3313 -7422.2829 301.6019 -557.0312 -464.5594 30129.8159 -214.7025 -148.7202
ENERGY: 900000 1.7520 5.2818 1.1662 0.0000 -10541.8403 1434.2171 0.0000 0.0000 1725.7475 -7373.6756 297.6133 -9099.4232 -7404.7101 302.2576 414.0712 426.0400 29948.4542 -102.1565 -41.2148
ENERGY: 1200000 0.9248 2.5811 1.4573 0.0000 -10620.1932 1361.6028 0.0000 0.0000 1685.8955 -7567.7316 290.7406 -9253.6271 -7417.6269 301.5613 -539.7019 -489.9676 29579.1539 -164.5310 -104.2969
ENERGY: 1500000 0.5737 3.3718 1.2935 0.0000 -10436.4701 1362.1556 0.0000 0.0000 1768.3486 -7300.7270 304.9601 -9069.0756 -7409.5580 301.3741 -271.7182 -210.2971 30334.9641 -280.4605 -219.9448
TCL: Running FEP window  19: Lambda1 0.9000000000000002 Lambda2 0.9500000000000003 [dLambda 0.050000000000000044]
TCL: Setting parameter firsttimestep to 0
TCL: Setting parameter alchLambda to 0.9000000000000002
Info: NONBONDED TABLE R-SQUARED SPACING: 0.0625
Info: NONBONDED TABLE SIZE: 705 POINTS
TCL: Setting parameter alchLambda2 to 0.9500000000000003
Info: NONBONDED TABLE R-SQUARED SPACING: 0.0625
Info: NONBONDED TABLE SIZE: 705 POINTS
TCL: Running for 1500000 steps
ETITLE: TS BOND ANGLE DIHED IMPRP ELECT VDW BOUNDARY MISC KINETIC TOTAL TEMP POTENTIAL TOTALAVG TEMPAVG PRESSURE GPRESSURE VOLUME PRESSAVG GPRESSAVG
ENERGY: 0 0.5736 3.3718 1.2935 0.0000 -10436.4860 1361.6782 0.0000 0.0000 1767.4671 -7302.1018 304.8081 -9069.5689 -7302.1018 304.8081 -284.0953 -207.5096 30334.9641 -284.0953 -207.5096
ENERGY: 300000 0.8997 2.7142 1.1985 0.0000 -10686.8511 1517.9024 0.0000 0.0000 1666.3473 -7497.7890 287.3695 -9164.1363 -7418.1569 297.4887 823.7994 900.1497 29649.8830 297.7443 365.1659
ENERGY: 600000 3.0687 2.1095 1.1519 0.0000 -10469.2952 1333.1921 0.0000 0.0000 1751.1607 -7378.6124 301.9959 -9129.7731 -7432.1146 297.6285 -356.4547 -309.9181 29565.9575 172.9654 250.0433
ENERGY: 900000 0.5142 1.9370 1.7522 0.0000 -10575.2876 1373.5111 0.0000 0.0000 1753.9045 -7443.6685 302.4691 -9197.5730 -7429.6400 298.4421 -465.0636 -346.0168 29848.6218 119.2206 193.5981
ENERGY: 1200000 0.6245 4.2403 1.2273 0.0000 -10605.6327 1485.0936 0.0000 0.0000 1769.0391 -7345.4080 305.0792 -9114.4471 -7423.1186 299.0718 610.6694 644.4020 30104.5258 118.5496 185.8831
ENERGY: 1500000 2.7590 2.4615 1.1946 0.0000 -10596.5687 1390.6950 0.0000 0.0000 1724.6329 -7474.8257 297.4211 -9199.4586 -7420.7183 299.0184 -242.3226 -188.3721 29942.3612 117.6919 181.4272
TCL: Running FEP window  20: Lambda1 0.9500000000000003 Lambda2 1.0    [dLambda 0.04999999999999971]
TCL: Setting parameter firsttimestep to 0
TCL: Setting parameter alchLambda to 0.9500000000000003
Info: NONBONDED TABLE R-SQUARED SPACING: 0.0625
Info: NONBONDED TABLE SIZE: 705 POINTS
TCL: Setting parameter alchLambda2 to 1.0
Info: NONBONDED TABLE R-SQUARED SPACING: 0.0625
Info: NONBONDED TABLE SIZE: 705 POINTS
TCL: Running for 1500000 steps
ETITLE: TS BOND ANGLE DIHED IMPRP ELECT VDW BOUNDARY MISC KINETIC TOTAL TEMP POTENTIAL TOTALAVG TEMPAVG PRESSURE GPRESSURE VOLUME PRESSAVG GPRESSAVG
ENERGY: 0 2.7590 2.4615 1.1946 0.0000 -10596.8400 1390.8371 0.0000 0.0000 1723.7744 -7475.8133 297.2730 -9199.5878 -7475.8133 297.2730 -275.2452 -178.5500 29942.3612 -275.2452 -178.5500
ENERGY: 300000 2.3925 2.2056 1.2416 0.0000 -10595.0443 1448.2209 0.0000 0.0000 1771.8930 -7369.0907 305.5713 -9140.9837 -7404.0537 303.6961 107.2517 251.1817 30136.1569 -22.9229 75.7344
ENERGY: 600000 3.2319 8.1180 1.1515 0.0000 -10615.3233 1417.8036 0.0000 0.0000 1659.6869 -7525.3315 286.2208 -9185.0183 -7402.3765 299.6318 -244.5577 -207.8369 30032.4698 -144.8895 -69.3362
ENERGY: 900000 0.4646 4.5685 1.2082 0.0000 -10707.7874 1480.0261 0.0000 0.0000 1750.8841 -7470.6359 301.9482 -9221.5200 -7411.1627 299.4814 615.3833 722.8008 29481.5388 -23.7210 50.7425
ENERGY: 1200000 0.9531 2.2624 1.1727 0.0000 -10596.6611 1388.4110 0.0000 0.0000 1787.8431 -7416.0187 308.3220 -9203.8618 -7419.9895 299.8063 -89.9326 -70.3487 29882.5139 42.0322 99.9977
ENERGY: 1500000 1.9697 2.1511 1.2479 0.0000 -10566.0568 1411.4842 0.0000 0.0000 1805.6113 -7343.5926 311.3862 -9149.2039 -7421.1811 299.2270 -12.8426 25.3230 30331.6907 16.5965 76.3207
TCL: Exiting due to exit command.
