Info: SIMULATION PARAMETERS:
Info: TIMESTEP               2
Info: NUMBER OF STEPS        0
Info: STEPS PER CYCLE        10
Info: PERIODIC CELL BASIS 1  31.0953 0 0
Info: PERIODIC CELL BASIS 2  0 31.473 0
Info: PERIODIC CELL BASIS 3  0 0 31.8685
Info: PERIODIC CELL CENTER   0 0 0
Info: WRAPPING WATERS AROUND PERIODIC BOUNDARIES ON OUTPUT.
Info: WRAPPING ALL CLUSTERS AROUND PERIODIC BOUNDARIES ON OUTPUT.
Info: FIRST LDB TIMESTEP     50
Info: LAST LDB TIMESTEP     -1
Info: HOM BACKGROUND SCALING 1
Info: PME BACKGROUND SCALING 1
Info: MIN ATOMS PER PATCH    40
Info: EMPTY PATCH LOAD       40 ATOMS
Info: VELOCITY FILE          mobley_1781152_equil.vel
Info: CENTER OF MASS MOVING INITIALLY? NO
Info: DIELECTRIC             1
Info: EXCLUDE                SCALED ONE-FOUR
Info: 1-4 ELECTROSTATICS SCALED BY 0.833333
Info: MODIFIED 1-4 VDW PARAMETERS WILL BE USED
Info: DCD FILENAME           mobley_1781152_prod.dcd
Info: DCD FREQUENCY          100000
Info: DCD FIRST STEP         100000
Info: DCD FILE WILL CONTAIN UNIT CELL DATA
Info: XST FILENAME           mobley_1781152_prod.xst
Info: XST FREQUENCY          100000
Info: NO VELOCITY DCD OUTPUT
Info: NO FORCE DCD OUTPUT
Info: OUTPUT FILENAME        mobley_1781152_prod
Info: BINARY OUTPUT FILES WILL BE USED
Info: RESTART FILENAME       mobley_1781152_prod.restart
Info: RESTART FREQUENCY      100000
Info: BINARY RESTART FILES WILL BE USED
Info: CUTOFF                 9
Info: PAIRLIST DISTANCE      11
Info: PAIRLIST SHRINK RATE   0.01
Info: PAIRLIST GROW RATE     0.01
Info: PAIRLIST TRIGGER       0.3
Info: PAIRLISTS PER CYCLE    2
Info: PAIRLISTS ENABLED
Info: MARGIN                 2
Info: HYDROGEN GROUP CUTOFF  2.5
Info: PATCH DIMENSION        15.5
Info: ENERGY OUTPUT STEPS    100000
Info: ENERGY EVALUATION STEPS    100000
Info: OUTPUT ENERGY PRECISION 4
Info: CROSSTERM ENERGY INCLUDED IN DIHEDRAL
Info: TIMING OUTPUT STEPS    1000000
Info: PRESSURE OUTPUT STEPS  100000
Info: ALCHEMICAL FEP ON
Info: FEP CURRENT LAMBDA VALUE     0
Info: FEP COMPARISON LAMBDA VALUE  0.05
Info: FEP INTRA-ALCHEMICAL NON-BONDED INTERACTIONS WILL BE RETAINED
Info: FEP INTRA-ALCHEMICAL BONDED INTERACTIONS WILL BE RETAINED
Info: FEP VDW SHIFTING COEFFICIENT 5
Info: FEP ELEC. ACTIVE FOR ANNIHILATED PARTICLES BETWEEN LAMBDA = 0 AND LAMBDA = 0.5
Info: FEP ELEC. ACTIVE FOR EXNIHILATED PARTICLES BETWEEN LAMBDA = 0.5 AND LAMBDA = 1
Info: FEP VDW ACTIVE FOR ANNIHILATED PARTICLES BETWEEN LAMBDA = 0 AND LAMBDA = 1
Info: FEP VDW ACTIVE FOR EXNIHILATED PARTICLES BETWEEN LAMBDA = 0 AND LAMBDA = 1
Info: FEP BOND ACTIVE FOR ANNIHILATED PARTICLES BETWEEN LAMBDA = 1 AND LAMBDA = 1
Info: FEP BOND ACTIVE FOR EXNIHILATED PARTICLES BETWEEN LAMBDA = 0 AND LAMBDA = 0
Info: LANGEVIN DYNAMICS ACTIVE
Info: LANGEVIN TEMPERATURE   300
Info: LANGEVIN USING BBK INTEGRATOR
Info: LANGEVIN DAMPING COEFFICIENT IS 1 INVERSE PS
Info: LANGEVIN DYNAMICS APPLIED TO HYDROGENS
Info: LANGEVIN PISTON PRESSURE CONTROL ACTIVE
Info:        TARGET PRESSURE IS 1.01325 BAR
Info:     OSCILLATION PERIOD IS 50 FS
Info:             DECAY TIME IS 25 FS
Info:     PISTON TEMPERATURE IS 300 K
Info:       PRESSURE CONTROL IS GROUP-BASED
Info:    INITIAL STRAIN RATE IS 0.000866224 0.000866224 0.000866224
Info:       CELL FLUCTUATION IS ISOTROPIC
Info: PARTICLE MESH EWALD (PME) ACTIVE
Info: PME TOLERANCE               1e-06
Info: PME EWALD COEFFICIENT       0.348832
Info: PME INTERPOLATION ORDER     4
Info: PME GRID DIMENSIONS         32 32 32
Info: PME MAXIMUM GRID SPACING    1
Info: PME CALCULATION WILL BE PERFORMED ON GPU
Info: FULL ELECTROSTATIC EVALUATION FREQUENCY      2
Info: USING VERLET I (r-RESPA) MTS SCHEME.
Info: C1 SPLITTING OF LONG RANGE ELECTROSTATICS
Info: PLACING ATOMS IN PATCHES BY HYDROGEN GROUPS
Info: RIGID BONDS TO HYDROGEN : ALL
Info:         ERROR TOLERANCE : 1e-08
Info:          MAX ITERATIONS : 100
Info: RIGID WATER USING SETTLE ALGORITHM
Info: RANDOM NUMBER SEED     1743616298
Info: USE HYDROGEN BONDS?    NO
Info: Using AMBER format force field!
Info: AMBER PARM FILE        mobley_1781152.prmtop
Info: COORDINATE PDB         mobley_1781152.pdb
Info: Exclusions will be read from PARM file!
Info: SCNB (VDW SCALING)     2
Info: USING ARITHMETIC MEAN TO COMBINE L-J SIGMA PARAMETERS
Info: BINARY COORDINATES     mobley_1781152_equil.coor
Info: SUMMARY OF PARAMETERS:
Info: 9 BONDS
Info: 10 ANGLES
Info:   10 HARMONIC
Info:   0 COSINE-BASED
Info: 9 DIHEDRAL
Info: 0 IMPROPER
Info: 0 CROSSTERM
Info: 0 VDW
Info: 36 VDW_PAIRS
Info: 0 NBTHOLE_PAIRS
Info: To read alchdata from file: mobley_1781152.pdb
Info: To read alchflag data from column: 5
Info: STRUCTURE SUMMARY:
Info: 2978 ATOMS
Info: 2977 BONDS
Info: 34 ANGLES
Info: 42 DIHEDRALS
Info: 0 IMPROPERS
Info: 0 CROSSTERMS
Info: 3049 EXCLUSIONS
Info: 2970 RIGID BONDS
Info: ALCH: 0 ATOMS TO DISAPPEAR IN FINAL STATE
Info: ALCH: 20 ATOMS TO APPEAR IN FINAL STATE
Info: 5964 DEGREES OF FREEDOM
Info: 994 HYDROGEN GROUPS
Info: 4 ATOMS IN LARGEST HYDROGEN GROUP
Info: 994 MIGRATION GROUPS
Info: 4 ATOMS IN LARGEST MIGRATION GROUP
Info: TOTAL MASS = 17879.9 amu
Info: TOTAL CHARGE = 0.000100031 e
Info: MASS DENSITY = 0.951987 g/cm^3
Info: ATOM DENSITY = 0.095484 atoms/A^3
Info: ADDED 0 IMPLICIT EXCLUSIONS
Info: NONBONDED TABLE R-SQUARED SPACING: 0.0625
Info: NONBONDED TABLE SIZE: 705 POINTS
Info: REDUCING NUMBER OF PATCHES TO IMPROVE LOAD BALANCE
Info: REMOVING COM VELOCITY 0.0676816 0.0292694 -0.0425269
Info: Use 3D box decompostion in PME FFT.
Info: Updated CUDA force table with 4096 elements.
Info: Updated CUDA LJ table with 8 x 8 elements.
Info: Found 23 unique exclusion lists needing 60 bytes
TCL: Running for 1500000 steps
ETITLE: TS BOND ANGLE DIHED IMPRP ELECT VDW BOUNDARY MISC KINETIC TOTAL TEMP POTENTIAL TOTALAVG TEMPAVG PRESSURE GPRESSURE VOLUME PRESSAVG GPRESSAVG
ENERGY: 0 1.7330 6.8219 1.3649 0.0000 -10747.5454 1478.5622 0.0000 0.0000 1791.4967 -7467.5667 302.3213 -9259.0634 -7467.5667 302.3213 44.2997 115.2041 31188.4704 44.2997 115.2041
ENERGY: 300000 5.1573 7.6532 2.3077 0.0000 -10940.3169 1548.2147 0.0000 0.0000 1787.0563 -7589.9276 301.5720 -9376.9839 -7493.9975 302.8730 669.9116 710.4158 29865.3829 245.4919 303.6936
ENERGY: 600000 2.1718 11.9625 1.6346 0.0000 -10822.7320 1493.4771 0.0000 0.0000 1810.4196 -7503.0664 305.5146 -9313.4860 -7503.5496 302.5102 275.4183 381.4880 30371.3016 208.1359 261.4684
ENERGY: 900000 3.6123 7.4083 1.4946 0.0000 -10676.1030 1418.0660 0.0000 0.0000 1778.5588 -7466.9630 300.1380 -9245.5218 -7506.4981 302.0426 -159.1074 -95.0657 30807.8468 256.6617 304.2614
ENERGY: 1200000 3.9867 7.0790 1.4971 0.0000 -10790.0629 1415.6990 0.0000 0.0000 1810.2646 -7551.5366 305.4885 -9361.8011 -7515.8419 301.2995 -514.7084 -448.5135 30248.0604 109.9002 164.6064
ENERGY: 1500000 3.6456 8.2123 1.8132 0.0000 -10747.3423 1451.0050 0.0000 0.0000 1739.1549 -7543.5113 293.4884 -9282.6662 -7514.5849 300.1413 -303.1006 -278.5412 30981.3136 43.7961 93.3553
TCL: Running FEP window   2: Lambda1 0.05   Lambda2 0.1    [dLambda 0.05  ]
TCL: Setting parameter firsttimestep to 0
TCL: Setting parameter alchLambda to 0.05
Info: NONBONDED TABLE R-SQUARED SPACING: 0.0625
Info: NONBONDED TABLE SIZE: 705 POINTS
TCL: Setting parameter alchLambda2 to 0.1
Info: NONBONDED TABLE R-SQUARED SPACING: 0.0625
Info: NONBONDED TABLE SIZE: 705 POINTS
TCL: Running for 1500000 steps
ETITLE: TS BOND ANGLE DIHED IMPRP ELECT VDW BOUNDARY MISC KINETIC TOTAL TEMP POTENTIAL TOTALAVG TEMPAVG PRESSURE GPRESSURE VOLUME PRESSAVG GPRESSAVG
ENERGY: 0 3.6456 8.2123 1.8132 0.0000 -10747.3422 1453.3364 0.0000 0.0000 1738.2773 -7542.0574 293.3404 -9280.3347 -7542.0574 293.3404 -350.7310 -274.6624 30981.3136 -350.7310 -274.6624
ENERGY: 300000 2.8358 7.8739 1.4371 0.0000 -10718.3281 1365.0960 0.0000 0.0000 1791.1847 -7549.9005 302.2687 -9341.0852 -7535.9215 298.4225 -707.0098 -658.3415 30275.3572 -386.5911 -331.6668
ENERGY: 600000 7.4188 7.5942 0.4434 0.0000 -10777.5709 1380.0510 0.0000 0.0000 1770.5848 -7611.4787 298.7924 -9382.0635 -7530.3217 299.8617 -883.9907 -829.9196 30567.8415 -503.3323 -442.2503
ENERGY: 900000 2.4328 8.3420 2.4432 0.0000 -10742.2113 1487.6158 0.0000 0.0000 1779.1064 -7462.2711 300.2304 -9241.3775 -7511.8174 300.8117 739.1161 740.1774 30313.4637 -285.2223 -223.8621
ENERGY: 1200000 1.4627 7.9172 1.0868 0.0000 -10698.4443 1420.1674 0.0000 0.0000 1830.5511 -7437.2591 308.9119 -9267.8102 -7509.3525 301.8756 -341.5700 -284.6529 30785.1036 -308.5561 -243.7609
ENERGY: 1500000 3.5949 9.4444 1.3917 0.0000 -10723.5867 1416.7046 0.0000 0.0000 1787.0661 -7505.3850 301.5736 -9292.4511 -7510.7733 301.4623 -686.6317 -628.6838 30948.3774 -264.9413 -203.8100
TCL: Running FEP window   3: Lambda1 0.1    Lambda2 0.15000000000000002 [dLambda 0.05000000000000002]
TCL: Setting parameter firsttimestep to 0
TCL: Setting parameter alchLambda to 0.1
Info: NONBONDED TABLE R-SQUARED SPACING: 0.0625
Info: NONBONDED TABLE SIZE: 705 POINTS
TCL: Setting parameter alchLambda2 to 0.15000000000000002
Info: NONBONDED TABLE R-SQUARED SPACING: 0.0625
Info: NONBONDED TABLE SIZE: 705 POINTS
TCL: Running for 1500000 steps
ETITLE: TS BOND ANGLE DIHED IMPRP ELECT VDW BOUNDARY MISC KINETIC TOTAL TEMP POTENTIAL TOTALAVG TEMPAVG PRESSURE GPRESSURE VOLUME PRESSAVG GPRESSAVG
ENERGY: 0 3.5949 9.4444 1.3917 0.0000 -10723.5855 1417.8446 0.0000 0.0000 1786.2134 -7505.0966 301.4297 -9291.3099 -7505.0966 301.4297 -709.3545 -621.3820 30948.3774 -709.3545 -621.3820
ENERGY: 300000 3.2326 8.4851 0.9744 0.0000 -10922.5927 1509.2892 0.0000 0.0000 1801.0489 -7599.5625 303.9333 -9400.6114 -7527.1101 304.2483 239.9055 305.9856 30196.4578 -204.1405 -149.2387
ENERGY: 600000 5.6458 7.1993 1.9336 0.0000 -10629.5542 1439.2756 0.0000 0.0000 1711.9919 -7463.5080 288.9046 -9175.4999 -7526.0429 300.7002 29.6501 64.7059 30644.6834 -121.2760 -70.7812
ENERGY: 900000 4.9940 5.2436 1.9638 0.0000 -10606.9867 1332.4040 0.0000 0.0000 1815.2975 -7447.0839 306.3378 -9262.3814 -7515.0840 300.8529 -1008.3205 -962.8837 30797.5708 -108.6768 -55.5930
ENERGY: 1200000 3.6040 6.6376 1.6611 0.0000 -10733.9876 1479.3093 0.0000 0.0000 1769.8358 -7472.9399 298.6660 -9242.7756 -7502.4232 301.5415 409.5320 499.1716 30326.7775 -29.5646 15.9832
ENERGY: 1500000 1.2777 10.0405 0.8615 0.0000 -10918.2384 1516.5822 0.0000 0.0000 1839.0026 -7550.4738 310.3381 -9389.4765 -7506.4833 301.7886 235.3746 309.0845 30515.1480 -84.0600 -36.4557
TCL: Running FEP window   4: Lambda1 0.15000000000000002 Lambda2 0.2    [dLambda 0.04999999999999999]
TCL: Setting parameter firsttimestep to 0
TCL: Setting parameter alchLambda to 0.15000000000000002
Info: NONBONDED TABLE R-SQUARED SPACING: 0.0625
Info: NONBONDED TABLE SIZE: 705 POINTS
TCL: Setting parameter alchLambda2 to 0.2
Info: NONBONDED TABLE R-SQUARED SPACING: 0.0625
Info: NONBONDED TABLE SIZE: 705 POINTS
TCL: Running for 1500000 steps
ETITLE: TS BOND ANGLE DIHED IMPRP ELECT VDW BOUNDARY MISC KINETIC TOTAL TEMP POTENTIAL TOTALAVG TEMPAVG PRESSURE GPRESSURE VOLUME PRESSAVG GPRESSAVG
ENERGY: 0 1.2777 10.0405 0.8615 0.0000 -10918.2395 1517.2150 0.0000 0.0000 1838.1403 -7550.7045 310.1926 -9388.8448 -7550.7045 310.1926 229.3205 315.2313 30515.1480 229.3205 315.2313
ENERGY: 300000 1.9493 7.5859 2.3151 0.0000 -10797.6255 1491.5910 0.0000 0.0000 1775.5872 -7518.5970 299.6365 -9294.1842 -7542.0182 301.0668 524.7677 573.9287 30128.8766 82.4215 164.2903
ENERGY: 600000 4.2596 12.0385 1.5665 0.0000 -10791.8191 1451.7720 0.0000 0.0000 1814.1007 -7508.0817 306.1358 -9322.1825 -7526.4295 301.2866 338.7266 349.4249 29621.2828 -26.2591 38.6995
ENERGY: 900000 1.1436 8.1529 0.8428 0.0000 -10756.8879 1428.1248 0.0000 0.0000 1847.0197 -7471.6041 311.6910 -9318.6238 -7516.5638 301.8736 -66.0381 9.8435 30276.3784 -61.8827 -5.7948
ENERGY: 1200000 2.8509 10.8353 1.4966 0.0000 -10774.5199 1443.6032 0.0000 0.0000 1794.0130 -7521.7208 302.7459 -9315.7339 -7512.2027 301.6151 -115.5478 -46.3301 30597.9783 -76.6518 -17.0141
ENERGY: 1500000 4.6730 7.5807 2.3671 0.0000 -10749.9976 1428.0374 0.0000 0.0000 1732.6998 -7574.6395 292.3991 -9307.3393 -7515.4987 300.8174 -405.2680 -355.3498 30853.7583 -49.6231 11.9054
TCL: Running FEP window   5: Lambda1 0.2    Lambda2 0.25   [dLambda 0.04999999999999999]
TCL: Setting parameter firsttimestep to 0
TCL: Setting parameter alchLambda to 0.2
Info: NONBONDED TABLE R-SQUARED SPACING: 0.0625
Info: NONBONDED TABLE SIZE: 705 POINTS
TCL: Setting parameter alchLambda2 to 0.25
Info: NONBONDED TABLE R-SQUARED SPACING: 0.0625
Info: NONBONDED TABLE SIZE: 705 POINTS
TCL: Running for 1500000 steps
ETITLE: TS BOND ANGLE DIHED IMPRP ELECT VDW BOUNDARY MISC KINETIC TOTAL TEMP POTENTIAL TOTALAVG TEMPAVG PRESSURE GPRESSURE VOLUME PRESSAVG GPRESSAVG
ENERGY: 0 4.6731 7.5807 2.3671 0.0000 -10749.9991 1428.9096 0.0000 0.0000 1731.8280 -7574.6406 292.2520 -9306.4686 -7574.6406 292.2520 -427.7107 -349.0110 30853.7583 -427.7107 -349.0110
ENERGY: 300000 0.8566 9.8154 1.2328 0.0000 -10673.2982 1408.0883 0.0000 0.0000 1799.1878 -7454.1173 303.6192 -9253.3050 -7532.3724 297.2763 -308.4924 -211.5680 30508.9826 -231.2277 -173.8339
ENERGY: 600000 3.0965 8.5495 0.5582 0.0000 -10745.5819 1446.7972 0.0000 0.0000 1788.9161 -7497.6644 301.8858 -9286.5805 -7523.1876 298.0383 101.2406 221.4609 30111.0220 -121.3296 -41.2365
ENERGY: 900000 2.9260 13.0195 2.2917 0.0000 -10889.1731 1527.0222 0.0000 0.0000 1835.6009 -7508.3128 309.7641 -9343.9137 -7537.7423 299.5977 446.1207 452.0196 30340.9414 -129.4299 -62.5219
ENERGY: 1200000 4.6554 6.5130 0.7917 0.0000 -10748.5828 1448.2238 0.0000 0.0000 1752.5086 -7535.8903 295.7419 -9288.3988 -7541.5106 298.8433 -362.0567 -257.8181 30875.6185 -106.7622 -39.6410
ENERGY: 1500000 1.2350 7.7148 1.5355 0.0000 -10829.3659 1509.1631 0.0000 0.0000 1811.1181 -7498.5994 305.6325 -9309.7174 -7534.4208 299.7059 429.9119 481.4859 30693.2008 -32.8808 29.1881
TCL: Running FEP window   6: Lambda1 0.25   Lambda2 0.3    [dLambda 0.04999999999999999]
TCL: Setting parameter firsttimestep to 0
TCL: Setting parameter alchLambda to 0.25
Info: NONBONDED TABLE R-SQUARED SPACING: 0.0625
Info: NONBONDED TABLE SIZE: 705 POINTS
TCL: Setting parameter alchLambda2 to 0.3
Info: NONBONDED TABLE R-SQUARED SPACING: 0.0625
Info: NONBONDED TABLE SIZE: 705 POINTS
TCL: Running for 1500000 steps
ETITLE: TS BOND ANGLE DIHED IMPRP ELECT VDW BOUNDARY MISC KINETIC TOTAL TEMP POTENTIAL TOTALAVG TEMPAVG PRESSURE GPRESSURE VOLUME PRESSAVG GPRESSAVG
ENERGY: 0 1.2350 7.7148 1.5355 0.0000 -10829.3667 1509.3647 0.0000 0.0000 1810.2690 -7499.2476 305.4892 -9309.5166 -7499.2476 305.4892 422.5060 486.4059 30693.2008 422.5060 486.4059
ENERGY: 300000 0.8377 11.5230 0.5488 0.0000 -10730.6382 1415.9795 0.0000 0.0000 1769.0999 -7532.6494 298.5418 -9301.7493 -7503.7097 300.0958 -197.3630 -138.5376 30398.9695 -436.9478 -372.1663
ENERGY: 600000 3.4472 8.4530 0.8537 0.0000 -10743.7913 1503.2128 0.0000 0.0000 1798.1580 -7429.6665 303.4454 -9227.8246 -7508.8629 300.3577 614.0194 617.3351 30517.3256 -64.6956 -16.2349
ENERGY: 900000 1.4728 5.4774 0.6293 0.0000 -10736.1375 1430.6253 0.0000 0.0000 1854.9529 -7442.9798 313.0298 -9297.9327 -7502.9769 300.8161 -57.6353 53.8388 30438.7176 73.1656 134.6884
ENERGY: 1200000 4.4513 8.3652 2.6896 0.0000 -10827.9609 1520.6510 0.0000 0.0000 1767.7849 -7524.0188 298.3199 -9291.8037 -7516.5876 299.8664 548.1209 605.4573 30477.8725 73.8913 134.4144
ENERGY: 1500000 1.8245 7.0675 1.3920 0.0000 -10761.8890 1487.4896 0.0000 0.0000 1788.6673 -7475.4482 301.8438 -9264.1155 -7510.1083 299.9149 471.2457 564.7219 30079.0411 55.5485 120.0532
TCL: Running FEP window   7: Lambda1 0.3    Lambda2 0.35   [dLambda 0.04999999999999999]
TCL: Setting parameter firsttimestep to 0
TCL: Setting parameter alchLambda to 0.3
Info: NONBONDED TABLE R-SQUARED SPACING: 0.0625
Info: NONBONDED TABLE SIZE: 705 POINTS
TCL: Setting parameter alchLambda2 to 0.35
Info: NONBONDED TABLE R-SQUARED SPACING: 0.0625
Info: NONBONDED TABLE SIZE: 705 POINTS
TCL: Running for 1500000 steps
ETITLE: TS BOND ANGLE DIHED IMPRP ELECT VDW BOUNDARY MISC KINETIC TOTAL TEMP POTENTIAL TOTALAVG TEMPAVG PRESSURE GPRESSURE VOLUME PRESSAVG GPRESSAVG
ENERGY: 0 1.8245 7.0675 1.3920 0.0000 -10761.8881 1487.4766 0.0000 0.0000 1787.7788 -7476.3487 301.6939 -9264.1276 -7476.3487 301.6939 488.4406 567.0633 30079.0411 488.4406 567.0633
ENERGY: 300000 3.3859 8.9523 1.7549 0.0000 -10918.6789 1518.7053 0.0000 0.0000 1802.5133 -7583.3673 304.1804 -9385.8806 -7535.0087 300.9279 374.0716 499.7860 30389.4883 283.1926 344.8778
ENERGY: 600000 3.0503 7.7507 1.9188 0.0000 -10768.7021 1463.0395 0.0000 0.0000 1747.0621 -7545.8807 294.8228 -9292.9428 -7531.2841 300.3143 121.1511 138.6040 30455.4298 108.4716 178.2830
ENERGY: 900000 1.5780 11.7123 1.3640 0.0000 -10867.8438 1531.7133 0.0000 0.0000 1776.6279 -7544.8483 299.8121 -9321.4761 -7528.6236 301.1280 685.5399 737.1410 30355.0677 184.0645 261.5319
ENERGY: 1200000 1.9859 7.5120 1.5099 0.0000 -10721.7174 1434.3517 0.0000 0.0000 1779.6576 -7496.7002 300.3234 -9276.3578 -7532.1588 300.8578 -102.9113 -46.1678 30572.1596 273.7884 338.0601
ENERGY: 1500000 1.3497 10.0291 2.3154 0.0000 -10734.2263 1461.2743 0.0000 0.0000 1791.4829 -7467.7748 302.3190 -9259.2577 -7525.9283 300.6966 47.6566 111.5601 30823.2941 241.1136 306.5129
TCL: Running FEP window   8: Lambda1 0.35   Lambda2 0.39999999999999997 [dLambda 0.04999999999999999]
TCL: Setting parameter firsttimestep to 0
TCL: Setting parameter alchLambda to 0.35
Info: NONBONDED TABLE R-SQUARED SPACING: 0.0625
Info: NONBONDED TABLE SIZE: 705 POINTS
TCL: Setting parameter alchLambda2 to 0.39999999999999997
Info: NONBONDED TABLE R-SQUARED SPACING: 0.0625
Info: NONBONDED TABLE SIZE: 705 POINTS
TCL: Running for 1500000 steps
ETITLE: TS BOND ANGLE DIHED IMPRP ELECT VDW BOUNDARY MISC KINETIC TOTAL TEMP POTENTIAL TOTALAVG TEMPAVG PRESSURE GPRESSURE VOLUME PRESSAVG GPRESSAVG
ENERGY: 0 1.3497 10.0291 2.3154 0.0000 -10734.2269 1462.1352 0.0000 0.0000 1790.6093 -7467.7882 302.1716 -9258.3975 -7467.7882 302.1716 42.6614 121.6138 30823.2941 42.6614 121.6138
ENERGY: 300000 1.3721 8.9327 2.2569 0.0000 -10766.0257 1463.4447 0.0000 0.0000 1803.3513 -7486.6680 304.3218 -9290.0193 -7503.2565 302.1558 129.8141 266.1301 30558.9538 -38.3191 45.6622
ENERGY: 600000 1.5893 6.5471 1.4240 0.0000 -10806.3705 1437.5794 0.0000 0.0000 1853.4321 -7505.7987 312.7731 -9359.2307 -7525.2654 301.9394 57.3641 98.8123 30082.3145 -6.6329 62.0251
ENERGY: 900000 1.8253 7.9327 1.1313 0.0000 -10716.5470 1410.4798 0.0000 0.0000 1791.5303 -7503.6476 302.3270 -9295.1778 -7522.9199 301.2512 -55.8134 -16.6644 30325.6234 -125.9109 -58.3524
ENERGY: 1200000 2.5787 11.9160 0.7764 0.0000 -10755.2258 1357.6091 0.0000 0.0000 1796.2385 -7586.1071 303.1215 -9382.3456 -7527.7114 300.8085 -984.4596 -933.8035 30565.1222 -153.5460 -90.9105
ENERGY: 1500000 2.1314 10.7433 2.6840 0.0000 -10745.4761 1470.6679 0.0000 0.0000 1801.8751 -7457.3744 304.0727 -9259.2494 -7523.0605 300.4182 177.9429 236.3434 30708.8277 -110.4447 -51.1642
TCL: Running FEP window   9: Lambda1 0.39999999999999997 Lambda2 0.44999999999999996 [dLambda 0.04999999999999999]
TCL: Setting parameter firsttimestep to 0
TCL: Setting parameter alchLambda to 0.39999999999999997
Info: NONBONDED TABLE R-SQUARED SPACING: 0.0625
Info: NONBONDED TABLE SIZE: 705 POINTS
TCL: Setting parameter alchLambda2 to 0.44999999999999996
Info: NONBONDED TABLE R-SQUARED SPACING: 0.0625
Info: NONBONDED TABLE SIZE: 705 POINTS
TCL: Running for 1500000 steps
ETITLE: TS BOND ANGLE DIHED IMPRP ELECT VDW BOUNDARY MISC KINETIC TOTAL TEMP POTENTIAL TOTALAVG TEMPAVG PRESSURE GPRESSURE VOLUME PRESSAVG GPRESSAVG
ENERGY: 0 2.1314 10.7433 2.6840 0.0000 -10745.4750 1471.5808 0.0000 0.0000 1800.9867 -7457.3487 303.9228 -9258.3354 -7457.3487 303.9228 143.5500 248.1859 30708.8277 143.5500 248.1859
ENERGY: 300000 1.9451 4.9741 0.8462 0.0000 -10809.5739 1501.3148 0.0000 0.0000 1816.0410 -7484.4527 306.4632 -9300.4937 -7538.3867 298.6179 323.4541 369.2180 30701.2623 226.8833 279.3304
ENERGY: 600000 1.7966 5.3172 2.5975 0.0000 -10781.0598 1392.1911 0.0000 0.0000 1743.5705 -7635.5870 294.2336 -9379.1575 -7548.6186 299.8526 -579.5156 -482.8602 30164.9327 84.6066 149.0050
ENERGY: 900000 3.4387 12.1451 1.6039 0.0000 -10801.1938 1490.8418 0.0000 0.0000 1759.5848 -7533.5795 296.9361 -9293.1643 -7546.1000 298.3038 39.4216 172.0658 30826.1741 54.0238 120.3483
ENERGY: 1200000 2.7909 10.2712 0.3898 0.0000 -10886.8086 1584.3881 0.0000 0.0000 1747.8298 -7541.1388 294.9524 -9288.9686 -7538.5534 299.0611 1562.1132 1575.6383 29816.8038 154.1437 217.6147
ENERGY: 1500000 2.8538 8.6751 1.0607 0.0000 -10796.5366 1441.6434 0.0000 0.0000 1788.5644 -7553.7392 301.8265 -9342.3036 -7530.6926 299.7934 -57.6506 -33.2801 30262.2351 112.5447 177.0208
TCL: Running FEP window  10: Lambda1 0.44999999999999996 Lambda2 0.49999999999999994 [dLambda 0.04999999999999999]
TCL: Setting parameter firsttimestep to 0
TCL: Setting parameter alchLambda to 0.44999999999999996
Info: NONBONDED TABLE R-SQUARED SPACING: 0.0625
Info: NONBONDED TABLE SIZE: 705 POINTS
TCL: Setting parameter alchLambda2 to 0.49999999999999994
Info: NONBONDED TABLE R-SQUARED SPACING: 0.0625
Info: NONBONDED TABLE SIZE: 705 POINTS
TCL: Running for 1500000 steps
ETITLE: TS BOND ANGLE DIHED IMPRP ELECT VDW BOUNDARY MISC KINETIC TOTAL TEMP POTENTIAL TOTALAVG TEMPAVG PRESSURE GPRESSURE VOLUME PRESSAVG GPRESSAVG
ENERGY: 0 2.8538 8.6751 1.0607 0.0000 -10796.5382 1442.7254 0.0000 0.0000 1787.6597 -7553.5634 301.6738 -9341.2231 -7553.5634 301.6738 -109.8270 -18.1512 30262.2351 -109.8270 -18.1512
ENERGY: 300000 2.9632 13.1151 1.6865 0.0000 -10827.6227 1506.2031 0.0000 0.0000 1803.4919 -7500.1629 304.3455 -9303.6548 -7531.3740 301.7439 287.4227 386.8739 30150.8292 202.4145 281.2026
ENERGY: 600000 3.7274 7.9406 1.8137 0.0000 -10732.6410 1464.3055 0.0000 0.0000 1782.1025 -7472.7513 300.7360 -9254.8538 -7515.4863 301.6857 51.5867 114.3821 31060.5172 149.9700 223.9471
ENERGY: 900000 4.9855 9.1355 1.1734 0.0000 -10812.3277 1447.9832 0.0000 0.0000 1779.7201 -7569.3300 300.3340 -9349.0501 -7532.8593 300.8528 -471.0545 -347.9931 30811.0968 50.5322 121.1716
ENERGY: 1200000 4.2556 8.5557 1.3153 0.0000 -10791.8087 1446.1362 0.0000 0.0000 1790.5903 -7540.9556 302.1684 -9331.5459 -7521.5566 300.2260 -298.8618 -236.1495 30511.0152 -42.6475 22.2524
ENERGY: 1500000 2.9707 9.7075 2.0640 0.0000 -10732.4002 1439.3312 0.0000 0.0000 1760.6072 -7517.7197 297.1086 -9278.3269 -7522.6852 299.2105 46.3004 58.9349 30531.2761 42.3801 104.7218
TCL: Running FEP window  11: Lambda1 0.49999999999999994 Lambda2 0.5499999999999999 [dLambda 0.04999999999999999]
TCL: Setting parameter firsttimestep to 0
TCL: Setting parameter alchLambda to 0.49999999999999994
Info: NONBONDED TABLE R-SQUARED SPACING: 0.0625
Info: NONBONDED TABLE SIZE: 705 POINTS
TCL: Setting parameter alchLambda2 to 0.5499999999999999
Info: NONBONDED TABLE R-SQUARED SPACING: 0.0625
Info: NONBONDED TABLE SIZE: 705 POINTS
TCL: Running for 1500000 steps
ETITLE: TS BOND ANGLE DIHED IMPRP ELECT VDW BOUNDARY MISC KINETIC TOTAL TEMP POTENTIAL TOTALAVG TEMPAVG PRESSURE GPRESSURE VOLUME PRESSAVG GPRESSAVG
ENERGY: 0 2.9707 9.7075 2.0640 0.0000 -10732.3997 1440.2623 0.0000 0.0000 1759.7246 -7517.6707 296.9597 -9277.3953 -7517.6707 296.9597 -11.9839 72.2925 30531.2761 -11.9839 72.2925
ENERGY: 300000 3.8303 7.8817 2.0451 0.0000 -10716.6470 1389.8381 0.0000 0.0000 1790.4685 -7522.5834 302.1478 -9313.0518 -7506.8024 302.0444 -545.0455 -534.5141 30691.8955 -15.9703 12.8989
ENERGY: 600000 3.5000 8.2995 3.1777 0.0000 -10676.6709 1337.9739 0.0000 0.0000 1765.2878 -7558.4320 297.8985 -9323.7198 -7524.6395 299.9475 -1113.1321 -1021.8923 30766.1251 -51.1443 7.6147
ENERGY: 900000 1.6670 8.6559 2.7332 0.0000 -10816.7007 1505.0662 0.0000 0.0000 1797.1180 -7501.4603 303.2699 -9298.5783 -7526.4166 300.8556 921.2147 1003.1352 29976.6110 21.0299 91.2663
ENERGY: 1200000 3.6996 6.8859 0.8073 0.0000 -10608.2762 1343.3100 0.0000 0.0000 1787.9622 -7465.6111 301.7249 -9253.5733 -7524.2936 300.4107 -780.9123 -722.6314 30854.9897 -61.3875 0.8566
ENERGY: 1500000 2.0608 11.1914 4.4854 0.0000 -10877.3741 1477.3968 0.0000 0.0000 1773.0614 -7609.1782 299.2103 -9382.2396 -7534.4480 299.6786 128.4296 170.4966 30382.8008 -27.4914 28.0902
TCL: Running FEP window  12: Lambda1 0.5499999999999999 Lambda2 0.6    [dLambda 0.050000000000000044]
TCL: Setting parameter firsttimestep to 0
TCL: Setting parameter alchLambda to 0.5499999999999999
Info: NONBONDED TABLE R-SQUARED SPACING: 0.0625
Info: NONBONDED TABLE SIZE: 705 POINTS
TCL: Setting parameter alchLambda2 to 0.6
Info: NONBONDED TABLE R-SQUARED SPACING: 0.0625
Info: NONBONDED TABLE SIZE: 705 POINTS
TCL: Running for 1500000 steps
ETITLE: TS BOND ANGLE DIHED IMPRP ELECT VDW BOUNDARY MISC KINETIC TOTAL TEMP POTENTIAL TOTALAVG TEMPAVG PRESSURE GPRESSURE VOLUME PRESSAVG GPRESSAVG
ENERGY: 0 2.0608 11.1914 4.4854 0.0000 -10876.8964 1477.1026 0.0000 0.0000 1772.1960 -7609.8601 299.0642 -9382.0561 -7609.8601 299.0642 96.1793 177.7460 30382.8008 96.1793 177.7460
ENERGY: 300000 3.5626 7.5359 0.9702 0.0000 -10555.5754 1342.1252 0.0000 0.0000 1776.7933 -7424.5882 299.8401 -9201.3815 -7527.5356 300.6646 -961.9190 -960.8107 31490.5256 -443.3005 -401.5284
ENERGY: 600000 2.0837 11.2850 0.3689 0.0000 -10815.7368 1485.6931 0.0000 0.0000 1761.6394 -7554.6666 297.2828 -9316.3061 -7526.5472 302.8816 264.6615 351.3178 30242.6599 -202.4373 -159.7113
ENERGY: 900000 2.8931 7.8225 0.8408 0.0000 -10814.6240 1487.1901 0.0000 0.0000 1767.9640 -7547.9135 298.3501 -9315.8774 -7535.1172 301.7341 317.6641 430.6636 30181.8386 -110.0196 -56.7875
ENERGY: 1200000 1.6136 8.6158 1.2152 0.0000 -10963.3254 1521.0846 0.0000 0.0000 1744.1139 -7686.6824 294.3253 -9430.7963 -7544.4574 301.0494 84.0570 172.3383 30695.3492 -106.4994 -48.0244
ENERGY: 1500000 2.9551 11.5088 0.4382 0.0000 -10928.8731 1547.6397 0.0000 0.0000 1770.9055 -7595.4259 298.8465 -9366.3313 -7537.0435 301.0512 419.6998 498.4240 30827.3297 -46.3944 17.5225
TCL: Running FEP window  13: Lambda1 0.6    Lambda2 0.65   [dLambda 0.050000000000000044]
TCL: Setting parameter firsttimestep to 0
TCL: Setting parameter alchLambda to 0.6
Info: NONBONDED TABLE R-SQUARED SPACING: 0.0625
Info: NONBONDED TABLE SIZE: 705 POINTS
TCL: Setting parameter alchLambda2 to 0.65
Info: NONBONDED TABLE R-SQUARED SPACING: 0.0625
Info: NONBONDED TABLE SIZE: 705 POINTS
TCL: Running for 1500000 steps
ETITLE: TS BOND ANGLE DIHED IMPRP ELECT VDW BOUNDARY MISC KINETIC TOTAL TEMP POTENTIAL TOTALAVG TEMPAVG PRESSURE GPRESSURE VOLUME PRESSAVG GPRESSAVG
ENERGY: 0 2.9551 11.5088 0.4382 0.0000 -10928.6582 1547.7165 0.0000 0.0000 1770.0235 -7596.0160 298.6976 -9366.0395 -7596.0160 298.6976 430.0418 508.9863 30827.3297 430.0418 508.9863
ENERGY: 300000 1.5694 9.9092 0.7086 0.0000 -10626.3249 1381.8526 0.0000 0.0000 1783.0562 -7449.2288 300.8969 -9232.2850 -7520.5450 303.3755 -436.0299 -338.0489 31092.7794 -28.3275 37.9863
ENERGY: 600000 5.9487 7.1606 1.7305 0.0000 -10539.0375 1293.1818 0.0000 0.0000 1763.8702 -7467.1457 297.6592 -9231.0159 -7529.3443 300.1419 -1356.7909 -1249.5546 31052.6866 -288.1404 -217.0740
ENERGY: 900000 2.2943 12.1067 0.8547 0.0000 -10843.8362 1474.1286 0.0000 0.0000 1727.5707 -7626.8813 291.5336 -9354.4519 -7529.8373 300.2899 -44.6027 -3.5656 30447.6249 -232.1703 -154.3500
ENERGY: 1200000 1.0048 9.9897 1.1789 0.0000 -10779.8906 1441.2684 0.0000 0.0000 1782.1213 -7544.3274 300.7392 -9326.4487 -7529.7944 300.3457 9.2508 -12.6032 30328.6302 -150.5266 -96.5781
ENERGY: 1500000 4.5475 9.7201 1.0050 0.0000 -10776.2227 1394.1931 0.0000 0.0000 1716.6237 -7650.1333 289.6862 -9366.7570 -7533.8156 299.4463 -724.6723 -728.2705 30868.0422 -233.6916 -180.3226
TCL: Running FEP window  14: Lambda1 0.65   Lambda2 0.7000000000000001 [dLambda 0.050000000000000044]
TCL: Setting parameter firsttimestep to 0
TCL: Setting parameter alchLambda to 0.65
Info: NONBONDED TABLE R-SQUARED SPACING: 0.0625
Info: NONBONDED TABLE SIZE: 705 POINTS
TCL: Setting parameter alchLambda2 to 0.7000000000000001
Info: NONBONDED TABLE R-SQUARED SPACING: 0.0625
Info: NONBONDED TABLE SIZE: 705 POINTS
TCL: Running for 1500000 steps
ETITLE: TS BOND ANGLE DIHED IMPRP ELECT VDW BOUNDARY MISC KINETIC TOTAL TEMP POTENTIAL TOTALAVG TEMPAVG PRESSURE GPRESSURE VOLUME PRESSAVG GPRESSAVG
ENERGY: 0 4.5475 9.7201 1.0050 0.0000 -10776.3110 1395.0966 0.0000 0.0000 1715.7110 -7650.2310 289.5322 -9365.9419 -7650.2310 289.5322 -779.6313 -710.7043 30868.0422 -779.6313 -710.7043
ENERGY: 300000 4.7459 8.0386 1.7724 0.0000 -10730.4153 1404.3542 0.0000 0.0000 1830.6356 -7480.8686 308.9261 -9311.5042 -7543.8354 299.3744 -396.1508 -338.1674 30580.9920 -455.8492 -414.9921
ENERGY: 600000 1.4503 5.7880 2.0583 0.0000 -10697.7451 1431.3114 0.0000 0.0000 1740.7913 -7516.3460 293.7646 -9257.1372 -7529.6999 298.8217 132.9838 168.8708 30525.5611 -243.4202 -186.4306
ENERGY: 900000 0.8820 6.7828 1.6473 0.0000 -10740.2471 1417.2216 0.0000 0.0000 1812.9976 -7500.7158 305.9497 -9313.7134 -7531.9352 299.0103 -310.2268 -285.1277 30853.2573 -291.0293 -222.4359
ENERGY: 1200000 3.5462 10.4094 2.9239 0.0000 -10787.0558 1439.7950 0.0000 0.0000 1770.0611 -7560.3202 298.7040 -9330.3812 -7537.0936 298.8716 -690.5455 -613.7731 31285.6471 -356.1080 -289.7811
ENERGY: 1500000 0.8877 8.1979 0.7069 0.0000 -10855.7969 1488.8654 0.0000 0.0000 1778.8014 -7578.3376 300.1789 -9357.1390 -7531.4530 299.0594 558.2478 579.2505 30092.8923 -272.0840 -213.3398
TCL: Running FEP window  15: Lambda1 0.7000000000000001 Lambda2 0.7500000000000001 [dLambda 0.050000000000000044]
TCL: Setting parameter firsttimestep to 0
TCL: Setting parameter alchLambda to 0.7000000000000001
Info: NONBONDED TABLE R-SQUARED SPACING: 0.0625
Info: NONBONDED TABLE SIZE: 705 POINTS
TCL: Setting parameter alchLambda2 to 0.7500000000000001
Info: NONBONDED TABLE R-SQUARED SPACING: 0.0625
Info: NONBONDED TABLE SIZE: 705 POINTS
TCL: Running for 1500000 steps
ETITLE: TS BOND ANGLE DIHED IMPRP ELECT VDW BOUNDARY MISC KINETIC TOTAL TEMP POTENTIAL TOTALAVG TEMPAVG PRESSURE GPRESSURE VOLUME PRESSAVG GPRESSAVG
ENERGY: 0 0.8877 8.1978 0.7069 0.0000 -10856.3384 1491.1970 0.0000 0.0000 1777.9241 -7577.4248 300.0309 -9355.3489 -7577.4248 300.0309 531.5345 611.5880 30092.8923 531.5345 611.5880
ENERGY: 300000 4.3518 9.2971 1.6203 0.0000 -10646.3964 1435.3142 0.0000 0.0000 1707.3721 -7488.4410 288.1250 -9195.8131 -7520.5854 297.1672 191.7059 268.0335 30576.3035 237.0569 312.7699
ENERGY: 600000 2.7246 5.4686 0.8234 0.0000 -10739.3306 1417.0378 0.0000 0.0000 1790.7074 -7522.5690 302.1881 -9313.2763 -7552.2589 296.3913 -416.4802 -350.2012 30680.9599 -46.3023 32.9900
ENERGY: 900000 4.7454 7.5241 0.4921 0.0000 -10726.3790 1394.0441 0.0000 0.0000 1779.4254 -7540.1480 300.2842 -9319.5734 -7537.8537 298.2829 -857.1763 -792.9321 31099.9670 -136.4648 -64.8561
ENERGY: 1200000 3.8344 7.1323 0.7334 0.0000 -10741.2207 1423.4859 0.0000 0.0000 1794.1358 -7511.8990 302.7667 -9306.0348 -7536.9383 298.7200 -209.0798 -140.8957 30484.9333 -75.8019 -5.3130
ENERGY: 1500000 2.1115 7.2268 0.2161 0.0000 -10730.4204 1392.1482 0.0000 0.0000 1765.6927 -7563.0251 297.9668 -9328.7178 -7535.5795 299.6551 -703.5780 -636.8224 31060.1907 -115.2643 -42.4722
TCL: Running FEP window  16: Lambda1 0.7500000000000001 Lambda2 0.8000000000000002 [dLambda 0.050000000000000044]
TCL: Setting parameter firsttimestep to 0
TCL: Setting parameter alchLambda to 0.7500000000000001
Info: NONBONDED TABLE R-SQUARED SPACING: 0.0625
Info: NONBONDED TABLE SIZE: 705 POINTS
TCL: Setting parameter alchLambda2 to 0.8000000000000002
Info: NONBONDED TABLE R-SQUARED SPACING: 0.0625
Info: NONBONDED TABLE SIZE: 705 POINTS
TCL: Running for 1500000 steps
ETITLE: TS BOND ANGLE DIHED IMPRP ELECT VDW BOUNDARY MISC KINETIC TOTAL TEMP POTENTIAL TOTALAVG TEMPAVG PRESSURE GPRESSURE VOLUME PRESSAVG GPRESSAVG
ENERGY: 0 2.1115 7.2268 0.2161 0.0000 -10731.4019 1392.5948 0.0000 0.0000 1764.8294 -7564.4234 297.8211 -9329.2528 -7564.4234 297.8211 -710.7182 -624.8688 31060.1907 -710.7182 -624.8688
ENERGY: 300000 0.5309 7.9706 1.5077 0.0000 -10843.3172 1546.6109 0.0000 0.0000 1792.5928 -7494.1043 302.5063 -9286.6971 -7551.0044 300.4408 1174.5399 1105.7906 30218.3416 276.0410 307.8698
ENERGY: 600000 0.4557 9.3574 0.9056 0.0000 -10742.8505 1465.4376 0.0000 0.0000 1812.7410 -7453.9531 305.9064 -9266.6941 -7523.5605 301.7846 201.3730 274.2001 30791.5153 302.9856 350.7856
ENERGY: 900000 1.2100 6.7217 0.5065 0.0000 -10863.6744 1462.2481 0.0000 0.0000 1836.7597 -7556.2283 309.9596 -9392.9880 -7521.2010 302.9029 24.0572 113.8796 30488.3621 208.8677 263.1755
ENERGY: 1200000 9.2966 8.5038 1.0865 0.0000 -10743.4951 1478.2553 0.0000 0.0000 1798.4333 -7447.9195 303.4919 -9246.3528 -7511.9837 302.4735 458.3621 533.7993 30452.5920 211.0182 269.9222
ENERGY: 1500000 1.8522 7.6284 1.5039 0.0000 -10765.2087 1401.1625 0.0000 0.0000 1733.9649 -7619.0968 292.6126 -9353.0617 -7520.2110 302.2743 -618.3116 -545.6338 30638.4753 140.2325 197.5960
TCL: Running FEP window  17: Lambda1 0.8000000000000002 Lambda2 0.8500000000000002 [dLambda 0.050000000000000044]
TCL: Setting parameter firsttimestep to 0
TCL: Setting parameter alchLambda to 0.8000000000000002
Info: NONBONDED TABLE R-SQUARED SPACING: 0.0625
Info: NONBONDED TABLE SIZE: 705 POINTS
TCL: Setting parameter alchLambda2 to 0.8500000000000002
Info: NONBONDED TABLE R-SQUARED SPACING: 0.0625
Info: NONBONDED TABLE SIZE: 705 POINTS
TCL: Running for 1500000 steps
ETITLE: TS BOND ANGLE DIHED IMPRP ELECT VDW BOUNDARY MISC KINETIC TOTAL TEMP POTENTIAL TOTALAVG TEMPAVG PRESSURE GPRESSURE VOLUME PRESSAVG GPRESSAVG
ENERGY: 0 1.8522 7.6284 1.5039 0.0000 -10765.6178 1401.0495 0.0000 0.0000 1733.0761 -7620.5076 292.4626 -9353.5837 -7620.5076 292.4626 -607.3146 -536.5942 30638.4753 -607.3146 -536.5942
ENERGY: 300000 4.4629 10.5295 2.8880 0.0000 -10697.9615 1426.4431 0.0000 0.0000 1819.2095 -7434.4287 306.9979 -9253.6381 -7500.3608 303.1281 -216.1647 -158.8598 31287.5388 -242.1606 -185.2845
ENERGY: 600000 2.8866 9.8827 1.9228 0.0000 -10849.5524 1538.0962 0.0000 0.0000 1748.3270 -7548.4371 295.0363 -9296.7641 -7499.8475 301.0763 712.6292 785.1696 30570.1556 -177.5422 -124.6630
ENERGY: 900000 1.4993 11.7329 0.7325 0.0000 -10907.8104 1535.7227 0.0000 0.0000 1803.6130 -7554.5100 304.3660 -9358.1230 -7507.8232 301.4725 660.0435 704.6991 30516.5881 -156.3214 -91.8503
ENERGY: 1200000 2.5170 7.4104 0.7393 0.0000 -10852.1296 1468.1001 0.0000 0.0000 1787.3221 -7586.0407 301.6168 -9373.3629 -7511.9554 301.7267 361.8956 452.5401 30005.0353 -137.7703 -73.0373
ENERGY: 1500000 2.9301 11.3405 0.7895 0.0000 -10819.0478 1489.1622 0.0000 0.0000 1733.6555 -7581.1699 292.5604 -9314.8254 -7520.8471 300.3003 87.0506 144.9581 30802.0597 -136.7717 -75.2106
TCL: Running FEP window  18: Lambda1 0.8500000000000002 Lambda2 0.9000000000000002 [dLambda 0.050000000000000044]
TCL: Setting parameter firsttimestep to 0
TCL: Setting parameter alchLambda to 0.8500000000000002
Info: NONBONDED TABLE R-SQUARED SPACING: 0.0625
Info: NONBONDED TABLE SIZE: 705 POINTS
TCL: Setting parameter alchLambda2 to 0.9000000000000002
Info: NONBONDED TABLE R-SQUARED SPACING: 0.0625
Info: NONBONDED TABLE SIZE: 705 POINTS
TCL: Running for 1500000 steps
ETITLE: TS BOND ANGLE DIHED IMPRP ELECT VDW BOUNDARY MISC KINETIC TOTAL TEMP POTENTIAL TOTALAVG TEMPAVG PRESSURE GPRESSURE VOLUME PRESSAVG GPRESSAVG
ENERGY: 0 2.9301 11.3405 0.7895 0.0000 -10820.2925 1489.5400 0.0000 0.0000 1732.7900 -7582.9023 292.4144 -9315.6923 -7582.9023 292.4144 79.6240 160.0192 30802.0597 79.6240 160.0192
ENERGY: 300000 3.6976 7.0448 1.6025 0.0000 -10829.7765 1443.5876 0.0000 0.0000 1780.5765 -7593.2675 300.4785 -9373.8439 -7525.8995 299.6126 -128.1114 -65.5547 30028.4298 242.6418 305.9568
ENERGY: 600000 2.9148 12.3455 2.3740 0.0000 -10710.7667 1418.5265 0.0000 0.0000 1760.6212 -7513.9847 297.1110 -9274.6059 -7555.8726 297.7017 -307.8947 -243.1932 30811.1761 58.9229 120.6104
ENERGY: 900000 6.2072 10.9379 1.5195 0.0000 -10675.6522 1485.3227 0.0000 0.0000 1773.4441 -7398.2208 299.2749 -9171.6649 -7528.5093 299.3129 306.6469 389.5075 31388.3953 111.5006 178.1112
ENERGY: 1200000 4.8663 7.6050 0.8808 0.0000 -10832.2763 1431.6267 0.0000 0.0000 1812.8500 -7574.4476 305.9248 -9387.2976 -7533.7678 299.9757 -152.8491 -102.6132 30132.1327 136.3042 207.2783
ENERGY: 1500000 2.3895 6.1008 1.2572 0.0000 -10747.6838 1424.6318 0.0000 0.0000 1736.2371 -7577.0675 292.9961 -9313.3045 -7531.9207 300.4337 68.1102 173.9591 30182.3486 157.7028 231.5566
TCL: Running FEP window  19: Lambda1 0.9000000000000002 Lambda2 0.9500000000000003 [dLambda 0.050000000000000044]
TCL: Setting parameter firsttimestep to 0
TCL: Setting parameter alchLambda to 0.9000000000000002
Info: NONBONDED TABLE R-SQUARED SPACING: 0.0625
Info: NONBONDED TABLE SIZE: 705 POINTS
TCL: Setting parameter alchLambda2 to 0.9500000000000003
Info: NONBONDED TABLE R-SQUARED SPACING: 0.0625
Info: NONBONDED TABLE SIZE: 705 POINTS
TCL: Running for 1500000 steps
ETITLE: TS BOND ANGLE DIHED IMPRP ELECT VDW BOUNDARY MISC KINETIC TOTAL TEMP POTENTIAL TOTALAVG TEMPAVG PRESSURE GPRESSURE VOLUME PRESSAVG GPRESSAVG
ENERGY: 0 2.3895 6.1008 1.2572 0.0000 -10748.7387 1426.0810 0.0000 0.0000 1735.3866 -7577.5235 292.8525 -9312.9102 -7577.5235 292.8525 124.4319 199.8211 30182.3486 124.4319 199.8211
ENERGY: 300000 2.1875 7.6903 2.6430 0.0000 -10838.0669 1464.9041 0.0000 0.0000 1721.4331 -7639.2090 290.4978 -9360.6421 -7543.7845 294.3774 -51.0731 -49.6207 30383.3424 13.7106 59.6862
ENERGY: 600000 5.6125 9.1198 3.6465 0.0000 -10579.5001 1322.1410 0.0000 0.0000 1782.6072 -7456.3731 300.8212 -9238.9803 -7514.8584 297.0947 -866.6233 -764.4447 30739.1240 -270.4324 -214.3645
ENERGY: 900000 1.3367 17.4450 1.3052 0.0000 -10809.9777 1494.6689 0.0000 0.0000 1733.0568 -7562.1652 292.4594 -9295.2220 -7533.9890 296.5113 290.7996 348.0863 30803.2809 -131.0898 -78.5448
ENERGY: 1200000 5.5989 6.6965 1.8003 0.0000 -10686.2878 1383.5872 0.0000 0.0000 1765.7059 -7522.8991 297.9690 -9288.6049 -7537.7244 296.3137 -597.6571 -549.9233 30924.7249 -182.2389 -124.5488
ENERGY: 1500000 2.3997 9.0606 1.7131 0.0000 -10540.6736 1358.4153 0.0000 0.0000 1792.2133 -7376.8716 302.4422 -9169.0849 -7533.2998 297.0322 -332.2211 -257.7467 30634.7727 -220.9480 -167.2418
TCL: Running FEP window  20: Lambda1 0.9500000000000003 Lambda2 1.0    [dLambda 0.04999999999999971]
TCL: Setting parameter firsttimestep to 0
TCL: Setting parameter alchLambda to 0.9500000000000003
Info: NONBONDED TABLE R-SQUARED SPACING: 0.0625
Info: NONBONDED TABLE SIZE: 705 POINTS
TCL: Setting parameter alchLambda2 to 1.0
Info: NONBONDED TABLE R-SQUARED SPACING: 0.0625
Info: NONBONDED TABLE SIZE: 705 POINTS
TCL: Running for 1500000 steps
ETITLE: TS BOND ANGLE DIHED IMPRP ELECT VDW BOUNDARY MISC KINETIC TOTAL TEMP POTENTIAL TOTALAVG TEMPAVG PRESSURE GPRESSURE VOLUME PRESSAVG GPRESSAVG
ENERGY: 0 2.3997 9.0606 1.7131 0.0000 -10541.7808 1357.7991 0.0000 0.0000 1791.3365 -7379.4717 302.2943 -9170.8082 -7379.4717 302.2943 -344.4774 -254.0615 30634.7727 -344.4774 -254.0615
ENERGY: 300000 4.0551 7.1780 0.8666 0.0000 -10643.8316 1350.1100 0.0000 0.0000 1818.1233 -7463.4986 306.8146 -9281.6219 -7488.4782 300.8441 -420.7310 -302.3722 30192.5871 -192.6290 -104.5740
ENERGY: 600000 1.8724 8.7183 1.8456 0.0000 -10759.7776 1446.0354 0.0000 0.0000 1774.3857 -7526.9202 299.4338 -9301.3059 -7530.0183 299.7237 79.1837 176.6720 30547.4362 -195.3504 -111.3868
ENERGY: 900000 1.4998 6.2498 1.7635 0.0000 -10981.3952 1600.3967 0.0000 0.0000 1801.0491 -7570.4363 303.9333 -9371.4855 -7537.3058 300.5879 1253.8515 1239.6125 30113.8056 22.2834 85.8705
ENERGY: 1200000 6.4263 3.8232 0.3194 0.0000 -10744.6991 1364.1772 0.0000 0.0000 1833.0650 -7536.8879 309.3361 -9369.9530 -7542.2672 301.6007 -1094.6968 -1063.0121 30995.7616 -95.1916 -34.4840
ENERGY: 1500000 3.8231 9.3170 2.2469 0.0000 -10877.1966 1490.2752 0.0000 0.0000 1686.3325 -7685.2018 284.5745 -9371.5343 -7558.3599 299.9124 132.5627 130.7222 30469.5119 -107.7315 -53.8743
TCL: Exiting due to exit command.
