Info: SIMULATION PARAMETERS:
Info: TIMESTEP               2
Info: NUMBER OF STEPS        0
Info: STEPS PER CYCLE        10
Info: PERIODIC CELL BASIS 1  31.9458 0 0
Info: PERIODIC CELL BASIS 2  0 30.3976 0
Info: PERIODIC CELL BASIS 3  0 0 31.85
Info: PERIODIC CELL CENTER   0 0 0
Info: WRAPPING WATERS AROUND PERIODIC BOUNDARIES ON OUTPUT.
Info: WRAPPING ALL CLUSTERS AROUND PERIODIC BOUNDARIES ON OUTPUT.
Info: FIRST LDB TIMESTEP     50
Info: LAST LDB TIMESTEP     -1
Info: HOM BACKGROUND SCALING 1
Info: PME BACKGROUND SCALING 1
Info: MIN ATOMS PER PATCH    40
Info: EMPTY PATCH LOAD       40 ATOMS
Info: VELOCITY FILE          mobley_778352_equil.vel
Info: CENTER OF MASS MOVING INITIALLY? NO
Info: DIELECTRIC             1
Info: EXCLUDE                SCALED ONE-FOUR
Info: 1-4 ELECTROSTATICS SCALED BY 0.833333
Info: MODIFIED 1-4 VDW PARAMETERS WILL BE USED
Info: DCD FILENAME           mobley_778352_prod.dcd
Info: DCD FREQUENCY          100000
Info: DCD FIRST STEP         100000
Info: DCD FILE WILL CONTAIN UNIT CELL DATA
Info: XST FILENAME           mobley_778352_prod.xst
Info: XST FREQUENCY          100000
Info: NO VELOCITY DCD OUTPUT
Info: NO FORCE DCD OUTPUT
Info: OUTPUT FILENAME        mobley_778352_prod
Info: BINARY OUTPUT FILES WILL BE USED
Info: RESTART FILENAME       mobley_778352_prod.restart
Info: RESTART FREQUENCY      100000
Info: BINARY RESTART FILES WILL BE USED
Info: CUTOFF                 9
Info: PAIRLIST DISTANCE      11
Info: PAIRLIST SHRINK RATE   0.01
Info: PAIRLIST GROW RATE     0.01
Info: PAIRLIST TRIGGER       0.3
Info: PAIRLISTS PER CYCLE    2
Info: PAIRLISTS ENABLED
Info: MARGIN                 2
Info: HYDROGEN GROUP CUTOFF  2.5
Info: PATCH DIMENSION        15.5
Info: ENERGY OUTPUT STEPS    100000
Info: ENERGY EVALUATION STEPS    100000
Info: OUTPUT ENERGY PRECISION 4
Info: CROSSTERM ENERGY INCLUDED IN DIHEDRAL
Info: TIMING OUTPUT STEPS    1000000
Info: PRESSURE OUTPUT STEPS  100000
Info: ALCHEMICAL FEP ON
Info: FEP CURRENT LAMBDA VALUE     0
Info: FEP COMPARISON LAMBDA VALUE  0.05
Info: FEP INTRA-ALCHEMICAL NON-BONDED INTERACTIONS WILL BE RETAINED
Info: FEP INTRA-ALCHEMICAL BONDED INTERACTIONS WILL BE RETAINED
Info: FEP VDW SHIFTING COEFFICIENT 5
Info: FEP ELEC. ACTIVE FOR ANNIHILATED PARTICLES BETWEEN LAMBDA = 0 AND LAMBDA = 0.5
Info: FEP ELEC. ACTIVE FOR EXNIHILATED PARTICLES BETWEEN LAMBDA = 0.5 AND LAMBDA = 1
Info: FEP VDW ACTIVE FOR ANNIHILATED PARTICLES BETWEEN LAMBDA = 0 AND LAMBDA = 1
Info: FEP VDW ACTIVE FOR EXNIHILATED PARTICLES BETWEEN LAMBDA = 0 AND LAMBDA = 1
Info: FEP BOND ACTIVE FOR ANNIHILATED PARTICLES BETWEEN LAMBDA = 1 AND LAMBDA = 1
Info: FEP BOND ACTIVE FOR EXNIHILATED PARTICLES BETWEEN LAMBDA = 0 AND LAMBDA = 0
Info: LANGEVIN DYNAMICS ACTIVE
Info: LANGEVIN TEMPERATURE   300
Info: LANGEVIN USING BBK INTEGRATOR
Info: LANGEVIN DAMPING COEFFICIENT IS 1 INVERSE PS
Info: LANGEVIN DYNAMICS APPLIED TO HYDROGENS
Info: LANGEVIN PISTON PRESSURE CONTROL ACTIVE
Info:        TARGET PRESSURE IS 1.01325 BAR
Info:     OSCILLATION PERIOD IS 50 FS
Info:             DECAY TIME IS 25 FS
Info:     PISTON TEMPERATURE IS 300 K
Info:       PRESSURE CONTROL IS GROUP-BASED
Info:    INITIAL STRAIN RATE IS 0.000469333 0.000469333 0.000469333
Info:       CELL FLUCTUATION IS ISOTROPIC
Info: PARTICLE MESH EWALD (PME) ACTIVE
Info: PME TOLERANCE               1e-06
Info: PME EWALD COEFFICIENT       0.348832
Info: PME INTERPOLATION ORDER     4
Info: PME GRID DIMENSIONS         32 32 32
Info: PME MAXIMUM GRID SPACING    1
Info: PME CALCULATION WILL BE PERFORMED ON GPU
Info: FULL ELECTROSTATIC EVALUATION FREQUENCY      2
Info: USING VERLET I (r-RESPA) MTS SCHEME.
Info: C1 SPLITTING OF LONG RANGE ELECTROSTATICS
Info: PLACING ATOMS IN PATCHES BY HYDROGEN GROUPS
Info: RIGID BONDS TO HYDROGEN : ALL
Info:         ERROR TOLERANCE : 1e-08
Info:          MAX ITERATIONS : 100
Info: RIGID WATER USING SETTLE ALGORITHM
Info: RANDOM NUMBER SEED     1743574216
Info: USE HYDROGEN BONDS?    NO
Info: Using AMBER format force field!
Info: AMBER PARM FILE        mobley_778352.prmtop
Info: COORDINATE PDB         mobley_778352.pdb
Info: Exclusions will be read from PARM file!
Info: SCNB (VDW SCALING)     2
Info: USING ARITHMETIC MEAN TO COMBINE L-J SIGMA PARAMETERS
Info: BINARY COORDINATES     mobley_778352_equil.coor
Info: SUMMARY OF PARAMETERS:
Info: 6 BONDS
Info: 6 ANGLES
Info:   6 HARMONIC
Info:   0 COSINE-BASED
Info: 6 DIHEDRAL
Info: 0 IMPROPER
Info: 0 CROSSTERM
Info: 0 VDW
Info: 21 VDW_PAIRS
Info: 0 NBTHOLE_PAIRS
Info: To read alchdata from file: mobley_778352.pdb
Info: To read alchflag data from column: 5
Info: STRUCTURE SUMMARY:
Info: 2979 ATOMS
Info: 2978 BONDS
Info: 24 ANGLES
Info: 44 DIHEDRALS
Info: 0 IMPROPERS
Info: 0 CROSSTERMS
Info: 3024 EXCLUSIONS
Info: 2974 RIGID BONDS
Info: ALCH: 0 ATOMS TO DISAPPEAR IN FINAL STATE
Info: ALCH: 15 ATOMS TO APPEAR IN FINAL STATE
Info: 5963 DEGREES OF FREEDOM
Info: 993 HYDROGEN GROUPS
Info: 4 ATOMS IN LARGEST HYDROGEN GROUP
Info: 993 MIGRATION GROUPS
Info: 4 ATOMS IN LARGEST MIGRATION GROUP
Info: TOTAL MASS = 17869.9 amu
Info: TOTAL CHARGE = 9.99793e-05 e
Info: MASS DENSITY = 0.959443 g/cm^3
Info: ATOM DENSITY = 0.096318 atoms/A^3
Info: ADDED 0 IMPLICIT EXCLUSIONS
Info: NONBONDED TABLE R-SQUARED SPACING: 0.0625
Info: NONBONDED TABLE SIZE: 705 POINTS
Info: REMOVING COM VELOCITY -0.156974 0.166005 -0.00226613
Info: Use 3D box decompostion in PME FFT.
Info: Updated CUDA force table with 4096 elements.
Info: Updated CUDA LJ table with 6 x 6 elements.
Info: Found 18 unique exclusion lists needing 36 bytes
TCL: Running for 1500000 steps
ETITLE: TS BOND ANGLE DIHED IMPRP ELECT VDW BOUNDARY MISC KINETIC TOTAL TEMP POTENTIAL TOTALAVG TEMPAVG PRESSURE GPRESSURE VOLUME PRESSAVG GPRESSAVG
ENERGY: 0 2.9625 6.6163 15.9374 0.0000 -10817.4556 1466.1461 0.0000 0.0000 1739.1851 -7586.6082 293.5428 -9325.7933 -7586.6082 293.5428 -195.6684 -108.5696 30928.8036 -195.6684 -108.5696
ENERGY: 300000 1.1335 7.9974 16.1900 0.0000 -10830.9501 1470.3071 0.0000 0.0000 1807.5821 -7527.7401 305.0869 -9335.3222 -7559.7403 296.3051 66.1624 139.6326 30154.1777 -221.1633 -170.6465
ENERGY: 600000 2.5356 8.2828 15.3461 0.0000 -10749.5692 1449.5295 0.0000 0.0000 1803.9438 -7469.9314 304.4728 -9273.8752 -7531.0272 298.7588 -54.2954 29.5688 30564.6184 -133.1813 -89.9842
ENERGY: 900000 0.8193 5.3724 16.8258 0.0000 -10711.9316 1383.7543 0.0000 0.0000 1774.4583 -7530.7015 299.4962 -9305.1598 -7522.3375 298.7749 -737.1117 -663.9667 30921.1579 -222.7507 -160.8704
ENERGY: 1200000 0.9239 4.1660 15.6125 0.0000 -10838.8065 1547.7664 0.0000 0.0000 1784.9053 -7485.4325 301.2595 -9270.3378 -7516.5745 299.8318 736.1920 764.1282 30592.9946 -82.5930 -17.7700
ENERGY: 1500000 0.2102 7.5221 16.1319 0.0000 -10744.2816 1492.7882 0.0000 0.0000 1729.1528 -7498.4764 291.8495 -9227.6292 -7523.3958 299.1976 562.4713 664.3250 30446.6309 -96.6857 -29.0191
TCL: Running FEP window   2: Lambda1 0.05   Lambda2 0.1    [dLambda 0.05  ]
TCL: Setting parameter firsttimestep to 0
TCL: Setting parameter alchLambda to 0.05
Info: NONBONDED TABLE R-SQUARED SPACING: 0.0625
Info: NONBONDED TABLE SIZE: 705 POINTS
TCL: Setting parameter alchLambda2 to 0.1
Info: NONBONDED TABLE R-SQUARED SPACING: 0.0625
Info: NONBONDED TABLE SIZE: 705 POINTS
TCL: Running for 1500000 steps
ETITLE: TS BOND ANGLE DIHED IMPRP ELECT VDW BOUNDARY MISC KINETIC TOTAL TEMP POTENTIAL TOTALAVG TEMPAVG PRESSURE GPRESSURE VOLUME PRESSAVG GPRESSAVG
ENERGY: 0 0.2102 7.5221 16.1319 0.0000 -10744.2811 1495.0098 0.0000 0.0000 1728.2630 -7497.1442 291.6993 -9225.4072 -7497.1442 291.6993 585.8207 667.8615 30446.6309 585.8207 667.8615
ENERGY: 300000 0.6104 5.9923 16.5496 0.0000 -10816.0558 1481.6125 0.0000 0.0000 1748.1653 -7563.1256 295.0585 -9311.2910 -7540.5557 299.6244 190.5082 225.1949 30568.8447 80.0548 139.8527
ENERGY: 600000 0.2583 6.6355 16.3029 0.0000 -10835.4018 1436.7011 0.0000 0.0000 1796.5926 -7578.9114 303.2321 -9375.5040 -7543.7153 300.9430 -176.9343 -94.4924 30172.6268 -20.5945 49.7183
ENERGY: 900000 0.5769 4.9787 16.2391 0.0000 -10688.4310 1358.0395 0.0000 0.0000 1801.1150 -7507.4819 303.9954 -9308.5969 -7521.4565 302.1040 -593.3125 -550.4907 30251.3439 -62.1823 13.8164
ENERGY: 1200000 0.8862 6.9587 17.6957 0.0000 -10830.6666 1502.4025 0.0000 0.0000 1749.6418 -7553.0816 295.3077 -9302.7234 -7534.2210 300.8588 236.6092 298.0325 30640.6128 100.0040 168.9642
ENERGY: 1500000 1.5709 6.1299 18.3641 0.0000 -10878.6468 1514.3743 0.0000 0.0000 1773.5822 -7564.6254 299.3484 -9338.2077 -7540.6819 300.2633 180.8780 245.5033 30645.9619 85.4129 153.9675
TCL: Running FEP window   3: Lambda1 0.1    Lambda2 0.15000000000000002 [dLambda 0.05000000000000002]
TCL: Setting parameter firsttimestep to 0
TCL: Setting parameter alchLambda to 0.1
Info: NONBONDED TABLE R-SQUARED SPACING: 0.0625
Info: NONBONDED TABLE SIZE: 705 POINTS
TCL: Setting parameter alchLambda2 to 0.15000000000000002
Info: NONBONDED TABLE R-SQUARED SPACING: 0.0625
Info: NONBONDED TABLE SIZE: 705 POINTS
TCL: Running for 1500000 steps
ETITLE: TS BOND ANGLE DIHED IMPRP ELECT VDW BOUNDARY MISC KINETIC TOTAL TEMP POTENTIAL TOTALAVG TEMPAVG PRESSURE GPRESSURE VOLUME PRESSAVG GPRESSAVG
ENERGY: 0 1.5709 6.1299 18.3641 0.0000 -10878.6468 1516.6771 0.0000 0.0000 1772.6757 -7563.2290 299.1954 -9335.9048 -7563.2290 299.1954 162.5515 250.9716 30645.9619 162.5515 250.9716
ENERGY: 300000 2.0648 4.4986 21.2327 0.0000 -10723.3779 1485.4693 0.0000 0.0000 1776.9875 -7433.1252 299.9231 -9210.1126 -7494.9465 300.9332 461.3752 550.5248 30467.6128 337.7411 432.4245
ENERGY: 600000 3.0397 5.0108 17.9513 0.0000 -10647.4671 1340.0583 0.0000 0.0000 1756.2284 -7525.1786 296.4194 -9281.4070 -7501.6097 297.9985 -640.2919 -612.4052 30436.5111 147.3856 224.7805
ENERGY: 900000 2.3910 3.8000 17.0213 0.0000 -10865.7658 1468.4219 0.0000 0.0000 1700.6798 -7673.4518 287.0438 -9374.1317 -7533.1980 297.2046 200.2845 204.0732 30259.4625 149.1409 213.5238
ENERGY: 1200000 0.6977 5.0771 15.3057 0.0000 -10690.6158 1398.0107 0.0000 0.0000 1817.1684 -7454.3563 306.7049 -9271.5247 -7527.3891 297.7918 -227.4261 -240.8462 30837.4481 90.1331 142.4919
ENERGY: 1500000 0.3856 6.7896 16.4292 0.0000 -10908.7232 1467.7978 0.0000 0.0000 1751.0325 -7666.2885 295.5424 -9417.3210 -7529.3886 298.6645 -55.0842 20.7086 29978.3167 52.3103 102.5523
TCL: Running FEP window   4: Lambda1 0.15000000000000002 Lambda2 0.2    [dLambda 0.04999999999999999]
TCL: Setting parameter firsttimestep to 0
TCL: Setting parameter alchLambda to 0.15000000000000002
Info: NONBONDED TABLE R-SQUARED SPACING: 0.0625
Info: NONBONDED TABLE SIZE: 705 POINTS
TCL: Setting parameter alchLambda2 to 0.2
Info: NONBONDED TABLE R-SQUARED SPACING: 0.0625
Info: NONBONDED TABLE SIZE: 705 POINTS
TCL: Running for 1500000 steps
ETITLE: TS BOND ANGLE DIHED IMPRP ELECT VDW BOUNDARY MISC KINETIC TOTAL TEMP POTENTIAL TOTALAVG TEMPAVG PRESSURE GPRESSURE VOLUME PRESSAVG GPRESSAVG
ENERGY: 0 0.3856 6.7896 16.4292 0.0000 -10908.7238 1468.6796 0.0000 0.0000 1750.1358 -7666.3040 295.3910 -9416.4398 -7666.3040 295.3910 -72.2306 25.8065 29978.3167 -72.2306 25.8065
ENERGY: 300000 1.6269 2.4181 17.0248 0.0000 -10658.1189 1382.6367 0.0000 0.0000 1748.1007 -7506.3118 295.0476 -9254.4124 -7546.3659 295.4318 -462.4147 -360.2555 30747.5798 -606.1877 -520.2976
ENERGY: 600000 2.4147 7.3522 15.5087 0.0000 -10866.9150 1496.5844 0.0000 0.0000 1757.4961 -7587.5589 296.6333 -9345.0550 -7537.0636 295.2006 2.7410 74.7091 30626.6819 -462.9956 -398.6808
ENERGY: 900000 1.8201 9.4218 14.5353 0.0000 -10840.2511 1465.6411 0.0000 0.0000 1775.1547 -7573.6782 299.6138 -9348.8328 -7536.6194 295.9775 160.1077 171.6897 29959.6377 -303.2344 -245.0110
ENERGY: 1200000 1.1460 6.2617 15.5769 0.0000 -10887.8478 1523.9738 0.0000 0.0000 1819.7532 -7521.1363 307.1412 -9340.8895 -7535.8270 297.6020 510.6945 538.4961 30497.2386 -243.4032 -186.0032
ENERGY: 1500000 2.4787 7.9842 15.8337 0.0000 -10790.9087 1424.7608 0.0000 0.0000 1751.9989 -7587.8524 295.7055 -9339.8512 -7533.4853 298.2783 -220.2216 -167.9080 30254.9649 -218.6293 -161.7686
TCL: Running FEP window   5: Lambda1 0.2    Lambda2 0.25   [dLambda 0.04999999999999999]
TCL: Setting parameter firsttimestep to 0
TCL: Setting parameter alchLambda to 0.2
Info: NONBONDED TABLE R-SQUARED SPACING: 0.0625
Info: NONBONDED TABLE SIZE: 705 POINTS
TCL: Setting parameter alchLambda2 to 0.25
Info: NONBONDED TABLE R-SQUARED SPACING: 0.0625
Info: NONBONDED TABLE SIZE: 705 POINTS
TCL: Running for 1500000 steps
ETITLE: TS BOND ANGLE DIHED IMPRP ELECT VDW BOUNDARY MISC KINETIC TOTAL TEMP POTENTIAL TOTALAVG TEMPAVG PRESSURE GPRESSURE VOLUME PRESSAVG GPRESSAVG
ENERGY: 0 2.4787 7.9842 15.8337 0.0000 -10790.9087 1425.8681 0.0000 0.0000 1751.1180 -7587.6259 295.5568 -9338.7440 -7587.6259 295.5568 -250.2723 -159.8415 30254.9649 -250.2723 -159.8415
ENERGY: 300000 0.4370 9.0633 15.7940 0.0000 -10828.1382 1483.6854 0.0000 0.0000 1822.8004 -7496.3580 307.6555 -9319.1585 -7540.8769 301.6214 192.2141 204.8656 30745.8290 106.4109 143.1258
ENERGY: 600000 1.9363 5.2872 17.9145 0.0000 -10822.6803 1489.3012 0.0000 0.0000 1790.3681 -7517.8730 302.1815 -9308.2411 -7546.7943 300.5181 40.7996 81.9225 30754.3305 -46.1154 -10.8192
ENERGY: 900000 0.7205 5.6446 18.6951 0.0000 -10729.0154 1445.0668 0.0000 0.0000 1749.0299 -7509.8585 295.2044 -9258.8884 -7542.9464 300.3395 151.8517 254.4369 30451.5917 41.7120 90.8092
ENERGY: 1200000 0.6485 7.3458 16.8196 0.0000 -10883.7184 1497.9789 0.0000 0.0000 1784.6983 -7576.2272 301.2246 -9360.9255 -7540.1438 300.7480 -23.9961 42.5658 30792.7954 13.5546 61.9909
ENERGY: 1500000 0.6947 3.4135 16.5705 0.0000 -10871.6185 1538.5329 0.0000 0.0000 1719.8718 -7592.5351 290.2830 -9312.4069 -7539.9749 301.1743 753.7366 872.8070 30083.8437 72.8587 128.1534
TCL: Running FEP window   6: Lambda1 0.25   Lambda2 0.3    [dLambda 0.04999999999999999]
TCL: Setting parameter firsttimestep to 0
TCL: Setting parameter alchLambda to 0.25
Info: NONBONDED TABLE R-SQUARED SPACING: 0.0625
Info: NONBONDED TABLE SIZE: 705 POINTS
TCL: Setting parameter alchLambda2 to 0.3
Info: NONBONDED TABLE R-SQUARED SPACING: 0.0625
Info: NONBONDED TABLE SIZE: 705 POINTS
TCL: Running for 1500000 steps
ETITLE: TS BOND ANGLE DIHED IMPRP ELECT VDW BOUNDARY MISC KINETIC TOTAL TEMP POTENTIAL TOTALAVG TEMPAVG PRESSURE GPRESSURE VOLUME PRESSAVG GPRESSAVG
ENERGY: 0 0.6947 3.4135 16.5705 0.0000 -10871.6183 1539.3435 0.0000 0.0000 1719.0259 -7592.5702 290.1403 -9311.5961 -7592.5702 290.1403 790.6489 881.2638 30083.8437 790.6489 881.2638
ENERGY: 300000 1.1471 7.8075 15.5876 0.0000 -10855.4657 1492.4026 0.0000 0.0000 1806.0910 -7532.4299 304.8353 -9338.5208 -7556.8024 298.5808 338.9269 400.9276 30378.9640 99.1415 168.1838
ENERGY: 600000 0.8817 3.7947 17.0408 0.0000 -10684.1218 1333.4072 0.0000 0.0000 1825.9335 -7503.0639 308.1843 -9328.9974 -7541.4582 301.2449 -1007.4448 -925.6176 30798.3695 -102.8881 -30.0160
ENERGY: 900000 1.7130 5.3175 15.9512 0.0000 -10848.8626 1485.1856 0.0000 0.0000 1767.0001 -7573.6953 298.2374 -9340.6954 -7537.6236 300.6602 178.5795 266.8217 30245.9963 86.3946 165.5141
ENERGY: 1200000 2.7528 6.2071 16.6764 0.0000 -10765.8366 1401.1130 0.0000 0.0000 1781.5930 -7557.4944 300.7004 -9339.0873 -7533.6978 301.1320 -653.7519 -611.6450 30924.7456 164.3052 231.0583
ENERGY: 1500000 1.5242 6.0710 16.9803 0.0000 -10764.8911 1407.3678 0.0000 0.0000 1768.0572 -7564.8905 298.4159 -9332.9478 -7539.6644 301.0571 -579.5412 -491.9488 30673.9920 116.2049 185.4148
TCL: Running FEP window   7: Lambda1 0.3    Lambda2 0.35   [dLambda 0.04999999999999999]
TCL: Setting parameter firsttimestep to 0
TCL: Setting parameter alchLambda to 0.3
Info: NONBONDED TABLE R-SQUARED SPACING: 0.0625
Info: NONBONDED TABLE SIZE: 705 POINTS
TCL: Setting parameter alchLambda2 to 0.35
Info: NONBONDED TABLE R-SQUARED SPACING: 0.0625
Info: NONBONDED TABLE SIZE: 705 POINTS
TCL: Running for 1500000 steps
ETITLE: TS BOND ANGLE DIHED IMPRP ELECT VDW BOUNDARY MISC KINETIC TOTAL TEMP POTENTIAL TOTALAVG TEMPAVG PRESSURE GPRESSURE VOLUME PRESSAVG GPRESSAVG
ENERGY: 0 1.5242 6.0710 16.9803 0.0000 -10764.8907 1409.2507 0.0000 0.0000 1767.1668 -7563.8977 298.2656 -9331.0645 -7563.8977 298.2656 -560.3220 -476.2087 30673.9920 -560.3220 -476.2087
ENERGY: 300000 3.0611 7.2104 16.8926 0.0000 -10757.8926 1441.6610 0.0000 0.0000 1788.1491 -7500.9185 301.8070 -9289.0676 -7518.9587 302.3826 -93.7047 -38.3537 30688.1856 11.4898 42.7305
ENERGY: 600000 0.0726 8.5809 20.2589 0.0000 -10829.5005 1435.8964 0.0000 0.0000 1713.1610 -7651.5306 289.1504 -9364.6916 -7538.6063 298.7618 -230.1680 -223.2733 30664.5210 -165.5493 -120.9376
ENERGY: 900000 0.5229 5.0369 15.0469 0.0000 -10764.8973 1439.3113 0.0000 0.0000 1776.1482 -7528.8313 299.7815 -9304.9794 -7545.4661 297.6817 -185.4721 -94.6723 30783.7284 -264.0651 -211.6964
ENERGY: 1200000 0.3040 9.8656 16.0390 0.0000 -10690.2520 1431.9828 0.0000 0.0000 1807.0487 -7425.0120 304.9969 -9232.0607 -7535.7852 298.8962 70.6859 189.2142 30600.0838 -161.8856 -104.4997
ENERGY: 1500000 0.0340 4.8892 16.1509 0.0000 -10722.1536 1426.1313 0.0000 0.0000 1800.5011 -7474.4469 303.8918 -9274.9480 -7528.2804 299.7466 83.9002 141.1718 30481.1729 -80.5967 -20.3312
TCL: Running FEP window   8: Lambda1 0.35   Lambda2 0.39999999999999997 [dLambda 0.04999999999999999]
TCL: Setting parameter firsttimestep to 0
TCL: Setting parameter alchLambda to 0.35
Info: NONBONDED TABLE R-SQUARED SPACING: 0.0625
Info: NONBONDED TABLE SIZE: 705 POINTS
TCL: Setting parameter alchLambda2 to 0.39999999999999997
Info: NONBONDED TABLE R-SQUARED SPACING: 0.0625
Info: NONBONDED TABLE SIZE: 705 POINTS
TCL: Running for 1500000 steps
ETITLE: TS BOND ANGLE DIHED IMPRP ELECT VDW BOUNDARY MISC KINETIC TOTAL TEMP POTENTIAL TOTALAVG TEMPAVG PRESSURE GPRESSURE VOLUME PRESSAVG GPRESSAVG
ENERGY: 0 0.0340 4.8892 16.1509 0.0000 -10722.1517 1425.7461 0.0000 0.0000 1799.6361 -7475.6953 303.7458 -9275.3314 -7475.6953 303.7458 59.0870 140.6664 30481.1729 59.0870 140.6664
ENERGY: 300000 0.5072 5.1362 15.3835 0.0000 -10814.3324 1521.3572 0.0000 0.0000 1782.3240 -7489.6243 300.8238 -9271.9482 -7516.5259 302.6481 656.3738 667.2386 30505.1643 325.3381 374.3364
ENERGY: 600000 2.0758 5.8810 16.2681 0.0000 -10769.4355 1390.9538 0.0000 0.0000 1762.8946 -7591.3622 297.5445 -9354.2568 -7529.2605 300.7950 -554.2725 -558.5358 30475.3473 260.5662 308.0830
ENERGY: 900000 0.4770 7.0951 16.5509 0.0000 -10836.1612 1476.2847 0.0000 0.0000 1753.3345 -7582.4190 295.9309 -9335.7536 -7534.3923 300.8840 55.7777 59.8525 30671.6116 203.3083 237.4708
ENERGY: 1200000 1.6730 7.2853 15.3519 0.0000 -10780.6276 1446.0269 0.0000 0.0000 1748.8700 -7561.4206 295.1774 -9310.2905 -7539.1184 301.4428 -333.8355 -287.4683 30810.7403 234.0819 274.4891
ENERGY: 1500000 1.4291 7.5645 15.5985 0.0000 -10792.1917 1436.9444 0.0000 0.0000 1752.2643 -7578.3909 295.7503 -9330.6552 -7536.5765 300.8499 -283.2520 -205.7309 30645.0227 250.3559 294.9831
TCL: Running FEP window   9: Lambda1 0.39999999999999997 Lambda2 0.44999999999999996 [dLambda 0.04999999999999999]
TCL: Setting parameter firsttimestep to 0
TCL: Setting parameter alchLambda to 0.39999999999999997
Info: NONBONDED TABLE R-SQUARED SPACING: 0.0625
Info: NONBONDED TABLE SIZE: 705 POINTS
TCL: Setting parameter alchLambda2 to 0.44999999999999996
Info: NONBONDED TABLE R-SQUARED SPACING: 0.0625
Info: NONBONDED TABLE SIZE: 705 POINTS
TCL: Running for 1500000 steps
ETITLE: TS BOND ANGLE DIHED IMPRP ELECT VDW BOUNDARY MISC KINETIC TOTAL TEMP POTENTIAL TOTALAVG TEMPAVG PRESSURE GPRESSURE VOLUME PRESSAVG GPRESSAVG
ENERGY: 0 1.4291 7.5645 15.5985 0.0000 -10792.1921 1436.5954 0.0000 0.0000 1751.4099 -7579.5947 295.6061 -9331.0046 -7579.5947 295.6061 -294.1997 -206.0816 30645.0227 -294.1997 -206.0816
ENERGY: 300000 1.4641 6.3191 16.2642 0.0000 -10845.7251 1463.4700 0.0000 0.0000 1809.1801 -7549.0275 305.3566 -9358.2076 -7549.5642 298.2602 89.2677 132.3134 30464.1059 269.6835 326.0358
ENERGY: 600000 2.0369 2.5746 20.3080 0.0000 -10923.6880 1559.3635 0.0000 0.0000 1790.6017 -7548.8033 302.2210 -9339.4050 -7536.5636 300.0942 963.8125 980.9874 30155.8712 299.5457 348.1015
ENERGY: 900000 2.9645 10.6337 16.2979 0.0000 -10731.1548 1413.8844 0.0000 0.0000 1757.9472 -7529.4272 296.7095 -9287.3745 -7521.0164 300.3850 -378.1640 -349.3679 30943.1284 184.5487 235.3996
ENERGY: 1200000 2.1636 6.2439 18.4295 0.0000 -10633.2410 1381.7262 0.0000 0.0000 1746.2864 -7478.3914 294.7413 -9224.6777 -7523.8421 299.9806 -262.2949 -195.0224 30567.4753 190.6890 244.1539
ENERGY: 1500000 1.3177 14.6367 16.0456 0.0000 -10941.2789 1553.3038 0.0000 0.0000 1808.1594 -7547.8157 305.1844 -9355.9751 -7531.8932 299.6475 959.3300 1042.7525 30062.8620 185.9545 242.5060
TCL: Running FEP window  10: Lambda1 0.44999999999999996 Lambda2 0.49999999999999994 [dLambda 0.04999999999999999]
TCL: Setting parameter firsttimestep to 0
TCL: Setting parameter alchLambda to 0.44999999999999996
Info: NONBONDED TABLE R-SQUARED SPACING: 0.0625
Info: NONBONDED TABLE SIZE: 705 POINTS
TCL: Setting parameter alchLambda2 to 0.49999999999999994
Info: NONBONDED TABLE R-SQUARED SPACING: 0.0625
Info: NONBONDED TABLE SIZE: 705 POINTS
TCL: Running for 1500000 steps
ETITLE: TS BOND ANGLE DIHED IMPRP ELECT VDW BOUNDARY MISC KINETIC TOTAL TEMP POTENTIAL TOTALAVG TEMPAVG PRESSURE GPRESSURE VOLUME PRESSAVG GPRESSAVG
ENERGY: 0 1.3177 14.6367 16.0456 0.0000 -10941.2793 1555.9114 0.0000 0.0000 1807.2850 -7546.0828 305.0368 -9353.3678 -7546.0828 305.0368 966.4957 1064.5094 30062.8620 966.4957 1064.5094
ENERGY: 300000 0.2642 4.4012 17.0812 0.0000 -10811.0162 1452.0385 0.0000 0.0000 1782.3044 -7554.9268 300.8205 -9337.2312 -7543.4367 301.5458 -158.3394 -163.6215 30774.0119 65.0758 117.6001
ENERGY: 600000 0.8604 5.9046 16.4366 0.0000 -10884.5936 1508.3605 0.0000 0.0000 1795.0514 -7557.9800 302.9720 -9353.0314 -7526.9064 302.7577 224.9004 328.4013 30580.9721 -115.7610 -45.6758
ENERGY: 900000 0.3925 7.5452 16.2736 0.0000 -10742.2311 1388.9718 0.0000 0.0000 1735.8995 -7593.1485 292.9882 -9329.0480 -7533.9575 301.1383 -661.6348 -612.0515 30867.8222 -80.6393 -14.9824
ENERGY: 1200000 3.4438 4.0095 19.2587 0.0000 -10783.4035 1439.8944 0.0000 0.0000 1809.3071 -7507.4900 305.3781 -9316.7971 -7525.5557 301.0795 -72.1040 -71.5900 30521.4931 -166.7067 -104.4897
ENERGY: 1500000 0.9350 9.0527 15.8512 0.0000 -10816.5779 1498.1728 0.0000 0.0000 1771.8140 -7520.7523 299.0499 -9292.5663 -7521.6384 301.3213 595.1871 669.4650 30321.5857 -145.7473 -83.1975
TCL: Running FEP window  11: Lambda1 0.49999999999999994 Lambda2 0.5499999999999999 [dLambda 0.04999999999999999]
TCL: Setting parameter firsttimestep to 0
TCL: Setting parameter alchLambda to 0.49999999999999994
Info: NONBONDED TABLE R-SQUARED SPACING: 0.0625
Info: NONBONDED TABLE SIZE: 705 POINTS
TCL: Setting parameter alchLambda2 to 0.5499999999999999
Info: NONBONDED TABLE R-SQUARED SPACING: 0.0625
Info: NONBONDED TABLE SIZE: 705 POINTS
TCL: Running for 1500000 steps
ETITLE: TS BOND ANGLE DIHED IMPRP ELECT VDW BOUNDARY MISC KINETIC TOTAL TEMP POTENTIAL TOTALAVG TEMPAVG PRESSURE GPRESSURE VOLUME PRESSAVG GPRESSAVG
ENERGY: 0 0.9350 9.0527 15.8512 0.0000 -10816.5779 1498.5581 0.0000 0.0000 1770.9369 -7521.2440 298.9019 -9292.1809 -7521.2440 298.9019 593.0502 677.3239 30321.5857 593.0502 677.3239
ENERGY: 300000 2.5820 8.0639 15.9246 0.0000 -10723.2277 1443.5210 0.0000 0.0000 1794.0744 -7459.0619 302.8071 -9253.1362 -7531.6140 299.6662 192.1944 186.5883 30597.5069 458.3377 503.0499
ENERGY: 600000 1.6707 8.9653 15.8088 0.0000 -10774.3754 1512.2794 0.0000 0.0000 1770.4791 -7465.1721 298.8246 -9235.6512 -7535.4890 298.5745 1024.0153 1086.4670 30115.9769 583.5360 619.9954
ENERGY: 900000 4.3142 6.8003 16.1369 0.0000 -10780.9982 1415.5441 0.0000 0.0000 1807.0044 -7531.1983 304.9894 -9338.2027 -7534.9139 300.8507 -246.7553 -205.4342 30221.9628 361.2606 410.5444
ENERGY: 1200000 0.8099 11.0500 16.3236 0.0000 -10708.4514 1388.5248 0.0000 0.0000 1803.1183 -7488.6248 304.3335 -9291.7430 -7538.9244 301.0258 -507.1999 -408.2869 30825.7973 236.4826 282.6368
ENERGY: 1500000 1.1152 4.0395 15.1773 0.0000 -10774.0487 1413.8295 0.0000 0.0000 1812.7851 -7527.1021 305.9651 -9339.8872 -7537.8836 301.2410 -46.1537 1.5455 30252.3919 183.6423 229.9103
TCL: Running FEP window  12: Lambda1 0.5499999999999999 Lambda2 0.6    [dLambda 0.050000000000000044]
TCL: Setting parameter firsttimestep to 0
TCL: Setting parameter alchLambda to 0.5499999999999999
Info: NONBONDED TABLE R-SQUARED SPACING: 0.0625
Info: NONBONDED TABLE SIZE: 705 POINTS
TCL: Setting parameter alchLambda2 to 0.6
Info: NONBONDED TABLE R-SQUARED SPACING: 0.0625
Info: NONBONDED TABLE SIZE: 705 POINTS
TCL: Running for 1500000 steps
ETITLE: TS BOND ANGLE DIHED IMPRP ELECT VDW BOUNDARY MISC KINETIC TOTAL TEMP POTENTIAL TOTALAVG TEMPAVG PRESSURE GPRESSURE VOLUME PRESSAVG GPRESSAVG
ENERGY: 0 1.1152 4.0395 15.1773 0.0000 -10773.9998 1415.0154 0.0000 0.0000 1811.8926 -7526.7598 305.8145 -9338.6524 -7526.7598 305.8145 -51.2594 19.9690 30252.3919 -51.2594 19.9690
ENERGY: 300000 1.2239 5.3796 16.7005 0.0000 -10785.7559 1447.0670 0.0000 0.0000 1772.9870 -7542.3980 299.2479 -9315.3849 -7543.7820 301.4270 216.7109 309.1770 30373.0339 10.4933 85.9858
ENERGY: 600000 1.6169 5.3314 15.5943 0.0000 -11009.3320 1553.5445 0.0000 0.0000 1799.0439 -7634.2011 303.6458 -9433.2449 -7546.6574 302.5319 359.6065 398.0282 30352.1423 11.9022 91.3635
ENERGY: 900000 0.4847 4.0199 16.9710 0.0000 -10706.4959 1360.5192 0.0000 0.0000 1759.7454 -7564.7557 297.0130 -9324.5011 -7535.4383 302.7237 -743.7466 -734.2821 31271.3577 38.7895 103.4881
ENERGY: 1200000 1.6280 6.9884 17.6763 0.0000 -10701.9908 1374.0421 0.0000 0.0000 1791.2174 -7510.4386 302.3249 -9301.6560 -7532.8562 301.9567 -644.4536 -585.6271 30648.3414 23.8110 89.6033
ENERGY: 1500000 1.1869 5.4684 17.8464 0.0000 -11080.6140 1610.6760 0.0000 0.0000 1724.5996 -7720.8367 291.0810 -9445.4363 -7538.3768 301.3731 892.2751 951.2266 30120.3067 32.8100 99.9039
TCL: Running FEP window  13: Lambda1 0.6    Lambda2 0.65   [dLambda 0.050000000000000044]
TCL: Setting parameter firsttimestep to 0
TCL: Setting parameter alchLambda to 0.6
Info: NONBONDED TABLE R-SQUARED SPACING: 0.0625
Info: NONBONDED TABLE SIZE: 705 POINTS
TCL: Setting parameter alchLambda2 to 0.65
Info: NONBONDED TABLE R-SQUARED SPACING: 0.0625
Info: NONBONDED TABLE SIZE: 705 POINTS
TCL: Running for 1500000 steps
ETITLE: TS BOND ANGLE DIHED IMPRP ELECT VDW BOUNDARY MISC KINETIC TOTAL TEMP POTENTIAL TOTALAVG TEMPAVG PRESSURE GPRESSURE VOLUME PRESSAVG GPRESSAVG
ENERGY: 0 1.1869 5.4684 17.8464 0.0000 -11080.6249 1610.8412 0.0000 0.0000 1723.6952 -7721.5868 290.9284 -9445.2821 -7721.5868 290.9284 883.9643 959.7921 30120.3067 883.9643 959.7921
ENERGY: 300000 0.4914 7.7555 16.0573 0.0000 -10837.2811 1442.6926 0.0000 0.0000 1805.7455 -7564.5389 304.7770 -9370.2844 -7586.1719 299.7667 -442.0732 -381.3160 31137.1964 301.1017 368.1865
ENERGY: 600000 0.7581 6.4753 17.2630 0.0000 -10806.3677 1425.0408 0.0000 0.0000 1766.1248 -7590.7057 298.0897 -9356.8305 -7568.0270 298.7547 -457.3183 -393.0955 31013.7542 215.7622 271.0037
ENERGY: 900000 1.5360 4.5441 16.1732 0.0000 -10807.0826 1498.1343 0.0000 0.0000 1786.0057 -7500.6893 301.4452 -9286.6950 -7554.9527 298.5473 449.6827 537.8077 30551.1326 149.2306 205.8278
ENERGY: 1200000 4.7004 8.6650 14.5245 0.0000 -10675.9984 1402.9403 0.0000 0.0000 1806.9501 -7438.2180 304.9803 -9245.1681 -7551.0479 298.9258 -273.1302 -213.9258 30707.1250 156.8247 214.4317
ENERGY: 1500000 2.8169 11.8828 16.2920 0.0000 -10888.8691 1498.7344 0.0000 0.0000 1804.0718 -7555.0711 304.4945 -9359.1430 -7553.6763 298.4758 245.0859 327.3664 30337.8338 89.0053 147.4254
TCL: Running FEP window  14: Lambda1 0.65   Lambda2 0.7000000000000001 [dLambda 0.050000000000000044]
TCL: Setting parameter firsttimestep to 0
TCL: Setting parameter alchLambda to 0.65
Info: NONBONDED TABLE R-SQUARED SPACING: 0.0625
Info: NONBONDED TABLE SIZE: 705 POINTS
TCL: Setting parameter alchLambda2 to 0.7000000000000001
Info: NONBONDED TABLE R-SQUARED SPACING: 0.0625
Info: NONBONDED TABLE SIZE: 705 POINTS
TCL: Running for 1500000 steps
ETITLE: TS BOND ANGLE DIHED IMPRP ELECT VDW BOUNDARY MISC KINETIC TOTAL TEMP POTENTIAL TOTALAVG TEMPAVG PRESSURE GPRESSURE VOLUME PRESSAVG GPRESSAVG
ENERGY: 0 2.8169 11.8828 16.2920 0.0000 -10888.8761 1498.6816 0.0000 0.0000 1803.1728 -7556.0299 304.3427 -9359.2027 -7556.0299 304.3427 245.0336 333.8574 30337.8338 245.0336 333.8574
ENERGY: 300000 0.6622 4.8591 15.4162 0.0000 -10693.7989 1360.9395 0.0000 0.0000 1792.4078 -7519.5141 302.5258 -9311.9219 -7526.1732 302.6661 -690.7674 -604.7417 30575.8747 -411.5709 -327.3139
ENERGY: 600000 1.6447 5.7353 17.4572 0.0000 -10727.8187 1390.7413 0.0000 0.0000 1756.1040 -7556.1361 296.3984 -9312.2402 -7522.5664 300.1879 -520.8188 -512.2044 30747.9373 -354.4011 -287.6448
ENERGY: 900000 0.1365 7.9321 16.1946 0.0000 -10930.1021 1517.6434 0.0000 0.0000 1805.3553 -7582.8402 304.7111 -9388.1955 -7511.7728 301.3282 236.7148 293.1506 30764.4470 -190.6661 -125.3811
ENERGY: 1200000 1.4952 10.6539 16.5803 0.0000 -10703.4018 1466.8169 0.0000 0.0000 1837.0608 -7370.7948 310.0624 -9207.8555 -7505.8432 301.7486 673.6486 717.0295 30343.8331 -165.3450 -105.0758
ENERGY: 1500000 1.1354 7.0055 18.5977 0.0000 -10720.1163 1404.3315 0.0000 0.0000 1785.8930 -7503.1532 301.4262 -9289.0463 -7506.0147 301.8825 -245.3398 -140.0671 30464.0248 -169.0385 -105.0268
TCL: Running FEP window  15: Lambda1 0.7000000000000001 Lambda2 0.7500000000000001 [dLambda 0.050000000000000044]
TCL: Setting parameter firsttimestep to 0
TCL: Setting parameter alchLambda to 0.7000000000000001
Info: NONBONDED TABLE R-SQUARED SPACING: 0.0625
Info: NONBONDED TABLE SIZE: 705 POINTS
TCL: Setting parameter alchLambda2 to 0.7500000000000001
Info: NONBONDED TABLE R-SQUARED SPACING: 0.0625
Info: NONBONDED TABLE SIZE: 705 POINTS
TCL: Running for 1500000 steps
ETITLE: TS BOND ANGLE DIHED IMPRP ELECT VDW BOUNDARY MISC KINETIC TOTAL TEMP POTENTIAL TOTALAVG TEMPAVG PRESSURE GPRESSURE VOLUME PRESSAVG GPRESSAVG
ENERGY: 0 1.1354 7.0055 18.5977 0.0000 -10720.0369 1404.5703 0.0000 0.0000 1785.0025 -7503.7256 301.2759 -9288.7281 -7503.7256 301.2759 -200.0970 -128.2303 30464.0248 -200.0970 -128.2303
ENERGY: 300000 1.4259 5.0088 16.2309 0.0000 -10933.4977 1537.2541 0.0000 0.0000 1743.5246 -7630.0533 294.2752 -9373.5779 -7569.1667 299.3538 347.6658 467.8920 30476.2789 -86.8030 4.5576
ENERGY: 600000 2.8260 4.6095 16.7761 0.0000 -10734.8082 1402.3929 0.0000 0.0000 1772.4861 -7535.7177 299.1634 -9308.2038 -7574.5563 298.6831 -486.3851 -437.3193 30661.0755 -174.4863 -86.2683
ENERGY: 900000 2.3664 4.4866 18.5760 0.0000 -10810.5839 1445.9685 0.0000 0.0000 1815.0308 -7524.1557 306.3441 -9339.1865 -7560.3570 300.3610 11.8955 65.7182 30260.1265 -204.1683 -126.6566
ENERGY: 1200000 1.1941 7.7293 17.7329 0.0000 -10717.4723 1396.4828 0.0000 0.0000 1744.5084 -7549.8247 294.4412 -9294.3332 -7550.6326 300.8284 -395.6007 -387.4839 31180.1214 -93.3864 -23.6038
ENERGY: 1500000 0.3397 9.2231 17.4748 0.0000 -10799.5241 1468.0271 0.0000 0.0000 1794.2386 -7510.2208 302.8348 -9304.4594 -7548.2782 301.2844 -14.2900 60.0497 30910.3317 -39.0919 28.4603
TCL: Running FEP window  16: Lambda1 0.7500000000000001 Lambda2 0.8000000000000002 [dLambda 0.050000000000000044]
TCL: Setting parameter firsttimestep to 0
TCL: Setting parameter alchLambda to 0.7500000000000001
Info: NONBONDED TABLE R-SQUARED SPACING: 0.0625
Info: NONBONDED TABLE SIZE: 705 POINTS
TCL: Setting parameter alchLambda2 to 0.8000000000000002
Info: NONBONDED TABLE R-SQUARED SPACING: 0.0625
Info: NONBONDED TABLE SIZE: 705 POINTS
TCL: Running for 1500000 steps
ETITLE: TS BOND ANGLE DIHED IMPRP ELECT VDW BOUNDARY MISC KINETIC TOTAL TEMP POTENTIAL TOTALAVG TEMPAVG PRESSURE GPRESSURE VOLUME PRESSAVG GPRESSAVG
ENERGY: 0 0.3397 9.2231 17.4748 0.0000 -10799.5806 1468.2034 0.0000 0.0000 1793.3498 -7510.9897 302.6848 -9304.3396 -7510.9897 302.6848 -9.8609 71.1078 30910.3317 -9.8609 71.1078
ENERGY: 300000 3.1105 7.4588 17.8331 0.0000 -10763.5466 1456.5811 0.0000 0.0000 1783.5317 -7495.0313 301.0277 -9278.5630 -7510.4708 303.3380 109.6373 153.2121 30614.5490 -16.8524 26.0223
ENERGY: 600000 0.3349 7.5888 17.8403 0.0000 -10770.7564 1414.0072 0.0000 0.0000 1825.7395 -7505.2458 308.1516 -9330.9853 -7506.3794 304.5421 -159.1738 -140.4503 30418.2806 -183.4336 -130.5696
ENERGY: 900000 1.6008 7.8159 18.3402 0.0000 -10838.1688 1471.5299 0.0000 0.0000 1793.6624 -7545.2195 302.7375 -9338.8819 -7521.1801 302.8517 413.3742 475.6028 30192.7999 -68.7799 -20.5087
ENERGY: 1200000 0.8419 6.7212 15.9316 0.0000 -10754.8439 1441.3516 0.0000 0.0000 1805.0405 -7484.9571 304.6579 -9289.9975 -7523.1972 301.8297 -142.3995 -92.5501 31016.5620 -143.6621 -93.3394
ENERGY: 1500000 0.2067 4.8716 17.4821 0.0000 -10987.3227 1582.3790 0.0000 0.0000 1765.6531 -7616.7303 298.0101 -9382.3833 -7529.5223 300.8880 830.6157 904.4501 30503.8152 -58.1031 -5.7099
TCL: Running FEP window  17: Lambda1 0.8000000000000002 Lambda2 0.8500000000000002 [dLambda 0.050000000000000044]
TCL: Setting parameter firsttimestep to 0
TCL: Setting parameter alchLambda to 0.8000000000000002
Info: NONBONDED TABLE R-SQUARED SPACING: 0.0625
Info: NONBONDED TABLE SIZE: 705 POINTS
TCL: Setting parameter alchLambda2 to 0.8500000000000002
Info: NONBONDED TABLE R-SQUARED SPACING: 0.0625
Info: NONBONDED TABLE SIZE: 705 POINTS
TCL: Running for 1500000 steps
ETITLE: TS BOND ANGLE DIHED IMPRP ELECT VDW BOUNDARY MISC KINETIC TOTAL TEMP POTENTIAL TOTALAVG TEMPAVG PRESSURE GPRESSURE VOLUME PRESSAVG GPRESSAVG
ENERGY: 0 0.2067 4.8716 17.4821 0.0000 -10987.3267 1581.9367 0.0000 0.0000 1764.8069 -7618.0227 297.8673 -9382.8296 -7618.0227 297.8673 827.1039 907.0270 30503.8152 827.1039 907.0270
ENERGY: 300000 2.6613 6.3510 16.3609 0.0000 -10754.4724 1430.7320 0.0000 0.0000 1781.9569 -7516.4104 300.7619 -9298.3673 -7572.8813 302.4408 -146.2599 -129.7726 30564.6369 171.7775 217.7046
ENERGY: 600000 0.8086 6.0356 17.2951 0.0000 -10610.6730 1361.9424 0.0000 0.0000 1781.7848 -7442.8064 300.7328 -9224.5913 -7537.0847 301.9137 -666.8825 -693.1192 31302.8142 -45.6770 -3.3047
ENERGY: 900000 1.9232 4.1340 16.1090 0.0000 -10832.7345 1519.4024 0.0000 0.0000 1770.1441 -7521.0217 298.7681 -9291.1659 -7536.2437 300.9461 660.8367 740.0361 30399.7638 39.5975 82.2256
ENERGY: 1200000 5.4870 7.1282 15.1423 0.0000 -10777.9223 1459.2607 0.0000 0.0000 1743.3636 -7547.5406 294.2480 -9290.9041 -7539.5610 299.7534 45.8683 67.7060 30756.8304 100.1236 144.0878
ENERGY: 1500000 1.5272 6.9011 17.2374 0.0000 -10761.3764 1414.8948 0.0000 0.0000 1799.6803 -7521.1357 303.7533 -9320.8160 -7539.8223 299.7281 -99.0313 -21.0100 30599.9437 21.2738 67.3151
TCL: Running FEP window  18: Lambda1 0.8500000000000002 Lambda2 0.9000000000000002 [dLambda 0.050000000000000044]
TCL: Setting parameter firsttimestep to 0
TCL: Setting parameter alchLambda to 0.8500000000000002
Info: NONBONDED TABLE R-SQUARED SPACING: 0.0625
Info: NONBONDED TABLE SIZE: 705 POINTS
TCL: Setting parameter alchLambda2 to 0.9000000000000002
Info: NONBONDED TABLE R-SQUARED SPACING: 0.0625
Info: NONBONDED TABLE SIZE: 705 POINTS
TCL: Running for 1500000 steps
ETITLE: TS BOND ANGLE DIHED IMPRP ELECT VDW BOUNDARY MISC KINETIC TOTAL TEMP POTENTIAL TOTALAVG TEMPAVG PRESSURE GPRESSURE VOLUME PRESSAVG GPRESSAVG
ENERGY: 0 1.5272 6.9011 17.2374 0.0000 -10761.3181 1414.6478 0.0000 0.0000 1798.7788 -7522.2259 303.6011 -9321.0047 -7522.2259 303.6011 -104.9864 -15.9892 30599.9437 -104.9864 -15.9892
ENERGY: 300000 1.0431 4.6182 17.3562 0.0000 -10791.8774 1447.1454 0.0000 0.0000 1820.0968 -7501.6176 307.1992 -9321.7144 -7523.0404 304.9741 -7.6034 81.4114 30757.6756 370.1945 430.7016
ENERGY: 600000 2.0252 6.7606 17.8414 0.0000 -10703.9136 1421.0209 0.0000 0.0000 1792.7911 -7463.4745 302.5905 -9256.2656 -7529.0269 301.8591 -73.8025 2.7029 30918.4583 138.7575 201.4848
ENERGY: 900000 0.7554 8.2982 15.3809 0.0000 -10752.0180 1456.1614 0.0000 0.0000 1747.5492 -7523.8728 294.9545 -9271.4220 -7523.7156 301.0251 199.5504 286.3955 30596.2554 66.3008 131.7204
ENERGY: 1200000 2.3823 8.9180 15.2060 0.0000 -10612.0981 1330.3630 0.0000 0.0000 1772.8719 -7482.3568 299.2285 -9255.2287 -7529.8005 300.0813 -838.9969 -829.9126 30998.5352 -148.2737 -85.5903
ENERGY: 1500000 1.0755 5.2991 16.5630 0.0000 -10702.2856 1397.9160 0.0000 0.0000 1773.5435 -7507.8886 299.3418 -9281.4321 -7528.7347 299.0894 -355.3841 -253.6295 30924.4194 -126.2096 -59.7130
TCL: Running FEP window  19: Lambda1 0.9000000000000002 Lambda2 0.9500000000000003 [dLambda 0.050000000000000044]
TCL: Setting parameter firsttimestep to 0
TCL: Setting parameter alchLambda to 0.9000000000000002
Info: NONBONDED TABLE R-SQUARED SPACING: 0.0625
Info: NONBONDED TABLE SIZE: 705 POINTS
TCL: Setting parameter alchLambda2 to 0.9500000000000003
Info: NONBONDED TABLE R-SQUARED SPACING: 0.0625
Info: NONBONDED TABLE SIZE: 705 POINTS
TCL: Running for 1500000 steps
ETITLE: TS BOND ANGLE DIHED IMPRP ELECT VDW BOUNDARY MISC KINETIC TOTAL TEMP POTENTIAL TOTALAVG TEMPAVG PRESSURE GPRESSURE VOLUME PRESSAVG GPRESSAVG
ENERGY: 0 1.0755 5.2991 16.5630 0.0000 -10702.6555 1398.8104 0.0000 0.0000 1772.6619 -7508.2457 299.1930 -9280.9076 -7508.2457 299.1930 -325.5441 -234.1860 30924.4194 -325.5441 -234.1860
ENERGY: 300000 0.4697 5.8281 15.7907 0.0000 -10768.5258 1489.4843 0.0000 0.0000 1780.3093 -7476.6437 300.4838 -9256.9530 -7515.3239 299.8183 444.8749 557.5713 30525.2955 49.2995 135.7942
ENERGY: 600000 1.1934 8.3266 15.6294 0.0000 -10857.5889 1516.4084 0.0000 0.0000 1767.6999 -7548.3313 298.3555 -9316.0311 -7536.7238 299.2497 313.4228 383.2848 31022.5794 -4.5425 80.1385
ENERGY: 900000 0.3466 6.6405 14.4958 0.0000 -10795.4524 1475.2397 0.0000 0.0000 1725.3316 -7573.3982 291.2045 -9298.7298 -7541.6846 298.8334 221.5625 293.5009 30486.4891 33.1094 126.2355
ENERGY: 1200000 0.2450 9.1184 14.9094 0.0000 -10835.3628 1478.1031 0.0000 0.0000 1809.6130 -7523.3739 305.4297 -9332.9869 -7524.2897 299.5918 429.1913 459.1191 30290.7321 107.8952 187.3056
ENERGY: 1500000 0.9619 7.3724 17.4977 0.0000 -10812.8274 1472.6407 0.0000 0.0000 1737.3144 -7577.0403 293.2270 -9314.3547 -7528.0101 299.8916 77.1234 132.4269 30823.1950 -31.0282 46.3733
TCL: Running FEP window  20: Lambda1 0.9500000000000003 Lambda2 1.0    [dLambda 0.04999999999999971]
TCL: Setting parameter firsttimestep to 0
TCL: Setting parameter alchLambda to 0.9500000000000003
Info: NONBONDED TABLE R-SQUARED SPACING: 0.0625
Info: NONBONDED TABLE SIZE: 705 POINTS
TCL: Setting parameter alchLambda2 to 1.0
Info: NONBONDED TABLE R-SQUARED SPACING: 0.0625
Info: NONBONDED TABLE SIZE: 705 POINTS
TCL: Running for 1500000 steps
ETITLE: TS BOND ANGLE DIHED IMPRP ELECT VDW BOUNDARY MISC KINETIC TOTAL TEMP POTENTIAL TOTALAVG TEMPAVG PRESSURE GPRESSURE VOLUME PRESSAVG GPRESSAVG
ENERGY: 0 0.9619 7.3724 17.4977 0.0000 -10812.8356 1472.6297 0.0000 0.0000 1736.4517 -7577.9221 293.0814 -9314.3739 -7577.9221 293.0814 48.0504 141.9353 30823.1950 48.0504 141.9353
ENERGY: 300000 3.4134 7.5075 15.8592 0.0000 -10781.9905 1419.4648 0.0000 0.0000 1835.4129 -7500.3328 309.7843 -9335.7457 -7559.8914 300.7963 -320.9936 -287.4790 30741.9800 129.3072 188.3273
ENERGY: 600000 0.3265 8.4303 16.0197 0.0000 -10795.2011 1493.7501 0.0000 0.0000 1742.6812 -7533.9934 294.1328 -9276.6746 -7556.5655 300.9440 498.8890 572.9397 30383.0466 220.8549 267.5709
ENERGY: 900000 0.0842 5.5839 18.2519 0.0000 -10938.8949 1518.9716 0.0000 0.0000 1746.6546 -7649.3486 294.8035 -9396.0033 -7559.2777 300.0924 446.2615 580.4029 30333.6224 212.4223 277.2686
ENERGY: 1200000 0.5308 5.7466 16.6860 0.0000 -10896.8441 1509.0537 0.0000 0.0000 1764.6274 -7600.1996 297.8370 -9364.8270 -7565.9780 299.1309 221.5606 268.3469 30716.3605 198.5096 263.7805
ENERGY: 1500000 1.3437 6.9816 16.8438 0.0000 -10832.8503 1435.5951 0.0000 0.0000 1803.7041 -7568.3821 304.4324 -9372.0861 -7558.7548 299.2814 -231.0208 -249.1154 30850.0722 167.7117 225.2817
TCL: Exiting due to exit command.
