Info: SIMULATION PARAMETERS:
Info: TIMESTEP               2
Info: NUMBER OF STEPS        0
Info: STEPS PER CYCLE        10
Info: PERIODIC CELL BASIS 1  31.8743 0 0
Info: PERIODIC CELL BASIS 2  0 30.0988 0
Info: PERIODIC CELL BASIS 3  0 0 31.8023
Info: PERIODIC CELL CENTER   0 0 0
Info: WRAPPING WATERS AROUND PERIODIC BOUNDARIES ON OUTPUT.
Info: WRAPPING ALL CLUSTERS AROUND PERIODIC BOUNDARIES ON OUTPUT.
Info: FIRST LDB TIMESTEP     50
Info: LAST LDB TIMESTEP     -1
Info: HOM BACKGROUND SCALING 1
Info: PME BACKGROUND SCALING 1
Info: MIN ATOMS PER PATCH    40
Info: EMPTY PATCH LOAD       40 ATOMS
Info: VELOCITY FILE          mobley_7066554_equil.vel
Info: CENTER OF MASS MOVING INITIALLY? NO
Info: DIELECTRIC             1
Info: EXCLUDE                SCALED ONE-FOUR
Info: 1-4 ELECTROSTATICS SCALED BY 0.833333
Info: MODIFIED 1-4 VDW PARAMETERS WILL BE USED
Info: DCD FILENAME           mobley_7066554_prod.dcd
Info: DCD FREQUENCY          100000
Info: DCD FIRST STEP         100000
Info: DCD FILE WILL CONTAIN UNIT CELL DATA
Info: XST FILENAME           mobley_7066554_prod.xst
Info: XST FREQUENCY          100000
Info: NO VELOCITY DCD OUTPUT
Info: NO FORCE DCD OUTPUT
Info: OUTPUT FILENAME        mobley_7066554_prod
Info: BINARY OUTPUT FILES WILL BE USED
Info: RESTART FILENAME       mobley_7066554_prod.restart
Info: RESTART FREQUENCY      100000
Info: BINARY RESTART FILES WILL BE USED
Info: CUTOFF                 9
Info: PAIRLIST DISTANCE      11
Info: PAIRLIST SHRINK RATE   0.01
Info: PAIRLIST GROW RATE     0.01
Info: PAIRLIST TRIGGER       0.3
Info: PAIRLISTS PER CYCLE    2
Info: PAIRLISTS ENABLED
Info: MARGIN                 2
Info: HYDROGEN GROUP CUTOFF  2.5
Info: PATCH DIMENSION        15.5
Info: ENERGY OUTPUT STEPS    100000
Info: ENERGY EVALUATION STEPS    100000
Info: OUTPUT ENERGY PRECISION 4
Info: CROSSTERM ENERGY INCLUDED IN DIHEDRAL
Info: TIMING OUTPUT STEPS    1000000
Info: PRESSURE OUTPUT STEPS  100000
Info: ALCHEMICAL FEP ON
Info: FEP CURRENT LAMBDA VALUE     1
Info: FEP COMPARISON LAMBDA VALUE  0.95
Info: FEP INTRA-ALCHEMICAL NON-BONDED INTERACTIONS WILL BE RETAINED
Info: FEP INTRA-ALCHEMICAL BONDED INTERACTIONS WILL BE RETAINED
Info: FEP VDW SHIFTING COEFFICIENT 5
Info: FEP ELEC. ACTIVE FOR ANNIHILATED PARTICLES BETWEEN LAMBDA = 0 AND LAMBDA = 0.5
Info: FEP ELEC. ACTIVE FOR EXNIHILATED PARTICLES BETWEEN LAMBDA = 0.5 AND LAMBDA = 1
Info: FEP VDW ACTIVE FOR ANNIHILATED PARTICLES BETWEEN LAMBDA = 0 AND LAMBDA = 1
Info: FEP VDW ACTIVE FOR EXNIHILATED PARTICLES BETWEEN LAMBDA = 0 AND LAMBDA = 1
Info: FEP BOND ACTIVE FOR ANNIHILATED PARTICLES BETWEEN LAMBDA = 1 AND LAMBDA = 1
Info: FEP BOND ACTIVE FOR EXNIHILATED PARTICLES BETWEEN LAMBDA = 0 AND LAMBDA = 0
Info: LANGEVIN DYNAMICS ACTIVE
Info: LANGEVIN TEMPERATURE   300
Info: LANGEVIN USING BBK INTEGRATOR
Info: LANGEVIN DAMPING COEFFICIENT IS 1 INVERSE PS
Info: LANGEVIN DYNAMICS APPLIED TO HYDROGENS
Info: LANGEVIN PISTON PRESSURE CONTROL ACTIVE
Info:        TARGET PRESSURE IS 1.01325 BAR
Info:     OSCILLATION PERIOD IS 50 FS
Info:             DECAY TIME IS 25 FS
Info:     PISTON TEMPERATURE IS 300 K
Info:       PRESSURE CONTROL IS GROUP-BASED
Info:    INITIAL STRAIN RATE IS 0.000228396 0.000228396 0.000228396
Info:       CELL FLUCTUATION IS ISOTROPIC
Info: PARTICLE MESH EWALD (PME) ACTIVE
Info: PME TOLERANCE               1e-06
Info: PME EWALD COEFFICIENT       0.348832
Info: PME INTERPOLATION ORDER     4
Info: PME GRID DIMENSIONS         32 32 32
Info: PME MAXIMUM GRID SPACING    1
Info: PME CALCULATION WILL BE PERFORMED ON GPU
Info: FULL ELECTROSTATIC EVALUATION FREQUENCY      2
Info: USING VERLET I (r-RESPA) MTS SCHEME.
Info: C1 SPLITTING OF LONG RANGE ELECTROSTATICS
Info: PLACING ATOMS IN PATCHES BY HYDROGEN GROUPS
Info: RIGID BONDS TO HYDROGEN : ALL
Info:         ERROR TOLERANCE : 1e-08
Info:          MAX ITERATIONS : 100
Info: RIGID WATER USING SETTLE ALGORITHM
Info: RANDOM NUMBER SEED     1743563212
Info: USE HYDROGEN BONDS?    NO
Info: Using AMBER format force field!
Info: AMBER PARM FILE        mobley_7066554.prmtop
Info: COORDINATE PDB         mobley_7066554.pdb
Info: Exclusions will be read from PARM file!
Info: SCNB (VDW SCALING)     2
Info: USING ARITHMETIC MEAN TO COMBINE L-J SIGMA PARAMETERS
Info: BINARY COORDINATES     mobley_7066554_equil.coor
Info: SUMMARY OF PARAMETERS:
Info: 7 BONDS
Info: 5 ANGLES
Info:   5 HARMONIC
Info:   0 COSINE-BASED
Info: 3 DIHEDRAL
Info: 0 IMPROPER
Info: 0 CROSSTERM
Info: 0 VDW
Info: 21 VDW_PAIRS
Info: 0 NBTHOLE_PAIRS
Info: To read alchdata from file: mobley_7066554.pdb
Info: To read alchflag data from column: 5
Info: STRUCTURE SUMMARY:
Info: 2989 ATOMS
Info: 2989 BONDS
Info: 19 ANGLES
Info: 32 DIHEDRALS
Info: 0 IMPROPERS
Info: 0 CROSSTERMS
Info: 3031 EXCLUSIONS
Info: 2981 RIGID BONDS
Info: ALCH: 0 ATOMS TO DISAPPEAR IN FINAL STATE
Info: ALCH: 13 ATOMS TO APPEAR IN FINAL STATE
Info: 5986 DEGREES OF FREEDOM
Info: 1000 HYDROGEN GROUPS
Info: 3 ATOMS IN LARGEST HYDROGEN GROUP
Info: 1000 MIGRATION GROUPS
Info: 3 ATOMS IN LARGEST MIGRATION GROUP
Info: TOTAL MASS = 18000.4 amu
Info: TOTAL CHARGE = -0.000200016 e
Info: MASS DENSITY = 0.9797 g/cm^3
Info: ATOM DENSITY = 0.0979663 atoms/A^3
Info: ADDED 0 IMPLICIT EXCLUSIONS
Info: NONBONDED TABLE R-SQUARED SPACING: 0.0625
Info: NONBONDED TABLE SIZE: 705 POINTS
Info: REMOVING COM VELOCITY 0.125728 -0.0204913 -0.119212
Info: Use 3D box decompostion in PME FFT.
Info: Updated CUDA force table with 4096 elements.
Info: Updated CUDA LJ table with 6 x 6 elements.
Info: Found 15 unique exclusion lists needing 28 bytes
TCL: Running for 1500000 steps
ETITLE: TS BOND ANGLE DIHED IMPRP ELECT VDW BOUNDARY MISC KINETIC TOTAL TEMP POTENTIAL TOTALAVG TEMPAVG PRESSURE GPRESSURE VOLUME PRESSAVG GPRESSAVG
ENERGY: 0 1.5064 4.0625 1.2310 0.0000 -10930.1449 1502.8404 0.0000 0.0000 1803.3082 -7617.1964 303.1961 -9420.5046 -7617.1964 303.1961 565.6943 659.6328 30510.4767 565.6943 659.6328
ENERGY: 300000 4.0533 2.5033 2.8021 0.0000 -10965.7655 1487.2160 0.0000 0.0000 1744.2988 -7724.8920 293.2747 -9469.1908 -7619.7534 297.5777 186.8999 286.4168 30242.5753 -121.2981 -50.7836
ENERGY: 600000 2.7656 2.4843 2.6749 0.0000 -10864.2436 1447.0510 0.0000 0.0000 1787.2296 -7622.0380 300.4928 -9409.2676 -7608.3510 297.7525 -166.8707 -114.5633 31105.7380 -126.5305 -46.2394
ENERGY: 900000 1.3012 3.9525 3.1577 0.0000 -10928.9459 1510.2509 0.0000 0.0000 1746.7863 -7663.4973 293.6929 -9410.2836 -7612.5164 299.0134 353.5487 395.1388 30844.3240 -94.5110 -30.7152
ENERGY: 1200000 1.2165 2.8871 2.3534 0.0000 -10738.4270 1415.9555 0.0000 0.0000 1745.0282 -7570.9862 293.3973 -9316.0145 -7609.1172 298.7995 -183.5406 -177.3761 31424.1706 -93.3532 -34.3923
ENERGY: 1500000 0.6928 1.6480 2.9239 0.0000 -11024.4127 1584.9566 0.0000 0.0000 1789.9188 -7644.2726 300.9449 -9434.1914 -7605.0681 299.9188 775.4949 887.0600 30706.7136 74.2024 136.7340
TCL: Running FEP window   2: Lambda1 0.95   Lambda2 0.8999999999999999 [dLambda -0.050000000000000044]
TCL: Setting parameter firsttimestep to 0
TCL: Setting parameter alchLambda to 0.95
Info: NONBONDED TABLE R-SQUARED SPACING: 0.0625
Info: NONBONDED TABLE SIZE: 705 POINTS
TCL: Setting parameter alchLambda2 to 0.8999999999999999
Info: NONBONDED TABLE R-SQUARED SPACING: 0.0625
Info: NONBONDED TABLE SIZE: 705 POINTS
TCL: Running for 1500000 steps
ETITLE: TS BOND ANGLE DIHED IMPRP ELECT VDW BOUNDARY MISC KINETIC TOTAL TEMP POTENTIAL TOTALAVG TEMPAVG PRESSURE GPRESSURE VOLUME PRESSAVG GPRESSAVG
ENERGY: 0 0.6928 1.6480 2.9239 0.0000 -11022.2115 1583.9721 0.0000 0.0000 1789.0068 -7643.9679 300.7916 -9432.9748 -7643.9679 300.7916 779.1284 865.8478 30706.7136 779.1284 865.8478
ENERGY: 300000 2.9690 2.1164 2.0443 0.0000 -10927.3180 1544.7011 0.0000 0.0000 1817.0777 -7558.4096 305.5112 -9375.4872 -7617.8508 300.6181 722.1709 724.0137 30629.3294 506.6429 568.1901
ENERGY: 600000 1.1992 2.0620 3.0336 0.0000 -10683.2960 1405.5323 0.0000 0.0000 1793.6091 -7477.8598 301.5654 -9271.4689 -7604.9524 298.8748 -176.4408 -73.4029 31195.2411 321.9257 388.0128
ENERGY: 900000 2.2352 4.8588 6.4931 0.0000 -10979.0829 1470.1208 0.0000 0.0000 1693.1913 -7802.1837 284.6818 -9495.3750 -7627.1736 298.3425 -231.6380 -118.6132 30595.0805 124.1332 195.7677
ENERGY: 1200000 1.7567 1.4864 2.8038 0.0000 -10909.0883 1425.0625 0.0000 0.0000 1700.3454 -7777.6336 285.8846 -9477.9789 -7636.9110 297.4842 -319.2258 -255.6404 30526.4990 -14.8872 54.7443
ENERGY: 1500000 3.7163 2.2433 1.9730 0.0000 -10858.6329 1456.8969 0.0000 0.0000 1844.1615 -7549.6418 310.0649 -9393.8034 -7632.6376 298.4283 -284.9382 -147.9404 30955.0491 19.2335 89.6804
TCL: Running FEP window   3: Lambda1 0.8999999999999999 Lambda2 0.8499999999999999 [dLambda -0.050000000000000044]
TCL: Setting parameter firsttimestep to 0
TCL: Setting parameter alchLambda to 0.8999999999999999
Info: NONBONDED TABLE R-SQUARED SPACING: 0.0625
Info: NONBONDED TABLE SIZE: 705 POINTS
TCL: Setting parameter alchLambda2 to 0.8499999999999999
Info: NONBONDED TABLE R-SQUARED SPACING: 0.0625
Info: NONBONDED TABLE SIZE: 705 POINTS
TCL: Running for 1500000 steps
ETITLE: TS BOND ANGLE DIHED IMPRP ELECT VDW BOUNDARY MISC KINETIC TOTAL TEMP POTENTIAL TOTALAVG TEMPAVG PRESSURE GPRESSURE VOLUME PRESSAVG GPRESSAVG
ENERGY: 0 3.7163 2.2433 1.9730 0.0000 -10856.9333 1455.0956 0.0000 0.0000 1843.2717 -7550.6335 309.9153 -9393.9052 -7550.6335 309.9153 -280.9271 -179.8201 30955.0491 -280.9271 -179.8201
ENERGY: 300000 1.8375 1.3084 1.7150 0.0000 -11007.1430 1584.5179 0.0000 0.0000 1762.7556 -7655.0086 296.3779 -9417.7642 -7628.3645 301.8207 855.5245 900.4249 30652.0653 84.1986 154.0312
ENERGY: 600000 2.6980 4.5306 3.5532 0.0000 -10798.3474 1392.1004 0.0000 0.0000 1797.2271 -7598.2382 302.1737 -9395.4652 -7617.4402 301.2683 -704.5555 -672.6143 31225.1187 -226.5250 -156.9288
ENERGY: 900000 4.0177 1.7999 2.3405 0.0000 -10826.7079 1456.6535 0.0000 0.0000 1849.0966 -7512.7996 310.8947 -9361.8963 -7614.6879 301.5499 264.1143 308.7364 30345.2333 -50.2620 22.8918
ENERGY: 1200000 3.5595 2.4863 2.3454 0.0000 -10891.7374 1476.2076 0.0000 0.0000 1746.4879 -7660.6507 293.6427 -9407.1385 -7617.3885 300.3278 141.4354 190.2531 30737.7297 -35.5711 39.5535
ENERGY: 1500000 2.5738 6.2957 3.2903 0.0000 -10817.2450 1382.2724 0.0000 0.0000 1815.2382 -7607.5746 305.2019 -9422.8128 -7623.1045 300.1826 -660.0720 -570.2491 30709.7562 -127.0148 -53.5786
TCL: Running FEP window   4: Lambda1 0.8499999999999999 Lambda2 0.7999999999999998 [dLambda -0.050000000000000044]
TCL: Setting parameter firsttimestep to 0
TCL: Setting parameter alchLambda to 0.8499999999999999
Info: NONBONDED TABLE R-SQUARED SPACING: 0.0625
Info: NONBONDED TABLE SIZE: 705 POINTS
TCL: Setting parameter alchLambda2 to 0.7999999999999998
Info: NONBONDED TABLE R-SQUARED SPACING: 0.0625
Info: NONBONDED TABLE SIZE: 705 POINTS
TCL: Running for 1500000 steps
ETITLE: TS BOND ANGLE DIHED IMPRP ELECT VDW BOUNDARY MISC KINETIC TOTAL TEMP POTENTIAL TOTALAVG TEMPAVG PRESSURE GPRESSURE VOLUME PRESSAVG GPRESSAVG
ENERGY: 0 2.5738 6.2957 3.2903 0.0000 -10815.2464 1381.8895 0.0000 0.0000 1814.3785 -7606.8187 305.0574 -9421.1971 -7606.8187 305.0574 -662.6922 -580.3122 30709.7562 -662.6922 -580.3122
ENERGY: 300000 2.7190 4.0241 6.9254 0.0000 -10863.5478 1497.5055 0.0000 0.0000 1791.1975 -7561.1764 301.1599 -9352.3738 -7582.2232 300.6559 450.6123 514.6930 30558.1219 125.5856 197.2755
ENERGY: 600000 3.6407 1.3325 3.9194 0.0000 -10913.3772 1509.9406 0.0000 0.0000 1790.8338 -7603.7103 301.0988 -9394.5441 -7595.9176 299.6641 370.6832 439.2751 31024.5970 -12.8959 54.7728
ENERGY: 900000 3.4764 4.7227 6.3279 0.0000 -10773.2166 1438.6752 0.0000 0.0000 1798.6697 -7521.3447 302.4162 -9320.0145 -7594.8944 300.1515 194.9432 289.2614 30656.1389 62.1762 130.6867
ENERGY: 1200000 1.6646 1.1922 3.2961 0.0000 -10898.1461 1469.0897 0.0000 0.0000 1765.5868 -7657.3167 296.8539 -9422.9035 -7599.2072 300.4623 76.9574 212.1981 30421.7620 28.0861 100.9625
ENERGY: 1500000 1.1165 3.4187 1.5126 0.0000 -10788.8752 1414.0773 0.0000 0.0000 1758.5658 -7610.1842 295.6734 -9368.7500 -7604.0543 300.0808 -419.4467 -335.5496 30944.0151 -31.2445 37.5648
TCL: Running FEP window   5: Lambda1 0.7999999999999998 Lambda2 0.7499999999999998 [dLambda -0.050000000000000044]
TCL: Setting parameter firsttimestep to 0
TCL: Setting parameter alchLambda to 0.7999999999999998
Info: NONBONDED TABLE R-SQUARED SPACING: 0.0625
Info: NONBONDED TABLE SIZE: 705 POINTS
TCL: Setting parameter alchLambda2 to 0.7499999999999998
Info: NONBONDED TABLE R-SQUARED SPACING: 0.0625
Info: NONBONDED TABLE SIZE: 705 POINTS
TCL: Running for 1500000 steps
ETITLE: TS BOND ANGLE DIHED IMPRP ELECT VDW BOUNDARY MISC KINETIC TOTAL TEMP POTENTIAL TOTALAVG TEMPAVG PRESSURE GPRESSURE VOLUME PRESSAVG GPRESSAVG
ENERGY: 0 1.1165 3.4187 1.5126 0.0000 -10786.6335 1412.9165 0.0000 0.0000 1757.6873 -7609.9819 295.5257 -9367.6692 -7609.9819 295.5257 -432.6123 -354.8543 30944.0151 -432.6123 -354.8543
ENERGY: 300000 1.6279 4.3523 3.3909 0.0000 -10986.1689 1554.4349 0.0000 0.0000 1773.4992 -7648.8637 298.1842 -9422.3630 -7611.4468 295.9655 684.0218 770.7474 30431.9978 -66.7966 12.2071
ENERGY: 600000 6.2194 2.8274 5.7605 0.0000 -10762.5039 1351.4381 0.0000 0.0000 1745.7690 -7650.4895 293.5219 -9396.2585 -7628.3468 295.5759 -715.5299 -659.2048 30710.2516 -160.9694 -87.7683
ENERGY: 900000 1.9025 3.3253 2.0997 0.0000 -11027.1864 1511.4697 0.0000 0.0000 1847.1119 -7661.2772 310.5610 -9508.3891 -7634.5622 297.5605 30.1716 64.3816 30720.5758 -103.7264 -42.0895
ENERGY: 1200000 3.9070 1.8018 2.6626 0.0000 -10868.9929 1471.1108 0.0000 0.0000 1778.1248 -7611.3859 298.9620 -9389.5107 -7616.3744 298.8041 343.9858 324.1087 30366.6930 -1.5290 56.1903
ENERGY: 1500000 2.6696 1.1621 2.9851 0.0000 -10901.8274 1456.4366 0.0000 0.0000 1766.3861 -7672.1880 296.9883 -9438.5741 -7623.0133 298.4370 23.4803 48.5114 30461.4616 10.4711 68.3751
TCL: Running FEP window   6: Lambda1 0.7499999999999998 Lambda2 0.6999999999999997 [dLambda -0.050000000000000044]
TCL: Setting parameter firsttimestep to 0
TCL: Setting parameter alchLambda to 0.7499999999999998
Info: NONBONDED TABLE R-SQUARED SPACING: 0.0625
Info: NONBONDED TABLE SIZE: 705 POINTS
TCL: Setting parameter alchLambda2 to 0.6999999999999997
Info: NONBONDED TABLE R-SQUARED SPACING: 0.0625
Info: NONBONDED TABLE SIZE: 705 POINTS
TCL: Running for 1500000 steps
ETITLE: TS BOND ANGLE DIHED IMPRP ELECT VDW BOUNDARY MISC KINETIC TOTAL TEMP POTENTIAL TOTALAVG TEMPAVG PRESSURE GPRESSURE VOLUME PRESSAVG GPRESSAVG
ENERGY: 0 2.6696 1.1622 2.9851 0.0000 -10900.8952 1456.6569 0.0000 0.0000 1765.4969 -7671.9245 296.8388 -9437.4215 -7671.9245 296.8388 -23.5166 44.0833 30461.4616 -23.5166 44.0833
ENERGY: 300000 5.3771 3.5014 3.2729 0.0000 -10857.2362 1449.4680 0.0000 0.0000 1745.7147 -7649.9022 293.5127 -9395.6168 -7625.1198 297.3261 -169.0665 -82.8827 30752.1007 -242.5567 -183.8570
ENERGY: 600000 1.0970 1.7989 1.4402 0.0000 -10720.3365 1354.4750 0.0000 0.0000 1726.5030 -7635.0224 290.2826 -9361.5254 -7623.2169 296.4107 -759.1622 -720.1514 30904.1576 -314.6657 -264.0722
ENERGY: 900000 4.8143 2.7548 3.4795 0.0000 -10995.2460 1562.6857 0.0000 0.0000 1802.9805 -7618.5312 303.1410 -9421.5117 -7618.7090 296.3831 700.5880 790.9503 30785.5975 -274.3138 -209.3432
ENERGY: 1200000 2.3624 3.9990 2.4967 0.0000 -10945.0737 1502.6398 0.0000 0.0000 1791.0759 -7642.4999 301.1394 -9433.5757 -7613.5814 297.4922 90.1320 153.7890 30953.3325 -204.8074 -139.6912
ENERGY: 1500000 2.3167 3.1936 6.0806 0.0000 -10835.7218 1395.3070 0.0000 0.0000 1806.5979 -7622.2260 303.7492 -9428.8239 -7611.1907 298.1553 -528.3020 -460.9153 30497.2831 -246.6712 -176.6262
TCL: Running FEP window   7: Lambda1 0.6999999999999997 Lambda2 0.6499999999999997 [dLambda -0.050000000000000044]
TCL: Setting parameter firsttimestep to 0
TCL: Setting parameter alchLambda to 0.6999999999999997
Info: NONBONDED TABLE R-SQUARED SPACING: 0.0625
Info: NONBONDED TABLE SIZE: 705 POINTS
TCL: Setting parameter alchLambda2 to 0.6499999999999997
Info: NONBONDED TABLE R-SQUARED SPACING: 0.0625
Info: NONBONDED TABLE SIZE: 705 POINTS
TCL: Running for 1500000 steps
ETITLE: TS BOND ANGLE DIHED IMPRP ELECT VDW BOUNDARY MISC KINETIC TOTAL TEMP POTENTIAL TOTALAVG TEMPAVG PRESSURE GPRESSURE VOLUME PRESSAVG GPRESSAVG
ENERGY: 0 2.3167 3.1936 6.0806 0.0000 -10834.0503 1394.7563 0.0000 0.0000 1805.7164 -7621.9867 303.6010 -9427.7031 -7621.9867 303.6010 -559.6872 -465.9107 30497.2831 -559.6872 -465.9107
ENERGY: 300000 2.4500 3.7284 3.3329 0.0000 -10854.4949 1450.9129 0.0000 0.0000 1767.5872 -7626.4835 297.1902 -9394.0707 -7589.9580 303.5937 -184.4047 -142.8213 31056.3239 -395.1869 -343.5854
ENERGY: 600000 2.3724 1.7584 5.0350 0.0000 -10985.2878 1507.0271 0.0000 0.0000 1763.6701 -7705.4248 296.5316 -9469.0949 -7621.4011 301.9064 565.2666 639.5619 30252.5150 -211.9867 -150.0245
ENERGY: 900000 2.3530 3.8131 1.7746 0.0000 -10664.2464 1318.7647 0.0000 0.0000 1787.6150 -7549.9259 300.5576 -9337.5409 -7612.5002 300.3708 -1150.4143 -1080.1207 31273.1343 -187.9727 -128.4381
ENERGY: 1200000 2.6062 3.2325 4.5318 0.0000 -10672.0704 1320.0091 0.0000 0.0000 1752.2387 -7589.4522 294.6096 -9341.6909 -7605.8962 300.3177 -1290.5647 -1200.7276 31306.8835 -329.5774 -261.1639
ENERGY: 1500000 0.9548 2.6589 1.9726 0.0000 -10843.8022 1496.3619 0.0000 0.0000 1800.7005 -7541.1535 302.7577 -9341.8540 -7592.2774 300.8670 257.2836 307.4888 31161.5714 -243.1678 -176.6988
TCL: Running FEP window   8: Lambda1 0.6499999999999997 Lambda2 0.5999999999999996 [dLambda -0.050000000000000044]
TCL: Setting parameter firsttimestep to 0
TCL: Setting parameter alchLambda to 0.6499999999999997
Info: NONBONDED TABLE R-SQUARED SPACING: 0.0625
Info: NONBONDED TABLE SIZE: 705 POINTS
TCL: Setting parameter alchLambda2 to 0.5999999999999996
Info: NONBONDED TABLE R-SQUARED SPACING: 0.0625
Info: NONBONDED TABLE SIZE: 705 POINTS
TCL: Running for 1500000 steps
ETITLE: TS BOND ANGLE DIHED IMPRP ELECT VDW BOUNDARY MISC KINETIC TOTAL TEMP POTENTIAL TOTALAVG TEMPAVG PRESSURE GPRESSURE VOLUME PRESSAVG GPRESSAVG
ENERGY: 0 0.9548 2.6589 1.9726 0.0000 -10843.1021 1496.5035 0.0000 0.0000 1799.7819 -7541.2304 302.6032 -9341.0123 -7541.2304 302.6032 213.0866 300.5683 31161.5714 213.0866 300.5683
ENERGY: 300000 1.2032 2.9671 3.0287 0.0000 -10823.5519 1455.1144 0.0000 0.0000 1787.7840 -7573.4546 300.5860 -9361.2385 -7579.1861 301.1203 -200.7378 -169.8446 31143.8083 -133.1561 -87.5036
ENERGY: 600000 3.0601 2.6128 1.9364 0.0000 -10898.0469 1494.0141 0.0000 0.0000 1791.2702 -7605.1532 301.1721 -9396.4234 -7586.2725 300.6189 319.7543 321.9543 30514.6899 -20.8717 18.3441
ENERGY: 900000 3.7539 3.3494 4.8568 0.0000 -10655.1801 1377.6415 0.0000 0.0000 1767.7407 -7497.8379 297.2160 -9265.5786 -7582.2386 299.1046 -498.9286 -411.3030 31150.9851 6.2106 52.1956
ENERGY: 1200000 2.6140 4.7396 4.3688 0.0000 -11078.1620 1590.4291 0.0000 0.0000 1788.4939 -7687.5167 300.7053 -9476.0106 -7600.1690 298.6181 722.2108 866.7328 30605.0402 54.4659 113.8439
ENERGY: 1500000 2.7636 4.0017 5.2994 0.0000 -10788.9640 1422.0386 0.0000 0.0000 1787.2738 -7567.5868 300.5002 -9354.8606 -7586.3745 299.1881 136.9045 101.8948 30318.3336 16.5611 63.9617
TCL: Running FEP window   9: Lambda1 0.5999999999999996 Lambda2 0.5499999999999996 [dLambda -0.050000000000000044]
TCL: Setting parameter firsttimestep to 0
TCL: Setting parameter alchLambda to 0.5999999999999996
Info: NONBONDED TABLE R-SQUARED SPACING: 0.0625
Info: NONBONDED TABLE SIZE: 705 POINTS
TCL: Setting parameter alchLambda2 to 0.5499999999999996
Info: NONBONDED TABLE R-SQUARED SPACING: 0.0625
Info: NONBONDED TABLE SIZE: 705 POINTS
TCL: Running for 1500000 steps
ETITLE: TS BOND ANGLE DIHED IMPRP ELECT VDW BOUNDARY MISC KINETIC TOTAL TEMP POTENTIAL TOTALAVG TEMPAVG PRESSURE GPRESSURE VOLUME PRESSAVG GPRESSAVG
ENERGY: 0 2.7636 4.0017 5.2994 0.0000 -10788.3534 1421.6915 0.0000 0.0000 1786.4050 -7568.1923 300.3541 -9354.5972 -7568.1923 300.3541 31.1413 91.1891 30318.3336 31.1413 91.1891
ENERGY: 300000 3.7458 3.7920 3.7353 0.0000 -10663.8817 1357.8545 0.0000 0.0000 1755.4275 -7539.3266 295.1458 -9294.7540 -7556.7057 300.8387 -708.6781 -720.1181 31195.8067 -263.8356 -219.6522
ENERGY: 600000 3.1911 2.8166 2.4286 0.0000 -10760.1276 1413.9831 0.0000 0.0000 1801.0042 -7536.7040 302.8087 -9337.7082 -7561.2980 300.6823 -116.3379 -101.7255 30774.4499 -151.0023 -100.5511
ENERGY: 900000 2.2495 3.3518 3.1616 0.0000 -10792.3284 1395.7803 0.0000 0.0000 1810.2122 -7577.5729 304.3569 -9387.7852 -7562.5917 301.6425 -526.9044 -466.5114 30947.4202 -141.0866 -88.8874
ENERGY: 1200000 1.9467 3.7133 4.1085 0.0000 -10802.8614 1432.0397 0.0000 0.0000 1807.7316 -7553.3216 303.9398 -9361.0533 -7569.6176 301.4503 -114.8890 7.1239 30479.9977 -105.6208 -52.8353
ENERGY: 1500000 1.5115 2.2889 5.6300 0.0000 -10908.8644 1498.2539 0.0000 0.0000 1821.0295 -7580.1506 306.1757 -9401.1801 -7573.0998 301.7402 -29.9741 -18.2523 31480.6366 -138.0567 -83.3568
TCL: Running FEP window  10: Lambda1 0.5499999999999996 Lambda2 0.4999999999999996 [dLambda -0.04999999999999999]
TCL: Setting parameter firsttimestep to 0
TCL: Setting parameter alchLambda to 0.5499999999999996
Info: NONBONDED TABLE R-SQUARED SPACING: 0.0625
Info: NONBONDED TABLE SIZE: 705 POINTS
TCL: Setting parameter alchLambda2 to 0.4999999999999996
Info: NONBONDED TABLE R-SQUARED SPACING: 0.0625
Info: NONBONDED TABLE SIZE: 705 POINTS
TCL: Running for 1500000 steps
ETITLE: TS BOND ANGLE DIHED IMPRP ELECT VDW BOUNDARY MISC KINETIC TOTAL TEMP POTENTIAL TOTALAVG TEMPAVG PRESSURE GPRESSURE VOLUME PRESSAVG GPRESSAVG
ENERGY: 0 1.5115 2.2889 5.6300 0.0000 -10908.7012 1498.5619 0.0000 0.0000 1820.1054 -7580.6036 306.0203 -9400.7090 -7580.6036 306.0203 -96.4161 -21.7741 31480.6366 -96.4161 -21.7741
ENERGY: 300000 1.0325 3.4979 2.0574 0.0000 -10879.0142 1485.2876 0.0000 0.0000 1776.4272 -7610.7116 298.6765 -9387.1387 -7560.2801 302.8855 380.8568 357.6121 30562.3592 211.9272 251.3516
ENERGY: 600000 1.5150 2.5515 4.3261 0.0000 -10758.8414 1432.1324 0.0000 0.0000 1789.4733 -7528.8431 300.8700 -9318.3164 -7577.6633 300.9313 -190.2081 -111.2262 31087.7190 86.3619 133.2687
ENERGY: 900000 2.3331 3.9989 1.1791 0.0000 -10789.2506 1416.9897 0.0000 0.0000 1784.3529 -7580.3970 300.0091 -9364.7499 -7587.5703 300.5655 -352.8292 -282.3210 30809.6520 -53.5441 3.3260
ENERGY: 1200000 1.5921 2.6285 1.3912 0.0000 -10958.2285 1540.6700 0.0000 0.0000 1821.3332 -7590.6134 306.2267 -9411.9466 -7594.2509 299.8600 666.0860 747.1217 30482.3654 76.3019 134.4146
ENERGY: 1500000 1.9076 2.4649 4.2740 0.0000 -10887.7222 1501.1278 0.0000 0.0000 1829.4164 -7548.5315 307.5858 -9377.9479 -7592.2839 300.1269 353.3355 571.7016 30363.6571 129.2179 196.4434
TCL: Running FEP window  11: Lambda1 0.4999999999999996 Lambda2 0.4499999999999996 [dLambda -0.04999999999999999]
TCL: Setting parameter firsttimestep to 0
TCL: Setting parameter alchLambda to 0.4999999999999996
Info: NONBONDED TABLE R-SQUARED SPACING: 0.0625
Info: NONBONDED TABLE SIZE: 705 POINTS
TCL: Setting parameter alchLambda2 to 0.4499999999999996
Info: NONBONDED TABLE R-SQUARED SPACING: 0.0625
Info: NONBONDED TABLE SIZE: 705 POINTS
TCL: Running for 1500000 steps
ETITLE: TS BOND ANGLE DIHED IMPRP ELECT VDW BOUNDARY MISC KINETIC TOTAL TEMP POTENTIAL TOTALAVG TEMPAVG PRESSURE GPRESSURE VOLUME PRESSAVG GPRESSAVG
ENERGY: 0 1.9076 2.4649 4.2740 0.0000 -10887.0971 1500.9453 0.0000 0.0000 1828.5448 -7548.9605 307.4392 -9377.5053 -7548.9605 307.4392 471.4974 564.5876 30363.6571 471.4974 564.5876
ENERGY: 300000 1.0489 1.5150 4.5876 0.0000 -10846.0593 1451.6859 0.0000 0.0000 1802.9300 -7584.2920 303.1325 -9387.2220 -7612.1036 303.4289 -84.7177 -73.0200 30810.6516 -35.6439 17.8613
ENERGY: 600000 2.2899 3.0877 1.4850 0.0000 -11013.1243 1600.9364 0.0000 0.0000 1817.8718 -7587.4535 305.6447 -9405.3253 -7572.7564 303.7551 1076.1957 1142.4929 30662.4613 65.0951 134.5101
ENERGY: 900000 1.9751 2.0125 1.5524 0.0000 -10812.1856 1458.1276 0.0000 0.0000 1763.2173 -7585.3006 296.4555 -9348.5179 -7593.1551 301.1929 41.2252 58.3997 30868.6078 -48.9623 30.3470
ENERGY: 1200000 1.8645 2.4716 1.8411 0.0000 -10803.7368 1448.6468 0.0000 0.0000 1782.3474 -7566.5654 299.6719 -9348.9128 -7575.1595 300.9005 -196.0311 -170.4533 31253.8993 -91.9240 -17.1970
ENERGY: 1500000 4.7105 2.8408 3.1707 0.0000 -10730.1754 1367.7904 0.0000 0.0000 1774.5650 -7577.0980 298.3634 -9351.6630 -7575.1391 300.8025 -791.5297 -703.3644 31063.8725 -132.0198 -58.5158
TCL: Running FEP window  12: Lambda1 0.4499999999999996 Lambda2 0.39999999999999963 [dLambda -0.04999999999999999]
TCL: Setting parameter firsttimestep to 0
TCL: Setting parameter alchLambda to 0.4499999999999996
Info: NONBONDED TABLE R-SQUARED SPACING: 0.0625
Info: NONBONDED TABLE SIZE: 705 POINTS
TCL: Setting parameter alchLambda2 to 0.39999999999999963
Info: NONBONDED TABLE R-SQUARED SPACING: 0.0625
Info: NONBONDED TABLE SIZE: 705 POINTS
TCL: Running for 1500000 steps
ETITLE: TS BOND ANGLE DIHED IMPRP ELECT VDW BOUNDARY MISC KINETIC TOTAL TEMP POTENTIAL TOTALAVG TEMPAVG PRESSURE GPRESSURE VOLUME PRESSAVG GPRESSAVG
ENERGY: 0 4.7105 2.8408 3.1707 0.0000 -10730.1753 1368.2320 0.0000 0.0000 1773.7263 -7577.4951 298.2224 -9351.2213 -7577.4951 298.2224 -790.9416 -705.1232 31063.8725 -790.9416 -705.1232
ENERGY: 300000 2.8137 3.6989 2.6300 0.0000 -10866.7904 1419.6390 0.0000 0.0000 1773.3789 -7664.6298 298.1640 -9438.0088 -7618.5707 299.5816 -413.7472 -349.7527 30722.1894 -396.6580 -319.7679
ENERGY: 600000 3.3044 2.7330 1.6795 0.0000 -10673.9654 1387.4392 0.0000 0.0000 1777.9248 -7500.8845 298.9283 -9278.8093 -7616.6108 298.3325 -447.0309 -432.9380 31415.3685 -443.4987 -377.8171
ENERGY: 900000 1.8109 3.7304 3.8480 0.0000 -10888.4132 1489.6367 0.0000 0.0000 1816.7051 -7572.6822 305.4486 -9389.3872 -7594.4434 300.7576 223.9518 294.1368 30723.6781 -229.6059 -154.2274
ENERGY: 1200000 2.6743 4.2886 8.1184 0.0000 -10949.9362 1523.5509 0.0000 0.0000 1759.6144 -7651.6896 295.8497 -9411.3039 -7602.6666 299.6153 576.8630 692.3238 30398.0029 -165.3450 -93.4475
ENERGY: 1500000 3.0508 1.8300 2.1386 0.0000 -10832.6106 1467.2648 0.0000 0.0000 1767.2448 -7591.0817 297.1326 -9358.3264 -7600.4967 299.6969 177.5796 258.6570 30648.9994 -109.1059 -39.2686
TCL: Running FEP window  13: Lambda1 0.39999999999999963 Lambda2 0.34999999999999964 [dLambda -0.04999999999999999]
TCL: Setting parameter firsttimestep to 0
TCL: Setting parameter alchLambda to 0.39999999999999963
Info: NONBONDED TABLE R-SQUARED SPACING: 0.0625
Info: NONBONDED TABLE SIZE: 705 POINTS
TCL: Setting parameter alchLambda2 to 0.34999999999999964
Info: NONBONDED TABLE R-SQUARED SPACING: 0.0625
Info: NONBONDED TABLE SIZE: 705 POINTS
TCL: Running for 1500000 steps
ETITLE: TS BOND ANGLE DIHED IMPRP ELECT VDW BOUNDARY MISC KINETIC TOTAL TEMP POTENTIAL TOTALAVG TEMPAVG PRESSURE GPRESSURE VOLUME PRESSAVG GPRESSAVG
ENERGY: 0 3.0508 1.8300 2.1386 0.0000 -10832.6095 1466.8949 0.0000 0.0000 1766.3495 -7592.3457 296.9821 -9358.6951 -7592.3457 296.9821 165.9393 248.8161 30648.9994 165.9393 248.8161
ENERGY: 300000 1.1075 1.2726 1.8977 0.0000 -10781.2239 1416.5849 0.0000 0.0000 1793.7961 -7566.5651 301.5968 -9360.3612 -7554.8383 302.6592 -196.6711 -87.6167 30830.3940 -70.9204 27.6948
ENERGY: 600000 2.1698 2.4753 7.5093 0.0000 -10819.7079 1407.5216 0.0000 0.0000 1817.8523 -7582.1796 305.6415 -9400.0319 -7577.8348 300.8795 -114.8289 24.8216 29907.8282 81.3907 181.9920
ENERGY: 900000 2.2610 4.8659 2.8193 0.0000 -10917.2340 1556.2880 0.0000 0.0000 1780.7612 -7570.2387 299.4052 -9350.9998 -7586.4234 299.9466 748.6899 757.6927 31180.2418 81.1968 162.7314
ENERGY: 1200000 1.9108 3.7711 1.5364 0.0000 -10800.2631 1455.2130 0.0000 0.0000 1831.7229 -7506.1088 307.9736 -9337.8317 -7569.9734 301.2708 24.9611 114.9725 31013.5088 102.4504 186.9128
ENERGY: 1500000 6.0331 2.1521 4.6953 0.0000 -10916.7046 1503.7496 0.0000 0.0000 1718.4178 -7681.6567 288.9232 -9400.0745 -7578.9866 299.8553 223.2700 264.8344 30540.4498 85.7953 166.4209
TCL: Running FEP window  14: Lambda1 0.34999999999999964 Lambda2 0.29999999999999966 [dLambda -0.04999999999999999]
TCL: Setting parameter firsttimestep to 0
TCL: Setting parameter alchLambda to 0.34999999999999964
Info: NONBONDED TABLE R-SQUARED SPACING: 0.0625
Info: NONBONDED TABLE SIZE: 705 POINTS
TCL: Setting parameter alchLambda2 to 0.29999999999999966
Info: NONBONDED TABLE R-SQUARED SPACING: 0.0625
Info: NONBONDED TABLE SIZE: 705 POINTS
TCL: Running for 1500000 steps
ETITLE: TS BOND ANGLE DIHED IMPRP ELECT VDW BOUNDARY MISC KINETIC TOTAL TEMP POTENTIAL TOTALAVG TEMPAVG PRESSURE GPRESSURE VOLUME PRESSAVG GPRESSAVG
ENERGY: 0 6.0331 2.1521 4.6953 0.0000 -10916.7043 1503.7251 0.0000 0.0000 1717.5409 -7682.5578 288.7758 -9400.0987 -7682.5578 288.7758 173.8050 259.4746 30540.4498 173.8050 259.4746
ENERGY: 300000 2.2633 1.9870 6.9418 0.0000 -10853.2993 1465.1949 0.0000 0.0000 1751.5663 -7625.3459 294.4966 -9376.9122 -7626.1200 297.6481 252.6502 360.7300 30433.6152 -265.2893 -176.7893
ENERGY: 600000 2.7621 3.1335 4.0603 0.0000 -10758.3015 1407.7908 0.0000 0.0000 1799.5471 -7541.0077 302.5638 -9340.5548 -7623.4107 299.3100 -384.8746 -292.4255 31050.9021 -156.6176 -76.8026
ENERGY: 900000 1.8104 2.3805 3.6416 0.0000 -10742.8304 1347.6205 0.0000 0.0000 1846.2878 -7541.0896 310.4224 -9387.3774 -7621.6240 300.7629 -900.5939 -776.0080 30676.0747 -146.2608 -63.6800
ENERGY: 1200000 0.6310 1.9433 3.2068 0.0000 -10812.7292 1440.5353 0.0000 0.0000 1715.1740 -7651.2389 288.3778 -9366.4129 -7624.9139 299.1436 -220.6963 -222.0881 31233.4879 -100.2595 -23.2789
ENERGY: 1500000 1.9605 3.3990 3.2132 0.0000 -10887.8316 1458.5732 0.0000 0.0000 1772.0173 -7648.6684 297.9351 -9420.6857 -7624.0500 298.9151 -139.2766 -66.3963 30670.4483 -106.9632 -26.5017
TCL: Running FEP window  15: Lambda1 0.29999999999999966 Lambda2 0.24999999999999967 [dLambda -0.04999999999999999]
TCL: Setting parameter firsttimestep to 0
TCL: Setting parameter alchLambda to 0.29999999999999966
Info: NONBONDED TABLE R-SQUARED SPACING: 0.0625
Info: NONBONDED TABLE SIZE: 705 POINTS
TCL: Setting parameter alchLambda2 to 0.24999999999999967
Info: NONBONDED TABLE R-SQUARED SPACING: 0.0625
Info: NONBONDED TABLE SIZE: 705 POINTS
TCL: Running for 1500000 steps
ETITLE: TS BOND ANGLE DIHED IMPRP ELECT VDW BOUNDARY MISC KINETIC TOTAL TEMP POTENTIAL TOTALAVG TEMPAVG PRESSURE GPRESSURE VOLUME PRESSAVG GPRESSAVG
ENERGY: 0 1.9605 3.3990 3.2132 0.0000 -10887.8308 1459.0422 0.0000 0.0000 1771.1148 -7649.1012 297.7833 -9420.2159 -7649.1012 297.7833 -154.5792 -64.2528 30670.4483 -154.5792 -64.2528
ENERGY: 300000 2.5406 3.9438 2.6660 0.0000 -10814.0060 1425.8117 0.0000 0.0000 1756.7327 -7622.3111 295.3652 -9379.0439 -7568.3285 300.3719 -442.1759 -309.1874 30913.3289 -229.6825 -136.4546
ENERGY: 600000 0.8552 2.9522 4.8823 0.0000 -10876.2770 1431.6310 0.0000 0.0000 1767.8496 -7668.1067 297.2343 -9435.9563 -7615.4508 299.4947 -346.4924 -312.1940 30867.9936 12.6835 97.3319
ENERGY: 900000 2.3141 6.0476 0.9261 0.0000 -10925.6731 1512.1813 0.0000 0.0000 1800.0392 -7604.1649 302.6465 -9404.2041 -7614.2564 299.3376 90.3804 211.0043 30898.6696 -33.7092 46.8833
ENERGY: 1200000 2.3640 1.9355 1.7400 0.0000 -10836.6364 1398.1396 0.0000 0.0000 1820.4121 -7612.0452 306.0719 -9432.4574 -7614.4476 299.4921 -521.3285 -472.2837 30953.6764 -50.6755 18.6593
ENERGY: 1500000 2.2081 4.9245 4.8302 0.0000 -10838.8915 1448.7181 0.0000 0.0000 1812.4393 -7565.7713 304.7314 -9378.2106 -7606.9959 300.2690 -75.2919 -54.0826 30829.9587 -120.5471 -57.4609
TCL: Running FEP window  16: Lambda1 0.24999999999999967 Lambda2 0.19999999999999968 [dLambda -0.04999999999999999]
TCL: Setting parameter firsttimestep to 0
TCL: Setting parameter alchLambda to 0.24999999999999967
Info: NONBONDED TABLE R-SQUARED SPACING: 0.0625
Info: NONBONDED TABLE SIZE: 705 POINTS
TCL: Setting parameter alchLambda2 to 0.19999999999999968
Info: NONBONDED TABLE R-SQUARED SPACING: 0.0625
Info: NONBONDED TABLE SIZE: 705 POINTS
TCL: Running for 1500000 steps
ETITLE: TS BOND ANGLE DIHED IMPRP ELECT VDW BOUNDARY MISC KINETIC TOTAL TEMP POTENTIAL TOTALAVG TEMPAVG PRESSURE GPRESSURE VOLUME PRESSAVG GPRESSAVG
ENERGY: 0 2.2081 4.9245 4.8302 0.0000 -10838.8917 1449.1546 0.0000 0.0000 1811.5374 -7566.2370 304.5797 -9377.7744 -7566.2370 304.5797 -141.6516 -55.3112 30829.9587 -141.6516 -55.3112
ENERGY: 300000 1.9713 2.2328 6.0755 0.0000 -10839.3115 1420.6601 0.0000 0.0000 1795.3004 -7613.0714 301.8497 -9408.3718 -7589.3981 304.9733 -414.8534 -398.8196 30968.8695 104.6304 143.9991
ENERGY: 600000 1.0591 3.6257 1.5950 0.0000 -10955.4901 1533.2233 0.0000 0.0000 1792.3040 -7623.6830 301.3459 -9415.9870 -7587.8089 302.9442 400.7570 523.8164 30464.7075 260.5991 312.8872
ENERGY: 900000 4.7999 4.6940 3.4278 0.0000 -10856.4053 1471.0843 0.0000 0.0000 1755.4705 -7616.9289 295.1530 -9372.3993 -7586.8346 300.7446 -466.4955 -415.3173 31482.5234 33.6750 86.8858
ENERGY: 1200000 2.6695 0.8302 2.3132 0.0000 -10789.4513 1468.5918 0.0000 0.0000 1751.2852 -7563.7614 294.4493 -9315.0466 -7586.8624 300.4084 282.5606 339.0935 30515.3436 78.4019 134.2478
ENERGY: 1500000 1.1421 1.5021 5.7494 0.0000 -10939.6377 1472.9407 0.0000 0.0000 1820.9314 -7637.3722 306.1592 -9458.3035 -7602.1977 300.4573 -172.5951 -86.9161 30558.6792 112.9839 176.1316
TCL: Running FEP window  17: Lambda1 0.19999999999999968 Lambda2 0.1499999999999997 [dLambda -0.04999999999999999]
TCL: Setting parameter firsttimestep to 0
TCL: Setting parameter alchLambda to 0.19999999999999968
Info: NONBONDED TABLE R-SQUARED SPACING: 0.0625
Info: NONBONDED TABLE SIZE: 705 POINTS
TCL: Setting parameter alchLambda2 to 0.1499999999999997
Info: NONBONDED TABLE R-SQUARED SPACING: 0.0625
Info: NONBONDED TABLE SIZE: 705 POINTS
TCL: Running for 1500000 steps
ETITLE: TS BOND ANGLE DIHED IMPRP ELECT VDW BOUNDARY MISC KINETIC TOTAL TEMP POTENTIAL TOTALAVG TEMPAVG PRESSURE GPRESSURE VOLUME PRESSAVG GPRESSAVG
ENERGY: 0 1.1421 1.5021 5.7494 0.0000 -10939.6377 1473.2309 0.0000 0.0000 1820.0783 -7637.9349 306.0157 -9458.0132 -7637.9349 306.0157 -154.3367 -87.6251 30558.6792 -154.3367 -87.6251
ENERGY: 300000 2.0361 2.0483 3.0069 0.0000 -10860.0588 1438.2769 0.0000 0.0000 1778.2636 -7636.4271 298.9853 -9414.6907 -7616.1463 302.1878 -214.4703 -161.6092 30652.4238 -229.6518 -168.4690
ENERGY: 600000 0.7931 2.1373 6.3261 0.0000 -10760.8920 1429.7057 0.0000 0.0000 1780.7295 -7541.2002 299.3999 -9321.9297 -7600.2817 301.6386 -30.6946 3.5157 30726.1363 -268.3680 -212.2015
ENERGY: 900000 2.0745 2.4470 1.7160 0.0000 -10904.0677 1547.5273 0.0000 0.0000 1755.3752 -7594.9275 295.1370 -9350.3028 -7601.0487 300.9376 759.2035 870.6110 30721.4182 -154.7078 -93.9884
ENERGY: 1200000 3.6086 2.0786 2.2102 0.0000 -10717.6330 1428.0362 0.0000 0.0000 1805.9963 -7475.7032 303.6481 -9281.6994 -7593.2437 300.9488 -115.7132 -2.2127 31118.7799 -76.2768 -10.8879
ENERGY: 1500000 2.2724 2.5489 2.6553 0.0000 -10790.6057 1457.6084 0.0000 0.0000 1815.6987 -7509.8221 305.2794 -9325.5208 -7587.8369 301.8223 320.7953 423.3230 30746.7369 -58.3419 11.2414
TCL: Running FEP window  18: Lambda1 0.1499999999999997 Lambda2 0.09999999999999969 [dLambda -0.05 ]
TCL: Setting parameter firsttimestep to 0
TCL: Setting parameter alchLambda to 0.1499999999999997
Info: NONBONDED TABLE R-SQUARED SPACING: 0.0625
Info: NONBONDED TABLE SIZE: 705 POINTS
TCL: Setting parameter alchLambda2 to 0.09999999999999969
Info: NONBONDED TABLE R-SQUARED SPACING: 0.0625
Info: NONBONDED TABLE SIZE: 705 POINTS
TCL: Running for 1500000 steps
ETITLE: TS BOND ANGLE DIHED IMPRP ELECT VDW BOUNDARY MISC KINETIC TOTAL TEMP POTENTIAL TOTALAVG TEMPAVG PRESSURE GPRESSURE VOLUME PRESSAVG GPRESSAVG
ENERGY: 0 2.2724 2.5489 2.6553 0.0000 -10790.6060 1458.1355 0.0000 0.0000 1814.8271 -7510.1670 305.1328 -9324.9940 -7510.1670 305.1328 320.5136 422.8228 30746.7369 320.5136 422.8228
ENERGY: 300000 1.0861 1.9727 2.7166 0.0000 -10864.6156 1447.2303 0.0000 0.0000 1802.4561 -7609.1538 303.0528 -9411.6099 -7582.6146 302.6280 -284.4158 -225.9794 30844.1158 -62.3189 2.4648
ENERGY: 600000 2.0883 0.7091 2.5308 0.0000 -10807.5397 1393.2616 0.0000 0.0000 1722.5093 -7686.4407 289.6111 -9408.9500 -7578.7816 300.7556 -879.5602 -812.6681 31107.8310 -295.4443 -224.4831
ENERGY: 900000 2.3730 1.9573 3.1391 0.0000 -10699.4485 1360.8650 0.0000 0.0000 1700.0480 -7631.0662 285.8346 -9331.1142 -7582.8647 300.4831 -926.9046 -794.2550 31321.0337 -242.1439 -178.9056
ENERGY: 1200000 7.3744 2.1177 3.2619 0.0000 -10839.6583 1456.9105 0.0000 0.0000 1712.5621 -7657.4316 287.9387 -9369.9937 -7589.7766 299.3232 -127.1863 -12.2535 30913.0349 -249.4438 -185.6760
ENERGY: 1500000 2.5255 3.8593 3.3409 0.0000 -10762.0805 1419.6302 0.0000 0.0000 1780.8486 -7551.8761 299.4199 -9332.7247 -7590.5547 299.1615 -220.8639 -199.3513 30782.8439 -202.6698 -143.4626
TCL: Running FEP window  19: Lambda1 0.09999999999999969 Lambda2 0.049999999999999684 [dLambda -0.05 ]
TCL: Setting parameter firsttimestep to 0
TCL: Setting parameter alchLambda to 0.09999999999999969
Info: NONBONDED TABLE R-SQUARED SPACING: 0.0625
Info: NONBONDED TABLE SIZE: 705 POINTS
TCL: Setting parameter alchLambda2 to 0.049999999999999684
Info: NONBONDED TABLE R-SQUARED SPACING: 0.0625
Info: NONBONDED TABLE SIZE: 705 POINTS
TCL: Running for 1500000 steps
ETITLE: TS BOND ANGLE DIHED IMPRP ELECT VDW BOUNDARY MISC KINETIC TOTAL TEMP POTENTIAL TOTALAVG TEMPAVG PRESSURE GPRESSURE VOLUME PRESSAVG GPRESSAVG
ENERGY: 0 2.5255 3.8593 3.3409 0.0000 -10762.0802 1419.4974 0.0000 0.0000 1779.8893 -7552.9678 299.2586 -9332.8571 -7552.9678 299.2586 -287.8804 -201.0183 30782.8439 -287.8804 -201.0183
ENERGY: 300000 1.6795 4.9094 1.8631 0.0000 -10904.1327 1630.3405 0.0000 0.0000 1771.7723 -7493.5679 297.8939 -9265.3403 -7558.7655 301.9282 1546.0177 1650.1058 31166.5523 234.4905 301.6828
ENERGY: 600000 1.4242 2.9945 3.1292 0.0000 -10972.1463 1540.9341 0.0000 0.0000 1768.3190 -7655.3454 297.3133 -9423.6644 -7577.9518 301.0186 708.2120 814.5205 29969.1894 342.9237 405.3098
ENERGY: 900000 0.9758 2.9025 4.5784 0.0000 -10863.1894 1463.2897 0.0000 0.0000 1777.8294 -7613.6136 298.9123 -9391.4430 -7581.9568 301.3740 228.6652 174.9108 30477.8462 190.0710 232.1603
ENERGY: 1200000 3.2134 3.6007 3.6812 0.0000 -10838.4248 1453.2290 0.0000 0.0000 1795.8006 -7578.9000 301.9338 -9374.7006 -7582.5282 301.8311 -63.7756 -39.4559 30925.8431 101.6181 146.1340
ENERGY: 1500000 3.0529 2.0168 3.9262 0.0000 -10915.5266 1467.7905 0.0000 0.0000 1744.8596 -7693.8807 293.3690 -9438.7403 -7583.7022 301.0366 -222.2860 -121.8100 30687.9329 144.8753 195.6523
TCL: Running FEP window  20: Lambda1 0.049999999999999684 Lambda2 0.0    [dLambda -0.049999999999999684]
TCL: Setting parameter firsttimestep to 0
TCL: Setting parameter alchLambda to 0.049999999999999684
Info: NONBONDED TABLE R-SQUARED SPACING: 0.0625
Info: NONBONDED TABLE SIZE: 705 POINTS
TCL: Setting parameter alchLambda2 to 0.0
Info: NONBONDED TABLE R-SQUARED SPACING: 0.0625
Info: NONBONDED TABLE SIZE: 705 POINTS
TCL: Running for 1500000 steps
ETITLE: TS BOND ANGLE DIHED IMPRP ELECT VDW BOUNDARY MISC KINETIC TOTAL TEMP POTENTIAL TOTALAVG TEMPAVG PRESSURE GPRESSURE VOLUME PRESSAVG GPRESSAVG
ENERGY: 0 3.0529 2.0168 3.9262 0.0000 -10915.5267 1467.8380 0.0000 0.0000 1743.9698 -7694.7230 293.2194 -9438.6928 -7694.7230 293.2194 -204.0767 -123.5634 30687.9329 -204.0767 -123.5634
ENERGY: 300000 4.0474 1.9262 2.1027 0.0000 -10780.2306 1478.6058 0.0000 0.0000 1770.2030 -7523.3455 297.6300 -9293.5485 -7593.2763 298.2896 296.9775 347.0326 30902.6375 101.6926 157.8138
ENERGY: 600000 3.3814 2.8361 3.3784 0.0000 -10983.2982 1496.1024 0.0000 0.0000 1768.8163 -7708.7836 297.3969 -9477.5999 -7614.0427 298.9686 432.2565 489.1407 29957.2533 168.9475 220.8399
ENERGY: 900000 2.5213 2.4090 2.9445 0.0000 -10881.4316 1461.1774 0.0000 0.0000 1776.4482 -7635.9313 298.6800 -9412.3794 -7613.1362 299.3441 -237.2597 -187.9088 30966.5865 172.6757 236.1425
ENERGY: 1200000 2.8061 6.5462 4.6473 0.0000 -10621.7789 1314.9793 0.0000 0.0000 1790.7635 -7502.0364 301.0869 -9292.7999 -7597.3165 300.0444 -1131.2802 -1035.8024 30741.8714 77.5337 143.1986
ENERGY: 1500000 2.6929 6.1344 1.5554 0.0000 -10882.3430 1434.1382 0.0000 0.0000 1773.1949 -7664.6272 298.1331 -9437.8220 -7600.2697 300.5923 -428.9642 -389.6719 30705.1411 65.1465 129.3753
TCL: Exiting due to exit command.
