Info: SIMULATION PARAMETERS:
Info: TIMESTEP               2
Info: NUMBER OF STEPS        0
Info: STEPS PER CYCLE        10
Info: PERIODIC CELL BASIS 1  30.9382 0 0
Info: PERIODIC CELL BASIS 2  0 31.314 0
Info: PERIODIC CELL BASIS 3  0 0 32.0108
Info: PERIODIC CELL CENTER   0 0 0
Info: WRAPPING WATERS AROUND PERIODIC BOUNDARIES ON OUTPUT.
Info: WRAPPING ALL CLUSTERS AROUND PERIODIC BOUNDARIES ON OUTPUT.
Info: FIRST LDB TIMESTEP     50
Info: LAST LDB TIMESTEP     -1
Info: HOM BACKGROUND SCALING 1
Info: PME BACKGROUND SCALING 1
Info: MIN ATOMS PER PATCH    40
Info: EMPTY PATCH LOAD       40 ATOMS
Info: VELOCITY FILE          mobley_5157661_equil.vel
Info: CENTER OF MASS MOVING INITIALLY? NO
Info: DIELECTRIC             1
Info: EXCLUDE                SCALED ONE-FOUR
Info: 1-4 ELECTROSTATICS SCALED BY 0.833333
Info: MODIFIED 1-4 VDW PARAMETERS WILL BE USED
Info: DCD FILENAME           mobley_5157661_prod.dcd
Info: DCD FREQUENCY          100000
Info: DCD FIRST STEP         100000
Info: DCD FILE WILL CONTAIN UNIT CELL DATA
Info: XST FILENAME           mobley_5157661_prod.xst
Info: XST FREQUENCY          100000
Info: NO VELOCITY DCD OUTPUT
Info: NO FORCE DCD OUTPUT
Info: OUTPUT FILENAME        mobley_5157661_prod
Info: BINARY OUTPUT FILES WILL BE USED
Info: RESTART FILENAME       mobley_5157661_prod.restart
Info: RESTART FREQUENCY      100000
Info: BINARY RESTART FILES WILL BE USED
Info: CUTOFF                 9
Info: PAIRLIST DISTANCE      11
Info: PAIRLIST SHRINK RATE   0.01
Info: PAIRLIST GROW RATE     0.01
Info: PAIRLIST TRIGGER       0.3
Info: PAIRLISTS PER CYCLE    2
Info: PAIRLISTS ENABLED
Info: MARGIN                 2
Info: HYDROGEN GROUP CUTOFF  2.5
Info: PATCH DIMENSION        15.5
Info: ENERGY OUTPUT STEPS    100000
Info: ENERGY EVALUATION STEPS    100000
Info: OUTPUT ENERGY PRECISION 4
Info: CROSSTERM ENERGY INCLUDED IN DIHEDRAL
Info: TIMING OUTPUT STEPS    1000000
Info: PRESSURE OUTPUT STEPS  100000
Info: ALCHEMICAL FEP ON
Info: FEP CURRENT LAMBDA VALUE     1
Info: FEP COMPARISON LAMBDA VALUE  0.95
Info: FEP INTRA-ALCHEMICAL NON-BONDED INTERACTIONS WILL BE RETAINED
Info: FEP INTRA-ALCHEMICAL BONDED INTERACTIONS WILL BE RETAINED
Info: FEP VDW SHIFTING COEFFICIENT 5
Info: FEP ELEC. ACTIVE FOR ANNIHILATED PARTICLES BETWEEN LAMBDA = 0 AND LAMBDA = 0.5
Info: FEP ELEC. ACTIVE FOR EXNIHILATED PARTICLES BETWEEN LAMBDA = 0.5 AND LAMBDA = 1
Info: FEP VDW ACTIVE FOR ANNIHILATED PARTICLES BETWEEN LAMBDA = 0 AND LAMBDA = 1
Info: FEP VDW ACTIVE FOR EXNIHILATED PARTICLES BETWEEN LAMBDA = 0 AND LAMBDA = 1
Info: FEP BOND ACTIVE FOR ANNIHILATED PARTICLES BETWEEN LAMBDA = 1 AND LAMBDA = 1
Info: FEP BOND ACTIVE FOR EXNIHILATED PARTICLES BETWEEN LAMBDA = 0 AND LAMBDA = 0
Info: LANGEVIN DYNAMICS ACTIVE
Info: LANGEVIN TEMPERATURE   300
Info: LANGEVIN USING BBK INTEGRATOR
Info: LANGEVIN DAMPING COEFFICIENT IS 1 INVERSE PS
Info: LANGEVIN DYNAMICS APPLIED TO HYDROGENS
Info: LANGEVIN PISTON PRESSURE CONTROL ACTIVE
Info:        TARGET PRESSURE IS 1.01325 BAR
Info:     OSCILLATION PERIOD IS 50 FS
Info:             DECAY TIME IS 25 FS
Info:     PISTON TEMPERATURE IS 300 K
Info:       PRESSURE CONTROL IS GROUP-BASED
Info:    INITIAL STRAIN RATE IS 9.30203e-06 9.30203e-06 9.30203e-06
Info:       CELL FLUCTUATION IS ISOTROPIC
Info: PARTICLE MESH EWALD (PME) ACTIVE
Info: PME TOLERANCE               1e-06
Info: PME EWALD COEFFICIENT       0.348832
Info: PME INTERPOLATION ORDER     4
Info: PME GRID DIMENSIONS         32 32 36
Info: PME MAXIMUM GRID SPACING    1
Info: PME CALCULATION WILL BE PERFORMED ON GPU
Info: FULL ELECTROSTATIC EVALUATION FREQUENCY      2
Info: USING VERLET I (r-RESPA) MTS SCHEME.
Info: C1 SPLITTING OF LONG RANGE ELECTROSTATICS
Info: PLACING ATOMS IN PATCHES BY HYDROGEN GROUPS
Info: RIGID BONDS TO HYDROGEN : ALL
Info:         ERROR TOLERANCE : 1e-08
Info:          MAX ITERATIONS : 100
Info: RIGID WATER USING SETTLE ALGORITHM
Info: RANDOM NUMBER SEED     1743578582
Info: USE HYDROGEN BONDS?    NO
Info: Using AMBER format force field!
Info: AMBER PARM FILE        mobley_5157661.prmtop
Info: COORDINATE PDB         mobley_5157661.pdb
Info: Exclusions will be read from PARM file!
Info: SCNB (VDW SCALING)     2
Info: USING ARITHMETIC MEAN TO COMBINE L-J SIGMA PARAMETERS
Info: BINARY COORDINATES     mobley_5157661_equil.coor
Info: SUMMARY OF PARAMETERS:
Info: 4 BONDS
Info: 3 ANGLES
Info:   3 HARMONIC
Info:   0 COSINE-BASED
Info: 2 DIHEDRAL
Info: 0 IMPROPER
Info: 0 CROSSTERM
Info: 0 VDW
Info: 10 VDW_PAIRS
Info: 0 NBTHOLE_PAIRS
Info: To read alchdata from file: mobley_5157661.pdb
Info: To read alchflag data from column: 5
Info: STRUCTURE SUMMARY:
Info: 2987 ATOMS
Info: 2986 BONDS
Info: 24 ANGLES
Info: 27 DIHEDRALS
Info: 0 IMPROPERS
Info: 0 CROSSTERMS
Info: 3037 EXCLUSIONS
Info: 2983 RIGID BONDS
Info: ALCH: 0 ATOMS TO DISAPPEAR IN FINAL STATE
Info: ALCH: 14 ATOMS TO APPEAR IN FINAL STATE
Info: 5978 DEGREES OF FREEDOM
Info: 995 HYDROGEN GROUPS
Info: 4 ATOMS IN LARGEST HYDROGEN GROUP
Info: 995 MIGRATION GROUPS
Info: 4 ATOMS IN LARGEST MIGRATION GROUP
Info: TOTAL MASS = 17912 amu
Info: TOTAL CHARGE = 0.000200011 e
Info: MASS DENSITY = 0.959121 g/cm^3
Info: ATOM DENSITY = 0.0963176 atoms/A^3
Info: ADDED 0 IMPLICIT EXCLUSIONS
Info: NONBONDED TABLE R-SQUARED SPACING: 0.0625
Info: NONBONDED TABLE SIZE: 705 POINTS
Info: REMOVING COM VELOCITY 0.0133683 0.000721135 -0.154001
Info: Use 3D box decompostion in PME FFT.
Info: Updated CUDA force table with 4096 elements.
Info: Updated CUDA LJ table with 4 x 4 elements.
Info: Found 17 unique exclusion lists needing 36 bytes
TCL: Running for 1500000 steps
ETITLE: TS BOND ANGLE DIHED IMPRP ELECT VDW BOUNDARY MISC KINETIC TOTAL TEMP POTENTIAL TOTALAVG TEMPAVG PRESSURE GPRESSURE VOLUME PRESSAVG GPRESSAVG
ENERGY: 0 1.9250 6.3810 0.6474 0.0000 -10760.7153 1388.4414 0.0000 0.0000 1835.5009 -7527.8196 309.0218 -9363.3205 -7527.8196 309.0218 -577.9125 -497.6886 31011.9707 -577.9125 -497.6886
ENERGY: 300000 0.4009 5.7554 0.6254 0.0000 -10930.5556 1562.0616 0.0000 0.0000 1777.1862 -7584.5261 299.2040 -9361.7123 -7533.2980 306.7198 789.6338 893.2233 30649.1516 143.0033 199.0638
ENERGY: 600000 0.1674 6.6356 0.4469 0.0000 -10879.2817 1442.5047 0.0000 0.0000 1827.7592 -7601.7680 307.7184 -9429.5272 -7549.9238 304.6475 -343.4192 -263.8765 30810.0344 -81.9743 -33.4433
ENERGY: 900000 0.9944 6.8311 0.6977 0.0000 -10890.0862 1498.1855 0.0000 0.0000 1791.3577 -7592.0199 301.5899 -9383.3775 -7579.7790 302.3250 251.5829 248.0506 30664.0304 -176.4584 -134.8151
ENERGY: 1200000 1.3153 7.8084 1.0826 0.0000 -10785.7453 1440.3757 0.0000 0.0000 1810.3775 -7524.7859 304.7920 -9335.1634 -7580.1484 301.6061 -25.6280 1.8224 30851.6051 -86.1308 -46.2637
ENERGY: 1500000 0.6246 8.5999 1.2794 0.0000 -10747.1837 1455.1694 0.0000 0.0000 1799.7024 -7481.8080 302.9948 -9281.5104 -7567.6223 301.9580 331.5925 401.8280 30688.7923 -71.7977 -27.7634
TCL: Running FEP window   2: Lambda1 0.95   Lambda2 0.8999999999999999 [dLambda -0.050000000000000044]
TCL: Setting parameter firsttimestep to 0
TCL: Setting parameter alchLambda to 0.95
Info: NONBONDED TABLE R-SQUARED SPACING: 0.0625
Info: NONBONDED TABLE SIZE: 705 POINTS
TCL: Setting parameter alchLambda2 to 0.8999999999999999
Info: NONBONDED TABLE R-SQUARED SPACING: 0.0625
Info: NONBONDED TABLE SIZE: 705 POINTS
TCL: Running for 1500000 steps
ETITLE: TS BOND ANGLE DIHED IMPRP ELECT VDW BOUNDARY MISC KINETIC TOTAL TEMP POTENTIAL TOTALAVG TEMPAVG PRESSURE GPRESSURE VOLUME PRESSAVG GPRESSAVG
ENERGY: 0 0.6246 8.5999 1.2794 0.0000 -10747.1969 1455.6747 0.0000 0.0000 1798.7963 -7482.2220 302.8423 -9281.0183 -7482.2220 302.8423 319.7697 399.0332 30688.7923 319.7697 399.0332
ENERGY: 300000 0.3410 6.4492 0.9569 0.0000 -10851.3845 1394.0333 0.0000 0.0000 1792.6942 -7656.9099 301.8149 -9449.6042 -7577.6410 300.9150 -592.3783 -497.8062 30339.0635 -227.2892 -147.7639
ENERGY: 600000 4.5965 5.0135 1.8897 0.0000 -10857.6446 1412.9853 0.0000 0.0000 1794.0443 -7639.1153 302.0422 -9433.1596 -7597.8641 301.6572 -644.8395 -547.5648 30419.7139 -296.3648 -217.8080
ENERGY: 900000 0.5224 7.1446 0.4343 0.0000 -10825.9524 1463.8238 0.0000 0.0000 1738.9562 -7615.0711 292.7677 -9354.0273 -7590.7459 300.7771 197.8496 208.4390 30456.9040 -165.5652 -89.1024
ENERGY: 1200000 0.9494 5.7181 2.9334 0.0000 -10901.0239 1523.1626 0.0000 0.0000 1792.3486 -7575.9117 301.7567 -9368.2603 -7581.8503 302.0783 523.4958 608.9637 30477.6159 -123.6748 -58.3851
ENERGY: 1500000 0.3526 7.6432 0.5891 0.0000 -10699.1052 1367.8575 0.0000 0.0000 1773.2997 -7549.3632 298.5497 -9322.6629 -7582.9979 301.0476 -549.7065 -464.0739 30867.8896 -101.8602 -39.9091
TCL: Running FEP window   3: Lambda1 0.8999999999999999 Lambda2 0.8499999999999999 [dLambda -0.050000000000000044]
TCL: Setting parameter firsttimestep to 0
TCL: Setting parameter alchLambda to 0.8999999999999999
Info: NONBONDED TABLE R-SQUARED SPACING: 0.0625
Info: NONBONDED TABLE SIZE: 705 POINTS
TCL: Setting parameter alchLambda2 to 0.8499999999999999
Info: NONBONDED TABLE R-SQUARED SPACING: 0.0625
Info: NONBONDED TABLE SIZE: 705 POINTS
TCL: Running for 1500000 steps
ETITLE: TS BOND ANGLE DIHED IMPRP ELECT VDW BOUNDARY MISC KINETIC TOTAL TEMP POTENTIAL TOTALAVG TEMPAVG PRESSURE GPRESSURE VOLUME PRESSAVG GPRESSAVG
ENERGY: 0 0.3526 7.6432 0.5891 0.0000 -10699.1193 1368.1327 0.0000 0.0000 1772.3965 -7550.0052 298.3976 -9322.4018 -7550.0052 298.3976 -553.6662 -468.7550 30867.8896 -553.6662 -468.7550
ENERGY: 300000 0.1481 5.9846 0.7975 0.0000 -10717.7402 1425.6794 0.0000 0.0000 1768.9615 -7516.1691 297.8193 -9285.1306 -7583.4322 297.6649 -86.6091 55.6082 30934.0029 -0.8225 89.7993
ENERGY: 600000 1.2494 4.2952 0.5792 0.0000 -10816.0677 1472.9430 0.0000 0.0000 1790.2744 -7546.7265 301.4075 -9337.0009 -7583.6616 296.9748 41.8775 57.1755 31090.9630 -61.9143 3.5842
ENERGY: 900000 0.2591 7.4132 0.3571 0.0000 -10790.0494 1413.1982 0.0000 0.0000 1804.8328 -7563.9890 303.8585 -9368.8218 -7577.0320 298.6498 -468.2500 -403.4402 31101.3513 -35.3179 36.9893
ENERGY: 1200000 1.1601 5.3044 1.0646 0.0000 -10828.4578 1435.1051 0.0000 0.0000 1749.5687 -7636.2549 294.5544 -9385.8236 -7573.8243 299.4071 -168.2768 -136.0511 30399.9924 -110.7097 -46.6247
ENERGY: 1500000 0.0295 6.4228 0.5673 0.0000 -10831.5235 1480.7027 0.0000 0.0000 1771.0551 -7572.7461 298.1718 -9343.8012 -7578.2094 299.4395 168.2945 185.3515 30868.0666 10.0247 68.6192
TCL: Running FEP window   4: Lambda1 0.8499999999999999 Lambda2 0.7999999999999998 [dLambda -0.050000000000000044]
TCL: Setting parameter firsttimestep to 0
TCL: Setting parameter alchLambda to 0.8499999999999999
Info: NONBONDED TABLE R-SQUARED SPACING: 0.0625
Info: NONBONDED TABLE SIZE: 705 POINTS
TCL: Setting parameter alchLambda2 to 0.7999999999999998
Info: NONBONDED TABLE R-SQUARED SPACING: 0.0625
Info: NONBONDED TABLE SIZE: 705 POINTS
TCL: Running for 1500000 steps
ETITLE: TS BOND ANGLE DIHED IMPRP ELECT VDW BOUNDARY MISC KINETIC TOTAL TEMP POTENTIAL TOTALAVG TEMPAVG PRESSURE GPRESSURE VOLUME PRESSAVG GPRESSAVG
ENERGY: 0 0.0295 6.4228 0.5673 0.0000 -10831.5073 1480.4556 0.0000 0.0000 1770.1373 -7573.8948 298.0173 -9344.0321 -7573.8948 298.0173 95.1329 170.9189 30868.0666 95.1329 170.9189
ENERGY: 300000 1.1527 6.5235 0.2547 0.0000 -10848.6997 1537.6175 0.0000 0.0000 1772.5800 -7530.5712 298.4285 -9303.1512 -7573.6186 298.6388 848.0994 863.3779 31034.9299 -29.9649 9.6467
ENERGY: 600000 1.0962 7.1997 0.7339 0.0000 -10815.0427 1416.6117 0.0000 0.0000 1850.7120 -7538.6892 311.5827 -9389.4012 -7573.0528 299.7984 -398.0620 -289.6973 30436.8540 -48.9602 7.0728
ENERGY: 900000 0.6944 7.5970 0.3022 0.0000 -10891.1939 1492.9360 0.0000 0.0000 1760.6549 -7629.0094 296.4208 -9389.6643 -7574.0730 299.8026 580.8444 593.8788 30229.1512 75.2217 131.9468
ENERGY: 1200000 0.6340 5.4278 0.6153 0.0000 -10810.7542 1445.4673 0.0000 0.0000 1770.5173 -7588.0926 298.0812 -9358.6099 -7570.8478 299.4333 70.7281 119.9028 30610.5789 50.7950 102.9467
ENERGY: 1500000 1.3764 4.7484 1.8210 0.0000 -10788.6026 1442.8202 0.0000 0.0000 1855.4243 -7482.4123 312.3760 -9337.8366 -7563.1471 300.6465 67.6321 79.0002 30678.0187 37.5614 88.5318
TCL: Running FEP window   5: Lambda1 0.7999999999999998 Lambda2 0.7499999999999998 [dLambda -0.050000000000000044]
TCL: Setting parameter firsttimestep to 0
TCL: Setting parameter alchLambda to 0.7999999999999998
Info: NONBONDED TABLE R-SQUARED SPACING: 0.0625
Info: NONBONDED TABLE SIZE: 705 POINTS
TCL: Setting parameter alchLambda2 to 0.7499999999999998
Info: NONBONDED TABLE R-SQUARED SPACING: 0.0625
Info: NONBONDED TABLE SIZE: 705 POINTS
TCL: Running for 1500000 steps
ETITLE: TS BOND ANGLE DIHED IMPRP ELECT VDW BOUNDARY MISC KINETIC TOTAL TEMP POTENTIAL TOTALAVG TEMPAVG PRESSURE GPRESSURE VOLUME PRESSAVG GPRESSAVG
ENERGY: 0 1.3764 4.7484 1.8210 0.0000 -10788.5758 1443.0300 0.0000 0.0000 1854.5571 -7483.0428 312.2300 -9337.5999 -7483.0428 312.2300 -20.2911 72.2599 30678.0187 -20.2911 72.2599
ENERGY: 300000 1.1997 5.5926 1.0655 0.0000 -10890.8226 1483.7248 0.0000 0.0000 1804.8448 -7594.3952 303.8606 -9399.2399 -7561.8616 300.6995 287.9571 311.1309 30393.8916 -222.5957 -162.3464
ENERGY: 600000 1.8430 5.8453 0.4709 0.0000 -10682.0453 1394.2973 0.0000 0.0000 1733.0118 -7546.5769 291.7669 -9279.5887 -7563.3394 300.9657 -360.0235 -347.8479 31043.2048 -124.8874 -74.5194
ENERGY: 900000 0.9709 5.9674 1.2211 0.0000 -10901.4172 1454.1641 0.0000 0.0000 1759.0960 -7679.9977 296.1584 -9439.0936 -7561.9828 301.2645 -76.5347 8.7495 30217.4223 -161.2468 -101.7100
ENERGY: 1200000 0.2226 4.5385 0.8520 0.0000 -10932.0653 1517.0079 0.0000 0.0000 1788.6635 -7620.7808 301.1363 -9409.4443 -7554.6310 302.1458 258.4858 292.8724 30568.7305 -196.6411 -142.3748
ENERGY: 1500000 3.2412 4.1923 1.3229 0.0000 -10874.9286 1450.0507 0.0000 0.0000 1738.6708 -7677.4507 292.7196 -9416.1215 -7572.5735 300.9180 10.4061 -1.9563 30208.9015 -148.9886 -100.1248
TCL: Running FEP window   6: Lambda1 0.7499999999999998 Lambda2 0.6999999999999997 [dLambda -0.050000000000000044]
TCL: Setting parameter firsttimestep to 0
TCL: Setting parameter alchLambda to 0.7499999999999998
Info: NONBONDED TABLE R-SQUARED SPACING: 0.0625
Info: NONBONDED TABLE SIZE: 705 POINTS
TCL: Setting parameter alchLambda2 to 0.6999999999999997
Info: NONBONDED TABLE R-SQUARED SPACING: 0.0625
Info: NONBONDED TABLE SIZE: 705 POINTS
TCL: Running for 1500000 steps
ETITLE: TS BOND ANGLE DIHED IMPRP ELECT VDW BOUNDARY MISC KINETIC TOTAL TEMP POTENTIAL TOTALAVG TEMPAVG PRESSURE GPRESSURE VOLUME PRESSAVG GPRESSAVG
ENERGY: 0 3.2412 4.1923 1.3229 0.0000 -10874.9339 1449.5312 0.0000 0.0000 1737.8049 -7678.8415 292.5738 -9416.6464 -7678.8415 292.5738 -102.8834 -16.7809 30208.9015 -102.8834 -16.7809
ENERGY: 300000 1.7029 9.7889 0.4921 0.0000 -10608.0733 1340.1950 0.0000 0.0000 1754.9731 -7500.9214 295.4642 -9255.8945 -7549.5649 298.2833 -839.7476 -764.1227 31212.3961 -112.7639 -44.1488
ENERGY: 600000 0.7413 4.1491 0.2819 0.0000 -10844.4514 1425.1063 0.0000 0.0000 1812.0405 -7602.1322 305.0720 -9414.1728 -7563.8295 300.9984 -275.2751 -231.5547 30525.1059 -99.3342 -33.3993
ENERGY: 900000 2.8397 6.2334 1.7582 0.0000 -10815.6651 1445.3824 0.0000 0.0000 1820.5089 -7538.9425 306.4977 -9359.4514 -7574.8458 301.1797 -2.8182 44.5061 30662.1219 -122.3916 -56.7467
ENERGY: 1200000 1.1396 8.8628 0.4188 0.0000 -10716.3031 1339.2321 0.0000 0.0000 1794.8348 -7571.8150 302.1753 -9366.6498 -7582.3271 300.4190 -1024.1952 -982.5698 31091.7523 -159.2530 -98.2217
ENERGY: 1500000 0.4962 5.9134 0.5119 0.0000 -10751.4264 1452.3499 0.0000 0.0000 1828.8482 -7463.3067 307.9017 -9292.1549 -7567.7439 301.7049 -10.6455 73.3537 31031.3542 -81.1687 -17.9951
TCL: Running FEP window   7: Lambda1 0.6999999999999997 Lambda2 0.6499999999999997 [dLambda -0.050000000000000044]
TCL: Setting parameter firsttimestep to 0
TCL: Setting parameter alchLambda to 0.6999999999999997
Info: NONBONDED TABLE R-SQUARED SPACING: 0.0625
Info: NONBONDED TABLE SIZE: 705 POINTS
TCL: Setting parameter alchLambda2 to 0.6499999999999997
Info: NONBONDED TABLE R-SQUARED SPACING: 0.0625
Info: NONBONDED TABLE SIZE: 705 POINTS
TCL: Running for 1500000 steps
ETITLE: TS BOND ANGLE DIHED IMPRP ELECT VDW BOUNDARY MISC KINETIC TOTAL TEMP POTENTIAL TOTALAVG TEMPAVG PRESSURE GPRESSURE VOLUME PRESSAVG GPRESSAVG
ENERGY: 0 0.4962 5.9134 0.5119 0.0000 -10751.4510 1451.7721 0.0000 0.0000 1827.9893 -7464.7681 307.7571 -9292.7574 -7464.7681 307.7571 -8.2452 58.6088 31031.3542 -8.2452 58.6088
ENERGY: 300000 1.3724 5.3455 0.2565 0.0000 -10843.9383 1430.9925 0.0000 0.0000 1786.4113 -7619.5600 300.7571 -9405.9713 -7554.9205 302.9676 -276.1883 -164.0146 30609.4725 -415.2318 -325.3680
ENERGY: 600000 1.7827 5.0100 2.1264 0.0000 -10883.7632 1494.3041 0.0000 0.0000 1745.8559 -7634.6843 293.9293 -9380.5402 -7537.0703 304.4333 206.3167 296.5828 30592.3945 -223.8029 -138.4331
ENERGY: 900000 0.9963 2.7686 0.8270 0.0000 -10737.2711 1457.7555 0.0000 0.0000 1841.4234 -7433.5002 310.0189 -9274.9236 -7531.0519 304.7887 93.0347 163.9962 31253.7296 -44.4755 24.7948
ENERGY: 1200000 0.7900 3.4646 0.1712 0.0000 -10958.2158 1547.8632 0.0000 0.0000 1751.7557 -7654.1710 294.9226 -9405.9267 -7535.4790 304.1745 756.3601 787.7532 30421.0983 41.9113 110.8432
ENERGY: 1500000 0.8129 5.4679 1.6451 0.0000 -10726.8172 1385.2616 0.0000 0.0000 1777.2816 -7556.3481 299.2201 -9333.6297 -7544.9068 303.4069 -498.1054 -500.7534 30817.7311 -42.7825 19.5833
TCL: Running FEP window   8: Lambda1 0.6499999999999997 Lambda2 0.5999999999999996 [dLambda -0.050000000000000044]
TCL: Setting parameter firsttimestep to 0
TCL: Setting parameter alchLambda to 0.6499999999999997
Info: NONBONDED TABLE R-SQUARED SPACING: 0.0625
Info: NONBONDED TABLE SIZE: 705 POINTS
TCL: Setting parameter alchLambda2 to 0.5999999999999996
Info: NONBONDED TABLE R-SQUARED SPACING: 0.0625
Info: NONBONDED TABLE SIZE: 705 POINTS
TCL: Running for 1500000 steps
ETITLE: TS BOND ANGLE DIHED IMPRP ELECT VDW BOUNDARY MISC KINETIC TOTAL TEMP POTENTIAL TOTALAVG TEMPAVG PRESSURE GPRESSURE VOLUME PRESSAVG GPRESSAVG
ENERGY: 0 0.8129 5.4679 1.6451 0.0000 -10726.8303 1385.0152 0.0000 0.0000 1776.3967 -7557.4924 299.0711 -9333.8892 -7557.4924 299.0711 -582.8436 -509.1295 30817.7311 -582.8436 -509.1295
ENERGY: 300000 1.0758 5.4009 0.9214 0.0000 -10738.3018 1388.5860 0.0000 0.0000 1739.2543 -7603.0635 292.8179 -9342.3178 -7576.2052 298.4577 -551.9916 -509.6159 30911.9352 -258.9357 -186.0903
ENERGY: 600000 1.1100 3.8698 0.7792 0.0000 -10796.7378 1434.6201 0.0000 0.0000 1811.3774 -7544.9812 304.9604 -9356.3586 -7584.9257 299.1588 -25.0154 54.9777 30552.5984 -197.7805 -132.3721
ENERGY: 900000 2.9735 4.8753 1.4674 0.0000 -10867.6092 1450.7630 0.0000 0.0000 1774.6868 -7632.8431 298.7832 -9407.5299 -7583.9572 298.7537 -108.7585 -39.0107 30344.5123 -107.9860 -46.0489
ENERGY: 1200000 1.6023 6.0573 0.6369 0.0000 -10856.7232 1430.4837 0.0000 0.0000 1811.7035 -7606.2395 305.0153 -9417.9430 -7586.2177 299.3388 -189.0047 -109.8210 30411.5000 -95.7313 -34.0946
ENERGY: 1500000 0.3690 5.5129 0.1969 0.0000 -10904.3387 1505.3113 0.0000 0.0000 1785.4723 -7607.4763 300.5990 -9392.9487 -7593.2672 299.9309 184.1088 289.7883 30857.0022 -77.7168 -20.6362
TCL: Running FEP window   9: Lambda1 0.5999999999999996 Lambda2 0.5499999999999996 [dLambda -0.050000000000000044]
TCL: Setting parameter firsttimestep to 0
TCL: Setting parameter alchLambda to 0.5999999999999996
Info: NONBONDED TABLE R-SQUARED SPACING: 0.0625
Info: NONBONDED TABLE SIZE: 705 POINTS
TCL: Setting parameter alchLambda2 to 0.5499999999999996
Info: NONBONDED TABLE R-SQUARED SPACING: 0.0625
Info: NONBONDED TABLE SIZE: 705 POINTS
TCL: Running for 1500000 steps
ETITLE: TS BOND ANGLE DIHED IMPRP ELECT VDW BOUNDARY MISC KINETIC TOTAL TEMP POTENTIAL TOTALAVG TEMPAVG PRESSURE GPRESSURE VOLUME PRESSAVG GPRESSAVG
ENERGY: 0 0.3690 5.5129 0.1969 0.0000 -10904.3377 1505.6500 0.0000 0.0000 1784.5735 -7608.0355 300.4477 -9392.6090 -7608.0355 300.4477 196.5433 286.3652 30857.0022 196.5433 286.3652
ENERGY: 300000 2.3310 6.2294 1.5180 0.0000 -10894.4537 1439.4055 0.0000 0.0000 1800.3405 -7644.6293 303.1022 -9444.9698 -7626.5742 301.2610 -543.5450 -489.7100 31109.9602 -141.0246 -71.9396
ENERGY: 600000 0.4497 4.1357 0.2610 0.0000 -10835.4931 1471.5629 0.0000 0.0000 1754.8290 -7604.2549 295.4400 -9359.0838 -7595.5944 299.0671 125.7659 87.6107 30895.8122 -78.8774 -30.7166
ENERGY: 900000 0.4229 4.8642 1.7285 0.0000 -10836.8865 1464.9306 0.0000 0.0000 1745.7628 -7619.1774 293.9136 -9364.9402 -7598.9129 297.7981 60.8423 92.0387 30847.1589 -145.4827 -96.5241
ENERGY: 1200000 2.6128 7.7674 0.3612 0.0000 -10937.9110 1497.2798 0.0000 0.0000 1768.1463 -7661.7435 297.6821 -9429.8898 -7606.3753 297.6269 25.2601 148.3360 30583.0848 -117.9466 -65.2612
ENERGY: 1500000 0.1075 6.0444 0.8897 0.0000 -10775.9981 1404.3305 0.0000 0.0000 1826.0219 -7538.6039 307.4259 -9364.6258 -7603.3450 298.7107 -567.5199 -448.3242 30689.5101 -144.2676 -88.7982
TCL: Running FEP window  10: Lambda1 0.5499999999999996 Lambda2 0.4999999999999996 [dLambda -0.04999999999999999]
TCL: Setting parameter firsttimestep to 0
TCL: Setting parameter alchLambda to 0.5499999999999996
Info: NONBONDED TABLE R-SQUARED SPACING: 0.0625
Info: NONBONDED TABLE SIZE: 705 POINTS
TCL: Setting parameter alchLambda2 to 0.4999999999999996
Info: NONBONDED TABLE R-SQUARED SPACING: 0.0625
Info: NONBONDED TABLE SIZE: 705 POINTS
TCL: Running for 1500000 steps
ETITLE: TS BOND ANGLE DIHED IMPRP ELECT VDW BOUNDARY MISC KINETIC TOTAL TEMP POTENTIAL TOTALAVG TEMPAVG PRESSURE GPRESSURE VOLUME PRESSAVG GPRESSAVG
ENERGY: 0 0.1075 6.0444 0.8897 0.0000 -10776.0023 1404.7484 0.0000 0.0000 1825.1390 -7539.0733 307.2772 -9364.2123 -7539.0733 307.2772 -537.3659 -448.1979 30689.5101 -537.3659 -448.1979
ENERGY: 300000 0.5743 5.3378 0.7911 0.0000 -10783.4231 1456.7760 0.0000 0.0000 1820.7747 -7499.1693 306.5425 -9319.9440 -7557.2295 300.5153 179.8123 230.6672 30658.0369 49.8121 131.9498
ENERGY: 600000 1.2251 7.8227 0.3717 0.0000 -10815.9546 1437.4134 0.0000 0.0000 1773.6217 -7595.4999 298.6039 -9369.1217 -7555.5102 301.1523 -485.7847 -377.2440 31207.0539 -35.8466 49.2121
ENERGY: 900000 0.6180 5.7756 2.1827 0.0000 -10889.0177 1463.0642 0.0000 0.0000 1715.3287 -7702.0485 288.7898 -9417.3772 -7576.4890 299.0842 -471.6794 -336.8047 31101.4750 -109.1376 -17.1962
ENERGY: 1200000 0.7643 6.3921 1.8782 0.0000 -10815.2767 1469.6564 0.0000 0.0000 1762.8622 -7573.7235 296.7924 -9336.5857 -7575.3956 299.1741 287.7160 332.0318 30394.9432 -129.7525 -48.9151
ENERGY: 1500000 0.2484 5.1898 0.9367 0.0000 -10901.3758 1557.5449 0.0000 0.0000 1800.6531 -7536.8028 303.1549 -9337.4559 -7577.1682 299.7509 806.7140 911.4626 30706.0508 -64.7171 17.0861
TCL: Running FEP window  11: Lambda1 0.4999999999999996 Lambda2 0.4499999999999996 [dLambda -0.04999999999999999]
TCL: Setting parameter firsttimestep to 0
TCL: Setting parameter alchLambda to 0.4999999999999996
Info: NONBONDED TABLE R-SQUARED SPACING: 0.0625
Info: NONBONDED TABLE SIZE: 705 POINTS
TCL: Setting parameter alchLambda2 to 0.4499999999999996
Info: NONBONDED TABLE R-SQUARED SPACING: 0.0625
Info: NONBONDED TABLE SIZE: 705 POINTS
TCL: Running for 1500000 steps
ETITLE: TS BOND ANGLE DIHED IMPRP ELECT VDW BOUNDARY MISC KINETIC TOTAL TEMP POTENTIAL TOTALAVG TEMPAVG PRESSURE GPRESSURE VOLUME PRESSAVG GPRESSAVG
ENERGY: 0 0.2484 5.1898 0.9367 0.0000 -10901.3964 1557.6516 0.0000 0.0000 1799.8009 -7537.5689 303.0114 -9337.3699 -7537.5689 303.0114 832.6926 911.4510 30706.0508 832.6926 911.4510
ENERGY: 300000 1.0043 6.4709 0.4724 0.0000 -10871.3665 1515.7081 0.0000 0.0000 1774.3576 -7573.3532 298.7278 -9347.7108 -7538.8356 303.3578 637.4623 653.0637 30411.0096 392.6009 453.0349
ENERGY: 600000 0.2409 7.3140 1.9115 0.0000 -10800.3387 1465.5075 0.0000 0.0000 1813.5664 -7511.7983 305.3289 -9325.3647 -7550.3206 301.7834 1.1997 50.0690 31083.6271 -24.0628 50.2570
ENERGY: 900000 0.6144 6.7924 0.5887 0.0000 -10984.2680 1480.0421 0.0000 0.0000 1868.0267 -7628.2038 314.4978 -9496.2305 -7558.9505 302.7793 219.6547 296.7644 29962.3795 63.3378 139.6746
ENERGY: 1200000 0.2471 6.5401 2.1429 0.0000 -10715.1017 1377.9403 0.0000 0.0000 1818.3070 -7509.9244 306.1270 -9328.2314 -7555.7026 303.1905 -384.0224 -277.9148 30620.7605 -8.4602 61.1145
ENERGY: 1500000 0.8651 7.8962 0.5646 0.0000 -10762.0300 1411.1024 0.0000 0.0000 1800.9077 -7540.6939 303.1977 -9341.6016 -7565.2503 302.5354 -444.7460 -403.2178 30952.9275 -3.8152 57.8046
TCL: Running FEP window  12: Lambda1 0.4499999999999996 Lambda2 0.39999999999999963 [dLambda -0.04999999999999999]
TCL: Setting parameter firsttimestep to 0
TCL: Setting parameter alchLambda to 0.4499999999999996
Info: NONBONDED TABLE R-SQUARED SPACING: 0.0625
Info: NONBONDED TABLE SIZE: 705 POINTS
TCL: Setting parameter alchLambda2 to 0.39999999999999963
Info: NONBONDED TABLE R-SQUARED SPACING: 0.0625
Info: NONBONDED TABLE SIZE: 705 POINTS
TCL: Running for 1500000 steps
ETITLE: TS BOND ANGLE DIHED IMPRP ELECT VDW BOUNDARY MISC KINETIC TOTAL TEMP POTENTIAL TOTALAVG TEMPAVG PRESSURE GPRESSURE VOLUME PRESSAVG GPRESSAVG
ENERGY: 0 0.8651 7.8962 0.5646 0.0000 -10762.0279 1411.0819 0.0000 0.0000 1800.0324 -7541.5876 303.0503 -9341.6200 -7541.5876 303.0503 -485.7298 -405.0196 30952.9275 -485.7298 -405.0196
ENERGY: 300000 2.2579 6.1281 1.7472 0.0000 -10698.7868 1347.5237 0.0000 0.0000 1757.4735 -7583.6564 295.8852 -9341.1299 -7581.7386 299.3246 -644.6393 -547.8209 30392.1801 -194.3605 -112.4372
ENERGY: 600000 0.2997 6.8171 2.3934 0.0000 -10812.8977 1450.4593 0.0000 0.0000 1706.2313 -7646.6970 287.2582 -9352.9283 -7583.8642 298.1809 160.6711 184.2381 30168.9066 -170.7973 -103.2428
ENERGY: 900000 1.6492 4.2903 0.2819 0.0000 -10804.6315 1476.7675 0.0000 0.0000 1787.7148 -7533.9278 300.9766 -9321.6425 -7578.3455 298.6424 6.7057 91.6743 30866.5807 -87.1237 -11.0681
ENERGY: 1200000 0.3621 8.5164 0.2109 0.0000 -10852.1363 1434.1909 0.0000 0.0000 1779.9386 -7628.9174 299.6674 -9408.8560 -7589.3983 298.4066 -422.5951 -329.2711 30689.1980 -92.6638 -16.4488
ENERGY: 1500000 2.2993 4.9565 0.7524 0.0000 -10855.9700 1494.5220 0.0000 0.0000 1742.1084 -7611.3314 293.2984 -9353.4398 -7592.0908 298.3477 454.2963 420.8435 30277.2201 -71.8457 -7.5488
TCL: Running FEP window  13: Lambda1 0.39999999999999963 Lambda2 0.34999999999999964 [dLambda -0.04999999999999999]
TCL: Setting parameter firsttimestep to 0
TCL: Setting parameter alchLambda to 0.39999999999999963
Info: NONBONDED TABLE R-SQUARED SPACING: 0.0625
Info: NONBONDED TABLE SIZE: 705 POINTS
TCL: Setting parameter alchLambda2 to 0.34999999999999964
Info: NONBONDED TABLE R-SQUARED SPACING: 0.0625
Info: NONBONDED TABLE SIZE: 705 POINTS
TCL: Running for 1500000 steps
ETITLE: TS BOND ANGLE DIHED IMPRP ELECT VDW BOUNDARY MISC KINETIC TOTAL TEMP POTENTIAL TOTALAVG TEMPAVG PRESSURE GPRESSURE VOLUME PRESSAVG GPRESSAVG
ENERGY: 0 2.2993 4.9565 0.7524 0.0000 -10855.9690 1494.8887 0.0000 0.0000 1741.2541 -7611.8180 293.1545 -9353.0721 -7611.8180 293.1545 334.2751 416.2569 30277.2201 334.2751 416.2569
ENERGY: 300000 0.2470 6.8634 0.7721 0.0000 -10842.6162 1445.0387 0.0000 0.0000 1810.6993 -7578.9958 304.8462 -9389.6951 -7591.1859 300.3097 83.1579 187.8203 30357.7786 90.5449 171.9764
ENERGY: 600000 0.6218 7.6775 0.4595 0.0000 -10688.0902 1354.0694 0.0000 0.0000 1769.2550 -7556.0071 297.8687 -9325.2621 -7585.6002 298.7689 -707.0404 -659.1982 30878.9173 7.1045 85.1613
ENERGY: 900000 0.0875 3.9421 0.3589 0.0000 -10855.3967 1463.3097 0.0000 0.0000 1754.5883 -7633.1103 295.3995 -9387.6986 -7596.4293 298.7231 -274.9538 -196.7221 31017.6758 -23.4190 53.1593
ENERGY: 1200000 1.3749 8.1737 0.5685 0.0000 -10821.0916 1490.3927 0.0000 0.0000 1817.0855 -7503.4963 305.9214 -9320.5818 -7591.0025 299.3644 144.1692 208.2277 30945.1988 -45.3364 34.1307
ENERGY: 1500000 0.3825 7.2336 0.6294 0.0000 -10675.3124 1370.7618 0.0000 0.0000 1776.1084 -7520.1967 299.0226 -9296.3052 -7590.0170 298.8717 -544.8957 -438.0041 30656.4629 -34.6249 42.8596
TCL: Running FEP window  14: Lambda1 0.34999999999999964 Lambda2 0.29999999999999966 [dLambda -0.04999999999999999]
TCL: Setting parameter firsttimestep to 0
TCL: Setting parameter alchLambda to 0.34999999999999964
Info: NONBONDED TABLE R-SQUARED SPACING: 0.0625
Info: NONBONDED TABLE SIZE: 705 POINTS
TCL: Setting parameter alchLambda2 to 0.29999999999999966
Info: NONBONDED TABLE R-SQUARED SPACING: 0.0625
Info: NONBONDED TABLE SIZE: 705 POINTS
TCL: Running for 1500000 steps
ETITLE: TS BOND ANGLE DIHED IMPRP ELECT VDW BOUNDARY MISC KINETIC TOTAL TEMP POTENTIAL TOTALAVG TEMPAVG PRESSURE GPRESSURE VOLUME PRESSAVG GPRESSAVG
ENERGY: 0 0.3825 7.2336 0.6294 0.0000 -10675.3132 1370.8236 0.0000 0.0000 1775.2355 -7521.0088 298.8756 -9296.2442 -7521.0088 298.8756 -538.8746 -441.3881 30656.4629 -538.8746 -441.3881
ENERGY: 300000 0.2493 6.2086 1.3359 0.0000 -10816.2516 1470.5871 0.0000 0.0000 1743.8276 -7594.0431 293.5878 -9337.8707 -7553.7267 297.1088 118.4605 160.7059 30846.7096 -478.5811 -441.4325
ENERGY: 600000 0.9943 6.2848 0.4658 0.0000 -11038.8030 1587.2321 0.0000 0.0000 1753.6911 -7690.1349 295.2484 -9443.8260 -7577.5514 296.9220 543.6868 631.4011 30868.8724 -203.1980 -166.5390
ENERGY: 900000 1.8177 3.9219 0.4146 0.0000 -10768.1752 1419.4881 0.0000 0.0000 1799.9894 -7542.5436 303.0431 -9342.5330 -7575.9703 298.6774 -15.5354 3.4949 30521.7571 -153.0817 -108.6844
ENERGY: 1200000 0.4095 5.1310 0.3015 0.0000 -10842.7592 1464.1041 0.0000 0.0000 1778.7341 -7594.0789 299.4646 -9372.8129 -7573.0194 299.1699 340.5357 340.2991 30405.0576 -104.8936 -56.5755
ENERGY: 1500000 0.7792 6.5014 0.6104 0.0000 -10964.4800 1489.0311 0.0000 0.0000 1867.6148 -7599.9432 314.4284 -9467.5580 -7576.4002 299.7716 147.5604 173.5677 30306.5465 -15.8858 27.0073
TCL: Running FEP window  15: Lambda1 0.29999999999999966 Lambda2 0.24999999999999967 [dLambda -0.04999999999999999]
TCL: Setting parameter firsttimestep to 0
TCL: Setting parameter alchLambda to 0.29999999999999966
Info: NONBONDED TABLE R-SQUARED SPACING: 0.0625
Info: NONBONDED TABLE SIZE: 705 POINTS
TCL: Setting parameter alchLambda2 to 0.24999999999999967
Info: NONBONDED TABLE R-SQUARED SPACING: 0.0625
Info: NONBONDED TABLE SIZE: 705 POINTS
TCL: Running for 1500000 steps
ETITLE: TS BOND ANGLE DIHED IMPRP ELECT VDW BOUNDARY MISC KINETIC TOTAL TEMP POTENTIAL TOTALAVG TEMPAVG PRESSURE GPRESSURE VOLUME PRESSAVG GPRESSAVG
ENERGY: 0 0.7792 6.5014 0.6104 0.0000 -10964.4802 1488.9611 0.0000 0.0000 1866.7594 -7600.8687 314.2844 -9467.6281 -7600.8687 314.2844 78.3965 169.2254 30306.5465 78.3965 169.2254
ENERGY: 300000 0.6512 9.2710 0.4040 0.0000 -10867.1342 1483.5564 0.0000 0.0000 1770.4178 -7602.8338 298.0645 -9373.2516 -7610.3976 302.3926 -137.6872 -56.3648 30872.2309 296.8160 377.9647
ENERGY: 600000 0.8506 6.2853 1.3870 0.0000 -10649.6086 1357.1194 0.0000 0.0000 1820.6563 -7463.3100 306.5226 -9283.9663 -7577.1594 301.4615 -710.8783 -622.3498 30834.3529 13.6660 85.8778
ENERGY: 900000 1.4546 6.4973 0.5699 0.0000 -10871.0181 1536.7549 0.0000 0.0000 1794.8623 -7530.8792 302.1799 -9325.7415 -7558.6806 301.0595 547.2202 617.9180 30961.7223 49.7473 121.8101
ENERGY: 1200000 0.4761 5.1741 1.7185 0.0000 -10774.8597 1384.6822 0.0000 0.0000 1805.9310 -7576.8778 304.0434 -9382.8088 -7564.2876 301.1526 -317.2114 -207.0363 30153.8120 87.7884 169.6172
ENERGY: 1500000 3.3099 6.8668 0.5770 0.0000 -10793.4549 1481.6582 0.0000 0.0000 1812.4740 -7488.5689 305.1450 -9301.0430 -7558.6145 301.6501 204.8090 268.9409 30950.5435 81.8327 163.1940
TCL: Running FEP window  16: Lambda1 0.24999999999999967 Lambda2 0.19999999999999968 [dLambda -0.04999999999999999]
TCL: Setting parameter firsttimestep to 0
TCL: Setting parameter alchLambda to 0.24999999999999967
Info: NONBONDED TABLE R-SQUARED SPACING: 0.0625
Info: NONBONDED TABLE SIZE: 705 POINTS
TCL: Setting parameter alchLambda2 to 0.19999999999999968
Info: NONBONDED TABLE R-SQUARED SPACING: 0.0625
Info: NONBONDED TABLE SIZE: 705 POINTS
TCL: Running for 1500000 steps
ETITLE: TS BOND ANGLE DIHED IMPRP ELECT VDW BOUNDARY MISC KINETIC TOTAL TEMP POTENTIAL TOTALAVG TEMPAVG PRESSURE GPRESSURE VOLUME PRESSAVG GPRESSAVG
ENERGY: 0 3.3099 6.8668 0.5770 0.0000 -10793.4552 1481.5281 0.0000 0.0000 1811.5439 -7489.6295 304.9884 -9301.1734 -7489.6295 304.9884 179.3836 263.9238 30950.5435 179.3836 263.9238
ENERGY: 300000 1.2546 8.0870 0.6732 0.0000 -10791.4177 1416.9691 0.0000 0.0000 1756.4370 -7607.9969 295.7107 -9364.4338 -7567.1919 300.0471 -442.1545 -390.5663 30816.9175 -17.2768 35.7622
ENERGY: 600000 0.8693 7.6633 0.4286 0.0000 -10717.5323 1400.9261 0.0000 0.0000 1748.0461 -7559.5990 294.2980 -9307.6451 -7552.9896 302.0853 -382.3453 -336.2356 30862.3232 -183.7554 -129.4762
ENERGY: 900000 0.8219 6.5248 0.8307 0.0000 -10698.5927 1382.6145 0.0000 0.0000 1774.3284 -7533.4724 298.7229 -9307.8008 -7552.5447 302.2956 -492.7419 -378.0939 30493.5616 -104.1549 -49.1637
ENERGY: 1200000 0.6055 8.3901 1.2212 0.0000 -10950.4056 1547.5272 0.0000 0.0000 1752.1535 -7640.5080 294.9896 -9392.6616 -7560.5081 301.9999 380.7771 540.4595 30730.4718 -87.9001 -23.0015
ENERGY: 1500000 1.0354 7.9715 0.5587 0.0000 -10929.0696 1521.7809 0.0000 0.0000 1787.9966 -7609.7264 301.0240 -9397.7231 -7564.0188 302.2850 669.6511 753.4579 29958.4206 -7.1776 58.1717
TCL: Running FEP window  17: Lambda1 0.19999999999999968 Lambda2 0.1499999999999997 [dLambda -0.04999999999999999]
TCL: Setting parameter firsttimestep to 0
TCL: Setting parameter alchLambda to 0.19999999999999968
Info: NONBONDED TABLE R-SQUARED SPACING: 0.0625
Info: NONBONDED TABLE SIZE: 705 POINTS
TCL: Setting parameter alchLambda2 to 0.1499999999999997
Info: NONBONDED TABLE R-SQUARED SPACING: 0.0625
Info: NONBONDED TABLE SIZE: 705 POINTS
TCL: Running for 1500000 steps
ETITLE: TS BOND ANGLE DIHED IMPRP ELECT VDW BOUNDARY MISC KINETIC TOTAL TEMP POTENTIAL TOTALAVG TEMPAVG PRESSURE GPRESSURE VOLUME PRESSAVG GPRESSAVG
ENERGY: 0 1.0354 7.9715 0.5587 0.0000 -10929.0681 1522.1212 0.0000 0.0000 1787.0917 -7610.2897 300.8717 -9397.3813 -7610.2897 300.8717 678.4411 754.4322 29958.4206 678.4411 754.4322
ENERGY: 300000 1.4605 4.8814 2.1185 0.0000 -10779.1430 1477.3857 0.0000 0.0000 1767.8980 -7525.3987 297.6403 -9293.2967 -7576.5256 295.5105 212.3925 271.7431 30575.6074 208.3940 294.0654
ENERGY: 600000 0.1163 8.9531 0.6783 0.0000 -10827.6886 1453.8931 0.0000 0.0000 1839.2760 -7524.7720 309.6573 -9364.0479 -7554.7333 299.6578 -106.3872 -26.2071 30926.9556 66.5607 129.6194
ENERGY: 900000 0.5032 4.2147 0.2620 0.0000 -10758.1776 1405.5381 0.0000 0.0000 1748.3125 -7599.3472 294.3429 -9347.6596 -7553.3891 299.6132 -289.5495 -261.9228 30623.1283 -14.5660 34.2101
ENERGY: 1200000 2.0574 9.3331 0.6767 0.0000 -10714.8117 1395.1039 0.0000 0.0000 1755.8772 -7551.7634 295.6165 -9307.6406 -7560.5573 298.8000 -575.7459 -527.3843 31078.9870 -76.4469 -27.1073
ENERGY: 1500000 0.7501 7.0320 0.7952 0.0000 -10660.6437 1344.8150 0.0000 0.0000 1825.7244 -7481.5271 307.3758 -9307.2515 -7560.7068 298.8713 -918.7029 -817.2254 31162.4111 -102.7846 -45.9426
TCL: Running FEP window  18: Lambda1 0.1499999999999997 Lambda2 0.09999999999999969 [dLambda -0.05 ]
TCL: Setting parameter firsttimestep to 0
TCL: Setting parameter alchLambda to 0.1499999999999997
Info: NONBONDED TABLE R-SQUARED SPACING: 0.0625
Info: NONBONDED TABLE SIZE: 705 POINTS
TCL: Setting parameter alchLambda2 to 0.09999999999999969
Info: NONBONDED TABLE R-SQUARED SPACING: 0.0625
Info: NONBONDED TABLE SIZE: 705 POINTS
TCL: Running for 1500000 steps
ETITLE: TS BOND ANGLE DIHED IMPRP ELECT VDW BOUNDARY MISC KINETIC TOTAL TEMP POTENTIAL TOTALAVG TEMPAVG PRESSURE GPRESSURE VOLUME PRESSAVG GPRESSAVG
ENERGY: 0 0.7501 7.0320 0.7952 0.0000 -10660.6434 1345.0967 0.0000 0.0000 1824.8755 -7482.0939 307.2329 -9306.9694 -7482.0939 307.2329 -909.3528 -818.6655 31162.4111 -909.3528 -818.6655
ENERGY: 300000 7.8650 3.7107 0.4026 0.0000 -10754.0502 1401.2284 0.0000 0.0000 1789.2149 -7551.6286 301.2291 -9340.8435 -7557.0147 302.6811 -513.2757 -429.3835 30614.9536 -546.2478 -468.5020
ENERGY: 600000 0.5278 3.2271 0.3824 0.0000 -10706.3534 1378.1431 0.0000 0.0000 1762.8497 -7561.2232 296.7903 -9324.0729 -7566.6959 302.0590 -654.9833 -597.1278 30809.4182 -450.5168 -392.7093
ENERGY: 900000 1.2053 4.8670 0.2095 0.0000 -10831.9762 1459.9694 0.0000 0.0000 1762.8026 -7602.9224 296.7824 -9365.7250 -7587.6391 300.1282 -263.1973 -154.1302 30806.7305 -465.9938 -390.3845
ENERGY: 1200000 0.5703 6.4805 0.9015 0.0000 -10791.1935 1388.2782 0.0000 0.0000 1798.5871 -7596.3758 302.8070 -9394.9629 -7590.0809 300.3800 -450.6810 -408.5837 30348.8021 -427.1918 -357.1034
ENERGY: 1500000 0.2061 14.8614 0.9768 0.0000 -10698.0455 1346.9387 0.0000 0.0000 1771.0857 -7563.9768 298.1769 -9335.0625 -7587.2603 300.2028 -876.4693 -829.5672 30867.2796 -421.0712 -357.0763
TCL: Running FEP window  19: Lambda1 0.09999999999999969 Lambda2 0.049999999999999684 [dLambda -0.05 ]
TCL: Setting parameter firsttimestep to 0
TCL: Setting parameter alchLambda to 0.09999999999999969
Info: NONBONDED TABLE R-SQUARED SPACING: 0.0625
Info: NONBONDED TABLE SIZE: 705 POINTS
TCL: Setting parameter alchLambda2 to 0.049999999999999684
Info: NONBONDED TABLE R-SQUARED SPACING: 0.0625
Info: NONBONDED TABLE SIZE: 705 POINTS
TCL: Running for 1500000 steps
ETITLE: TS BOND ANGLE DIHED IMPRP ELECT VDW BOUNDARY MISC KINETIC TOTAL TEMP POTENTIAL TOTALAVG TEMPAVG PRESSURE GPRESSURE VOLUME PRESSAVG GPRESSAVG
ENERGY: 0 0.2061 14.8614 0.9768 0.0000 -10698.0468 1346.8424 0.0000 0.0000 1770.1762 -7564.9839 298.0238 -9335.1601 -7564.9839 298.0238 -923.5533 -833.2366 30867.2796 -923.5533 -833.2366
ENERGY: 300000 1.3546 5.7391 0.2344 0.0000 -10952.8760 1497.6437 0.0000 0.0000 1748.5520 -7699.3522 294.3832 -9447.9042 -7608.3257 297.4171 28.0841 34.1970 30489.4961 -423.4901 -372.7689
ENERGY: 600000 1.0197 8.9837 0.5729 0.0000 -10773.1928 1468.9839 0.0000 0.0000 1786.9585 -7506.6740 300.8493 -9293.6326 -7587.6095 298.2154 140.7860 118.3037 30961.1358 -217.6451 -169.4076
ENERGY: 900000 1.2785 6.0152 0.3491 0.0000 -10816.5618 1446.2434 0.0000 0.0000 1786.7487 -7575.9270 300.8139 -9362.6758 -7590.0846 298.3662 -261.5697 -155.4234 30904.5785 -222.9413 -159.0604
ENERGY: 1200000 3.0214 4.2594 0.3581 0.0000 -10775.9297 1420.5385 0.0000 0.0000 1753.9545 -7593.7978 295.2928 -9347.7523 -7581.1033 297.9984 -277.2659 -186.3074 30264.6077 -263.7663 -197.2077
ENERGY: 1500000 0.2627 2.9753 2.0923 0.0000 -10941.7118 1510.4945 0.0000 0.0000 1778.5008 -7647.3863 299.4253 -9425.8870 -7587.6386 298.7738 113.1184 199.6474 30611.3258 -186.8759 -121.8487
TCL: Running FEP window  20: Lambda1 0.049999999999999684 Lambda2 0.0    [dLambda -0.049999999999999684]
TCL: Setting parameter firsttimestep to 0
TCL: Setting parameter alchLambda to 0.049999999999999684
Info: NONBONDED TABLE R-SQUARED SPACING: 0.0625
Info: NONBONDED TABLE SIZE: 705 POINTS
TCL: Setting parameter alchLambda2 to 0.0
Info: NONBONDED TABLE R-SQUARED SPACING: 0.0625
Info: NONBONDED TABLE SIZE: 705 POINTS
TCL: Running for 1500000 steps
ETITLE: TS BOND ANGLE DIHED IMPRP ELECT VDW BOUNDARY MISC KINETIC TOTAL TEMP POTENTIAL TOTALAVG TEMPAVG PRESSURE GPRESSURE VOLUME PRESSAVG GPRESSAVG
ENERGY: 0 0.2627 2.9753 2.0923 0.0000 -10941.7110 1510.3155 0.0000 0.0000 1777.5918 -7648.4734 299.2723 -9426.0652 -7648.4734 299.2723 113.6766 198.1142 30611.3258 113.6766 198.1142
ENERGY: 300000 3.3941 5.6578 1.7740 0.0000 -10739.3168 1450.7768 0.0000 0.0000 1797.6350 -7480.0790 302.6467 -9277.7140 -7557.6450 302.3977 274.9127 307.3528 30938.7419 135.4311 193.7935
ENERGY: 600000 0.7209 7.2956 2.5147 0.0000 -10815.2205 1454.3475 0.0000 0.0000 1769.9131 -7580.4286 297.9795 -9350.3417 -7545.8637 302.5026 -144.1737 -74.9877 30834.3336 13.3022 77.8337
ENERGY: 900000 2.6239 5.9142 2.6531 0.0000 -10826.2385 1442.6222 0.0000 0.0000 1771.3933 -7601.0318 298.2287 -9372.4250 -7564.4029 302.1628 -91.7302 -70.4918 30674.1895 -40.1477 12.7848
ENERGY: 1200000 0.0300 4.3223 1.0193 0.0000 -10883.4679 1530.1581 0.0000 0.0000 1703.4405 -7644.4976 286.7883 -9347.9382 -7571.8429 299.7315 323.5789 356.0229 30796.3960 66.7439 118.9738
ENERGY: 1500000 1.3042 4.6203 1.0379 0.0000 -10833.6802 1435.2120 0.0000 0.0000 1795.8250 -7595.6808 302.3420 -9391.5058 -7571.1319 299.8118 -248.6073 -155.3549 30607.9746 3.6115 64.6860
TCL: Exiting due to exit command.
