Info: SIMULATION PARAMETERS:
Info: TIMESTEP               2
Info: NUMBER OF STEPS        0
Info: STEPS PER CYCLE        10
Info: PERIODIC CELL BASIS 1  31.1109 0 0
Info: PERIODIC CELL BASIS 2  0 31.4673 0
Info: PERIODIC CELL BASIS 3  0 0 31.6743
Info: PERIODIC CELL CENTER   0 0 0
Info: WRAPPING WATERS AROUND PERIODIC BOUNDARIES ON OUTPUT.
Info: WRAPPING ALL CLUSTERS AROUND PERIODIC BOUNDARIES ON OUTPUT.
Info: FIRST LDB TIMESTEP     50
Info: LAST LDB TIMESTEP     -1
Info: HOM BACKGROUND SCALING 1
Info: PME BACKGROUND SCALING 1
Info: MIN ATOMS PER PATCH    40
Info: EMPTY PATCH LOAD       40 ATOMS
Info: VELOCITY FILE          mobley_3761215_equil.vel
Info: CENTER OF MASS MOVING INITIALLY? NO
Info: DIELECTRIC             1
Info: EXCLUDE                SCALED ONE-FOUR
Info: 1-4 ELECTROSTATICS SCALED BY 0.833333
Info: MODIFIED 1-4 VDW PARAMETERS WILL BE USED
Info: DCD FILENAME           mobley_3761215_prod.dcd
Info: DCD FREQUENCY          100000
Info: DCD FIRST STEP         100000
Info: DCD FILE WILL CONTAIN UNIT CELL DATA
Info: XST FILENAME           mobley_3761215_prod.xst
Info: XST FREQUENCY          100000
Info: NO VELOCITY DCD OUTPUT
Info: NO FORCE DCD OUTPUT
Info: OUTPUT FILENAME        mobley_3761215_prod
Info: BINARY OUTPUT FILES WILL BE USED
Info: RESTART FILENAME       mobley_3761215_prod.restart
Info: RESTART FREQUENCY      100000
Info: BINARY RESTART FILES WILL BE USED
Info: CUTOFF                 9
Info: PAIRLIST DISTANCE      11
Info: PAIRLIST SHRINK RATE   0.01
Info: PAIRLIST GROW RATE     0.01
Info: PAIRLIST TRIGGER       0.3
Info: PAIRLISTS PER CYCLE    2
Info: PAIRLISTS ENABLED
Info: MARGIN                 2
Info: HYDROGEN GROUP CUTOFF  2.5
Info: PATCH DIMENSION        15.5
Info: ENERGY OUTPUT STEPS    100000
Info: ENERGY EVALUATION STEPS    100000
Info: OUTPUT ENERGY PRECISION 4
Info: CROSSTERM ENERGY INCLUDED IN DIHEDRAL
Info: TIMING OUTPUT STEPS    1000000
Info: PRESSURE OUTPUT STEPS  100000
Info: ALCHEMICAL FEP ON
Info: FEP CURRENT LAMBDA VALUE     0
Info: FEP COMPARISON LAMBDA VALUE  0.05
Info: FEP INTRA-ALCHEMICAL NON-BONDED INTERACTIONS WILL BE RETAINED
Info: FEP INTRA-ALCHEMICAL BONDED INTERACTIONS WILL BE RETAINED
Info: FEP VDW SHIFTING COEFFICIENT 5
Info: FEP ELEC. ACTIVE FOR ANNIHILATED PARTICLES BETWEEN LAMBDA = 0 AND LAMBDA = 0.5
Info: FEP ELEC. ACTIVE FOR EXNIHILATED PARTICLES BETWEEN LAMBDA = 0.5 AND LAMBDA = 1
Info: FEP VDW ACTIVE FOR ANNIHILATED PARTICLES BETWEEN LAMBDA = 0 AND LAMBDA = 1
Info: FEP VDW ACTIVE FOR EXNIHILATED PARTICLES BETWEEN LAMBDA = 0 AND LAMBDA = 1
Info: FEP BOND ACTIVE FOR ANNIHILATED PARTICLES BETWEEN LAMBDA = 1 AND LAMBDA = 1
Info: FEP BOND ACTIVE FOR EXNIHILATED PARTICLES BETWEEN LAMBDA = 0 AND LAMBDA = 0
Info: LANGEVIN DYNAMICS ACTIVE
Info: LANGEVIN TEMPERATURE   300
Info: LANGEVIN USING BBK INTEGRATOR
Info: LANGEVIN DAMPING COEFFICIENT IS 1 INVERSE PS
Info: LANGEVIN DYNAMICS APPLIED TO HYDROGENS
Info: LANGEVIN PISTON PRESSURE CONTROL ACTIVE
Info:        TARGET PRESSURE IS 1.01325 BAR
Info:     OSCILLATION PERIOD IS 50 FS
Info:             DECAY TIME IS 25 FS
Info:     PISTON TEMPERATURE IS 300 K
Info:       PRESSURE CONTROL IS GROUP-BASED
Info:    INITIAL STRAIN RATE IS -0.000255689 -0.000255689 -0.000255689
Info:       CELL FLUCTUATION IS ISOTROPIC
Info: PARTICLE MESH EWALD (PME) ACTIVE
Info: PME TOLERANCE               1e-06
Info: PME EWALD COEFFICIENT       0.348832
Info: PME INTERPOLATION ORDER     4
Info: PME GRID DIMENSIONS         32 32 32
Info: PME MAXIMUM GRID SPACING    1
Info: PME CALCULATION WILL BE PERFORMED ON GPU
Info: FULL ELECTROSTATIC EVALUATION FREQUENCY      2
Info: USING VERLET I (r-RESPA) MTS SCHEME.
Info: C1 SPLITTING OF LONG RANGE ELECTROSTATICS
Info: PLACING ATOMS IN PATCHES BY HYDROGEN GROUPS
Info: RIGID BONDS TO HYDROGEN : ALL
Info:         ERROR TOLERANCE : 1e-08
Info:          MAX ITERATIONS : 100
Info: RIGID WATER USING SETTLE ALGORITHM
Info: RANDOM NUMBER SEED     1743488762
Info: USE HYDROGEN BONDS?    NO
Info: Using AMBER format force field!
Info: AMBER PARM FILE        mobley_3761215.prmtop
Info: COORDINATE PDB         mobley_3761215.pdb
Info: Exclusions will be read from PARM file!
Info: SCNB (VDW SCALING)     2
Info: USING ARITHMETIC MEAN TO COMBINE L-J SIGMA PARAMETERS
Info: BINARY COORDINATES     mobley_3761215_equil.coor
Info: SUMMARY OF PARAMETERS:
Info: 5 BONDS
Info: 4 ANGLES
Info:   4 HARMONIC
Info:   0 COSINE-BASED
Info: 2 DIHEDRAL
Info: 0 IMPROPER
Info: 0 CROSSTERM
Info: 0 VDW
Info: 15 VDW_PAIRS
Info: 0 NBTHOLE_PAIRS
Info: To read alchdata from file: mobley_3761215.pdb
Info: To read alchflag data from column: 5
Info: STRUCTURE SUMMARY:
Info: 2954 ATOMS
Info: 2953 BONDS
Info: 12 ANGLES
Info: 18 DIHEDRALS
Info: 0 IMPROPERS
Info: 0 CROSSTERMS
Info: 2974 EXCLUSIONS
Info: 2949 RIGID BONDS
Info: ALCH: 0 ATOMS TO DISAPPEAR IN FINAL STATE
Info: ALCH: 8 ATOMS TO APPEAR IN FINAL STATE
Info: 5913 DEGREES OF FREEDOM
Info: 987 HYDROGEN GROUPS
Info: 4 ATOMS IN LARGEST HYDROGEN GROUP
Info: 987 MIGRATION GROUPS
Info: 4 ATOMS IN LARGEST MIGRATION GROUP
Info: TOTAL MASS = 17825.1 amu
Info: TOTAL CHARGE = 0.000100031 e
Info: MASS DENSITY = 0.95458 g/cm^3
Info: ATOM DENSITY = 0.0952646 atoms/A^3
Info: ADDED 0 IMPLICIT EXCLUSIONS
Info: NONBONDED TABLE R-SQUARED SPACING: 0.0625
Info: NONBONDED TABLE SIZE: 705 POINTS
Info: REDUCING NUMBER OF PATCHES TO IMPROVE LOAD BALANCE
Info: REMOVING COM VELOCITY 0.0888497 0.14042 -0.223653
Info: Use 3D box decompostion in PME FFT.
Info: Updated CUDA force table with 4096 elements.
Info: Updated CUDA LJ table with 5 x 5 elements.
Info: Found 11 unique exclusion lists needing 16 bytes
TCL: Running for 1500000 steps
ETITLE: TS BOND ANGLE DIHED IMPRP ELECT VDW BOUNDARY MISC KINETIC TOTAL TEMP POTENTIAL TOTALAVG TEMPAVG PRESSURE GPRESSURE VOLUME PRESSAVG GPRESSAVG
ENERGY: 0 0.3416 4.3684 2.2521 0.0000 -10672.7743 1437.0045 0.0000 0.0000 1770.6572 -7458.1505 301.3818 -9228.8077 -7458.1505 301.3818 -183.9263 -103.4119 31008.3760 -183.9263 -103.4119
ENERGY: 300000 0.9617 0.9165 2.2497 0.0000 -10649.7160 1407.4466 0.0000 0.0000 1797.4663 -7440.6752 305.9449 -9238.1415 -7463.2666 302.7035 -306.7728 -180.1517 30490.2705 -79.6152 -5.8215
ENERGY: 600000 1.3244 1.1049 2.2515 0.0000 -10705.8411 1370.4752 0.0000 0.0000 1747.6986 -7582.9865 297.4740 -9330.6851 -7475.6130 301.5901 -689.2802 -614.6623 30168.4948 -140.1247 -76.2644
ENERGY: 900000 2.9025 1.7360 2.2525 0.0000 -10689.7531 1427.2154 0.0000 0.0000 1758.8427 -7496.8038 299.3709 -9255.6466 -7489.9421 300.8148 -263.7835 -141.7317 30469.1470 -191.1489 -115.8813
ENERGY: 1200000 1.1079 0.8982 2.2503 0.0000 -10933.5095 1603.8582 0.0000 0.0000 1739.4726 -7585.9222 296.0739 -9325.3948 -7496.1980 301.7171 1527.3369 1584.1588 29628.2685 -72.8807 1.7190
ENERGY: 1500000 1.6465 2.9681 2.2489 0.0000 -10712.7963 1392.6527 0.0000 0.0000 1787.6640 -7525.6160 304.2765 -9313.2800 -7502.9409 301.4726 -394.3213 -328.1063 30056.3765 -59.8531 13.2294
TCL: Running FEP window   2: Lambda1 0.05   Lambda2 0.1    [dLambda 0.05  ]
TCL: Setting parameter firsttimestep to 0
TCL: Setting parameter alchLambda to 0.05
Info: NONBONDED TABLE R-SQUARED SPACING: 0.0625
Info: NONBONDED TABLE SIZE: 705 POINTS
TCL: Setting parameter alchLambda2 to 0.1
Info: NONBONDED TABLE R-SQUARED SPACING: 0.0625
Info: NONBONDED TABLE SIZE: 705 POINTS
TCL: Running for 1500000 steps
ETITLE: TS BOND ANGLE DIHED IMPRP ELECT VDW BOUNDARY MISC KINETIC TOTAL TEMP POTENTIAL TOTALAVG TEMPAVG PRESSURE GPRESSURE VOLUME PRESSAVG GPRESSAVG
ENERGY: 0 1.6465 2.9681 2.2489 0.0000 -10712.7966 1397.1690 0.0000 0.0000 1786.8029 -7521.9612 304.1299 -9308.7641 -7521.9612 304.1299 -396.7357 -318.2328 30056.3765 -396.7357 -318.2328
ENERGY: 300000 2.5121 3.5128 2.2465 0.0000 -10605.4423 1369.7074 0.0000 0.0000 1739.8113 -7487.6521 296.1315 -9227.4634 -7473.3196 302.8658 -712.4430 -614.8207 30797.9089 -436.9422 -399.0194
ENERGY: 600000 1.6514 4.5012 2.2501 0.0000 -10705.8374 1469.4979 0.0000 0.0000 1768.3522 -7459.5846 300.9894 -9227.9368 -7483.3525 302.4457 180.2911 306.7602 30497.5377 -325.4926 -263.7237
ENERGY: 900000 1.7342 2.6706 2.2496 0.0000 -10841.5933 1518.8262 0.0000 0.0000 1761.8399 -7554.2728 299.8810 -9316.1127 -7502.7722 302.4571 555.3633 601.4956 30136.8747 -272.9063 -217.2543
ENERGY: 1200000 0.3869 2.0240 2.2500 0.0000 -10685.4493 1393.5895 0.0000 0.0000 1764.8874 -7522.3114 300.3997 -9287.1989 -7500.1852 302.5534 -661.9077 -690.0533 30806.7942 -296.0972 -245.0055
ENERGY: 1500000 1.6246 2.4111 2.2490 0.0000 -10845.3593 1514.0979 0.0000 0.0000 1757.7347 -7567.2420 299.1822 -9324.9767 -7511.9707 301.5747 193.2063 241.3058 30566.7652 -279.7272 -231.2120
TCL: Running FEP window   3: Lambda1 0.1    Lambda2 0.15000000000000002 [dLambda 0.05000000000000002]
TCL: Setting parameter firsttimestep to 0
TCL: Setting parameter alchLambda to 0.1
Info: NONBONDED TABLE R-SQUARED SPACING: 0.0625
Info: NONBONDED TABLE SIZE: 705 POINTS
TCL: Setting parameter alchLambda2 to 0.15000000000000002
Info: NONBONDED TABLE R-SQUARED SPACING: 0.0625
Info: NONBONDED TABLE SIZE: 705 POINTS
TCL: Running for 1500000 steps
ETITLE: TS BOND ANGLE DIHED IMPRP ELECT VDW BOUNDARY MISC KINETIC TOTAL TEMP POTENTIAL TOTALAVG TEMPAVG PRESSURE GPRESSURE VOLUME PRESSAVG GPRESSAVG
ENERGY: 0 1.6246 2.4111 2.2490 0.0000 -10845.3602 1514.3443 0.0000 0.0000 1756.8244 -7567.9067 299.0273 -9324.7311 -7567.9067 299.0273 168.9716 243.1093 30566.7652 168.9716 243.1093
ENERGY: 300000 0.3150 2.1027 2.2484 0.0000 -10850.6243 1528.6822 0.0000 0.0000 1736.9859 -7580.2902 295.6506 -9317.2761 -7517.5488 302.1037 633.9686 715.0474 30298.0751 563.3408 630.0919
ENERGY: 600000 0.5535 1.4340 2.2503 0.0000 -10641.0664 1382.3274 0.0000 0.0000 1768.3376 -7486.1636 300.9870 -9254.5012 -7522.6711 298.2381 -323.1325 -240.3655 30103.1716 341.0291 411.8671
ENERGY: 900000 0.3898 4.5377 2.2502 0.0000 -10747.8648 1514.8303 0.0000 0.0000 1757.3209 -7468.5360 299.1118 -9225.8568 -7512.5079 299.9569 708.6852 763.3083 30328.8126 256.3831 325.0387
ENERGY: 1200000 0.8282 4.0072 2.2488 0.0000 -10888.5828 1501.8690 0.0000 0.0000 1747.9929 -7631.6367 297.5241 -9379.6296 -7527.3278 299.6693 64.4151 180.3638 30176.1988 247.8742 316.3959
ENERGY: 1500000 2.5648 4.6516 2.2492 0.0000 -10781.2989 1424.2954 0.0000 0.0000 1780.4516 -7567.0863 303.0489 -9347.5380 -7534.5357 298.8868 -440.0156 -411.5655 30529.1905 285.7000 350.5555
TCL: Running FEP window   4: Lambda1 0.15000000000000002 Lambda2 0.2    [dLambda 0.04999999999999999]
TCL: Setting parameter firsttimestep to 0
TCL: Setting parameter alchLambda to 0.15000000000000002
Info: NONBONDED TABLE R-SQUARED SPACING: 0.0625
Info: NONBONDED TABLE SIZE: 705 POINTS
TCL: Setting parameter alchLambda2 to 0.2
Info: NONBONDED TABLE R-SQUARED SPACING: 0.0625
Info: NONBONDED TABLE SIZE: 705 POINTS
TCL: Running for 1500000 steps
ETITLE: TS BOND ANGLE DIHED IMPRP ELECT VDW BOUNDARY MISC KINETIC TOTAL TEMP POTENTIAL TOTALAVG TEMPAVG PRESSURE GPRESSURE VOLUME PRESSAVG GPRESSAVG
ENERGY: 0 2.5648 4.6516 2.2492 0.0000 -10781.2992 1424.5823 0.0000 0.0000 1779.6116 -7567.6397 302.9059 -9347.2513 -7567.6397 302.9059 -490.6136 -406.2428 30529.1905 -490.6136 -406.2428
ENERGY: 300000 0.7929 4.0430 2.2515 0.0000 -10848.1506 1496.7275 0.0000 0.0000 1701.6376 -7642.6980 289.6340 -9344.3357 -7567.3733 295.8316 337.8710 412.0931 29896.9612 -214.3559 -149.4749
ENERGY: 600000 2.1472 3.7814 2.2513 0.0000 -10653.3428 1427.5739 0.0000 0.0000 1731.3493 -7486.2395 294.6912 -9217.5888 -7546.9842 296.6504 -165.4138 -102.6130 30575.0359 -136.9918 -83.2206
ENERGY: 900000 2.4368 3.1319 2.2460 0.0000 -10753.9985 1427.5268 0.0000 0.0000 1776.3170 -7542.3402 302.3451 -9318.6571 -7536.9308 297.1935 -417.0577 -348.2147 30601.0117 -137.1402 -85.0069
ENERGY: 1200000 0.3559 3.0668 2.2491 0.0000 -10720.2398 1392.0906 0.0000 0.0000 1744.3101 -7578.1673 296.8973 -9322.4774 -7534.7128 297.6019 -718.8000 -645.5820 30419.8681 -173.2990 -122.2787
ENERGY: 1500000 1.1420 5.7745 2.2481 0.0000 -10768.8870 1465.7637 0.0000 0.0000 1737.7488 -7556.2100 295.7805 -9293.9587 -7527.8422 298.8024 -77.2683 -28.3273 30647.8939 -86.0119 -30.9933
TCL: Running FEP window   5: Lambda1 0.2    Lambda2 0.25   [dLambda 0.04999999999999999]
TCL: Setting parameter firsttimestep to 0
TCL: Setting parameter alchLambda to 0.2
Info: NONBONDED TABLE R-SQUARED SPACING: 0.0625
Info: NONBONDED TABLE SIZE: 705 POINTS
TCL: Setting parameter alchLambda2 to 0.25
Info: NONBONDED TABLE R-SQUARED SPACING: 0.0625
Info: NONBONDED TABLE SIZE: 705 POINTS
TCL: Running for 1500000 steps
ETITLE: TS BOND ANGLE DIHED IMPRP ELECT VDW BOUNDARY MISC KINETIC TOTAL TEMP POTENTIAL TOTALAVG TEMPAVG PRESSURE GPRESSURE VOLUME PRESSAVG GPRESSAVG
ENERGY: 0 1.1420 5.7745 2.2481 0.0000 -10768.8873 1465.7153 0.0000 0.0000 1736.8819 -7557.1256 295.6329 -9294.0075 -7557.1256 295.6329 -83.0017 -24.3936 30647.8939 -83.0017 -24.3936
ENERGY: 300000 0.8853 1.2315 2.2490 0.0000 -10746.2173 1500.7184 0.0000 0.0000 1760.8761 -7480.2570 299.7170 -9241.1332 -7464.7758 299.4051 525.2201 605.1580 30427.2585 -211.1453 -148.6045
ENERGY: 600000 3.5542 1.2865 2.2484 0.0000 -10796.5936 1505.2993 0.0000 0.0000 1762.5911 -7521.6142 300.0089 -9284.2053 -7502.1018 299.7717 480.8616 527.6501 30247.5354 -63.8960 -5.7119
ENERGY: 900000 0.9674 3.4901 2.2533 0.0000 -10710.7200 1458.4653 0.0000 0.0000 1705.9727 -7539.5712 290.3719 -9245.5439 -7496.9232 300.3523 89.7842 163.0409 30478.1659 -4.8953 60.3987
ENERGY: 1200000 0.8061 3.6367 2.2529 0.0000 -10809.2728 1477.5000 0.0000 0.0000 1801.8511 -7523.2261 306.6913 -9325.0772 -7493.6214 300.8824 323.9002 297.2968 30153.4253 111.1719 170.8091
ENERGY: 1500000 0.9199 3.7908 2.2521 0.0000 -10680.3707 1417.1205 0.0000 0.0000 1796.3105 -7459.9768 305.7482 -9256.2874 -7481.9890 301.9439 -431.8976 -299.2503 30943.4846 86.4004 159.1029
TCL: Running FEP window   6: Lambda1 0.25   Lambda2 0.3    [dLambda 0.04999999999999999]
TCL: Setting parameter firsttimestep to 0
TCL: Setting parameter alchLambda to 0.25
Info: NONBONDED TABLE R-SQUARED SPACING: 0.0625
Info: NONBONDED TABLE SIZE: 705 POINTS
TCL: Setting parameter alchLambda2 to 0.3
Info: NONBONDED TABLE R-SQUARED SPACING: 0.0625
Info: NONBONDED TABLE SIZE: 705 POINTS
TCL: Running for 1500000 steps
ETITLE: TS BOND ANGLE DIHED IMPRP ELECT VDW BOUNDARY MISC KINETIC TOTAL TEMP POTENTIAL TOTALAVG TEMPAVG PRESSURE GPRESSURE VOLUME PRESSAVG GPRESSAVG
ENERGY: 0 0.9199 3.7908 2.2521 0.0000 -10680.3723 1417.2704 0.0000 0.0000 1795.3985 -7460.7407 305.5930 -9256.1391 -7460.7407 305.5930 -368.5387 -294.0535 30943.4846 -368.5387 -294.0535
ENERGY: 300000 1.0806 4.3116 2.2517 0.0000 -10632.2861 1400.0179 0.0000 0.0000 1767.8512 -7456.7731 300.9042 -9224.6243 -7496.3305 299.7308 -113.1740 -36.1717 29965.3917 -135.6035 -49.1993
ENERGY: 600000 0.4153 2.9375 2.2479 0.0000 -10718.1110 1491.4359 0.0000 0.0000 1801.0110 -7420.0634 306.5483 -9221.0744 -7484.5499 300.8224 449.8819 524.9531 30368.0257 2.0937 80.5487
ENERGY: 900000 1.6423 3.2441 2.2532 0.0000 -10808.4635 1457.0573 0.0000 0.0000 1737.1139 -7607.1527 295.6724 -9344.2666 -7508.5103 300.3899 -474.7087 -358.0185 30730.5156 47.3466 114.5028
ENERGY: 1200000 0.9463 2.7707 2.2501 0.0000 -10687.6173 1382.1202 0.0000 0.0000 1719.3649 -7580.1651 292.6514 -9299.5300 -7522.6747 300.0114 -504.3504 -481.8385 30455.7103 -56.3682 5.5472
ENERGY: 1500000 1.9899 2.4829 2.2498 0.0000 -10867.9231 1511.6866 0.0000 0.0000 1854.9754 -7494.5386 315.7335 -9349.5140 -7523.0124 300.6026 287.0539 386.0981 30213.3759 -12.6121 56.3070
TCL: Running FEP window   7: Lambda1 0.3    Lambda2 0.35   [dLambda 0.04999999999999999]
TCL: Setting parameter firsttimestep to 0
TCL: Setting parameter alchLambda to 0.3
Info: NONBONDED TABLE R-SQUARED SPACING: 0.0625
Info: NONBONDED TABLE SIZE: 705 POINTS
TCL: Setting parameter alchLambda2 to 0.35
Info: NONBONDED TABLE R-SQUARED SPACING: 0.0625
Info: NONBONDED TABLE SIZE: 705 POINTS
TCL: Running for 1500000 steps
ETITLE: TS BOND ANGLE DIHED IMPRP ELECT VDW BOUNDARY MISC KINETIC TOTAL TEMP POTENTIAL TOTALAVG TEMPAVG PRESSURE GPRESSURE VOLUME PRESSAVG GPRESSAVG
ENERGY: 0 1.9899 2.4829 2.2498 0.0000 -10867.9229 1513.3719 0.0000 0.0000 1854.0846 -7493.7438 315.5819 -9347.8284 -7493.7438 315.5819 312.9588 399.9477 30213.3759 312.9588 399.9477
ENERGY: 300000 1.1930 4.8154 2.2571 0.0000 -10681.6231 1428.9731 0.0000 0.0000 1786.1133 -7458.2711 304.0126 -9244.3845 -7508.3614 300.9244 -90.4052 -15.6986 30714.9640 -112.2887 -25.6104
ENERGY: 600000 2.0634 2.7110 2.2498 0.0000 -10773.4038 1511.7872 0.0000 0.0000 1742.7873 -7511.8050 296.6381 -9254.5923 -7508.9758 300.6923 332.5364 392.4737 30796.1114 -40.5767 36.9357
ENERGY: 900000 1.8247 3.7595 2.2479 0.0000 -10654.0586 1428.5999 0.0000 0.0000 1735.4615 -7482.1650 295.3912 -9217.6265 -7506.1449 301.4763 -33.2743 -24.1662 30676.2340 -79.9564 -10.4358
ENERGY: 1200000 0.4723 3.4364 2.2502 0.0000 -10644.6453 1451.8896 0.0000 0.0000 1808.7002 -7377.8966 307.8570 -9186.5968 -7506.7326 301.9460 317.9916 328.7346 30832.4110 -90.1058 -23.1874
ENERGY: 1500000 3.6048 2.6807 2.2496 0.0000 -10642.9184 1410.6097 0.0000 0.0000 1777.8484 -7445.9252 302.6058 -9223.7736 -7501.6925 302.7653 -49.7240 -1.6812 30336.0928 -112.3171 -46.4820
TCL: Running FEP window   8: Lambda1 0.35   Lambda2 0.39999999999999997 [dLambda 0.04999999999999999]
TCL: Setting parameter firsttimestep to 0
TCL: Setting parameter alchLambda to 0.35
Info: NONBONDED TABLE R-SQUARED SPACING: 0.0625
Info: NONBONDED TABLE SIZE: 705 POINTS
TCL: Setting parameter alchLambda2 to 0.39999999999999997
Info: NONBONDED TABLE R-SQUARED SPACING: 0.0625
Info: NONBONDED TABLE SIZE: 705 POINTS
TCL: Running for 1500000 steps
ETITLE: TS BOND ANGLE DIHED IMPRP ELECT VDW BOUNDARY MISC KINETIC TOTAL TEMP POTENTIAL TOTALAVG TEMPAVG PRESSURE GPRESSURE VOLUME PRESSAVG GPRESSAVG
ENERGY: 0 3.6048 2.6807 2.2496 0.0000 -10642.9185 1410.3826 0.0000 0.0000 1776.9483 -7447.0526 302.4526 -9224.0009 -7447.0526 302.4526 -83.8653 1.7854 30336.0928 -83.8653 1.7854
ENERGY: 300000 0.9216 5.0631 2.2479 0.0000 -10825.2291 1477.1433 0.0000 0.0000 1722.4710 -7617.3822 293.1801 -9339.8532 -7521.5377 297.9443 -21.2488 44.7876 30426.9067 90.8051 140.9626
ENERGY: 600000 0.6597 1.9758 2.2489 0.0000 -10780.1566 1486.8149 0.0000 0.0000 1796.2113 -7492.2460 305.7313 -9288.4573 -7510.1252 299.1192 115.1807 279.7857 30506.4123 -227.0095 -167.9871
ENERGY: 900000 0.3095 3.6963 2.2485 0.0000 -10752.2703 1414.1379 0.0000 0.0000 1770.9213 -7560.9567 301.4267 -9331.8780 -7511.0023 300.5337 -435.1366 -341.0757 30524.6207 -201.7403 -144.6650
ENERGY: 1200000 0.4726 1.9787 2.2523 0.0000 -10663.8510 1387.3019 0.0000 0.0000 1773.4245 -7498.4209 301.8528 -9271.8454 -7510.5938 300.3289 -593.8168 -492.5917 30752.4929 -270.8072 -210.6506
ENERGY: 1500000 0.5526 3.0258 2.2489 0.0000 -10597.5876 1342.9572 0.0000 0.0000 1771.2498 -7477.5533 301.4826 -9248.8031 -7511.3095 300.3132 -763.4678 -643.6936 30450.9886 -239.6130 -171.6150
TCL: Running FEP window   9: Lambda1 0.39999999999999997 Lambda2 0.44999999999999996 [dLambda 0.04999999999999999]
TCL: Setting parameter firsttimestep to 0
TCL: Setting parameter alchLambda to 0.39999999999999997
Info: NONBONDED TABLE R-SQUARED SPACING: 0.0625
Info: NONBONDED TABLE SIZE: 705 POINTS
TCL: Setting parameter alchLambda2 to 0.44999999999999996
Info: NONBONDED TABLE R-SQUARED SPACING: 0.0625
Info: NONBONDED TABLE SIZE: 705 POINTS
TCL: Running for 1500000 steps
ETITLE: TS BOND ANGLE DIHED IMPRP ELECT VDW BOUNDARY MISC KINETIC TOTAL TEMP POTENTIAL TOTALAVG TEMPAVG PRESSURE GPRESSURE VOLUME PRESSAVG GPRESSAVG
ENERGY: 0 0.5526 3.0258 2.2489 0.0000 -10597.5873 1342.8920 0.0000 0.0000 1770.3763 -7478.4918 301.3340 -9248.8680 -7478.4918 301.3340 -727.0133 -638.7916 30450.9886 -727.0133 -638.7916
ENERGY: 300000 0.3219 2.3363 2.2476 0.0000 -10683.3182 1429.3700 0.0000 0.0000 1752.5189 -7496.5235 298.2945 -9249.0425 -7510.6453 301.6574 -130.5692 -59.8908 30372.1406 -62.6524 12.9611
ENERGY: 600000 2.7891 3.8897 2.2559 0.0000 -10499.8418 1336.8943 0.0000 0.0000 1803.6986 -7350.3143 307.0057 -9154.0129 -7483.4575 301.5747 -633.7831 -542.1582 30863.7693 -268.5575 -193.8400
ENERGY: 900000 2.5059 2.9912 2.2483 0.0000 -10821.9943 1460.1789 0.0000 0.0000 1788.8238 -7565.2460 304.4739 -9354.0699 -7485.9643 301.9161 64.6515 81.4727 30029.8291 -249.2061 -182.5268
ENERGY: 1200000 1.4051 1.4591 2.2501 0.0000 -10901.0677 1553.9753 0.0000 0.0000 1781.6692 -7560.3089 303.2561 -9341.9781 -7487.6224 302.6587 872.4652 901.6428 29953.4981 -181.4422 -120.8543
ENERGY: 1500000 1.9726 4.1877 2.2494 0.0000 -10569.8323 1339.9022 0.0000 0.0000 1771.9286 -7449.5919 301.5982 -9221.5204 -7494.8964 302.2005 -719.5864 -660.5223 30692.9796 -284.3378 -228.2052
TCL: Running FEP window  10: Lambda1 0.44999999999999996 Lambda2 0.49999999999999994 [dLambda 0.04999999999999999]
TCL: Setting parameter firsttimestep to 0
TCL: Setting parameter alchLambda to 0.44999999999999996
Info: NONBONDED TABLE R-SQUARED SPACING: 0.0625
Info: NONBONDED TABLE SIZE: 705 POINTS
TCL: Setting parameter alchLambda2 to 0.49999999999999994
Info: NONBONDED TABLE R-SQUARED SPACING: 0.0625
Info: NONBONDED TABLE SIZE: 705 POINTS
TCL: Running for 1500000 steps
ETITLE: TS BOND ANGLE DIHED IMPRP ELECT VDW BOUNDARY MISC KINETIC TOTAL TEMP POTENTIAL TOTALAVG TEMPAVG PRESSURE GPRESSURE VOLUME PRESSAVG GPRESSAVG
ENERGY: 0 1.9726 4.1877 2.2494 0.0000 -10569.8319 1340.1114 0.0000 0.0000 1771.0576 -7450.2533 301.4499 -9221.3109 -7450.2533 301.4499 -746.6468 -653.6962 30692.9796 -746.6468 -653.6962
ENERGY: 300000 0.3882 0.8644 2.2500 0.0000 -10564.4160 1355.3244 0.0000 0.0000 1773.7787 -7431.8104 301.9131 -9205.5891 -7441.3477 304.4313 -692.8179 -668.3266 31047.5052 -475.4630 -400.3891
ENERGY: 600000 0.6993 0.6610 2.2495 0.0000 -10770.6165 1474.6463 0.0000 0.0000 1763.5609 -7528.7995 300.1739 -9292.3604 -7484.3033 302.7554 104.2225 146.7892 30656.7941 -243.8707 -176.7115
ENERGY: 900000 0.0151 2.9282 2.2502 0.0000 -10762.6220 1484.8552 0.0000 0.0000 1746.4829 -7526.0904 297.2671 -9272.5734 -7497.5878 301.8904 333.4505 479.6256 30151.1367 -207.6897 -119.2136
ENERGY: 1200000 0.5822 2.0606 2.2502 0.0000 -10768.8590 1429.1066 0.0000 0.0000 1801.9280 -7532.9315 306.7043 -9334.8594 -7500.9828 302.0220 -572.9772 -448.7933 30930.7737 -271.7244 -190.2183
ENERGY: 1500000 2.3146 3.5845 2.2479 0.0000 -10678.2207 1415.8808 0.0000 0.0000 1703.2267 -7550.9662 289.9045 -9254.1928 -7506.7739 300.2652 -104.1124 -38.2313 30078.4680 -231.4092 -153.1626
TCL: Running FEP window  11: Lambda1 0.49999999999999994 Lambda2 0.5499999999999999 [dLambda 0.04999999999999999]
TCL: Setting parameter firsttimestep to 0
TCL: Setting parameter alchLambda to 0.49999999999999994
Info: NONBONDED TABLE R-SQUARED SPACING: 0.0625
Info: NONBONDED TABLE SIZE: 705 POINTS
TCL: Setting parameter alchLambda2 to 0.5499999999999999
Info: NONBONDED TABLE R-SQUARED SPACING: 0.0625
Info: NONBONDED TABLE SIZE: 705 POINTS
TCL: Running for 1500000 steps
ETITLE: TS BOND ANGLE DIHED IMPRP ELECT VDW BOUNDARY MISC KINETIC TOTAL TEMP POTENTIAL TOTALAVG TEMPAVG PRESSURE GPRESSURE VOLUME PRESSAVG GPRESSAVG
ENERGY: 0 2.3146 3.5845 2.2479 0.0000 -10678.2200 1416.8638 0.0000 0.0000 1702.3371 -7550.8720 289.7531 -9253.2091 -7550.8720 289.7531 -111.7624 -27.8557 30078.4680 -111.7624 -27.8557
ENERGY: 300000 0.7269 1.2967 2.2517 0.0000 -10646.8680 1357.8641 0.0000 0.0000 1779.1687 -7505.5600 302.8305 -9284.7287 -7496.0105 299.7608 -922.7038 -906.3288 31001.4216 -19.6762 34.4836
ENERGY: 600000 0.9380 1.5161 2.2504 0.0000 -10617.8728 1377.3699 0.0000 0.0000 1673.4173 -7562.3810 284.8307 -9235.7984 -7526.7530 297.5604 -783.2994 -701.2208 31151.3309 -88.4489 -33.3347
ENERGY: 900000 0.5341 4.8243 2.2509 0.0000 -10683.1630 1399.0932 0.0000 0.0000 1760.4135 -7516.0471 299.6382 -9276.4606 -7532.8359 296.5822 -617.3762 -533.2680 30931.8325 -12.8304 45.9292
ENERGY: 1200000 0.3575 2.8800 2.2521 0.0000 -10747.4163 1456.3419 0.0000 0.0000 1815.0255 -7470.5594 308.9337 -9285.5848 -7525.4825 298.6641 193.1787 190.3675 30715.8745 20.9883 79.0984
ENERGY: 1500000 1.9752 2.9874 2.2523 0.0000 -10541.1125 1338.7463 0.0000 0.0000 1742.6800 -7452.4713 296.6198 -9195.1513 -7512.7112 297.7144 -816.0166 -790.1431 31141.3020 -33.7565 24.0443
TCL: Running FEP window  12: Lambda1 0.5499999999999999 Lambda2 0.6    [dLambda 0.050000000000000044]
TCL: Setting parameter firsttimestep to 0
TCL: Setting parameter alchLambda to 0.5499999999999999
Info: NONBONDED TABLE R-SQUARED SPACING: 0.0625
Info: NONBONDED TABLE SIZE: 705 POINTS
TCL: Setting parameter alchLambda2 to 0.6
Info: NONBONDED TABLE R-SQUARED SPACING: 0.0625
Info: NONBONDED TABLE SIZE: 705 POINTS
TCL: Running for 1500000 steps
ETITLE: TS BOND ANGLE DIHED IMPRP ELECT VDW BOUNDARY MISC KINETIC TOTAL TEMP POTENTIAL TOTALAVG TEMPAVG PRESSURE GPRESSURE VOLUME PRESSAVG GPRESSAVG
ENERGY: 0 1.9752 2.9874 2.2523 0.0000 -10540.8752 1340.1756 0.0000 0.0000 1741.8222 -7451.6624 296.4738 -9193.4846 -7451.6624 296.4738 -865.1707 -769.6908 31141.3020 -865.1707 -769.6908
ENERGY: 300000 1.4045 2.9953 2.2475 0.0000 -10798.3530 1552.7590 0.0000 0.0000 1767.0439 -7471.9028 300.7668 -9238.9467 -7511.6767 300.4136 1154.8887 1264.7656 30106.5251 38.3095 117.2023
ENERGY: 600000 0.6121 2.2336 2.2484 0.0000 -10546.8025 1383.8599 0.0000 0.0000 1793.0463 -7364.8023 305.1926 -9157.8486 -7489.7587 301.1838 -358.7418 -314.6203 31029.8100 16.4091 78.8866
ENERGY: 900000 1.1088 3.7532 2.2482 0.0000 -10678.5239 1421.0286 0.0000 0.0000 1760.5598 -7489.8253 299.6631 -9250.3851 -7476.2136 301.1734 59.0112 125.4616 30315.9034 38.9725 109.3847
ENERGY: 1200000 0.3280 5.7484 2.2537 0.0000 -10696.2950 1464.8061 0.0000 0.0000 1773.2716 -7449.8873 301.8268 -9223.1589 -7472.6856 301.2308 524.6278 603.0231 30013.3232 125.1302 185.3999
ENERGY: 1500000 1.3836 5.1258 2.2480 0.0000 -10802.2348 1520.9271 0.0000 0.0000 1739.7877 -7532.7625 296.1275 -9272.5502 -7485.6555 300.3652 714.6920 716.5561 30644.6717 142.8001 195.9803
TCL: Running FEP window  13: Lambda1 0.6    Lambda2 0.65   [dLambda 0.050000000000000044]
TCL: Setting parameter firsttimestep to 0
TCL: Setting parameter alchLambda to 0.6
Info: NONBONDED TABLE R-SQUARED SPACING: 0.0625
Info: NONBONDED TABLE SIZE: 705 POINTS
TCL: Setting parameter alchLambda2 to 0.65
Info: NONBONDED TABLE R-SQUARED SPACING: 0.0625
Info: NONBONDED TABLE SIZE: 705 POINTS
TCL: Running for 1500000 steps
ETITLE: TS BOND ANGLE DIHED IMPRP ELECT VDW BOUNDARY MISC KINETIC TOTAL TEMP POTENTIAL TOTALAVG TEMPAVG PRESSURE GPRESSURE VOLUME PRESSAVG GPRESSAVG
ENERGY: 0 1.3836 5.1258 2.2480 0.0000 -10802.2039 1520.4142 0.0000 0.0000 1738.8931 -7534.1391 295.9752 -9273.0323 -7534.1391 295.9752 642.0111 715.8550 30644.6717 642.0111 715.8550
ENERGY: 300000 0.0461 2.8470 2.2540 0.0000 -10758.6425 1454.6047 0.0000 0.0000 1705.0930 -7593.7978 290.2222 -9298.8908 -7530.7351 297.4403 20.5239 111.2373 30308.1206 -33.6129 61.3274
ENERGY: 600000 1.5644 1.3159 2.2505 0.0000 -10870.8420 1599.9920 0.0000 0.0000 1802.9047 -7462.8146 306.8706 -9265.7192 -7538.9533 299.3332 1164.8785 1233.4884 30326.8929 50.6343 134.9205
ENERGY: 900000 1.0607 2.5514 2.2491 0.0000 -10782.7241 1460.6136 0.0000 0.0000 1777.6577 -7538.5917 302.5733 -9316.2494 -7539.8703 299.4956 -104.9895 -74.0010 30559.0155 119.7527 199.8298
ENERGY: 1200000 0.2914 2.5252 2.2498 0.0000 -10647.1660 1367.2877 0.0000 0.0000 1706.9139 -7567.8980 290.5321 -9274.8119 -7542.2973 298.8261 -708.3632 -679.0361 30788.7259 15.2604 88.0531
ENERGY: 1500000 1.5969 2.2683 2.2499 0.0000 -10833.0113 1513.3727 0.0000 0.0000 1716.3882 -7597.1352 292.1447 -9313.5234 -7543.5591 298.0194 669.0601 715.7266 29995.2395 95.6494 168.1853
TCL: Running FEP window  14: Lambda1 0.65   Lambda2 0.7000000000000001 [dLambda 0.050000000000000044]
TCL: Setting parameter firsttimestep to 0
TCL: Setting parameter alchLambda to 0.65
Info: NONBONDED TABLE R-SQUARED SPACING: 0.0625
Info: NONBONDED TABLE SIZE: 705 POINTS
TCL: Setting parameter alchLambda2 to 0.7000000000000001
Info: NONBONDED TABLE R-SQUARED SPACING: 0.0625
Info: NONBONDED TABLE SIZE: 705 POINTS
TCL: Running for 1500000 steps
ETITLE: TS BOND ANGLE DIHED IMPRP ELECT VDW BOUNDARY MISC KINETIC TOTAL TEMP POTENTIAL TOTALAVG TEMPAVG PRESSURE GPRESSURE VOLUME PRESSAVG GPRESSAVG
ENERGY: 0 1.5969 2.2683 2.2499 0.0000 -10833.1849 1513.6200 0.0000 0.0000 1715.5096 -7597.9401 291.9952 -9313.4497 -7597.9401 291.9952 631.4082 726.9318 29995.2395 631.4082 726.9318
ENERGY: 300000 0.4060 2.5805 2.2477 0.0000 -10720.7406 1439.2789 0.0000 0.0000 1760.2278 -7515.9996 299.6066 -9276.2274 -7541.1633 298.5165 -18.3912 59.8342 30676.1336 34.8491 93.3109
ENERGY: 600000 0.7973 3.6834 2.2463 0.0000 -10719.7391 1398.5671 0.0000 0.0000 1741.8632 -7572.5818 296.4808 -9314.4450 -7536.9764 298.3442 -433.6299 -343.7457 30389.7375 -20.2903 38.9859
ENERGY: 900000 0.7539 2.7749 2.2513 0.0000 -10771.1453 1390.9824 0.0000 0.0000 1803.2986 -7571.0841 306.9376 -9374.3828 -7541.3321 300.0733 -275.2195 -236.7141 30069.9710 -47.0196 20.5391
ENERGY: 1200000 0.4215 4.0287 2.2534 0.0000 -10629.2875 1378.4754 0.0000 0.0000 1743.2365 -7500.8720 296.7145 -9244.1085 -7524.8749 301.1128 -341.4559 -298.0695 30412.9374 -94.0951 -34.1591
ENERGY: 1500000 0.8807 3.7159 2.2491 0.0000 -10787.1369 1426.2093 0.0000 0.0000 1781.4666 -7572.6153 303.2216 -9354.0819 -7525.9794 302.1932 -74.9137 -117.0800 30058.3907 -27.6156 28.2662
TCL: Running FEP window  15: Lambda1 0.7000000000000001 Lambda2 0.7500000000000001 [dLambda 0.050000000000000044]
TCL: Setting parameter firsttimestep to 0
TCL: Setting parameter alchLambda to 0.7000000000000001
Info: NONBONDED TABLE R-SQUARED SPACING: 0.0625
Info: NONBONDED TABLE SIZE: 705 POINTS
TCL: Setting parameter alchLambda2 to 0.7500000000000001
Info: NONBONDED TABLE R-SQUARED SPACING: 0.0625
Info: NONBONDED TABLE SIZE: 705 POINTS
TCL: Running for 1500000 steps
ETITLE: TS BOND ANGLE DIHED IMPRP ELECT VDW BOUNDARY MISC KINETIC TOTAL TEMP POTENTIAL TOTALAVG TEMPAVG PRESSURE GPRESSURE VOLUME PRESSAVG GPRESSAVG
ENERGY: 0 0.8807 3.7159 2.2491 0.0000 -10787.2507 1426.2978 0.0000 0.0000 1780.5972 -7573.5101 303.0736 -9354.1073 -7573.5101 303.0736 -196.1349 -106.2239 30058.3907 -196.1349 -106.2239
ENERGY: 300000 1.7004 1.4233 2.2489 0.0000 -10819.7889 1525.0867 0.0000 0.0000 1816.1541 -7473.1755 309.1258 -9289.3296 -7512.5795 305.2808 801.3171 895.3111 30065.4189 157.0988 237.0557
ENERGY: 600000 1.0163 1.6900 2.2489 0.0000 -10707.1182 1408.8466 0.0000 0.0000 1771.3585 -7521.9578 301.5011 -9293.3163 -7522.4101 303.2601 -367.8939 -273.8883 30376.1133 -21.2203 55.5801
ENERGY: 900000 0.9285 2.7996 2.2492 0.0000 -10712.5934 1447.7512 0.0000 0.0000 1646.5819 -7612.2830 280.2631 -9258.8649 -7543.3999 300.8828 -36.1022 -37.3282 30614.5816 -90.6261 -23.9301
ENERGY: 1200000 1.1848 2.0692 2.2499 0.0000 -10563.7954 1329.5031 0.0000 0.0000 1795.0399 -7433.7486 305.5319 -9228.7884 -7526.3330 301.5511 -749.6590 -683.0961 30586.4128 -65.0654 -0.2025
ENERGY: 1500000 0.8490 3.0508 2.2502 0.0000 -10981.5086 1603.9964 0.0000 0.0000 1796.8991 -7574.4631 305.8484 -9371.3622 -7529.1910 300.7852 1166.8153 1285.9251 29966.1141 21.4694 85.4014
TCL: Running FEP window  16: Lambda1 0.7500000000000001 Lambda2 0.8000000000000002 [dLambda 0.050000000000000044]
TCL: Setting parameter firsttimestep to 0
TCL: Setting parameter alchLambda to 0.7500000000000001
Info: NONBONDED TABLE R-SQUARED SPACING: 0.0625
Info: NONBONDED TABLE SIZE: 705 POINTS
TCL: Setting parameter alchLambda2 to 0.8000000000000002
Info: NONBONDED TABLE R-SQUARED SPACING: 0.0625
Info: NONBONDED TABLE SIZE: 705 POINTS
TCL: Running for 1500000 steps
ETITLE: TS BOND ANGLE DIHED IMPRP ELECT VDW BOUNDARY MISC KINETIC TOTAL TEMP POTENTIAL TOTALAVG TEMPAVG PRESSURE GPRESSURE VOLUME PRESSAVG GPRESSAVG
ENERGY: 0 0.8490 3.0508 2.2502 0.0000 -10981.5681 1603.4719 0.0000 0.0000 1795.9928 -7575.9533 305.6941 -9371.9461 -7575.9533 305.6941 1194.9737 1285.0388 29966.1141 1194.9737 1285.0388
ENERGY: 300000 0.7262 1.9241 2.2517 0.0000 -10986.4067 1587.7966 0.0000 0.0000 1733.4844 -7660.2237 295.0546 -9393.7081 -7562.2008 301.7808 1122.7381 1200.5734 29690.9552 672.3952 730.4369
ENERGY: 600000 2.1289 3.2229 2.2502 0.0000 -10737.6801 1450.2075 0.0000 0.0000 1775.9061 -7503.9645 302.2752 -9279.8706 -7529.9789 300.3176 96.7590 147.7813 30218.1726 307.2404 372.8998
ENERGY: 900000 0.5203 2.0880 2.2523 0.0000 -10841.8840 1521.5987 0.0000 0.0000 1762.2933 -7553.1314 299.9582 -9315.4247 -7542.4107 299.5247 638.6918 709.5623 30063.7700 287.4078 353.1382
ENERGY: 1200000 1.9461 2.2711 2.2516 0.0000 -10778.1720 1485.3535 0.0000 0.0000 1716.9521 -7569.3975 292.2407 -9286.3496 -7540.4830 299.2668 180.5341 279.9427 30402.2283 225.7542 296.3587
ENERGY: 1500000 2.0737 2.6128 2.2491 0.0000 -10633.3198 1345.1467 0.0000 0.0000 1798.6973 -7482.5403 306.1545 -9281.2375 -7530.2415 300.2164 -826.5588 -814.1221 30717.4411 133.1237 201.7207
TCL: Running FEP window  17: Lambda1 0.8000000000000002 Lambda2 0.8500000000000002 [dLambda 0.050000000000000044]
TCL: Setting parameter firsttimestep to 0
TCL: Setting parameter alchLambda to 0.8000000000000002
Info: NONBONDED TABLE R-SQUARED SPACING: 0.0625
Info: NONBONDED TABLE SIZE: 705 POINTS
TCL: Setting parameter alchLambda2 to 0.8500000000000002
Info: NONBONDED TABLE R-SQUARED SPACING: 0.0625
Info: NONBONDED TABLE SIZE: 705 POINTS
TCL: Running for 1500000 steps
ETITLE: TS BOND ANGLE DIHED IMPRP ELECT VDW BOUNDARY MISC KINETIC TOTAL TEMP POTENTIAL TOTALAVG TEMPAVG PRESSURE GPRESSURE VOLUME PRESSAVG GPRESSAVG
ENERGY: 0 2.0737 2.6128 2.2491 0.0000 -10633.4314 1345.3216 0.0000 0.0000 1797.7914 -7483.3828 306.0003 -9281.1742 -7483.3828 306.0003 -891.6943 -806.4659 30717.4411 -891.6943 -806.4659
ENERGY: 300000 1.8002 3.8434 2.2524 0.0000 -10793.9560 1513.2388 0.0000 0.0000 1749.8620 -7522.9592 297.8423 -9272.8213 -7511.5955 300.5943 685.4577 699.6086 30355.0850 -194.5241 -140.6816
ENERGY: 600000 0.6357 2.4143 2.2502 0.0000 -10830.8582 1504.7074 0.0000 0.0000 1759.4404 -7561.4103 299.4726 -9320.8507 -7517.5174 299.3548 406.2375 463.4350 30265.1648 -112.9712 -53.7116
ENERGY: 900000 1.9549 1.7791 2.2498 0.0000 -10664.5001 1358.7600 0.0000 0.0000 1752.7742 -7546.9822 298.3379 -9299.7564 -7519.7446 299.6668 -542.8876 -447.9292 30191.9374 -175.8685 -120.7317
ENERGY: 1200000 0.6366 5.6762 2.2582 0.0000 -10619.0626 1375.5282 0.0000 0.0000 1808.1458 -7426.8176 307.7627 -9234.9634 -7512.1706 298.9693 -352.1946 -344.6441 30534.4246 -154.9022 -106.9690
ENERGY: 1500000 0.4201 3.0083 2.2493 0.0000 -10740.5793 1469.6512 0.0000 0.0000 1726.4568 -7538.7936 293.8585 -9265.2504 -7516.4385 299.1661 179.7586 210.7134 30574.5596 -147.8044 -96.7609
TCL: Running FEP window  18: Lambda1 0.8500000000000002 Lambda2 0.9000000000000002 [dLambda 0.050000000000000044]
TCL: Setting parameter firsttimestep to 0
TCL: Setting parameter alchLambda to 0.8500000000000002
Info: NONBONDED TABLE R-SQUARED SPACING: 0.0625
Info: NONBONDED TABLE SIZE: 705 POINTS
TCL: Setting parameter alchLambda2 to 0.9000000000000002
Info: NONBONDED TABLE R-SQUARED SPACING: 0.0625
Info: NONBONDED TABLE SIZE: 705 POINTS
TCL: Running for 1500000 steps
ETITLE: TS BOND ANGLE DIHED IMPRP ELECT VDW BOUNDARY MISC KINETIC TOTAL TEMP POTENTIAL TOTALAVG TEMPAVG PRESSURE GPRESSURE VOLUME PRESSAVG GPRESSAVG
ENERGY: 0 0.4201 3.0083 2.2493 0.0000 -10740.6527 1469.8254 0.0000 0.0000 1725.5628 -7539.5868 293.7063 -9265.1496 -7539.5868 293.7063 141.2162 223.0964 30574.5596 141.2162 223.0964
ENERGY: 300000 3.3859 2.6804 2.2485 0.0000 -10701.5533 1424.8473 0.0000 0.0000 1740.1008 -7528.2904 296.1808 -9268.3912 -7563.8398 296.2139 142.1865 166.2804 30246.2497 -36.2886 9.1573
ENERGY: 600000 3.3637 1.4634 2.2509 0.0000 -10850.9776 1488.4629 0.0000 0.0000 1774.7331 -7580.7035 302.0755 -9355.4367 -7549.3694 298.0726 -41.4334 5.4892 30879.9230 -32.6270 20.3571
ENERGY: 900000 4.3903 2.8089 2.2516 0.0000 -10649.2145 1370.8573 0.0000 0.0000 1721.4894 -7547.4170 293.0130 -9268.9064 -7548.4677 296.7167 -535.1977 -506.2747 30806.7256 12.5398 58.8627
ENERGY: 1200000 3.4762 2.4289 2.2493 0.0000 -10686.8440 1421.7716 0.0000 0.0000 1769.7235 -7487.1945 301.2228 -9256.9179 -7540.6291 297.6027 -289.9683 -222.6490 30812.1478 -16.5960 28.4485
ENERGY: 1500000 1.1981 2.7886 2.2522 0.0000 -10695.4317 1425.5950 0.0000 0.0000 1807.7463 -7455.8514 307.6947 -9263.5977 -7533.3612 298.4049 -102.5390 -34.8566 30504.9745 -60.2033 -13.3989
TCL: Running FEP window  19: Lambda1 0.9000000000000002 Lambda2 0.9500000000000003 [dLambda 0.050000000000000044]
TCL: Setting parameter firsttimestep to 0
TCL: Setting parameter alchLambda to 0.9000000000000002
Info: NONBONDED TABLE R-SQUARED SPACING: 0.0625
Info: NONBONDED TABLE SIZE: 705 POINTS
TCL: Setting parameter alchLambda2 to 0.9500000000000003
Info: NONBONDED TABLE R-SQUARED SPACING: 0.0625
Info: NONBONDED TABLE SIZE: 705 POINTS
TCL: Running for 1500000 steps
ETITLE: TS BOND ANGLE DIHED IMPRP ELECT VDW BOUNDARY MISC KINETIC TOTAL TEMP POTENTIAL TOTALAVG TEMPAVG PRESSURE GPRESSURE VOLUME PRESSAVG GPRESSAVG
ENERGY: 0 1.1981 2.7886 2.2522 0.0000 -10695.6241 1425.9066 0.0000 0.0000 1806.9029 -7456.5756 307.5511 -9263.4785 -7456.5756 307.5511 -105.1760 -22.1604 30504.9745 -105.1760 -22.1604
ENERGY: 300000 0.9838 3.7071 2.2478 0.0000 -10789.8013 1444.1417 0.0000 0.0000 1779.0854 -7559.6355 302.8163 -9338.7209 -7512.8069 301.2855 -73.1396 -13.4652 30428.9522 -182.2465 -113.1088
ENERGY: 600000 0.6871 2.6643 2.2491 0.0000 -10751.5461 1466.3704 0.0000 0.0000 1806.0852 -7473.4900 307.4119 -9279.5752 -7494.0881 302.6208 434.5935 444.4346 30256.9619 -103.5498 -51.2759
ENERGY: 900000 0.1934 2.8486 2.2495 0.0000 -10816.3894 1412.8001 0.0000 0.0000 1763.9334 -7634.3644 300.2373 -9398.2978 -7530.3382 299.9749 -373.1097 -278.6932 30087.7112 -150.6658 -91.7592
ENERGY: 1200000 1.8005 3.0438 2.2504 0.0000 -10746.1932 1503.1810 0.0000 0.0000 1852.8070 -7383.1105 315.3644 -9235.9175 -7515.2609 301.5605 799.7407 914.5412 30146.8312 -30.9353 25.2499
ENERGY: 1500000 0.6931 1.6809 2.2530 0.0000 -10574.6767 1286.0725 0.0000 0.0000 1712.8642 -7571.1129 291.5449 -9283.9771 -7514.1208 300.9236 -1293.7596 -1233.2470 30957.2449 -113.2905 -56.7487
TCL: Running FEP window  20: Lambda1 0.9500000000000003 Lambda2 1.0    [dLambda 0.04999999999999971]
TCL: Setting parameter firsttimestep to 0
TCL: Setting parameter alchLambda to 0.9500000000000003
Info: NONBONDED TABLE R-SQUARED SPACING: 0.0625
Info: NONBONDED TABLE SIZE: 705 POINTS
TCL: Setting parameter alchLambda2 to 1.0
Info: NONBONDED TABLE R-SQUARED SPACING: 0.0625
Info: NONBONDED TABLE SIZE: 705 POINTS
TCL: Running for 1500000 steps
ETITLE: TS BOND ANGLE DIHED IMPRP ELECT VDW BOUNDARY MISC KINETIC TOTAL TEMP POTENTIAL TOTALAVG TEMPAVG PRESSURE GPRESSURE VOLUME PRESSAVG GPRESSAVG
ENERGY: 0 0.6931 1.6809 2.2530 0.0000 -10575.1913 1287.1971 0.0000 0.0000 1711.9784 -7571.3887 291.3941 -9283.3672 -7571.3887 291.3941 -1285.6406 -1209.4424 30957.2449 -1285.6406 -1209.4424
ENERGY: 300000 0.8030 2.0222 2.2524 0.0000 -10674.5137 1440.5879 0.0000 0.0000 1757.8131 -7471.0351 299.1956 -9228.8481 -7541.8817 296.0240 220.9253 339.4671 30374.0388 -353.0154 -278.1690
ENERGY: 600000 2.0568 3.3042 2.2476 0.0000 -10815.2352 1453.3195 0.0000 0.0000 1784.9891 -7569.3179 303.8212 -9354.3071 -7544.9879 299.2505 -107.9525 -122.5274 30361.8094 -174.9045 -102.9159
ENERGY: 900000 0.4181 0.7529 2.2500 0.0000 -10611.6145 1307.9931 0.0000 0.0000 1794.6951 -7505.5053 305.4732 -9300.2004 -7526.8581 299.9501 -961.6514 -900.5091 30508.6148 -352.1112 -279.2786
ENERGY: 1200000 0.3509 2.7131 2.2488 0.0000 -10807.5564 1492.9026 0.0000 0.0000 1752.4684 -7556.8727 298.2859 -9309.3411 -7523.2069 300.3718 651.0088 702.7558 29835.4662 -264.3027 -203.4946
ENERGY: 1500000 0.7465 2.1354 2.2514 0.0000 -10611.4574 1410.1662 0.0000 0.0000 1740.7620 -7455.3960 296.2933 -9196.1579 -7517.2500 300.0183 127.6941 159.3565 30469.7457 -237.0446 -176.0630
TCL: Exiting due to exit command.
