Info: SIMULATION PARAMETERS:
Info: TIMESTEP               2
Info: NUMBER OF STEPS        0
Info: STEPS PER CYCLE        10
Info: PERIODIC CELL BASIS 1  33.0888 0 0
Info: PERIODIC CELL BASIS 2  0 33.4079 0
Info: PERIODIC CELL BASIS 3  0 0 27.7094
Info: PERIODIC CELL CENTER   0 0 0
Info: WRAPPING WATERS AROUND PERIODIC BOUNDARIES ON OUTPUT.
Info: WRAPPING ALL CLUSTERS AROUND PERIODIC BOUNDARIES ON OUTPUT.
Info: FIRST LDB TIMESTEP     50
Info: LAST LDB TIMESTEP     -1
Info: HOM BACKGROUND SCALING 1
Info: PME BACKGROUND SCALING 1
Info: MIN ATOMS PER PATCH    40
Info: EMPTY PATCH LOAD       40 ATOMS
Info: VELOCITY FILE          mobley_2960202_equil.vel
Info: CENTER OF MASS MOVING INITIALLY? NO
Info: DIELECTRIC             1
Info: EXCLUDE                SCALED ONE-FOUR
Info: 1-4 ELECTROSTATICS SCALED BY 0.833333
Info: MODIFIED 1-4 VDW PARAMETERS WILL BE USED
Info: DCD FILENAME           mobley_2960202_prod.dcd
Info: DCD FREQUENCY          100000
Info: DCD FIRST STEP         100000
Info: DCD FILE WILL CONTAIN UNIT CELL DATA
Info: XST FILENAME           mobley_2960202_prod.xst
Info: XST FREQUENCY          100000
Info: NO VELOCITY DCD OUTPUT
Info: NO FORCE DCD OUTPUT
Info: OUTPUT FILENAME        mobley_2960202_prod
Info: BINARY OUTPUT FILES WILL BE USED
Info: RESTART FILENAME       mobley_2960202_prod.restart
Info: RESTART FREQUENCY      100000
Info: BINARY RESTART FILES WILL BE USED
Info: CUTOFF                 9
Info: PAIRLIST DISTANCE      11
Info: PAIRLIST SHRINK RATE   0.01
Info: PAIRLIST GROW RATE     0.01
Info: PAIRLIST TRIGGER       0.3
Info: PAIRLISTS PER CYCLE    2
Info: PAIRLISTS ENABLED
Info: MARGIN                 2
Info: HYDROGEN GROUP CUTOFF  2.5
Info: PATCH DIMENSION        15.5
Info: ENERGY OUTPUT STEPS    100000
Info: ENERGY EVALUATION STEPS    100000
Info: OUTPUT ENERGY PRECISION 4
Info: CROSSTERM ENERGY INCLUDED IN DIHEDRAL
Info: TIMING OUTPUT STEPS    1000000
Info: PRESSURE OUTPUT STEPS  100000
Info: ALCHEMICAL FEP ON
Info: FEP CURRENT LAMBDA VALUE     1
Info: FEP COMPARISON LAMBDA VALUE  0.95
Info: FEP INTRA-ALCHEMICAL NON-BONDED INTERACTIONS WILL BE RETAINED
Info: FEP INTRA-ALCHEMICAL BONDED INTERACTIONS WILL BE RETAINED
Info: FEP VDW SHIFTING COEFFICIENT 5
Info: FEP ELEC. ACTIVE FOR ANNIHILATED PARTICLES BETWEEN LAMBDA = 0 AND LAMBDA = 0.5
Info: FEP ELEC. ACTIVE FOR EXNIHILATED PARTICLES BETWEEN LAMBDA = 0.5 AND LAMBDA = 1
Info: FEP VDW ACTIVE FOR ANNIHILATED PARTICLES BETWEEN LAMBDA = 0 AND LAMBDA = 1
Info: FEP VDW ACTIVE FOR EXNIHILATED PARTICLES BETWEEN LAMBDA = 0 AND LAMBDA = 1
Info: FEP BOND ACTIVE FOR ANNIHILATED PARTICLES BETWEEN LAMBDA = 1 AND LAMBDA = 1
Info: FEP BOND ACTIVE FOR EXNIHILATED PARTICLES BETWEEN LAMBDA = 0 AND LAMBDA = 0
Info: LANGEVIN DYNAMICS ACTIVE
Info: LANGEVIN TEMPERATURE   300
Info: LANGEVIN USING BBK INTEGRATOR
Info: LANGEVIN DAMPING COEFFICIENT IS 1 INVERSE PS
Info: LANGEVIN DYNAMICS APPLIED TO HYDROGENS
Info: LANGEVIN PISTON PRESSURE CONTROL ACTIVE
Info:        TARGET PRESSURE IS 1.01325 BAR
Info:     OSCILLATION PERIOD IS 50 FS
Info:             DECAY TIME IS 25 FS
Info:     PISTON TEMPERATURE IS 300 K
Info:       PRESSURE CONTROL IS GROUP-BASED
Info:    INITIAL STRAIN RATE IS 0.00028252 0.00028252 0.00028252
Info:       CELL FLUCTUATION IS ISOTROPIC
Info: PARTICLE MESH EWALD (PME) ACTIVE
Info: PME TOLERANCE               1e-06
Info: PME EWALD COEFFICIENT       0.348832
Info: PME INTERPOLATION ORDER     4
Info: PME GRID DIMENSIONS         36 36 28
Info: PME MAXIMUM GRID SPACING    1
Info: PME CALCULATION WILL BE PERFORMED ON GPU
Info: FULL ELECTROSTATIC EVALUATION FREQUENCY      2
Info: USING VERLET I (r-RESPA) MTS SCHEME.
Info: C1 SPLITTING OF LONG RANGE ELECTROSTATICS
Info: PLACING ATOMS IN PATCHES BY HYDROGEN GROUPS
Info: RIGID BONDS TO HYDROGEN : ALL
Info:         ERROR TOLERANCE : 1e-08
Info:          MAX ITERATIONS : 100
Info: RIGID WATER USING SETTLE ALGORITHM
Info: RANDOM NUMBER SEED     1743644815
Info: USE HYDROGEN BONDS?    NO
Info: Using AMBER format force field!
Info: AMBER PARM FILE        mobley_2960202.prmtop
Info: COORDINATE PDB         mobley_2960202.pdb
Info: Exclusions will be read from PARM file!
Info: SCNB (VDW SCALING)     2
Info: USING ARITHMETIC MEAN TO COMBINE L-J SIGMA PARAMETERS
Info: BINARY COORDINATES     mobley_2960202_equil.coor
Info: SUMMARY OF PARAMETERS:
Info: 6 BONDS
Info: 5 ANGLES
Info:   5 HARMONIC
Info:   0 COSINE-BASED
Info: 3 DIHEDRAL
Info: 0 IMPROPER
Info: 0 CROSSTERM
Info: 0 VDW
Info: 21 VDW_PAIRS
Info: 0 NBTHOLE_PAIRS
Info: To read alchdata from file: mobley_2960202.pdb
Info: To read alchflag data from column: 5
Info: STRUCTURE SUMMARY:
Info: 2953 ATOMS
Info: 2955 BONDS
Info: 38 ANGLES
Info: 68 DIHEDRALS
Info: 0 IMPROPERS
Info: 0 CROSSTERMS
Info: 3040 EXCLUSIONS
Info: 2933 RIGID BONDS
Info: ALCH: 0 ATOMS TO DISAPPEAR IN FINAL STATE
Info: ALCH: 22 ATOMS TO APPEAR IN FINAL STATE
Info: 5926 DEGREES OF FREEDOM
Info: 997 HYDROGEN GROUPS
Info: 3 ATOMS IN LARGEST HYDROGEN GROUP
Info: 997 MIGRATION GROUPS
Info: 3 ATOMS IN LARGEST MIGRATION GROUP
Info: TOTAL MASS = 17992.5 amu
Info: TOTAL CHARGE = 0.00050002 e
Info: MASS DENSITY = 0.975421 g/cm^3
Info: ATOM DENSITY = 0.0964063 atoms/A^3
Info: ADDED 0 IMPLICIT EXCLUSIONS
Info: NONBONDED TABLE R-SQUARED SPACING: 0.0625
Info: NONBONDED TABLE SIZE: 705 POINTS
Info: REDUCING NUMBER OF PATCHES TO IMPROVE LOAD BALANCE
Info: REMOVING COM VELOCITY -0.0169551 -0.0123818 0.119636
Info: Use 3D box decompostion in PME FFT.
Info: Updated CUDA force table with 4096 elements.
Info: Updated CUDA LJ table with 6 x 6 elements.
Info: Found 23 unique exclusion lists needing 68 bytes
TCL: Running for 1500000 steps
ETITLE: TS BOND ANGLE DIHED IMPRP ELECT VDW BOUNDARY MISC KINETIC TOTAL TEMP POTENTIAL TOTALAVG TEMPAVG PRESSURE GPRESSURE VOLUME PRESSAVG GPRESSAVG
ENERGY: 0 4.8274 7.6417 8.1631 0.0000 -10654.3835 1418.2874 0.0000 0.0000 1728.2419 -7487.2220 293.5170 -9215.4639 -7487.2220 293.5170 81.8903 168.8016 30630.7699 81.8903 168.8016
ENERGY: 300000 11.3730 7.8332 5.1030 0.0000 -10738.2725 1486.6006 0.0000 0.0000 1778.3520 -7449.0108 302.0275 -9227.3628 -7451.7737 299.6440 588.8262 608.1689 30438.8987 215.6785 287.7247
ENERGY: 600000 3.5977 6.3480 6.2699 0.0000 -10680.0284 1420.4468 0.0000 0.0000 1719.2945 -7524.0714 291.9974 -9243.3659 -7449.2402 299.6114 -162.4819 -127.2011 30731.9341 132.9182 201.7649
ENERGY: 900000 10.0074 2.8255 7.9975 0.0000 -10643.9209 1415.4852 0.0000 0.0000 1738.7812 -7468.8242 295.3069 -9207.6054 -7455.8890 298.0464 31.0484 60.0495 30703.4177 14.6732 84.2492
ENERGY: 1200000 5.7224 5.4394 6.0472 0.0000 -10653.2278 1416.9088 0.0000 0.0000 1820.3731 -7398.7368 309.1642 -9219.1099 -7453.3867 298.9535 290.8543 374.4620 30340.0452 1.3209 58.9181
ENERGY: 1500000 7.6284 4.0650 7.5905 0.0000 -10634.8028 1417.5910 0.0000 0.0000 1711.5995 -7486.3284 290.6905 -9197.9279 -7454.9295 298.0859 -162.5880 -54.5844 30562.2492 -82.2245 -21.6315
TCL: Running FEP window   2: Lambda1 0.95   Lambda2 0.8999999999999999 [dLambda -0.050000000000000044]
TCL: Setting parameter firsttimestep to 0
TCL: Setting parameter alchLambda to 0.95
Info: NONBONDED TABLE R-SQUARED SPACING: 0.0625
Info: NONBONDED TABLE SIZE: 705 POINTS
TCL: Setting parameter alchLambda2 to 0.8999999999999999
Info: NONBONDED TABLE R-SQUARED SPACING: 0.0625
Info: NONBONDED TABLE SIZE: 705 POINTS
TCL: Running for 1500000 steps
ETITLE: TS BOND ANGLE DIHED IMPRP ELECT VDW BOUNDARY MISC KINETIC TOTAL TEMP POTENTIAL TOTALAVG TEMPAVG PRESSURE GPRESSURE VOLUME PRESSAVG GPRESSAVG
ENERGY: 0 7.6284 4.0650 7.5905 0.0000 -10634.2478 1417.7485 0.0000 0.0000 1710.7313 -7486.4841 290.5431 -9197.2154 -7486.4841 290.5431 -162.3719 -77.2931 30562.2492 -162.3719 -77.2931
ENERGY: 300000 4.3877 6.0651 5.2007 0.0000 -10731.1117 1423.7211 0.0000 0.0000 1771.9807 -7519.7563 300.9454 -9291.7370 -7451.7928 300.3248 -195.3679 -114.7789 30645.0036 -104.9184 -28.4214
ENERGY: 600000 9.1141 5.3456 5.9543 0.0000 -10661.0709 1440.4788 0.0000 0.0000 1778.6688 -7421.5093 302.0813 -9200.1781 -7455.4146 299.5190 -119.2381 -67.4111 30821.1777 -182.0173 -107.5077
ENERGY: 900000 7.6415 4.3853 6.1336 0.0000 -10637.4964 1429.5749 0.0000 0.0000 1781.0011 -7408.7598 302.4774 -9189.7610 -7438.9445 300.5196 198.8826 258.5303 30247.6224 -132.7273 -60.0410
ENERGY: 1200000 6.5822 4.2788 7.6701 0.0000 -10710.7345 1439.4230 0.0000 0.0000 1809.6963 -7443.0840 307.3509 -9252.7803 -7434.1682 301.6545 148.3703 221.4929 30256.7321 -155.8639 -84.7344
ENERGY: 1500000 13.4971 9.0710 5.0253 0.0000 -10702.5402 1430.0427 0.0000 0.0000 1735.7579 -7509.1462 294.7935 -9244.9041 -7444.0557 300.4595 -226.7957 -105.7681 30552.0958 -163.3316 -86.3954
TCL: Running FEP window   3: Lambda1 0.8999999999999999 Lambda2 0.8499999999999999 [dLambda -0.050000000000000044]
TCL: Setting parameter firsttimestep to 0
TCL: Setting parameter alchLambda to 0.8999999999999999
Info: NONBONDED TABLE R-SQUARED SPACING: 0.0625
Info: NONBONDED TABLE SIZE: 705 POINTS
TCL: Setting parameter alchLambda2 to 0.8499999999999999
Info: NONBONDED TABLE R-SQUARED SPACING: 0.0625
Info: NONBONDED TABLE SIZE: 705 POINTS
TCL: Running for 1500000 steps
ETITLE: TS BOND ANGLE DIHED IMPRP ELECT VDW BOUNDARY MISC KINETIC TOTAL TEMP POTENTIAL TOTALAVG TEMPAVG PRESSURE GPRESSURE VOLUME PRESSAVG GPRESSAVG
ENERGY: 0 13.4971 9.0710 5.0253 0.0000 -10702.2002 1431.1795 0.0000 0.0000 1734.8956 -7508.5316 294.6470 -9243.4273 -7508.5316 294.6470 -209.0437 -116.8236 30552.0958 -209.0437 -116.8236
ENERGY: 300000 5.6010 4.0337 2.3141 0.0000 -10674.4023 1486.7708 0.0000 0.0000 1806.4000 -7369.2827 306.7910 -9175.6826 -7425.6956 299.8139 438.2690 496.8575 30754.1201 206.3980 254.7773
ENERGY: 600000 7.1271 2.3046 7.1406 0.0000 -10620.6162 1412.2706 0.0000 0.0000 1768.0563 -7423.7170 300.2789 -9191.7733 -7433.9606 301.0177 -298.9324 -231.5100 30757.6597 96.8202 138.8842
ENERGY: 900000 8.6852 4.4622 6.4197 0.0000 -10659.2614 1435.2368 0.0000 0.0000 1719.0007 -7485.4568 291.9475 -9204.4575 -7439.3882 300.8102 236.2349 305.2338 30282.6658 57.7714 105.7751
ENERGY: 1200000 5.6680 2.9745 4.7748 0.0000 -10756.3427 1489.4871 0.0000 0.0000 1760.0359 -7493.4024 298.9168 -9253.4382 -7438.4285 299.5358 429.5982 492.2361 30365.9271 126.1173 175.2091
ENERGY: 1500000 5.2997 7.1416 10.5785 0.0000 -10740.3453 1419.0470 0.0000 0.0000 1769.4549 -7528.8235 300.5164 -9298.2784 -7456.8681 299.6250 -12.5202 39.3023 29999.6459 20.6301 62.0846
TCL: Running FEP window   4: Lambda1 0.8499999999999999 Lambda2 0.7999999999999998 [dLambda -0.050000000000000044]
TCL: Setting parameter firsttimestep to 0
TCL: Setting parameter alchLambda to 0.8499999999999999
Info: NONBONDED TABLE R-SQUARED SPACING: 0.0625
Info: NONBONDED TABLE SIZE: 705 POINTS
TCL: Setting parameter alchLambda2 to 0.7999999999999998
Info: NONBONDED TABLE R-SQUARED SPACING: 0.0625
Info: NONBONDED TABLE SIZE: 705 POINTS
TCL: Running for 1500000 steps
ETITLE: TS BOND ANGLE DIHED IMPRP ELECT VDW BOUNDARY MISC KINETIC TOTAL TEMP POTENTIAL TOTALAVG TEMPAVG PRESSURE GPRESSURE VOLUME PRESSAVG GPRESSAVG
ENERGY: 0 5.2997 7.1416 10.5785 0.0000 -10740.0298 1419.9154 0.0000 0.0000 1768.5958 -7528.4987 300.3705 -9297.0945 -7528.4987 300.3705 -71.2823 23.3430 29999.6459 -71.2823 23.3430
ENERGY: 300000 3.1607 3.6501 6.0163 0.0000 -10730.7036 1568.5175 0.0000 0.0000 1799.3209 -7350.0381 305.5888 -9149.3590 -7438.9456 303.6332 1751.6504 1795.2430 30212.6136 831.2532 921.8031
ENERGY: 600000 7.5887 7.2371 3.1714 0.0000 -10566.4775 1392.7069 0.0000 0.0000 1708.4963 -7447.2770 290.1635 -9155.7733 -7447.8356 300.7013 -521.5667 -392.2502 31116.4647 508.9626 591.8997
ENERGY: 900000 8.3302 4.4016 6.1989 0.0000 -10687.7216 1478.6022 0.0000 0.0000 1774.6777 -7415.5110 301.4035 -9190.1888 -7429.9881 301.4037 376.8092 446.0223 30580.0498 251.8601 323.7561
ENERGY: 1200000 7.3690 4.3940 3.4922 0.0000 -10665.5342 1448.4585 0.0000 0.0000 1729.7853 -7472.0350 293.7791 -9201.8204 -7440.5214 299.8910 7.6187 80.4846 30381.6166 182.3893 253.0582
ENERGY: 1500000 10.5950 5.5884 5.9737 0.0000 -10587.3662 1432.7769 0.0000 0.0000 1719.7209 -7412.7114 292.0698 -9132.4323 -7439.0952 299.4835 -147.4607 -152.3410 30701.3766 135.2010 197.1949
TCL: Running FEP window   5: Lambda1 0.7999999999999998 Lambda2 0.7499999999999998 [dLambda -0.050000000000000044]
TCL: Setting parameter firsttimestep to 0
TCL: Setting parameter alchLambda to 0.7999999999999998
Info: NONBONDED TABLE R-SQUARED SPACING: 0.0625
Info: NONBONDED TABLE SIZE: 705 POINTS
TCL: Setting parameter alchLambda2 to 0.7499999999999998
Info: NONBONDED TABLE R-SQUARED SPACING: 0.0625
Info: NONBONDED TABLE SIZE: 705 POINTS
TCL: Running for 1500000 steps
ETITLE: TS BOND ANGLE DIHED IMPRP ELECT VDW BOUNDARY MISC KINETIC TOTAL TEMP POTENTIAL TOTALAVG TEMPAVG PRESSURE GPRESSURE VOLUME PRESSAVG GPRESSAVG
ENERGY: 0 10.5949 5.5884 5.9737 0.0000 -10587.1771 1434.0814 0.0000 0.0000 1718.8111 -7412.1275 291.9153 -9130.9387 -7412.1275 291.9153 -244.4737 -155.6962 30701.3766 -244.4737 -155.6962
ENERGY: 300000 4.0823 2.6205 5.1529 0.0000 -10651.1190 1482.4955 0.0000 0.0000 1782.7817 -7373.9861 302.7798 -9156.7678 -7392.7487 302.3694 681.8620 703.2327 30738.5720 -89.6321 -39.8818
ENERGY: 600000 8.7801 5.5687 5.5668 0.0000 -10770.0420 1472.2722 0.0000 0.0000 1773.0318 -7504.8224 301.1239 -9277.8541 -7414.2247 302.5767 262.1299 293.6384 29925.6695 125.8774 169.1100
ENERGY: 900000 4.9454 4.5150 3.5770 0.0000 -10683.9745 1449.8062 0.0000 0.0000 1755.5406 -7465.5902 298.1533 -9221.1308 -7419.1525 302.2776 189.6504 198.5625 30704.7441 48.1188 95.4691
ENERGY: 1200000 8.5917 5.6971 4.2885 0.0000 -10673.4794 1466.1455 0.0000 0.0000 1796.5186 -7392.2380 305.1128 -9188.7566 -7439.1560 301.5838 118.1496 199.1997 30833.8085 12.0711 69.5295
ENERGY: 1500000 6.6639 3.0297 2.5910 0.0000 -10727.1845 1463.2659 0.0000 0.0000 1772.4210 -7479.2131 301.0202 -9251.6341 -7440.4012 301.7193 -2.5698 50.2235 30666.0424 9.9986 65.7760
TCL: Running FEP window   6: Lambda1 0.7499999999999998 Lambda2 0.6999999999999997 [dLambda -0.050000000000000044]
TCL: Setting parameter firsttimestep to 0
TCL: Setting parameter alchLambda to 0.7499999999999998
Info: NONBONDED TABLE R-SQUARED SPACING: 0.0625
Info: NONBONDED TABLE SIZE: 705 POINTS
TCL: Setting parameter alchLambda2 to 0.6999999999999997
Info: NONBONDED TABLE R-SQUARED SPACING: 0.0625
Info: NONBONDED TABLE SIZE: 705 POINTS
TCL: Running for 1500000 steps
ETITLE: TS BOND ANGLE DIHED IMPRP ELECT VDW BOUNDARY MISC KINETIC TOTAL TEMP POTENTIAL TOTALAVG TEMPAVG PRESSURE GPRESSURE VOLUME PRESSAVG GPRESSAVG
ENERGY: 0 6.6638 3.0297 2.5910 0.0000 -10726.8938 1464.8878 0.0000 0.0000 1771.5426 -7478.1788 300.8710 -9249.7214 -7478.1788 300.8710 -30.7410 47.4625 30666.0424 -30.7410 47.4625
ENERGY: 300000 11.4224 4.8533 11.3515 0.0000 -10554.4361 1379.0980 0.0000 0.0000 1748.7205 -7398.9904 296.9950 -9147.7109 -7462.1045 297.6002 -492.6366 -445.1929 30920.4996 -118.4591 -72.3491
ENERGY: 600000 6.2269 6.7755 3.8023 0.0000 -10593.9748 1408.5397 0.0000 0.0000 1725.5424 -7443.0880 293.0585 -9168.6304 -7459.6237 297.8765 -206.1003 -50.4909 30329.6828 -135.7059 -61.9707
ENERGY: 900000 9.7136 5.8759 6.0788 0.0000 -10716.3406 1456.6332 0.0000 0.0000 1761.1100 -7476.9290 299.0992 -9238.0390 -7456.7533 299.0154 205.6373 257.8210 30265.9452 -50.4014 9.9959
ENERGY: 1200000 5.4972 3.0785 2.8453 0.0000 -10675.7197 1420.5208 0.0000 0.0000 1758.2924 -7485.4855 298.6206 -9243.7779 -7452.0812 299.4090 -51.2976 51.8623 30247.9500 -28.7870 37.2053
ENERGY: 1500000 10.4542 6.0682 5.6777 0.0000 -10550.7416 1396.1507 0.0000 0.0000 1718.7065 -7413.6843 291.8976 -9132.3908 -7460.6453 298.1051 -164.2525 -126.4709 30568.9033 0.7466 64.9629
TCL: Running FEP window   7: Lambda1 0.6999999999999997 Lambda2 0.6499999999999997 [dLambda -0.050000000000000044]
TCL: Setting parameter firsttimestep to 0
TCL: Setting parameter alchLambda to 0.6999999999999997
Info: NONBONDED TABLE R-SQUARED SPACING: 0.0625
Info: NONBONDED TABLE SIZE: 705 POINTS
TCL: Setting parameter alchLambda2 to 0.6499999999999997
Info: NONBONDED TABLE R-SQUARED SPACING: 0.0625
Info: NONBONDED TABLE SIZE: 705 POINTS
TCL: Running for 1500000 steps
ETITLE: TS BOND ANGLE DIHED IMPRP ELECT VDW BOUNDARY MISC KINETIC TOTAL TEMP POTENTIAL TOTALAVG TEMPAVG PRESSURE GPRESSURE VOLUME PRESSAVG GPRESSAVG
ENERGY: 0 10.4542 6.0682 5.6777 0.0000 -10550.4175 1397.2246 0.0000 0.0000 1717.8275 -7413.1652 291.7483 -9130.9926 -7413.1652 291.7483 -226.0019 -132.6674 30568.9033 -226.0019 -132.6674
ENERGY: 300000 9.6583 2.8701 9.0253 0.0000 -10670.2531 1442.2245 0.0000 0.0000 1753.8944 -7452.5805 297.8737 -9206.4749 -7457.4043 295.5266 21.0008 107.4835 30304.0258 110.5811 207.2976
ENERGY: 600000 9.5519 4.5058 7.0029 0.0000 -10534.8842 1393.6848 0.0000 0.0000 1822.6385 -7297.5003 309.5489 -9120.1388 -7425.6583 298.5075 -223.8242 -127.3838 30651.2395 -15.0227 82.8837
ENERGY: 900000 4.6321 5.5486 3.2033 0.0000 -10574.8978 1341.9707 0.0000 0.0000 1729.6657 -7489.8774 293.7588 -9219.5432 -7428.3781 298.6175 -462.2838 -383.8464 30251.0115 -70.9491 20.8735
ENERGY: 1200000 13.2059 4.7757 4.8269 0.0000 -10815.0711 1480.3358 0.0000 0.0000 1732.1768 -7579.7500 294.1853 -9311.9268 -7436.4479 298.7633 -29.0528 78.3281 29986.0032 -81.2119 6.6167
ENERGY: 1500000 8.7508 6.5032 4.9141 0.0000 -10694.4425 1447.1170 0.0000 0.0000 1711.9861 -7515.1713 290.7562 -9227.1575 -7434.7734 298.4348 185.2103 240.8788 30336.2819 -112.6443 -29.0043
TCL: Running FEP window   8: Lambda1 0.6499999999999997 Lambda2 0.5999999999999996 [dLambda -0.050000000000000044]
TCL: Setting parameter firsttimestep to 0
TCL: Setting parameter alchLambda to 0.6499999999999997
Info: NONBONDED TABLE R-SQUARED SPACING: 0.0625
Info: NONBONDED TABLE SIZE: 705 POINTS
TCL: Setting parameter alchLambda2 to 0.5999999999999996
Info: NONBONDED TABLE R-SQUARED SPACING: 0.0625
Info: NONBONDED TABLE SIZE: 705 POINTS
TCL: Running for 1500000 steps
ETITLE: TS BOND ANGLE DIHED IMPRP ELECT VDW BOUNDARY MISC KINETIC TOTAL TEMP POTENTIAL TOTALAVG TEMPAVG PRESSURE GPRESSURE VOLUME PRESSAVG GPRESSAVG
ENERGY: 0 8.7508 6.5032 4.9141 0.0000 -10694.1088 1448.3948 0.0000 0.0000 1711.1098 -7514.4362 290.6074 -9225.5460 -7514.4362 290.6074 151.8547 238.9483 30336.2819 151.8547 238.9483
ENERGY: 300000 9.3180 5.7658 6.2877 0.0000 -10800.3616 1557.2353 0.0000 0.0000 1766.2168 -7455.5380 299.9665 -9221.7548 -7479.5563 298.9829 883.2449 854.0817 30668.9575 360.5927 409.3491
ENERGY: 600000 6.2839 5.1645 4.0204 0.0000 -10646.1939 1387.4021 0.0000 0.0000 1727.6209 -7515.7021 293.4115 -9243.3230 -7469.1405 298.3056 -375.4483 -320.7930 30507.6802 262.6168 309.6768
ENERGY: 900000 5.4231 5.1121 8.2811 0.0000 -10771.6864 1469.6345 0.0000 0.0000 1823.9954 -7459.2401 309.7794 -9283.2355 -7458.1414 300.8571 348.8949 355.1882 30286.2658 256.4153 303.7038
ENERGY: 1200000 5.7006 4.2687 6.4149 0.0000 -10657.7917 1447.7875 0.0000 0.0000 1736.8719 -7456.7481 294.9827 -9193.6200 -7457.7402 300.2506 120.8928 216.5697 30718.4377 176.2921 226.3321
ENERGY: 1500000 4.6382 3.3270 4.2094 0.0000 -10702.3573 1453.5704 0.0000 0.0000 1721.2565 -7515.3558 292.3306 -9236.6123 -7450.2812 300.3006 110.4789 153.6443 30195.7862 89.3341 139.7469
TCL: Running FEP window   9: Lambda1 0.5999999999999996 Lambda2 0.5499999999999996 [dLambda -0.050000000000000044]
TCL: Setting parameter firsttimestep to 0
TCL: Setting parameter alchLambda to 0.5999999999999996
Info: NONBONDED TABLE R-SQUARED SPACING: 0.0625
Info: NONBONDED TABLE SIZE: 705 POINTS
TCL: Setting parameter alchLambda2 to 0.5499999999999996
Info: NONBONDED TABLE R-SQUARED SPACING: 0.0625
Info: NONBONDED TABLE SIZE: 705 POINTS
TCL: Running for 1500000 steps
ETITLE: TS BOND ANGLE DIHED IMPRP ELECT VDW BOUNDARY MISC KINETIC TOTAL TEMP POTENTIAL TOTALAVG TEMPAVG PRESSURE GPRESSURE VOLUME PRESSAVG GPRESSAVG
ENERGY: 0 4.6382 3.3270 4.2094 0.0000 -10702.2025 1454.8406 0.0000 0.0000 1720.4046 -7514.7827 292.1860 -9235.1874 -7514.7827 292.1860 66.1296 152.2262 30195.7862 66.1296 152.2262
ENERGY: 300000 7.4518 6.7161 6.4484 0.0000 -10900.2484 1590.3062 0.0000 0.0000 1821.9089 -7467.4170 309.4250 -9289.3259 -7459.8654 299.2912 1389.1170 1480.2293 29863.8363 395.1188 480.6487
ENERGY: 600000 5.9772 3.7694 5.0345 0.0000 -10662.2341 1414.1336 0.0000 0.0000 1763.2649 -7470.0547 299.4651 -9233.3195 -7436.4562 300.3254 -295.0602 -247.3238 30396.5710 179.6512 255.3003
ENERGY: 900000 10.8644 3.6034 4.5962 0.0000 -10543.9888 1393.2577 0.0000 0.0000 1751.7758 -7379.8912 297.5139 -9131.6670 -7437.7178 299.8205 -203.4145 -127.9329 30641.3779 128.4760 208.2403
ENERGY: 1200000 10.2628 4.3744 5.4602 0.0000 -10742.0870 1441.5841 0.0000 0.0000 1740.2159 -7540.1896 295.5506 -9280.4055 -7450.8971 298.7430 -281.3121 -218.5604 30565.7163 -60.6355 17.8463
ENERGY: 1500000 5.5926 6.8923 2.5167 0.0000 -10678.8383 1443.6217 0.0000 0.0000 1743.7532 -7476.4617 296.1514 -9220.2149 -7446.6136 299.5227 -25.0027 -3.3320 30582.5689 -12.0516 63.7265
TCL: Running FEP window  10: Lambda1 0.5499999999999996 Lambda2 0.4999999999999996 [dLambda -0.04999999999999999]
TCL: Setting parameter firsttimestep to 0
TCL: Setting parameter alchLambda to 0.5499999999999996
Info: NONBONDED TABLE R-SQUARED SPACING: 0.0625
Info: NONBONDED TABLE SIZE: 705 POINTS
TCL: Setting parameter alchLambda2 to 0.4999999999999996
Info: NONBONDED TABLE R-SQUARED SPACING: 0.0625
Info: NONBONDED TABLE SIZE: 705 POINTS
TCL: Running for 1500000 steps
ETITLE: TS BOND ANGLE DIHED IMPRP ELECT VDW BOUNDARY MISC KINETIC TOTAL TEMP POTENTIAL TOTALAVG TEMPAVG PRESSURE GPRESSURE VOLUME PRESSAVG GPRESSAVG
ENERGY: 0 5.5926 6.8923 2.5167 0.0000 -10679.5403 1443.9411 0.0000 0.0000 1742.8565 -7477.7411 295.9991 -9220.5976 -7477.7411 295.9991 -106.3281 -16.8912 30582.5689 -106.3281 -16.8912
ENERGY: 300000 11.6137 4.3030 4.8478 0.0000 -10706.7675 1431.6816 0.0000 0.0000 1810.7352 -7443.5863 307.5273 -9254.3215 -7436.8332 298.4081 -231.1822 -172.3681 30503.8144 -147.6893 -84.2906
ENERGY: 600000 7.6562 4.6451 6.0943 0.0000 -10515.1037 1317.9012 0.0000 0.0000 1749.4574 -7429.3495 297.1202 -9178.8069 -7438.1651 299.9199 -1053.3772 -1011.3982 30641.5365 -401.1853 -330.3453
ENERGY: 900000 7.0309 4.1913 4.8314 0.0000 -10648.7146 1343.5664 0.0000 0.0000 1745.5921 -7543.5025 296.4637 -9289.0946 -7468.0384 298.0384 -919.7419 -886.4186 30599.4963 -303.5915 -241.7810
ENERGY: 1200000 6.6935 6.0162 5.9787 0.0000 -10599.8997 1435.8090 0.0000 0.0000 1750.3503 -7395.0520 297.2718 -9145.4023 -7453.3648 297.7484 225.2389 318.7908 30728.5967 -275.5772 -212.9358
ENERGY: 1500000 8.5752 3.4303 3.8502 0.0000 -10679.9958 1452.1085 0.0000 0.0000 1764.4602 -7447.5713 299.6682 -9212.0315 -7454.5200 298.4415 -34.2101 26.4654 30773.0621 -229.4868 -168.7271
TCL: Running FEP window  11: Lambda1 0.4999999999999996 Lambda2 0.4499999999999996 [dLambda -0.04999999999999999]
TCL: Setting parameter firsttimestep to 0
TCL: Setting parameter alchLambda to 0.4999999999999996
Info: NONBONDED TABLE R-SQUARED SPACING: 0.0625
Info: NONBONDED TABLE SIZE: 705 POINTS
TCL: Setting parameter alchLambda2 to 0.4499999999999996
Info: NONBONDED TABLE R-SQUARED SPACING: 0.0625
Info: NONBONDED TABLE SIZE: 705 POINTS
TCL: Running for 1500000 steps
ETITLE: TS BOND ANGLE DIHED IMPRP ELECT VDW BOUNDARY MISC KINETIC TOTAL TEMP POTENTIAL TOTALAVG TEMPAVG PRESSURE GPRESSURE VOLUME PRESSAVG GPRESSAVG
ENERGY: 0 8.5752 3.4303 3.8502 0.0000 -10680.1548 1452.8643 0.0000 0.0000 1763.5830 -7447.8517 299.5192 -9211.4347 -7447.8517 299.5192 -66.1695 16.2794 30773.0621 -66.1695 16.2794
ENERGY: 300000 4.7556 6.5903 5.6726 0.0000 -10730.1773 1462.7210 0.0000 0.0000 1773.4428 -7476.9949 301.1937 -9250.4377 -7453.5670 300.1544 427.9732 466.0835 30245.6518 267.9951 351.8258
ENERGY: 600000 4.6252 5.2925 6.4556 0.0000 -10701.6796 1470.7663 0.0000 0.0000 1772.6768 -7441.8633 301.0636 -9214.5401 -7450.6694 298.8414 355.8759 379.3329 30208.7977 220.4864 290.0713
ENERGY: 900000 11.0965 2.7508 4.9193 0.0000 -10725.4701 1452.3654 0.0000 0.0000 1805.3588 -7448.9791 306.6142 -9254.3380 -7448.8044 299.4028 -182.0950 -24.4733 30632.6399 35.3706 111.8309
ENERGY: 1200000 5.0966 5.4281 3.0792 0.0000 -10617.1675 1476.9850 0.0000 0.0000 1762.4955 -7364.0830 299.3345 -9126.5785 -7440.0309 299.3315 191.7862 250.3227 31097.4365 54.6013 124.8313
ENERGY: 1500000 6.9226 4.7668 5.9326 0.0000 -10638.4069 1426.2068 0.0000 0.0000 1772.5737 -7422.0044 301.0461 -9194.5781 -7435.1807 299.7809 119.8294 133.7200 30482.1230 2.2009 68.0086
TCL: Running FEP window  12: Lambda1 0.4499999999999996 Lambda2 0.39999999999999963 [dLambda -0.04999999999999999]
TCL: Setting parameter firsttimestep to 0
TCL: Setting parameter alchLambda to 0.4499999999999996
Info: NONBONDED TABLE R-SQUARED SPACING: 0.0625
Info: NONBONDED TABLE SIZE: 705 POINTS
TCL: Setting parameter alchLambda2 to 0.39999999999999963
Info: NONBONDED TABLE R-SQUARED SPACING: 0.0625
Info: NONBONDED TABLE SIZE: 705 POINTS
TCL: Running for 1500000 steps
ETITLE: TS BOND ANGLE DIHED IMPRP ELECT VDW BOUNDARY MISC KINETIC TOTAL TEMP POTENTIAL TOTALAVG TEMPAVG PRESSURE GPRESSURE VOLUME PRESSAVG GPRESSAVG
ENERGY: 0 6.9226 4.7668 5.9326 0.0000 -10638.4071 1426.8349 0.0000 0.0000 1771.7012 -7422.2490 300.8979 -9193.9502 -7422.2490 300.8979 38.4099 124.6754 30482.1230 38.4099 124.6754
ENERGY: 300000 9.3228 5.9692 9.1309 0.0000 -10639.9110 1394.8569 0.0000 0.0000 1741.2754 -7479.3558 295.7306 -9220.6311 -7475.2930 299.8145 -654.9196 -537.0583 30440.0495 -121.2284 -44.6306
ENERGY: 600000 6.5543 6.1027 7.8268 0.0000 -10541.5688 1369.4685 0.0000 0.0000 1782.4314 -7369.1851 302.7203 -9151.6166 -7454.0198 299.9301 -378.2959 -341.0615 31141.3758 -223.6098 -168.9428
ENERGY: 900000 6.3326 4.6690 5.6112 0.0000 -10679.0309 1434.1867 0.0000 0.0000 1719.3744 -7508.8570 292.0110 -9228.2314 -7463.1913 298.6813 -123.6362 -63.7438 30286.1615 -99.6624 -37.9590
ENERGY: 1200000 11.3768 3.7320 5.5640 0.0000 -10633.3944 1396.6773 0.0000 0.0000 1781.2948 -7434.7495 302.5273 -9216.0443 -7450.6706 299.3149 -776.5062 -739.8495 30579.0583 -195.1670 -129.6392
ENERGY: 1500000 7.5651 7.3617 4.5544 0.0000 -10547.5999 1400.4049 0.0000 0.0000 1722.2501 -7405.4636 292.4994 -9127.7137 -7448.6021 299.2914 -351.0761 -233.7842 30579.1840 -212.7013 -140.1218
TCL: Running FEP window  13: Lambda1 0.39999999999999963 Lambda2 0.34999999999999964 [dLambda -0.04999999999999999]
TCL: Setting parameter firsttimestep to 0
TCL: Setting parameter alchLambda to 0.39999999999999963
Info: NONBONDED TABLE R-SQUARED SPACING: 0.0625
Info: NONBONDED TABLE SIZE: 705 POINTS
TCL: Setting parameter alchLambda2 to 0.34999999999999964
Info: NONBONDED TABLE R-SQUARED SPACING: 0.0625
Info: NONBONDED TABLE SIZE: 705 POINTS
TCL: Running for 1500000 steps
ETITLE: TS BOND ANGLE DIHED IMPRP ELECT VDW BOUNDARY MISC KINETIC TOTAL TEMP POTENTIAL TOTALAVG TEMPAVG PRESSURE GPRESSURE VOLUME PRESSAVG GPRESSAVG
ENERGY: 0 7.5651 7.3617 4.5544 0.0000 -10547.6010 1401.0665 0.0000 0.0000 1721.3630 -7405.6902 292.3487 -9127.0532 -7405.6902 292.3487 -337.4096 -241.9159 30579.1840 -337.4096 -241.9159
ENERGY: 300000 5.4588 7.9864 2.7033 0.0000 -10545.0794 1341.9282 0.0000 0.0000 1796.8300 -7390.1728 305.1657 -9187.0028 -7411.9028 298.1031 -878.7425 -758.3941 30784.0732 -244.5958 -155.0388
ENERGY: 600000 4.7343 2.0545 7.9867 0.0000 -10634.6354 1435.0592 0.0000 0.0000 1755.9876 -7428.8130 298.2292 -9184.8006 -7420.0493 299.4437 -216.8473 -129.0572 30730.3606 -324.0521 -229.1309
ENERGY: 900000 10.4975 8.3793 4.3407 0.0000 -10623.6221 1389.2350 0.0000 0.0000 1749.1472 -7462.0224 297.0675 -9211.1696 -7430.1456 298.9472 -1042.4976 -999.0851 31357.8297 -389.9578 -312.0840
ENERGY: 1200000 3.4342 4.0126 8.4281 0.0000 -10613.5240 1381.8965 0.0000 0.0000 1741.1103 -7474.6424 295.7025 -9215.7527 -7443.6284 298.3585 -64.8198 -50.2641 29999.0761 -267.7253 -192.5552
ENERGY: 1500000 8.6644 8.3213 8.1238 0.0000 -10730.2176 1505.3280 0.0000 0.0000 1775.1396 -7424.6404 301.4819 -9199.7800 -7434.8790 298.8032 883.4142 823.6263 29944.9250 -232.5711 -165.2476
TCL: Running FEP window  14: Lambda1 0.34999999999999964 Lambda2 0.29999999999999966 [dLambda -0.04999999999999999]
TCL: Setting parameter firsttimestep to 0
TCL: Setting parameter alchLambda to 0.34999999999999964
Info: NONBONDED TABLE R-SQUARED SPACING: 0.0625
Info: NONBONDED TABLE SIZE: 705 POINTS
TCL: Setting parameter alchLambda2 to 0.29999999999999966
Info: NONBONDED TABLE R-SQUARED SPACING: 0.0625
Info: NONBONDED TABLE SIZE: 705 POINTS
TCL: Running for 1500000 steps
ETITLE: TS BOND ANGLE DIHED IMPRP ELECT VDW BOUNDARY MISC KINETIC TOTAL TEMP POTENTIAL TOTALAVG TEMPAVG PRESSURE GPRESSURE VOLUME PRESSAVG GPRESSAVG
ENERGY: 0 8.6644 8.3213 8.1238 0.0000 -10730.2166 1506.3836 0.0000 0.0000 1774.2479 -7424.4756 301.3305 -9198.7235 -7424.4756 301.3305 739.4854 820.7471 29944.9250 739.4854 820.7471
ENERGY: 300000 5.7266 5.8465 5.9554 0.0000 -10682.1227 1408.2062 0.0000 0.0000 1777.2199 -7479.1680 301.8352 -9256.3880 -7480.5184 301.9594 -395.3178 -326.4448 30625.0624 117.6124 164.4963
ENERGY: 600000 9.5709 9.5901 5.8489 0.0000 -10713.4535 1482.0526 0.0000 0.0000 1798.4598 -7407.9311 305.4425 -9206.3909 -7462.4394 300.9994 132.2994 234.0750 30540.4281 108.8142 147.6828
ENERGY: 900000 5.4910 4.6722 6.2505 0.0000 -10787.0974 1472.3239 0.0000 0.0000 1707.5249 -7590.8349 289.9985 -9298.3598 -7471.2388 300.6592 71.0949 186.9511 30065.4856 121.1774 173.0516
ENERGY: 1200000 4.6160 3.7031 5.5083 0.0000 -10652.4853 1441.5983 0.0000 0.0000 1783.8209 -7413.2388 302.9563 -9197.0597 -7449.9564 300.6647 -107.4638 -45.8510 30505.3272 125.3831 180.3195
ENERGY: 1500000 6.4561 6.4533 8.6553 0.0000 -10566.5802 1385.6459 0.0000 0.0000 1816.8608 -7342.5087 308.5676 -9159.3695 -7436.5876 301.2071 -136.9125 -130.0248 30157.5179 153.7421 205.2646
TCL: Running FEP window  15: Lambda1 0.29999999999999966 Lambda2 0.24999999999999967 [dLambda -0.04999999999999999]
TCL: Setting parameter firsttimestep to 0
TCL: Setting parameter alchLambda to 0.29999999999999966
Info: NONBONDED TABLE R-SQUARED SPACING: 0.0625
Info: NONBONDED TABLE SIZE: 705 POINTS
TCL: Setting parameter alchLambda2 to 0.24999999999999967
Info: NONBONDED TABLE R-SQUARED SPACING: 0.0625
Info: NONBONDED TABLE SIZE: 705 POINTS
TCL: Running for 1500000 steps
ETITLE: TS BOND ANGLE DIHED IMPRP ELECT VDW BOUNDARY MISC KINETIC TOTAL TEMP POTENTIAL TOTALAVG TEMPAVG PRESSURE GPRESSURE VOLUME PRESSAVG GPRESSAVG
ENERGY: 0 6.4562 6.4533 8.6554 0.0000 -10566.5807 1386.4203 0.0000 0.0000 1815.9727 -7342.6229 308.4168 -9158.5956 -7342.6229 308.4168 -221.9516 -134.8466 30157.5179 -221.9516 -134.8466
ENERGY: 300000 4.4505 10.3074 6.1145 0.0000 -10545.9603 1355.2703 0.0000 0.0000 1821.6344 -7348.1831 309.3784 -9169.8175 -7375.6003 307.0291 -581.6435 -492.7147 30663.3777 -131.9479 -66.3259
ENERGY: 600000 4.8200 2.7557 10.5882 0.0000 -10642.9820 1363.0661 0.0000 0.0000 1739.2380 -7522.5140 295.3845 -9261.7520 -7411.1930 302.6064 -1144.7041 -1071.8343 30760.7538 -161.6159 -92.8221
ENERGY: 900000 6.6362 5.0675 5.2114 0.0000 -10761.6775 1481.8523 0.0000 0.0000 1768.7699 -7494.1403 300.4001 -9262.9102 -7427.4706 301.7707 -18.6489 43.3212 30495.7837 -81.8878 -9.5755
ENERGY: 1200000 9.9698 4.8314 7.6341 0.0000 -10496.6603 1341.7882 0.0000 0.0000 1777.1978 -7355.2390 301.8315 -9132.4368 -7421.9018 301.6700 -980.4282 -873.6445 30606.0977 -165.4460 -90.8416
ENERGY: 1500000 6.7132 4.7514 3.6979 0.0000 -10692.3486 1453.7726 0.0000 0.0000 1732.8515 -7490.5620 294.2999 -9223.4135 -7436.4029 301.3896 102.6677 181.3595 30196.3474 -139.8605 -59.4062
TCL: Running FEP window  16: Lambda1 0.24999999999999967 Lambda2 0.19999999999999968 [dLambda -0.04999999999999999]
TCL: Setting parameter firsttimestep to 0
TCL: Setting parameter alchLambda to 0.24999999999999967
Info: NONBONDED TABLE R-SQUARED SPACING: 0.0625
Info: NONBONDED TABLE SIZE: 705 POINTS
TCL: Setting parameter alchLambda2 to 0.19999999999999968
Info: NONBONDED TABLE R-SQUARED SPACING: 0.0625
Info: NONBONDED TABLE SIZE: 705 POINTS
TCL: Running for 1500000 steps
ETITLE: TS BOND ANGLE DIHED IMPRP ELECT VDW BOUNDARY MISC KINETIC TOTAL TEMP POTENTIAL TOTALAVG TEMPAVG PRESSURE GPRESSURE VOLUME PRESSAVG GPRESSAVG
ENERGY: 0 6.7132 4.7514 3.6979 0.0000 -10692.3475 1454.7265 0.0000 0.0000 1731.9712 -7490.4873 294.1504 -9222.4585 -7490.4873 294.1504 89.3541 179.8511 30196.3474 89.3541 179.8511
ENERGY: 300000 7.6993 3.8732 4.5888 0.0000 -10602.1522 1399.3381 0.0000 0.0000 1787.0709 -7399.5820 303.5083 -9186.6529 -7434.8025 298.9499 -101.9160 44.0526 30137.3015 64.7404 139.1180
ENERGY: 600000 6.2864 3.8113 5.0404 0.0000 -10646.9572 1417.9825 0.0000 0.0000 1805.3382 -7408.4984 306.6107 -9213.8366 -7409.6065 301.8112 203.5069 187.8798 29844.1121 138.1667 205.8046
ENERGY: 900000 8.2385 7.6736 8.7545 0.0000 -10793.4978 1548.1127 0.0000 0.0000 1755.0002 -7465.7183 298.0615 -9220.7185 -7415.5779 300.5395 895.6014 917.8355 29935.7543 109.7254 177.6415
ENERGY: 1200000 7.7012 4.3091 3.8393 0.0000 -10587.6834 1388.8642 0.0000 0.0000 1743.1756 -7439.7941 296.0533 -9182.9697 -7432.8650 299.4849 -556.5125 -433.0441 30599.3879 -35.3892 40.4284
ENERGY: 1500000 8.0932 4.6438 3.0807 0.0000 -10659.9415 1477.3837 0.0000 0.0000 1777.5345 -7389.2057 301.8886 -9166.7401 -7433.3939 299.9563 76.3472 152.5571 30800.8659 -63.1486 9.7779
TCL: Running FEP window  17: Lambda1 0.19999999999999968 Lambda2 0.1499999999999997 [dLambda -0.04999999999999999]
TCL: Setting parameter firsttimestep to 0
TCL: Setting parameter alchLambda to 0.19999999999999968
Info: NONBONDED TABLE R-SQUARED SPACING: 0.0625
Info: NONBONDED TABLE SIZE: 705 POINTS
TCL: Setting parameter alchLambda2 to 0.1499999999999997
Info: NONBONDED TABLE R-SQUARED SPACING: 0.0625
Info: NONBONDED TABLE SIZE: 705 POINTS
TCL: Running for 1500000 steps
ETITLE: TS BOND ANGLE DIHED IMPRP ELECT VDW BOUNDARY MISC KINETIC TOTAL TEMP POTENTIAL TOTALAVG TEMPAVG PRESSURE GPRESSURE VOLUME PRESSAVG GPRESSAVG
ENERGY: 0 8.0932 4.6438 3.0807 0.0000 -10659.9408 1477.4593 0.0000 0.0000 1776.6676 -7389.9961 301.7414 -9166.6637 -7389.9961 301.7414 66.6314 144.0666 30800.8659 66.6314 144.0666
ENERGY: 300000 11.3567 3.9319 8.2924 0.0000 -10736.1233 1485.1084 0.0000 0.0000 1729.1301 -7498.3037 293.6679 -9227.4338 -7449.6445 298.0983 406.0221 472.9024 30108.9680 134.3161 190.9121
ENERGY: 600000 7.6219 3.6328 4.6574 0.0000 -10592.8681 1389.6158 0.0000 0.0000 1714.0262 -7473.3140 291.1027 -9187.3403 -7448.4803 297.8185 -730.6918 -678.8105 31031.6122 111.4341 168.1035
ENERGY: 900000 5.8075 5.7766 3.3000 0.0000 -10630.4639 1333.5815 0.0000 0.0000 1780.1456 -7501.8527 302.3321 -9281.9982 -7438.6594 299.2869 -1009.0003 -933.6143 30362.0400 6.0671 57.0511
ENERGY: 1200000 9.0023 4.4920 5.4396 0.0000 -10575.7912 1426.5702 0.0000 0.0000 1710.5069 -7419.7800 290.5050 -9130.2870 -7438.5418 298.6274 -135.2704 -40.7936 30570.3082 -3.9220 54.6660
ENERGY: 1500000 12.3288 4.4506 3.0476 0.0000 -10882.7240 1643.2777 0.0000 0.0000 1791.8431 -7427.7761 304.3188 -9219.6192 -7440.0455 299.3323 1639.8163 1700.8956 30229.4775 101.5067 160.7111
TCL: Running FEP window  18: Lambda1 0.1499999999999997 Lambda2 0.09999999999999969 [dLambda -0.05 ]
TCL: Setting parameter firsttimestep to 0
TCL: Setting parameter alchLambda to 0.1499999999999997
Info: NONBONDED TABLE R-SQUARED SPACING: 0.0625
Info: NONBONDED TABLE SIZE: 705 POINTS
TCL: Setting parameter alchLambda2 to 0.09999999999999969
Info: NONBONDED TABLE R-SQUARED SPACING: 0.0625
Info: NONBONDED TABLE SIZE: 705 POINTS
TCL: Running for 1500000 steps
ETITLE: TS BOND ANGLE DIHED IMPRP ELECT VDW BOUNDARY MISC KINETIC TOTAL TEMP POTENTIAL TOTALAVG TEMPAVG PRESSURE GPRESSURE VOLUME PRESSAVG GPRESSAVG
ENERGY: 0 12.3288 4.4506 3.0476 0.0000 -10882.7237 1643.3251 0.0000 0.0000 1790.9557 -7428.6159 304.1680 -9219.5715 -7428.6159 304.1680 1622.4418 1695.4244 30229.4775 1622.4418 1695.4244
ENERGY: 300000 3.6537 6.1028 7.4229 0.0000 -10617.1199 1501.2858 0.0000 0.0000 1800.0938 -7298.5609 305.7200 -9098.6547 -7471.7242 302.0344 1041.6362 1132.6149 30408.8100 768.8142 840.3027
ENERGY: 600000 5.6602 5.4355 3.1778 0.0000 -10707.1322 1476.1289 0.0000 0.0000 1799.3799 -7417.3499 305.5988 -9216.7298 -7442.6990 302.6054 205.9039 247.8879 30218.9511 425.0620 476.9851
ENERGY: 900000 5.8386 5.7878 7.5277 0.0000 -10635.7759 1426.0736 0.0000 0.0000 1779.0819 -7411.4664 302.1515 -9190.5483 -7427.6217 302.0503 161.2599 149.9881 30054.8663 248.7147 297.3780
ENERGY: 1200000 7.5621 2.6404 3.0776 0.0000 -10741.9206 1550.0567 0.0000 0.0000 1760.1625 -7418.4212 298.9383 -9178.5837 -7439.9352 300.8681 1146.5295 1194.4448 29731.1217 257.3934 310.5444
ENERGY: 1500000 8.4663 5.1482 3.4762 0.0000 -10759.5651 1539.7266 0.0000 0.0000 1769.6533 -7433.0945 300.5501 -9202.7478 -7446.4084 299.9033 839.9518 886.5130 30009.2983 341.0082 397.6032
TCL: Running FEP window  19: Lambda1 0.09999999999999969 Lambda2 0.049999999999999684 [dLambda -0.05 ]
TCL: Setting parameter firsttimestep to 0
TCL: Setting parameter alchLambda to 0.09999999999999969
Info: NONBONDED TABLE R-SQUARED SPACING: 0.0625
Info: NONBONDED TABLE SIZE: 705 POINTS
TCL: Setting parameter alchLambda2 to 0.049999999999999684
Info: NONBONDED TABLE R-SQUARED SPACING: 0.0625
Info: NONBONDED TABLE SIZE: 705 POINTS
TCL: Running for 1500000 steps
ETITLE: TS BOND ANGLE DIHED IMPRP ELECT VDW BOUNDARY MISC KINETIC TOTAL TEMP POTENTIAL TOTALAVG TEMPAVG PRESSURE GPRESSURE VOLUME PRESSAVG GPRESSAVG
ENERGY: 0 8.4663 5.1482 3.4762 0.0000 -10759.5657 1538.7530 0.0000 0.0000 1768.7664 -7434.9556 300.3995 -9203.7220 -7434.9556 300.3995 783.4291 874.1685 30009.2983 783.4291 874.1685
ENERGY: 300000 9.8290 5.0436 5.7358 0.0000 -10800.0554 1441.7153 0.0000 0.0000 1764.0640 -7573.6676 299.6009 -9337.7317 -7489.5638 297.1294 -383.4789 -374.1781 30114.9393 -75.1844 -24.7095
ENERGY: 600000 6.6411 8.3121 2.4847 0.0000 -10588.1132 1387.1005 0.0000 0.0000 1770.2392 -7413.3356 300.6496 -9183.5748 -7458.1425 297.7701 -696.7325 -681.3727 30771.7950 -279.8763 -225.0758
ENERGY: 900000 5.8701 6.1403 6.9552 0.0000 -10651.5893 1457.2115 0.0000 0.0000 1782.9799 -7392.4322 302.8135 -9175.4121 -7446.3207 298.7899 196.5668 267.0521 29956.7754 -234.6520 -181.9207
ENERGY: 1200000 12.2081 4.2671 4.2660 0.0000 -10735.0677 1425.3892 0.0000 0.0000 1753.3029 -7535.6343 297.7733 -9288.9372 -7446.8206 299.2486 -475.2393 -443.5395 29923.1794 -141.4896 -88.2242
ENERGY: 1500000 8.4452 3.9297 11.9998 0.0000 -10623.6355 1437.5703 0.0000 0.0000 1756.2405 -7405.4500 298.2722 -9161.6905 -7447.9426 299.0407 31.4927 33.3697 30248.3173 -97.5833 -51.7074
TCL: Running FEP window  20: Lambda1 0.049999999999999684 Lambda2 0.0    [dLambda -0.049999999999999684]
TCL: Setting parameter firsttimestep to 0
TCL: Setting parameter alchLambda to 0.049999999999999684
Info: NONBONDED TABLE R-SQUARED SPACING: 0.0625
Info: NONBONDED TABLE SIZE: 705 POINTS
TCL: Setting parameter alchLambda2 to 0.0
Info: NONBONDED TABLE R-SQUARED SPACING: 0.0625
Info: NONBONDED TABLE SIZE: 705 POINTS
TCL: Running for 1500000 steps
ETITLE: TS BOND ANGLE DIHED IMPRP ELECT VDW BOUNDARY MISC KINETIC TOTAL TEMP POTENTIAL TOTALAVG TEMPAVG PRESSURE GPRESSURE VOLUME PRESSAVG GPRESSAVG
ENERGY: 0 8.4452 3.9297 11.9998 0.0000 -10623.6346 1437.5834 0.0000 0.0000 1755.4087 -7406.2677 298.1309 -9161.6764 -7406.2677 298.1309 -61.3256 26.8240 30248.3173 -61.3256 26.8240
ENERGY: 300000 11.1626 2.6980 5.1461 0.0000 -10751.4032 1504.0404 0.0000 0.0000 1815.7128 -7412.6433 308.3727 -9228.3561 -7434.7554 300.3102 686.7390 746.6155 29751.8454 -90.4607 -40.8064
ENERGY: 600000 6.5403 7.6539 3.9913 0.0000 -10727.1285 1473.8144 0.0000 0.0000 1812.2150 -7422.9136 307.7786 -9235.1287 -7442.1205 301.9699 467.8727 519.8343 30037.2293 22.3508 84.9624
ENERGY: 900000 7.3002 5.2263 2.2639 0.0000 -10594.9381 1450.0165 0.0000 0.0000 1740.5753 -7389.5558 295.6117 -9130.1311 -7436.3197 300.7428 155.5289 194.9800 30642.7408 -108.1540 -53.7300
ENERGY: 1200000 9.3937 5.9124 8.9558 0.0000 -10726.4957 1408.0095 0.0000 0.0000 1726.6535 -7567.5708 293.2472 -9294.2243 -7448.7186 300.0961 -625.3409 -608.2807 30201.7911 -9.6812 44.2415
ENERGY: 1500000 8.5422 8.3915 4.9080 0.0000 -10559.3254 1337.8236 0.0000 0.0000 1721.9401 -7477.7201 292.4467 -9199.6602 -7444.9537 299.6740 -1313.7730 -1187.0713 30788.9129 -71.0161 -11.4351
TCL: Exiting due to exit command.
