Info: SIMULATION PARAMETERS:
Info: TIMESTEP               2
Info: NUMBER OF STEPS        0
Info: STEPS PER CYCLE        10
Info: PERIODIC CELL BASIS 1  32.1886 0 0
Info: PERIODIC CELL BASIS 2  0 31.0231 0
Info: PERIODIC CELL BASIS 3  0 0 30.7477
Info: PERIODIC CELL CENTER   0 0 0
Info: WRAPPING WATERS AROUND PERIODIC BOUNDARIES ON OUTPUT.
Info: WRAPPING ALL CLUSTERS AROUND PERIODIC BOUNDARIES ON OUTPUT.
Info: FIRST LDB TIMESTEP     50
Info: LAST LDB TIMESTEP     -1
Info: HOM BACKGROUND SCALING 1
Info: PME BACKGROUND SCALING 1
Info: MIN ATOMS PER PATCH    40
Info: EMPTY PATCH LOAD       40 ATOMS
Info: VELOCITY FILE          mobley_8117218_equil.vel
Info: CENTER OF MASS MOVING INITIALLY? NO
Info: DIELECTRIC             1
Info: EXCLUDE                SCALED ONE-FOUR
Info: 1-4 ELECTROSTATICS SCALED BY 0.833333
Info: MODIFIED 1-4 VDW PARAMETERS WILL BE USED
Info: DCD FILENAME           mobley_8117218_prod.dcd
Info: DCD FREQUENCY          100000
Info: DCD FIRST STEP         100000
Info: DCD FILE WILL CONTAIN UNIT CELL DATA
Info: XST FILENAME           mobley_8117218_prod.xst
Info: XST FREQUENCY          100000
Info: NO VELOCITY DCD OUTPUT
Info: NO FORCE DCD OUTPUT
Info: OUTPUT FILENAME        mobley_8117218_prod
Info: BINARY OUTPUT FILES WILL BE USED
Info: RESTART FILENAME       mobley_8117218_prod.restart
Info: RESTART FREQUENCY      100000
Info: BINARY RESTART FILES WILL BE USED
Info: CUTOFF                 9
Info: PAIRLIST DISTANCE      11
Info: PAIRLIST SHRINK RATE   0.01
Info: PAIRLIST GROW RATE     0.01
Info: PAIRLIST TRIGGER       0.3
Info: PAIRLISTS PER CYCLE    2
Info: PAIRLISTS ENABLED
Info: MARGIN                 2
Info: HYDROGEN GROUP CUTOFF  2.5
Info: PATCH DIMENSION        15.5
Info: ENERGY OUTPUT STEPS    100000
Info: ENERGY EVALUATION STEPS    100000
Info: OUTPUT ENERGY PRECISION 4
Info: CROSSTERM ENERGY INCLUDED IN DIHEDRAL
Info: TIMING OUTPUT STEPS    1000000
Info: PRESSURE OUTPUT STEPS  100000
Info: ALCHEMICAL FEP ON
Info: FEP CURRENT LAMBDA VALUE     1
Info: FEP COMPARISON LAMBDA VALUE  0.95
Info: FEP INTRA-ALCHEMICAL NON-BONDED INTERACTIONS WILL BE RETAINED
Info: FEP INTRA-ALCHEMICAL BONDED INTERACTIONS WILL BE RETAINED
Info: FEP VDW SHIFTING COEFFICIENT 5
Info: FEP ELEC. ACTIVE FOR ANNIHILATED PARTICLES BETWEEN LAMBDA = 0 AND LAMBDA = 0.5
Info: FEP ELEC. ACTIVE FOR EXNIHILATED PARTICLES BETWEEN LAMBDA = 0.5 AND LAMBDA = 1
Info: FEP VDW ACTIVE FOR ANNIHILATED PARTICLES BETWEEN LAMBDA = 0 AND LAMBDA = 1
Info: FEP VDW ACTIVE FOR EXNIHILATED PARTICLES BETWEEN LAMBDA = 0 AND LAMBDA = 1
Info: FEP BOND ACTIVE FOR ANNIHILATED PARTICLES BETWEEN LAMBDA = 1 AND LAMBDA = 1
Info: FEP BOND ACTIVE FOR EXNIHILATED PARTICLES BETWEEN LAMBDA = 0 AND LAMBDA = 0
Info: LANGEVIN DYNAMICS ACTIVE
Info: LANGEVIN TEMPERATURE   300
Info: LANGEVIN USING BBK INTEGRATOR
Info: LANGEVIN DAMPING COEFFICIENT IS 1 INVERSE PS
Info: LANGEVIN DYNAMICS APPLIED TO HYDROGENS
Info: LANGEVIN PISTON PRESSURE CONTROL ACTIVE
Info:        TARGET PRESSURE IS 1.01325 BAR
Info:     OSCILLATION PERIOD IS 50 FS
Info:             DECAY TIME IS 25 FS
Info:     PISTON TEMPERATURE IS 300 K
Info:       PRESSURE CONTROL IS GROUP-BASED
Info:    INITIAL STRAIN RATE IS 0.000364046 0.000364046 0.000364046
Info:       CELL FLUCTUATION IS ISOTROPIC
Info: PARTICLE MESH EWALD (PME) ACTIVE
Info: PME TOLERANCE               1e-06
Info: PME EWALD COEFFICIENT       0.348832
Info: PME INTERPOLATION ORDER     4
Info: PME GRID DIMENSIONS         36 32 32
Info: PME MAXIMUM GRID SPACING    1
Info: PME CALCULATION WILL BE PERFORMED ON GPU
Info: FULL ELECTROSTATIC EVALUATION FREQUENCY      2
Info: USING VERLET I (r-RESPA) MTS SCHEME.
Info: C1 SPLITTING OF LONG RANGE ELECTROSTATICS
Info: PLACING ATOMS IN PATCHES BY HYDROGEN GROUPS
Info: RIGID BONDS TO HYDROGEN : ALL
Info:         ERROR TOLERANCE : 1e-08
Info:          MAX ITERATIONS : 100
Info: RIGID WATER USING SETTLE ALGORITHM
Info: RANDOM NUMBER SEED     1743665905
Info: USE HYDROGEN BONDS?    NO
Info: Using AMBER format force field!
Info: AMBER PARM FILE        mobley_8117218.prmtop
Info: COORDINATE PDB         mobley_8117218.pdb
Info: Exclusions will be read from PARM file!
Info: SCNB (VDW SCALING)     2
Info: USING ARITHMETIC MEAN TO COMBINE L-J SIGMA PARAMETERS
Info: BINARY COORDINATES     mobley_8117218_equil.coor
Info: SUMMARY OF PARAMETERS:
Info: 12 BONDS
Info: 19 ANGLES
Info:   19 HARMONIC
Info:   0 COSINE-BASED
Info: 16 DIHEDRAL
Info: 0 IMPROPER
Info: 0 CROSSTERM
Info: 0 VDW
Info: 36 VDW_PAIRS
Info: 0 NBTHOLE_PAIRS
Info: To read alchdata from file: mobley_8117218.pdb
Info: To read alchflag data from column: 5
Info: STRUCTURE SUMMARY:
Info: 2976 ATOMS
Info: 2980 BONDS
Info: 67 ANGLES
Info: 180 DIHEDRALS
Info: 0 IMPROPERS
Info: 0 CROSSTERMS
Info: 3138 EXCLUSIONS
Info: 2957 RIGID BONDS
Info: ALCH: 0 ATOMS TO DISAPPEAR IN FINAL STATE
Info: ALCH: 27 ATOMS TO APPEAR IN FINAL STATE
Info: 5971 DEGREES OF FREEDOM
Info: 1002 HYDROGEN GROUPS
Info: 3 ATOMS IN LARGEST HYDROGEN GROUP
Info: 1002 MIGRATION GROUPS
Info: 3 ATOMS IN LARGEST MIGRATION GROUP
Info: TOTAL MASS = 18090.6 amu
Info: TOTAL CHARGE = 9.99887e-05 e
Info: MASS DENSITY = 0.978392 g/cm^3
Info: ATOM DENSITY = 0.0969244 atoms/A^3
Info: ADDED 0 IMPLICIT EXCLUSIONS
Info: NONBONDED TABLE R-SQUARED SPACING: 0.0625
Info: NONBONDED TABLE SIZE: 705 POINTS
Info: REDUCING NUMBER OF PATCHES TO IMPROVE LOAD BALANCE
Info: REMOVING COM VELOCITY -0.113094 -0.020576 0.00567624
Info: Use 3D box decompostion in PME FFT.
Info: Updated CUDA force table with 4096 elements.
Info: Updated CUDA LJ table with 8 x 8 elements.
Info: Found 30 unique exclusion lists needing 100 bytes
TCL: Running for 1500000 steps
ETITLE: TS BOND ANGLE DIHED IMPRP ELECT VDW BOUNDARY MISC KINETIC TOTAL TEMP POTENTIAL TOTALAVG TEMPAVG PRESSURE GPRESSURE VOLUME PRESSAVG GPRESSAVG
ENERGY: 0 19.0286 227.1923 21.5142 0.0000 -10825.5049 1429.8001 0.0000 0.0000 1847.3731 -7280.5965 311.3852 -9127.9696 -7280.5965 311.3852 -507.7446 -414.8245 30704.3304 -507.7446 -414.8245
ENERGY: 300000 15.1014 226.9171 22.8454 0.0000 -10742.0734 1455.6283 0.0000 0.0000 1780.9164 -7240.6648 300.1835 -9021.5812 -7243.4783 301.5603 119.2154 124.0614 30981.2442 -201.0283 -148.7680
ENERGY: 600000 12.1852 221.2999 23.8136 0.0000 -10889.6826 1555.8016 0.0000 0.0000 1779.1845 -7297.3977 299.8916 -9076.5822 -7232.3136 301.5674 1221.0968 1249.1722 30059.0037 204.9492 258.7231
ENERGY: 900000 20.4826 229.5482 22.4206 0.0000 -10720.0478 1421.7414 0.0000 0.0000 1738.4037 -7287.4513 293.0178 -9025.8550 -7225.3893 300.7147 -379.2287 -290.5816 30643.5261 129.0340 183.1245
ENERGY: 1200000 16.3295 228.2471 22.2753 0.0000 -10709.3158 1415.7667 0.0000 0.0000 1752.4449 -7274.2525 295.3845 -9026.6973 -7236.4036 299.7336 -371.1666 -346.4041 30877.2822 63.7870 113.4236
ENERGY: 1500000 16.2416 226.3040 22.1858 0.0000 -10767.9831 1466.9593 0.0000 0.0000 1761.7736 -7274.5187 296.9569 -9036.2923 -7237.7594 300.2120 317.2173 403.8987 30319.4683 104.6185 156.7660
TCL: Running FEP window   2: Lambda1 0.95   Lambda2 0.8999999999999999 [dLambda -0.050000000000000044]
TCL: Setting parameter firsttimestep to 0
TCL: Setting parameter alchLambda to 0.95
Info: NONBONDED TABLE R-SQUARED SPACING: 0.0625
Info: NONBONDED TABLE SIZE: 705 POINTS
TCL: Setting parameter alchLambda2 to 0.8999999999999999
Info: NONBONDED TABLE R-SQUARED SPACING: 0.0625
Info: NONBONDED TABLE SIZE: 705 POINTS
TCL: Running for 1500000 steps
ETITLE: TS BOND ANGLE DIHED IMPRP ELECT VDW BOUNDARY MISC KINETIC TOTAL TEMP POTENTIAL TOTALAVG TEMPAVG PRESSURE GPRESSURE VOLUME PRESSAVG GPRESSAVG
ENERGY: 0 16.2416 226.3040 22.1858 0.0000 -10767.1314 1468.1092 0.0000 0.0000 1760.8987 -7273.3920 296.8094 -9034.2907 -7273.3920 296.8094 317.3572 398.2801 30319.4683 317.3572 398.2801
ENERGY: 300000 15.8639 221.0540 22.9444 0.0000 -10736.7408 1554.8778 0.0000 0.0000 1755.6577 -7166.3429 295.9260 -8922.0007 -7260.7815 298.2319 890.0802 909.5003 31403.1200 45.4898 104.9532
ENERGY: 600000 19.2743 219.6554 23.9293 0.0000 -10775.7550 1543.6823 0.0000 0.0000 1782.6869 -7186.5268 300.4820 -8969.2137 -7249.0812 298.3298 896.1224 917.1495 30621.9876 232.2330 283.1599
ENERGY: 900000 19.2464 229.9384 22.1698 0.0000 -10749.6318 1462.0905 0.0000 0.0000 1785.5578 -7230.6289 300.9659 -9016.1867 -7231.0553 299.2409 45.5780 154.4948 30382.0988 20.6110 81.4263
ENERGY: 1200000 29.5348 230.4712 21.8163 0.0000 -10809.6656 1435.3017 0.0000 0.0000 1823.6922 -7268.8494 307.3936 -9092.5415 -7234.1797 299.7625 -491.2996 -466.4583 30822.1316 -36.1341 23.6414
ENERGY: 1500000 16.0040 225.5420 23.2054 0.0000 -10698.9468 1403.4097 0.0000 0.0000 1751.5821 -7279.2036 295.2391 -9030.7857 -7235.3298 299.1795 -522.5102 -445.3476 30972.0234 -1.6197 61.4058
TCL: Running FEP window   3: Lambda1 0.8999999999999999 Lambda2 0.8499999999999999 [dLambda -0.050000000000000044]
TCL: Setting parameter firsttimestep to 0
TCL: Setting parameter alchLambda to 0.8999999999999999
Info: NONBONDED TABLE R-SQUARED SPACING: 0.0625
Info: NONBONDED TABLE SIZE: 705 POINTS
TCL: Setting parameter alchLambda2 to 0.8499999999999999
Info: NONBONDED TABLE R-SQUARED SPACING: 0.0625
Info: NONBONDED TABLE SIZE: 705 POINTS
TCL: Running for 1500000 steps
ETITLE: TS BOND ANGLE DIHED IMPRP ELECT VDW BOUNDARY MISC KINETIC TOTAL TEMP POTENTIAL TOTALAVG TEMPAVG PRESSURE GPRESSURE VOLUME PRESSAVG GPRESSAVG
ENERGY: 0 16.0040 225.5420 23.2054 0.0000 -10698.0073 1404.1708 0.0000 0.0000 1750.7222 -7278.3630 295.0941 -9029.0852 -7278.3630 295.0941 -533.7994 -452.3008 30972.0234 -533.7994 -452.3008
ENERGY: 300000 16.1199 233.2187 21.8005 0.0000 -10777.5970 1484.1326 0.0000 0.0000 1754.3547 -7267.9705 295.7064 -9022.3253 -7278.7499 296.0756 172.2084 230.8805 30927.4893 -349.8352 -271.2297
ENERGY: 600000 14.4955 230.6572 22.2774 0.0000 -10741.2539 1486.6128 0.0000 0.0000 1783.5281 -7203.6829 300.6237 -8987.2110 -7251.1965 298.6899 621.7587 676.9752 30476.7813 -119.5495 -57.5006
ENERGY: 900000 16.2551 233.3274 22.2553 0.0000 -10725.2064 1419.1128 0.0000 0.0000 1785.6021 -7248.6537 300.9733 -9034.2557 -7249.6817 299.5428 -223.1763 -154.4830 30714.9665 -87.0458 -13.1391
ENERGY: 1200000 13.4127 228.6936 22.6398 0.0000 -10821.2133 1444.3766 0.0000 0.0000 1770.0325 -7342.0581 298.3490 -9112.0906 -7257.0485 299.7167 -127.2159 -31.7055 30378.4919 -66.9566 10.3162
ENERGY: 1500000 17.0896 228.6669 23.8133 0.0000 -10705.3865 1429.4078 0.0000 0.0000 1807.3250 -7199.0840 304.6348 -9006.4090 -7254.1793 299.5172 118.7456 127.3914 31017.0391 -67.7383 4.2555
TCL: Running FEP window   4: Lambda1 0.8499999999999999 Lambda2 0.7999999999999998 [dLambda -0.050000000000000044]
TCL: Setting parameter firsttimestep to 0
TCL: Setting parameter alchLambda to 0.8499999999999999
Info: NONBONDED TABLE R-SQUARED SPACING: 0.0625
Info: NONBONDED TABLE SIZE: 705 POINTS
TCL: Setting parameter alchLambda2 to 0.7999999999999998
Info: NONBONDED TABLE R-SQUARED SPACING: 0.0625
Info: NONBONDED TABLE SIZE: 705 POINTS
TCL: Running for 1500000 steps
ETITLE: TS BOND ANGLE DIHED IMPRP ELECT VDW BOUNDARY MISC KINETIC TOTAL TEMP POTENTIAL TOTALAVG TEMPAVG PRESSURE GPRESSURE VOLUME PRESSAVG GPRESSAVG
ENERGY: 0 17.0896 228.6669 23.8133 0.0000 -10704.4835 1430.1136 0.0000 0.0000 1806.4029 -7198.3972 304.4794 -9004.8001 -7198.3972 304.4794 46.3889 122.5252 31017.0391 46.3889 122.5252
ENERGY: 300000 13.4705 226.2926 22.1989 0.0000 -10680.0712 1375.4025 0.0000 0.0000 1838.8352 -7203.8717 309.9461 -9042.7068 -7214.3159 304.7362 -564.2649 -493.8677 30699.4953 -90.1858 -15.9378
ENERGY: 600000 25.0553 228.3957 22.4701 0.0000 -10624.6156 1396.2548 0.0000 0.0000 1784.0795 -7168.3600 300.7167 -8952.4396 -7189.9535 304.4224 -420.9599 -359.8379 30983.0489 -87.3470 -15.4101
ENERGY: 900000 26.6755 218.7534 23.0609 0.0000 -10653.2494 1398.6309 0.0000 0.0000 1684.9944 -7301.1342 284.0153 -8986.1286 -7195.6243 302.6219 -644.6603 -581.9742 30888.4360 -57.7628 9.5772
ENERGY: 1200000 17.4419 227.2741 23.2486 0.0000 -10704.9259 1370.8162 0.0000 0.0000 1732.9337 -7333.2115 292.0958 -9066.1451 -7206.9591 301.7213 -652.8265 -568.0707 30195.8157 -120.1544 -51.5137
ENERGY: 1500000 14.2478 234.3583 23.5675 0.0000 -10659.2972 1444.0534 0.0000 0.0000 1791.9425 -7151.1277 302.0420 -8943.0703 -7210.6487 300.7314 80.1558 125.3946 31053.1425 -91.8381 -26.7291
TCL: Running FEP window   5: Lambda1 0.7999999999999998 Lambda2 0.7499999999999998 [dLambda -0.050000000000000044]
TCL: Setting parameter firsttimestep to 0
TCL: Setting parameter alchLambda to 0.7999999999999998
Info: NONBONDED TABLE R-SQUARED SPACING: 0.0625
Info: NONBONDED TABLE SIZE: 705 POINTS
TCL: Setting parameter alchLambda2 to 0.7499999999999998
Info: NONBONDED TABLE R-SQUARED SPACING: 0.0625
Info: NONBONDED TABLE SIZE: 705 POINTS
TCL: Running for 1500000 steps
ETITLE: TS BOND ANGLE DIHED IMPRP ELECT VDW BOUNDARY MISC KINETIC TOTAL TEMP POTENTIAL TOTALAVG TEMPAVG PRESSURE GPRESSURE VOLUME PRESSAVG GPRESSAVG
ENERGY: 0 14.2478 234.3583 23.5675 0.0000 -10658.2872 1443.9967 0.0000 0.0000 1791.1124 -7151.0047 301.9021 -8942.1170 -7151.0047 301.9021 43.6560 106.5657 31053.1425 43.6560 106.5657
ENERGY: 300000 15.4941 227.3126 22.4565 0.0000 -10651.2671 1414.2884 0.0000 0.0000 1771.3371 -7200.3784 298.5689 -8971.7155 -7166.6085 301.9476 72.6775 46.2398 30464.3380 191.4172 243.8369
ENERGY: 600000 9.9966 229.8033 22.3585 0.0000 -10643.8655 1373.5129 0.0000 0.0000 1760.5055 -7247.6888 296.7431 -9008.1943 -7183.9763 300.9518 -648.9835 -597.4816 30868.5396 37.5870 98.8627
ENERGY: 900000 23.0265 215.6554 22.3817 0.0000 -10888.7314 1551.5238 0.0000 0.0000 1770.2038 -7305.9402 298.3779 -9076.1441 -7216.9872 299.5650 751.6288 731.6796 30371.9724 22.4862 70.0521
ENERGY: 1200000 15.2866 226.7491 23.3945 0.0000 -10811.3578 1513.2313 0.0000 0.0000 1827.4396 -7205.2567 308.0253 -9032.6963 -7214.1006 300.6875 656.3177 717.6634 30487.3656 39.8245 91.8015
ENERGY: 1500000 20.5500 228.9613 22.3010 0.0000 -10763.8171 1468.4568 0.0000 0.0000 1738.3247 -7285.2232 293.0044 -9023.5479 -7230.3997 300.0357 160.6946 212.3305 30715.7507 -12.4727 43.2168
TCL: Running FEP window   6: Lambda1 0.7499999999999998 Lambda2 0.6999999999999997 [dLambda -0.050000000000000044]
TCL: Setting parameter firsttimestep to 0
TCL: Setting parameter alchLambda to 0.7499999999999998
Info: NONBONDED TABLE R-SQUARED SPACING: 0.0625
Info: NONBONDED TABLE SIZE: 705 POINTS
TCL: Setting parameter alchLambda2 to 0.6999999999999997
Info: NONBONDED TABLE R-SQUARED SPACING: 0.0625
Info: NONBONDED TABLE SIZE: 705 POINTS
TCL: Running for 1500000 steps
ETITLE: TS BOND ANGLE DIHED IMPRP ELECT VDW BOUNDARY MISC KINETIC TOTAL TEMP POTENTIAL TOTALAVG TEMPAVG PRESSURE GPRESSURE VOLUME PRESSAVG GPRESSAVG
ENERGY: 0 20.5500 228.9614 22.3010 0.0000 -10763.3298 1469.3407 0.0000 0.0000 1737.3959 -7284.7809 292.8479 -9022.1767 -7284.7809 292.8479 126.7187 206.7964 30715.7507 126.7187 206.7964
ENERGY: 300000 23.8053 224.0989 22.9507 0.0000 -10676.7047 1365.7256 0.0000 0.0000 1774.1047 -7266.0195 299.0354 -9040.1241 -7271.6424 297.2077 -1153.3171 -1051.6357 30942.5107 -210.3918 -112.0818
ENERGY: 600000 18.1111 222.6852 22.9714 0.0000 -10677.4880 1435.3842 0.0000 0.0000 1724.7394 -7253.5967 290.7146 -8978.3361 -7252.5184 296.3617 -1.6144 91.3611 30767.5259 -193.4434 -110.6099
ENERGY: 900000 20.4123 226.8296 21.9139 0.0000 -10663.9714 1405.6067 0.0000 0.0000 1767.0592 -7222.1497 297.8478 -8989.2089 -7244.6590 296.5207 -618.7238 -540.2986 30949.1607 -103.5490 -29.1399
ENERGY: 1200000 20.3594 221.8856 23.4338 0.0000 -10704.8058 1368.1143 0.0000 0.0000 1753.1523 -7317.8604 295.5037 -9071.0127 -7248.8626 297.4364 -574.5881 -471.6768 30027.3540 -164.8197 -91.2586
ENERGY: 1500000 17.0144 227.6750 23.9839 0.0000 -10714.9203 1451.8266 0.0000 0.0000 1753.4188 -7241.0016 295.5487 -8994.4205 -7246.0807 297.5752 -104.3037 -72.3114 30791.4063 -145.8599 -81.5713
TCL: Running FEP window   7: Lambda1 0.6999999999999997 Lambda2 0.6499999999999997 [dLambda -0.050000000000000044]
TCL: Setting parameter firsttimestep to 0
TCL: Setting parameter alchLambda to 0.6999999999999997
Info: NONBONDED TABLE R-SQUARED SPACING: 0.0625
Info: NONBONDED TABLE SIZE: 705 POINTS
TCL: Setting parameter alchLambda2 to 0.6499999999999997
Info: NONBONDED TABLE R-SQUARED SPACING: 0.0625
Info: NONBONDED TABLE SIZE: 705 POINTS
TCL: Running for 1500000 steps
ETITLE: TS BOND ANGLE DIHED IMPRP ELECT VDW BOUNDARY MISC KINETIC TOTAL TEMP POTENTIAL TOTALAVG TEMPAVG PRESSURE GPRESSURE VOLUME PRESSAVG GPRESSAVG
ENERGY: 0 17.0144 227.6750 23.9839 0.0000 -10713.6197 1452.2972 0.0000 0.0000 1752.5430 -7240.1063 295.4010 -8992.6493 -7240.1063 295.4010 -154.7645 -78.2663 30791.4063 -154.7645 -78.2663
ENERGY: 300000 12.5736 225.9562 22.7505 0.0000 -10728.1015 1447.3603 0.0000 0.0000 1749.4377 -7270.0232 294.8776 -9019.4609 -7236.7910 297.3355 12.6270 48.4342 30623.0967 71.5308 129.5277
ENERGY: 600000 18.4273 222.0416 22.2991 0.0000 -10645.0713 1421.9583 0.0000 0.0000 1828.4689 -7131.8760 308.1988 -8960.3449 -7211.8946 299.1929 -198.4307 -153.3301 31047.7026 39.1947 99.0578
ENERGY: 900000 11.1990 222.9199 23.9321 0.0000 -10626.6398 1381.2451 0.0000 0.0000 1787.8112 -7199.5325 301.3457 -8987.3438 -7210.3659 299.6192 -467.9099 -399.4261 30859.5680 27.6795 89.7699
ENERGY: 1200000 24.7012 221.3416 24.0738 0.0000 -10512.0118 1304.8546 0.0000 0.0000 1755.0844 -7181.9562 295.8294 -8937.0406 -7205.0642 298.9223 -1258.8238 -1145.2078 30764.8336 -148.1243 -80.9247
ENERGY: 1500000 14.9995 235.2982 23.5985 0.0000 -10725.1175 1453.8733 0.0000 0.0000 1734.9834 -7262.3647 292.4413 -8997.3481 -7213.6747 298.1960 -70.9330 24.7176 30781.7688 -96.5422 -33.1694
TCL: Running FEP window   8: Lambda1 0.6499999999999997 Lambda2 0.5999999999999996 [dLambda -0.050000000000000044]
TCL: Setting parameter firsttimestep to 0
TCL: Setting parameter alchLambda to 0.6499999999999997
Info: NONBONDED TABLE R-SQUARED SPACING: 0.0625
Info: NONBONDED TABLE SIZE: 705 POINTS
TCL: Setting parameter alchLambda2 to 0.5999999999999996
Info: NONBONDED TABLE R-SQUARED SPACING: 0.0625
Info: NONBONDED TABLE SIZE: 705 POINTS
TCL: Running for 1500000 steps
ETITLE: TS BOND ANGLE DIHED IMPRP ELECT VDW BOUNDARY MISC KINETIC TOTAL TEMP POTENTIAL TOTALAVG TEMPAVG PRESSURE GPRESSURE VOLUME PRESSAVG GPRESSAVG
ENERGY: 0 14.9995 235.2982 23.5985 0.0000 -10724.0474 1454.4611 0.0000 0.0000 1734.0829 -7261.6072 292.2895 -8995.6902 -7261.6072 292.2895 -50.1215 19.3679 30781.7688 -50.1215 19.3679
ENERGY: 300000 20.2108 231.1480 22.3850 0.0000 -10794.3583 1466.8719 0.0000 0.0000 1784.0624 -7269.6803 300.7138 -9053.7426 -7271.2043 296.1585 100.4776 141.6296 30356.7533 -40.9427 -1.6390
ENERGY: 600000 19.5010 219.9900 23.2101 0.0000 -10742.1905 1460.1652 0.0000 0.0000 1714.7709 -7304.5534 289.0343 -9019.3243 -7263.4571 295.8017 -195.8125 -118.9663 30911.0899 -57.1934 -3.4281
ENERGY: 900000 17.3226 222.2464 22.6654 0.0000 -10727.1126 1493.9780 0.0000 0.0000 1715.9149 -7254.9853 289.2272 -8970.9002 -7233.2109 297.6728 538.3949 588.5201 30545.0209 13.8875 68.6992
ENERGY: 1200000 13.6249 231.8294 22.3877 0.0000 -10526.4081 1376.4766 0.0000 0.0000 1802.1468 -7079.9426 303.7620 -8882.0895 -7222.1408 298.4867 -568.4831 -495.3887 31355.1451 -90.1883 -35.4894
ENERGY: 1500000 20.1476 227.1205 23.7161 0.0000 -10720.2539 1432.9159 0.0000 0.0000 1780.9395 -7235.4143 300.1874 -9016.3538 -7228.3708 299.0298 -409.6226 -334.7766 30746.6203 -27.5456 29.1027
TCL: Running FEP window   9: Lambda1 0.5999999999999996 Lambda2 0.5499999999999996 [dLambda -0.050000000000000044]
TCL: Setting parameter firsttimestep to 0
TCL: Setting parameter alchLambda to 0.5999999999999996
Info: NONBONDED TABLE R-SQUARED SPACING: 0.0625
Info: NONBONDED TABLE SIZE: 705 POINTS
TCL: Setting parameter alchLambda2 to 0.5499999999999996
Info: NONBONDED TABLE R-SQUARED SPACING: 0.0625
Info: NONBONDED TABLE SIZE: 705 POINTS
TCL: Running for 1500000 steps
ETITLE: TS BOND ANGLE DIHED IMPRP ELECT VDW BOUNDARY MISC KINETIC TOTAL TEMP POTENTIAL TOTALAVG TEMPAVG PRESSURE GPRESSURE VOLUME PRESSAVG GPRESSAVG
ENERGY: 0 20.1476 227.1205 23.7161 0.0000 -10719.4279 1433.4437 0.0000 0.0000 1780.0478 -7234.9521 300.0371 -9015.0000 -7234.9521 300.0371 -418.6865 -338.8529 30746.6203 -418.6865 -338.8529
ENERGY: 300000 19.2257 230.3708 23.0332 0.0000 -10767.4147 1414.5837 0.0000 0.0000 1774.6672 -7305.5341 299.1302 -9080.2013 -7226.6145 300.3116 -625.4044 -612.0142 30974.4255 -363.7505 -311.1991
ENERGY: 600000 14.5262 228.5275 22.4541 0.0000 -10837.8270 1621.4584 0.0000 0.0000 1793.5137 -7157.3470 302.3069 -8950.8608 -7217.5504 300.6308 1593.0984 1665.5392 30371.0430 -113.8702 -59.2765
ENERGY: 900000 22.2554 221.9234 22.3683 0.0000 -10826.4376 1481.6581 0.0000 0.0000 1826.7901 -7251.4425 307.9158 -9078.2326 -7221.8211 301.1608 72.7298 120.9370 30470.9107 -67.5828 -14.0074
ENERGY: 1200000 27.2569 222.3701 22.2234 0.0000 -10702.2301 1428.0510 0.0000 0.0000 1792.0407 -7210.2880 302.0586 -9002.3287 -7223.6547 301.0123 -228.2194 -140.6011 30524.5720 2.2667 54.4294
ENERGY: 1500000 12.3188 229.5137 22.6237 0.0000 -10751.3189 1487.5001 0.0000 0.0000 1786.0569 -7213.3057 301.0500 -8999.3626 -7226.5377 301.0154 455.6632 515.8314 30327.2104 -49.4284 5.1379
TCL: Running FEP window  10: Lambda1 0.5499999999999996 Lambda2 0.4999999999999996 [dLambda -0.04999999999999999]
TCL: Setting parameter firsttimestep to 0
TCL: Setting parameter alchLambda to 0.5499999999999996
Info: NONBONDED TABLE R-SQUARED SPACING: 0.0625
Info: NONBONDED TABLE SIZE: 705 POINTS
TCL: Setting parameter alchLambda2 to 0.4999999999999996
Info: NONBONDED TABLE R-SQUARED SPACING: 0.0625
Info: NONBONDED TABLE SIZE: 705 POINTS
TCL: Running for 1500000 steps
ETITLE: TS BOND ANGLE DIHED IMPRP ELECT VDW BOUNDARY MISC KINETIC TOTAL TEMP POTENTIAL TOTALAVG TEMPAVG PRESSURE GPRESSURE VOLUME PRESSAVG GPRESSAVG
ENERGY: 0 12.3188 229.5137 22.6237 0.0000 -10751.2235 1487.7655 0.0000 0.0000 1785.1522 -7213.8495 300.8975 -8999.0018 -7213.8495 300.8975 411.2639 504.7374 30327.2104 411.2639 504.7374
ENERGY: 300000 17.4064 226.4829 23.2941 0.0000 -10839.4043 1543.8600 0.0000 0.0000 1766.1732 -7262.1877 297.6985 -9028.3608 -7244.6715 297.5654 1022.5867 1076.5574 30045.4962 503.4048 569.9300
ENERGY: 600000 16.7806 230.3287 23.0407 0.0000 -10706.8471 1433.7599 0.0000 0.0000 1770.8366 -7232.1006 298.4845 -9002.9373 -7233.1503 297.9158 -69.0480 -3.7251 30869.5779 258.0746 330.5181
ENERGY: 900000 10.6151 227.8962 22.5777 0.0000 -10674.3010 1491.3239 0.0000 0.0000 1785.5722 -7136.3159 300.9683 -8921.8881 -7232.1631 298.5203 614.8457 720.3511 30469.7548 270.7832 338.3900
ENERGY: 1200000 13.0830 229.8359 23.1220 0.0000 -10682.0304 1442.7384 0.0000 0.0000 1820.7407 -7152.5105 306.8961 -8973.2512 -7212.7075 300.7649 61.6675 180.6565 30666.2592 212.7383 278.1927
ENERGY: 1500000 10.2675 232.9162 22.2989 0.0000 -10638.2055 1430.5100 0.0000 0.0000 1740.6110 -7201.6019 293.3898 -8942.2129 -7218.9946 299.2054 128.7255 107.8530 30642.5999 116.6030 180.8476
TCL: Running FEP window  11: Lambda1 0.4999999999999996 Lambda2 0.4499999999999996 [dLambda -0.04999999999999999]
TCL: Setting parameter firsttimestep to 0
TCL: Setting parameter alchLambda to 0.4999999999999996
Info: NONBONDED TABLE R-SQUARED SPACING: 0.0625
Info: NONBONDED TABLE SIZE: 705 POINTS
TCL: Setting parameter alchLambda2 to 0.4499999999999996
Info: NONBONDED TABLE R-SQUARED SPACING: 0.0625
Info: NONBONDED TABLE SIZE: 705 POINTS
TCL: Running for 1500000 steps
ETITLE: TS BOND ANGLE DIHED IMPRP ELECT VDW BOUNDARY MISC KINETIC TOTAL TEMP POTENTIAL TOTALAVG TEMPAVG PRESSURE GPRESSURE VOLUME PRESSAVG GPRESSAVG
ENERGY: 0 10.2675 232.9162 22.2989 0.0000 -10638.3311 1430.7659 0.0000 0.0000 1739.7284 -7202.3542 293.2410 -8942.0826 -7202.3542 293.2410 16.4308 96.0442 30642.5999 16.4308 96.0442
ENERGY: 300000 13.7117 225.8574 22.3950 0.0000 -10763.5605 1431.6827 0.0000 0.0000 1727.7133 -7342.2004 291.2158 -9069.9138 -7232.8424 294.3370 -560.8900 -408.2084 30640.3922 -238.4762 -143.0536
ENERGY: 600000 14.3305 225.3178 23.1133 0.0000 -10762.0393 1483.2278 0.0000 0.0000 1794.9194 -7221.1305 302.5438 -9016.0499 -7241.4430 297.3406 152.0129 204.9922 30862.8206 75.1579 156.6435
ENERGY: 900000 22.5260 223.8494 24.5268 0.0000 -10647.0747 1470.6871 0.0000 0.0000 1804.6634 -7100.8220 304.1862 -8905.4853 -7216.3368 299.4795 459.7622 525.8961 30673.8342 117.4979 200.1338
ENERGY: 1200000 20.8153 226.4360 22.5915 0.0000 -10593.4932 1368.6758 0.0000 0.0000 1723.4731 -7231.5016 290.5011 -8954.9747 -7223.0180 299.8708 -607.4205 -557.4462 30860.6818 89.6314 166.7087
ENERGY: 1500000 18.2482 222.3401 22.4396 0.0000 -10719.4204 1409.3251 0.0000 0.0000 1750.4207 -7296.6468 295.0433 -9047.0675 -7233.3515 299.7920 -183.4083 -220.8289 30470.4272 73.9478 136.2319
TCL: Running FEP window  12: Lambda1 0.4499999999999996 Lambda2 0.39999999999999963 [dLambda -0.04999999999999999]
TCL: Setting parameter firsttimestep to 0
TCL: Setting parameter alchLambda to 0.4499999999999996
Info: NONBONDED TABLE R-SQUARED SPACING: 0.0625
Info: NONBONDED TABLE SIZE: 705 POINTS
TCL: Setting parameter alchLambda2 to 0.39999999999999963
Info: NONBONDED TABLE R-SQUARED SPACING: 0.0625
Info: NONBONDED TABLE SIZE: 705 POINTS
TCL: Running for 1500000 steps
ETITLE: TS BOND ANGLE DIHED IMPRP ELECT VDW BOUNDARY MISC KINETIC TOTAL TEMP POTENTIAL TOTALAVG TEMPAVG PRESSURE GPRESSURE VOLUME PRESSAVG GPRESSAVG
ENERGY: 0 18.2482 222.3401 22.4396 0.0000 -10719.4174 1409.8004 0.0000 0.0000 1749.5278 -7297.0613 294.8928 -9046.5892 -7297.0613 294.8928 -313.5073 -224.0356 30470.4272 -313.5073 -224.0356
ENERGY: 300000 14.7882 222.2109 22.7150 0.0000 -10673.2281 1442.8140 0.0000 0.0000 1782.5458 -7188.1542 300.4582 -8970.7000 -7253.4968 299.1593 -31.0703 19.8446 30888.8162 -288.5770 -215.5892
ENERGY: 600000 14.4456 231.8641 22.3158 0.0000 -10881.6705 1492.9918 0.0000 0.0000 1829.4464 -7290.6068 308.3635 -9120.0532 -7252.3999 301.9097 -11.3857 29.7705 30483.6845 -5.3424 45.4433
ENERGY: 900000 16.1977 227.9878 23.1387 0.0000 -10656.8808 1392.3136 0.0000 0.0000 1783.1938 -7214.0494 300.5674 -8997.2431 -7242.4472 300.4338 -415.3658 -390.7624 30796.4749 -168.9613 -116.2118
ENERGY: 1200000 14.7153 229.8962 22.5297 0.0000 -10813.6744 1470.3848 0.0000 0.0000 1711.8642 -7364.2843 288.5444 -9076.1485 -7243.2993 300.2721 85.5002 110.0923 30337.5823 -78.0318 -28.5828
ENERGY: 1500000 17.6405 226.4651 23.3951 0.0000 -10674.0837 1434.4694 0.0000 0.0000 1787.6364 -7184.4773 301.3162 -8972.1137 -7248.7111 299.4604 -53.0171 5.7263 30609.1203 -40.1159 10.8947
TCL: Running FEP window  13: Lambda1 0.39999999999999963 Lambda2 0.34999999999999964 [dLambda -0.04999999999999999]
TCL: Setting parameter firsttimestep to 0
TCL: Setting parameter alchLambda to 0.39999999999999963
Info: NONBONDED TABLE R-SQUARED SPACING: 0.0625
Info: NONBONDED TABLE SIZE: 705 POINTS
TCL: Setting parameter alchLambda2 to 0.34999999999999964
Info: NONBONDED TABLE R-SQUARED SPACING: 0.0625
Info: NONBONDED TABLE SIZE: 705 POINTS
TCL: Running for 1500000 steps
ETITLE: TS BOND ANGLE DIHED IMPRP ELECT VDW BOUNDARY MISC KINETIC TOTAL TEMP POTENTIAL TOTALAVG TEMPAVG PRESSURE GPRESSURE VOLUME PRESSAVG GPRESSAVG
ENERGY: 0 17.6404 226.4652 23.3951 0.0000 -10674.0832 1434.8587 0.0000 0.0000 1786.7373 -7184.9865 301.1647 -8971.7238 -7184.9865 301.1647 -85.4878 -1.9466 30609.1203 -85.4878 -1.9466
ENERGY: 300000 21.1307 227.7907 22.4123 0.0000 -10717.7932 1456.9036 0.0000 0.0000 1809.7692 -7179.7866 305.0468 -8989.5558 -7172.9557 302.5603 -55.4198 59.7462 30817.3222 -10.0758 79.9641
ENERGY: 600000 14.6805 226.1489 23.6426 0.0000 -10662.3851 1453.5090 0.0000 0.0000 1840.8989 -7103.5052 310.2939 -8944.4042 -7159.0652 302.9255 470.9274 511.1505 30118.7203 162.8804 239.4075
ENERGY: 900000 14.9877 224.1579 23.3948 0.0000 -10590.4332 1417.3106 0.0000 0.0000 1754.5288 -7156.0535 295.7357 -8910.5823 -7164.0643 302.0306 165.4889 219.2050 30724.6452 2.6760 80.8225
ENERGY: 1200000 22.5824 224.2553 22.6202 0.0000 -10725.5830 1455.5584 0.0000 0.0000 1801.9328 -7198.6340 303.7260 -9000.5668 -7175.2516 302.4664 -359.4185 -300.3225 30507.2857 -31.7490 34.0515
ENERGY: 1500000 9.3253 233.3685 22.3039 0.0000 -10809.1126 1475.5886 0.0000 0.0000 1769.0092 -7299.5170 298.1765 -9068.5262 -7188.6598 301.5781 14.3108 146.0993 30035.6099 -84.3372 -16.6476
TCL: Running FEP window  14: Lambda1 0.34999999999999964 Lambda2 0.29999999999999966 [dLambda -0.04999999999999999]
TCL: Setting parameter firsttimestep to 0
TCL: Setting parameter alchLambda to 0.34999999999999964
Info: NONBONDED TABLE R-SQUARED SPACING: 0.0625
Info: NONBONDED TABLE SIZE: 705 POINTS
TCL: Setting parameter alchLambda2 to 0.29999999999999966
Info: NONBONDED TABLE R-SQUARED SPACING: 0.0625
Info: NONBONDED TABLE SIZE: 705 POINTS
TCL: Running for 1500000 steps
ETITLE: TS BOND ANGLE DIHED IMPRP ELECT VDW BOUNDARY MISC KINETIC TOTAL TEMP POTENTIAL TOTALAVG TEMPAVG PRESSURE GPRESSURE VOLUME PRESSAVG GPRESSAVG
ENERGY: 0 9.3253 233.3685 22.3039 0.0000 -10809.1130 1476.0657 0.0000 0.0000 1768.1398 -7299.9097 298.0300 -9068.0495 -7299.9097 298.0300 39.5559 136.5290 30035.6099 39.5559 136.5290
ENERGY: 300000 17.5548 230.0075 22.6558 0.0000 -10772.8694 1486.0261 0.0000 0.0000 1718.9473 -7297.6779 289.7383 -9016.6251 -7229.9069 301.1152 417.1640 479.2573 30464.5331 274.9304 323.7750
ENERGY: 600000 13.0235 223.5981 22.9685 0.0000 -10685.2346 1498.6354 0.0000 0.0000 1760.2429 -7166.7662 296.6989 -8927.0091 -7215.5504 301.0097 458.2803 545.8051 30851.1576 208.2857 248.0479
ENERGY: 900000 20.4601 235.7698 23.2072 0.0000 -10788.5842 1512.8060 0.0000 0.0000 1822.0887 -7174.2524 307.1234 -8996.3411 -7208.0686 302.6223 385.0054 449.3097 30547.6147 272.3985 313.8939
ENERGY: 1200000 20.6268 224.6431 23.7792 0.0000 -10708.7509 1513.6303 0.0000 0.0000 1795.4699 -7130.6015 302.6366 -8926.0714 -7194.3285 302.8292 637.3341 678.8892 30672.7192 375.6346 420.9431
ENERGY: 1500000 19.7856 224.8389 22.3762 0.0000 -10664.7300 1391.7654 0.0000 0.0000 1714.0174 -7291.9464 288.9073 -9005.9638 -7196.2201 301.8852 -406.3720 -440.0273 30215.0272 299.1417 336.6516
TCL: Running FEP window  15: Lambda1 0.29999999999999966 Lambda2 0.24999999999999967 [dLambda -0.04999999999999999]
TCL: Setting parameter firsttimestep to 0
TCL: Setting parameter alchLambda to 0.29999999999999966
Info: NONBONDED TABLE R-SQUARED SPACING: 0.0625
Info: NONBONDED TABLE SIZE: 705 POINTS
TCL: Setting parameter alchLambda2 to 0.24999999999999967
Info: NONBONDED TABLE R-SQUARED SPACING: 0.0625
Info: NONBONDED TABLE SIZE: 705 POINTS
TCL: Running for 1500000 steps
ETITLE: TS BOND ANGLE DIHED IMPRP ELECT VDW BOUNDARY MISC KINETIC TOTAL TEMP POTENTIAL TOTALAVG TEMPAVG PRESSURE GPRESSURE VOLUME PRESSAVG GPRESSAVG
ENERGY: 0 19.7856 224.8389 22.3762 0.0000 -10664.7292 1392.4388 0.0000 0.0000 1713.1628 -7292.1269 288.7633 -9005.2897 -7292.1269 288.7633 -530.5016 -443.6904 30215.0272 -530.5016 -443.6904
ENERGY: 300000 22.4798 228.2864 21.5959 0.0000 -10751.5108 1480.3096 0.0000 0.0000 1838.4026 -7160.4366 309.8731 -8998.8392 -7177.4919 303.2223 89.1937 172.9651 30295.4377 303.5835 393.9942
ENERGY: 600000 16.1328 222.3553 23.1151 0.0000 -10736.4143 1434.8760 0.0000 0.0000 1829.3060 -7210.6290 308.3399 -9039.9350 -7207.7157 300.9712 -16.7860 38.3412 30153.8184 -42.1433 53.3906
ENERGY: 900000 15.4794 228.6155 26.3103 0.0000 -10794.3418 1499.8887 0.0000 0.0000 1762.6729 -7261.3750 297.1085 -9024.0479 -7219.1043 300.7772 500.7258 538.8856 30505.7602 35.2563 119.7489
ENERGY: 1200000 18.3994 226.1302 23.2538 0.0000 -10648.9778 1430.7039 0.0000 0.0000 1732.8621 -7217.6286 292.0837 -8950.4907 -7229.3367 299.6209 -399.7479 -346.7572 30676.8500 -1.3069 74.7122
ENERGY: 1500000 14.1960 229.1428 24.0909 0.0000 -10645.3540 1391.0152 0.0000 0.0000 1776.1483 -7210.7608 299.3798 -8986.9091 -7226.2428 299.6834 -653.1282 -510.1413 30474.3498 -9.1776 71.2179
TCL: Running FEP window  16: Lambda1 0.24999999999999967 Lambda2 0.19999999999999968 [dLambda -0.04999999999999999]
TCL: Setting parameter firsttimestep to 0
TCL: Setting parameter alchLambda to 0.24999999999999967
Info: NONBONDED TABLE R-SQUARED SPACING: 0.0625
Info: NONBONDED TABLE SIZE: 705 POINTS
TCL: Setting parameter alchLambda2 to 0.19999999999999968
Info: NONBONDED TABLE R-SQUARED SPACING: 0.0625
Info: NONBONDED TABLE SIZE: 705 POINTS
TCL: Running for 1500000 steps
ETITLE: TS BOND ANGLE DIHED IMPRP ELECT VDW BOUNDARY MISC KINETIC TOTAL TEMP POTENTIAL TOTALAVG TEMPAVG PRESSURE GPRESSURE VOLUME PRESSAVG GPRESSAVG
ENERGY: 0 14.1960 229.1430 24.0909 0.0000 -10645.3556 1390.3613 0.0000 0.0000 1775.2704 -7212.2941 299.2318 -8987.5645 -7212.2941 299.2318 -615.8322 -517.8344 30474.3498 -615.8322 -517.8344
ENERGY: 300000 18.2685 230.9460 24.1708 0.0000 -10751.7374 1459.1855 0.0000 0.0000 1811.1753 -7207.9914 305.2838 -9019.1667 -7216.6934 299.2539 33.9171 93.9490 30416.0467 -103.8214 -31.8506
ENERGY: 600000 14.5566 228.5012 23.8738 0.0000 -10750.0996 1434.6109 0.0000 0.0000 1826.5151 -7222.0420 307.8694 -9048.5571 -7224.2318 301.1402 -345.4929 -249.5928 30654.3488 -190.7643 -119.3368
ENERGY: 900000 22.4989 221.2003 24.7436 0.0000 -10566.5674 1324.7886 0.0000 0.0000 1789.0411 -7184.2949 301.5530 -8973.3360 -7215.6086 300.0703 -1355.9331 -1251.9291 31120.6730 -323.2941 -249.8534
ENERGY: 1200000 18.2847 232.9382 23.0016 0.0000 -10732.7915 1464.3078 0.0000 0.0000 1829.0188 -7165.2403 308.2915 -8994.2591 -7211.7192 300.1845 319.6118 361.5109 30186.7259 -202.6134 -131.6229
ENERGY: 1500000 16.6701 226.7534 22.2639 0.0000 -10702.3878 1502.2060 0.0000 0.0000 1804.6067 -7129.8876 304.1767 -8934.4943 -7208.6342 300.6660 794.2253 824.7946 30595.5424 -96.4479 -34.5679
TCL: Running FEP window  17: Lambda1 0.19999999999999968 Lambda2 0.1499999999999997 [dLambda -0.04999999999999999]
TCL: Setting parameter firsttimestep to 0
TCL: Setting parameter alchLambda to 0.19999999999999968
Info: NONBONDED TABLE R-SQUARED SPACING: 0.0625
Info: NONBONDED TABLE SIZE: 705 POINTS
TCL: Setting parameter alchLambda2 to 0.1499999999999997
Info: NONBONDED TABLE R-SQUARED SPACING: 0.0625
Info: NONBONDED TABLE SIZE: 705 POINTS
TCL: Running for 1500000 steps
ETITLE: TS BOND ANGLE DIHED IMPRP ELECT VDW BOUNDARY MISC KINETIC TOTAL TEMP POTENTIAL TOTALAVG TEMPAVG PRESSURE GPRESSURE VOLUME PRESSAVG GPRESSAVG
ENERGY: 0 16.6701 226.7534 22.2639 0.0000 -10702.3854 1502.6089 0.0000 0.0000 1803.7289 -7130.3600 304.0287 -8934.0889 -7130.3600 304.0287 747.7168 825.1469 30595.5424 747.7168 825.1469
ENERGY: 300000 13.5135 226.2272 21.9997 0.0000 -10684.2102 1444.1465 0.0000 0.0000 1839.3260 -7138.9973 310.0288 -8978.3233 -7171.0862 303.4902 -168.4837 -138.3240 31208.3483 2.4063 47.9390
ENERGY: 600000 17.3147 234.0377 23.0964 0.0000 -10574.7924 1377.8330 0.0000 0.0000 1738.3509 -7184.1596 293.0089 -8922.5105 -7176.4001 301.5289 -770.6436 -674.2384 30998.9505 -150.9282 -89.0238
ENERGY: 900000 17.4206 226.9774 22.1344 0.0000 -10785.4971 1481.8219 0.0000 0.0000 1743.7738 -7293.3690 293.9229 -9037.1428 -7190.4027 300.9938 177.0348 221.2360 30368.2841 -177.3440 -117.2433
ENERGY: 1200000 15.1186 231.6843 21.9635 0.0000 -10778.1683 1496.1256 0.0000 0.0000 1728.2731 -7285.0033 291.3102 -9013.2763 -7201.0847 300.0180 90.1598 208.3592 30649.8396 -35.4481 25.5878
ENERGY: 1500000 16.5685 222.4434 21.8897 0.0000 -10682.3520 1417.3457 0.0000 0.0000 1784.6068 -7219.4979 300.8056 -9004.1047 -7211.8262 298.9330 -33.4110 7.3236 30121.6647 -37.2551 19.1722
TCL: Running FEP window  18: Lambda1 0.1499999999999997 Lambda2 0.09999999999999969 [dLambda -0.05 ]
TCL: Setting parameter firsttimestep to 0
TCL: Setting parameter alchLambda to 0.1499999999999997
Info: NONBONDED TABLE R-SQUARED SPACING: 0.0625
Info: NONBONDED TABLE SIZE: 705 POINTS
TCL: Setting parameter alchLambda2 to 0.09999999999999969
Info: NONBONDED TABLE R-SQUARED SPACING: 0.0625
Info: NONBONDED TABLE SIZE: 705 POINTS
TCL: Running for 1500000 steps
ETITLE: TS BOND ANGLE DIHED IMPRP ELECT VDW BOUNDARY MISC KINETIC TOTAL TEMP POTENTIAL TOTALAVG TEMPAVG PRESSURE GPRESSURE VOLUME PRESSAVG GPRESSAVG
ENERGY: 0 16.5685 222.4434 21.8897 0.0000 -10682.3525 1417.4019 0.0000 0.0000 1783.7379 -7220.3111 300.6591 -9004.0490 -7220.3111 300.6591 -84.7441 1.4606 30121.6647 -84.7441 1.4606
ENERGY: 300000 21.9446 228.5417 22.1262 0.0000 -10689.0901 1436.0301 0.0000 0.0000 1781.2344 -7199.2130 300.2371 -8980.4474 -7190.5016 299.9862 -416.2616 -442.0785 30476.8453 -220.7159 -160.0377
ENERGY: 600000 12.9410 223.9314 21.8458 0.0000 -10765.3109 1448.7558 0.0000 0.0000 1851.8422 -7205.9947 312.1385 -9057.8369 -7198.0984 300.8167 -267.4895 -121.9634 30418.3357 -132.0994 -53.6948
ENERGY: 900000 15.2225 226.1293 22.7006 0.0000 -10880.3799 1530.5872 0.0000 0.0000 1788.0785 -7297.6618 301.3907 -9085.7402 -7201.1182 301.7183 371.6570 425.9140 30310.8783 -13.9636 56.5333
ENERGY: 1200000 22.7154 222.6021 23.0359 0.0000 -10752.1648 1506.9559 0.0000 0.0000 1843.5292 -7133.3263 310.7373 -8976.8555 -7186.0859 302.9270 266.2206 358.4296 30707.6164 -71.7414 3.0765
ENERGY: 1500000 13.7639 232.8140 22.3508 0.0000 -10618.2618 1438.6100 0.0000 0.0000 1704.0949 -7206.6283 287.2348 -8910.7232 -7186.2829 302.2136 70.7375 187.6340 30796.9898 -97.5242 -22.8379
TCL: Running FEP window  19: Lambda1 0.09999999999999969 Lambda2 0.049999999999999684 [dLambda -0.05 ]
TCL: Setting parameter firsttimestep to 0
TCL: Setting parameter alchLambda to 0.09999999999999969
Info: NONBONDED TABLE R-SQUARED SPACING: 0.0625
Info: NONBONDED TABLE SIZE: 705 POINTS
TCL: Setting parameter alchLambda2 to 0.049999999999999684
Info: NONBONDED TABLE R-SQUARED SPACING: 0.0625
Info: NONBONDED TABLE SIZE: 705 POINTS
TCL: Running for 1500000 steps
ETITLE: TS BOND ANGLE DIHED IMPRP ELECT VDW BOUNDARY MISC KINETIC TOTAL TEMP POTENTIAL TOTALAVG TEMPAVG PRESSURE GPRESSURE VOLUME PRESSAVG GPRESSAVG
ENERGY: 0 13.7639 232.8140 22.3508 0.0000 -10618.2620 1437.5916 0.0000 0.0000 1703.1820 -7208.5598 287.0809 -8911.7418 -7208.5598 287.0809 91.6120 174.7142 30796.9898 91.6120 174.7142
ENERGY: 300000 18.1253 229.9040 22.1206 0.0000 -10834.3511 1539.4879 0.0000 0.0000 1736.2770 -7288.4362 292.6593 -9024.7132 -7217.5922 296.9833 445.4861 557.6418 30401.9151 275.5555 358.8112
ENERGY: 600000 15.6965 227.1520 23.0716 0.0000 -10671.0334 1422.5278 0.0000 0.0000 1749.5930 -7232.9925 294.9038 -8982.5856 -7235.4682 295.8471 -124.7667 -119.9442 30709.3999 65.8367 130.5999
ENERGY: 900000 14.1346 221.3253 23.1259 0.0000 -10710.4801 1450.5351 0.0000 0.0000 1758.5069 -7242.8523 296.4063 -9001.3591 -7234.6620 297.0270 207.9737 219.2252 30252.3326 159.6332 214.6941
ENERGY: 1200000 26.4833 221.3070 22.5096 0.0000 -10611.3395 1365.2284 0.0000 0.0000 1786.9824 -7188.8289 301.2060 -8975.8112 -7224.9282 297.5303 -683.6900 -644.0433 30813.8911 -68.6901 -16.0639
ENERGY: 1500000 13.8750 233.2902 22.2622 0.0000 -10712.3939 1452.9466 0.0000 0.0000 1820.0241 -7169.9958 306.7753 -8990.0199 -7217.5331 298.7275 -193.7584 -138.9221 30949.9342 -50.6238 2.6620
TCL: Running FEP window  20: Lambda1 0.049999999999999684 Lambda2 0.0    [dLambda -0.049999999999999684]
TCL: Setting parameter firsttimestep to 0
TCL: Setting parameter alchLambda to 0.049999999999999684
Info: NONBONDED TABLE R-SQUARED SPACING: 0.0625
Info: NONBONDED TABLE SIZE: 705 POINTS
TCL: Setting parameter alchLambda2 to 0.0
Info: NONBONDED TABLE R-SQUARED SPACING: 0.0625
Info: NONBONDED TABLE SIZE: 705 POINTS
TCL: Running for 1500000 steps
ETITLE: TS BOND ANGLE DIHED IMPRP ELECT VDW BOUNDARY MISC KINETIC TOTAL TEMP POTENTIAL TOTALAVG TEMPAVG PRESSURE GPRESSURE VOLUME PRESSAVG GPRESSAVG
ENERGY: 0 13.8750 233.2902 22.2622 0.0000 -10712.3940 1452.8341 0.0000 0.0000 1819.1425 -7170.9900 306.6267 -8990.1325 -7170.9900 306.6267 -233.6794 -144.1556 30949.9342 -233.6794 -144.1556
ENERGY: 300000 21.9862 221.1505 22.2129 0.0000 -10673.9050 1385.3926 0.0000 0.0000 1766.6855 -7256.4773 297.7848 -9023.1628 -7206.9842 299.4261 -489.0005 -513.2279 30382.2555 -352.6252 -309.2422
ENERGY: 600000 13.6607 224.6807 23.0995 0.0000 -10793.1682 1491.6960 0.0000 0.0000 1761.5011 -7278.5301 296.9110 -9040.0312 -7214.3347 299.6250 69.2570 114.8137 30295.7599 -302.9097 -262.3288
ENERGY: 900000 13.5078 233.8060 24.8276 0.0000 -10748.1675 1486.8798 0.0000 0.0000 1790.9444 -7198.2019 301.8738 -8989.1462 -7232.2908 299.4674 224.9067 312.6083 30041.4726 -240.2094 -191.2368
ENERGY: 1200000 14.6469 225.5401 23.0044 0.0000 -10662.8010 1398.9029 0.0000 0.0000 1822.9043 -7177.8024 307.2608 -9000.7067 -7231.7196 300.1541 -714.1226 -631.9593 30788.4437 -337.8961 -288.5486
ENERGY: 1500000 19.7340 227.7224 22.8746 0.0000 -10564.8591 1365.4602 0.0000 0.0000 1810.0367 -7119.0312 305.0919 -8929.0679 -7219.1324 301.0120 -858.6719 -797.5006 30794.0286 -336.8193 -279.1282
TCL: Exiting due to exit command.
