Info: SIMULATION PARAMETERS:
Info: TIMESTEP               2
Info: NUMBER OF STEPS        0
Info: STEPS PER CYCLE        10
Info: PERIODIC CELL BASIS 1  30.8288 0 0
Info: PERIODIC CELL BASIS 2  0 32.0978 0
Info: PERIODIC CELL BASIS 3  0 0 30.7795
Info: PERIODIC CELL CENTER   0 0 0
Info: WRAPPING WATERS AROUND PERIODIC BOUNDARIES ON OUTPUT.
Info: WRAPPING ALL CLUSTERS AROUND PERIODIC BOUNDARIES ON OUTPUT.
Info: FIRST LDB TIMESTEP     50
Info: LAST LDB TIMESTEP     -1
Info: HOM BACKGROUND SCALING 1
Info: PME BACKGROUND SCALING 1
Info: MIN ATOMS PER PATCH    40
Info: EMPTY PATCH LOAD       40 ATOMS
Info: VELOCITY FILE          mobley_9139060_equil.vel
Info: CENTER OF MASS MOVING INITIALLY? NO
Info: DIELECTRIC             1
Info: EXCLUDE                SCALED ONE-FOUR
Info: 1-4 ELECTROSTATICS SCALED BY 0.833333
Info: MODIFIED 1-4 VDW PARAMETERS WILL BE USED
Info: DCD FILENAME           mobley_9139060_prod.dcd
Info: DCD FREQUENCY          100000
Info: DCD FIRST STEP         100000
Info: DCD FILE WILL CONTAIN UNIT CELL DATA
Info: XST FILENAME           mobley_9139060_prod.xst
Info: XST FREQUENCY          100000
Info: NO VELOCITY DCD OUTPUT
Info: NO FORCE DCD OUTPUT
Info: OUTPUT FILENAME        mobley_9139060_prod
Info: BINARY OUTPUT FILES WILL BE USED
Info: RESTART FILENAME       mobley_9139060_prod.restart
Info: RESTART FREQUENCY      100000
Info: BINARY RESTART FILES WILL BE USED
Info: CUTOFF                 9
Info: PAIRLIST DISTANCE      11
Info: PAIRLIST SHRINK RATE   0.01
Info: PAIRLIST GROW RATE     0.01
Info: PAIRLIST TRIGGER       0.3
Info: PAIRLISTS PER CYCLE    2
Info: PAIRLISTS ENABLED
Info: MARGIN                 2
Info: HYDROGEN GROUP CUTOFF  2.5
Info: PATCH DIMENSION        15.5
Info: ENERGY OUTPUT STEPS    100000
Info: ENERGY EVALUATION STEPS    100000
Info: OUTPUT ENERGY PRECISION 4
Info: CROSSTERM ENERGY INCLUDED IN DIHEDRAL
Info: TIMING OUTPUT STEPS    1000000
Info: PRESSURE OUTPUT STEPS  100000
Info: ALCHEMICAL FEP ON
Info: FEP CURRENT LAMBDA VALUE     0
Info: FEP COMPARISON LAMBDA VALUE  0.05
Info: FEP INTRA-ALCHEMICAL NON-BONDED INTERACTIONS WILL BE RETAINED
Info: FEP INTRA-ALCHEMICAL BONDED INTERACTIONS WILL BE RETAINED
Info: FEP VDW SHIFTING COEFFICIENT 5
Info: FEP ELEC. ACTIVE FOR ANNIHILATED PARTICLES BETWEEN LAMBDA = 0 AND LAMBDA = 0.5
Info: FEP ELEC. ACTIVE FOR EXNIHILATED PARTICLES BETWEEN LAMBDA = 0.5 AND LAMBDA = 1
Info: FEP VDW ACTIVE FOR ANNIHILATED PARTICLES BETWEEN LAMBDA = 0 AND LAMBDA = 1
Info: FEP VDW ACTIVE FOR EXNIHILATED PARTICLES BETWEEN LAMBDA = 0 AND LAMBDA = 1
Info: FEP BOND ACTIVE FOR ANNIHILATED PARTICLES BETWEEN LAMBDA = 1 AND LAMBDA = 1
Info: FEP BOND ACTIVE FOR EXNIHILATED PARTICLES BETWEEN LAMBDA = 0 AND LAMBDA = 0
Info: LANGEVIN DYNAMICS ACTIVE
Info: LANGEVIN TEMPERATURE   300
Info: LANGEVIN USING BBK INTEGRATOR
Info: LANGEVIN DAMPING COEFFICIENT IS 1 INVERSE PS
Info: LANGEVIN DYNAMICS APPLIED TO HYDROGENS
Info: LANGEVIN PISTON PRESSURE CONTROL ACTIVE
Info:        TARGET PRESSURE IS 1.01325 BAR
Info:     OSCILLATION PERIOD IS 50 FS
Info:             DECAY TIME IS 25 FS
Info:     PISTON TEMPERATURE IS 300 K
Info:       PRESSURE CONTROL IS GROUP-BASED
Info:    INITIAL STRAIN RATE IS -0.000144828 -0.000144828 -0.000144828
Info:       CELL FLUCTUATION IS ISOTROPIC
Info: PARTICLE MESH EWALD (PME) ACTIVE
Info: PME TOLERANCE               1e-06
Info: PME EWALD COEFFICIENT       0.348832
Info: PME INTERPOLATION ORDER     4
Info: PME GRID DIMENSIONS         32 36 32
Info: PME MAXIMUM GRID SPACING    1
Info: PME CALCULATION WILL BE PERFORMED ON GPU
Info: FULL ELECTROSTATIC EVALUATION FREQUENCY      2
Info: USING VERLET I (r-RESPA) MTS SCHEME.
Info: C1 SPLITTING OF LONG RANGE ELECTROSTATICS
Info: PLACING ATOMS IN PATCHES BY HYDROGEN GROUPS
Info: RIGID BONDS TO HYDROGEN : ALL
Info:         ERROR TOLERANCE : 1e-08
Info:          MAX ITERATIONS : 100
Info: RIGID WATER USING SETTLE ALGORITHM
Info: RANDOM NUMBER SEED     1743652217
Info: USE HYDROGEN BONDS?    NO
Info: Using AMBER format force field!
Info: AMBER PARM FILE        mobley_9139060.prmtop
Info: COORDINATE PDB         mobley_9139060.pdb
Info: Exclusions will be read from PARM file!
Info: SCNB (VDW SCALING)     2
Info: USING ARITHMETIC MEAN TO COMBINE L-J SIGMA PARAMETERS
Info: BINARY COORDINATES     mobley_9139060_equil.coor
Info: SUMMARY OF PARAMETERS:
Info: 4 BONDS
Info: 3 ANGLES
Info:   3 HARMONIC
Info:   0 COSINE-BASED
Info: 5 DIHEDRAL
Info: 0 IMPROPER
Info: 0 CROSSTERM
Info: 0 VDW
Info: 10 VDW_PAIRS
Info: 0 NBTHOLE_PAIRS
Info: To read alchdata from file: mobley_9139060.pdb
Info: To read alchflag data from column: 5
Info: STRUCTURE SUMMARY:
Info: 2934 ATOMS
Info: 2934 BONDS
Info: 48 ANGLES
Info: 92 DIHEDRALS
Info: 0 IMPROPERS
Info: 0 CROSSTERMS
Info: 3051 EXCLUSIONS
Info: 2926 RIGID BONDS
Info: ALCH: 0 ATOMS TO DISAPPEAR IN FINAL STATE
Info: ALCH: 24 ATOMS TO APPEAR IN FINAL STATE
Info: 5876 DEGREES OF FREEDOM
Info: 978 HYDROGEN GROUPS
Info: 4 ATOMS IN LARGEST HYDROGEN GROUP
Info: 978 MIGRATION GROUPS
Info: 4 ATOMS IN LARGEST MIGRATION GROUP
Info: TOTAL MASS = 17587.7 amu
Info: TOTAL CHARGE = -0.000200011 e
Info: MASS DENSITY = 0.958904 g/cm^3
Info: ATOM DENSITY = 0.096331 atoms/A^3
Info: ADDED 0 IMPLICIT EXCLUSIONS
Info: NONBONDED TABLE R-SQUARED SPACING: 0.0625
Info: NONBONDED TABLE SIZE: 705 POINTS
Info: REMOVING COM VELOCITY 0.115446 -0.0490881 -0.04691
Info: Use 3D box decompostion in PME FFT.
Info: Updated CUDA force table with 4096 elements.
Info: Updated CUDA LJ table with 4 x 4 elements.
Info: Found 26 unique exclusion lists needing 88 bytes
TCL: Running for 1500000 steps
ETITLE: TS BOND ANGLE DIHED IMPRP ELECT VDW BOUNDARY MISC KINETIC TOTAL TEMP POTENTIAL TOTALAVG TEMPAVG PRESSURE GPRESSURE VOLUME PRESSAVG GPRESSAVG
ENERGY: 0 4.8018 14.9756 5.9626 0.0000 -10562.3019 1405.7295 0.0000 0.0000 1716.6762 -7414.1562 294.0336 -9130.8324 -7414.1562 294.0336 -431.5498 -350.1134 30457.4876 -431.5498 -350.1134
ENERGY: 300000 3.5168 18.0606 6.5870 0.0000 -10612.2014 1455.0555 0.0000 0.0000 1775.3786 -7353.6030 304.0882 -9128.9816 -7388.8105 300.5947 53.0213 155.2035 29902.9854 -314.8525 -225.8675
ENERGY: 600000 1.3345 14.3882 6.8403 0.0000 -10622.4688 1394.0173 0.0000 0.0000 1798.9549 -7406.9336 308.1264 -9205.8885 -7410.0727 301.5534 -685.4258 -634.4826 30267.8989 -185.0855 -113.2500
ENERGY: 900000 1.5679 13.7293 5.0412 0.0000 -10498.5768 1383.8160 0.0000 0.0000 1754.4524 -7339.9700 300.5039 -9094.4224 -7405.0476 300.6585 -188.6169 -166.9979 29942.9045 -66.9792 -7.8361
ENERGY: 1200000 3.4266 11.2823 8.0698 0.0000 -10492.6806 1330.2811 0.0000 0.0000 1715.2716 -7424.3491 293.7930 -9139.6207 -7400.3270 300.5649 -816.3157 -771.1468 30104.9165 -147.5099 -93.1451
ENERGY: 1500000 2.3863 13.6289 5.6212 0.0000 -10446.6527 1318.6704 0.0000 0.0000 1755.4019 -7350.9441 300.6666 -9106.3460 -7397.1704 300.6441 -801.8994 -801.3562 30219.5321 -118.0078 -66.0956
TCL: Running FEP window   2: Lambda1 0.05   Lambda2 0.1    [dLambda 0.05  ]
TCL: Setting parameter firsttimestep to 0
TCL: Setting parameter alchLambda to 0.05
Info: NONBONDED TABLE R-SQUARED SPACING: 0.0625
Info: NONBONDED TABLE SIZE: 705 POINTS
TCL: Setting parameter alchLambda2 to 0.1
Info: NONBONDED TABLE R-SQUARED SPACING: 0.0625
Info: NONBONDED TABLE SIZE: 705 POINTS
TCL: Running for 1500000 steps
ETITLE: TS BOND ANGLE DIHED IMPRP ELECT VDW BOUNDARY MISC KINETIC TOTAL TEMP POTENTIAL TOTALAVG TEMPAVG PRESSURE GPRESSURE VOLUME PRESSAVG GPRESSAVG
ENERGY: 0 2.3863 13.6289 5.6212 0.0000 -10446.6522 1321.7965 0.0000 0.0000 1754.5728 -7348.6465 300.5246 -9103.2194 -7348.6465 300.5246 -879.8445 -794.4248 30219.5321 -879.8445 -794.4248
ENERGY: 300000 3.1903 12.4901 5.2488 0.0000 -10514.6861 1326.5838 0.0000 0.0000 1722.9913 -7444.1818 295.1153 -9167.1731 -7403.2437 298.5771 -856.5574 -827.5967 29771.3147 -579.0223 -523.4271
ENERGY: 600000 0.9049 11.1312 5.7938 0.0000 -10676.7092 1495.4065 0.0000 0.0000 1733.8417 -7429.6311 296.9737 -9163.4727 -7397.2856 301.5806 512.4110 530.7846 30192.6478 -180.7066 -126.4586
ENERGY: 900000 2.9982 9.9390 5.3409 0.0000 -10645.5466 1448.9627 0.0000 0.0000 1789.3242 -7388.9815 306.4768 -9178.3057 -7387.0663 302.3738 262.9844 293.0003 29784.3308 -141.3380 -94.5211
ENERGY: 1200000 2.5884 10.6651 5.1380 0.0000 -10577.0277 1408.9623 0.0000 0.0000 1745.3465 -7404.3274 298.9443 -9149.6738 -7387.7953 302.0247 -101.9567 -40.4720 30097.6230 -108.9792 -59.7439
ENERGY: 1500000 2.9951 12.8249 6.1205 0.0000 -10486.3826 1366.7196 0.0000 0.0000 1686.6680 -7411.0545 288.8938 -9097.7225 -7394.5942 300.1380 -465.7599 -457.8988 30005.6840 -140.9961 -95.7633
TCL: Running FEP window   3: Lambda1 0.1    Lambda2 0.15000000000000002 [dLambda 0.05000000000000002]
TCL: Setting parameter firsttimestep to 0
TCL: Setting parameter alchLambda to 0.1
Info: NONBONDED TABLE R-SQUARED SPACING: 0.0625
Info: NONBONDED TABLE SIZE: 705 POINTS
TCL: Setting parameter alchLambda2 to 0.15000000000000002
Info: NONBONDED TABLE R-SQUARED SPACING: 0.0625
Info: NONBONDED TABLE SIZE: 705 POINTS
TCL: Running for 1500000 steps
ETITLE: TS BOND ANGLE DIHED IMPRP ELECT VDW BOUNDARY MISC KINETIC TOTAL TEMP POTENTIAL TOTALAVG TEMPAVG PRESSURE GPRESSURE VOLUME PRESSAVG GPRESSAVG
ENERGY: 0 2.9951 12.8249 6.1205 0.0000 -10486.3825 1368.6717 0.0000 0.0000 1685.7534 -7410.0168 288.7371 -9095.7702 -7410.0168 288.7371 -546.7047 -447.8054 30005.6840 -546.7047 -447.8054
ENERGY: 300000 2.4250 10.1191 5.4417 0.0000 -10690.6766 1485.8079 0.0000 0.0000 1770.2305 -7416.6523 303.2064 -9186.8828 -7403.7579 297.4694 553.4189 587.6919 29518.6620 -447.6057 -372.0829
ENERGY: 600000 1.5440 11.9543 5.4974 0.0000 -10587.9857 1405.3090 0.0000 0.0000 1775.5790 -7388.1020 304.1225 -9163.6811 -7382.6039 300.6546 -40.4859 -18.0745 29866.6250 -183.8821 -132.5614
ENERGY: 900000 0.8441 15.4583 5.2196 0.0000 -10597.3098 1444.8147 0.0000 0.0000 1720.5671 -7410.4062 294.7000 -9130.9732 -7391.7292 299.9622 108.4350 201.9380 29877.6223 -213.7066 -157.8322
ENERGY: 1200000 3.1560 14.3410 5.2599 0.0000 -10633.6979 1460.2653 0.0000 0.0000 1786.1925 -7364.4833 305.9404 -9150.6758 -7398.5471 299.8521 578.8621 584.3261 29392.7497 -77.4713 -25.1575
ENERGY: 1500000 2.4869 12.1236 5.1618 0.0000 -10428.6609 1342.0529 0.0000 0.0000 1736.3799 -7330.4558 297.4085 -9066.8358 -7391.5594 299.1524 -335.8959 -374.5529 30016.9632 -169.3882 -119.3529
TCL: Running FEP window   4: Lambda1 0.15000000000000002 Lambda2 0.2    [dLambda 0.04999999999999999]
TCL: Setting parameter firsttimestep to 0
TCL: Setting parameter alchLambda to 0.15000000000000002
Info: NONBONDED TABLE R-SQUARED SPACING: 0.0625
Info: NONBONDED TABLE SIZE: 705 POINTS
TCL: Setting parameter alchLambda2 to 0.2
Info: NONBONDED TABLE R-SQUARED SPACING: 0.0625
Info: NONBONDED TABLE SIZE: 705 POINTS
TCL: Running for 1500000 steps
ETITLE: TS BOND ANGLE DIHED IMPRP ELECT VDW BOUNDARY MISC KINETIC TOTAL TEMP POTENTIAL TOTALAVG TEMPAVG PRESSURE GPRESSURE VOLUME PRESSAVG GPRESSAVG
ENERGY: 0 2.4869 12.1235 5.1618 0.0000 -10428.6605 1342.7953 0.0000 0.0000 1735.4949 -7330.5980 297.2569 -9066.0929 -7330.5980 297.2569 -434.8427 -367.1965 30016.9632 -434.8427 -367.1965
ENERGY: 300000 3.7103 9.0186 6.3449 0.0000 -10742.4853 1445.5447 0.0000 0.0000 1740.0166 -7537.8501 298.0314 -9277.8667 -7425.3446 296.9277 -377.3689 -292.0026 29896.0424 -254.6947 -195.4396
ENERGY: 600000 2.5992 10.0629 5.8371 0.0000 -10426.0299 1306.8027 0.0000 0.0000 1739.3428 -7361.3852 297.9160 -9100.7280 -7416.0024 295.3920 -1019.4301 -918.2473 30591.4231 -326.4210 -243.5271
ENERGY: 900000 2.4026 13.5939 5.1464 0.0000 -10611.5942 1463.3478 0.0000 0.0000 1707.7526 -7419.3510 292.5052 -9127.1035 -7421.4119 294.7648 178.1554 285.0669 30084.2413 -129.0596 -47.9475
ENERGY: 1200000 1.7732 9.8107 4.5630 0.0000 -10711.9277 1429.4083 0.0000 0.0000 1748.4259 -7517.9466 299.4717 -9266.3725 -7424.8587 295.8018 -372.4159 -326.5039 29951.2139 -100.9022 -30.0988
ENERGY: 1500000 2.8707 20.9944 5.5631 0.0000 -10686.5654 1493.1197 0.0000 0.0000 1770.1102 -7393.9073 303.1858 -9164.0175 -7414.8389 296.9839 347.3013 372.7666 30058.7444 -11.2097 54.4049
TCL: Running FEP window   5: Lambda1 0.2    Lambda2 0.25   [dLambda 0.04999999999999999]
TCL: Setting parameter firsttimestep to 0
TCL: Setting parameter alchLambda to 0.2
Info: NONBONDED TABLE R-SQUARED SPACING: 0.0625
Info: NONBONDED TABLE SIZE: 705 POINTS
TCL: Setting parameter alchLambda2 to 0.25
Info: NONBONDED TABLE R-SQUARED SPACING: 0.0625
Info: NONBONDED TABLE SIZE: 705 POINTS
TCL: Running for 1500000 steps
ETITLE: TS BOND ANGLE DIHED IMPRP ELECT VDW BOUNDARY MISC KINETIC TOTAL TEMP POTENTIAL TOTALAVG TEMPAVG PRESSURE GPRESSURE VOLUME PRESSAVG GPRESSAVG
ENERGY: 0 2.8707 20.9944 5.5631 0.0000 -10686.5655 1492.7605 0.0000 0.0000 1769.2556 -7395.1213 303.0395 -9164.3769 -7395.1213 303.0395 301.4937 374.1281 30058.7444 301.4937 374.1281
ENERGY: 300000 2.4867 12.4276 6.3571 0.0000 -10511.2407 1383.2756 0.0000 0.0000 1751.1770 -7355.5167 299.9429 -9106.6937 -7372.2718 300.1994 -262.5974 -177.7893 29954.3552 85.3754 146.3321
ENERGY: 600000 4.0804 11.7624 4.6837 0.0000 -10627.7083 1476.8596 0.0000 0.0000 1748.7159 -7381.6062 299.5214 -9130.3221 -7383.2179 299.2196 166.6363 245.6109 30171.7974 156.3207 218.8159
ENERGY: 900000 3.0437 13.2095 5.9063 0.0000 -10733.0913 1514.2755 0.0000 0.0000 1771.0935 -7425.5628 303.3542 -9196.6563 -7394.9502 299.2709 701.3488 687.7701 29750.4483 68.5248 130.4230
ENERGY: 1200000 1.2248 12.0391 6.2904 0.0000 -10576.1375 1452.5649 0.0000 0.0000 1812.6374 -7291.3808 310.4699 -9104.0182 -7375.7683 301.1437 214.3237 312.7996 30067.0634 133.4816 195.0703
ENERGY: 1500000 2.4943 13.9657 5.6686 0.0000 -10602.0808 1406.8772 0.0000 0.0000 1840.3098 -7332.7652 315.2097 -9173.0750 -7367.4043 302.2760 71.1400 6.9455 29670.4786 98.0865 148.2617
TCL: Running FEP window   6: Lambda1 0.25   Lambda2 0.3    [dLambda 0.04999999999999999]
TCL: Setting parameter firsttimestep to 0
TCL: Setting parameter alchLambda to 0.25
Info: NONBONDED TABLE R-SQUARED SPACING: 0.0625
Info: NONBONDED TABLE SIZE: 705 POINTS
TCL: Setting parameter alchLambda2 to 0.3
Info: NONBONDED TABLE R-SQUARED SPACING: 0.0625
Info: NONBONDED TABLE SIZE: 705 POINTS
TCL: Running for 1500000 steps
ETITLE: TS BOND ANGLE DIHED IMPRP ELECT VDW BOUNDARY MISC KINETIC TOTAL TEMP POTENTIAL TOTALAVG TEMPAVG PRESSURE GPRESSURE VOLUME PRESSAVG GPRESSAVG
ENERGY: 0 2.4943 13.9657 5.6686 0.0000 -10602.0792 1407.2098 0.0000 0.0000 1839.4187 -7333.3221 315.0570 -9172.7408 -7333.3221 315.0570 -51.9292 12.9861 29670.4786 -51.9292 12.9861
ENERGY: 300000 0.4270 12.0038 6.1348 0.0000 -10481.2022 1362.2155 0.0000 0.0000 1712.5203 -7387.9008 293.3218 -9100.4211 -7370.5993 300.0983 -271.5883 -236.9711 29963.6470 -340.4278 -275.7165
ENERGY: 600000 3.5296 12.0492 5.0552 0.0000 -10665.1839 1489.4951 0.0000 0.0000 1715.8926 -7439.1623 293.8994 -9155.0548 -7411.1485 297.6293 522.5013 558.9222 29869.4272 -99.3235 -45.3418
ENERGY: 900000 1.3724 14.9918 5.0937 0.0000 -10432.8206 1340.9839 0.0000 0.0000 1756.5235 -7313.8553 300.8587 -9070.3788 -7388.3809 299.5122 -720.2292 -667.2195 30454.5920 -232.5672 -181.5008
ENERGY: 1200000 2.4824 17.1955 6.1250 0.0000 -10532.5787 1371.5095 0.0000 0.0000 1747.1431 -7388.1232 299.2520 -9135.2662 -7399.1350 299.6954 -284.5254 -259.0514 30330.3295 -283.0135 -237.4754
ENERGY: 1500000 6.5761 10.2424 4.9489 0.0000 -10536.8236 1365.5302 0.0000 0.0000 1802.6427 -7346.8833 308.7580 -9149.5260 -7395.3774 299.7186 -804.6499 -645.5682 30015.6726 -337.9093 -287.5934
TCL: Running FEP window   7: Lambda1 0.3    Lambda2 0.35   [dLambda 0.04999999999999999]
TCL: Setting parameter firsttimestep to 0
TCL: Setting parameter alchLambda to 0.3
Info: NONBONDED TABLE R-SQUARED SPACING: 0.0625
Info: NONBONDED TABLE SIZE: 705 POINTS
TCL: Setting parameter alchLambda2 to 0.35
Info: NONBONDED TABLE R-SQUARED SPACING: 0.0625
Info: NONBONDED TABLE SIZE: 705 POINTS
TCL: Running for 1500000 steps
ETITLE: TS BOND ANGLE DIHED IMPRP ELECT VDW BOUNDARY MISC KINETIC TOTAL TEMP POTENTIAL TOTALAVG TEMPAVG PRESSURE GPRESSURE VOLUME PRESSAVG GPRESSAVG
ENERGY: 0 6.5761 10.2424 4.9489 0.0000 -10536.8239 1365.6954 0.0000 0.0000 1801.7600 -7347.6012 308.6068 -9149.3611 -7347.6012 308.6068 -724.3305 -637.8428 30015.6726 -724.3305 -637.8428
ENERGY: 300000 8.0705 6.7878 4.6823 0.0000 -10620.8972 1423.1171 0.0000 0.0000 1761.3674 -7416.8720 301.6884 -9178.2394 -7367.7924 304.2223 -307.2345 -220.3669 30001.4688 -149.5494 -101.3205
ENERGY: 600000 1.1080 19.3327 5.0520 0.0000 -10609.6278 1413.6863 0.0000 0.0000 1759.1034 -7411.3453 301.3006 -9170.4487 -7393.4754 302.1106 -315.9035 -229.8876 30419.5889 -166.2904 -111.9944
ENERGY: 900000 6.4969 14.4602 6.6090 0.0000 -10479.9597 1400.2973 0.0000 0.0000 1757.0737 -7295.0226 300.9529 -9052.0963 -7390.7314 301.2148 168.2301 235.6496 29995.5693 -135.7399 -79.1452
ENERGY: 1200000 2.1017 15.1309 5.3564 0.0000 -10467.6206 1396.7624 0.0000 0.0000 1726.8273 -7321.4419 295.7723 -9048.2693 -7385.0364 300.9302 67.7215 77.9223 30228.4972 -7.1150 43.8226
ENERGY: 1500000 2.1203 10.4296 4.7297 0.0000 -10532.2439 1405.3116 0.0000 0.0000 1738.1074 -7371.5453 297.7044 -9109.6528 -7387.0737 301.2960 -136.0915 -147.5628 30398.8019 15.9271 59.1826
TCL: Running FEP window   8: Lambda1 0.35   Lambda2 0.39999999999999997 [dLambda 0.04999999999999999]
TCL: Setting parameter firsttimestep to 0
TCL: Setting parameter alchLambda to 0.35
Info: NONBONDED TABLE R-SQUARED SPACING: 0.0625
Info: NONBONDED TABLE SIZE: 705 POINTS
TCL: Setting parameter alchLambda2 to 0.39999999999999997
Info: NONBONDED TABLE R-SQUARED SPACING: 0.0625
Info: NONBONDED TABLE SIZE: 705 POINTS
TCL: Running for 1500000 steps
ETITLE: TS BOND ANGLE DIHED IMPRP ELECT VDW BOUNDARY MISC KINETIC TOTAL TEMP POTENTIAL TOTALAVG TEMPAVG PRESSURE GPRESSURE VOLUME PRESSAVG GPRESSAVG
ENERGY: 0 2.1203 10.4296 4.7297 0.0000 -10532.2434 1405.2508 0.0000 0.0000 1737.2244 -7372.4886 297.5531 -9109.7130 -7372.4886 297.5531 -227.5667 -145.6792 30398.8019 -227.5667 -145.6792
ENERGY: 300000 3.5799 9.9638 4.9783 0.0000 -10586.7220 1398.5751 0.0000 0.0000 1713.8833 -7455.7415 293.5552 -9169.6248 -7416.9470 299.1520 -304.6408 -249.5881 29943.0040 126.3085 169.5408
ENERGY: 600000 2.9886 15.2629 5.0535 0.0000 -10605.0765 1354.2489 0.0000 0.0000 1805.4786 -7422.0440 309.2438 -9227.5226 -7403.7912 299.6585 -559.7740 -611.4867 29719.4407 -14.0616 29.9941
ENERGY: 900000 1.5158 11.8093 5.0391 0.0000 -10451.8625 1399.4276 0.0000 0.0000 1730.1228 -7303.9480 296.3368 -9034.0708 -7404.6762 300.2372 77.6021 96.5424 30132.6884 -64.9526 -9.5254
ENERGY: 1200000 4.6519 12.8385 5.7285 0.0000 -10632.2903 1440.9267 0.0000 0.0000 1749.6548 -7418.4899 299.6822 -9168.1447 -7387.7313 301.1417 -2.4809 23.4065 29756.9094 -88.4664 -36.6374
ENERGY: 1500000 2.5877 9.8680 6.0052 0.0000 -10631.1346 1409.4683 0.0000 0.0000 1734.2112 -7468.9942 297.0370 -9203.2054 -7387.1057 301.6365 -255.6274 -212.1090 29862.2796 -68.5848 -14.1561
TCL: Running FEP window   9: Lambda1 0.39999999999999997 Lambda2 0.44999999999999996 [dLambda 0.04999999999999999]
TCL: Setting parameter firsttimestep to 0
TCL: Setting parameter alchLambda to 0.39999999999999997
Info: NONBONDED TABLE R-SQUARED SPACING: 0.0625
Info: NONBONDED TABLE SIZE: 705 POINTS
TCL: Setting parameter alchLambda2 to 0.44999999999999996
Info: NONBONDED TABLE R-SQUARED SPACING: 0.0625
Info: NONBONDED TABLE SIZE: 705 POINTS
TCL: Running for 1500000 steps
ETITLE: TS BOND ANGLE DIHED IMPRP ELECT VDW BOUNDARY MISC KINETIC TOTAL TEMP POTENTIAL TOTALAVG TEMPAVG PRESSURE GPRESSURE VOLUME PRESSAVG GPRESSAVG
ENERGY: 0 2.5877 9.8680 6.0052 0.0000 -10631.1345 1409.7101 0.0000 0.0000 1733.3234 -7469.6401 296.8850 -9202.9635 -7469.6401 296.8850 -286.4131 -201.9877 29862.2796 -286.4131 -201.9877
ENERGY: 300000 3.3532 12.5555 5.1642 0.0000 -10534.6810 1405.4126 0.0000 0.0000 1765.4724 -7342.7229 302.3915 -9108.1954 -7418.0936 298.0975 21.9189 128.7643 30001.0788 -418.3529 -346.9117
ENERGY: 600000 1.6938 17.5685 5.3327 0.0000 -10578.2851 1393.4896 0.0000 0.0000 1743.7021 -7416.4984 298.6626 -9160.2005 -7418.8361 300.6457 -373.3661 -271.8488 30124.1137 -349.6621 -272.0596
ENERGY: 900000 1.9710 11.1928 6.4384 0.0000 -10573.6672 1410.1512 0.0000 0.0000 1737.9864 -7405.9273 297.6836 -9143.9138 -7411.4941 300.1017 -244.2458 -171.7710 30328.5911 -171.8196 -100.0085
ENERGY: 1200000 1.4217 13.7800 5.7831 0.0000 -10601.4384 1409.2527 0.0000 0.0000 1685.0523 -7486.1487 288.6170 -9171.2009 -7413.7103 298.7864 63.4352 187.5874 29518.1465 -204.6561 -127.4187
ENERGY: 1500000 3.0429 10.3698 6.1991 0.0000 -10467.3679 1334.2320 0.0000 0.0000 1739.0190 -7374.5052 297.8605 -9113.5242 -7404.9409 298.9455 -655.7469 -595.3587 30379.8722 -188.2890 -118.5914
TCL: Running FEP window  10: Lambda1 0.44999999999999996 Lambda2 0.49999999999999994 [dLambda 0.04999999999999999]
TCL: Setting parameter firsttimestep to 0
TCL: Setting parameter alchLambda to 0.44999999999999996
Info: NONBONDED TABLE R-SQUARED SPACING: 0.0625
Info: NONBONDED TABLE SIZE: 705 POINTS
TCL: Setting parameter alchLambda2 to 0.49999999999999994
Info: NONBONDED TABLE R-SQUARED SPACING: 0.0625
Info: NONBONDED TABLE SIZE: 705 POINTS
TCL: Running for 1500000 steps
ETITLE: TS BOND ANGLE DIHED IMPRP ELECT VDW BOUNDARY MISC KINETIC TOTAL TEMP POTENTIAL TOTALAVG TEMPAVG PRESSURE GPRESSURE VOLUME PRESSAVG GPRESSAVG
ENERGY: 0 3.0429 10.3698 6.1991 0.0000 -10467.3686 1334.7544 0.0000 0.0000 1738.1962 -7374.8062 297.7196 -9113.0024 -7374.8062 297.7196 -669.8464 -584.1767 30379.8722 -669.8464 -584.1767
ENERGY: 300000 2.8478 15.2686 6.4278 0.0000 -10529.7571 1399.6143 0.0000 0.0000 1736.5194 -7369.0794 297.4324 -9105.5988 -7406.5746 298.3161 -218.5210 -149.9100 30250.1853 -506.4596 -441.2730
ENERGY: 600000 2.3676 13.4617 5.3198 0.0000 -10590.1321 1423.1558 0.0000 0.0000 1774.0596 -7371.7677 303.8623 -9145.8272 -7398.0275 298.4029 -174.5809 -68.1017 30369.2883 -310.4845 -244.3094
ENERGY: 900000 5.1688 12.9086 4.9072 0.0000 -10815.9408 1520.2659 0.0000 0.0000 1737.2851 -7535.4052 297.5635 -9272.6903 -7407.5844 299.0124 446.7893 548.0925 29642.7819 -209.9506 -143.9062
ENERGY: 1200000 2.5959 11.2191 5.6514 0.0000 -10609.1469 1451.8633 0.0000 0.0000 1748.1872 -7389.6300 299.4308 -9137.8171 -7407.8328 299.2470 126.2940 178.3581 30364.9076 -202.2396 -136.5583
ENERGY: 1500000 1.5047 11.1513 5.7466 0.0000 -10646.3666 1475.9272 0.0000 0.0000 1760.6081 -7391.4287 301.5583 -9152.0368 -7397.2575 299.3566 406.1390 437.8514 30006.6265 -131.5142 -71.5519
TCL: Running FEP window  11: Lambda1 0.49999999999999994 Lambda2 0.5499999999999999 [dLambda 0.04999999999999999]
TCL: Setting parameter firsttimestep to 0
TCL: Setting parameter alchLambda to 0.49999999999999994
Info: NONBONDED TABLE R-SQUARED SPACING: 0.0625
Info: NONBONDED TABLE SIZE: 705 POINTS
TCL: Setting parameter alchLambda2 to 0.5499999999999999
Info: NONBONDED TABLE R-SQUARED SPACING: 0.0625
Info: NONBONDED TABLE SIZE: 705 POINTS
TCL: Running for 1500000 steps
ETITLE: TS BOND ANGLE DIHED IMPRP ELECT VDW BOUNDARY MISC KINETIC TOTAL TEMP POTENTIAL TOTALAVG TEMPAVG PRESSURE GPRESSURE VOLUME PRESSAVG GPRESSAVG
ENERGY: 0 1.5047 11.1513 5.7466 0.0000 -10646.3661 1475.8424 0.0000 0.0000 1759.7348 -7392.3863 301.4087 -9152.1211 -7392.3863 301.4087 377.2017 447.0312 30006.6265 377.2017 447.0312
ENERGY: 300000 3.4871 7.0372 5.1938 0.0000 -10513.2795 1411.9600 0.0000 0.0000 1762.7972 -7322.8042 301.9333 -9085.6014 -7392.1834 300.9351 -101.8530 -26.1665 30289.6566 -57.1004 -7.3096
ENERGY: 600000 1.8178 9.1453 6.3504 0.0000 -10614.6182 1417.4518 0.0000 0.0000 1770.9655 -7408.8874 303.3323 -9179.8529 -7385.0210 301.7041 -33.0726 -1.8619 30064.1598 -41.4021 0.0424
ENERGY: 900000 2.8748 11.7899 4.9390 0.0000 -10675.5073 1478.8421 0.0000 0.0000 1749.0304 -7428.0312 299.5753 -9177.0616 -7386.9275 301.4530 126.4545 152.7738 30203.1093 -11.4131 30.8858
ENERGY: 1200000 2.4795 8.6294 6.1496 0.0000 -10557.8949 1378.0985 0.0000 0.0000 1791.8750 -7370.6628 306.9137 -9162.5379 -7388.0696 301.9573 -64.3510 -51.9414 29873.0185 -10.8272 33.4300
ENERGY: 1500000 2.3756 9.2670 5.3545 0.0000 -10660.8601 1489.9730 0.0000 0.0000 1716.6955 -7437.1945 294.0369 -9153.8900 -7380.6347 302.0681 588.6919 700.6716 29750.9420 -21.3365 30.1087
TCL: Running FEP window  12: Lambda1 0.5499999999999999 Lambda2 0.6    [dLambda 0.050000000000000044]
TCL: Setting parameter firsttimestep to 0
TCL: Setting parameter alchLambda to 0.5499999999999999
Info: NONBONDED TABLE R-SQUARED SPACING: 0.0625
Info: NONBONDED TABLE SIZE: 705 POINTS
TCL: Setting parameter alchLambda2 to 0.6
Info: NONBONDED TABLE R-SQUARED SPACING: 0.0625
Info: NONBONDED TABLE SIZE: 705 POINTS
TCL: Running for 1500000 steps
ETITLE: TS BOND ANGLE DIHED IMPRP ELECT VDW BOUNDARY MISC KINETIC TOTAL TEMP POTENTIAL TOTALAVG TEMPAVG PRESSURE GPRESSURE VOLUME PRESSAVG GPRESSAVG
ENERGY: 0 2.3756 9.2670 5.3545 0.0000 -10660.9102 1489.3654 0.0000 0.0000 1715.8185 -7438.7293 293.8867 -9154.5477 -7438.7293 293.8867 613.2073 701.9696 29750.9420 613.2073 701.9696
ENERGY: 300000 1.8289 10.8878 5.1645 0.0000 -10537.8026 1404.9794 0.0000 0.0000 1727.8317 -7387.1102 295.9443 -9114.9419 -7437.2365 295.2171 -152.2763 -131.4839 30318.5108 64.0189 123.5223
ENERGY: 600000 3.6531 10.4371 6.5025 0.0000 -10535.3396 1427.7666 0.0000 0.0000 1765.9608 -7321.0197 302.4751 -9086.9804 -7385.1491 297.9889 -66.5980 5.3753 30255.6884 57.5768 127.9366
ENERGY: 900000 2.8113 11.8937 6.0798 0.0000 -10449.5319 1293.2237 0.0000 0.0000 1805.7488 -7329.7745 309.2900 -9135.5234 -7386.1367 299.0446 -1023.7271 -1024.8437 30227.5356 -155.8426 -101.0505
ENERGY: 1200000 2.4175 10.4625 5.1602 0.0000 -10680.8889 1479.2683 0.0000 0.0000 1704.2880 -7479.2925 291.9117 -9183.5804 -7399.3730 298.6268 273.7813 434.6347 30007.9123 -131.3402 -73.0759
ENERGY: 1500000 3.0391 9.0407 5.3927 0.0000 -10582.0791 1398.1415 0.0000 0.0000 1728.6558 -7437.8092 296.0855 -9166.4650 -7396.1044 299.1252 -428.9877 -304.2672 30313.6844 -147.1849 -81.8993
TCL: Running FEP window  13: Lambda1 0.6    Lambda2 0.65   [dLambda 0.050000000000000044]
TCL: Setting parameter firsttimestep to 0
TCL: Setting parameter alchLambda to 0.6
Info: NONBONDED TABLE R-SQUARED SPACING: 0.0625
Info: NONBONDED TABLE SIZE: 705 POINTS
TCL: Setting parameter alchLambda2 to 0.65
Info: NONBONDED TABLE R-SQUARED SPACING: 0.0625
Info: NONBONDED TABLE SIZE: 705 POINTS
TCL: Running for 1500000 steps
ETITLE: TS BOND ANGLE DIHED IMPRP ELECT VDW BOUNDARY MISC KINETIC TOTAL TEMP POTENTIAL TOTALAVG TEMPAVG PRESSURE GPRESSURE VOLUME PRESSAVG GPRESSAVG
ENERGY: 0 3.0391 9.0407 5.3927 0.0000 -10582.0850 1397.4862 0.0000 0.0000 1727.7828 -7439.3435 295.9360 -9167.1263 -7439.3435 295.9360 -386.3563 -302.5174 30313.6844 -386.3563 -302.5174
ENERGY: 300000 2.2662 10.3587 5.3395 0.0000 -10635.1263 1404.8706 0.0000 0.0000 1749.8985 -7462.3927 299.7240 -9212.2912 -7432.3206 298.1345 -401.7100 -379.4478 30386.3030 -318.9981 -272.4334
ENERGY: 600000 5.5225 8.9850 5.2618 0.0000 -10570.0266 1395.1420 0.0000 0.0000 1751.1929 -7403.9223 299.9457 -9155.1153 -7378.4383 301.7004 -586.1311 -480.5320 30203.1406 -308.0765 -259.7775
ENERGY: 900000 5.2557 10.0729 5.4381 0.0000 -10511.0702 1423.3361 0.0000 0.0000 1739.9533 -7327.0141 298.0205 -9066.9674 -7380.1926 300.6676 -89.6649 26.1225 30031.6135 -252.5698 -202.0219
ENERGY: 1200000 2.9010 10.3518 6.2462 0.0000 -10644.4066 1488.4540 0.0000 0.0000 1752.4279 -7384.0258 300.1572 -9136.4536 -7384.0744 300.5940 565.7122 691.3658 29710.6171 -212.4222 -164.3699
ENERGY: 1500000 1.7281 10.3107 5.5501 0.0000 -10607.9475 1430.2286 0.0000 0.0000 1729.3105 -7430.8194 296.1976 -9160.1299 -7396.8395 299.6412 345.9994 420.9527 29477.6273 -208.1511 -163.4752
TCL: Running FEP window  14: Lambda1 0.65   Lambda2 0.7000000000000001 [dLambda 0.050000000000000044]
TCL: Setting parameter firsttimestep to 0
TCL: Setting parameter alchLambda to 0.65
Info: NONBONDED TABLE R-SQUARED SPACING: 0.0625
Info: NONBONDED TABLE SIZE: 705 POINTS
TCL: Setting parameter alchLambda2 to 0.7000000000000001
Info: NONBONDED TABLE R-SQUARED SPACING: 0.0625
Info: NONBONDED TABLE SIZE: 705 POINTS
TCL: Running for 1500000 steps
ETITLE: TS BOND ANGLE DIHED IMPRP ELECT VDW BOUNDARY MISC KINETIC TOTAL TEMP POTENTIAL TOTALAVG TEMPAVG PRESSURE GPRESSURE VOLUME PRESSAVG GPRESSAVG
ENERGY: 0 1.7281 10.3107 5.5501 0.0000 -10607.9499 1430.3437 0.0000 0.0000 1728.4571 -7431.5602 296.0515 -9160.0174 -7431.5602 296.0515 357.4071 433.0636 29477.6273 357.4071 433.0636
ENERGY: 300000 0.3675 13.1253 5.3357 0.0000 -10750.5230 1548.8052 0.0000 0.0000 1789.2474 -7393.6420 306.4637 -9182.8894 -7360.6035 305.6736 967.1279 1028.0860 29787.0807 451.6969 503.6326
ENERGY: 600000 3.8861 8.3256 5.1519 0.0000 -10640.9631 1456.8985 0.0000 0.0000 1749.2930 -7417.4080 299.6202 -9166.7010 -7382.8131 303.7562 306.1488 344.3702 30211.1762 224.6756 268.5296
ENERGY: 900000 6.5620 12.3068 6.8055 0.0000 -10707.4171 1543.7858 0.0000 0.0000 1695.3796 -7442.5774 290.3859 -9137.9570 -7389.3526 300.8692 1099.4721 1077.3741 30132.4625 304.6190 348.3813
ENERGY: 1200000 4.2453 9.6736 5.5553 0.0000 -10477.9073 1347.4466 0.0000 0.0000 1759.7960 -7351.1904 301.4192 -9110.9865 -7391.4648 300.3783 -576.4443 -438.4212 30218.8557 161.0618 215.8896
ENERGY: 1500000 1.6260 7.0968 5.3844 0.0000 -10557.8404 1359.7010 0.0000 0.0000 1741.6951 -7442.3371 298.3189 -9184.0322 -7410.7373 299.7877 -806.3120 -716.3073 30478.4838 33.3931 89.0726
TCL: Running FEP window  15: Lambda1 0.7000000000000001 Lambda2 0.7500000000000001 [dLambda 0.050000000000000044]
TCL: Setting parameter firsttimestep to 0
TCL: Setting parameter alchLambda to 0.7000000000000001
Info: NONBONDED TABLE R-SQUARED SPACING: 0.0625
Info: NONBONDED TABLE SIZE: 705 POINTS
TCL: Setting parameter alchLambda2 to 0.7500000000000001
Info: NONBONDED TABLE R-SQUARED SPACING: 0.0625
Info: NONBONDED TABLE SIZE: 705 POINTS
TCL: Running for 1500000 steps
ETITLE: TS BOND ANGLE DIHED IMPRP ELECT VDW BOUNDARY MISC KINETIC TOTAL TEMP POTENTIAL TOTALAVG TEMPAVG PRESSURE GPRESSURE VOLUME PRESSAVG GPRESSAVG
ENERGY: 0 1.6260 7.0968 5.3844 0.0000 -10557.8665 1360.5123 0.0000 0.0000 1740.8224 -7442.4247 298.1694 -9183.2470 -7442.4247 298.1694 -791.2968 -700.1294 30478.4838 -791.2968 -700.1294
ENERGY: 300000 5.3899 12.2747 4.9243 0.0000 -10684.7175 1450.0463 0.0000 0.0000 1717.2444 -7494.8379 294.1309 -9212.0823 -7417.0362 299.1072 13.0917 43.6796 29819.1183 -201.7207 -114.6867
ENERGY: 600000 3.4687 8.4574 5.5071 0.0000 -10633.5266 1392.6578 0.0000 0.0000 1726.5842 -7496.8514 295.7307 -9223.4356 -7417.6686 299.5850 -793.4737 -732.7952 30630.7326 -286.8597 -221.7653
ENERGY: 900000 0.5664 14.1632 7.1142 0.0000 -10604.6169 1454.6230 0.0000 0.0000 1739.5322 -7388.6179 297.9484 -9128.1501 -7404.2066 299.2806 162.3470 261.7330 30296.7612 -237.6227 -168.7481
ENERGY: 1200000 1.5190 14.8710 5.2644 0.0000 -10657.0936 1488.9591 0.0000 0.0000 1706.6797 -7439.8005 292.3214 -9146.4802 -7414.2115 298.0555 573.5075 642.8005 30024.6557 -245.1966 -183.9264
ENERGY: 1500000 4.3609 9.2079 6.0130 0.0000 -10593.0289 1385.4843 0.0000 0.0000 1700.4935 -7487.4693 291.2618 -9187.9629 -7413.3630 298.0606 -813.0222 -702.4992 30463.1561 -308.5650 -245.7894
TCL: Running FEP window  16: Lambda1 0.7500000000000001 Lambda2 0.8000000000000002 [dLambda 0.050000000000000044]
TCL: Setting parameter firsttimestep to 0
TCL: Setting parameter alchLambda to 0.7500000000000001
Info: NONBONDED TABLE R-SQUARED SPACING: 0.0625
Info: NONBONDED TABLE SIZE: 705 POINTS
TCL: Setting parameter alchLambda2 to 0.8000000000000002
Info: NONBONDED TABLE R-SQUARED SPACING: 0.0625
Info: NONBONDED TABLE SIZE: 705 POINTS
TCL: Running for 1500000 steps
ETITLE: TS BOND ANGLE DIHED IMPRP ELECT VDW BOUNDARY MISC KINETIC TOTAL TEMP POTENTIAL TOTALAVG TEMPAVG PRESSURE GPRESSURE VOLUME PRESSAVG GPRESSAVG
ENERGY: 0 4.3609 9.2079 6.0130 0.0000 -10593.0029 1385.6528 0.0000 0.0000 1699.6491 -7488.1192 291.1172 -9187.7683 -7488.1192 291.1172 -773.1470 -689.0848 30463.1561 -773.1470 -689.0848
ENERGY: 300000 3.1592 14.8556 5.1319 0.0000 -10634.1708 1438.2367 0.0000 0.0000 1830.9214 -7341.8660 313.6016 -9172.7874 -7400.1049 303.5089 202.9551 238.3493 29763.9296 -130.8853 -74.4255
ENERGY: 600000 0.4058 7.4820 5.2057 0.0000 -10649.2071 1470.1265 0.0000 0.0000 1801.1968 -7364.7904 308.5104 -9165.9871 -7384.6763 304.0725 388.6542 463.3098 30159.7908 -75.4988 -30.0173
ENERGY: 900000 1.9889 11.8198 5.3814 0.0000 -10606.9630 1411.3390 0.0000 0.0000 1727.2917 -7449.1421 295.8518 -9176.4338 -7393.3493 303.1570 -131.2850 -81.2885 29928.9005 65.5606 119.7861
ENERGY: 1200000 2.6172 10.0966 5.6920 0.0000 -10706.2985 1456.5486 0.0000 0.0000 1737.1641 -7494.1801 297.5428 -9231.3442 -7399.2790 302.1870 -125.7934 14.0170 30312.6375 70.5649 132.1044
ENERGY: 1500000 6.8801 7.8283 5.2529 0.0000 -10646.1560 1456.3093 0.0000 0.0000 1732.8518 -7437.0336 296.8042 -9169.8854 -7408.5698 301.1598 26.7097 64.4696 30202.8079 59.9200 119.6965
TCL: Running FEP window  17: Lambda1 0.8000000000000002 Lambda2 0.8500000000000002 [dLambda 0.050000000000000044]
TCL: Setting parameter firsttimestep to 0
TCL: Setting parameter alchLambda to 0.8000000000000002
Info: NONBONDED TABLE R-SQUARED SPACING: 0.0625
Info: NONBONDED TABLE SIZE: 705 POINTS
TCL: Setting parameter alchLambda2 to 0.8500000000000002
Info: NONBONDED TABLE R-SQUARED SPACING: 0.0625
Info: NONBONDED TABLE SIZE: 705 POINTS
TCL: Running for 1500000 steps
ETITLE: TS BOND ANGLE DIHED IMPRP ELECT VDW BOUNDARY MISC KINETIC TOTAL TEMP POTENTIAL TOTALAVG TEMPAVG PRESSURE GPRESSURE VOLUME PRESSAVG GPRESSAVG
ENERGY: 0 6.8801 7.8283 5.2529 0.0000 -10646.1138 1457.1049 0.0000 0.0000 1731.9976 -7437.0501 296.6579 -9169.0477 -7437.0501 296.6579 12.1726 85.9219 30202.8079 12.1726 85.9219
ENERGY: 300000 1.1427 14.0438 6.0115 0.0000 -10690.8673 1479.8096 0.0000 0.0000 1684.7335 -7505.1261 288.5624 -9189.8596 -7407.2610 297.1601 488.0688 580.9853 29587.1526 -333.1503 -274.7467
ENERGY: 600000 2.6508 8.1692 5.6443 0.0000 -10497.0030 1377.4476 0.0000 0.0000 1812.8645 -7290.2266 310.5088 -9103.0911 -7381.1901 299.2458 -235.8178 -193.8508 30102.9772 -233.6923 -183.3418
ENERGY: 900000 3.8240 13.2178 5.9307 0.0000 -10663.4519 1441.5704 0.0000 0.0000 1801.5742 -7397.3348 308.5750 -9198.9090 -7366.7510 300.6017 6.8429 83.7089 29928.8587 -238.7791 -166.0786
ENERGY: 1200000 2.8339 13.0960 5.0039 0.0000 -10626.5890 1414.0647 0.0000 0.0000 1790.5031 -7401.0873 306.6787 -9191.5905 -7375.0286 301.8585 -181.3967 -107.8331 30120.6327 -272.4586 -202.0760
ENERGY: 1500000 2.1253 13.1618 6.8402 0.0000 -10563.9542 1411.0219 0.0000 0.0000 1731.1554 -7399.6496 296.5136 -9130.8050 -7383.8096 300.5426 -138.8445 -89.3913 30427.0450 -242.7848 -177.7287
TCL: Running FEP window  18: Lambda1 0.8500000000000002 Lambda2 0.9000000000000002 [dLambda 0.050000000000000044]
TCL: Setting parameter firsttimestep to 0
TCL: Setting parameter alchLambda to 0.8500000000000002
Info: NONBONDED TABLE R-SQUARED SPACING: 0.0625
Info: NONBONDED TABLE SIZE: 705 POINTS
TCL: Setting parameter alchLambda2 to 0.9000000000000002
Info: NONBONDED TABLE R-SQUARED SPACING: 0.0625
Info: NONBONDED TABLE SIZE: 705 POINTS
TCL: Running for 1500000 steps
ETITLE: TS BOND ANGLE DIHED IMPRP ELECT VDW BOUNDARY MISC KINETIC TOTAL TEMP POTENTIAL TOTALAVG TEMPAVG PRESSURE GPRESSURE VOLUME PRESSAVG GPRESSAVG
ENERGY: 0 2.1253 13.1618 6.8402 0.0000 -10563.9289 1410.5344 0.0000 0.0000 1730.3017 -7400.9656 296.3674 -9131.2673 -7400.9656 296.3674 -164.2401 -81.8971 30427.0450 -164.2401 -81.8971
ENERGY: 300000 1.6210 6.9339 5.9994 0.0000 -10511.2626 1356.7173 0.0000 0.0000 1794.1944 -7345.7966 307.3110 -9139.9910 -7348.0836 304.2552 -393.1825 -415.2327 30237.0315 -81.0034 -25.0461
ENERGY: 600000 3.7459 11.9033 5.3486 0.0000 -10771.0089 1563.9439 0.0000 0.0000 1742.0408 -7444.0263 298.3781 -9186.0671 -7385.3236 301.2460 1346.3934 1446.2424 29629.5123 24.7650 83.0712
ENERGY: 900000 0.6375 9.1145 4.9717 0.0000 -10571.3583 1409.0611 0.0000 0.0000 1731.2543 -7416.3191 296.5306 -9147.5734 -7396.5573 300.3839 -78.5352 -3.8326 30144.0918 23.0391 70.9295
ENERGY: 1200000 1.7673 16.6201 5.4438 0.0000 -10461.7209 1342.7235 0.0000 0.0000 1779.2121 -7315.9541 304.7448 -9095.1662 -7411.8405 299.7427 -595.6190 -545.4743 30252.5057 -16.2312 35.8838
ENERGY: 1500000 1.8575 9.1218 5.2627 0.0000 -10644.0325 1469.5778 0.0000 0.0000 1730.5078 -7427.7048 296.4027 -9158.2126 -7404.6499 300.2136 236.8147 315.9510 30218.0083 10.6454 58.7576
TCL: Running FEP window  19: Lambda1 0.9000000000000002 Lambda2 0.9500000000000003 [dLambda 0.050000000000000044]
TCL: Setting parameter firsttimestep to 0
TCL: Setting parameter alchLambda to 0.9000000000000002
Info: NONBONDED TABLE R-SQUARED SPACING: 0.0625
Info: NONBONDED TABLE SIZE: 705 POINTS
TCL: Setting parameter alchLambda2 to 0.9500000000000003
Info: NONBONDED TABLE R-SQUARED SPACING: 0.0625
Info: NONBONDED TABLE SIZE: 705 POINTS
TCL: Running for 1500000 steps
ETITLE: TS BOND ANGLE DIHED IMPRP ELECT VDW BOUNDARY MISC KINETIC TOTAL TEMP POTENTIAL TOTALAVG TEMPAVG PRESSURE GPRESSURE VOLUME PRESSAVG GPRESSAVG
ENERGY: 0 1.8575 9.1218 5.2627 0.0000 -10644.0398 1468.9705 0.0000 0.0000 1729.6585 -7429.1687 296.2572 -9158.8272 -7429.1687 296.2572 223.6959 317.5532 30218.0083 223.6959 317.5532
ENERGY: 300000 1.4718 16.3289 5.6535 0.0000 -10557.4843 1418.6980 0.0000 0.0000 1720.6808 -7394.6513 294.7195 -9115.3321 -7449.2382 295.1127 10.3848 57.7047 30371.8213 -38.2238 35.7400
ENERGY: 600000 2.9179 13.1660 4.5683 0.0000 -10475.0837 1371.8103 0.0000 0.0000 1781.8707 -7300.7505 305.2002 -9082.6212 -7403.0651 296.5018 2.1876 22.2182 29876.0493 -142.8876 -88.2894
ENERGY: 900000 2.3825 13.8863 5.6075 0.0000 -10535.8258 1419.7415 0.0000 0.0000 1708.0645 -7386.1435 292.5586 -9094.2080 -7377.7184 299.3314 -10.7504 6.6109 30397.7098 -73.3972 -27.2798
ENERGY: 1200000 1.7491 13.6770 5.3700 0.0000 -10630.1025 1416.2911 0.0000 0.0000 1703.0325 -7489.9829 291.6967 -9193.0154 -7388.2569 298.6664 105.4412 133.1283 29477.4118 -100.6452 -48.8636
ENERGY: 1500000 3.9375 7.3193 5.3334 0.0000 -10627.6760 1441.8751 0.0000 0.0000 1773.1215 -7396.0892 303.7016 -9169.2107 -7399.6576 299.6750 -124.1753 -28.5363 30402.3211 -32.4614 21.8441
TCL: Running FEP window  20: Lambda1 0.9500000000000003 Lambda2 1.0    [dLambda 0.04999999999999971]
TCL: Setting parameter firsttimestep to 0
TCL: Setting parameter alchLambda to 0.9500000000000003
Info: NONBONDED TABLE R-SQUARED SPACING: 0.0625
Info: NONBONDED TABLE SIZE: 705 POINTS
TCL: Setting parameter alchLambda2 to 1.0
Info: NONBONDED TABLE R-SQUARED SPACING: 0.0625
Info: NONBONDED TABLE SIZE: 705 POINTS
TCL: Running for 1500000 steps
ETITLE: TS BOND ANGLE DIHED IMPRP ELECT VDW BOUNDARY MISC KINETIC TOTAL TEMP POTENTIAL TOTALAVG TEMPAVG PRESSURE GPRESSURE VOLUME PRESSAVG GPRESSAVG
ENERGY: 0 3.9375 7.3193 5.3334 0.0000 -10627.6600 1441.4417 0.0000 0.0000 1772.2578 -7397.3704 303.5537 -9169.6282 -7397.3704 303.5537 -97.7590 -21.7792 30402.3211 -97.7590 -21.7792
ENERGY: 300000 3.0091 11.6252 4.6687 0.0000 -10551.0909 1362.0231 0.0000 0.0000 1799.9148 -7369.8500 308.2908 -9169.7648 -7368.2243 302.7478 -466.1735 -434.5129 30536.9108 124.5975 168.4748
ENERGY: 600000 2.1662 8.8124 4.8070 0.0000 -10467.0104 1414.0782 0.0000 0.0000 1764.4636 -7272.6830 302.2187 -9037.1466 -7359.7523 300.3658 -79.9097 -73.1566 30721.1199 -31.4524 13.8639
ENERGY: 900000 2.3005 16.0452 6.3762 0.0000 -10429.3427 1409.5400 0.0000 0.0000 1794.1729 -7200.9080 307.3073 -8995.0809 -7369.4880 299.7641 239.5992 383.1825 30075.7575 -125.0800 -64.2552
ENERGY: 1200000 3.1444 11.8848 4.7406 0.0000 -10519.7534 1399.3691 0.0000 0.0000 1756.3977 -7344.2168 300.8371 -9100.6144 -7382.4419 299.6330 -86.4113 -2.1248 30173.9488 -80.5403 -21.9638
ENERGY: 1500000 1.9861 10.4512 4.7607 0.0000 -10576.7368 1387.3910 0.0000 0.0000 1715.0349 -7457.1129 293.7525 -9172.1478 -7400.8207 299.1733 -275.3465 -224.7192 30201.9543 -109.3631 -51.6879
TCL: Exiting due to exit command.
