Info: SIMULATION PARAMETERS:
Info: TIMESTEP               2
Info: NUMBER OF STEPS        0
Info: STEPS PER CYCLE        10
Info: PERIODIC CELL BASIS 1  32.2238 0 0
Info: PERIODIC CELL BASIS 2  0 31.057 0
Info: PERIODIC CELL BASIS 3  0 0 30.54
Info: PERIODIC CELL CENTER   0 0 0
Info: WRAPPING WATERS AROUND PERIODIC BOUNDARIES ON OUTPUT.
Info: WRAPPING ALL CLUSTERS AROUND PERIODIC BOUNDARIES ON OUTPUT.
Info: FIRST LDB TIMESTEP     50
Info: LAST LDB TIMESTEP     -1
Info: HOM BACKGROUND SCALING 1
Info: PME BACKGROUND SCALING 1
Info: MIN ATOMS PER PATCH    40
Info: EMPTY PATCH LOAD       40 ATOMS
Info: VELOCITY FILE          mobley_1800170_equil.vel
Info: CENTER OF MASS MOVING INITIALLY? NO
Info: DIELECTRIC             1
Info: EXCLUDE                SCALED ONE-FOUR
Info: 1-4 ELECTROSTATICS SCALED BY 0.833333
Info: MODIFIED 1-4 VDW PARAMETERS WILL BE USED
Info: DCD FILENAME           mobley_1800170_prod.dcd
Info: DCD FREQUENCY          100000
Info: DCD FIRST STEP         100000
Info: DCD FILE WILL CONTAIN UNIT CELL DATA
Info: XST FILENAME           mobley_1800170_prod.xst
Info: XST FREQUENCY          100000
Info: NO VELOCITY DCD OUTPUT
Info: NO FORCE DCD OUTPUT
Info: OUTPUT FILENAME        mobley_1800170_prod
Info: BINARY OUTPUT FILES WILL BE USED
Info: RESTART FILENAME       mobley_1800170_prod.restart
Info: RESTART FREQUENCY      100000
Info: BINARY RESTART FILES WILL BE USED
Info: CUTOFF                 9
Info: PAIRLIST DISTANCE      11
Info: PAIRLIST SHRINK RATE   0.01
Info: PAIRLIST GROW RATE     0.01
Info: PAIRLIST TRIGGER       0.3
Info: PAIRLISTS PER CYCLE    2
Info: PAIRLISTS ENABLED
Info: MARGIN                 2
Info: HYDROGEN GROUP CUTOFF  2.5
Info: PATCH DIMENSION        15.5
Info: ENERGY OUTPUT STEPS    100000
Info: ENERGY EVALUATION STEPS    100000
Info: OUTPUT ENERGY PRECISION 4
Info: CROSSTERM ENERGY INCLUDED IN DIHEDRAL
Info: TIMING OUTPUT STEPS    1000000
Info: PRESSURE OUTPUT STEPS  100000
Info: ALCHEMICAL FEP ON
Info: FEP CURRENT LAMBDA VALUE     1
Info: FEP COMPARISON LAMBDA VALUE  0.95
Info: FEP INTRA-ALCHEMICAL NON-BONDED INTERACTIONS WILL BE RETAINED
Info: FEP INTRA-ALCHEMICAL BONDED INTERACTIONS WILL BE RETAINED
Info: FEP VDW SHIFTING COEFFICIENT 5
Info: FEP ELEC. ACTIVE FOR ANNIHILATED PARTICLES BETWEEN LAMBDA = 0 AND LAMBDA = 0.5
Info: FEP ELEC. ACTIVE FOR EXNIHILATED PARTICLES BETWEEN LAMBDA = 0.5 AND LAMBDA = 1
Info: FEP VDW ACTIVE FOR ANNIHILATED PARTICLES BETWEEN LAMBDA = 0 AND LAMBDA = 1
Info: FEP VDW ACTIVE FOR EXNIHILATED PARTICLES BETWEEN LAMBDA = 0 AND LAMBDA = 1
Info: FEP BOND ACTIVE FOR ANNIHILATED PARTICLES BETWEEN LAMBDA = 1 AND LAMBDA = 1
Info: FEP BOND ACTIVE FOR EXNIHILATED PARTICLES BETWEEN LAMBDA = 0 AND LAMBDA = 0
Info: LANGEVIN DYNAMICS ACTIVE
Info: LANGEVIN TEMPERATURE   300
Info: LANGEVIN USING BBK INTEGRATOR
Info: LANGEVIN DAMPING COEFFICIENT IS 1 INVERSE PS
Info: LANGEVIN DYNAMICS APPLIED TO HYDROGENS
Info: LANGEVIN PISTON PRESSURE CONTROL ACTIVE
Info:        TARGET PRESSURE IS 1.01325 BAR
Info:     OSCILLATION PERIOD IS 50 FS
Info:             DECAY TIME IS 25 FS
Info:     PISTON TEMPERATURE IS 300 K
Info:       PRESSURE CONTROL IS GROUP-BASED
Info:    INITIAL STRAIN RATE IS 3.04831e-05 3.04831e-05 3.04831e-05
Info:       CELL FLUCTUATION IS ISOTROPIC
Info: PARTICLE MESH EWALD (PME) ACTIVE
Info: PME TOLERANCE               1e-06
Info: PME EWALD COEFFICIENT       0.348832
Info: PME INTERPOLATION ORDER     4
Info: PME GRID DIMENSIONS         36 32 32
Info: PME MAXIMUM GRID SPACING    1
Info: PME CALCULATION WILL BE PERFORMED ON GPU
Info: FULL ELECTROSTATIC EVALUATION FREQUENCY      2
Info: USING VERLET I (r-RESPA) MTS SCHEME.
Info: C1 SPLITTING OF LONG RANGE ELECTROSTATICS
Info: PLACING ATOMS IN PATCHES BY HYDROGEN GROUPS
Info: RIGID BONDS TO HYDROGEN : ALL
Info:         ERROR TOLERANCE : 1e-08
Info:          MAX ITERATIONS : 100
Info: RIGID WATER USING SETTLE ALGORITHM
Info: RANDOM NUMBER SEED     1743512044
Info: USE HYDROGEN BONDS?    NO
Info: Using AMBER format force field!
Info: AMBER PARM FILE        mobley_1800170.prmtop
Info: COORDINATE PDB         mobley_1800170.pdb
Info: Exclusions will be read from PARM file!
Info: SCNB (VDW SCALING)     2
Info: USING ARITHMETIC MEAN TO COMBINE L-J SIGMA PARAMETERS
Info: BINARY COORDINATES     mobley_1800170_equil.coor
Info: SUMMARY OF PARAMETERS:
Info: 7 BONDS
Info: 7 ANGLES
Info:   7 HARMONIC
Info:   0 COSINE-BASED
Info: 2 DIHEDRAL
Info: 0 IMPROPER
Info: 0 CROSSTERM
Info: 0 VDW
Info: 28 VDW_PAIRS
Info: 0 NBTHOLE_PAIRS
Info: To read alchdata from file: mobley_1800170.pdb
Info: To read alchflag data from column: 5
Info: STRUCTURE SUMMARY:
Info: 2952 ATOMS
Info: 2951 BONDS
Info: 13 ANGLES
Info: 12 DIHEDRALS
Info: 0 IMPROPERS
Info: 0 CROSSTERMS
Info: 2976 EXCLUSIONS
Info: 2949 RIGID BONDS
Info: ALCH: 0 ATOMS TO DISAPPEAR IN FINAL STATE
Info: ALCH: 9 ATOMS TO APPEAR IN FINAL STATE
Info: 5907 DEGREES OF FREEDOM
Info: 984 HYDROGEN GROUPS
Info: 4 ATOMS IN LARGEST HYDROGEN GROUP
Info: 984 MIGRATION GROUPS
Info: 4 ATOMS IN LARGEST MIGRATION GROUP
Info: TOTAL MASS = 17735.8 amu
Info: TOTAL CHARGE = 1.58325e-08 e
Info: MASS DENSITY = 0.963619 g/cm^3
Info: ATOM DENSITY = 0.0965853 atoms/A^3
Info: ADDED 0 IMPLICIT EXCLUSIONS
Info: NONBONDED TABLE R-SQUARED SPACING: 0.0625
Info: NONBONDED TABLE SIZE: 705 POINTS
Info: REDUCING NUMBER OF PATCHES TO IMPROVE LOAD BALANCE
Info: REMOVING COM VELOCITY 0.0792886 -0.150165 0.0281096
Info: Use 3D box decompostion in PME FFT.
Info: Updated CUDA force table with 4096 elements.
Info: Updated CUDA LJ table with 7 x 7 elements.
Info: Found 12 unique exclusion lists needing 16 bytes
TCL: Running for 1500000 steps
ETITLE: TS BOND ANGLE DIHED IMPRP ELECT VDW BOUNDARY MISC KINETIC TOTAL TEMP POTENTIAL TOTALAVG TEMPAVG PRESSURE GPRESSURE VOLUME PRESSAVG GPRESSAVG
ENERGY: 0 0.9454 4.0338 0.3948 0.0000 -10657.7844 1467.4687 0.0000 0.0000 1790.7197 -7394.2219 305.1062 -9184.9417 -7394.2219 305.1062 261.6571 347.1864 30563.6582 261.6571 347.1864
ENERGY: 300000 0.2685 3.3765 0.0854 0.0000 -10766.0995 1437.2790 0.0000 0.0000 1713.2929 -7611.7972 291.9141 -9325.0901 -7520.6424 295.9835 -512.1691 -481.6902 30985.3870 71.4626 162.9247
ENERGY: 600000 2.3065 8.1909 0.7918 0.0000 -10754.2875 1485.5808 0.0000 0.0000 1741.7079 -7515.7095 296.7555 -9257.4175 -7504.5248 297.8696 181.7717 267.7587 30858.9922 70.4094 150.7291
ENERGY: 900000 1.6947 4.1316 0.7312 0.0000 -10791.9367 1468.4529 0.0000 0.0000 1789.9296 -7526.9968 304.9716 -9316.9263 -7489.9897 299.4458 -14.5458 121.9851 30569.8643 34.0019 110.8267
ENERGY: 1200000 0.0365 4.5163 0.8937 0.0000 -10589.7042 1349.2799 0.0000 0.0000 1711.8961 -7523.0817 291.6761 -9234.9778 -7492.4647 298.1733 -621.1051 -554.7810 30668.8920 -14.9868 54.4048
ENERGY: 1500000 0.6989 3.3795 0.7734 0.0000 -10659.6710 1396.7439 0.0000 0.0000 1734.6289 -7523.4464 295.5493 -9258.0753 -7501.3878 297.4743 -182.5079 -133.5936 30145.3742 26.5519 89.5795
TCL: Running FEP window   2: Lambda1 0.95   Lambda2 0.8999999999999999 [dLambda -0.050000000000000044]
TCL: Setting parameter firsttimestep to 0
TCL: Setting parameter alchLambda to 0.95
Info: NONBONDED TABLE R-SQUARED SPACING: 0.0625
Info: NONBONDED TABLE SIZE: 705 POINTS
TCL: Setting parameter alchLambda2 to 0.8999999999999999
Info: NONBONDED TABLE R-SQUARED SPACING: 0.0625
Info: NONBONDED TABLE SIZE: 705 POINTS
TCL: Running for 1500000 steps
ETITLE: TS BOND ANGLE DIHED IMPRP ELECT VDW BOUNDARY MISC KINETIC TOTAL TEMP POTENTIAL TOTALAVG TEMPAVG PRESSURE GPRESSURE VOLUME PRESSAVG GPRESSAVG
ENERGY: 0 0.6989 3.3795 0.7734 0.0000 -10659.3690 1396.7158 0.0000 0.0000 1733.7704 -7524.0310 295.4031 -9257.8014 -7524.0310 295.4031 -217.3611 -143.0113 30145.3742 -217.3611 -143.0113
ENERGY: 300000 0.5445 2.9506 0.9431 0.0000 -10649.6851 1398.0704 0.0000 0.0000 1769.8925 -7477.2840 301.5576 -9247.1764 -7497.3697 298.3439 -460.5000 -369.1873 30804.1781 43.3085 106.9700
ENERGY: 600000 0.1027 6.2105 0.2079 0.0000 -10865.2254 1466.3410 0.0000 0.0000 1727.4538 -7664.9094 294.3268 -9392.3632 -7514.0952 298.5774 -40.8062 -6.4800 30050.1384 128.7172 179.5540
ENERGY: 900000 0.1963 2.9414 0.3268 0.0000 -10808.2200 1438.3357 0.0000 0.0000 1762.8136 -7603.6062 300.3515 -9366.4198 -7505.4652 300.7742 -352.3223 -289.8593 30535.0117 59.3595 118.6630
ENERGY: 1200000 0.1132 3.6960 0.2518 0.0000 -10732.6982 1508.5680 0.0000 0.0000 1741.3283 -7478.7409 296.6908 -9220.0692 -7493.5775 299.8047 698.3182 797.7019 30311.6806 107.3547 171.1010
ENERGY: 1500000 1.1539 2.4062 2.7424 0.0000 -10892.5297 1596.8135 0.0000 0.0000 1797.0503 -7492.3634 306.1848 -9289.4137 -7494.0065 299.9059 1072.4203 1156.7826 30423.2977 67.3654 133.6873
TCL: Running FEP window   3: Lambda1 0.8999999999999999 Lambda2 0.8499999999999999 [dLambda -0.050000000000000044]
TCL: Setting parameter firsttimestep to 0
TCL: Setting parameter alchLambda to 0.8999999999999999
Info: NONBONDED TABLE R-SQUARED SPACING: 0.0625
Info: NONBONDED TABLE SIZE: 705 POINTS
TCL: Setting parameter alchLambda2 to 0.8499999999999999
Info: NONBONDED TABLE R-SQUARED SPACING: 0.0625
Info: NONBONDED TABLE SIZE: 705 POINTS
TCL: Running for 1500000 steps
ETITLE: TS BOND ANGLE DIHED IMPRP ELECT VDW BOUNDARY MISC KINETIC TOTAL TEMP POTENTIAL TOTALAVG TEMPAVG PRESSURE GPRESSURE VOLUME PRESSAVG GPRESSAVG
ENERGY: 0 1.1539 2.4062 2.7424 0.0000 -10891.9131 1596.7192 0.0000 0.0000 1796.1706 -7492.7207 306.0349 -9288.8913 -7492.7207 306.0349 1057.9392 1151.1031 30423.2977 1057.9392 1151.1031
ENERGY: 300000 0.3973 2.9298 0.2512 0.0000 -10820.9037 1502.6247 0.0000 0.0000 1805.8946 -7508.8062 307.6917 -9314.7008 -7494.9342 299.0853 611.2157 693.0501 29783.6783 197.4482 262.0299
ENERGY: 600000 1.0189 3.3590 2.1900 0.0000 -10751.8883 1499.9484 0.0000 0.0000 1662.5841 -7582.7879 283.2742 -9245.3720 -7493.2398 298.0147 522.6163 649.5412 29968.5351 180.9614 243.1919
ENERGY: 900000 0.0431 3.0281 0.5274 0.0000 -10584.5616 1400.2431 0.0000 0.0000 1712.1856 -7468.5344 291.7254 -9180.7200 -7492.6970 298.4118 28.7077 61.2784 30180.9210 195.7276 251.9739
ENERGY: 1200000 1.3743 1.3520 0.4910 0.0000 -10580.3868 1346.1191 0.0000 0.0000 1750.2879 -7480.7624 298.2173 -9231.0503 -7488.8135 298.8571 -721.1330 -709.3386 30919.5117 120.2033 174.9830
ENERGY: 1500000 0.1278 3.3663 0.4519 0.0000 -10613.7444 1375.3962 0.0000 0.0000 1745.5666 -7488.8355 297.4129 -9234.4021 -7490.9219 299.3827 -371.0303 -356.9221 30294.8913 70.4141 118.8117
TCL: Running FEP window   4: Lambda1 0.8499999999999999 Lambda2 0.7999999999999998 [dLambda -0.050000000000000044]
TCL: Setting parameter firsttimestep to 0
TCL: Setting parameter alchLambda to 0.8499999999999999
Info: NONBONDED TABLE R-SQUARED SPACING: 0.0625
Info: NONBONDED TABLE SIZE: 705 POINTS
TCL: Setting parameter alchLambda2 to 0.7999999999999998
Info: NONBONDED TABLE R-SQUARED SPACING: 0.0625
Info: NONBONDED TABLE SIZE: 705 POINTS
TCL: Running for 1500000 steps
ETITLE: TS BOND ANGLE DIHED IMPRP ELECT VDW BOUNDARY MISC KINETIC TOTAL TEMP POTENTIAL TOTALAVG TEMPAVG PRESSURE GPRESSURE VOLUME PRESSAVG GPRESSAVG
ENERGY: 0 0.1278 3.3663 0.4519 0.0000 -10613.2402 1374.5344 0.0000 0.0000 1744.7001 -7490.0597 297.2653 -9234.7598 -7490.0597 297.2653 -472.0435 -375.8248 30294.8913 -472.0435 -375.8248
ENERGY: 300000 0.4236 3.3245 0.2247 0.0000 -10760.1954 1436.9085 0.0000 0.0000 1729.2045 -7590.1095 294.6251 -9319.3141 -7528.6129 300.0533 -245.4219 -125.7234 30222.0448 -32.9564 34.0605
ENERGY: 600000 2.3390 2.5563 1.2923 0.0000 -10617.5643 1454.0596 0.0000 0.0000 1773.7302 -7383.5870 302.2115 -9157.3172 -7508.1149 299.6708 691.4755 687.5751 30360.2382 -0.1814 52.9732
ENERGY: 900000 0.3462 4.2901 1.0852 0.0000 -10697.4134 1438.3097 0.0000 0.0000 1730.2162 -7523.1660 294.7975 -9253.3822 -7512.0691 298.8497 -28.0414 -35.2938 30429.1861 126.3040 182.1343
ENERGY: 1200000 0.2939 3.2108 0.4273 0.0000 -10858.3032 1571.7648 0.0000 0.0000 1772.5568 -7510.0496 302.0116 -9282.6064 -7503.3509 299.5257 1109.3249 1163.4657 30093.0661 112.4371 175.4280
ENERGY: 1500000 0.0803 6.0397 1.4699 0.0000 -10668.5218 1502.5415 0.0000 0.0000 1755.0756 -7403.3148 299.0331 -9158.3905 -7502.1670 298.8157 565.7375 630.4884 30572.5300 62.4196 120.2558
TCL: Running FEP window   5: Lambda1 0.7999999999999998 Lambda2 0.7499999999999998 [dLambda -0.050000000000000044]
TCL: Setting parameter firsttimestep to 0
TCL: Setting parameter alchLambda to 0.7999999999999998
Info: NONBONDED TABLE R-SQUARED SPACING: 0.0625
Info: NONBONDED TABLE SIZE: 705 POINTS
TCL: Setting parameter alchLambda2 to 0.7499999999999998
Info: NONBONDED TABLE R-SQUARED SPACING: 0.0625
Info: NONBONDED TABLE SIZE: 705 POINTS
TCL: Running for 1500000 steps
ETITLE: TS BOND ANGLE DIHED IMPRP ELECT VDW BOUNDARY MISC KINETIC TOTAL TEMP POTENTIAL TOTALAVG TEMPAVG PRESSURE GPRESSURE VOLUME PRESSAVG GPRESSAVG
ENERGY: 0 0.0803 6.0397 1.4699 0.0000 -10667.8775 1502.6850 0.0000 0.0000 1754.2151 -7403.3875 298.8865 -9157.6026 -7403.3875 298.8865 545.2502 625.4778 30572.5300 545.2502 625.4778
ENERGY: 300000 0.0625 3.9792 0.7724 0.0000 -10793.8380 1462.8163 0.0000 0.0000 1728.2014 -7598.0062 294.4542 -9326.2076 -7530.6643 296.7806 52.4953 74.2986 30490.4157 138.2368 192.5713
ENERGY: 600000 0.3408 3.0805 0.6959 0.0000 -10785.1528 1512.4246 0.0000 0.0000 1771.4174 -7497.1936 301.8174 -9268.6110 -7536.2829 298.3771 518.0797 605.2007 30341.1580 13.3257 72.0071
ENERGY: 900000 0.0398 2.9750 0.3530 0.0000 -10511.5055 1324.3948 0.0000 0.0000 1762.7008 -7421.0421 300.3323 -9183.7429 -7530.9580 299.9036 -538.4167 -419.6853 30064.0558 38.6671 90.9748
ENERGY: 1200000 0.2675 4.6900 0.1198 0.0000 -10794.5992 1493.8180 0.0000 0.0000 1718.0714 -7577.6325 292.7282 -9295.7038 -7508.3433 300.1563 518.9978 544.0042 30249.9676 5.5494 51.7037
ENERGY: 1500000 1.3590 4.4439 0.4701 0.0000 -10554.0312 1346.1046 0.0000 0.0000 1761.1384 -7440.5151 300.0661 -9201.6536 -7508.9700 299.7565 -818.8423 -855.4946 31046.6638 -6.7558 33.7662
TCL: Running FEP window   6: Lambda1 0.7499999999999998 Lambda2 0.6999999999999997 [dLambda -0.050000000000000044]
TCL: Setting parameter firsttimestep to 0
TCL: Setting parameter alchLambda to 0.7499999999999998
Info: NONBONDED TABLE R-SQUARED SPACING: 0.0625
Info: NONBONDED TABLE SIZE: 705 POINTS
TCL: Setting parameter alchLambda2 to 0.6999999999999997
Info: NONBONDED TABLE R-SQUARED SPACING: 0.0625
Info: NONBONDED TABLE SIZE: 705 POINTS
TCL: Running for 1500000 steps
ETITLE: TS BOND ANGLE DIHED IMPRP ELECT VDW BOUNDARY MISC KINETIC TOTAL TEMP POTENTIAL TOTALAVG TEMPAVG PRESSURE GPRESSURE VOLUME PRESSAVG GPRESSAVG
ENERGY: 0 1.3590 4.4439 0.4701 0.0000 -10553.7244 1345.9651 0.0000 0.0000 1760.2335 -7441.2528 299.9119 -9201.4862 -7441.2528 299.9119 -918.4682 -865.1567 31046.6638 -918.4682 -865.1567
ENERGY: 300000 0.4770 6.0319 0.1278 0.0000 -10667.6537 1402.7706 0.0000 0.0000 1700.7540 -7557.4923 289.7777 -9258.2463 -7535.1880 296.9421 -315.1161 -241.1067 30212.5641 -370.2271 -303.7806
ENERGY: 600000 0.2917 9.6628 1.2581 0.0000 -10794.2261 1527.9707 0.0000 0.0000 1785.0035 -7470.0394 304.1323 -9255.0428 -7520.9130 297.4416 711.7150 735.3737 30339.8531 -195.6004 -157.4456
ENERGY: 900000 0.4606 3.0891 0.6936 0.0000 -10602.3094 1349.3289 0.0000 0.0000 1764.6898 -7484.0474 300.6712 -9248.7372 -7512.5687 297.8233 -545.4016 -492.6116 30360.8861 -170.4149 -123.4237
ENERGY: 1200000 0.8341 5.0916 0.7444 0.0000 -10728.5605 1480.6553 0.0000 0.0000 1752.5235 -7488.7116 298.5983 -9241.2351 -7506.4642 298.6292 485.6505 581.0487 30050.7316 -115.4110 -69.3211
ENERGY: 1500000 0.6174 3.6973 0.2175 0.0000 -10684.1898 1408.7099 0.0000 0.0000 1769.4582 -7501.4894 301.4836 -9270.9476 -7507.9148 298.7759 -144.4162 -138.2834 30287.3152 -105.3808 -58.1915
TCL: Running FEP window   7: Lambda1 0.6999999999999997 Lambda2 0.6499999999999997 [dLambda -0.050000000000000044]
TCL: Setting parameter firsttimestep to 0
TCL: Setting parameter alchLambda to 0.6999999999999997
Info: NONBONDED TABLE R-SQUARED SPACING: 0.0625
Info: NONBONDED TABLE SIZE: 705 POINTS
TCL: Setting parameter alchLambda2 to 0.6499999999999997
Info: NONBONDED TABLE R-SQUARED SPACING: 0.0625
Info: NONBONDED TABLE SIZE: 705 POINTS
TCL: Running for 1500000 steps
ETITLE: TS BOND ANGLE DIHED IMPRP ELECT VDW BOUNDARY MISC KINETIC TOTAL TEMP POTENTIAL TOTALAVG TEMPAVG PRESSURE GPRESSURE VOLUME PRESSAVG GPRESSAVG
ENERGY: 0 0.6174 3.6973 0.2175 0.0000 -10684.1830 1408.9483 0.0000 0.0000 1768.5369 -7502.1656 301.3266 -9270.7025 -7502.1656 301.3266 -239.9107 -141.0734 30287.3152 -239.9107 -141.0734
ENERGY: 300000 0.3169 2.1346 2.2459 0.0000 -10832.6735 1588.4284 0.0000 0.0000 1758.4595 -7481.0882 299.6096 -9239.5477 -7495.6885 299.9751 860.8806 921.1235 30836.5459 -2.5611 48.3848
ENERGY: 600000 0.0192 4.0022 0.4601 0.0000 -10697.3833 1431.8372 0.0000 0.0000 1757.3826 -7503.6819 299.4262 -9261.0645 -7515.5903 298.8911 -66.6136 20.7879 30123.7072 -49.3487 6.6276
ENERGY: 900000 0.7642 1.1518 0.1190 0.0000 -10605.0298 1375.3993 0.0000 0.0000 1775.9308 -7451.6647 302.5864 -9227.5955 -7499.6707 300.2730 -224.8827 -198.5880 30318.0907 -129.7223 -73.6315
ENERGY: 1200000 0.4733 8.1475 0.6364 0.0000 -10761.0499 1465.1905 0.0000 0.0000 1770.7353 -7515.8668 301.7012 -9286.6022 -7508.2060 299.6731 197.7661 208.5212 30414.8830 -118.2268 -60.1199
ENERGY: 1500000 0.1896 3.9586 1.2858 0.0000 -10652.1989 1367.4649 0.0000 0.0000 1817.0371 -7462.2628 309.5902 -9279.2999 -7512.5516 299.8017 -512.2120 -443.0673 30328.1251 -188.7221 -133.3177
TCL: Running FEP window   8: Lambda1 0.6499999999999997 Lambda2 0.5999999999999996 [dLambda -0.050000000000000044]
TCL: Setting parameter firsttimestep to 0
TCL: Setting parameter alchLambda to 0.6499999999999997
Info: NONBONDED TABLE R-SQUARED SPACING: 0.0625
Info: NONBONDED TABLE SIZE: 705 POINTS
TCL: Setting parameter alchLambda2 to 0.5999999999999996
Info: NONBONDED TABLE R-SQUARED SPACING: 0.0625
Info: NONBONDED TABLE SIZE: 705 POINTS
TCL: Running for 1500000 steps
ETITLE: TS BOND ANGLE DIHED IMPRP ELECT VDW BOUNDARY MISC KINETIC TOTAL TEMP POTENTIAL TOTALAVG TEMPAVG PRESSURE GPRESSURE VOLUME PRESSAVG GPRESSAVG
ENERGY: 0 0.1896 3.9586 1.2858 0.0000 -10652.1623 1367.3805 0.0000 0.0000 1816.1765 -7463.1713 309.4436 -9279.3478 -7463.1713 309.4436 -517.5378 -448.2664 30328.1251 -517.5378 -448.2664
ENERGY: 300000 0.8881 6.0569 1.0754 0.0000 -10647.5370 1421.7276 0.0000 0.0000 1828.1284 -7389.6607 311.4800 -9217.7891 -7454.9691 305.8649 61.6884 155.5195 30161.3308 -125.7143 -49.5042
ENERGY: 600000 0.3582 3.2241 0.8743 0.0000 -10677.4957 1420.9190 0.0000 0.0000 1740.3807 -7511.7393 296.5293 -9252.1200 -7483.9736 301.5024 -138.3753 -38.8596 30433.2299 -131.5350 -44.5584
ENERGY: 900000 0.3566 2.5879 1.0333 0.0000 -10703.0642 1411.0580 0.0000 0.0000 1785.4238 -7502.6045 304.2039 -9288.0284 -7501.2626 299.8293 -102.2729 -26.3366 30204.8454 -174.2361 -92.6282
ENERGY: 1200000 0.6534 2.7973 1.6382 0.0000 -10645.0367 1414.5919 0.0000 0.0000 1747.9625 -7477.3933 297.8212 -9225.3559 -7505.2305 298.8702 -35.2189 27.6551 30504.0302 -202.8082 -120.0451
ENERGY: 1500000 0.7074 2.6272 0.7742 0.0000 -10642.0664 1351.5860 0.0000 0.0000 1708.8074 -7577.5643 291.1498 -9286.3718 -7513.2347 299.2032 -694.0760 -614.2606 30151.1025 -184.8151 -100.9425
TCL: Running FEP window   9: Lambda1 0.5999999999999996 Lambda2 0.5499999999999996 [dLambda -0.050000000000000044]
TCL: Setting parameter firsttimestep to 0
TCL: Setting parameter alchLambda to 0.5999999999999996
Info: NONBONDED TABLE R-SQUARED SPACING: 0.0625
Info: NONBONDED TABLE SIZE: 705 POINTS
TCL: Setting parameter alchLambda2 to 0.5499999999999996
Info: NONBONDED TABLE R-SQUARED SPACING: 0.0625
Info: NONBONDED TABLE SIZE: 705 POINTS
TCL: Running for 1500000 steps
ETITLE: TS BOND ANGLE DIHED IMPRP ELECT VDW BOUNDARY MISC KINETIC TOTAL TEMP POTENTIAL TOTALAVG TEMPAVG PRESSURE GPRESSURE VOLUME PRESSAVG GPRESSAVG
ENERGY: 0 0.7074 2.6272 0.7742 0.0000 -10641.8133 1351.8321 0.0000 0.0000 1707.9074 -7577.9652 290.9965 -9285.8725 -7577.9652 290.9965 -696.9468 -615.2284 30151.1025 -696.9468 -615.2284
ENERGY: 300000 1.6957 2.8585 0.4824 0.0000 -10678.7990 1418.8191 0.0000 0.0000 1766.7202 -7488.2231 301.0171 -9254.9433 -7520.4542 298.2764 -318.9251 -280.8552 30748.2705 -390.5124 -307.2228
ENERGY: 600000 1.0193 2.4063 1.4480 0.0000 -10651.1873 1389.7119 0.0000 0.0000 1751.9587 -7504.6431 298.5020 -9256.6018 -7530.6028 297.3373 -382.6559 -374.1987 30266.6850 -291.7527 -210.8272
ENERGY: 900000 0.3160 3.5740 0.9052 0.0000 -10722.6110 1433.8996 0.0000 0.0000 1768.1890 -7515.7272 301.2674 -9283.9163 -7520.5853 298.5013 -398.5353 -303.5493 30978.0151 -179.8191 -102.6386
ENERGY: 1200000 0.0889 3.0897 0.1552 0.0000 -10624.8304 1456.8619 0.0000 0.0000 1713.1723 -7451.4625 291.8935 -9164.6347 -7512.9342 298.7747 278.6822 241.9659 31000.7343 -142.8253 -80.1193
ENERGY: 1500000 0.0453 3.6515 0.4915 0.0000 -10728.6129 1459.2662 0.0000 0.0000 1757.2482 -7507.9103 299.4033 -9265.1585 -7512.8412 298.7237 133.9572 160.3525 30329.5620 -163.9158 -103.9742
TCL: Running FEP window  10: Lambda1 0.5499999999999996 Lambda2 0.4999999999999996 [dLambda -0.04999999999999999]
TCL: Setting parameter firsttimestep to 0
TCL: Setting parameter alchLambda to 0.5499999999999996
Info: NONBONDED TABLE R-SQUARED SPACING: 0.0625
Info: NONBONDED TABLE SIZE: 705 POINTS
TCL: Setting parameter alchLambda2 to 0.4999999999999996
Info: NONBONDED TABLE R-SQUARED SPACING: 0.0625
Info: NONBONDED TABLE SIZE: 705 POINTS
TCL: Running for 1500000 steps
ETITLE: TS BOND ANGLE DIHED IMPRP ELECT VDW BOUNDARY MISC KINETIC TOTAL TEMP POTENTIAL TOTALAVG TEMPAVG PRESSURE GPRESSURE VOLUME PRESSAVG GPRESSAVG
ENERGY: 0 0.0453 3.6515 0.4915 0.0000 -10728.7066 1459.4899 0.0000 0.0000 1756.3861 -7508.6423 299.2564 -9265.0284 -7508.6423 299.2564 98.7607 159.3312 30329.5620 98.7607 159.3312
ENERGY: 300000 0.1420 3.5756 0.8543 0.0000 -10829.5054 1498.6227 0.0000 0.0000 1755.7646 -7570.5462 299.1505 -9326.3108 -7540.7282 300.5140 326.1019 463.7487 29958.7316 -220.2637 -163.0556
ENERGY: 600000 0.5588 1.4880 0.3626 0.0000 -10662.7780 1436.9868 0.0000 0.0000 1731.4116 -7491.9703 295.0012 -9223.3819 -7519.4049 300.6980 -88.7278 -30.5438 30747.7355 59.2778 115.0504
ENERGY: 900000 0.7259 2.6021 0.5622 0.0000 -10745.1227 1425.4530 0.0000 0.0000 1739.9757 -7575.8039 296.4603 -9315.7796 -7516.3052 299.1983 -252.6207 -210.3001 30224.2299 -117.1065 -67.6885
ENERGY: 1200000 0.9802 1.0417 1.5543 0.0000 -10472.8196 1282.0536 0.0000 0.0000 1810.7012 -7376.4888 308.5107 -9187.1899 -7503.0571 299.4946 -1062.3931 -973.7376 30706.0576 -120.5400 -67.4044
ENERGY: 1500000 0.1653 4.0291 0.0809 0.0000 -10624.4410 1318.6114 0.0000 0.0000 1773.9421 -7527.6122 302.2476 -9301.5543 -7508.4606 299.2681 -1244.3075 -1182.0870 30750.8539 -190.5538 -136.8551
TCL: Running FEP window  11: Lambda1 0.4999999999999996 Lambda2 0.4499999999999996 [dLambda -0.04999999999999999]
TCL: Setting parameter firsttimestep to 0
TCL: Setting parameter alchLambda to 0.4999999999999996
Info: NONBONDED TABLE R-SQUARED SPACING: 0.0625
Info: NONBONDED TABLE SIZE: 705 POINTS
TCL: Setting parameter alchLambda2 to 0.4499999999999996
Info: NONBONDED TABLE R-SQUARED SPACING: 0.0625
Info: NONBONDED TABLE SIZE: 705 POINTS
TCL: Running for 1500000 steps
ETITLE: TS BOND ANGLE DIHED IMPRP ELECT VDW BOUNDARY MISC KINETIC TOTAL TEMP POTENTIAL TOTALAVG TEMPAVG PRESSURE GPRESSURE VOLUME PRESSAVG GPRESSAVG
ENERGY: 0 0.1653 4.0291 0.0809 0.0000 -10624.4202 1318.9658 0.0000 0.0000 1773.0551 -7528.1240 302.0965 -9301.1791 -7528.1240 302.0965 -1271.5253 -1181.9522 30750.8539 -1271.5253 -1181.9522
ENERGY: 300000 0.0386 2.2482 0.2586 0.0000 -10810.8426 1508.9976 0.0000 0.0000 1801.4194 -7497.8802 306.9292 -9299.2997 -7519.9117 303.5178 709.3083 668.6319 30022.6850 -99.4697 -69.7737
ENERGY: 600000 0.3980 5.3784 0.2397 0.0000 -10781.0285 1512.0796 0.0000 0.0000 1782.2475 -7480.6852 303.6627 -9262.9328 -7526.3593 301.5527 340.9023 411.2169 30713.8791 42.3075 83.2862
ENERGY: 900000 1.7502 4.1600 3.0703 0.0000 -10763.7251 1383.2623 0.0000 0.0000 1759.5645 -7611.9178 299.7979 -9371.4822 -7543.9270 300.8063 -575.6767 -588.3094 29914.7716 55.9257 92.2071
ENERGY: 1200000 0.5311 2.3903 0.0892 0.0000 -10570.1345 1324.6733 0.0000 0.0000 1756.2429 -7486.2076 299.2320 -9242.4506 -7547.4125 299.2506 -649.1170 -667.6191 30122.1346 62.3054 93.3552
ENERGY: 1500000 0.5741 5.6602 0.9078 0.0000 -10596.1531 1388.2854 0.0000 0.0000 1771.4570 -7429.2685 301.8242 -9200.7256 -7529.5515 299.3729 -311.1180 -231.7555 30584.2233 32.2030 66.1713
TCL: Running FEP window  12: Lambda1 0.4499999999999996 Lambda2 0.39999999999999963 [dLambda -0.04999999999999999]
TCL: Setting parameter firsttimestep to 0
TCL: Setting parameter alchLambda to 0.4499999999999996
Info: NONBONDED TABLE R-SQUARED SPACING: 0.0625
Info: NONBONDED TABLE SIZE: 705 POINTS
TCL: Setting parameter alchLambda2 to 0.39999999999999963
Info: NONBONDED TABLE R-SQUARED SPACING: 0.0625
Info: NONBONDED TABLE SIZE: 705 POINTS
TCL: Running for 1500000 steps
ETITLE: TS BOND ANGLE DIHED IMPRP ELECT VDW BOUNDARY MISC KINETIC TOTAL TEMP POTENTIAL TOTALAVG TEMPAVG PRESSURE GPRESSURE VOLUME PRESSAVG GPRESSAVG
ENERGY: 0 0.5741 5.6602 0.9078 0.0000 -10596.1530 1387.9454 0.0000 0.0000 1770.5702 -7430.4953 301.6731 -9201.0655 -7430.4953 301.6731 -323.8513 -239.6330 30584.2233 -323.8513 -239.6330
ENERGY: 300000 1.6065 3.9463 0.3398 0.0000 -10795.1931 1488.3772 0.0000 0.0000 1764.7910 -7536.1323 300.6884 -9300.9233 -7521.1243 299.4200 347.1254 407.0239 30207.4652 122.0599 183.6332
ENERGY: 600000 0.1727 1.2942 0.5633 0.0000 -10786.5786 1515.5958 0.0000 0.0000 1751.3859 -7517.5668 298.4044 -9268.9527 -7518.8943 299.8438 410.5648 495.6450 30446.5014 252.6861 319.9250
ENERGY: 900000 0.1784 3.9784 1.9922 0.0000 -10736.9688 1531.1413 0.0000 0.0000 1798.6959 -7400.9826 306.4652 -9199.6785 -7490.8933 301.6964 1028.4329 1079.8494 30187.6031 203.9682 270.7131
ENERGY: 1200000 0.1992 1.9557 0.4201 0.0000 -10917.6959 1508.3175 0.0000 0.0000 1801.8611 -7604.9423 307.0045 -9406.8034 -7496.7058 302.5864 286.4645 332.4481 29975.4983 191.0895 247.8605
ENERGY: 1500000 0.3924 5.1367 1.0726 0.0000 -10805.9606 1498.6684 0.0000 0.0000 1800.0717 -7500.6189 306.6996 -9300.6906 -7495.3169 302.2525 209.9925 254.5836 30506.6932 204.0651 258.6431
TCL: Running FEP window  13: Lambda1 0.39999999999999963 Lambda2 0.34999999999999964 [dLambda -0.04999999999999999]
TCL: Setting parameter firsttimestep to 0
TCL: Setting parameter alchLambda to 0.39999999999999963
Info: NONBONDED TABLE R-SQUARED SPACING: 0.0625
Info: NONBONDED TABLE SIZE: 705 POINTS
TCL: Setting parameter alchLambda2 to 0.34999999999999964
Info: NONBONDED TABLE R-SQUARED SPACING: 0.0625
Info: NONBONDED TABLE SIZE: 705 POINTS
TCL: Running for 1500000 steps
ETITLE: TS BOND ANGLE DIHED IMPRP ELECT VDW BOUNDARY MISC KINETIC TOTAL TEMP POTENTIAL TOTALAVG TEMPAVG PRESSURE GPRESSURE VOLUME PRESSAVG GPRESSAVG
ENERGY: 0 0.3924 5.1367 1.0726 0.0000 -10805.9614 1498.5964 0.0000 0.0000 1799.1720 -7501.5914 306.5463 -9300.7633 -7501.5914 306.5463 166.1876 251.6376 30506.6932 166.1876 251.6376
ENERGY: 300000 1.6100 2.5379 1.7317 0.0000 -10601.3944 1340.9265 0.0000 0.0000 1745.5673 -7509.0210 297.4130 -9254.5884 -7529.8217 300.7561 -922.3426 -868.5127 30766.8938 -442.9784 -382.7941
ENERGY: 600000 0.7692 3.3484 1.0086 0.0000 -10825.1250 1515.1226 0.0000 0.0000 1766.7865 -7538.0896 301.0284 -9304.8761 -7527.8507 299.3650 505.0392 543.3744 30333.3830 -323.7836 -272.1767
ENERGY: 900000 0.8828 2.0496 0.3087 0.0000 -10737.2053 1515.3189 0.0000 0.0000 1713.8006 -7504.8446 292.0006 -9218.6452 -7514.4910 298.1810 576.9597 615.4151 30488.6523 -234.3684 -177.5478
ENERGY: 1200000 1.0134 3.8003 0.5175 0.0000 -10783.4148 1475.3839 0.0000 0.0000 1753.3494 -7549.3504 298.7390 -9302.6998 -7520.0032 298.3491 139.8983 249.8531 30326.5487 -129.0186 -71.8384
ENERGY: 1500000 1.0815 3.0724 1.0751 0.0000 -10732.1676 1473.7852 0.0000 0.0000 1771.9164 -7481.2370 301.9025 -9253.1534 -7518.8066 298.4218 330.2064 389.7665 30049.9899 -65.4789 -7.6427
TCL: Running FEP window  14: Lambda1 0.34999999999999964 Lambda2 0.29999999999999966 [dLambda -0.04999999999999999]
TCL: Setting parameter firsttimestep to 0
TCL: Setting parameter alchLambda to 0.34999999999999964
Info: NONBONDED TABLE R-SQUARED SPACING: 0.0625
Info: NONBONDED TABLE SIZE: 705 POINTS
TCL: Setting parameter alchLambda2 to 0.29999999999999966
Info: NONBONDED TABLE R-SQUARED SPACING: 0.0625
Info: NONBONDED TABLE SIZE: 705 POINTS
TCL: Running for 1500000 steps
ETITLE: TS BOND ANGLE DIHED IMPRP ELECT VDW BOUNDARY MISC KINETIC TOTAL TEMP POTENTIAL TOTALAVG TEMPAVG PRESSURE GPRESSURE VOLUME PRESSAVG GPRESSAVG
ENERGY: 0 1.0816 3.0724 1.0751 0.0000 -10732.1660 1474.0003 0.0000 0.0000 1771.0150 -7481.9216 301.7489 -9252.9366 -7481.9216 301.7489 314.8741 390.7669 30049.9899 314.8741 390.7669
ENERGY: 300000 0.5986 3.1744 0.5650 0.0000 -10553.3883 1374.3241 0.0000 0.0000 1785.5710 -7389.1553 304.2290 -9174.7263 -7500.0554 302.5867 -41.0437 -26.0870 30242.3040 1.9259 66.8841
ENERGY: 600000 0.6124 1.6699 2.2673 0.0000 -10892.5585 1521.5937 0.0000 0.0000 1766.8939 -7599.5213 301.0467 -9366.4152 -7527.0264 300.2054 205.7678 272.7597 30387.7442 -208.9865 -136.5387
ENERGY: 900000 1.0637 2.7068 0.0477 0.0000 -10598.9800 1294.0400 0.0000 0.0000 1741.1270 -7559.9947 296.6565 -9301.1217 -7517.5020 300.4248 -1320.4705 -1312.3543 30429.3381 -429.9317 -374.1065
ENERGY: 1200000 0.3015 2.4886 0.0831 0.0000 -10645.5182 1487.5863 0.0000 0.0000 1755.1876 -7399.8710 299.0522 -9155.0587 -7516.0359 299.3485 496.2969 636.7006 30648.1152 -252.0859 -195.1017
ENERGY: 1500000 1.1627 1.8875 0.9920 0.0000 -10719.3979 1443.6549 0.0000 0.0000 1781.8914 -7489.8094 303.6020 -9271.7008 -7517.9146 299.8218 -123.5536 5.1420 30703.8461 -233.0675 -177.3430
TCL: Running FEP window  15: Lambda1 0.29999999999999966 Lambda2 0.24999999999999967 [dLambda -0.04999999999999999]
TCL: Setting parameter firsttimestep to 0
TCL: Setting parameter alchLambda to 0.29999999999999966
Info: NONBONDED TABLE R-SQUARED SPACING: 0.0625
Info: NONBONDED TABLE SIZE: 705 POINTS
TCL: Setting parameter alchLambda2 to 0.24999999999999967
Info: NONBONDED TABLE R-SQUARED SPACING: 0.0625
Info: NONBONDED TABLE SIZE: 705 POINTS
TCL: Running for 1500000 steps
ETITLE: TS BOND ANGLE DIHED IMPRP ELECT VDW BOUNDARY MISC KINETIC TOTAL TEMP POTENTIAL TOTALAVG TEMPAVG PRESSURE GPRESSURE VOLUME PRESSAVG GPRESSAVG
ENERGY: 0 1.1627 1.8875 0.9920 0.0000 -10719.3988 1443.5982 0.0000 0.0000 1781.0451 -7490.7134 303.4578 -9271.7585 -7490.7134 303.4578 -77.2805 1.2117 30703.8461 -77.2805 1.2117
ENERGY: 300000 0.1557 2.0765 1.3750 0.0000 -10760.9564 1432.8650 0.0000 0.0000 1749.3548 -7575.1293 298.0584 -9324.4841 -7472.0347 302.9811 -327.2968 -274.0688 30386.5382 -34.2213 38.2196
ENERGY: 600000 0.1846 4.1129 0.1934 0.0000 -10722.0413 1457.0448 0.0000 0.0000 1732.1545 -7528.3510 295.1277 -9260.5055 -7495.7819 301.5280 252.9564 304.4075 30029.7005 -20.1765 29.6758
ENERGY: 900000 0.4574 4.3933 0.2062 0.0000 -10702.3942 1399.3112 0.0000 0.0000 1816.1573 -7481.8688 309.4403 -9298.0260 -7492.2329 302.4277 -171.9643 -150.2016 29959.8908 -88.5670 -34.7565
ENERGY: 1200000 0.0401 5.7027 0.6658 0.0000 -10770.0368 1497.3515 0.0000 0.0000 1760.6760 -7505.6007 299.9873 -9266.2767 -7489.3933 303.2838 680.2639 717.5138 29924.3027 -100.6143 -43.8283
ENERGY: 1500000 1.5131 2.8482 1.5675 0.0000 -10645.8644 1456.4690 0.0000 0.0000 1749.5282 -7433.9384 298.0879 -9183.4667 -7490.8633 302.0582 210.1914 304.2454 30350.6564 -64.6287 -0.3507
TCL: Running FEP window  16: Lambda1 0.24999999999999967 Lambda2 0.19999999999999968 [dLambda -0.04999999999999999]
TCL: Setting parameter firsttimestep to 0
TCL: Setting parameter alchLambda to 0.24999999999999967
Info: NONBONDED TABLE R-SQUARED SPACING: 0.0625
Info: NONBONDED TABLE SIZE: 705 POINTS
TCL: Setting parameter alchLambda2 to 0.19999999999999968
Info: NONBONDED TABLE R-SQUARED SPACING: 0.0625
Info: NONBONDED TABLE SIZE: 705 POINTS
TCL: Running for 1500000 steps
ETITLE: TS BOND ANGLE DIHED IMPRP ELECT VDW BOUNDARY MISC KINETIC TOTAL TEMP POTENTIAL TOTALAVG TEMPAVG PRESSURE GPRESSURE VOLUME PRESSAVG GPRESSAVG
ENERGY: 0 1.5131 2.8482 1.5675 0.0000 -10645.8646 1456.1304 0.0000 0.0000 1748.6180 -7435.1873 297.9328 -9183.8054 -7435.1873 297.9328 209.9784 300.2820 30350.6564 209.9784 300.2820
ENERGY: 300000 0.4172 4.3984 0.7178 0.0000 -10603.9152 1348.1020 0.0000 0.0000 1739.6656 -7510.6143 296.4075 -9250.2799 -7496.7137 296.2360 -868.8858 -845.4038 30871.6057 -424.9976 -363.0245
ENERGY: 600000 1.2359 0.7087 0.1489 0.0000 -10616.4857 1405.9127 0.0000 0.0000 1752.2806 -7456.1989 298.5569 -9208.4795 -7489.6980 299.0429 -92.0564 -25.1415 30376.3531 -184.4849 -116.2313
ENERGY: 900000 1.7362 2.4117 0.7720 0.0000 -10794.6614 1474.7121 0.0000 0.0000 1713.5764 -7601.4531 291.9624 -9315.0295 -7499.5985 297.7538 -283.8289 -184.6990 30850.2903 -162.1238 -89.8816
ENERGY: 1200000 0.1609 3.3606 0.8105 0.0000 -10676.3898 1416.8286 0.0000 0.0000 1728.0685 -7527.1607 294.4316 -9255.2292 -7503.6770 297.5012 -71.8427 10.4300 30015.1055 -148.6381 -74.4044
ENERGY: 1500000 0.3415 3.5148 0.1816 0.0000 -10817.7021 1488.7644 0.0000 0.0000 1771.5937 -7553.3061 301.8475 -9324.8998 -7515.3662 298.3427 235.9502 361.3571 30113.6505 -118.4180 -40.1733
TCL: Running FEP window  17: Lambda1 0.19999999999999968 Lambda2 0.1499999999999997 [dLambda -0.04999999999999999]
TCL: Setting parameter firsttimestep to 0
TCL: Setting parameter alchLambda to 0.19999999999999968
Info: NONBONDED TABLE R-SQUARED SPACING: 0.0625
Info: NONBONDED TABLE SIZE: 705 POINTS
TCL: Setting parameter alchLambda2 to 0.1499999999999997
Info: NONBONDED TABLE R-SQUARED SPACING: 0.0625
Info: NONBONDED TABLE SIZE: 705 POINTS
TCL: Running for 1500000 steps
ETITLE: TS BOND ANGLE DIHED IMPRP ELECT VDW BOUNDARY MISC KINETIC TOTAL TEMP POTENTIAL TOTALAVG TEMPAVG PRESSURE GPRESSURE VOLUME PRESSAVG GPRESSAVG
ENERGY: 0 0.3415 3.5148 0.1816 0.0000 -10817.7026 1488.9988 0.0000 0.0000 1770.7155 -7553.9504 301.6978 -9324.6659 -7553.9504 301.6978 277.0895 363.6205 30113.6505 277.0895 363.6205
ENERGY: 300000 0.1481 3.7503 1.8613 0.0000 -10892.2130 1532.9601 0.0000 0.0000 1739.0505 -7614.4426 296.3027 -9353.4931 -7534.3079 301.2610 425.2594 455.2296 30239.2008 141.6898 211.9589
ENERGY: 600000 1.1567 1.3927 0.3368 0.0000 -10738.5511 1433.3202 0.0000 0.0000 1804.7757 -7497.5691 307.5011 -9302.3448 -7545.4302 301.6810 -118.6926 -88.9933 30386.4889 96.2094 153.3951
ENERGY: 900000 1.1623 3.6197 0.8792 0.0000 -10582.0500 1407.5419 0.0000 0.0000 1757.4116 -7411.4354 299.4311 -9168.8470 -7521.8778 301.7596 -170.0281 -105.2304 30751.2135 55.8570 110.6545
ENERGY: 1200000 0.3957 2.3383 0.5203 0.0000 -10768.3874 1466.5199 0.0000 0.0000 1740.1406 -7558.4726 296.4884 -9298.6132 -7528.2434 300.1174 184.8586 167.7039 30475.1625 110.0341 155.6964
ENERGY: 1500000 0.2155 2.9990 0.2251 0.0000 -10706.3459 1430.2316 0.0000 0.0000 1799.7559 -7472.9189 306.6458 -9272.6748 -7518.1879 300.6319 -174.3335 -171.4196 30553.1426 103.0472 156.7703
TCL: Running FEP window  18: Lambda1 0.1499999999999997 Lambda2 0.09999999999999969 [dLambda -0.05 ]
TCL: Setting parameter firsttimestep to 0
TCL: Setting parameter alchLambda to 0.1499999999999997
Info: NONBONDED TABLE R-SQUARED SPACING: 0.0625
Info: NONBONDED TABLE SIZE: 705 POINTS
TCL: Setting parameter alchLambda2 to 0.09999999999999969
Info: NONBONDED TABLE R-SQUARED SPACING: 0.0625
Info: NONBONDED TABLE SIZE: 705 POINTS
TCL: Running for 1500000 steps
ETITLE: TS BOND ANGLE DIHED IMPRP ELECT VDW BOUNDARY MISC KINETIC TOTAL TEMP POTENTIAL TOTALAVG TEMPAVG PRESSURE GPRESSURE VOLUME PRESSAVG GPRESSAVG
ENERGY: 0 0.2155 2.9990 0.2251 0.0000 -10706.3463 1430.1787 0.0000 0.0000 1798.8765 -7473.8515 306.4960 -9272.7280 -7473.8515 306.4960 -247.0101 -173.9420 30553.1426 -247.0101 -173.9420
ENERGY: 300000 0.4730 6.5128 1.2316 0.0000 -10746.9917 1533.9063 0.0000 0.0000 1750.4386 -7454.4293 298.2430 -9204.8679 -7486.8554 302.3454 751.6934 830.6694 30273.6847 195.2604 273.6171
ENERGY: 600000 0.1680 1.9485 0.1393 0.0000 -10608.8845 1357.8523 0.0000 0.0000 1809.4686 -7439.3077 308.3007 -9248.7763 -7484.8186 302.6696 -461.9503 -418.3362 30327.2598 -167.9111 -94.0754
ENERGY: 900000 1.1489 4.5502 1.2316 0.0000 -10620.5765 1387.5818 0.0000 0.0000 1755.7482 -7470.3158 299.1477 -9226.0641 -7504.6957 301.5048 -760.0129 -694.2969 31042.1103 -194.2826 -117.2380
ENERGY: 1200000 0.0325 3.4241 0.0529 0.0000 -10533.3003 1306.7475 0.0000 0.0000 1741.8819 -7481.1614 296.7851 -9223.0433 -7505.0032 299.6972 -1145.6409 -1060.8221 30958.0056 -312.5486 -230.6128
ENERGY: 1500000 1.6874 4.8326 0.3933 0.0000 -10707.9551 1365.3739 0.0000 0.0000 1727.1831 -7608.4847 294.2807 -9335.6678 -7510.7362 299.5504 -932.4013 -862.5138 30336.6279 -313.8123 -233.5427
TCL: Running FEP window  19: Lambda1 0.09999999999999969 Lambda2 0.049999999999999684 [dLambda -0.05 ]
TCL: Setting parameter firsttimestep to 0
TCL: Setting parameter alchLambda to 0.09999999999999969
Info: NONBONDED TABLE R-SQUARED SPACING: 0.0625
Info: NONBONDED TABLE SIZE: 705 POINTS
TCL: Setting parameter alchLambda2 to 0.049999999999999684
Info: NONBONDED TABLE R-SQUARED SPACING: 0.0625
Info: NONBONDED TABLE SIZE: 705 POINTS
TCL: Running for 1500000 steps
ETITLE: TS BOND ANGLE DIHED IMPRP ELECT VDW BOUNDARY MISC KINETIC TOTAL TEMP POTENTIAL TOTALAVG TEMPAVG PRESSURE GPRESSURE VOLUME PRESSAVG GPRESSAVG
ENERGY: 0 1.6874 4.8326 0.3933 0.0000 -10707.9551 1365.1992 0.0000 0.0000 1726.2658 -7609.5767 294.1244 -9335.8425 -7609.5767 294.1244 -947.9509 -864.0725 30336.6279 -947.9509 -864.0725
ENERGY: 300000 0.8927 4.3786 0.3043 0.0000 -10789.6444 1509.4602 0.0000 0.0000 1777.5741 -7497.0345 302.8664 -9274.6085 -7568.1821 296.9932 166.0361 257.9862 30656.2711 -344.2398 -259.4755
ENERGY: 600000 0.3890 3.9952 0.3499 0.0000 -10744.4433 1476.6708 0.0000 0.0000 1698.9834 -7564.0549 289.4760 -9263.0383 -7542.9017 298.1467 271.6048 348.0508 30294.9800 -40.7353 25.7614
ENERGY: 900000 0.8446 0.6448 0.2426 0.0000 -10806.7090 1474.5102 0.0000 0.0000 1777.3247 -7553.1422 302.8239 -9330.4669 -7541.3025 299.0154 207.2955 299.1573 29945.7816 -5.0341 64.0541
ENERGY: 1200000 0.2884 4.3753 0.6331 0.0000 -10730.1678 1433.2178 0.0000 0.0000 1716.5836 -7575.0697 292.4747 -9291.6532 -7531.0689 299.3908 -333.4624 -264.1137 30454.2546 -35.0716 31.6391
ENERGY: 1500000 0.3942 4.4805 0.8650 0.0000 -10743.7330 1506.0876 0.0000 0.0000 1755.8717 -7476.0340 299.1687 -9231.9057 -7526.7354 299.0870 324.4664 399.2570 30586.3270 -23.3274 46.0572
TCL: Running FEP window  20: Lambda1 0.049999999999999684 Lambda2 0.0    [dLambda -0.049999999999999684]
TCL: Setting parameter firsttimestep to 0
TCL: Setting parameter alchLambda to 0.049999999999999684
Info: NONBONDED TABLE R-SQUARED SPACING: 0.0625
Info: NONBONDED TABLE SIZE: 705 POINTS
TCL: Setting parameter alchLambda2 to 0.0
Info: NONBONDED TABLE R-SQUARED SPACING: 0.0625
Info: NONBONDED TABLE SIZE: 705 POINTS
TCL: Running for 1500000 steps
ETITLE: TS BOND ANGLE DIHED IMPRP ELECT VDW BOUNDARY MISC KINETIC TOTAL TEMP POTENTIAL TOTALAVG TEMPAVG PRESSURE GPRESSURE VOLUME PRESSAVG GPRESSAVG
ENERGY: 0 0.3942 4.4805 0.8650 0.0000 -10743.7340 1505.2180 0.0000 0.0000 1754.9974 -7477.7789 299.0198 -9232.7763 -7477.7789 299.0198 300.1966 393.9438 30586.3270 300.1966 393.9438
ENERGY: 300000 0.0405 6.7271 0.5765 0.0000 -10733.9449 1459.3398 0.0000 0.0000 1738.7562 -7528.5048 296.2525 -9267.2610 -7488.7480 301.1892 203.5064 303.0270 30127.4814 13.4962 123.3807
ENERGY: 600000 0.6567 2.1424 0.3774 0.0000 -10717.1112 1450.6786 0.0000 0.0000 1786.2056 -7477.0505 304.3371 -9263.2561 -7479.3665 301.7545 105.7795 122.5382 30400.0647 -150.1834 -59.0495
ENERGY: 900000 0.8136 4.2049 1.2388 0.0000 -10648.6363 1406.9115 0.0000 0.0000 1762.4392 -7473.0283 300.2877 -9235.4675 -7485.8909 301.4582 -164.4910 -82.3044 30076.4090 -99.8723 -11.6162
ENERGY: 1200000 0.1442 4.3186 0.7469 0.0000 -10682.9620 1367.5536 0.0000 0.0000 1751.4711 -7558.7274 298.4190 -9310.1986 -7501.6329 300.5485 -489.9624 -514.9130 30086.7062 -55.5686 22.3052
ENERGY: 1500000 1.3516 2.9044 0.7135 0.0000 -10734.2787 1449.3833 0.0000 0.0000 1750.6657 -7529.2602 298.2817 -9279.9259 -7499.4539 300.3099 237.0025 203.2907 30092.6292 -27.5131 45.0841
TCL: Exiting due to exit command.
