Info: SIMULATION PARAMETERS:
Info: TIMESTEP               2
Info: NUMBER OF STEPS        0
Info: STEPS PER CYCLE        10
Info: PERIODIC CELL BASIS 1  30.0634 0 0
Info: PERIODIC CELL BASIS 2  0 31.5047 0
Info: PERIODIC CELL BASIS 3  0 0 31.5126
Info: PERIODIC CELL CENTER   0 0 0
Info: WRAPPING WATERS AROUND PERIODIC BOUNDARIES ON OUTPUT.
Info: WRAPPING ALL CLUSTERS AROUND PERIODIC BOUNDARIES ON OUTPUT.
Info: FIRST LDB TIMESTEP     50
Info: LAST LDB TIMESTEP     -1
Info: HOM BACKGROUND SCALING 1
Info: PME BACKGROUND SCALING 1
Info: MIN ATOMS PER PATCH    40
Info: EMPTY PATCH LOAD       40 ATOMS
Info: VELOCITY FILE          mobley_5467162_equil.vel
Info: CENTER OF MASS MOVING INITIALLY? NO
Info: DIELECTRIC             1
Info: EXCLUDE                SCALED ONE-FOUR
Info: 1-4 ELECTROSTATICS SCALED BY 0.833333
Info: MODIFIED 1-4 VDW PARAMETERS WILL BE USED
Info: DCD FILENAME           mobley_5467162_prod.dcd
Info: DCD FREQUENCY          100000
Info: DCD FIRST STEP         100000
Info: DCD FILE WILL CONTAIN UNIT CELL DATA
Info: XST FILENAME           mobley_5467162_prod.xst
Info: XST FREQUENCY          100000
Info: NO VELOCITY DCD OUTPUT
Info: NO FORCE DCD OUTPUT
Info: OUTPUT FILENAME        mobley_5467162_prod
Info: BINARY OUTPUT FILES WILL BE USED
Info: RESTART FILENAME       mobley_5467162_prod.restart
Info: RESTART FREQUENCY      100000
Info: BINARY RESTART FILES WILL BE USED
Info: CUTOFF                 9
Info: PAIRLIST DISTANCE      11
Info: PAIRLIST SHRINK RATE   0.01
Info: PAIRLIST GROW RATE     0.01
Info: PAIRLIST TRIGGER       0.3
Info: PAIRLISTS PER CYCLE    2
Info: PAIRLISTS ENABLED
Info: MARGIN                 2
Info: HYDROGEN GROUP CUTOFF  2.5
Info: PATCH DIMENSION        15.5
Info: ENERGY OUTPUT STEPS    100000
Info: ENERGY EVALUATION STEPS    100000
Info: OUTPUT ENERGY PRECISION 4
Info: CROSSTERM ENERGY INCLUDED IN DIHEDRAL
Info: TIMING OUTPUT STEPS    1000000
Info: PRESSURE OUTPUT STEPS  100000
Info: ALCHEMICAL FEP ON
Info: FEP CURRENT LAMBDA VALUE     0
Info: FEP COMPARISON LAMBDA VALUE  0.05
Info: FEP INTRA-ALCHEMICAL NON-BONDED INTERACTIONS WILL BE RETAINED
Info: FEP INTRA-ALCHEMICAL BONDED INTERACTIONS WILL BE RETAINED
Info: FEP VDW SHIFTING COEFFICIENT 5
Info: FEP ELEC. ACTIVE FOR ANNIHILATED PARTICLES BETWEEN LAMBDA = 0 AND LAMBDA = 0.5
Info: FEP ELEC. ACTIVE FOR EXNIHILATED PARTICLES BETWEEN LAMBDA = 0.5 AND LAMBDA = 1
Info: FEP VDW ACTIVE FOR ANNIHILATED PARTICLES BETWEEN LAMBDA = 0 AND LAMBDA = 1
Info: FEP VDW ACTIVE FOR EXNIHILATED PARTICLES BETWEEN LAMBDA = 0 AND LAMBDA = 1
Info: FEP BOND ACTIVE FOR ANNIHILATED PARTICLES BETWEEN LAMBDA = 1 AND LAMBDA = 1
Info: FEP BOND ACTIVE FOR EXNIHILATED PARTICLES BETWEEN LAMBDA = 0 AND LAMBDA = 0
Info: LANGEVIN DYNAMICS ACTIVE
Info: LANGEVIN TEMPERATURE   300
Info: LANGEVIN USING BBK INTEGRATOR
Info: LANGEVIN DAMPING COEFFICIENT IS 1 INVERSE PS
Info: LANGEVIN DYNAMICS APPLIED TO HYDROGENS
Info: LANGEVIN PISTON PRESSURE CONTROL ACTIVE
Info:        TARGET PRESSURE IS 1.01325 BAR
Info:     OSCILLATION PERIOD IS 50 FS
Info:             DECAY TIME IS 25 FS
Info:     PISTON TEMPERATURE IS 300 K
Info:       PRESSURE CONTROL IS GROUP-BASED
Info:    INITIAL STRAIN RATE IS -0.000288421 -0.000288421 -0.000288421
Info:       CELL FLUCTUATION IS ISOTROPIC
Info: PARTICLE MESH EWALD (PME) ACTIVE
Info: PME TOLERANCE               1e-06
Info: PME EWALD COEFFICIENT       0.348832
Info: PME INTERPOLATION ORDER     4
Info: PME GRID DIMENSIONS         32 32 32
Info: PME MAXIMUM GRID SPACING    1
Info: PME CALCULATION WILL BE PERFORMED ON GPU
Info: FULL ELECTROSTATIC EVALUATION FREQUENCY      2
Info: USING VERLET I (r-RESPA) MTS SCHEME.
Info: C1 SPLITTING OF LONG RANGE ELECTROSTATICS
Info: PLACING ATOMS IN PATCHES BY HYDROGEN GROUPS
Info: RIGID BONDS TO HYDROGEN : ALL
Info:         ERROR TOLERANCE : 1e-08
Info:          MAX ITERATIONS : 100
Info: RIGID WATER USING SETTLE ALGORITHM
Info: RANDOM NUMBER SEED     1743652590
Info: USE HYDROGEN BONDS?    NO
Info: Using AMBER format force field!
Info: AMBER PARM FILE        mobley_5467162.prmtop
Info: COORDINATE PDB         mobley_5467162.pdb
Info: Exclusions will be read from PARM file!
Info: SCNB (VDW SCALING)     2
Info: USING ARITHMETIC MEAN TO COMBINE L-J SIGMA PARAMETERS
Info: BINARY COORDINATES     mobley_5467162_equil.coor
Info: SUMMARY OF PARAMETERS:
Info: 9 BONDS
Info: 9 ANGLES
Info:   9 HARMONIC
Info:   0 COSINE-BASED
Info: 6 DIHEDRAL
Info: 0 IMPROPER
Info: 0 CROSSTERM
Info: 0 VDW
Info: 28 VDW_PAIRS
Info: 0 NBTHOLE_PAIRS
Info: To read alchdata from file: mobley_5467162.pdb
Info: To read alchflag data from column: 5
Info: STRUCTURE SUMMARY:
Info: 2914 ATOMS
Info: 2914 BONDS
Info: 43 ANGLES
Info: 65 DIHEDRALS
Info: 0 IMPROPERS
Info: 0 CROSSTERMS
Info: 3013 EXCLUSIONS
Info: 2903 RIGID BONDS
Info: ALCH: 0 ATOMS TO DISAPPEAR IN FINAL STATE
Info: ALCH: 25 ATOMS TO APPEAR IN FINAL STATE
Info: 5839 DEGREES OF FREEDOM
Info: 974 HYDROGEN GROUPS
Info: 4 ATOMS IN LARGEST HYDROGEN GROUP
Info: 974 MIGRATION GROUPS
Info: 4 ATOMS IN LARGEST MIGRATION GROUP
Info: TOTAL MASS = 17499.6 amu
Info: TOTAL CHARGE = -0.000499953 e
Info: MASS DENSITY = 0.973622 g/cm^3
Info: ATOM DENSITY = 0.097632 atoms/A^3
Info: ADDED 0 IMPLICIT EXCLUSIONS
Info: NONBONDED TABLE R-SQUARED SPACING: 0.0625
Info: NONBONDED TABLE SIZE: 705 POINTS
Info: REMOVING COM VELOCITY 0.0967094 0.0229376 0.0915577
Info: Use 3D box decompostion in PME FFT.
Info: Updated CUDA force table with 4096 elements.
Info: Updated CUDA LJ table with 7 x 7 elements.
Info: Found 27 unique exclusion lists needing 100 bytes
TCL: Running for 1500000 steps
ETITLE: TS BOND ANGLE DIHED IMPRP ELECT VDW BOUNDARY MISC KINETIC TOTAL TEMP POTENTIAL TOTALAVG TEMPAVG PRESSURE GPRESSURE VOLUME PRESSAVG GPRESSAVG
ENERGY: 0 7.2942 8.2650 5.5663 0.0000 -10547.2767 1434.6820 0.0000 0.0000 1770.8809 -7320.5883 305.2399 -9091.4692 -7320.5883 305.2399 5.8866 84.3714 29846.7765 5.8866 84.3714
ENERGY: 300000 3.9876 11.0503 4.4957 0.0000 -10480.2186 1421.5555 0.0000 0.0000 1699.6927 -7339.4368 292.9694 -9039.1294 -7333.2118 297.9305 -4.8802 72.4018 29651.0497 -249.3162 -199.8718
ENERGY: 600000 6.5405 9.5048 1.8647 0.0000 -10566.5134 1467.4348 0.0000 0.0000 1734.8596 -7346.3090 299.0310 -9081.1686 -7342.8842 299.5558 -36.2067 85.2230 30291.2072 -252.7669 -190.5457
ENERGY: 900000 4.4099 11.4376 4.3314 0.0000 -10560.8528 1404.3530 0.0000 0.0000 1709.3564 -7426.9646 294.6351 -9136.3209 -7369.5441 299.1290 -198.6980 -125.2444 29531.8915 -306.5904 -240.4858
ENERGY: 1200000 6.5130 10.2227 8.5794 0.0000 -10525.3663 1437.4675 0.0000 0.0000 1766.7152 -7295.8685 304.5218 -9062.5837 -7361.3781 299.5039 30.5989 61.6405 30133.0057 -218.1848 -154.4054
ENERGY: 1500000 4.6636 11.1581 5.1112 0.0000 -10416.9200 1359.2445 0.0000 0.0000 1786.5100 -7250.2325 307.9338 -9036.7425 -7351.4042 300.3926 -341.2230 -260.6009 30127.4406 -161.4148 -96.6471
TCL: Running FEP window   2: Lambda1 0.05   Lambda2 0.1    [dLambda 0.05  ]
TCL: Setting parameter firsttimestep to 0
TCL: Setting parameter alchLambda to 0.05
Info: NONBONDED TABLE R-SQUARED SPACING: 0.0625
Info: NONBONDED TABLE SIZE: 705 POINTS
TCL: Setting parameter alchLambda2 to 0.1
Info: NONBONDED TABLE R-SQUARED SPACING: 0.0625
Info: NONBONDED TABLE SIZE: 705 POINTS
TCL: Running for 1500000 steps
ETITLE: TS BOND ANGLE DIHED IMPRP ELECT VDW BOUNDARY MISC KINETIC TOTAL TEMP POTENTIAL TOTALAVG TEMPAVG PRESSURE GPRESSURE VOLUME PRESSAVG GPRESSAVG
ENERGY: 0 4.6636 11.1581 5.1112 0.0000 -10416.9199 1364.1483 0.0000 0.0000 1785.6305 -7246.2082 307.7822 -9031.8387 -7246.2082 307.7822 -338.0798 -252.8070 30127.4406 -338.0798 -252.8070
ENERGY: 300000 5.3906 12.3857 3.1156 0.0000 -10624.3105 1489.4314 0.0000 0.0000 1725.2426 -7388.7446 297.3734 -9113.9872 -7335.1176 302.4741 449.1263 526.0119 29880.4456 20.8063 88.9499
ENERGY: 600000 5.4776 14.9415 2.4016 0.0000 -10541.3656 1431.3550 0.0000 0.0000 1721.8266 -7365.3633 296.7846 -9087.1899 -7369.4532 299.5714 75.6911 185.0699 29959.2232 -77.1971 0.4866
ENERGY: 900000 3.9481 9.6580 3.3605 0.0000 -10425.8422 1335.1921 0.0000 0.0000 1718.7651 -7354.9184 296.2569 -9073.6835 -7371.2805 299.1944 -440.6569 -395.4695 29869.8669 -58.5586 4.4704
ENERGY: 1200000 5.4060 8.3191 3.0541 0.0000 -10572.3805 1470.4234 0.0000 0.0000 1761.2898 -7323.8882 303.5867 -9085.1780 -7367.2384 298.9883 461.1762 474.4565 29675.8378 -39.9029 21.6062
ENERGY: 1500000 2.2197 11.5431 3.3497 0.0000 -10412.2929 1346.0186 0.0000 0.0000 1764.8285 -7284.3333 304.1966 -9049.1618 -7363.9124 298.8937 -691.8862 -678.1294 30524.5219 -91.7220 -32.1171
TCL: Running FEP window   3: Lambda1 0.1    Lambda2 0.15000000000000002 [dLambda 0.05000000000000002]
TCL: Setting parameter firsttimestep to 0
TCL: Setting parameter alchLambda to 0.1
Info: NONBONDED TABLE R-SQUARED SPACING: 0.0625
Info: NONBONDED TABLE SIZE: 705 POINTS
TCL: Setting parameter alchLambda2 to 0.15000000000000002
Info: NONBONDED TABLE R-SQUARED SPACING: 0.0625
Info: NONBONDED TABLE SIZE: 705 POINTS
TCL: Running for 1500000 steps
ETITLE: TS BOND ANGLE DIHED IMPRP ELECT VDW BOUNDARY MISC KINETIC TOTAL TEMP POTENTIAL TOTALAVG TEMPAVG PRESSURE GPRESSURE VOLUME PRESSAVG GPRESSAVG
ENERGY: 0 2.2197 11.5431 3.3497 0.0000 -10412.2937 1347.5400 0.0000 0.0000 1763.9481 -7283.6931 304.0449 -9047.6411 -7283.6931 304.0449 -756.2098 -667.4740 30524.5219 -756.2098 -667.4740
ENERGY: 300000 4.1615 10.5619 3.1147 0.0000 -10524.2310 1414.4065 0.0000 0.0000 1732.5541 -7359.4323 298.6336 -9091.9865 -7366.7363 298.7403 -344.3260 -281.2045 30026.0810 -263.1503 -193.0169
ENERGY: 600000 11.3621 9.7636 2.4519 0.0000 -10458.2273 1395.8694 0.0000 0.0000 1722.9388 -7315.8415 296.9763 -9038.7803 -7362.0393 300.6209 -578.0468 -534.6607 30443.1343 -203.6377 -140.5357
ENERGY: 900000 5.0744 12.3663 7.0822 0.0000 -10369.2229 1305.7815 0.0000 0.0000 1662.1540 -7376.7645 286.4990 -9038.9185 -7358.9380 297.9968 -921.2468 -943.7606 30638.2956 -185.8298 -132.6128
ENERGY: 1200000 5.3069 9.0375 1.8110 0.0000 -10521.6519 1408.8140 0.0000 0.0000 1706.8690 -7389.8134 294.2064 -9096.6824 -7350.2908 298.7241 -333.1123 -269.1754 29889.0744 -203.8662 -146.0485
ENERGY: 1500000 3.8833 13.9021 4.7880 0.0000 -10584.5654 1411.6636 0.0000 0.0000 1755.5619 -7394.7665 302.5994 -9150.3284 -7356.1653 299.1141 -287.2248 -210.3406 29687.4874 -109.0018 -50.7477
TCL: Running FEP window   4: Lambda1 0.15000000000000002 Lambda2 0.2    [dLambda 0.04999999999999999]
TCL: Setting parameter firsttimestep to 0
TCL: Setting parameter alchLambda to 0.15000000000000002
Info: NONBONDED TABLE R-SQUARED SPACING: 0.0625
Info: NONBONDED TABLE SIZE: 705 POINTS
TCL: Setting parameter alchLambda2 to 0.2
Info: NONBONDED TABLE R-SQUARED SPACING: 0.0625
Info: NONBONDED TABLE SIZE: 705 POINTS
TCL: Running for 1500000 steps
ETITLE: TS BOND ANGLE DIHED IMPRP ELECT VDW BOUNDARY MISC KINETIC TOTAL TEMP POTENTIAL TOTALAVG TEMPAVG PRESSURE GPRESSURE VOLUME PRESSAVG GPRESSAVG
ENERGY: 0 3.8833 13.9021 4.7880 0.0000 -10584.5634 1412.2307 0.0000 0.0000 1754.6829 -7395.0763 302.4479 -9149.7592 -7395.0763 302.4479 -290.3254 -202.9577 29687.4874 -290.3254 -202.9577
ENERGY: 300000 5.4048 9.5318 3.5909 0.0000 -10429.9254 1383.0163 0.0000 0.0000 1744.5023 -7283.8793 300.6931 -9028.3816 -7343.9141 301.8935 -86.2355 -1.1284 29867.2521 146.0844 213.5647
ENERGY: 600000 3.6475 7.6559 2.2794 0.0000 -10540.1405 1431.2096 0.0000 0.0000 1729.4126 -7365.9355 298.0921 -9095.3481 -7353.2493 301.3065 134.0723 155.7598 29713.1518 64.7051 115.5279
ENERGY: 900000 3.5198 6.5412 4.3008 0.0000 -10599.7756 1422.0798 0.0000 0.0000 1792.5032 -7370.8309 308.9668 -9163.3341 -7344.5503 301.6052 -106.6883 -32.5046 29453.2366 52.8015 104.7083
ENERGY: 1200000 2.4367 10.2697 2.5643 0.0000 -10631.2651 1478.1393 0.0000 0.0000 1772.2386 -7365.6164 305.4739 -9137.8551 -7337.4067 301.7445 250.1102 255.5210 29796.3829 114.8214 165.3530
ENERGY: 1500000 4.8644 13.9745 2.0873 0.0000 -10593.7566 1381.2808 0.0000 0.0000 1700.0743 -7491.4754 293.0352 -9191.5497 -7359.2114 300.6360 -660.1072 -588.6300 29559.1714 125.8862 183.3093
TCL: Running FEP window   5: Lambda1 0.2    Lambda2 0.25   [dLambda 0.04999999999999999]
TCL: Setting parameter firsttimestep to 0
TCL: Setting parameter alchLambda to 0.2
Info: NONBONDED TABLE R-SQUARED SPACING: 0.0625
Info: NONBONDED TABLE SIZE: 705 POINTS
TCL: Setting parameter alchLambda2 to 0.25
Info: NONBONDED TABLE R-SQUARED SPACING: 0.0625
Info: NONBONDED TABLE SIZE: 705 POINTS
TCL: Running for 1500000 steps
ETITLE: TS BOND ANGLE DIHED IMPRP ELECT VDW BOUNDARY MISC KINETIC TOTAL TEMP POTENTIAL TOTALAVG TEMPAVG PRESSURE GPRESSURE VOLUME PRESSAVG GPRESSAVG
ENERGY: 0 4.8644 13.9745 2.0873 0.0000 -10593.7558 1381.2815 0.0000 0.0000 1699.1974 -7492.3508 292.8841 -9191.5482 -7492.3508 292.8841 -664.4008 -582.2715 29559.1714 -664.4008 -582.2715
ENERGY: 300000 2.2425 7.4999 4.7369 0.0000 -10445.9933 1352.5702 0.0000 0.0000 1774.0703 -7304.8735 305.7896 -9078.9438 -7339.3440 302.5903 -607.8038 -582.2389 30511.9505 -351.9185 -288.7684
ENERGY: 600000 2.0610 6.7224 8.7826 0.0000 -10495.8963 1429.9928 0.0000 0.0000 1704.4180 -7343.9195 293.7839 -9048.3375 -7340.0926 302.4811 81.7683 179.5129 29702.7445 -424.6298 -360.3867
ENERGY: 900000 2.8215 8.3510 4.1050 0.0000 -10590.5734 1460.6574 0.0000 0.0000 1681.5006 -7433.1379 289.8337 -9114.6385 -7344.4499 301.8604 372.3033 388.7740 29585.3948 -526.7696 -462.1276
ENERGY: 1200000 4.7947 8.1998 1.9476 0.0000 -10512.5032 1417.9599 0.0000 0.0000 1704.7565 -7374.8445 293.8423 -9079.6011 -7340.3856 301.9385 123.0761 156.8807 29574.7166 -398.9877 -336.4761
ENERGY: 1500000 4.6892 12.9358 2.1197 0.0000 -10390.8819 1287.4660 0.0000 0.0000 1685.8007 -7397.8704 290.5749 -9083.6712 -7340.9710 300.8678 -1339.6947 -1296.7811 30256.6024 -452.1792 -391.8658
TCL: Running FEP window   6: Lambda1 0.25   Lambda2 0.3    [dLambda 0.04999999999999999]
TCL: Setting parameter firsttimestep to 0
TCL: Setting parameter alchLambda to 0.25
Info: NONBONDED TABLE R-SQUARED SPACING: 0.0625
Info: NONBONDED TABLE SIZE: 705 POINTS
TCL: Setting parameter alchLambda2 to 0.3
Info: NONBONDED TABLE R-SQUARED SPACING: 0.0625
Info: NONBONDED TABLE SIZE: 705 POINTS
TCL: Running for 1500000 steps
ETITLE: TS BOND ANGLE DIHED IMPRP ELECT VDW BOUNDARY MISC KINETIC TOTAL TEMP POTENTIAL TOTALAVG TEMPAVG PRESSURE GPRESSURE VOLUME PRESSAVG GPRESSAVG
ENERGY: 0 4.6892 12.9358 2.1197 0.0000 -10390.8806 1288.2028 0.0000 0.0000 1684.9086 -7398.0244 290.4212 -9082.9330 -7398.0244 290.4212 -1366.9827 -1286.9353 30256.6024 -1366.9827 -1286.9353
ENERGY: 300000 5.7674 10.6834 6.2225 0.0000 -10534.7702 1501.2301 0.0000 0.0000 1766.9019 -7243.9649 304.5540 -9010.8668 -7339.3332 297.3243 1003.2386 1019.5690 29561.1005 -92.3868 -53.8944
ENERGY: 600000 3.1231 11.1719 5.1869 0.0000 -10598.3587 1502.9483 0.0000 0.0000 1727.6753 -7348.2532 297.7927 -9075.9284 -7333.3826 298.9141 648.3205 745.3453 29738.2006 -110.5282 -60.8891
ENERGY: 900000 2.9579 10.0668 5.6618 0.0000 -10551.7398 1437.7790 0.0000 0.0000 1737.8777 -7357.3964 299.5512 -9095.2742 -7345.5806 300.3744 50.8464 83.4979 30182.0251 -80.1028 -35.1691
ENERGY: 1200000 4.6009 8.3365 4.0374 0.0000 -10598.3795 1423.2216 0.0000 0.0000 1733.3508 -7424.8322 298.7710 -9158.1830 -7360.3757 299.5029 -43.3627 10.0092 29642.3668 -131.7330 -83.0450
ENERGY: 1500000 4.8760 11.2115 3.1675 0.0000 -10650.1506 1466.4473 0.0000 0.0000 1695.8077 -7468.6406 292.2998 -9164.4483 -7380.4204 297.7902 -51.0539 63.1053 30019.0373 -111.8348 -65.9380
TCL: Running FEP window   7: Lambda1 0.3    Lambda2 0.35   [dLambda 0.04999999999999999]
TCL: Setting parameter firsttimestep to 0
TCL: Setting parameter alchLambda to 0.3
Info: NONBONDED TABLE R-SQUARED SPACING: 0.0625
Info: NONBONDED TABLE SIZE: 705 POINTS
TCL: Setting parameter alchLambda2 to 0.35
Info: NONBONDED TABLE R-SQUARED SPACING: 0.0625
Info: NONBONDED TABLE SIZE: 705 POINTS
TCL: Running for 1500000 steps
ETITLE: TS BOND ANGLE DIHED IMPRP ELECT VDW BOUNDARY MISC KINETIC TOTAL TEMP POTENTIAL TOTALAVG TEMPAVG PRESSURE GPRESSURE VOLUME PRESSAVG GPRESSAVG
ENERGY: 0 4.8760 11.2115 3.1675 0.0000 -10650.1511 1468.1427 0.0000 0.0000 1694.9626 -7467.7908 292.1541 -9162.7534 -7467.7908 292.1541 -4.4352 76.7110 30019.0373 -4.4352 76.7110
ENERGY: 300000 4.2139 8.8605 2.5599 0.0000 -10628.7779 1525.5474 0.0000 0.0000 1793.5475 -7294.0485 309.1468 -9087.5961 -7376.1660 299.6540 925.2781 983.7115 29828.2820 -16.5551 41.3102
ENERGY: 600000 4.6926 6.9329 2.9624 0.0000 -10515.1543 1401.7702 0.0000 0.0000 1693.1986 -7405.5976 291.8501 -9098.7962 -7370.2098 298.2139 -153.9091 -106.5375 29798.1668 44.4501 104.9464
ENERGY: 900000 3.6816 7.8553 3.5029 0.0000 -10459.3811 1408.6392 0.0000 0.0000 1763.2260 -7272.4760 303.9204 -9035.7020 -7347.2897 299.9203 -73.6640 -0.4286 30004.2332 -19.2014 48.3181
ENERGY: 1200000 4.0203 9.8870 3.9010 0.0000 -10395.2276 1319.0625 0.0000 0.0000 1784.6171 -7273.7398 307.6075 -9058.3569 -7343.0119 299.8705 -1029.0225 -937.3538 30496.6714 -41.5906 23.3218
ENERGY: 1500000 4.7706 10.6414 2.5165 0.0000 -10545.1363 1362.4825 0.0000 0.0000 1735.9150 -7428.8102 299.2129 -9164.7253 -7346.8203 300.2495 -552.3081 -498.5655 29524.6123 -20.9700 41.7665
TCL: Running FEP window   8: Lambda1 0.35   Lambda2 0.39999999999999997 [dLambda 0.04999999999999999]
TCL: Setting parameter firsttimestep to 0
TCL: Setting parameter alchLambda to 0.35
Info: NONBONDED TABLE R-SQUARED SPACING: 0.0625
Info: NONBONDED TABLE SIZE: 705 POINTS
TCL: Setting parameter alchLambda2 to 0.39999999999999997
Info: NONBONDED TABLE R-SQUARED SPACING: 0.0625
Info: NONBONDED TABLE SIZE: 705 POINTS
TCL: Running for 1500000 steps
ETITLE: TS BOND ANGLE DIHED IMPRP ELECT VDW BOUNDARY MISC KINETIC TOTAL TEMP POTENTIAL TOTALAVG TEMPAVG PRESSURE GPRESSURE VOLUME PRESSAVG GPRESSAVG
ENERGY: 0 4.7706 10.6414 2.5165 0.0000 -10545.1367 1362.2304 0.0000 0.0000 1735.0334 -7429.9444 299.0610 -9164.9778 -7429.9444 299.0610 -572.6498 -496.4131 29524.6123 -572.6498 -496.4131
ENERGY: 300000 3.5825 10.0825 2.2553 0.0000 -10533.5520 1430.4318 0.0000 0.0000 1689.4521 -7397.7478 291.2043 -9087.2000 -7394.5495 295.2429 -34.5911 57.6242 30010.3081 -409.5691 -363.3262
ENERGY: 600000 4.7679 9.1614 4.0546 0.0000 -10458.5142 1342.2179 0.0000 0.0000 1739.9330 -7358.3793 299.9055 -9098.3124 -7377.0579 296.8388 -610.4805 -571.9661 30054.8289 -401.8866 -349.5392
ENERGY: 900000 6.6114 11.6908 2.6232 0.0000 -10474.9187 1350.6124 0.0000 0.0000 1742.6924 -7360.6883 300.3811 -9103.3808 -7353.9768 299.7683 -634.0263 -575.3440 29933.0930 -223.4072 -168.4002
ENERGY: 1200000 4.0538 10.5877 3.2619 0.0000 -10482.3436 1373.9965 0.0000 0.0000 1755.3088 -7335.1349 302.5558 -9090.4437 -7352.3551 300.3683 -434.5761 -331.6493 29820.5483 -196.9540 -134.0843
ENERGY: 1500000 2.1381 13.7589 4.2062 0.0000 -10590.1084 1438.7855 0.0000 0.0000 1782.4297 -7348.7900 307.2305 -9131.2198 -7359.3812 299.8985 -13.6949 69.3079 29792.5215 -176.6793 -117.8097
TCL: Running FEP window   9: Lambda1 0.39999999999999997 Lambda2 0.44999999999999996 [dLambda 0.04999999999999999]
TCL: Setting parameter firsttimestep to 0
TCL: Setting parameter alchLambda to 0.39999999999999997
Info: NONBONDED TABLE R-SQUARED SPACING: 0.0625
Info: NONBONDED TABLE SIZE: 705 POINTS
TCL: Setting parameter alchLambda2 to 0.44999999999999996
Info: NONBONDED TABLE R-SQUARED SPACING: 0.0625
Info: NONBONDED TABLE SIZE: 705 POINTS
TCL: Running for 1500000 steps
ETITLE: TS BOND ANGLE DIHED IMPRP ELECT VDW BOUNDARY MISC KINETIC TOTAL TEMP POTENTIAL TOTALAVG TEMPAVG PRESSURE GPRESSURE VOLUME PRESSAVG GPRESSAVG
ENERGY: 0 2.1381 13.7589 4.2062 0.0000 -10590.1072 1438.3661 0.0000 0.0000 1781.4855 -7350.1524 307.0677 -9131.6379 -7350.1524 307.0677 -3.9644 75.1133 29792.5215 -3.9644 75.1133
ENERGY: 300000 4.0765 8.0564 4.9803 0.0000 -10516.5556 1393.8665 0.0000 0.0000 1738.9396 -7366.6362 299.7343 -9105.5758 -7317.2089 305.0241 -296.6436 -198.0745 30123.4817 -135.2839 -58.4910
ENERGY: 600000 7.5336 10.7769 4.0189 0.0000 -10555.1401 1421.1524 0.0000 0.0000 1795.9361 -7315.7222 309.5585 -9111.6583 -7326.7143 305.5117 -80.7118 57.6031 29686.6109 -107.1841 -21.5191
ENERGY: 900000 6.1171 10.3495 2.8098 0.0000 -10490.3479 1413.7538 0.0000 0.0000 1768.8437 -7288.4741 304.8887 -9057.3178 -7352.5540 303.0381 37.6300 74.8113 30206.1236 -87.8276 -9.5690
ENERGY: 1200000 5.5000 9.0569 2.1087 0.0000 -10530.9091 1426.0501 0.0000 0.0000 1715.6738 -7372.5196 295.7240 -9088.1934 -7353.5650 303.1335 -150.6656 -70.3030 29990.8853 -163.7080 -88.8724
ENERGY: 1500000 2.4591 7.0870 4.9253 0.0000 -10620.7660 1464.6778 0.0000 0.0000 1730.9710 -7410.6459 298.3608 -9141.6168 -7358.2938 302.4537 401.9901 460.9936 29299.3470 -115.4807 -46.1602
TCL: Running FEP window  10: Lambda1 0.44999999999999996 Lambda2 0.49999999999999994 [dLambda 0.04999999999999999]
TCL: Setting parameter firsttimestep to 0
TCL: Setting parameter alchLambda to 0.44999999999999996
Info: NONBONDED TABLE R-SQUARED SPACING: 0.0625
Info: NONBONDED TABLE SIZE: 705 POINTS
TCL: Setting parameter alchLambda2 to 0.49999999999999994
Info: NONBONDED TABLE R-SQUARED SPACING: 0.0625
Info: NONBONDED TABLE SIZE: 705 POINTS
TCL: Running for 1500000 steps
ETITLE: TS BOND ANGLE DIHED IMPRP ELECT VDW BOUNDARY MISC KINETIC TOTAL TEMP POTENTIAL TOTALAVG TEMPAVG PRESSURE GPRESSURE VOLUME PRESSAVG GPRESSAVG
ENERGY: 0 2.4591 7.0870 4.9253 0.0000 -10620.7664 1464.3120 0.0000 0.0000 1730.1289 -7411.8541 298.2156 -9141.9830 -7411.8541 298.2156 370.6070 464.3214 29299.3470 370.6070 464.3214
ENERGY: 300000 2.0940 8.8260 5.4516 0.0000 -10615.1243 1463.9595 0.0000 0.0000 1804.8118 -7329.9814 311.0884 -9134.7932 -7309.8109 302.5389 458.0475 523.7847 29755.9795 419.7770 484.8353
ENERGY: 600000 1.9842 9.9110 5.5713 0.0000 -10597.6531 1480.4391 0.0000 0.0000 1718.6417 -7381.1058 296.2356 -9099.7476 -7337.5485 299.1115 267.5799 271.5955 30399.0257 247.5415 303.2737
ENERGY: 900000 1.8425 10.5452 3.5674 0.0000 -10510.0213 1390.0133 0.0000 0.0000 1687.4268 -7416.6261 290.8552 -9104.0529 -7353.1850 299.1015 -418.7161 -402.7384 30309.0013 127.2410 177.1936
ENERGY: 1200000 3.0593 7.4618 5.9021 0.0000 -10574.6449 1456.5975 0.0000 0.0000 1726.7235 -7374.9008 297.6286 -9101.6243 -7348.8887 299.4477 140.3073 205.8716 30044.3417 187.6328 241.3533
ENERGY: 1500000 2.3340 8.0998 5.6245 0.0000 -10475.7838 1391.1442 0.0000 0.0000 1754.4532 -7314.1281 302.4083 -9068.5813 -7341.5814 300.1680 -298.8022 -217.0707 30089.6365 180.1907 230.6882
TCL: Running FEP window  11: Lambda1 0.49999999999999994 Lambda2 0.5499999999999999 [dLambda 0.04999999999999999]
TCL: Setting parameter firsttimestep to 0
TCL: Setting parameter alchLambda to 0.49999999999999994
Info: NONBONDED TABLE R-SQUARED SPACING: 0.0625
Info: NONBONDED TABLE SIZE: 705 POINTS
TCL: Setting parameter alchLambda2 to 0.5499999999999999
Info: NONBONDED TABLE R-SQUARED SPACING: 0.0625
Info: NONBONDED TABLE SIZE: 705 POINTS
TCL: Running for 1500000 steps
ETITLE: TS BOND ANGLE DIHED IMPRP ELECT VDW BOUNDARY MISC KINETIC TOTAL TEMP POTENTIAL TOTALAVG TEMPAVG PRESSURE GPRESSURE VOLUME PRESSAVG GPRESSAVG
ENERGY: 0 2.3340 8.0998 5.6245 0.0000 -10475.7838 1391.1023 0.0000 0.0000 1753.5919 -7315.0314 302.2598 -9068.6232 -7315.0314 302.2598 -290.4277 -208.0466 30089.6365 -290.4277 -208.0466
ENERGY: 300000 1.5948 11.9193 4.3345 0.0000 -10517.4238 1399.6333 0.0000 0.0000 1726.0021 -7373.9398 297.5043 -9099.9418 -7329.1677 301.5834 60.1683 75.2600 29719.3324 -132.6542 -85.8737
ENERGY: 600000 2.9564 9.1449 2.5794 0.0000 -10470.5977 1389.7848 0.0000 0.0000 1809.3352 -7256.7969 311.8681 -9066.1321 -7303.4445 303.7178 -76.2955 -39.3218 30059.1187 -123.6699 -76.3600
ENERGY: 900000 3.3378 11.4227 4.0626 0.0000 -10556.5492 1461.6288 0.0000 0.0000 1757.3335 -7318.7639 302.9048 -9076.0973 -7328.4402 302.2170 392.4787 376.3853 29921.1515 -116.2931 -73.3575
ENERGY: 1200000 8.2309 9.8042 4.3230 0.0000 -10505.2772 1436.6423 0.0000 0.0000 1692.2101 -7354.0667 291.6797 -9046.2768 -7337.5022 300.5958 509.1369 564.3039 29627.0601 -112.2487 -64.6475
ENERGY: 1500000 3.0201 11.5019 4.1151 0.0000 -10392.1972 1349.2439 0.0000 0.0000 1738.2203 -7286.0958 299.6103 -9024.3161 -7350.1360 299.6283 -223.4188 -178.9499 30147.7813 -98.0981 -47.4545
TCL: Running FEP window  12: Lambda1 0.5499999999999999 Lambda2 0.6    [dLambda 0.050000000000000044]
TCL: Setting parameter firsttimestep to 0
TCL: Setting parameter alchLambda to 0.5499999999999999
Info: NONBONDED TABLE R-SQUARED SPACING: 0.0625
Info: NONBONDED TABLE SIZE: 705 POINTS
TCL: Setting parameter alchLambda2 to 0.6
Info: NONBONDED TABLE R-SQUARED SPACING: 0.0625
Info: NONBONDED TABLE SIZE: 705 POINTS
TCL: Running for 1500000 steps
ETITLE: TS BOND ANGLE DIHED IMPRP ELECT VDW BOUNDARY MISC KINETIC TOTAL TEMP POTENTIAL TOTALAVG TEMPAVG PRESSURE GPRESSURE VOLUME PRESSAVG GPRESSAVG
ENERGY: 0 3.0201 11.5019 4.1151 0.0000 -10392.1715 1349.3500 0.0000 0.0000 1737.4037 -7286.7805 299.4695 -9024.1843 -7286.7805 299.4695 -269.9898 -168.2210 30147.7813 -269.9898 -168.2210
ENERGY: 300000 5.5902 10.5691 6.3812 0.0000 -10714.4904 1504.8197 0.0000 0.0000 1755.7230 -7431.4071 302.6272 -9187.1301 -7401.4261 295.5840 566.3908 631.5460 29345.4895 -179.8415 -121.7932
ENERGY: 600000 3.9757 8.4366 9.1704 0.0000 -10533.3205 1442.9934 0.0000 0.0000 1769.1732 -7299.5712 304.9455 -9068.7444 -7375.1954 298.6055 286.8393 375.5560 29939.4860 -77.8970 -18.9375
ENERGY: 900000 1.2697 8.1356 2.3482 0.0000 -10447.3551 1390.9332 0.0000 0.0000 1737.8419 -7306.8265 299.5451 -9044.6684 -7373.8483 297.8530 -149.7324 -132.6837 30388.5974 64.3085 123.1338
ENERGY: 1200000 3.7867 10.2464 3.6045 0.0000 -10580.1974 1385.4270 0.0000 0.0000 1754.3843 -7422.7485 302.3964 -9177.1328 -7386.9728 297.5906 -294.6952 -270.0368 29722.3343 -51.0423 3.3380
ENERGY: 1500000 3.6604 5.2420 2.8784 0.0000 -10419.4402 1376.9819 0.0000 0.0000 1769.5112 -7261.1663 305.0038 -9030.6775 -7369.9390 299.1945 -265.5188 -257.0263 30264.2441 -98.4798 -44.5208
TCL: Running FEP window  13: Lambda1 0.6    Lambda2 0.65   [dLambda 0.050000000000000044]
TCL: Setting parameter firsttimestep to 0
TCL: Setting parameter alchLambda to 0.6
Info: NONBONDED TABLE R-SQUARED SPACING: 0.0625
Info: NONBONDED TABLE SIZE: 705 POINTS
TCL: Setting parameter alchLambda2 to 0.65
Info: NONBONDED TABLE R-SQUARED SPACING: 0.0625
Info: NONBONDED TABLE SIZE: 705 POINTS
TCL: Running for 1500000 steps
ETITLE: TS BOND ANGLE DIHED IMPRP ELECT VDW BOUNDARY MISC KINETIC TOTAL TEMP POTENTIAL TOTALAVG TEMPAVG PRESSURE GPRESSURE VOLUME PRESSAVG GPRESSAVG
ENERGY: 0 3.6604 5.2420 2.8784 0.0000 -10419.2972 1377.0790 0.0000 0.0000 1768.6462 -7261.7912 304.8547 -9030.4374 -7261.7912 304.8547 -318.1658 -244.3278 30264.2441 -318.1658 -244.3278
ENERGY: 300000 2.3888 8.9737 6.2317 0.0000 -10426.1198 1341.8936 0.0000 0.0000 1742.8269 -7323.8052 300.4043 -9066.6321 -7318.4481 303.2041 -502.3933 -401.9661 30005.7761 -376.6990 -295.6845
ENERGY: 600000 6.2004 10.8539 2.6354 0.0000 -10548.2406 1396.4921 0.0000 0.0000 1725.3409 -7406.7178 297.3903 -9132.0588 -7333.1783 302.3353 -353.0010 -264.5548 29792.7517 -404.8275 -323.1333
ENERGY: 900000 3.0082 8.5631 4.8286 0.0000 -10573.6485 1425.8369 0.0000 0.0000 1675.1907 -7456.2209 288.7461 -9131.4116 -7345.5316 300.3089 -115.7499 -101.6852 30223.0269 -396.1253 -323.5086
ENERGY: 1200000 7.5600 8.4584 6.5749 0.0000 -10472.3824 1401.3428 0.0000 0.0000 1721.8674 -7326.5789 296.7916 -9048.4463 -7357.8894 299.6536 -269.1586 -279.8129 30134.5927 -286.8083 -215.9410
ENERGY: 1500000 4.2332 9.6223 3.4408 0.0000 -10557.8475 1425.7827 0.0000 0.0000 1706.1916 -7408.5770 294.0896 -9114.7685 -7368.5700 298.7593 -112.8073 -60.5366 30324.4603 -233.7969 -165.2116
TCL: Running FEP window  14: Lambda1 0.65   Lambda2 0.7000000000000001 [dLambda 0.050000000000000044]
TCL: Setting parameter firsttimestep to 0
TCL: Setting parameter alchLambda to 0.65
Info: NONBONDED TABLE R-SQUARED SPACING: 0.0625
Info: NONBONDED TABLE SIZE: 705 POINTS
TCL: Setting parameter alchLambda2 to 0.7000000000000001
Info: NONBONDED TABLE R-SQUARED SPACING: 0.0625
Info: NONBONDED TABLE SIZE: 705 POINTS
TCL: Running for 1500000 steps
ETITLE: TS BOND ANGLE DIHED IMPRP ELECT VDW BOUNDARY MISC KINETIC TOTAL TEMP POTENTIAL TOTALAVG TEMPAVG PRESSURE GPRESSURE VOLUME PRESSAVG GPRESSAVG
ENERGY: 0 4.2332 9.6223 3.4408 0.0000 -10557.8144 1425.5168 0.0000 0.0000 1705.3232 -7409.6782 293.9399 -9115.0014 -7409.6782 293.9399 -133.3742 -51.6201 30324.4603 -133.3742 -51.6201
ENERGY: 300000 3.1478 11.8079 4.1424 0.0000 -10580.6627 1433.2809 0.0000 0.0000 1716.4979 -7411.7858 295.8661 -9128.2837 -7383.9269 295.2505 43.3991 88.2253 29798.6157 -221.7261 -140.2708
ENERGY: 600000 4.9136 11.6445 4.8192 0.0000 -10579.4037 1392.3208 0.0000 0.0000 1791.6943 -7374.0113 308.8274 -9165.7056 -7365.4949 299.1666 -450.7063 -352.1306 29836.6617 -245.3395 -173.0531
ENERGY: 900000 3.7182 10.2875 6.0637 0.0000 -10579.8826 1461.8150 0.0000 0.0000 1698.1505 -7399.8479 292.7036 -9097.9983 -7362.0520 299.1463 498.5882 562.8868 29723.7748 -175.7932 -101.4474
ENERGY: 1200000 4.1403 7.8541 3.6944 0.0000 -10521.3672 1366.7999 0.0000 0.0000 1716.3552 -7422.5232 295.8415 -9138.8784 -7367.2618 299.2629 -438.9689 -469.1547 29932.3647 -66.9249 7.4632
ENERGY: 1500000 7.0497 9.6909 2.3758 0.0000 -10647.6583 1462.7313 0.0000 0.0000 1780.5573 -7385.2532 306.9078 -9165.8105 -7372.0911 298.8936 430.9590 503.2975 29189.2626 -65.2988 6.1115
TCL: Running FEP window  15: Lambda1 0.7000000000000001 Lambda2 0.7500000000000001 [dLambda 0.050000000000000044]
TCL: Setting parameter firsttimestep to 0
TCL: Setting parameter alchLambda to 0.7000000000000001
Info: NONBONDED TABLE R-SQUARED SPACING: 0.0625
Info: NONBONDED TABLE SIZE: 705 POINTS
TCL: Setting parameter alchLambda2 to 0.7500000000000001
Info: NONBONDED TABLE R-SQUARED SPACING: 0.0625
Info: NONBONDED TABLE SIZE: 705 POINTS
TCL: Running for 1500000 steps
ETITLE: TS BOND ANGLE DIHED IMPRP ELECT VDW BOUNDARY MISC KINETIC TOTAL TEMP POTENTIAL TOTALAVG TEMPAVG PRESSURE GPRESSURE VOLUME PRESSAVG GPRESSAVG
ENERGY: 0 7.0497 9.6909 2.3758 0.0000 -10649.2744 1462.9698 0.0000 0.0000 1779.6697 -7387.5185 306.7548 -9167.1882 -7387.5185 306.7548 422.0572 510.6711 29189.2626 422.0572 510.6711
ENERGY: 300000 3.2040 11.1864 5.6213 0.0000 -10553.6527 1457.1497 0.0000 0.0000 1741.1217 -7335.3697 300.1104 -9076.4914 -7378.6060 304.9090 564.8647 619.5152 29575.9204 567.7243 612.4436
ENERGY: 600000 4.5159 9.2842 4.3275 0.0000 -10540.0285 1404.6524 0.0000 0.0000 1796.7012 -7320.5474 309.6904 -9117.2486 -7368.8242 304.0364 -29.5813 19.9183 29892.8034 117.0453 182.1541
ENERGY: 900000 2.8804 13.7933 3.6619 0.0000 -10419.4326 1371.0640 0.0000 0.0000 1757.0658 -7270.9673 302.8586 -9028.0331 -7353.6809 303.5816 -325.0959 -236.4200 30346.7428 35.2325 106.8651
ENERGY: 1200000 2.5388 11.3070 6.2625 0.0000 -10613.8524 1463.8557 0.0000 0.0000 1743.7310 -7386.1575 300.5601 -9129.8884 -7351.1870 303.3728 124.0688 260.1739 30120.3466 21.0327 92.9847
ENERGY: 1500000 2.2532 9.0281 4.2472 0.0000 -10483.9087 1420.6158 0.0000 0.0000 1690.3899 -7357.3744 291.3660 -9047.7643 -7349.4018 301.9030 7.0060 41.8630 30580.2243 -23.6867 40.8908
TCL: Running FEP window  16: Lambda1 0.7500000000000001 Lambda2 0.8000000000000002 [dLambda 0.050000000000000044]
TCL: Setting parameter firsttimestep to 0
TCL: Setting parameter alchLambda to 0.7500000000000001
Info: NONBONDED TABLE R-SQUARED SPACING: 0.0625
Info: NONBONDED TABLE SIZE: 705 POINTS
TCL: Setting parameter alchLambda2 to 0.8000000000000002
Info: NONBONDED TABLE R-SQUARED SPACING: 0.0625
Info: NONBONDED TABLE SIZE: 705 POINTS
TCL: Running for 1500000 steps
ETITLE: TS BOND ANGLE DIHED IMPRP ELECT VDW BOUNDARY MISC KINETIC TOTAL TEMP POTENTIAL TOTALAVG TEMPAVG PRESSURE GPRESSURE VOLUME PRESSAVG GPRESSAVG
ENERGY: 0 2.2532 9.0281 4.2472 0.0000 -10484.9191 1420.8048 0.0000 0.0000 1689.5106 -7359.0752 291.2144 -9048.5858 -7359.0752 291.2144 -18.0819 49.7397 30580.2243 -18.0819 49.7397
ENERGY: 300000 2.8134 14.4580 5.7944 0.0000 -10637.8427 1413.5615 0.0000 0.0000 1795.6926 -7405.5228 309.5166 -9201.2153 -7389.8660 297.1808 -303.6535 -219.3088 29836.2806 -76.6321 -18.1916
ENERGY: 600000 3.1017 10.9679 2.4159 0.0000 -10574.8195 1479.1251 0.0000 0.0000 1741.5242 -7337.6848 300.1798 -9079.2089 -7397.7531 296.8298 575.9287 602.0205 29740.2513 -77.4201 -18.8268
ENERGY: 900000 3.1665 7.3390 6.8104 0.0000 -10435.5542 1353.4228 0.0000 0.0000 1673.1387 -7391.6769 288.3924 -9064.8155 -7386.9238 296.6785 -512.5082 -427.0397 29728.0373 -185.8302 -119.4494
ENERGY: 1200000 7.4136 9.0397 5.1551 0.0000 -10555.6061 1392.8820 0.0000 0.0000 1779.5920 -7361.5237 306.7414 -9141.1157 -7384.7195 298.1479 -242.6624 -206.6672 29984.2556 -165.1770 -105.4286
ENERGY: 1500000 4.2809 11.3384 2.6610 0.0000 -10526.9374 1410.6497 0.0000 0.0000 1763.6048 -7334.4026 303.9857 -9098.0075 -7369.8505 299.7811 -46.0131 55.9077 30133.4556 -200.3060 -141.0224
TCL: Running FEP window  17: Lambda1 0.8000000000000002 Lambda2 0.8500000000000002 [dLambda 0.050000000000000044]
TCL: Setting parameter firsttimestep to 0
TCL: Setting parameter alchLambda to 0.8000000000000002
Info: NONBONDED TABLE R-SQUARED SPACING: 0.0625
Info: NONBONDED TABLE SIZE: 705 POINTS
TCL: Setting parameter alchLambda2 to 0.8500000000000002
Info: NONBONDED TABLE R-SQUARED SPACING: 0.0625
Info: NONBONDED TABLE SIZE: 705 POINTS
TCL: Running for 1500000 steps
ETITLE: TS BOND ANGLE DIHED IMPRP ELECT VDW BOUNDARY MISC KINETIC TOTAL TEMP POTENTIAL TOTALAVG TEMPAVG PRESSURE GPRESSURE VOLUME PRESSAVG GPRESSAVG
ENERGY: 0 4.2809 11.3384 2.6610 0.0000 -10528.6885 1410.8784 0.0000 0.0000 1762.6964 -7336.8335 303.8291 -9099.5299 -7336.8335 303.8291 -11.9873 65.9625 30133.4556 -11.9873 65.9625
ENERGY: 300000 6.0329 9.7206 3.8294 0.0000 -10415.7032 1400.6572 0.0000 0.0000 1729.7593 -7265.7039 298.1519 -8995.4631 -7300.7251 304.1651 312.7651 394.9297 29867.6078 -89.3380 -46.5363
ENERGY: 600000 3.9567 8.6439 3.3511 0.0000 -10578.4678 1411.7256 0.0000 0.0000 1808.4566 -7342.3339 311.7166 -9150.7905 -7315.8516 304.1714 -269.2190 -188.9424 30262.4718 -18.5962 51.4072
ENERGY: 900000 4.1901 7.1343 7.3764 0.0000 -10420.2818 1289.2192 0.0000 0.0000 1720.3602 -7392.0014 296.5318 -9112.3617 -7333.7673 302.4673 -1134.7933 -1041.7494 30058.8684 -161.3669 -93.3796
ENERGY: 1200000 7.4488 11.8918 4.3321 0.0000 -10568.8190 1447.4131 0.0000 0.0000 1757.0386 -7340.6946 302.8539 -9097.7332 -7342.4677 301.3329 80.5900 138.6392 30123.3769 -157.7769 -88.6944
ENERGY: 1500000 3.4367 11.8169 4.4130 0.0000 -10677.9779 1470.9244 0.0000 0.0000 1714.0344 -7473.3525 295.4415 -9187.3869 -7350.5047 301.0186 420.1094 480.6675 29271.1299 -146.7811 -81.7323
TCL: Running FEP window  18: Lambda1 0.8500000000000002 Lambda2 0.9000000000000002 [dLambda 0.050000000000000044]
TCL: Setting parameter firsttimestep to 0
TCL: Setting parameter alchLambda to 0.8500000000000002
Info: NONBONDED TABLE R-SQUARED SPACING: 0.0625
Info: NONBONDED TABLE SIZE: 705 POINTS
TCL: Setting parameter alchLambda2 to 0.9000000000000002
Info: NONBONDED TABLE R-SQUARED SPACING: 0.0625
Info: NONBONDED TABLE SIZE: 705 POINTS
TCL: Running for 1500000 steps
ETITLE: TS BOND ANGLE DIHED IMPRP ELECT VDW BOUNDARY MISC KINETIC TOTAL TEMP POTENTIAL TOTALAVG TEMPAVG PRESSURE GPRESSURE VOLUME PRESSAVG GPRESSAVG
ENERGY: 0 3.4367 11.8169 4.4130 0.0000 -10679.6783 1471.8826 0.0000 0.0000 1713.1811 -7474.9480 295.2944 -9188.1291 -7474.9480 295.2944 408.5651 500.7224 29271.1299 408.5651 500.7224
ENERGY: 300000 3.5186 8.7688 1.8651 0.0000 -10485.9313 1400.4899 0.0000 0.0000 1810.6015 -7260.6874 312.0864 -9071.2889 -7346.1951 302.9573 -122.1939 -72.5201 30391.8257 -151.4604 -75.1529
ENERGY: 600000 10.0134 8.0560 2.3409 0.0000 -10530.8185 1380.6851 0.0000 0.0000 1796.0966 -7333.6266 309.5862 -9129.7232 -7340.8476 303.8593 -180.1806 -75.9067 29437.6305 -85.3110 -27.8196
ENERGY: 900000 2.0709 14.4690 3.4094 0.0000 -10485.0656 1392.2472 0.0000 0.0000 1726.5903 -7346.2787 297.6057 -9072.8690 -7349.2293 303.5256 -78.1934 0.0034 30100.2866 -123.6426 -65.6885
ENERGY: 1200000 4.0485 8.1343 2.4795 0.0000 -10555.6612 1397.9527 0.0000 0.0000 1794.5580 -7348.4882 309.3210 -9143.0462 -7342.2034 305.0373 -75.9097 -40.6010 29886.6963 -128.7306 -80.9655
ENERGY: 1500000 2.6924 7.7296 4.6039 0.0000 -10635.0279 1443.8515 0.0000 0.0000 1660.5448 -7515.6058 286.2217 -9176.1506 -7354.2706 303.4754 -160.2470 -150.7064 30066.5578 -37.2842 13.1402
TCL: Running FEP window  19: Lambda1 0.9000000000000002 Lambda2 0.9500000000000003 [dLambda 0.050000000000000044]
TCL: Setting parameter firsttimestep to 0
TCL: Setting parameter alchLambda to 0.9000000000000002
Info: NONBONDED TABLE R-SQUARED SPACING: 0.0625
Info: NONBONDED TABLE SIZE: 705 POINTS
TCL: Setting parameter alchLambda2 to 0.9500000000000003
Info: NONBONDED TABLE R-SQUARED SPACING: 0.0625
Info: NONBONDED TABLE SIZE: 705 POINTS
TCL: Running for 1500000 steps
ETITLE: TS BOND ANGLE DIHED IMPRP ELECT VDW BOUNDARY MISC KINETIC TOTAL TEMP POTENTIAL TOTALAVG TEMPAVG PRESSURE GPRESSURE VOLUME PRESSAVG GPRESSAVG
ENERGY: 0 2.6924 7.7296 4.6039 0.0000 -10637.2746 1444.9238 0.0000 0.0000 1659.6526 -7517.6724 286.0679 -9177.3251 -7517.6724 286.0679 -212.2947 -136.5373 30066.5578 -212.2947 -136.5373
ENERGY: 300000 5.0626 8.9477 2.3627 0.0000 -10774.8230 1529.0390 0.0000 0.0000 1755.0756 -7474.3355 302.5156 -9229.4111 -7411.5200 297.5386 695.6813 754.2311 29660.8402 408.4098 470.6107
ENERGY: 600000 5.4703 11.1845 3.2432 0.0000 -10536.6741 1403.4521 0.0000 0.0000 1841.5330 -7271.7910 317.4179 -9113.3239 -7380.1835 301.7075 71.5463 108.4784 30061.2669 72.1373 127.9254
ENERGY: 900000 4.2378 8.1564 5.3533 0.0000 -10552.3889 1401.9382 0.0000 0.0000 1780.4952 -7352.2079 306.8971 -9132.7031 -7375.9901 302.1502 65.2533 97.3726 29910.9434 -41.5775 8.6235
ENERGY: 1200000 4.8813 8.8150 4.9767 0.0000 -10541.6933 1400.0430 0.0000 0.0000 1746.0539 -7376.9234 300.9605 -9122.9772 -7373.6723 301.4805 -125.2423 -85.9256 30104.5925 36.8870 90.6682
ENERGY: 1500000 5.3859 8.1375 3.0033 0.0000 -10616.8260 1463.3965 0.0000 0.0000 1734.4866 -7402.4162 298.9667 -9136.9028 -7371.7757 302.1296 366.2642 406.3178 29718.2432 59.4489 111.4750
TCL: Running FEP window  20: Lambda1 0.9500000000000003 Lambda2 1.0    [dLambda 0.04999999999999971]
TCL: Setting parameter firsttimestep to 0
TCL: Setting parameter alchLambda to 0.9500000000000003
Info: NONBONDED TABLE R-SQUARED SPACING: 0.0625
Info: NONBONDED TABLE SIZE: 705 POINTS
TCL: Setting parameter alchLambda2 to 1.0
Info: NONBONDED TABLE R-SQUARED SPACING: 0.0625
Info: NONBONDED TABLE SIZE: 705 POINTS
TCL: Running for 1500000 steps
ETITLE: TS BOND ANGLE DIHED IMPRP ELECT VDW BOUNDARY MISC KINETIC TOTAL TEMP POTENTIAL TOTALAVG TEMPAVG PRESSURE GPRESSURE VOLUME PRESSAVG GPRESSAVG
ENERGY: 0 5.3859 8.1375 3.0033 0.0000 -10618.9809 1463.4318 0.0000 0.0000 1733.6384 -7405.3841 298.8205 -9139.0224 -7405.3841 298.8205 327.8631 414.4540 29718.2432 327.8631 414.4540
ENERGY: 300000 5.3768 7.5233 2.7060 0.0000 -10665.8473 1480.1471 0.0000 0.0000 1746.8061 -7423.2879 301.0902 -9170.0941 -7396.8011 297.1506 400.3258 406.2424 29882.1382 11.1496 68.8785
ENERGY: 600000 4.9244 8.3934 2.5699 0.0000 -10612.9277 1431.5468 0.0000 0.0000 1786.1081 -7379.3851 307.8645 -9165.4932 -7388.8523 299.2376 -181.8955 -100.6611 30060.7684 76.1719 134.6639
ENERGY: 900000 3.1184 8.8665 3.1893 0.0000 -10660.0752 1481.2981 0.0000 0.0000 1756.3438 -7407.2591 302.7342 -9163.6030 -7385.0694 300.4998 305.7221 390.5067 30014.5747 60.7978 112.4023
ENERGY: 1200000 4.4826 8.9491 4.6124 0.0000 -10568.7472 1394.5806 0.0000 0.0000 1768.1653 -7387.9573 304.7718 -9156.1226 -7376.8883 301.6204 -345.4468 -283.0186 30171.5256 -10.3734 42.3569
ENERGY: 1500000 4.2916 7.6609 2.7755 0.0000 -10471.4031 1395.6101 0.0000 0.0000 1777.4571 -7283.6078 306.3734 -9061.0650 -7374.1761 300.6615 -235.3145 -141.5047 30363.6905 -14.1675 39.4628
TCL: Exiting due to exit command.
