Info: SIMULATION PARAMETERS:
Info: TIMESTEP               2
Info: NUMBER OF STEPS        0
Info: STEPS PER CYCLE        10
Info: PERIODIC CELL BASIS 1  31.6577 0 0
Info: PERIODIC CELL BASIS 2  0 29.4648 0
Info: PERIODIC CELL BASIS 3  0 0 32.8088
Info: PERIODIC CELL CENTER   0 0 0
Info: WRAPPING WATERS AROUND PERIODIC BOUNDARIES ON OUTPUT.
Info: WRAPPING ALL CLUSTERS AROUND PERIODIC BOUNDARIES ON OUTPUT.
Info: FIRST LDB TIMESTEP     50
Info: LAST LDB TIMESTEP     -1
Info: HOM BACKGROUND SCALING 1
Info: PME BACKGROUND SCALING 1
Info: MIN ATOMS PER PATCH    40
Info: EMPTY PATCH LOAD       40 ATOMS
Info: VELOCITY FILE          mobley_2489709_equil.vel
Info: CENTER OF MASS MOVING INITIALLY? NO
Info: DIELECTRIC             1
Info: EXCLUDE                SCALED ONE-FOUR
Info: 1-4 ELECTROSTATICS SCALED BY 0.833333
Info: MODIFIED 1-4 VDW PARAMETERS WILL BE USED
Info: DCD FILENAME           mobley_2489709_prod.dcd
Info: DCD FREQUENCY          100000
Info: DCD FIRST STEP         100000
Info: DCD FILE WILL CONTAIN UNIT CELL DATA
Info: XST FILENAME           mobley_2489709_prod.xst
Info: XST FREQUENCY          100000
Info: NO VELOCITY DCD OUTPUT
Info: NO FORCE DCD OUTPUT
Info: OUTPUT FILENAME        mobley_2489709_prod
Info: BINARY OUTPUT FILES WILL BE USED
Info: RESTART FILENAME       mobley_2489709_prod.restart
Info: RESTART FREQUENCY      100000
Info: BINARY RESTART FILES WILL BE USED
Info: CUTOFF                 9
Info: PAIRLIST DISTANCE      11
Info: PAIRLIST SHRINK RATE   0.01
Info: PAIRLIST GROW RATE     0.01
Info: PAIRLIST TRIGGER       0.3
Info: PAIRLISTS PER CYCLE    2
Info: PAIRLISTS ENABLED
Info: MARGIN                 2
Info: HYDROGEN GROUP CUTOFF  2.5
Info: PATCH DIMENSION        15.5
Info: ENERGY OUTPUT STEPS    100000
Info: ENERGY EVALUATION STEPS    100000
Info: OUTPUT ENERGY PRECISION 4
Info: CROSSTERM ENERGY INCLUDED IN DIHEDRAL
Info: TIMING OUTPUT STEPS    1000000
Info: PRESSURE OUTPUT STEPS  100000
Info: ALCHEMICAL FEP ON
Info: FEP CURRENT LAMBDA VALUE     0
Info: FEP COMPARISON LAMBDA VALUE  0.05
Info: FEP INTRA-ALCHEMICAL NON-BONDED INTERACTIONS WILL BE RETAINED
Info: FEP INTRA-ALCHEMICAL BONDED INTERACTIONS WILL BE RETAINED
Info: FEP VDW SHIFTING COEFFICIENT 5
Info: FEP ELEC. ACTIVE FOR ANNIHILATED PARTICLES BETWEEN LAMBDA = 0 AND LAMBDA = 0.5
Info: FEP ELEC. ACTIVE FOR EXNIHILATED PARTICLES BETWEEN LAMBDA = 0.5 AND LAMBDA = 1
Info: FEP VDW ACTIVE FOR ANNIHILATED PARTICLES BETWEEN LAMBDA = 0 AND LAMBDA = 1
Info: FEP VDW ACTIVE FOR EXNIHILATED PARTICLES BETWEEN LAMBDA = 0 AND LAMBDA = 1
Info: FEP BOND ACTIVE FOR ANNIHILATED PARTICLES BETWEEN LAMBDA = 1 AND LAMBDA = 1
Info: FEP BOND ACTIVE FOR EXNIHILATED PARTICLES BETWEEN LAMBDA = 0 AND LAMBDA = 0
Info: LANGEVIN DYNAMICS ACTIVE
Info: LANGEVIN TEMPERATURE   300
Info: LANGEVIN USING BBK INTEGRATOR
Info: LANGEVIN DAMPING COEFFICIENT IS 1 INVERSE PS
Info: LANGEVIN DYNAMICS APPLIED TO HYDROGENS
Info: LANGEVIN PISTON PRESSURE CONTROL ACTIVE
Info:        TARGET PRESSURE IS 1.01325 BAR
Info:     OSCILLATION PERIOD IS 50 FS
Info:             DECAY TIME IS 25 FS
Info:     PISTON TEMPERATURE IS 300 K
Info:       PRESSURE CONTROL IS GROUP-BASED
Info:    INITIAL STRAIN RATE IS -0.000738758 -0.000738758 -0.000738758
Info:       CELL FLUCTUATION IS ISOTROPIC
Info: PARTICLE MESH EWALD (PME) ACTIVE
Info: PME TOLERANCE               1e-06
Info: PME EWALD COEFFICIENT       0.348832
Info: PME INTERPOLATION ORDER     4
Info: PME GRID DIMENSIONS         32 32 36
Info: PME MAXIMUM GRID SPACING    1
Info: PME CALCULATION WILL BE PERFORMED ON GPU
Info: FULL ELECTROSTATIC EVALUATION FREQUENCY      2
Info: USING VERLET I (r-RESPA) MTS SCHEME.
Info: C1 SPLITTING OF LONG RANGE ELECTROSTATICS
Info: PLACING ATOMS IN PATCHES BY HYDROGEN GROUPS
Info: RIGID BONDS TO HYDROGEN : ALL
Info:         ERROR TOLERANCE : 1e-08
Info:          MAX ITERATIONS : 100
Info: RIGID WATER USING SETTLE ALGORITHM
Info: RANDOM NUMBER SEED     1743521392
Info: USE HYDROGEN BONDS?    NO
Info: Using AMBER format force field!
Info: AMBER PARM FILE        mobley_2489709.prmtop
Info: COORDINATE PDB         mobley_2489709.pdb
Info: Exclusions will be read from PARM file!
Info: SCNB (VDW SCALING)     2
Info: USING ARITHMETIC MEAN TO COMBINE L-J SIGMA PARAMETERS
Info: BINARY COORDINATES     mobley_2489709_equil.coor
Info: SUMMARY OF PARAMETERS:
Info: 5 BONDS
Info: 3 ANGLES
Info:   3 HARMONIC
Info:   0 COSINE-BASED
Info: 2 DIHEDRAL
Info: 0 IMPROPER
Info: 0 CROSSTERM
Info: 0 VDW
Info: 15 VDW_PAIRS
Info: 0 NBTHOLE_PAIRS
Info: To read alchdata from file: mobley_2489709.pdb
Info: To read alchflag data from column: 5
Info: STRUCTURE SUMMARY:
Info: 2952 ATOMS
Info: 2952 BONDS
Info: 18 ANGLES
Info: 30 DIHEDRALS
Info: 0 IMPROPERS
Info: 0 CROSSTERMS
Info: 2991 EXCLUSIONS
Info: 2944 RIGID BONDS
Info: ALCH: 0 ATOMS TO DISAPPEAR IN FINAL STATE
Info: ALCH: 12 ATOMS TO APPEAR IN FINAL STATE
Info: 5912 DEGREES OF FREEDOM
Info: 988 HYDROGEN GROUPS
Info: 3 ATOMS IN LARGEST HYDROGEN GROUP
Info: 988 MIGRATION GROUPS
Info: 3 ATOMS IN LARGEST MIGRATION GROUP
Info: TOTAL MASS = 17802.7 amu
Info: TOTAL CHARGE = 0.00010002 e
Info: MASS DENSITY = 0.965989 g/cm^3
Info: ATOM DENSITY = 0.0964593 atoms/A^3
Info: ADDED 0 IMPLICIT EXCLUSIONS
Info: NONBONDED TABLE R-SQUARED SPACING: 0.0625
Info: NONBONDED TABLE SIZE: 705 POINTS
Info: REMOVING COM VELOCITY -0.242246 0.102053 -0.00257769
Info: Use 3D box decompostion in PME FFT.
Info: Updated CUDA force table with 4096 elements.
Info: Updated CUDA LJ table with 5 x 5 elements.
Info: Found 14 unique exclusion lists needing 24 bytes
TCL: Running for 1500000 steps
ETITLE: TS BOND ANGLE DIHED IMPRP ELECT VDW BOUNDARY MISC KINETIC TOTAL TEMP POTENTIAL TOTALAVG TEMPAVG PRESSURE GPRESSURE VOLUME PRESSAVG GPRESSAVG
ENERGY: 0 1.2272 5.1150 4.4855 0.0000 -10587.0463 1468.9798 0.0000 0.0000 1832.8549 -7274.3839 312.0212 -9107.2388 -7274.3839 312.0212 520.3316 579.8111 30603.5862 520.3316 579.8111
ENERGY: 300000 1.5955 6.5179 1.3877 0.0000 -10616.3674 1351.1132 0.0000 0.0000 1771.5185 -7484.2345 301.5794 -9255.7531 -7455.8222 302.2841 -739.9483 -718.0844 30439.3454 -280.1309 -238.5442
ENERGY: 600000 7.1959 2.2552 4.2726 0.0000 -10566.1184 1330.3015 0.0000 0.0000 1751.1376 -7470.9557 298.1098 -9222.0933 -7491.5019 299.5134 -896.0569 -844.6141 30310.2479 -313.3218 -279.3454
ENERGY: 900000 2.8806 2.7099 5.6230 0.0000 -10743.9866 1491.9651 0.0000 0.0000 1719.6165 -7521.1916 292.7437 -9240.8081 -7498.3378 298.9356 488.6530 557.7165 30122.7682 -266.2870 -229.0099
ENERGY: 1200000 6.4866 9.3147 1.2010 0.0000 -10633.4312 1414.8156 0.0000 0.0000 1735.7988 -7465.8145 295.4985 -9201.6133 -7493.9737 298.7553 -571.2231 -458.8965 30668.3069 -279.9138 -242.0016
ENERGY: 1500000 2.5537 1.3736 3.4269 0.0000 -10728.3942 1405.2550 0.0000 0.0000 1763.2401 -7552.5449 300.1701 -9315.7850 -7493.4510 298.2522 -672.3867 -615.7199 30336.8356 -238.1155 -195.4900
TCL: Running FEP window   2: Lambda1 0.05   Lambda2 0.1    [dLambda 0.05  ]
TCL: Setting parameter firsttimestep to 0
TCL: Setting parameter alchLambda to 0.05
Info: NONBONDED TABLE R-SQUARED SPACING: 0.0625
Info: NONBONDED TABLE SIZE: 705 POINTS
TCL: Setting parameter alchLambda2 to 0.1
Info: NONBONDED TABLE R-SQUARED SPACING: 0.0625
Info: NONBONDED TABLE SIZE: 705 POINTS
TCL: Running for 1500000 steps
ETITLE: TS BOND ANGLE DIHED IMPRP ELECT VDW BOUNDARY MISC KINETIC TOTAL TEMP POTENTIAL TOTALAVG TEMPAVG PRESSURE GPRESSURE VOLUME PRESSAVG GPRESSAVG
ENERGY: 0 2.5537 1.3736 3.4269 0.0000 -10728.3939 1407.4951 0.0000 0.0000 1762.3447 -7551.2000 300.0177 -9313.5447 -7551.2000 300.0177 -695.9496 -609.5713 30336.8356 -695.9496 -609.5713
ENERGY: 300000 3.1374 2.8849 2.4035 0.0000 -10705.8731 1457.7744 0.0000 0.0000 1790.0768 -7449.5961 304.7387 -9239.6729 -7468.3921 301.9901 5.6623 27.5244 30288.9720 -443.5654 -393.8665
ENERGY: 600000 4.8750 2.4811 2.1299 0.0000 -10738.2465 1469.8345 0.0000 0.0000 1751.5219 -7507.4040 298.1752 -9258.9259 -7477.8030 300.1710 388.1121 418.4176 30030.8486 -313.4680 -253.6376
ENERGY: 900000 3.1130 5.4551 5.7724 0.0000 -10595.1298 1403.5817 0.0000 0.0000 1761.6673 -7415.5402 299.9023 -9177.2075 -7458.8973 301.4788 98.6969 142.6685 29849.2007 -212.1567 -155.9915
ENERGY: 1200000 3.9652 2.5262 1.7657 0.0000 -10749.2777 1456.4915 0.0000 0.0000 1766.7567 -7517.7724 300.7687 -9284.5291 -7469.2553 301.1022 -97.9671 -61.1695 30127.6782 -170.4531 -118.0093
ENERGY: 1500000 3.0858 4.4688 2.2610 0.0000 -10887.2694 1529.2580 0.0000 0.0000 1741.5485 -7606.6473 296.4774 -9348.1958 -7484.2638 300.7022 406.8394 444.4850 30061.9869 -117.9198 -69.4679
TCL: Running FEP window   3: Lambda1 0.1    Lambda2 0.15000000000000002 [dLambda 0.05000000000000002]
TCL: Setting parameter firsttimestep to 0
TCL: Setting parameter alchLambda to 0.1
Info: NONBONDED TABLE R-SQUARED SPACING: 0.0625
Info: NONBONDED TABLE SIZE: 705 POINTS
TCL: Setting parameter alchLambda2 to 0.15000000000000002
Info: NONBONDED TABLE R-SQUARED SPACING: 0.0625
Info: NONBONDED TABLE SIZE: 705 POINTS
TCL: Running for 1500000 steps
ETITLE: TS BOND ANGLE DIHED IMPRP ELECT VDW BOUNDARY MISC KINETIC TOTAL TEMP POTENTIAL TOTALAVG TEMPAVG PRESSURE GPRESSURE VOLUME PRESSAVG GPRESSAVG
ENERGY: 0 3.0858 4.4688 2.2610 0.0000 -10887.2709 1530.5860 0.0000 0.0000 1740.6913 -7606.1780 296.3314 -9346.8693 -7606.1780 296.3314 373.2837 450.7881 30061.9869 373.2837 450.7881
ENERGY: 300000 2.1076 2.4426 1.5718 0.0000 -10684.6573 1406.1902 0.0000 0.0000 1805.4071 -7466.9381 307.3485 -9272.3452 -7545.2317 298.9736 -451.2496 -366.1256 30382.3594 -64.7890 6.4426
ENERGY: 600000 4.3111 3.2713 3.9701 0.0000 -10752.0725 1508.3514 0.0000 0.0000 1767.3191 -7464.8494 300.8645 -9232.1685 -7503.4865 301.1643 504.8404 562.9325 30323.4128 94.3687 163.2572
ENERGY: 900000 1.3065 3.8439 3.2432 0.0000 -10687.0263 1441.7937 0.0000 0.0000 1738.8453 -7497.9937 296.0172 -9236.8390 -7491.5848 300.8081 -91.1584 -40.8232 30157.7408 120.3239 179.7226
ENERGY: 1200000 1.9889 2.1680 1.3373 0.0000 -10573.0340 1416.2688 0.0000 0.0000 1772.3968 -7378.8742 301.7289 -9151.2710 -7480.9744 301.6046 -133.1964 -102.1279 30483.5044 120.3229 173.7352
ENERGY: 1500000 2.3085 1.5823 3.4255 0.0000 -10661.5314 1440.7811 0.0000 0.0000 1797.0209 -7416.4130 305.9209 -9213.4339 -7474.6906 301.7062 544.9189 608.2483 29855.7017 201.7113 256.6702
TCL: Running FEP window   4: Lambda1 0.15000000000000002 Lambda2 0.2    [dLambda 0.04999999999999999]
TCL: Setting parameter firsttimestep to 0
TCL: Setting parameter alchLambda to 0.15000000000000002
Info: NONBONDED TABLE R-SQUARED SPACING: 0.0625
Info: NONBONDED TABLE SIZE: 705 POINTS
TCL: Setting parameter alchLambda2 to 0.2
Info: NONBONDED TABLE R-SQUARED SPACING: 0.0625
Info: NONBONDED TABLE SIZE: 705 POINTS
TCL: Running for 1500000 steps
ETITLE: TS BOND ANGLE DIHED IMPRP ELECT VDW BOUNDARY MISC KINETIC TOTAL TEMP POTENTIAL TOTALAVG TEMPAVG PRESSURE GPRESSURE VOLUME PRESSAVG GPRESSAVG
ENERGY: 0 2.3085 1.5823 3.4255 0.0000 -10661.5297 1442.5927 0.0000 0.0000 1796.1475 -7415.4732 305.7722 -9211.6207 -7415.4732 305.7722 542.0426 617.6259 29855.7017 542.0426 617.6259
ENERGY: 300000 3.3158 1.0837 3.1323 0.0000 -10672.4029 1389.8294 0.0000 0.0000 1802.9152 -7472.1264 306.9243 -9275.0416 -7487.9168 301.1069 -381.8278 -324.9758 30158.1729 36.4107 96.7698
ENERGY: 600000 0.9021 1.7568 6.4678 0.0000 -10740.3755 1469.6703 0.0000 0.0000 1805.0800 -7456.4985 307.2928 -9261.5786 -7473.8287 301.9914 90.0149 118.7551 30664.5418 -28.2688 35.8484
ENERGY: 900000 3.7248 3.5900 2.6656 0.0000 -10581.2293 1318.4167 0.0000 0.0000 1766.5456 -7486.2867 300.7328 -9252.8322 -7482.5534 302.0910 -1038.1882 -1044.8604 30582.6754 -188.0711 -128.0766
ENERGY: 1200000 1.6946 1.0372 1.5564 0.0000 -10710.9946 1403.7874 0.0000 0.0000 1769.3133 -7533.6056 301.2040 -9302.9189 -7480.3745 300.6833 -616.6939 -526.8369 30636.3301 -160.0478 -100.8379
ENERGY: 1500000 2.7270 1.1332 1.7612 0.0000 -10838.7216 1543.9622 0.0000 0.0000 1788.7666 -7500.3713 304.5157 -9289.1380 -7488.6294 300.5173 908.0301 981.2898 29811.8276 -89.0467 -25.0944
TCL: Running FEP window   5: Lambda1 0.2    Lambda2 0.25   [dLambda 0.04999999999999999]
TCL: Setting parameter firsttimestep to 0
TCL: Setting parameter alchLambda to 0.2
Info: NONBONDED TABLE R-SQUARED SPACING: 0.0625
Info: NONBONDED TABLE SIZE: 705 POINTS
TCL: Setting parameter alchLambda2 to 0.25
Info: NONBONDED TABLE R-SQUARED SPACING: 0.0625
Info: NONBONDED TABLE SIZE: 705 POINTS
TCL: Running for 1500000 steps
ETITLE: TS BOND ANGLE DIHED IMPRP ELECT VDW BOUNDARY MISC KINETIC TOTAL TEMP POTENTIAL TOTALAVG TEMPAVG PRESSURE GPRESSURE VOLUME PRESSAVG GPRESSAVG
ENERGY: 0 2.7270 1.1332 1.7612 0.0000 -10838.7209 1544.2584 0.0000 0.0000 1787.9024 -7500.9387 304.3685 -9288.8411 -7500.9387 304.3685 898.5944 985.4288 29811.8276 898.5944 985.4288
ENERGY: 300000 4.7176 2.6364 1.8579 0.0000 -10558.5461 1365.9329 0.0000 0.0000 1815.2902 -7368.1111 309.0310 -9183.4014 -7409.3587 307.5278 -405.2468 -350.5714 30462.9475 26.2228 77.7985
ENERGY: 600000 4.2821 3.5234 1.5367 0.0000 -10546.2110 1323.7926 0.0000 0.0000 1770.7180 -7442.3581 301.4431 -9213.0762 -7427.1622 303.0094 -869.1395 -814.5907 30512.7746 -138.0295 -85.9609
ENERGY: 900000 1.8238 1.2359 1.6106 0.0000 -10720.1884 1419.0555 0.0000 0.0000 1792.3177 -7504.1450 305.1202 -9296.4627 -7443.3929 302.3807 -211.4621 -172.1368 30139.2818 -201.6237 -142.1726
ENERGY: 1200000 2.0327 2.5284 1.7510 0.0000 -10627.3805 1395.7525 0.0000 0.0000 1803.7152 -7421.6006 307.0605 -9225.3159 -7444.7643 302.4693 -279.3712 -166.3548 30349.1695 -290.2047 -221.3752
ENERGY: 1500000 10.9713 3.8139 2.6338 0.0000 -10618.8083 1384.0019 0.0000 0.0000 1760.1088 -7457.2786 299.6370 -9217.3874 -7448.7279 301.8309 -758.0148 -705.5276 30478.9492 -285.5027 -219.8218
TCL: Running FEP window   6: Lambda1 0.25   Lambda2 0.3    [dLambda 0.04999999999999999]
TCL: Setting parameter firsttimestep to 0
TCL: Setting parameter alchLambda to 0.25
Info: NONBONDED TABLE R-SQUARED SPACING: 0.0625
Info: NONBONDED TABLE SIZE: 705 POINTS
TCL: Setting parameter alchLambda2 to 0.3
Info: NONBONDED TABLE R-SQUARED SPACING: 0.0625
Info: NONBONDED TABLE SIZE: 705 POINTS
TCL: Running for 1500000 steps
ETITLE: TS BOND ANGLE DIHED IMPRP ELECT VDW BOUNDARY MISC KINETIC TOTAL TEMP POTENTIAL TOTALAVG TEMPAVG PRESSURE GPRESSURE VOLUME PRESSAVG GPRESSAVG
ENERGY: 0 10.9713 3.8139 2.6338 0.0000 -10618.8084 1385.4348 0.0000 0.0000 1759.2294 -7456.7253 299.4873 -9215.9547 -7456.7253 299.4873 -786.9073 -695.8280 30478.9492 -786.9073 -695.8280
ENERGY: 300000 4.6737 3.4461 4.0341 0.0000 -10792.0847 1490.9628 0.0000 0.0000 1781.2855 -7507.6825 303.2421 -9288.9680 -7474.8561 303.6988 373.0337 402.6575 30185.7968 -112.8836 -62.1046
ENERGY: 600000 3.0622 3.6132 0.7897 0.0000 -10760.6771 1465.7061 0.0000 0.0000 1780.3010 -7507.2049 303.0745 -9287.5058 -7505.1464 302.1309 119.2286 168.1560 30419.5041 -42.1522 17.8008
ENERGY: 900000 2.2173 2.2828 2.1469 0.0000 -10800.8309 1482.7526 0.0000 0.0000 1784.5533 -7526.8779 303.7984 -9311.4313 -7492.6853 303.1440 165.9440 187.4513 30347.5143 -6.0009 50.3499
ENERGY: 1200000 3.2811 1.6833 2.5362 0.0000 -10734.8166 1486.6316 0.0000 0.0000 1738.5863 -7502.0980 295.9731 -9240.6843 -7486.0465 302.9070 446.5035 459.9365 30192.2852 50.7408 108.8147
ENERGY: 1500000 4.2559 3.4954 3.1248 0.0000 -10706.5153 1492.7825 0.0000 0.0000 1752.1105 -7450.7461 298.2754 -9202.8567 -7480.7764 301.9276 309.0239 365.1822 30360.4419 58.6439 118.6490
TCL: Running FEP window   7: Lambda1 0.3    Lambda2 0.35   [dLambda 0.04999999999999999]
TCL: Setting parameter firsttimestep to 0
TCL: Setting parameter alchLambda to 0.3
Info: NONBONDED TABLE R-SQUARED SPACING: 0.0625
Info: NONBONDED TABLE SIZE: 705 POINTS
TCL: Setting parameter alchLambda2 to 0.35
Info: NONBONDED TABLE R-SQUARED SPACING: 0.0625
Info: NONBONDED TABLE SIZE: 705 POINTS
TCL: Running for 1500000 steps
ETITLE: TS BOND ANGLE DIHED IMPRP ELECT VDW BOUNDARY MISC KINETIC TOTAL TEMP POTENTIAL TOTALAVG TEMPAVG PRESSURE GPRESSURE VOLUME PRESSAVG GPRESSAVG
ENERGY: 0 4.2559 3.4954 3.1248 0.0000 -10706.5156 1492.8233 0.0000 0.0000 1751.1822 -7451.6339 298.1174 -9202.8162 -7451.6339 298.1174 285.5374 370.8912 30360.4419 285.5374 370.8912
ENERGY: 300000 1.5802 3.7407 2.8130 0.0000 -10659.2010 1403.9965 0.0000 0.0000 1680.1591 -7566.9114 286.0266 -9247.0705 -7519.9336 293.6254 -783.0425 -741.7612 30989.7338 -268.8429 -219.4972
ENERGY: 600000 1.7136 0.9621 3.1197 0.0000 -10712.9912 1422.7945 0.0000 0.0000 1709.3318 -7575.0694 290.9929 -9284.4013 -7513.8350 293.3633 -170.3862 -128.4497 30334.4140 -76.1101 -28.9745
ENERGY: 900000 3.0231 3.0287 3.4836 0.0000 -10670.2645 1401.5685 0.0000 0.0000 1693.4136 -7565.7470 288.2830 -9259.1606 -7510.7785 295.4037 -557.9072 -508.9100 30529.5984 -82.4001 -30.4992
ENERGY: 1200000 5.1045 2.4547 3.6581 0.0000 -10780.2274 1504.5510 0.0000 0.0000 1776.4523 -7488.0068 302.4193 -9264.4591 -7514.2795 296.4968 486.9042 574.2143 29810.0833 -63.7607 -7.5095
ENERGY: 1500000 2.4128 2.7571 0.8949 0.0000 -10782.9885 1408.1197 0.0000 0.0000 1754.8975 -7613.9066 298.7499 -9368.8040 -7507.0432 298.0066 -437.2807 -352.9397 29826.3038 -57.5246 7.7272
TCL: Running FEP window   8: Lambda1 0.35   Lambda2 0.39999999999999997 [dLambda 0.04999999999999999]
TCL: Setting parameter firsttimestep to 0
TCL: Setting parameter alchLambda to 0.35
Info: NONBONDED TABLE R-SQUARED SPACING: 0.0625
Info: NONBONDED TABLE SIZE: 705 POINTS
TCL: Setting parameter alchLambda2 to 0.39999999999999997
Info: NONBONDED TABLE R-SQUARED SPACING: 0.0625
Info: NONBONDED TABLE SIZE: 705 POINTS
TCL: Running for 1500000 steps
ETITLE: TS BOND ANGLE DIHED IMPRP ELECT VDW BOUNDARY MISC KINETIC TOTAL TEMP POTENTIAL TOTALAVG TEMPAVG PRESSURE GPRESSURE VOLUME PRESSAVG GPRESSAVG
ENERGY: 0 2.4128 2.7571 0.8949 0.0000 -10782.9885 1408.7831 0.0000 0.0000 1754.0436 -7614.0970 298.6045 -9368.1406 -7614.0970 298.6045 -424.6713 -345.4380 29826.3038 -424.6713 -345.4380
ENERGY: 300000 3.9670 2.4011 2.5258 0.0000 -10654.4109 1449.6535 0.0000 0.0000 1785.1300 -7410.7335 303.8966 -9195.8635 -7480.0732 303.3003 396.9657 447.0297 29922.5538 -22.1898 54.8294
ENERGY: 600000 1.5559 3.6375 2.3087 0.0000 -10761.2099 1457.2039 0.0000 0.0000 1810.4588 -7486.0451 308.2085 -9296.5040 -7472.5289 303.1182 -161.0115 -87.9739 30547.1589 -6.2556 66.3625
ENERGY: 900000 1.9637 2.2042 1.0219 0.0000 -10714.7888 1446.2416 0.0000 0.0000 1717.8755 -7545.4819 292.4473 -9263.3573 -7493.4864 301.1807 30.5076 76.5654 29981.7603 -45.4986 20.8284
ENERGY: 1200000 2.9950 4.9999 3.2351 0.0000 -10774.8642 1529.3312 0.0000 0.0000 1729.0138 -7505.2892 294.3435 -9234.3030 -7494.0252 300.7298 659.0566 690.6177 30416.6770 -100.9854 -33.9697
ENERGY: 1500000 2.9398 4.3123 2.0911 0.0000 -10785.0587 1492.9793 0.0000 0.0000 1772.5163 -7510.2198 301.7493 -9282.7361 -7487.9167 301.3128 426.0460 490.2303 30305.3256 -95.4128 -31.1918
TCL: Running FEP window   9: Lambda1 0.39999999999999997 Lambda2 0.44999999999999996 [dLambda 0.04999999999999999]
TCL: Setting parameter firsttimestep to 0
TCL: Setting parameter alchLambda to 0.39999999999999997
Info: NONBONDED TABLE R-SQUARED SPACING: 0.0625
Info: NONBONDED TABLE SIZE: 705 POINTS
TCL: Setting parameter alchLambda2 to 0.44999999999999996
Info: NONBONDED TABLE R-SQUARED SPACING: 0.0625
Info: NONBONDED TABLE SIZE: 705 POINTS
TCL: Running for 1500000 steps
ETITLE: TS BOND ANGLE DIHED IMPRP ELECT VDW BOUNDARY MISC KINETIC TOTAL TEMP POTENTIAL TOTALAVG TEMPAVG PRESSURE GPRESSURE VOLUME PRESSAVG GPRESSAVG
ENERGY: 0 2.9398 4.3123 2.0911 0.0000 -10785.0589 1493.3636 0.0000 0.0000 1771.6097 -7510.7423 301.5949 -9282.3520 -7510.7423 301.5949 419.9178 498.6225 30305.3256 419.9178 498.6225
ENERGY: 300000 2.7854 1.4558 0.8962 0.0000 -10815.0813 1551.7777 0.0000 0.0000 1846.2060 -7411.9603 314.2940 -9258.1662 -7480.6354 305.5648 845.6605 898.7972 30063.0653 379.2320 434.8164
ENERGY: 600000 2.9183 1.5983 1.7230 0.0000 -10710.6509 1370.4922 0.0000 0.0000 1778.3456 -7555.5734 302.7416 -9333.9190 -7473.1577 304.3055 -1062.7513 -1108.5131 30897.8312 129.9175 184.6579
ENERGY: 900000 1.4406 3.7785 1.6263 0.0000 -10724.5648 1399.0815 0.0000 0.0000 1792.8273 -7525.8105 305.2070 -9318.6379 -7476.2213 303.5202 -714.1342 -643.2418 30686.8364 -70.5106 -9.0336
ENERGY: 1200000 8.8746 3.2331 0.4330 0.0000 -10706.3694 1513.1902 0.0000 0.0000 1783.8946 -7396.7439 303.6863 -9180.6385 -7473.1306 303.0224 455.0878 509.3359 30721.9815 -85.0514 -27.0656
ENERGY: 1500000 2.1808 6.1276 1.3508 0.0000 -10881.7539 1516.6517 0.0000 0.0000 1761.1417 -7594.3013 299.8129 -9355.4430 -7478.2716 302.7876 53.7472 110.8167 30649.3122 -71.7785 -12.5735
TCL: Running FEP window  10: Lambda1 0.44999999999999996 Lambda2 0.49999999999999994 [dLambda 0.04999999999999999]
TCL: Setting parameter firsttimestep to 0
TCL: Setting parameter alchLambda to 0.44999999999999996
Info: NONBONDED TABLE R-SQUARED SPACING: 0.0625
Info: NONBONDED TABLE SIZE: 705 POINTS
TCL: Setting parameter alchLambda2 to 0.49999999999999994
Info: NONBONDED TABLE R-SQUARED SPACING: 0.0625
Info: NONBONDED TABLE SIZE: 705 POINTS
TCL: Running for 1500000 steps
ETITLE: TS BOND ANGLE DIHED IMPRP ELECT VDW BOUNDARY MISC KINETIC TOTAL TEMP POTENTIAL TOTALAVG TEMPAVG PRESSURE GPRESSURE VOLUME PRESSAVG GPRESSAVG
ENERGY: 0 2.1808 6.1276 1.3508 0.0000 -10881.7537 1516.3597 0.0000 0.0000 1760.2689 -7595.4659 299.6643 -9355.7348 -7595.4659 299.6643 34.7269 111.0739 30649.3122 34.7269 111.0739
ENERGY: 300000 3.1252 3.2328 3.7852 0.0000 -10601.1937 1340.9149 0.0000 0.0000 1783.3427 -7466.7929 303.5923 -9250.1356 -7459.4076 304.0881 -927.0727 -880.8396 30594.7986 -188.4597 -139.6340
ENERGY: 600000 4.6990 1.7372 2.4683 0.0000 -10569.4650 1333.3434 0.0000 0.0000 1769.0939 -7458.1231 301.1666 -9227.2171 -7469.1535 301.7640 -824.1983 -857.6054 30617.4265 -324.8658 -288.0722
ENERGY: 900000 3.9517 2.4590 4.0535 0.0000 -10657.7555 1425.4640 0.0000 0.0000 1735.4885 -7486.3387 295.4457 -9221.8272 -7474.3810 301.0609 -198.9635 -147.9397 30661.8262 -236.2922 -197.1439
ENERGY: 1200000 1.7883 3.2524 1.7464 0.0000 -10760.4219 1478.3665 0.0000 0.0000 1765.3706 -7509.8978 300.5328 -9275.2684 -7486.9555 300.9868 87.0761 148.6959 30604.4048 -197.8825 -147.2242
ENERGY: 1500000 2.9374 2.1029 1.9025 0.0000 -10640.5509 1424.9283 0.0000 0.0000 1726.0360 -7482.6437 293.8365 -9208.6797 -7482.2929 300.7072 -187.4022 -110.0615 30586.6295 -105.5604 -46.8034
TCL: Running FEP window  11: Lambda1 0.49999999999999994 Lambda2 0.5499999999999999 [dLambda 0.04999999999999999]
TCL: Setting parameter firsttimestep to 0
TCL: Setting parameter alchLambda to 0.49999999999999994
Info: NONBONDED TABLE R-SQUARED SPACING: 0.0625
Info: NONBONDED TABLE SIZE: 705 POINTS
TCL: Setting parameter alchLambda2 to 0.5499999999999999
Info: NONBONDED TABLE R-SQUARED SPACING: 0.0625
Info: NONBONDED TABLE SIZE: 705 POINTS
TCL: Running for 1500000 steps
ETITLE: TS BOND ANGLE DIHED IMPRP ELECT VDW BOUNDARY MISC KINETIC TOTAL TEMP POTENTIAL TOTALAVG TEMPAVG PRESSURE GPRESSURE VOLUME PRESSAVG GPRESSAVG
ENERGY: 0 2.9374 2.1029 1.9025 0.0000 -10640.5506 1424.7960 0.0000 0.0000 1725.1585 -7483.6533 293.6872 -9208.8118 -7483.6533 293.6872 -172.7547 -106.4924 30586.6295 -172.7547 -106.4924
ENERGY: 300000 1.6345 3.9400 3.6448 0.0000 -10846.1993 1549.7334 0.0000 0.0000 1777.2481 -7509.9985 302.5548 -9287.2467 -7489.9891 299.6828 699.2240 818.5608 30099.2406 -166.4520 -93.6238
ENERGY: 600000 5.4984 1.8324 5.3417 0.0000 -10565.1278 1311.6023 0.0000 0.0000 1746.0870 -7494.7659 297.2500 -9240.8530 -7491.6870 297.5961 -1172.5147 -1078.5348 30453.7777 -176.9661 -101.6107
ENERGY: 900000 4.0245 3.0512 2.0085 0.0000 -10700.3702 1428.7129 0.0000 0.0000 1739.2193 -7523.3538 296.0808 -9262.5731 -7497.6268 298.2736 -28.6382 45.9988 30429.2195 -132.6729 -62.1872
ENERGY: 1200000 2.6294 3.2220 2.2345 0.0000 -10587.5112 1355.0611 0.0000 0.0000 1794.4621 -7429.9022 305.4852 -9224.3643 -7491.4455 299.1176 -590.1048 -539.0948 30362.7799 -122.7376 -56.2306
ENERGY: 1500000 4.4958 4.1229 4.7107 0.0000 -10732.1161 1459.1651 0.0000 0.0000 1718.2384 -7541.3830 292.5091 -9259.6215 -7495.9463 299.0752 -82.9974 12.9567 30329.8014 -148.3057 -79.8524
TCL: Running FEP window  12: Lambda1 0.5499999999999999 Lambda2 0.6    [dLambda 0.050000000000000044]
TCL: Setting parameter firsttimestep to 0
TCL: Setting parameter alchLambda to 0.5499999999999999
Info: NONBONDED TABLE R-SQUARED SPACING: 0.0625
Info: NONBONDED TABLE SIZE: 705 POINTS
TCL: Setting parameter alchLambda2 to 0.6
Info: NONBONDED TABLE R-SQUARED SPACING: 0.0625
Info: NONBONDED TABLE SIZE: 705 POINTS
TCL: Running for 1500000 steps
ETITLE: TS BOND ANGLE DIHED IMPRP ELECT VDW BOUNDARY MISC KINETIC TOTAL TEMP POTENTIAL TOTALAVG TEMPAVG PRESSURE GPRESSURE VOLUME PRESSAVG GPRESSAVG
ENERGY: 0 4.4958 4.1229 4.7107 0.0000 -10732.0597 1459.0238 0.0000 0.0000 1717.3572 -7542.3492 292.3591 -9259.7064 -7542.3492 292.3591 -42.1621 20.7477 30329.8014 -42.1621 20.7477
ENERGY: 300000 1.6616 2.9296 3.2320 0.0000 -10651.5480 1401.2556 0.0000 0.0000 1803.3011 -7439.1681 306.9900 -9242.4692 -7515.4398 298.4126 -46.7071 -19.6505 30291.1980 -352.8662 -268.4489
ENERGY: 600000 3.3431 3.5770 3.5463 0.0000 -10899.0154 1530.3259 0.0000 0.0000 1708.9260 -7649.2971 290.9238 -9358.2231 -7528.1664 297.7607 618.1868 585.9061 29947.3621 -252.0966 -195.6094
ENERGY: 900000 4.7739 4.5405 1.9790 0.0000 -10672.1256 1413.0513 0.0000 0.0000 1763.6082 -7484.1727 300.2327 -9247.7809 -7521.7242 298.9395 -530.4499 -475.1971 30709.9654 -283.9433 -222.7307
ENERGY: 1200000 2.7135 1.3472 1.2337 0.0000 -10632.4984 1452.3615 0.0000 0.0000 1754.5244 -7420.3181 298.6863 -9174.8425 -7508.4004 299.0422 355.3558 377.4977 30526.7735 -186.7758 -120.9413
ENERGY: 1500000 2.5412 2.4269 2.4216 0.0000 -10625.9757 1375.0106 0.0000 0.0000 1807.8393 -7435.7361 307.7626 -9243.5754 -7500.9653 299.3572 -444.4786 -372.7072 30240.9908 -128.6916 -61.2608
TCL: Running FEP window  13: Lambda1 0.6    Lambda2 0.65   [dLambda 0.050000000000000044]
TCL: Setting parameter firsttimestep to 0
TCL: Setting parameter alchLambda to 0.6
Info: NONBONDED TABLE R-SQUARED SPACING: 0.0625
Info: NONBONDED TABLE SIZE: 705 POINTS
TCL: Setting parameter alchLambda2 to 0.65
Info: NONBONDED TABLE R-SQUARED SPACING: 0.0625
Info: NONBONDED TABLE SIZE: 705 POINTS
TCL: Running for 1500000 steps
ETITLE: TS BOND ANGLE DIHED IMPRP ELECT VDW BOUNDARY MISC KINETIC TOTAL TEMP POTENTIAL TOTALAVG TEMPAVG PRESSURE GPRESSURE VOLUME PRESSAVG GPRESSAVG
ENERGY: 0 2.5412 2.4269 2.4216 0.0000 -10626.0205 1375.0612 0.0000 0.0000 1806.9617 -7436.6079 307.6132 -9243.5696 -7436.6079 307.6132 -454.0534 -364.2277 30240.9908 -454.0534 -364.2277
ENERGY: 300000 3.5364 3.9352 2.9258 0.0000 -10696.8086 1440.5087 0.0000 0.0000 1779.3701 -7466.5324 302.9160 -9245.9024 -7462.7744 305.5560 -142.4686 -109.6931 30922.6872 -26.0795 28.1547
ENERGY: 600000 3.0125 4.2482 4.5128 0.0000 -10685.0005 1403.1993 0.0000 0.0000 1797.1469 -7472.8809 305.9423 -9270.0278 -7464.3916 305.8785 -244.8725 -202.2981 30240.9845 70.0471 137.3306
ENERGY: 900000 1.9526 2.1628 0.7753 0.0000 -10777.9728 1484.6625 0.0000 0.0000 1725.1725 -7563.2471 293.6895 -9288.4196 -7486.5149 303.1207 668.4253 720.6447 29680.4897 147.0384 206.7361
ENERGY: 1200000 3.1868 3.2146 1.1996 0.0000 -10856.0796 1535.9366 0.0000 0.0000 1752.3193 -7560.2225 298.3110 -9312.5419 -7488.3237 302.2315 675.4401 777.4778 29874.8649 159.2467 221.7644
ENERGY: 1500000 1.1530 2.6369 1.6464 0.0000 -10551.3261 1362.1293 0.0000 0.0000 1756.6646 -7427.0958 299.0507 -9183.7605 -7487.2486 301.1775 -660.9155 -584.8542 31039.6843 106.6880 168.1019
TCL: Running FEP window  14: Lambda1 0.65   Lambda2 0.7000000000000001 [dLambda 0.050000000000000044]
TCL: Setting parameter firsttimestep to 0
TCL: Setting parameter alchLambda to 0.65
Info: NONBONDED TABLE R-SQUARED SPACING: 0.0625
Info: NONBONDED TABLE SIZE: 705 POINTS
TCL: Setting parameter alchLambda2 to 0.7000000000000001
Info: NONBONDED TABLE R-SQUARED SPACING: 0.0625
Info: NONBONDED TABLE SIZE: 705 POINTS
TCL: Running for 1500000 steps
ETITLE: TS BOND ANGLE DIHED IMPRP ELECT VDW BOUNDARY MISC KINETIC TOTAL TEMP POTENTIAL TOTALAVG TEMPAVG PRESSURE GPRESSURE VOLUME PRESSAVG GPRESSAVG
ENERGY: 0 1.1530 2.6369 1.6464 0.0000 -10551.3922 1361.7411 0.0000 0.0000 1755.7923 -7428.4224 298.9022 -9184.2148 -7428.4224 298.9022 -658.5650 -579.7405 31039.6843 -658.5650 -579.7405
ENERGY: 300000 2.6621 0.8013 2.3779 0.0000 -10800.1370 1421.7271 0.0000 0.0000 1741.5145 -7631.0539 296.4716 -9372.5685 -7499.9299 301.2483 -602.8775 -566.2063 30427.6908 -265.8033 -219.2320
ENERGY: 600000 1.6832 1.5067 0.8684 0.0000 -10608.5514 1386.1397 0.0000 0.0000 1790.2144 -7428.1389 304.7621 -9218.3533 -7504.7544 298.8262 -237.6158 -136.1149 30350.2084 -191.7713 -131.6016
ENERGY: 900000 0.5528 1.7065 1.6160 0.0000 -10723.5720 1402.8155 0.0000 0.0000 1716.7121 -7600.1692 292.2493 -9316.8813 -7516.2173 298.3385 -538.5123 -455.3319 30521.3795 -307.3944 -239.5374
ENERGY: 1200000 1.4444 3.2446 1.6866 0.0000 -10660.1723 1426.4134 0.0000 0.0000 1747.8936 -7479.4898 297.5575 -9227.3833 -7510.5424 297.9315 -155.5224 -57.8505 30533.1763 -315.0113 -246.3394
ENERGY: 1500000 0.9186 3.1322 3.6244 0.0000 -10672.0363 1420.3670 0.0000 0.0000 1713.8153 -7530.1788 291.7561 -9243.9941 -7501.6116 298.5105 -134.4411 -132.8101 30584.8490 -257.7589 -194.1519
TCL: Running FEP window  15: Lambda1 0.7000000000000001 Lambda2 0.7500000000000001 [dLambda 0.050000000000000044]
TCL: Setting parameter firsttimestep to 0
TCL: Setting parameter alchLambda to 0.7000000000000001
Info: NONBONDED TABLE R-SQUARED SPACING: 0.0625
Info: NONBONDED TABLE SIZE: 705 POINTS
TCL: Setting parameter alchLambda2 to 0.7500000000000001
Info: NONBONDED TABLE R-SQUARED SPACING: 0.0625
Info: NONBONDED TABLE SIZE: 705 POINTS
TCL: Running for 1500000 steps
ETITLE: TS BOND ANGLE DIHED IMPRP ELECT VDW BOUNDARY MISC KINETIC TOTAL TEMP POTENTIAL TOTALAVG TEMPAVG PRESSURE GPRESSURE VOLUME PRESSAVG GPRESSAVG
ENERGY: 0 0.9186 3.1322 3.6244 0.0000 -10672.2533 1420.2345 0.0000 0.0000 1712.9385 -7531.4051 291.6069 -9244.3436 -7531.4051 291.6069 -206.9988 -128.2889 30584.8490 -206.9988 -128.2889
ENERGY: 300000 1.3347 2.5973 4.6527 0.0000 -10633.9359 1373.3082 0.0000 0.0000 1774.1642 -7477.8788 302.0298 -9252.0430 -7503.2831 297.6434 -365.2940 -297.7687 30131.2995 -232.3341 -179.2433
ENERGY: 600000 5.2494 2.5459 3.7486 0.0000 -10569.3124 1348.1198 0.0000 0.0000 1815.2450 -7394.4037 309.0233 -9209.6486 -7481.0971 298.7366 -769.7997 -731.4613 30410.5889 -244.5004 -180.6350
ENERGY: 900000 3.2907 1.7697 1.8549 0.0000 -10570.3323 1325.8431 0.0000 0.0000 1815.8753 -7421.6985 309.1306 -9237.5738 -7475.2191 299.9249 -775.3754 -692.7657 30541.5556 -363.0311 -299.3970
ENERGY: 1200000 3.5565 1.9993 2.4911 0.0000 -10727.4684 1447.1755 0.0000 0.0000 1809.2224 -7463.0236 307.9980 -9272.2460 -7473.7379 301.7341 178.3278 260.0122 30383.3339 -300.7092 -233.4672
ENERGY: 1500000 2.6035 3.9114 4.7538 0.0000 -10760.3436 1546.4146 0.0000 0.0000 1799.0969 -7403.5635 306.2743 -9202.6604 -7473.8453 301.5092 1036.8659 1065.6342 30273.6700 -189.0794 -123.7719
TCL: Running FEP window  16: Lambda1 0.7500000000000001 Lambda2 0.8000000000000002 [dLambda 0.050000000000000044]
TCL: Setting parameter firsttimestep to 0
TCL: Setting parameter alchLambda to 0.7500000000000001
Info: NONBONDED TABLE R-SQUARED SPACING: 0.0625
Info: NONBONDED TABLE SIZE: 705 POINTS
TCL: Setting parameter alchLambda2 to 0.8000000000000002
Info: NONBONDED TABLE R-SQUARED SPACING: 0.0625
Info: NONBONDED TABLE SIZE: 705 POINTS
TCL: Running for 1500000 steps
ETITLE: TS BOND ANGLE DIHED IMPRP ELECT VDW BOUNDARY MISC KINETIC TOTAL TEMP POTENTIAL TOTALAVG TEMPAVG PRESSURE GPRESSURE VOLUME PRESSAVG GPRESSAVG
ENERGY: 0 2.6035 3.9114 4.7538 0.0000 -10760.6333 1545.9595 0.0000 0.0000 1798.2332 -7405.1719 306.1272 -9203.4051 -7405.1719 306.1272 991.6694 1070.7853 30273.6700 991.6694 1070.7853
ENERGY: 300000 3.8209 1.7808 1.6269 0.0000 -10583.7271 1367.0341 0.0000 0.0000 1759.0437 -7450.4207 299.4557 -9209.4644 -7478.8758 300.7259 -708.3001 -573.1999 30645.7053 -182.9749 -84.6965
ENERGY: 600000 3.2719 1.2642 4.3742 0.0000 -10643.3221 1354.3959 0.0000 0.0000 1753.0155 -7527.0004 298.4295 -9280.0159 -7475.0791 300.7838 -577.5160 -580.1758 30236.5660 -85.6938 -15.2748
ENERGY: 900000 2.9369 3.0446 2.3458 0.0000 -10731.2093 1478.6232 0.0000 0.0000 1765.0928 -7479.1660 300.4855 -9244.2589 -7482.3730 300.5316 165.9699 249.4859 30648.4547 -39.0884 29.3728
ENERGY: 1200000 5.6554 2.4711 2.6373 0.0000 -10570.9125 1368.1727 0.0000 0.0000 1742.7983 -7449.1777 296.6901 -9191.9760 -7479.5135 300.4455 -549.2632 -498.2791 31089.7604 -15.4045 50.4057
ENERGY: 1500000 3.6419 2.8360 7.9145 0.0000 -10555.3244 1362.2519 0.0000 0.0000 1752.7403 -7425.9398 298.3826 -9178.6801 -7475.2663 300.5811 -565.4481 -516.6046 30952.8952 -59.8403 3.9571
TCL: Running FEP window  17: Lambda1 0.8000000000000002 Lambda2 0.8500000000000002 [dLambda 0.050000000000000044]
TCL: Setting parameter firsttimestep to 0
TCL: Setting parameter alchLambda to 0.8000000000000002
Info: NONBONDED TABLE R-SQUARED SPACING: 0.0625
Info: NONBONDED TABLE SIZE: 705 POINTS
TCL: Setting parameter alchLambda2 to 0.8500000000000002
Info: NONBONDED TABLE R-SQUARED SPACING: 0.0625
Info: NONBONDED TABLE SIZE: 705 POINTS
TCL: Running for 1500000 steps
ETITLE: TS BOND ANGLE DIHED IMPRP ELECT VDW BOUNDARY MISC KINETIC TOTAL TEMP POTENTIAL TOTALAVG TEMPAVG PRESSURE GPRESSURE VOLUME PRESSAVG GPRESSAVG
ENERGY: 0 3.6419 2.8360 7.9145 0.0000 -10555.9921 1363.3207 0.0000 0.0000 1751.8382 -7426.4408 298.2290 -9178.2790 -7426.4408 298.2290 -577.1808 -499.0027 30952.8952 -577.1808 -499.0027
ENERGY: 300000 2.1598 5.1479 1.1766 0.0000 -10726.0087 1422.0906 0.0000 0.0000 1725.1188 -7570.3149 293.6804 -9295.4337 -7511.0640 296.7011 -273.2982 -174.3921 30072.3439 -119.8680 -48.9951
ENERGY: 600000 3.7946 2.7542 2.3332 0.0000 -10689.8469 1354.6891 0.0000 0.0000 1748.8954 -7577.3805 297.7281 -9326.2759 -7533.2324 296.4428 -926.9923 -918.1886 30637.8968 -358.7583 -293.1649
ENERGY: 900000 3.0083 3.2396 3.4516 0.0000 -10605.1954 1415.9719 0.0000 0.0000 1732.4887 -7447.0352 294.9350 -9179.5240 -7521.3233 296.4738 71.0832 186.6715 30503.0841 -212.3027 -142.2321
ENERGY: 1200000 0.9358 1.3238 2.4843 0.0000 -10689.6235 1411.9844 0.0000 0.0000 1737.3153 -7535.5799 295.7567 -9272.8952 -7525.2067 296.9364 -229.2224 -130.3130 30236.6922 -108.1302 -34.7995
ENERGY: 1500000 2.6827 1.0055 4.4372 0.0000 -10579.0823 1333.0422 0.0000 0.0000 1762.1933 -7475.7214 299.9919 -9237.9146 -7517.8190 297.8773 -1151.2285 -1072.0481 30964.0542 -209.6545 -137.5849
TCL: Running FEP window  18: Lambda1 0.8500000000000002 Lambda2 0.9000000000000002 [dLambda 0.050000000000000044]
TCL: Setting parameter firsttimestep to 0
TCL: Setting parameter alchLambda to 0.8500000000000002
Info: NONBONDED TABLE R-SQUARED SPACING: 0.0625
Info: NONBONDED TABLE SIZE: 705 POINTS
TCL: Setting parameter alchLambda2 to 0.9000000000000002
Info: NONBONDED TABLE R-SQUARED SPACING: 0.0625
Info: NONBONDED TABLE SIZE: 705 POINTS
TCL: Running for 1500000 steps
ETITLE: TS BOND ANGLE DIHED IMPRP ELECT VDW BOUNDARY MISC KINETIC TOTAL TEMP POTENTIAL TOTALAVG TEMPAVG PRESSURE GPRESSURE VOLUME PRESSAVG GPRESSAVG
ENERGY: 0 2.6827 1.0055 4.4372 0.0000 -10579.5048 1332.6208 0.0000 0.0000 1761.2976 -7477.4609 299.8394 -9238.7585 -7477.4609 299.8394 -1145.6435 -1068.1181 30964.0542 -1145.6435 -1068.1181
ENERGY: 300000 2.1571 3.0134 2.9573 0.0000 -10753.6729 1472.5118 0.0000 0.0000 1799.6940 -7473.3394 306.3759 -9273.0333 -7525.0182 300.0414 427.3725 495.3080 30036.8807 -76.4184 -17.2954
ENERGY: 600000 2.2497 2.7116 2.5740 0.0000 -10681.7513 1452.3192 0.0000 0.0000 1727.0937 -7494.8031 294.0166 -9221.8968 -7515.4225 299.0128 406.0051 479.6572 30216.7330 -131.0907 -70.5140
ENERGY: 900000 3.8511 2.3716 2.0132 0.0000 -10746.3778 1470.9413 0.0000 0.0000 1737.9719 -7529.2287 295.8685 -9267.2006 -7499.7468 299.4324 229.5863 322.4023 30234.3334 -130.9637 -61.6009
ENERGY: 1200000 2.8676 2.6958 6.2178 0.0000 -10781.2988 1498.7361 0.0000 0.0000 1779.7320 -7491.0496 302.9776 -9270.7816 -7493.2982 299.7344 488.9604 587.2440 30065.7277 -117.3268 -48.5814
ENERGY: 1500000 3.2487 2.8834 1.9589 0.0000 -10580.9359 1394.6890 0.0000 0.0000 1748.1502 -7430.0057 297.6012 -9178.1559 -7492.2135 299.6133 -579.7418 -478.6677 31173.5148 -157.2269 -89.0777
TCL: Running FEP window  19: Lambda1 0.9000000000000002 Lambda2 0.9500000000000003 [dLambda 0.050000000000000044]
TCL: Setting parameter firsttimestep to 0
TCL: Setting parameter alchLambda to 0.9000000000000002
Info: NONBONDED TABLE R-SQUARED SPACING: 0.0625
Info: NONBONDED TABLE SIZE: 705 POINTS
TCL: Setting parameter alchLambda2 to 0.9500000000000003
Info: NONBONDED TABLE R-SQUARED SPACING: 0.0625
Info: NONBONDED TABLE SIZE: 705 POINTS
TCL: Running for 1500000 steps
ETITLE: TS BOND ANGLE DIHED IMPRP ELECT VDW BOUNDARY MISC KINETIC TOTAL TEMP POTENTIAL TOTALAVG TEMPAVG PRESSURE GPRESSURE VOLUME PRESSAVG GPRESSAVG
ENERGY: 0 3.2487 2.8834 1.9589 0.0000 -10581.2215 1394.8477 0.0000 0.0000 1747.2885 -7430.9942 297.4545 -9178.2827 -7430.9942 297.4545 -552.9047 -466.4365 31173.5148 -552.9047 -466.4365
ENERGY: 300000 3.7624 2.5402 1.7320 0.0000 -10775.7306 1477.4298 0.0000 0.0000 1752.8069 -7537.4592 298.3940 -9290.2661 -7489.8694 298.7889 259.2416 364.3348 30046.5648 408.6298 475.8620
ENERGY: 600000 4.4395 2.0847 1.5159 0.0000 -10633.6463 1376.2631 0.0000 0.0000 1755.6055 -7493.7376 298.8704 -9249.3432 -7478.6465 299.8972 -630.4651 -541.7210 30596.7046 133.9615 196.7690
ENERGY: 900000 0.6343 3.8717 1.2763 0.0000 -10641.4790 1427.1155 0.0000 0.0000 1741.6771 -7466.9040 296.4992 -9208.5811 -7477.8442 299.5324 271.4407 297.5703 30219.5779 270.7477 337.7174
ENERGY: 1200000 1.9503 2.6854 3.1081 0.0000 -10763.2688 1490.1922 0.0000 0.0000 1806.7750 -7458.5578 307.5814 -9265.3328 -7483.8444 299.6297 514.6641 543.4555 30041.5855 153.3797 211.7279
ENERGY: 1500000 2.1452 3.7423 2.9177 0.0000 -10789.6541 1471.7076 0.0000 0.0000 1797.0586 -7512.0827 305.9273 -9309.1412 -7482.6649 299.8520 150.3258 250.2928 30368.0104 18.1287 88.3982
TCL: Running FEP window  20: Lambda1 0.9500000000000003 Lambda2 1.0    [dLambda 0.04999999999999971]
TCL: Setting parameter firsttimestep to 0
TCL: Setting parameter alchLambda to 0.9500000000000003
Info: NONBONDED TABLE R-SQUARED SPACING: 0.0625
Info: NONBONDED TABLE SIZE: 705 POINTS
TCL: Setting parameter alchLambda2 to 1.0
Info: NONBONDED TABLE R-SQUARED SPACING: 0.0625
Info: NONBONDED TABLE SIZE: 705 POINTS
TCL: Running for 1500000 steps
ETITLE: TS BOND ANGLE DIHED IMPRP ELECT VDW BOUNDARY MISC KINETIC TOTAL TEMP POTENTIAL TOTALAVG TEMPAVG PRESSURE GPRESSURE VOLUME PRESSAVG GPRESSAVG
ENERGY: 0 2.1452 3.7423 2.9177 0.0000 -10789.8727 1472.1704 0.0000 0.0000 1796.1678 -7512.7293 305.7756 -9308.8970 -7512.7293 305.7756 178.2727 265.2235 30368.0104 178.2727 265.2235
ENERGY: 300000 2.8935 1.9781 2.9868 0.0000 -10731.7304 1391.9799 0.0000 0.0000 1791.1607 -7540.7313 304.9232 -9331.8921 -7482.7549 305.7912 -501.9144 -421.3317 30607.5464 -143.3075 -67.0566
ENERGY: 600000 1.5489 4.4340 1.1215 0.0000 -10746.6631 1499.1655 0.0000 0.0000 1739.9958 -7500.3973 296.2130 -9240.3931 -7484.0154 303.2453 271.4287 317.7259 30699.6488 -59.4784 9.3389
ENERGY: 900000 3.8256 2.7381 1.5715 0.0000 -10710.2021 1436.8367 0.0000 0.0000 1763.5076 -7501.7226 300.2156 -9265.2302 -7475.1948 302.9034 41.6958 85.8842 30819.5011 -20.4596 41.9415
ENERGY: 1200000 2.5772 1.6084 1.2287 0.0000 -10861.8128 1462.6884 0.0000 0.0000 1733.4120 -7660.2980 295.0922 -9393.7100 -7491.4905 301.8450 -112.2574 -54.5456 29982.5105 -72.2943 -20.5171
ENERGY: 1500000 4.3399 1.4871 3.1680 0.0000 -10710.8765 1443.9509 0.0000 0.0000 1801.5769 -7456.3537 306.6965 -9257.9305 -7489.1725 301.5084 148.4767 176.6958 30256.0741 -95.4719 -44.8357
TCL: Exiting due to exit command.
