Info: SIMULATION PARAMETERS:
Info: TIMESTEP               2
Info: NUMBER OF STEPS        0
Info: STEPS PER CYCLE        10
Info: PERIODIC CELL BASIS 1  32.5231 0 0
Info: PERIODIC CELL BASIS 2  0 30.4504 0
Info: PERIODIC CELL BASIS 3  0 0 31.0486
Info: PERIODIC CELL CENTER   0 0 0
Info: WRAPPING WATERS AROUND PERIODIC BOUNDARIES ON OUTPUT.
Info: WRAPPING ALL CLUSTERS AROUND PERIODIC BOUNDARIES ON OUTPUT.
Info: FIRST LDB TIMESTEP     50
Info: LAST LDB TIMESTEP     -1
Info: HOM BACKGROUND SCALING 1
Info: PME BACKGROUND SCALING 1
Info: MIN ATOMS PER PATCH    40
Info: EMPTY PATCH LOAD       40 ATOMS
Info: VELOCITY FILE          mobley_2198613_equil.vel
Info: CENTER OF MASS MOVING INITIALLY? NO
Info: DIELECTRIC             1
Info: EXCLUDE                SCALED ONE-FOUR
Info: 1-4 ELECTROSTATICS SCALED BY 0.833333
Info: MODIFIED 1-4 VDW PARAMETERS WILL BE USED
Info: DCD FILENAME           mobley_2198613_prod.dcd
Info: DCD FREQUENCY          100000
Info: DCD FIRST STEP         100000
Info: DCD FILE WILL CONTAIN UNIT CELL DATA
Info: XST FILENAME           mobley_2198613_prod.xst
Info: XST FREQUENCY          100000
Info: NO VELOCITY DCD OUTPUT
Info: NO FORCE DCD OUTPUT
Info: OUTPUT FILENAME        mobley_2198613_prod
Info: BINARY OUTPUT FILES WILL BE USED
Info: RESTART FILENAME       mobley_2198613_prod.restart
Info: RESTART FREQUENCY      100000
Info: BINARY RESTART FILES WILL BE USED
Info: CUTOFF                 9
Info: PAIRLIST DISTANCE      11
Info: PAIRLIST SHRINK RATE   0.01
Info: PAIRLIST GROW RATE     0.01
Info: PAIRLIST TRIGGER       0.3
Info: PAIRLISTS PER CYCLE    2
Info: PAIRLISTS ENABLED
Info: MARGIN                 2
Info: HYDROGEN GROUP CUTOFF  2.5
Info: PATCH DIMENSION        15.5
Info: ENERGY OUTPUT STEPS    100000
Info: ENERGY EVALUATION STEPS    100000
Info: OUTPUT ENERGY PRECISION 4
Info: CROSSTERM ENERGY INCLUDED IN DIHEDRAL
Info: TIMING OUTPUT STEPS    1000000
Info: PRESSURE OUTPUT STEPS  100000
Info: ALCHEMICAL FEP ON
Info: FEP CURRENT LAMBDA VALUE     1
Info: FEP COMPARISON LAMBDA VALUE  0.95
Info: FEP INTRA-ALCHEMICAL NON-BONDED INTERACTIONS WILL BE RETAINED
Info: FEP INTRA-ALCHEMICAL BONDED INTERACTIONS WILL BE RETAINED
Info: FEP VDW SHIFTING COEFFICIENT 5
Info: FEP ELEC. ACTIVE FOR ANNIHILATED PARTICLES BETWEEN LAMBDA = 0 AND LAMBDA = 0.5
Info: FEP ELEC. ACTIVE FOR EXNIHILATED PARTICLES BETWEEN LAMBDA = 0.5 AND LAMBDA = 1
Info: FEP VDW ACTIVE FOR ANNIHILATED PARTICLES BETWEEN LAMBDA = 0 AND LAMBDA = 1
Info: FEP VDW ACTIVE FOR EXNIHILATED PARTICLES BETWEEN LAMBDA = 0 AND LAMBDA = 1
Info: FEP BOND ACTIVE FOR ANNIHILATED PARTICLES BETWEEN LAMBDA = 1 AND LAMBDA = 1
Info: FEP BOND ACTIVE FOR EXNIHILATED PARTICLES BETWEEN LAMBDA = 0 AND LAMBDA = 0
Info: LANGEVIN DYNAMICS ACTIVE
Info: LANGEVIN TEMPERATURE   300
Info: LANGEVIN USING BBK INTEGRATOR
Info: LANGEVIN DAMPING COEFFICIENT IS 1 INVERSE PS
Info: LANGEVIN DYNAMICS APPLIED TO HYDROGENS
Info: LANGEVIN PISTON PRESSURE CONTROL ACTIVE
Info:        TARGET PRESSURE IS 1.01325 BAR
Info:     OSCILLATION PERIOD IS 50 FS
Info:             DECAY TIME IS 25 FS
Info:     PISTON TEMPERATURE IS 300 K
Info:       PRESSURE CONTROL IS GROUP-BASED
Info:    INITIAL STRAIN RATE IS -0.000427554 -0.000427554 -0.000427554
Info:       CELL FLUCTUATION IS ISOTROPIC
Info: PARTICLE MESH EWALD (PME) ACTIVE
Info: PME TOLERANCE               1e-06
Info: PME EWALD COEFFICIENT       0.348832
Info: PME INTERPOLATION ORDER     4
Info: PME GRID DIMENSIONS         36 32 32
Info: PME MAXIMUM GRID SPACING    1
Info: PME CALCULATION WILL BE PERFORMED ON GPU
Info: FULL ELECTROSTATIC EVALUATION FREQUENCY      2
Info: USING VERLET I (r-RESPA) MTS SCHEME.
Info: C1 SPLITTING OF LONG RANGE ELECTROSTATICS
Info: PLACING ATOMS IN PATCHES BY HYDROGEN GROUPS
Info: RIGID BONDS TO HYDROGEN : ALL
Info:         ERROR TOLERANCE : 1e-08
Info:          MAX ITERATIONS : 100
Info: RIGID WATER USING SETTLE ALGORITHM
Info: RANDOM NUMBER SEED     1743498205
Info: USE HYDROGEN BONDS?    NO
Info: Using AMBER format force field!
Info: AMBER PARM FILE        mobley_2198613.prmtop
Info: COORDINATE PDB         mobley_2198613.pdb
Info: Exclusions will be read from PARM file!
Info: SCNB (VDW SCALING)     2
Info: USING ARITHMETIC MEAN TO COMBINE L-J SIGMA PARAMETERS
Info: BINARY COORDINATES     mobley_2198613_equil.coor
Info: SUMMARY OF PARAMETERS:
Info: 6 BONDS
Info: 6 ANGLES
Info:   6 HARMONIC
Info:   0 COSINE-BASED
Info: 3 DIHEDRAL
Info: 0 IMPROPER
Info: 0 CROSSTERM
Info: 0 VDW
Info: 21 VDW_PAIRS
Info: 0 NBTHOLE_PAIRS
Info: To read alchdata from file: mobley_2198613.pdb
Info: To read alchflag data from column: 5
Info: STRUCTURE SUMMARY:
Info: 2939 ATOMS
Info: 2938 BONDS
Info: 12 ANGLES
Info: 12 DIHEDRALS
Info: 0 IMPROPERS
Info: 0 CROSSTERMS
Info: 2959 EXCLUSIONS
Info: 2936 RIGID BONDS
Info: ALCH: 0 ATOMS TO DISAPPEAR IN FINAL STATE
Info: ALCH: 8 ATOMS TO APPEAR IN FINAL STATE
Info: 5881 DEGREES OF FREEDOM
Info: 980 HYDROGEN GROUPS
Info: 4 ATOMS IN LARGEST HYDROGEN GROUP
Info: 980 MIGRATION GROUPS
Info: 4 ATOMS IN LARGEST MIGRATION GROUP
Info: TOTAL MASS = 17666.1 amu
Info: TOTAL CHARGE = 0 e
Info: MASS DENSITY = 0.954059 g/cm^3
Info: ATOM DENSITY = 0.0955815 atoms/A^3
Info: ADDED 0 IMPLICIT EXCLUSIONS
Info: NONBONDED TABLE R-SQUARED SPACING: 0.0625
Info: NONBONDED TABLE SIZE: 705 POINTS
Info: REMOVING COM VELOCITY 0.133995 -0.152954 0.175279
Info: Use 3D box decompostion in PME FFT.
Info: Updated CUDA force table with 4096 elements.
Info: Updated CUDA LJ table with 6 x 6 elements.
Info: Found 11 unique exclusion lists needing 16 bytes
TCL: Running for 1500000 steps
ETITLE: TS BOND ANGLE DIHED IMPRP ELECT VDW BOUNDARY MISC KINETIC TOTAL TEMP POTENTIAL TOTALAVG TEMPAVG PRESSURE GPRESSURE VOLUME PRESSAVG GPRESSAVG
ENERGY: 0 0.0045 2.9453 0.7950 0.0000 -10572.3153 1385.6969 0.0000 0.0000 1761.2262 -7421.6473 301.4077 -9182.8735 -7421.6473 301.4077 -359.6155 -282.8207 30748.6288 -359.6155 -282.8207
ENERGY: 300000 0.2334 2.9145 1.9991 0.0000 -10590.4796 1319.4381 0.0000 0.0000 1753.4247 -7512.4698 300.0726 -9265.8946 -7479.5588 301.3404 -919.9462 -841.7354 30381.0525 -391.0868 -344.2486
ENERGY: 600000 0.8748 1.1874 0.8679 0.0000 -10800.7648 1516.5659 0.0000 0.0000 1725.8949 -7555.3739 295.3613 -9281.2688 -7500.9187 298.5611 657.1346 700.1903 29951.9249 -92.9149 -40.4081
ENERGY: 900000 0.7502 3.1932 0.7892 0.0000 -10608.4073 1379.2225 0.0000 0.0000 1746.1720 -7478.2803 298.8314 -9224.4522 -7484.5404 300.8618 -421.6229 -307.9888 30443.5931 -78.9646 -19.8108
ENERGY: 1200000 0.2935 2.7655 1.9201 0.0000 -10691.7761 1387.6509 0.0000 0.0000 1811.2231 -7487.9230 309.9639 -9299.1461 -7483.9500 301.4012 -388.1022 -313.1981 30065.8782 -95.7559 -24.8701
ENERGY: 1500000 1.5073 3.6766 1.5613 0.0000 -10659.0205 1390.4181 0.0000 0.0000 1742.3518 -7519.5055 298.1776 -9261.8573 -7490.5168 300.5179 -775.4699 -649.8948 30763.2301 -113.7150 -45.4657
TCL: Running FEP window   2: Lambda1 0.95   Lambda2 0.8999999999999999 [dLambda -0.050000000000000044]
TCL: Setting parameter firsttimestep to 0
TCL: Setting parameter alchLambda to 0.95
Info: NONBONDED TABLE R-SQUARED SPACING: 0.0625
Info: NONBONDED TABLE SIZE: 705 POINTS
TCL: Setting parameter alchLambda2 to 0.8999999999999999
Info: NONBONDED TABLE R-SQUARED SPACING: 0.0625
Info: NONBONDED TABLE SIZE: 705 POINTS
TCL: Running for 1500000 steps
ETITLE: TS BOND ANGLE DIHED IMPRP ELECT VDW BOUNDARY MISC KINETIC TOTAL TEMP POTENTIAL TOTALAVG TEMPAVG PRESSURE GPRESSURE VOLUME PRESSAVG GPRESSAVG
ENERGY: 0 1.5073 3.6766 1.5613 0.0000 -10658.7395 1390.2898 0.0000 0.0000 1741.4763 -7520.2283 298.0278 -9261.7046 -7520.2283 298.0278 -741.1410 -655.0468 30763.2301 -741.1410 -655.0468
ENERGY: 300000 0.0854 2.3080 0.9870 0.0000 -10730.4350 1450.9645 0.0000 0.0000 1729.5655 -7546.5245 295.9894 -9276.0901 -7553.3657 292.7676 196.3663 372.2590 29851.0424 -148.0794 -74.3720
ENERGY: 600000 0.2067 2.6993 0.8479 0.0000 -10689.3014 1447.3055 0.0000 0.0000 1718.5930 -7519.6490 294.1117 -9238.2420 -7525.3971 292.8636 -27.3299 103.7566 30228.3774 -192.3071 -102.9312
ENERGY: 900000 0.5797 3.0736 0.8931 0.0000 -10609.9048 1369.4612 0.0000 0.0000 1790.2239 -7445.6734 306.3702 -9235.8973 -7518.0081 294.4731 -621.0193 -560.1990 30435.1705 -279.5165 -207.8906
ENERGY: 1200000 0.7206 3.4542 0.8458 0.0000 -10567.9410 1397.7614 0.0000 0.0000 1787.0286 -7378.1304 305.8234 -9165.1590 -7499.9864 295.5740 -286.5045 -197.9279 30733.2646 -208.4232 -139.8659
ENERGY: 1500000 0.2836 4.9918 0.9411 0.0000 -10674.1032 1421.2484 0.0000 0.0000 1718.4164 -7528.2219 294.0814 -9246.6384 -7500.0424 295.2943 -327.9907 -243.2275 30548.0439 -256.9684 -189.3882
TCL: Running FEP window   3: Lambda1 0.8999999999999999 Lambda2 0.8499999999999999 [dLambda -0.050000000000000044]
TCL: Setting parameter firsttimestep to 0
TCL: Setting parameter alchLambda to 0.8999999999999999
Info: NONBONDED TABLE R-SQUARED SPACING: 0.0625
Info: NONBONDED TABLE SIZE: 705 POINTS
TCL: Setting parameter alchLambda2 to 0.8499999999999999
Info: NONBONDED TABLE R-SQUARED SPACING: 0.0625
Info: NONBONDED TABLE SIZE: 705 POINTS
TCL: Running for 1500000 steps
ETITLE: TS BOND ANGLE DIHED IMPRP ELECT VDW BOUNDARY MISC KINETIC TOTAL TEMP POTENTIAL TOTALAVG TEMPAVG PRESSURE GPRESSURE VOLUME PRESSAVG GPRESSAVG
ENERGY: 0 0.2836 4.9918 0.9411 0.0000 -10673.9227 1421.5606 0.0000 0.0000 1717.5548 -7528.5908 293.9340 -9246.1456 -7528.5908 293.9340 -333.0913 -242.3259 30548.0439 -333.0913 -242.3259
ENERGY: 300000 1.0345 3.9869 2.1533 0.0000 -10582.3407 1335.0033 0.0000 0.0000 1769.4475 -7470.7153 302.8146 -9240.1627 -7498.9860 299.8781 -1020.9559 -932.8188 30480.6438 -276.9999 -179.1288
ENERGY: 600000 0.5059 3.4451 0.9220 0.0000 -10730.2383 1491.5271 0.0000 0.0000 1746.3457 -7487.4925 298.8611 -9233.8382 -7489.8652 299.3135 413.3203 449.9424 30274.6096 -172.6001 -100.3761
ENERGY: 900000 0.0625 2.8938 0.7453 0.0000 -10619.1231 1327.0217 0.0000 0.0000 1708.5849 -7579.8149 292.3989 -9288.3998 -7499.9504 298.5939 -913.4115 -896.8159 30162.6866 -221.6881 -176.4056
ENERGY: 1200000 2.5520 4.1600 1.3099 0.0000 -10846.2894 1508.8775 0.0000 0.0000 1747.5365 -7581.8536 299.0649 -9329.3901 -7495.5812 299.2717 303.6807 380.8871 30068.3625 -220.0029 -174.9095
ENERGY: 1500000 1.0150 3.0116 0.8417 0.0000 -10510.4022 1352.2239 0.0000 0.0000 1845.4970 -7307.8132 315.8294 -9153.3101 -7483.3645 299.7026 -455.2142 -440.1285 30736.2211 -247.1151 -196.6033
TCL: Running FEP window   4: Lambda1 0.8499999999999999 Lambda2 0.7999999999999998 [dLambda -0.050000000000000044]
TCL: Setting parameter firsttimestep to 0
TCL: Setting parameter alchLambda to 0.8499999999999999
Info: NONBONDED TABLE R-SQUARED SPACING: 0.0625
Info: NONBONDED TABLE SIZE: 705 POINTS
TCL: Setting parameter alchLambda2 to 0.7999999999999998
Info: NONBONDED TABLE R-SQUARED SPACING: 0.0625
Info: NONBONDED TABLE SIZE: 705 POINTS
TCL: Running for 1500000 steps
ETITLE: TS BOND ANGLE DIHED IMPRP ELECT VDW BOUNDARY MISC KINETIC TOTAL TEMP POTENTIAL TOTALAVG TEMPAVG PRESSURE GPRESSURE VOLUME PRESSAVG GPRESSAVG
ENERGY: 0 1.0150 3.0116 0.8417 0.0000 -10510.2121 1352.3580 0.0000 0.0000 1844.6579 -7308.3280 315.6858 -9152.9859 -7308.3280 315.6858 -523.8541 -444.9276 30736.2211 -523.8541 -444.9276
ENERGY: 300000 1.5534 3.9178 1.0398 0.0000 -10644.9478 1391.3784 0.0000 0.0000 1710.8444 -7536.2140 292.7856 -9247.0585 -7431.6831 302.6975 -417.0053 -342.8101 30328.2318 -520.6712 -454.0255
ENERGY: 600000 1.0247 2.6426 0.8570 0.0000 -10673.5560 1474.3875 0.0000 0.0000 1850.4222 -7344.2219 316.6723 -9194.6441 -7421.5850 305.2505 443.5923 514.9812 30352.0641 -320.5940 -253.3575
ENERGY: 900000 2.1883 2.2459 1.0959 0.0000 -10621.4897 1424.8114 0.0000 0.0000 1807.5683 -7383.5799 309.3385 -9191.1482 -7439.3790 302.9427 -92.8333 -11.9085 30591.9076 -258.0781 -196.6332
ENERGY: 1200000 0.1493 2.3337 0.9645 0.0000 -10655.1132 1380.3246 0.0000 0.0000 1754.0280 -7517.3129 300.1758 -9271.3410 -7464.0541 301.7361 -508.1515 -483.0522 30438.8927 -228.8036 -169.4399
ENERGY: 1500000 0.8696 3.3698 2.1254 0.0000 -10814.3044 1462.1078 0.0000 0.0000 1736.6132 -7609.2185 297.1956 -9345.8317 -7467.8797 301.3401 -267.6121 -192.3742 30220.2870 -244.0444 -187.8485
TCL: Running FEP window   5: Lambda1 0.7999999999999998 Lambda2 0.7499999999999998 [dLambda -0.050000000000000044]
TCL: Setting parameter firsttimestep to 0
TCL: Setting parameter alchLambda to 0.7999999999999998
Info: NONBONDED TABLE R-SQUARED SPACING: 0.0625
Info: NONBONDED TABLE SIZE: 705 POINTS
TCL: Setting parameter alchLambda2 to 0.7499999999999998
Info: NONBONDED TABLE R-SQUARED SPACING: 0.0625
Info: NONBONDED TABLE SIZE: 705 POINTS
TCL: Running for 1500000 steps
ETITLE: TS BOND ANGLE DIHED IMPRP ELECT VDW BOUNDARY MISC KINETIC TOTAL TEMP POTENTIAL TOTALAVG TEMPAVG PRESSURE GPRESSURE VOLUME PRESSAVG GPRESSAVG
ENERGY: 0 0.8696 3.3698 2.1254 0.0000 -10813.9069 1462.0322 0.0000 0.0000 1735.7691 -7609.7407 297.0511 -9345.5098 -7609.7407 297.0511 -289.5090 -203.0326 30220.2870 -289.5090 -203.0326
ENERGY: 300000 0.0735 3.9617 0.7510 0.0000 -10677.4697 1455.4717 0.0000 0.0000 1775.3823 -7441.8295 303.8303 -9217.2118 -7516.3850 298.4937 72.3126 83.2938 30775.2564 50.5649 118.0506
ENERGY: 600000 0.3630 4.5447 0.8323 0.0000 -10728.9069 1519.3125 0.0000 0.0000 1772.8754 -7430.9789 303.4013 -9203.8543 -7474.6423 300.2663 805.4003 818.7128 30234.4933 69.0135 144.6751
ENERGY: 900000 0.5310 4.1090 0.9077 0.0000 -10658.6353 1402.8454 0.0000 0.0000 1757.5463 -7492.6959 300.7779 -9250.2422 -7488.6054 299.6671 -272.6291 -165.2955 30235.1670 -19.2148 53.0017
ENERGY: 1200000 0.1017 5.4648 0.8372 0.0000 -10735.7541 1481.0047 0.0000 0.0000 1803.5517 -7444.7941 308.6511 -9248.3458 -7486.4156 300.2614 600.8061 621.8199 29924.5559 21.3256 86.7904
ENERGY: 1500000 0.3197 3.7232 0.8320 0.0000 -10593.8597 1436.2917 0.0000 0.0000 1795.6675 -7357.0256 307.3018 -9152.6931 -7481.4016 300.3330 282.5100 391.8373 30290.6550 45.6000 111.6360
TCL: Running FEP window   6: Lambda1 0.7499999999999998 Lambda2 0.6999999999999997 [dLambda -0.050000000000000044]
TCL: Setting parameter firsttimestep to 0
TCL: Setting parameter alchLambda to 0.7499999999999998
Info: NONBONDED TABLE R-SQUARED SPACING: 0.0625
Info: NONBONDED TABLE SIZE: 705 POINTS
TCL: Setting parameter alchLambda2 to 0.6999999999999997
Info: NONBONDED TABLE R-SQUARED SPACING: 0.0625
Info: NONBONDED TABLE SIZE: 705 POINTS
TCL: Running for 1500000 steps
ETITLE: TS BOND ANGLE DIHED IMPRP ELECT VDW BOUNDARY MISC KINETIC TOTAL TEMP POTENTIAL TOTALAVG TEMPAVG PRESSURE GPRESSURE VOLUME PRESSAVG GPRESSAVG
ENERGY: 0 0.3197 3.7232 0.8320 0.0000 -10593.8542 1436.2523 0.0000 0.0000 1794.7883 -7357.9387 307.1514 -9152.7270 -7357.9387 307.1514 309.5645 386.1041 30290.6550 309.5645 386.1041
ENERGY: 300000 0.5648 4.4065 0.8287 0.0000 -10716.4028 1455.9709 0.0000 0.0000 1759.9664 -7494.6655 301.1921 -9254.6319 -7441.3583 306.4962 248.7338 314.7122 30089.2771 273.3783 322.7918
ENERGY: 600000 0.5715 3.9188 0.8103 0.0000 -10593.6611 1401.0674 0.0000 0.0000 1767.3287 -7419.9645 302.4521 -9187.2932 -7434.9390 305.1349 -350.5057 -279.5315 30556.7550 56.7060 107.0559
ENERGY: 900000 1.3056 2.6569 0.9065 0.0000 -10644.5454 1476.2652 0.0000 0.0000 1730.9187 -7432.4926 296.2210 -9163.4113 -7437.3553 303.8045 625.5060 655.7284 29989.2201 -10.7915 36.3152
ENERGY: 1200000 0.6772 3.2230 0.9024 0.0000 -10498.4425 1330.3500 0.0000 0.0000 1750.4152 -7412.8747 299.5576 -9163.2899 -7444.6013 303.9491 -841.8409 -758.3465 30730.2693 -141.8647 -93.2157
ENERGY: 1500000 1.6244 2.0524 0.8558 0.0000 -10825.4903 1515.7414 0.0000 0.0000 1760.1403 -7545.0760 301.2219 -9305.2163 -7452.7342 302.8216 425.8066 532.3998 30255.0272 -68.6442 -14.6152
TCL: Running FEP window   7: Lambda1 0.6999999999999997 Lambda2 0.6499999999999997 [dLambda -0.050000000000000044]
TCL: Setting parameter firsttimestep to 0
TCL: Setting parameter alchLambda to 0.6999999999999997
Info: NONBONDED TABLE R-SQUARED SPACING: 0.0625
Info: NONBONDED TABLE SIZE: 705 POINTS
TCL: Setting parameter alchLambda2 to 0.6499999999999997
Info: NONBONDED TABLE R-SQUARED SPACING: 0.0625
Info: NONBONDED TABLE SIZE: 705 POINTS
TCL: Running for 1500000 steps
ETITLE: TS BOND ANGLE DIHED IMPRP ELECT VDW BOUNDARY MISC KINETIC TOTAL TEMP POTENTIAL TOTALAVG TEMPAVG PRESSURE GPRESSURE VOLUME PRESSAVG GPRESSAVG
ENERGY: 0 1.6244 2.0524 0.8558 0.0000 -10825.2672 1515.4739 0.0000 0.0000 1759.2809 -7545.9798 301.0748 -9305.2607 -7545.9798 301.0748 440.8210 522.2686 30255.0272 440.8210 522.2686
ENERGY: 300000 0.7663 4.9043 0.7928 0.0000 -10765.3165 1474.0441 0.0000 0.0000 1780.0298 -7504.7791 304.6257 -9284.8089 -7510.0334 302.4722 153.3804 216.7784 30277.2726 -156.4307 -90.6859
ENERGY: 600000 0.0472 2.8451 0.8980 0.0000 -10750.4860 1538.8587 0.0000 0.0000 1718.2163 -7489.6208 294.0472 -9207.8371 -7474.5117 301.7150 768.8352 826.2736 30251.4422 -38.1913 39.3839
ENERGY: 900000 0.1232 2.0608 0.7467 0.0000 -10712.8336 1443.3110 0.0000 0.0000 1795.1462 -7471.4456 307.2126 -9266.5919 -7485.4433 300.9789 -3.1592 69.9565 30191.8044 -47.5586 29.7511
ENERGY: 1200000 0.1826 4.6737 0.7897 0.0000 -10621.3041 1379.2061 0.0000 0.0000 1712.4750 -7523.9770 293.0647 -9236.4520 -7487.8888 300.2819 -363.1174 -341.9257 30071.5839 -47.9305 22.0126
ENERGY: 1500000 0.3093 4.8109 1.3074 0.0000 -10665.8967 1418.7786 0.0000 0.0000 1775.0327 -7465.6578 303.7705 -9240.6905 -7486.6258 300.1194 81.0909 191.2369 29713.3759 -50.2170 17.1427
TCL: Running FEP window   8: Lambda1 0.6499999999999997 Lambda2 0.5999999999999996 [dLambda -0.050000000000000044]
TCL: Setting parameter firsttimestep to 0
TCL: Setting parameter alchLambda to 0.6499999999999997
Info: NONBONDED TABLE R-SQUARED SPACING: 0.0625
Info: NONBONDED TABLE SIZE: 705 POINTS
TCL: Setting parameter alchLambda2 to 0.5999999999999996
Info: NONBONDED TABLE R-SQUARED SPACING: 0.0625
Info: NONBONDED TABLE SIZE: 705 POINTS
TCL: Running for 1500000 steps
ETITLE: TS BOND ANGLE DIHED IMPRP ELECT VDW BOUNDARY MISC KINETIC TOTAL TEMP POTENTIAL TOTALAVG TEMPAVG PRESSURE GPRESSURE VOLUME PRESSAVG GPRESSAVG
ENERGY: 0 0.3093 4.8109 1.3074 0.0000 -10665.7094 1419.1245 0.0000 0.0000 1774.1690 -7465.9883 303.6227 -9240.1574 -7465.9883 303.6227 111.3387 188.5712 29713.3759 111.3387 188.5712
ENERGY: 300000 0.2705 3.6464 1.0698 0.0000 -10684.4001 1409.2363 0.0000 0.0000 1770.5111 -7499.6661 302.9967 -9270.1772 -7463.9317 304.2259 88.7120 127.0313 29622.6337 43.2295 110.0451
ENERGY: 600000 0.5288 4.9000 0.8609 0.0000 -10689.7253 1437.1215 0.0000 0.0000 1752.7704 -7493.5438 299.9606 -9246.3141 -7477.7291 301.5669 152.2335 190.3256 30048.5975 -17.1891 42.9557
ENERGY: 900000 0.9885 2.3454 1.0324 0.0000 -10863.9116 1608.1171 0.0000 0.0000 1720.9801 -7530.4481 294.5202 -9251.4282 -7480.6803 300.1719 1408.6767 1451.1424 29994.3579 97.4080 146.2040
ENERGY: 1200000 0.9891 1.9610 0.9087 0.0000 -10564.5339 1363.8566 0.0000 0.0000 1711.1069 -7485.7115 292.8305 -9196.8184 -7484.2801 299.4798 -299.9644 -278.0018 29962.0819 31.0437 80.2324
ENERGY: 1500000 0.3925 1.3700 0.7698 0.0000 -10632.6187 1392.0727 0.0000 0.0000 1768.2248 -7469.7889 302.6054 -9238.0137 -7470.6356 300.1444 -244.6305 -213.6561 30012.6880 -6.0460 39.7570
TCL: Running FEP window   9: Lambda1 0.5999999999999996 Lambda2 0.5499999999999996 [dLambda -0.050000000000000044]
TCL: Setting parameter firsttimestep to 0
TCL: Setting parameter alchLambda to 0.5999999999999996
Info: NONBONDED TABLE R-SQUARED SPACING: 0.0625
Info: NONBONDED TABLE SIZE: 705 POINTS
TCL: Setting parameter alchLambda2 to 0.5499999999999996
Info: NONBONDED TABLE R-SQUARED SPACING: 0.0625
Info: NONBONDED TABLE SIZE: 705 POINTS
TCL: Running for 1500000 steps
ETITLE: TS BOND ANGLE DIHED IMPRP ELECT VDW BOUNDARY MISC KINETIC TOTAL TEMP POTENTIAL TOTALAVG TEMPAVG PRESSURE GPRESSURE VOLUME PRESSAVG GPRESSAVG
ENERGY: 0 0.3925 1.3700 0.7698 0.0000 -10632.5636 1391.7171 0.0000 0.0000 1767.3477 -7470.9666 302.4553 -9238.3143 -7470.9666 302.4553 -312.0750 -221.3992 30012.6880 -312.0750 -221.3992
ENERGY: 300000 0.7320 6.1344 1.4657 0.0000 -10643.7902 1403.4798 0.0000 0.0000 1768.5122 -7463.4660 302.6546 -9231.9782 -7492.0313 300.2018 -732.5805 -710.8732 31054.8750 -576.7582 -523.8900
ENERGY: 600000 0.1468 2.6920 1.1535 0.0000 -10703.9466 1470.9755 0.0000 0.0000 1774.8006 -7454.1782 303.7308 -9228.9788 -7451.8142 303.6640 211.3114 262.6841 30222.1608 -290.9238 -239.7868
ENERGY: 900000 0.1898 5.5269 1.0659 0.0000 -10686.2507 1416.5662 0.0000 0.0000 1764.8444 -7498.0575 302.0269 -9262.9019 -7462.3736 302.1925 -195.1121 -145.0630 30078.4507 -283.7683 -221.3512
ENERGY: 1200000 0.8400 3.4975 0.8932 0.0000 -10669.0595 1425.1217 0.0000 0.0000 1757.2671 -7481.4400 300.7302 -9238.7071 -7455.3006 302.1892 156.9650 199.2884 29885.2287 -295.7321 -237.2439
ENERGY: 1500000 0.9246 2.8303 0.8311 0.0000 -10716.0090 1430.4382 0.0000 0.0000 1758.2644 -7522.7204 300.9008 -9280.9848 -7461.7342 302.0381 -318.7721 -244.4584 30438.5464 -235.7575 -169.1097
TCL: Running FEP window  10: Lambda1 0.5499999999999996 Lambda2 0.4999999999999996 [dLambda -0.04999999999999999]
TCL: Setting parameter firsttimestep to 0
TCL: Setting parameter alchLambda to 0.5499999999999996
Info: NONBONDED TABLE R-SQUARED SPACING: 0.0625
Info: NONBONDED TABLE SIZE: 705 POINTS
TCL: Setting parameter alchLambda2 to 0.4999999999999996
Info: NONBONDED TABLE R-SQUARED SPACING: 0.0625
Info: NONBONDED TABLE SIZE: 705 POINTS
TCL: Running for 1500000 steps
ETITLE: TS BOND ANGLE DIHED IMPRP ELECT VDW BOUNDARY MISC KINETIC TOTAL TEMP POTENTIAL TOTALAVG TEMPAVG PRESSURE GPRESSURE VOLUME PRESSAVG GPRESSAVG
ENERGY: 0 0.9246 2.8303 0.8311 0.0000 -10715.7787 1430.7255 0.0000 0.0000 1757.3811 -7523.0861 300.7497 -9280.4672 -7523.0861 300.7497 -331.5901 -246.4795 30438.5464 -331.5901 -246.4795
ENERGY: 300000 0.6198 3.3234 0.9980 0.0000 -10689.0959 1444.3766 0.0000 0.0000 1712.5467 -7527.2314 293.0769 -9239.7781 -7494.3549 297.0352 82.7003 143.0920 30006.2625 -162.2109 -101.2897
ENERGY: 600000 0.6698 2.2142 0.7771 0.0000 -10659.8535 1398.6740 0.0000 0.0000 1737.7190 -7519.7994 297.3848 -9257.5184 -7504.9491 296.7809 -515.7793 -435.9009 30603.5333 -287.8578 -224.6711
ENERGY: 900000 0.4747 3.3972 1.2375 0.0000 -10631.3402 1461.7307 0.0000 0.0000 1709.4781 -7455.0220 292.5518 -9164.5001 -7511.3601 295.5777 126.3188 217.4589 30538.9463 -256.1113 -188.5013
ENERGY: 1200000 0.2106 2.9869 0.8681 0.0000 -10653.9516 1465.0713 0.0000 0.0000 1769.0739 -7415.7408 302.7507 -9184.8146 -7495.5857 296.5623 257.1833 335.5498 30476.1122 -192.2585 -122.4520
ENERGY: 1500000 0.0476 1.7543 0.8306 0.0000 -10669.3686 1395.9765 0.0000 0.0000 1783.8584 -7486.9012 305.2809 -9270.7596 -7486.5757 298.2044 -431.8134 -421.6009 30533.2369 -236.4813 -170.7977
TCL: Running FEP window  11: Lambda1 0.4999999999999996 Lambda2 0.4499999999999996 [dLambda -0.04999999999999999]
TCL: Setting parameter firsttimestep to 0
TCL: Setting parameter alchLambda to 0.4999999999999996
Info: NONBONDED TABLE R-SQUARED SPACING: 0.0625
Info: NONBONDED TABLE SIZE: 705 POINTS
TCL: Setting parameter alchLambda2 to 0.4499999999999996
Info: NONBONDED TABLE R-SQUARED SPACING: 0.0625
Info: NONBONDED TABLE SIZE: 705 POINTS
TCL: Running for 1500000 steps
ETITLE: TS BOND ANGLE DIHED IMPRP ELECT VDW BOUNDARY MISC KINETIC TOTAL TEMP POTENTIAL TOTALAVG TEMPAVG PRESSURE GPRESSURE VOLUME PRESSAVG GPRESSAVG
ENERGY: 0 0.0476 1.7543 0.8306 0.0000 -10669.0669 1396.1572 0.0000 0.0000 1782.9856 -7487.2916 305.1315 -9270.2772 -7487.2916 305.1315 -515.3407 -422.4084 30533.2369 -515.3407 -422.4084
ENERGY: 300000 0.4994 0.4745 0.8796 0.0000 -10632.5556 1501.9491 0.0000 0.0000 1732.5093 -7396.2437 296.4932 -9128.7529 -7464.6873 298.6552 459.3193 581.6809 30680.4047 -108.1466 -25.9584
ENERGY: 600000 1.6655 1.3658 0.8830 0.0000 -10810.4194 1521.2491 0.0000 0.0000 1717.2211 -7568.0350 293.8769 -9285.2560 -7506.6775 295.9601 257.9265 375.4233 30503.2404 -237.1935 -167.0173
ENERGY: 900000 0.1961 3.2146 0.9079 0.0000 -10715.0051 1426.6758 0.0000 0.0000 1736.4250 -7547.5857 297.1633 -9284.0106 -7501.5326 298.5632 -168.2397 -100.5997 30167.0701 -156.2085 -86.9547
ENERGY: 1200000 0.0171 1.7254 0.7781 0.0000 -10596.9010 1455.0109 0.0000 0.0000 1753.0017 -7386.3677 300.0002 -9139.3694 -7488.7142 298.5031 182.3162 225.6036 30837.2976 -92.6894 -19.8881
ENERGY: 1500000 0.5258 3.8798 1.1109 0.0000 -10721.7681 1474.0452 0.0000 0.0000 1769.0591 -7473.1473 302.7482 -9242.2063 -7484.5976 299.2440 -115.4496 -34.6678 30766.7012 -170.3811 -100.2355
TCL: Running FEP window  12: Lambda1 0.4499999999999996 Lambda2 0.39999999999999963 [dLambda -0.04999999999999999]
TCL: Setting parameter firsttimestep to 0
TCL: Setting parameter alchLambda to 0.4499999999999996
Info: NONBONDED TABLE R-SQUARED SPACING: 0.0625
Info: NONBONDED TABLE SIZE: 705 POINTS
TCL: Setting parameter alchLambda2 to 0.39999999999999963
Info: NONBONDED TABLE R-SQUARED SPACING: 0.0625
Info: NONBONDED TABLE SIZE: 705 POINTS
TCL: Running for 1500000 steps
ETITLE: TS BOND ANGLE DIHED IMPRP ELECT VDW BOUNDARY MISC KINETIC TOTAL TEMP POTENTIAL TOTALAVG TEMPAVG PRESSURE GPRESSURE VOLUME PRESSAVG GPRESSAVG
ENERGY: 0 0.5258 3.8798 1.1109 0.0000 -10721.7660 1474.2605 0.0000 0.0000 1768.1701 -7473.8189 302.5961 -9241.9890 -7473.8189 302.5961 -113.9291 -34.5556 30766.7012 -113.9291 -34.5556
ENERGY: 300000 0.3627 2.1829 0.7832 0.0000 -10699.7454 1414.3005 0.0000 0.0000 1760.8455 -7521.2706 301.3426 -9282.1161 -7514.8127 299.9769 -415.4007 -375.9598 30344.6034 -214.1037 -165.4271
ENERGY: 600000 0.9799 1.6133 1.0793 0.0000 -10763.5004 1495.7709 0.0000 0.0000 1807.3543 -7456.7027 309.3018 -9264.0570 -7469.2106 303.0983 674.6731 672.5471 29985.8615 -37.2492 2.2860
ENERGY: 900000 0.3390 2.6638 0.7725 0.0000 -10560.1584 1362.1749 0.0000 0.0000 1800.7787 -7393.4294 308.1765 -9194.2081 -7449.2537 303.7842 -552.5453 -527.9964 30373.7744 -146.8996 -99.7388
ENERGY: 1200000 1.6437 2.7921 0.7552 0.0000 -10445.9262 1305.8901 0.0000 0.0000 1734.6715 -7400.1736 296.8633 -9134.8451 -7445.2821 302.2675 -740.4088 -728.7368 30485.2412 -172.9833 -125.5985
ENERGY: 1500000 0.1033 4.6342 0.8934 0.0000 -10634.4962 1377.0054 0.0000 0.0000 1796.4667 -7455.3932 307.4386 -9251.8599 -7455.1020 302.4373 -381.7547 -335.3327 30342.6556 -161.5225 -119.0338
TCL: Running FEP window  13: Lambda1 0.39999999999999963 Lambda2 0.34999999999999964 [dLambda -0.04999999999999999]
TCL: Setting parameter firsttimestep to 0
TCL: Setting parameter alchLambda to 0.39999999999999963
Info: NONBONDED TABLE R-SQUARED SPACING: 0.0625
Info: NONBONDED TABLE SIZE: 705 POINTS
TCL: Setting parameter alchLambda2 to 0.34999999999999964
Info: NONBONDED TABLE R-SQUARED SPACING: 0.0625
Info: NONBONDED TABLE SIZE: 705 POINTS
TCL: Running for 1500000 steps
ETITLE: TS BOND ANGLE DIHED IMPRP ELECT VDW BOUNDARY MISC KINETIC TOTAL TEMP POTENTIAL TOTALAVG TEMPAVG PRESSURE GPRESSURE VOLUME PRESSAVG GPRESSAVG
ENERGY: 0 0.1033 4.6342 0.8934 0.0000 -10634.4952 1377.3490 0.0000 0.0000 1795.6035 -7455.9118 307.2909 -9251.5152 -7455.9118 307.2909 -430.5524 -335.1732 30342.6556 -430.5524 -335.1732
ENERGY: 300000 0.5316 4.1806 1.1958 0.0000 -10785.0008 1515.4974 0.0000 0.0000 1727.8335 -7535.7618 295.6930 -9263.5953 -7518.3803 298.6650 536.8962 613.4197 30091.3541 -66.0417 9.1358
ENERGY: 600000 0.6667 3.3615 1.1142 0.0000 -10657.0629 1368.7068 0.0000 0.0000 1779.0286 -7504.1850 304.4543 -9283.2137 -7513.1204 299.3516 -846.6375 -837.9943 30592.1484 -191.3035 -133.6771
ENERGY: 900000 0.2414 3.1431 0.8537 0.0000 -10603.8744 1391.7268 0.0000 0.0000 1773.9742 -7433.9350 303.5893 -9207.9093 -7507.4785 300.9968 -203.6499 -50.2619 29845.9058 -279.2867 -210.6543
ENERGY: 1200000 0.5856 4.5243 0.7889 0.0000 -10675.5037 1452.9233 0.0000 0.0000 1759.2549 -7457.4266 301.0703 -9216.6815 -7497.2024 300.5319 342.6525 397.5964 30168.9903 -124.0450 -53.3609
ENERGY: 1500000 0.5795 3.3581 0.7455 0.0000 -10562.3162 1450.5726 0.0000 0.0000 1771.7132 -7335.3473 303.2024 -9107.0605 -7478.5469 300.1927 509.9410 549.8771 30275.2210 -198.2528 -130.4806
TCL: Running FEP window  14: Lambda1 0.34999999999999964 Lambda2 0.29999999999999966 [dLambda -0.04999999999999999]
TCL: Setting parameter firsttimestep to 0
TCL: Setting parameter alchLambda to 0.34999999999999964
Info: NONBONDED TABLE R-SQUARED SPACING: 0.0625
Info: NONBONDED TABLE SIZE: 705 POINTS
TCL: Setting parameter alchLambda2 to 0.29999999999999966
Info: NONBONDED TABLE R-SQUARED SPACING: 0.0625
Info: NONBONDED TABLE SIZE: 705 POINTS
TCL: Running for 1500000 steps
ETITLE: TS BOND ANGLE DIHED IMPRP ELECT VDW BOUNDARY MISC KINETIC TOTAL TEMP POTENTIAL TOTALAVG TEMPAVG PRESSURE GPRESSURE VOLUME PRESSAVG GPRESSAVG
ENERGY: 0 0.5795 3.3581 0.7455 0.0000 -10562.3149 1450.6604 0.0000 0.0000 1770.8148 -7336.1566 303.0486 -9106.9714 -7336.1566 303.0486 464.9829 548.7281 30275.2210 464.9829 548.7281
ENERGY: 300000 0.9850 5.8171 0.8222 0.0000 -10819.7330 1547.5752 0.0000 0.0000 1748.9898 -7515.5436 299.3136 -9264.5333 -7432.6449 302.8471 574.1940 627.7579 30551.9613 185.2144 267.3678
ENERGY: 600000 0.0699 2.2757 0.8174 0.0000 -10588.7548 1370.4930 0.0000 0.0000 1731.1003 -7483.9986 296.2521 -9215.0989 -7441.4032 302.1639 -729.0464 -673.8398 30578.9392 -82.4605 -18.5309
ENERGY: 900000 1.6554 1.6458 1.0660 0.0000 -10824.7359 1565.9464 0.0000 0.0000 1734.6582 -7519.7641 296.8610 -9254.4223 -7462.5588 301.4726 1098.8663 1184.6477 29923.9856 83.9036 145.5371
ENERGY: 1200000 0.1913 2.1038 0.8145 0.0000 -10577.8256 1382.6626 0.0000 0.0000 1748.4407 -7443.6127 299.2197 -9192.0534 -7460.8586 300.5837 -643.2893 -497.7274 30852.3776 79.8465 147.2902
ENERGY: 1500000 1.0834 4.9169 1.8496 0.0000 -10720.6574 1453.6086 0.0000 0.0000 1826.7738 -7432.4252 312.6252 -9259.1989 -7461.7786 300.8597 -22.8313 2.6239 30351.8533 -5.6934 63.4397
TCL: Running FEP window  15: Lambda1 0.29999999999999966 Lambda2 0.24999999999999967 [dLambda -0.04999999999999999]
TCL: Setting parameter firsttimestep to 0
TCL: Setting parameter alchLambda to 0.29999999999999966
Info: NONBONDED TABLE R-SQUARED SPACING: 0.0625
Info: NONBONDED TABLE SIZE: 705 POINTS
TCL: Setting parameter alchLambda2 to 0.24999999999999967
Info: NONBONDED TABLE R-SQUARED SPACING: 0.0625
Info: NONBONDED TABLE SIZE: 705 POINTS
TCL: Running for 1500000 steps
ETITLE: TS BOND ANGLE DIHED IMPRP ELECT VDW BOUNDARY MISC KINETIC TOTAL TEMP POTENTIAL TOTALAVG TEMPAVG PRESSURE GPRESSURE VOLUME PRESSAVG GPRESSAVG
ENERGY: 0 1.0834 4.9169 1.8496 0.0000 -10720.6583 1453.4959 0.0000 0.0000 1825.9112 -7433.4013 312.4776 -9259.3125 -7433.4013 312.4776 -76.6404 -0.0855 30351.8533 -76.6404 -0.0855
ENERGY: 300000 0.0113 4.3242 0.8566 0.0000 -10670.4085 1393.2439 0.0000 0.0000 1727.1481 -7544.8244 295.5757 -9271.9726 -7480.4114 304.1423 -834.2822 -769.1516 30859.4552 -159.7868 -90.8537
ENERGY: 600000 0.5359 2.7018 0.8053 0.0000 -10701.3481 1476.6034 0.0000 0.0000 1719.0069 -7501.6948 294.1825 -9220.7017 -7481.9897 301.8347 445.2272 497.4434 30257.1549 -48.7834 17.7990
ENERGY: 900000 0.1833 3.8444 0.8646 0.0000 -10585.0424 1376.5506 0.0000 0.0000 1746.8353 -7456.7641 298.9449 -9203.5995 -7476.6440 300.7964 -529.1414 -458.7280 30325.7235 -97.1460 -26.9186
ENERGY: 1200000 1.4864 3.4261 0.8305 0.0000 -10692.2429 1493.7804 0.0000 0.0000 1781.3865 -7411.3329 304.8578 -9192.7194 -7464.2750 301.1519 507.4015 566.1907 30431.5365 24.4031 97.9323
ENERGY: 1500000 0.1239 2.7406 0.9791 0.0000 -10546.0434 1410.8154 0.0000 0.0000 1733.4069 -7397.9775 296.6468 -9131.3844 -7468.5292 300.0255 -105.6289 -44.9768 30639.7941 49.0428 117.6655
TCL: Running FEP window  16: Lambda1 0.24999999999999967 Lambda2 0.19999999999999968 [dLambda -0.04999999999999999]
TCL: Setting parameter firsttimestep to 0
TCL: Setting parameter alchLambda to 0.24999999999999967
Info: NONBONDED TABLE R-SQUARED SPACING: 0.0625
Info: NONBONDED TABLE SIZE: 705 POINTS
TCL: Setting parameter alchLambda2 to 0.19999999999999968
Info: NONBONDED TABLE R-SQUARED SPACING: 0.0625
Info: NONBONDED TABLE SIZE: 705 POINTS
TCL: Running for 1500000 steps
ETITLE: TS BOND ANGLE DIHED IMPRP ELECT VDW BOUNDARY MISC KINETIC TOTAL TEMP POTENTIAL TOTALAVG TEMPAVG PRESSURE GPRESSURE VOLUME PRESSAVG GPRESSAVG
ENERGY: 0 0.1239 2.7406 0.9791 0.0000 -10546.0437 1410.9545 0.0000 0.0000 1732.5596 -7398.6859 296.5018 -9131.2456 -7398.6859 296.5018 -127.3188 -46.9204 30639.7941 -127.3188 -46.9204
ENERGY: 300000 0.4725 4.1201 0.8521 0.0000 -10731.3082 1491.2775 0.0000 0.0000 1753.4545 -7481.1314 300.0777 -9234.5859 -7474.5510 298.3676 583.8553 665.1271 29998.1894 123.3929 209.6669
ENERGY: 600000 0.1654 1.5890 0.9522 0.0000 -10763.7061 1513.9537 0.0000 0.0000 1778.1166 -7468.9292 304.2982 -9247.0458 -7470.7001 300.3736 587.4764 637.4114 30230.7230 13.5795 86.5481
ENERGY: 900000 1.9453 5.2973 0.8496 0.0000 -10572.1886 1365.8199 0.0000 0.0000 1782.3684 -7415.9081 305.0259 -9198.2765 -7453.1314 301.9473 -436.7109 -377.4677 30504.1369 73.8180 138.3937
ENERGY: 1200000 0.4795 7.8112 0.8767 0.0000 -10831.5646 1496.5938 0.0000 0.0000 1778.0834 -7547.7199 304.2926 -9325.8034 -7462.5648 302.5671 318.7208 409.1020 29832.7856 35.2521 95.7036
ENERGY: 1500000 1.1462 2.5915 1.6753 0.0000 -10644.1301 1412.8405 0.0000 0.0000 1763.7315 -7462.1451 301.8364 -9225.8766 -7461.6393 301.9439 -126.1136 -18.6427 29910.8012 -2.3737 62.9383
TCL: Running FEP window  17: Lambda1 0.19999999999999968 Lambda2 0.1499999999999997 [dLambda -0.04999999999999999]
TCL: Setting parameter firsttimestep to 0
TCL: Setting parameter alchLambda to 0.19999999999999968
Info: NONBONDED TABLE R-SQUARED SPACING: 0.0625
Info: NONBONDED TABLE SIZE: 705 POINTS
TCL: Setting parameter alchLambda2 to 0.1499999999999997
Info: NONBONDED TABLE R-SQUARED SPACING: 0.0625
Info: NONBONDED TABLE SIZE: 705 POINTS
TCL: Running for 1500000 steps
ETITLE: TS BOND ANGLE DIHED IMPRP ELECT VDW BOUNDARY MISC KINETIC TOTAL TEMP POTENTIAL TOTALAVG TEMPAVG PRESSURE GPRESSURE VOLUME PRESSAVG GPRESSAVG
ENERGY: 0 1.1462 2.5915 1.6753 0.0000 -10644.1303 1412.5235 0.0000 0.0000 1762.8500 -7463.3439 301.6856 -9226.1939 -7463.3439 301.6856 -115.1774 -20.2516 29910.8012 -115.1774 -20.2516
ENERGY: 300000 0.2933 4.9289 0.8136 0.0000 -10769.0714 1501.6092 0.0000 0.0000 1799.3404 -7462.0860 307.9304 -9261.4264 -7488.4418 298.6607 217.6668 266.6489 30318.2945 41.2168 122.8709
ENERGY: 600000 0.1360 4.0871 0.8766 0.0000 -10669.7061 1424.4144 0.0000 0.0000 1728.6526 -7511.5394 295.8332 -9240.1920 -7474.4616 297.1397 -246.5342 -197.4516 30065.3189 -125.4318 -47.7706
ENERGY: 900000 0.3118 4.0567 0.7831 0.0000 -10877.1683 1548.1883 0.0000 0.0000 1707.0580 -7616.7705 292.1376 -9323.8285 -7486.6250 296.4495 674.4776 708.0368 29966.6289 -73.0879 -10.6761
ENERGY: 1200000 0.2246 1.8377 1.2800 0.0000 -10642.2185 1451.2736 0.0000 0.0000 1786.9504 -7400.6522 305.8100 -9187.6026 -7481.0583 297.9481 215.3219 304.3219 30057.1427 39.0716 96.8163
ENERGY: 1500000 0.1501 1.1971 0.8888 0.0000 -10650.4293 1436.5992 0.0000 0.0000 1762.9598 -7448.6343 301.7044 -9211.5941 -7478.2680 298.0750 6.4852 63.8841 30102.8392 9.5439 69.2412
TCL: Running FEP window  18: Lambda1 0.1499999999999997 Lambda2 0.09999999999999969 [dLambda -0.05 ]
TCL: Setting parameter firsttimestep to 0
TCL: Setting parameter alchLambda to 0.1499999999999997
Info: NONBONDED TABLE R-SQUARED SPACING: 0.0625
Info: NONBONDED TABLE SIZE: 705 POINTS
TCL: Setting parameter alchLambda2 to 0.09999999999999969
Info: NONBONDED TABLE R-SQUARED SPACING: 0.0625
Info: NONBONDED TABLE SIZE: 705 POINTS
TCL: Running for 1500000 steps
ETITLE: TS BOND ANGLE DIHED IMPRP ELECT VDW BOUNDARY MISC KINETIC TOTAL TEMP POTENTIAL TOTALAVG TEMPAVG PRESSURE GPRESSURE VOLUME PRESSAVG GPRESSAVG
ENERGY: 0 0.1501 1.1971 0.8888 0.0000 -10650.4305 1436.5895 0.0000 0.0000 1762.0376 -7449.5673 301.5466 -9211.6049 -7449.5673 301.5466 -17.3340 60.3952 30102.8392 -17.3340 60.3952
ENERGY: 300000 0.0208 7.8565 0.9062 0.0000 -10764.8107 1511.8534 0.0000 0.0000 1747.8519 -7496.3220 299.1189 -9244.1738 -7476.8125 302.0035 526.0126 562.1702 30070.9249 -16.3327 46.8861
ENERGY: 600000 0.0741 2.3520 1.0616 0.0000 -10834.7372 1498.9733 0.0000 0.0000 1776.3827 -7555.8936 304.0015 -9332.2763 -7489.0496 302.6392 291.4044 352.0959 30037.2311 -86.1804 -18.6072
ENERGY: 900000 0.2249 2.9276 1.6497 0.0000 -10675.1035 1465.8431 0.0000 0.0000 1787.1403 -7417.3178 305.8425 -9204.4582 -7474.8430 304.4020 312.0053 366.5448 30254.3728 143.2491 194.1771
ENERGY: 1200000 0.1365 3.4418 0.8601 0.0000 -10565.2626 1380.3749 0.0000 0.0000 1788.7148 -7391.7345 306.1120 -9180.4493 -7467.0257 303.6084 -305.8476 -200.2346 30208.7905 151.7151 208.8726
ENERGY: 1500000 0.3765 2.8009 1.1616 0.0000 -10676.1260 1408.0990 0.0000 0.0000 1781.5974 -7482.0906 304.8939 -9263.6879 -7471.9616 302.9181 -373.7839 -274.8917 30132.9962 136.8719 196.6224
TCL: Running FEP window  19: Lambda1 0.09999999999999969 Lambda2 0.049999999999999684 [dLambda -0.05 ]
TCL: Setting parameter firsttimestep to 0
TCL: Setting parameter alchLambda to 0.09999999999999969
Info: NONBONDED TABLE R-SQUARED SPACING: 0.0625
Info: NONBONDED TABLE SIZE: 705 POINTS
TCL: Setting parameter alchLambda2 to 0.049999999999999684
Info: NONBONDED TABLE R-SQUARED SPACING: 0.0625
Info: NONBONDED TABLE SIZE: 705 POINTS
TCL: Running for 1500000 steps
ETITLE: TS BOND ANGLE DIHED IMPRP ELECT VDW BOUNDARY MISC KINETIC TOTAL TEMP POTENTIAL TOTALAVG TEMPAVG PRESSURE GPRESSURE VOLUME PRESSAVG GPRESSAVG
ENERGY: 0 0.3765 2.8009 1.1616 0.0000 -10676.1255 1407.9730 0.0000 0.0000 1780.7378 -7483.0755 304.7468 -9263.8134 -7483.0755 304.7468 -375.4662 -277.7410 30132.9962 -375.4662 -277.7410
ENERGY: 300000 0.0080 2.8612 1.0346 0.0000 -10601.0090 1460.5690 0.0000 0.0000 1733.0212 -7403.5149 296.5808 -9136.5361 -7471.0833 302.1761 404.7869 404.7927 30248.4822 81.9378 111.6464
ENERGY: 600000 0.1684 4.7808 0.9656 0.0000 -10581.3116 1384.6201 0.0000 0.0000 1713.5826 -7477.1941 293.2542 -9190.7766 -7469.1375 300.2845 -425.4746 -356.5836 30381.6517 89.0646 146.8074
ENERGY: 900000 0.1883 5.2887 0.7498 0.0000 -10580.5262 1369.4668 0.0000 0.0000 1801.3389 -7403.4937 308.2724 -9204.8326 -7450.5095 301.3164 -463.6433 -494.4253 30448.8696 67.6048 114.9074
ENERGY: 1200000 0.4664 5.6424 1.0258 0.0000 -10680.1090 1405.8274 0.0000 0.0000 1774.0826 -7493.0645 303.6079 -9267.1471 -7459.9047 301.9348 -284.9476 -262.8789 30296.1095 65.9195 110.4961
ENERGY: 1500000 0.0960 2.7323 0.7952 0.0000 -10599.5572 1388.4684 0.0000 0.0000 1741.6279 -7465.8374 298.0537 -9207.4653 -7461.1015 301.3612 -382.7410 -327.9458 30331.7421 -2.5537 44.3183
TCL: Running FEP window  20: Lambda1 0.049999999999999684 Lambda2 0.0    [dLambda -0.049999999999999684]
TCL: Setting parameter firsttimestep to 0
TCL: Setting parameter alchLambda to 0.049999999999999684
Info: NONBONDED TABLE R-SQUARED SPACING: 0.0625
Info: NONBONDED TABLE SIZE: 705 POINTS
TCL: Setting parameter alchLambda2 to 0.0
Info: NONBONDED TABLE R-SQUARED SPACING: 0.0625
Info: NONBONDED TABLE SIZE: 705 POINTS
TCL: Running for 1500000 steps
ETITLE: TS BOND ANGLE DIHED IMPRP ELECT VDW BOUNDARY MISC KINETIC TOTAL TEMP POTENTIAL TOTALAVG TEMPAVG PRESSURE GPRESSURE VOLUME PRESSAVG GPRESSAVG
ENERGY: 0 0.0960 2.7323 0.7952 0.0000 -10599.5578 1388.3378 0.0000 0.0000 1740.7228 -7466.8737 297.8988 -9207.5965 -7466.8737 297.8988 -396.3590 -331.7173 30331.7421 -396.3590 -331.7173
ENERGY: 300000 0.2140 4.9054 0.8213 0.0000 -10680.0306 1440.0202 0.0000 0.0000 1750.3865 -7483.6832 299.5526 -9234.0698 -7488.2670 299.9785 188.4133 198.4644 30087.2321 -252.5284 -205.8011
ENERGY: 600000 0.3519 2.2574 0.8914 0.0000 -10672.5431 1473.2339 0.0000 0.0000 1733.7046 -7462.1040 296.6978 -9195.8085 -7471.5145 301.7276 511.0757 591.0965 29877.5216 11.2712 61.2283
ENERGY: 900000 0.1815 1.5544 0.7677 0.0000 -10744.0576 1515.0254 0.0000 0.0000 1797.7431 -7428.7855 307.6570 -9226.5286 -7470.2125 301.6626 497.2279 535.5515 30346.3164 32.2857 81.6766
ENERGY: 1200000 0.5548 4.5136 0.8415 0.0000 -10674.6787 1426.8156 0.0000 0.0000 1757.0243 -7484.9290 300.6886 -9241.9533 -7468.7440 301.7978 -186.8922 -98.3047 30150.4904 -93.1315 -40.2161
ENERGY: 1500000 0.8320 2.7731 0.8389 0.0000 -10671.1530 1370.3414 0.0000 0.0000 1775.2163 -7521.1513 303.8019 -9296.3676 -7476.5481 301.3299 -816.0111 -673.5437 30348.5665 -142.2469 -74.4691
TCL: Exiting due to exit command.
