Info: SIMULATION PARAMETERS:
Info: TIMESTEP               2
Info: NUMBER OF STEPS        0
Info: STEPS PER CYCLE        10
Info: PERIODIC CELL BASIS 1  32.9734 0 0
Info: PERIODIC CELL BASIS 2  0 30.0801 0
Info: PERIODIC CELL BASIS 3  0 0 30.5917
Info: PERIODIC CELL CENTER   0 0 0
Info: WRAPPING WATERS AROUND PERIODIC BOUNDARIES ON OUTPUT.
Info: WRAPPING ALL CLUSTERS AROUND PERIODIC BOUNDARIES ON OUTPUT.
Info: FIRST LDB TIMESTEP     50
Info: LAST LDB TIMESTEP     -1
Info: HOM BACKGROUND SCALING 1
Info: PME BACKGROUND SCALING 1
Info: MIN ATOMS PER PATCH    40
Info: EMPTY PATCH LOAD       40 ATOMS
Info: VELOCITY FILE          mobley_5003962_equil.vel
Info: CENTER OF MASS MOVING INITIALLY? NO
Info: DIELECTRIC             1
Info: EXCLUDE                SCALED ONE-FOUR
Info: 1-4 ELECTROSTATICS SCALED BY 0.833333
Info: MODIFIED 1-4 VDW PARAMETERS WILL BE USED
Info: DCD FILENAME           mobley_5003962_prod.dcd
Info: DCD FREQUENCY          100000
Info: DCD FIRST STEP         100000
Info: DCD FILE WILL CONTAIN UNIT CELL DATA
Info: XST FILENAME           mobley_5003962_prod.xst
Info: XST FREQUENCY          100000
Info: NO VELOCITY DCD OUTPUT
Info: NO FORCE DCD OUTPUT
Info: OUTPUT FILENAME        mobley_5003962_prod
Info: BINARY OUTPUT FILES WILL BE USED
Info: RESTART FILENAME       mobley_5003962_prod.restart
Info: RESTART FREQUENCY      100000
Info: BINARY RESTART FILES WILL BE USED
Info: CUTOFF                 9
Info: PAIRLIST DISTANCE      11
Info: PAIRLIST SHRINK RATE   0.01
Info: PAIRLIST GROW RATE     0.01
Info: PAIRLIST TRIGGER       0.3
Info: PAIRLISTS PER CYCLE    2
Info: PAIRLISTS ENABLED
Info: MARGIN                 2
Info: HYDROGEN GROUP CUTOFF  2.5
Info: PATCH DIMENSION        15.5
Info: ENERGY OUTPUT STEPS    100000
Info: ENERGY EVALUATION STEPS    100000
Info: OUTPUT ENERGY PRECISION 4
Info: CROSSTERM ENERGY INCLUDED IN DIHEDRAL
Info: TIMING OUTPUT STEPS    1000000
Info: PRESSURE OUTPUT STEPS  100000
Info: ALCHEMICAL FEP ON
Info: FEP CURRENT LAMBDA VALUE     0
Info: FEP COMPARISON LAMBDA VALUE  0.05
Info: FEP INTRA-ALCHEMICAL NON-BONDED INTERACTIONS WILL BE RETAINED
Info: FEP INTRA-ALCHEMICAL BONDED INTERACTIONS WILL BE RETAINED
Info: FEP VDW SHIFTING COEFFICIENT 5
Info: FEP ELEC. ACTIVE FOR ANNIHILATED PARTICLES BETWEEN LAMBDA = 0 AND LAMBDA = 0.5
Info: FEP ELEC. ACTIVE FOR EXNIHILATED PARTICLES BETWEEN LAMBDA = 0.5 AND LAMBDA = 1
Info: FEP VDW ACTIVE FOR ANNIHILATED PARTICLES BETWEEN LAMBDA = 0 AND LAMBDA = 1
Info: FEP VDW ACTIVE FOR EXNIHILATED PARTICLES BETWEEN LAMBDA = 0 AND LAMBDA = 1
Info: FEP BOND ACTIVE FOR ANNIHILATED PARTICLES BETWEEN LAMBDA = 1 AND LAMBDA = 1
Info: FEP BOND ACTIVE FOR EXNIHILATED PARTICLES BETWEEN LAMBDA = 0 AND LAMBDA = 0
Info: LANGEVIN DYNAMICS ACTIVE
Info: LANGEVIN TEMPERATURE   300
Info: LANGEVIN USING BBK INTEGRATOR
Info: LANGEVIN DAMPING COEFFICIENT IS 1 INVERSE PS
Info: LANGEVIN DYNAMICS APPLIED TO HYDROGENS
Info: LANGEVIN PISTON PRESSURE CONTROL ACTIVE
Info:        TARGET PRESSURE IS 1.01325 BAR
Info:     OSCILLATION PERIOD IS 50 FS
Info:             DECAY TIME IS 25 FS
Info:     PISTON TEMPERATURE IS 300 K
Info:       PRESSURE CONTROL IS GROUP-BASED
Info:    INITIAL STRAIN RATE IS 0.00010557 0.00010557 0.00010557
Info:       CELL FLUCTUATION IS ISOTROPIC
Info: PARTICLE MESH EWALD (PME) ACTIVE
Info: PME TOLERANCE               1e-06
Info: PME EWALD COEFFICIENT       0.348832
Info: PME INTERPOLATION ORDER     4
Info: PME GRID DIMENSIONS         36 32 32
Info: PME MAXIMUM GRID SPACING    1
Info: PME CALCULATION WILL BE PERFORMED ON GPU
Info: FULL ELECTROSTATIC EVALUATION FREQUENCY      2
Info: USING VERLET I (r-RESPA) MTS SCHEME.
Info: C1 SPLITTING OF LONG RANGE ELECTROSTATICS
Info: PLACING ATOMS IN PATCHES BY HYDROGEN GROUPS
Info: RIGID BONDS TO HYDROGEN : ALL
Info:         ERROR TOLERANCE : 1e-08
Info:          MAX ITERATIONS : 100
Info: RIGID WATER USING SETTLE ALGORITHM
Info: RANDOM NUMBER SEED     1743662788
Info: USE HYDROGEN BONDS?    NO
Info: Using AMBER format force field!
Info: AMBER PARM FILE        mobley_5003962.prmtop
Info: COORDINATE PDB         mobley_5003962.pdb
Info: Exclusions will be read from PARM file!
Info: SCNB (VDW SCALING)     2
Info: USING ARITHMETIC MEAN TO COMBINE L-J SIGMA PARAMETERS
Info: BINARY COORDINATES     mobley_5003962_equil.coor
Info: SUMMARY OF PARAMETERS:
Info: 8 BONDS
Info: 8 ANGLES
Info:   8 HARMONIC
Info:   0 COSINE-BASED
Info: 5 DIHEDRAL
Info: 0 IMPROPER
Info: 0 CROSSTERM
Info: 0 VDW
Info: 28 VDW_PAIRS
Info: 0 NBTHOLE_PAIRS
Info: To read alchdata from file: mobley_5003962.pdb
Info: To read alchflag data from column: 5
Info: STRUCTURE SUMMARY:
Info: 2930 ATOMS
Info: 2932 BONDS
Info: 45 ANGLES
Info: 83 DIHEDRALS
Info: 0 IMPROPERS
Info: 0 CROSSTERMS
Info: 3036 EXCLUSIONS
Info: 2913 RIGID BONDS
Info: ALCH: 0 ATOMS TO DISAPPEAR IN FINAL STATE
Info: ALCH: 26 ATOMS TO APPEAR IN FINAL STATE
Info: 5877 DEGREES OF FREEDOM
Info: 985 HYDROGEN GROUPS
Info: 3 ATOMS IN LARGEST HYDROGEN GROUP
Info: 985 MIGRATION GROUPS
Info: 3 ATOMS IN LARGEST MIGRATION GROUP
Info: TOTAL MASS = 17662.7 amu
Info: TOTAL CHARGE = 0.000100043 e
Info: MASS DENSITY = 0.966654 g/cm^3
Info: ATOM DENSITY = 0.0965655 atoms/A^3
Info: ADDED 0 IMPLICIT EXCLUSIONS
Info: NONBONDED TABLE R-SQUARED SPACING: 0.0625
Info: NONBONDED TABLE SIZE: 705 POINTS
Info: REMOVING COM VELOCITY -0.0669011 0.0469252 -0.113714
Info: Use 3D box decompostion in PME FFT.
Info: Updated CUDA force table with 4096 elements.
Info: Updated CUDA LJ table with 7 x 7 elements.
Info: Found 27 unique exclusion lists needing 88 bytes
TCL: Running for 1500000 steps
ETITLE: TS BOND ANGLE DIHED IMPRP ELECT VDW BOUNDARY MISC KINETIC TOTAL TEMP POTENTIAL TOTALAVG TEMPAVG PRESSURE GPRESSURE VOLUME PRESSAVG GPRESSAVG
ENERGY: 0 7.8931 8.1861 7.6709 0.0000 -10450.8247 1450.8840 0.0000 0.0000 1750.1174 -7226.0733 299.7104 -8976.1907 -7226.0733 299.7104 541.5273 612.9024 30342.0975 541.5273 612.9024
ENERGY: 300000 3.1347 7.7258 5.7097 0.0000 -10586.7183 1421.7499 0.0000 0.0000 1817.1002 -7331.2979 311.1813 -9148.3981 -7296.8927 302.7466 -60.7440 -25.7237 29517.7629 -237.9083 -171.6316
ENERGY: 600000 6.2462 5.5340 11.4142 0.0000 -10597.3471 1435.3588 0.0000 0.0000 1777.7371 -7361.0569 304.4404 -9138.7940 -7319.1992 302.5905 -92.2042 -58.3078 29936.0465 -79.9168 -18.9479
ENERGY: 900000 6.0005 4.5462 8.1946 0.0000 -10498.6249 1373.5306 0.0000 0.0000 1757.7015 -7348.6515 301.0092 -9106.3530 -7328.7645 300.4790 -711.9098 -709.6095 30312.6490 -39.3264 18.1832
ENERGY: 1200000 3.5854 8.7673 6.9486 0.0000 -10565.3841 1410.9255 0.0000 0.0000 1704.5669 -7430.5904 291.9098 -9135.1573 -7343.8529 300.8610 -493.7517 -374.0323 30400.9295 -18.6645 39.6138
ENERGY: 1500000 5.2587 4.2956 6.4675 0.0000 -10537.3426 1406.0173 0.0000 0.0000 1758.8232 -7356.4802 301.2013 -9115.3035 -7349.5343 300.5382 -101.4094 -53.5034 29890.1669 -2.5870 49.3920
TCL: Running FEP window   2: Lambda1 0.05   Lambda2 0.1    [dLambda 0.05  ]
TCL: Setting parameter firsttimestep to 0
TCL: Setting parameter alchLambda to 0.05
Info: NONBONDED TABLE R-SQUARED SPACING: 0.0625
Info: NONBONDED TABLE SIZE: 705 POINTS
TCL: Setting parameter alchLambda2 to 0.1
Info: NONBONDED TABLE R-SQUARED SPACING: 0.0625
Info: NONBONDED TABLE SIZE: 705 POINTS
TCL: Running for 1500000 steps
ETITLE: TS BOND ANGLE DIHED IMPRP ELECT VDW BOUNDARY MISC KINETIC TOTAL TEMP POTENTIAL TOTALAVG TEMPAVG PRESSURE GPRESSURE VOLUME PRESSAVG GPRESSAVG
ENERGY: 0 5.2587 4.2956 6.4675 0.0000 -10537.3424 1409.9038 0.0000 0.0000 1757.9347 -7353.4820 301.0492 -9111.4167 -7353.4820 301.0492 -114.2088 -46.7246 29890.1669 -114.2088 -46.7246
ENERGY: 300000 14.4623 8.2574 4.3223 0.0000 -10604.4371 1451.8957 0.0000 0.0000 1738.7219 -7386.7775 297.7589 -9125.4994 -7353.2724 299.8400 -452.4987 -338.2437 30275.7327 -352.7884 -274.8160
ENERGY: 600000 9.4746 10.0769 5.9838 0.0000 -10543.4344 1401.4613 0.0000 0.0000 1761.5677 -7354.8701 301.6713 -9116.4378 -7354.7066 301.0857 -431.0017 -304.9658 29811.2619 -273.9958 -193.2443
ENERGY: 900000 9.1743 8.2690 4.5522 0.0000 -10480.5421 1351.4871 0.0000 0.0000 1784.6826 -7322.3769 305.6298 -9107.0595 -7342.4381 301.6716 -331.5811 -293.1303 29624.8075 -176.1857 -106.2762
ENERGY: 1200000 5.1368 7.2885 6.5436 0.0000 -10636.9934 1482.4150 0.0000 0.0000 1734.5064 -7401.1031 297.0370 -9135.6095 -7352.8865 300.5283 67.6480 146.0496 29950.4445 -147.9777 -72.2436
ENERGY: 1500000 7.3854 8.7098 9.3687 0.0000 -10449.2249 1331.1075 0.0000 0.0000 1797.2744 -7295.3792 307.7862 -9092.6536 -7339.9684 301.6303 -1042.0460 -876.5357 30088.0087 -204.7273 -128.9147
TCL: Running FEP window   3: Lambda1 0.1    Lambda2 0.15000000000000002 [dLambda 0.05000000000000002]
TCL: Setting parameter firsttimestep to 0
TCL: Setting parameter alchLambda to 0.1
Info: NONBONDED TABLE R-SQUARED SPACING: 0.0625
Info: NONBONDED TABLE SIZE: 705 POINTS
TCL: Setting parameter alchLambda2 to 0.15000000000000002
Info: NONBONDED TABLE R-SQUARED SPACING: 0.0625
Info: NONBONDED TABLE SIZE: 705 POINTS
TCL: Running for 1500000 steps
ETITLE: TS BOND ANGLE DIHED IMPRP ELECT VDW BOUNDARY MISC KINETIC TOTAL TEMP POTENTIAL TOTALAVG TEMPAVG PRESSURE GPRESSURE VOLUME PRESSAVG GPRESSAVG
ENERGY: 0 7.3854 8.7098 9.3687 0.0000 -10449.2248 1333.7434 0.0000 0.0000 1796.3911 -7293.6263 307.6349 -9090.0174 -7293.6263 307.6349 -949.2113 -863.4069 30088.0087 -949.2113 -863.4069
ENERGY: 300000 4.0331 10.9094 7.3218 0.0000 -10569.1620 1421.5140 0.0000 0.0000 1752.3439 -7373.0397 300.0917 -9125.3836 -7364.8209 303.1962 -80.3179 18.4062 29850.9521 -67.3154 11.6273
ENERGY: 600000 4.5848 7.2858 6.6108 0.0000 -10562.9732 1406.6308 0.0000 0.0000 1738.3059 -7399.5551 297.6877 -9137.8610 -7385.5559 300.8620 -3.4722 77.9808 29800.6914 -139.2230 -68.5415
ENERGY: 900000 8.3336 8.0933 8.2242 0.0000 -10396.1391 1389.8271 0.0000 0.0000 1745.4448 -7236.2161 298.9103 -8981.6609 -7372.0073 300.3807 -278.3461 -229.5430 30520.7375 -44.4612 23.6239
ENERGY: 1200000 8.8798 6.5384 6.6991 0.0000 -10399.5414 1309.8783 0.0000 0.0000 1788.6199 -7278.9259 306.3041 -9067.5458 -7356.0474 301.0585 -1074.0291 -1013.2377 30422.2216 -159.9013 -96.5019
ENERGY: 1500000 3.9633 4.3314 4.5325 0.0000 -10545.7690 1432.6765 0.0000 0.0000 1744.9357 -7355.3296 298.8231 -9100.2653 -7352.7575 301.1913 -181.7410 -102.8230 30160.0755 -143.9499 -82.1346
TCL: Running FEP window   4: Lambda1 0.15000000000000002 Lambda2 0.2    [dLambda 0.04999999999999999]
TCL: Setting parameter firsttimestep to 0
TCL: Setting parameter alchLambda to 0.15000000000000002
Info: NONBONDED TABLE R-SQUARED SPACING: 0.0625
Info: NONBONDED TABLE SIZE: 705 POINTS
TCL: Setting parameter alchLambda2 to 0.2
Info: NONBONDED TABLE R-SQUARED SPACING: 0.0625
Info: NONBONDED TABLE SIZE: 705 POINTS
TCL: Running for 1500000 steps
ETITLE: TS BOND ANGLE DIHED IMPRP ELECT VDW BOUNDARY MISC KINETIC TOTAL TEMP POTENTIAL TOTALAVG TEMPAVG PRESSURE GPRESSURE VOLUME PRESSAVG GPRESSAVG
ENERGY: 0 3.9633 4.3314 4.5325 0.0000 -10545.7696 1434.0703 0.0000 0.0000 1744.0867 -7354.7854 298.6777 -9098.8722 -7354.7854 298.6777 -164.7218 -89.8898 30160.0755 -164.7218 -89.8898
ENERGY: 300000 8.1113 11.4438 7.9623 0.0000 -10622.8320 1477.7830 0.0000 0.0000 1769.8134 -7347.7182 303.0834 -9117.5316 -7354.4997 303.9039 366.4377 399.4772 29959.7076 269.1665 317.4128
ENERGY: 600000 9.9337 6.1611 5.3852 0.0000 -10514.7536 1404.3746 0.0000 0.0000 1707.3078 -7381.5912 292.3792 -9088.8990 -7350.7500 301.9803 -52.2679 -3.0061 29837.6368 87.3467 138.3232
ENERGY: 900000 5.2083 7.5127 6.8447 0.0000 -10515.5781 1441.0066 0.0000 0.0000 1765.0113 -7289.9946 302.2610 -9055.0058 -7336.9173 302.4856 353.3512 477.3184 30213.6200 124.2560 179.0732
ENERGY: 1200000 3.6153 5.5311 6.4027 0.0000 -10646.3787 1457.6277 0.0000 0.0000 1771.7274 -7401.4744 303.4112 -9173.2018 -7337.4810 302.9916 -28.9324 -8.1914 29934.0984 126.0103 174.9654
ENERGY: 1500000 8.3634 8.2246 6.8084 0.0000 -10555.2120 1349.7531 0.0000 0.0000 1789.3067 -7392.7558 306.4217 -9182.0625 -7344.6456 302.9736 -1121.3710 -1042.1354 30338.3268 39.3115 88.4560
TCL: Running FEP window   5: Lambda1 0.2    Lambda2 0.25   [dLambda 0.04999999999999999]
TCL: Setting parameter firsttimestep to 0
TCL: Setting parameter alchLambda to 0.2
Info: NONBONDED TABLE R-SQUARED SPACING: 0.0625
Info: NONBONDED TABLE SIZE: 705 POINTS
TCL: Setting parameter alchLambda2 to 0.25
Info: NONBONDED TABLE R-SQUARED SPACING: 0.0625
Info: NONBONDED TABLE SIZE: 705 POINTS
TCL: Running for 1500000 steps
ETITLE: TS BOND ANGLE DIHED IMPRP ELECT VDW BOUNDARY MISC KINETIC TOTAL TEMP POTENTIAL TOTALAVG TEMPAVG PRESSURE GPRESSURE VOLUME PRESSAVG GPRESSAVG
ENERGY: 0 8.3634 8.2246 6.8084 0.0000 -10555.2123 1351.6429 0.0000 0.0000 1788.4104 -7391.7625 306.2682 -9180.1729 -7391.7625 306.2682 -1105.5098 -1030.2893 30338.3268 -1105.5098 -1030.2893
ENERGY: 300000 4.0996 8.8308 10.0902 0.0000 -10633.9672 1451.6572 0.0000 0.0000 1777.9944 -7381.2950 304.4844 -9159.2894 -7325.2020 302.7191 23.2709 71.9863 30182.4109 -459.1258 -407.9870
ENERGY: 600000 4.9069 8.4270 10.6909 0.0000 -10531.5595 1397.9644 0.0000 0.0000 1723.3920 -7386.1783 295.1337 -9109.5703 -7338.0145 300.7311 -583.1734 -510.8313 30279.0457 -370.9226 -316.7989
ENERGY: 900000 8.7862 5.6662 6.6527 0.0000 -10668.8938 1520.1563 0.0000 0.0000 1779.0263 -7348.6060 304.6611 -9127.6324 -7342.1946 300.7139 822.6081 829.2342 29648.5651 -176.9749 -123.3160
ENERGY: 1200000 7.0986 6.7979 6.2040 0.0000 -10558.6647 1405.0227 0.0000 0.0000 1780.7566 -7352.7849 304.9575 -9133.5415 -7347.1236 301.0661 -43.3010 -42.6762 29642.7835 -97.7340 -47.0073
ENERGY: 1500000 4.6984 4.8967 8.4800 0.0000 -10587.3890 1418.8220 0.0000 0.0000 1697.5900 -7452.9020 290.7150 -9150.4920 -7352.0050 300.1558 -43.7125 -0.3741 29780.7971 -66.6903 -13.8603
TCL: Running FEP window   6: Lambda1 0.25   Lambda2 0.3    [dLambda 0.04999999999999999]
TCL: Setting parameter firsttimestep to 0
TCL: Setting parameter alchLambda to 0.25
Info: NONBONDED TABLE R-SQUARED SPACING: 0.0625
Info: NONBONDED TABLE SIZE: 705 POINTS
TCL: Setting parameter alchLambda2 to 0.3
Info: NONBONDED TABLE R-SQUARED SPACING: 0.0625
Info: NONBONDED TABLE SIZE: 705 POINTS
TCL: Running for 1500000 steps
ETITLE: TS BOND ANGLE DIHED IMPRP ELECT VDW BOUNDARY MISC KINETIC TOTAL TEMP POTENTIAL TOTALAVG TEMPAVG PRESSURE GPRESSURE VOLUME PRESSAVG GPRESSAVG
ENERGY: 0 4.6984 4.8967 8.4799 0.0000 -10587.3898 1418.7432 0.0000 0.0000 1696.7160 -7453.8556 290.5654 -9150.5717 -7453.8556 290.5654 -81.4856 3.0845 29780.7971 -81.4856 3.0845
ENERGY: 300000 9.2774 8.4820 11.7774 0.0000 -10616.4328 1476.9776 0.0000 0.0000 1790.7955 -7319.1229 306.6766 -9109.9184 -7378.7395 300.3076 251.4632 323.8190 29985.1856 -122.0712 -57.0941
ENERGY: 600000 3.1090 10.1536 9.7051 0.0000 -10632.9812 1541.2287 0.0000 0.0000 1750.4022 -7318.3826 299.7592 -9068.7848 -7357.3587 300.2671 1242.9286 1327.1003 30050.2157 50.4933 119.3654
ENERGY: 900000 8.5280 7.1139 8.6501 0.0000 -10623.6631 1442.0785 0.0000 0.0000 1740.5519 -7416.7408 298.0723 -9157.2926 -7365.2769 300.2001 82.7834 166.1292 29759.3690 10.5138 82.0977
ENERGY: 1200000 10.0875 6.2524 6.1199 0.0000 -10651.5966 1464.4176 0.0000 0.0000 1746.8865 -7417.8327 299.1571 -9164.7192 -7375.3003 299.4861 15.0199 140.3665 29710.7788 16.4832 93.8103
ENERGY: 1500000 7.4750 7.6357 9.4930 0.0000 -10668.9855 1525.7893 0.0000 0.0000 1771.4851 -7347.1074 303.3697 -9118.5926 -7373.5559 300.1434 718.2333 742.1625 29915.5242 81.2302 152.0806
TCL: Running FEP window   7: Lambda1 0.3    Lambda2 0.35   [dLambda 0.04999999999999999]
TCL: Setting parameter firsttimestep to 0
TCL: Setting parameter alchLambda to 0.3
Info: NONBONDED TABLE R-SQUARED SPACING: 0.0625
Info: NONBONDED TABLE SIZE: 705 POINTS
TCL: Setting parameter alchLambda2 to 0.35
Info: NONBONDED TABLE R-SQUARED SPACING: 0.0625
Info: NONBONDED TABLE SIZE: 705 POINTS
TCL: Running for 1500000 steps
ETITLE: TS BOND ANGLE DIHED IMPRP ELECT VDW BOUNDARY MISC KINETIC TOTAL TEMP POTENTIAL TOTALAVG TEMPAVG PRESSURE GPRESSURE VOLUME PRESSAVG GPRESSAVG
ENERGY: 0 7.4750 7.6357 9.4930 0.0000 -10668.9851 1525.3818 0.0000 0.0000 1770.6573 -7348.3423 303.2279 -9118.9996 -7348.3423 303.2279 660.3251 746.3651 29915.5242 660.3251 746.3651
ENERGY: 300000 12.2453 6.9544 10.6804 0.0000 -10405.9452 1397.8315 0.0000 0.0000 1739.7823 -7238.4513 297.9405 -8978.2336 -7358.7430 298.2575 -66.4208 -43.4854 30424.8570 -136.7068 -73.6083
ENERGY: 600000 8.3615 7.0939 9.4853 0.0000 -10634.5380 1484.1755 0.0000 0.0000 1745.0714 -7380.3504 298.8463 -9125.4218 -7362.8970 298.2974 444.4070 482.5196 30080.5296 -85.7368 -24.0680
ENERGY: 900000 13.4670 7.1967 8.5327 0.0000 -10472.5819 1389.4407 0.0000 0.0000 1754.1813 -7299.7635 300.4064 -9053.9448 -7342.0349 298.8890 -591.2036 -474.9151 30449.0280 -212.4432 -136.5442
ENERGY: 1200000 5.5751 7.9834 7.4206 0.0000 -10526.0566 1422.0269 0.0000 0.0000 1736.3834 -7346.6672 297.3585 -9083.0506 -7354.3372 298.1972 18.3503 101.6569 29982.5215 -148.5655 -76.8851
ENERGY: 1500000 4.8137 6.7252 9.3133 0.0000 -10501.4131 1376.1825 0.0000 0.0000 1767.0954 -7337.2831 302.6180 -9104.3785 -7347.7574 299.1579 -509.8360 -449.4362 29995.8557 -146.5769 -80.3723
TCL: Running FEP window   8: Lambda1 0.35   Lambda2 0.39999999999999997 [dLambda 0.04999999999999999]
TCL: Setting parameter firsttimestep to 0
TCL: Setting parameter alchLambda to 0.35
Info: NONBONDED TABLE R-SQUARED SPACING: 0.0625
Info: NONBONDED TABLE SIZE: 705 POINTS
TCL: Setting parameter alchLambda2 to 0.39999999999999997
Info: NONBONDED TABLE R-SQUARED SPACING: 0.0625
Info: NONBONDED TABLE SIZE: 705 POINTS
TCL: Running for 1500000 steps
ETITLE: TS BOND ANGLE DIHED IMPRP ELECT VDW BOUNDARY MISC KINETIC TOTAL TEMP POTENTIAL TOTALAVG TEMPAVG PRESSURE GPRESSURE VOLUME PRESSAVG GPRESSAVG
ENERGY: 0 4.8137 6.7252 9.3133 0.0000 -10501.4132 1376.9663 0.0000 0.0000 1766.2280 -7337.3668 302.4694 -9103.5948 -7337.3668 302.4694 -516.0839 -436.6186 29995.8557 -516.0839 -436.6186
ENERGY: 300000 5.0316 8.4337 5.4723 0.0000 -10452.2124 1378.5382 0.0000 0.0000 1757.9021 -7296.8344 301.0436 -9054.7365 -7343.9037 299.2372 112.1544 200.4599 30098.8343 247.0256 345.9460
ENERGY: 600000 11.3758 9.5713 6.8493 0.0000 -10518.9130 1387.3588 0.0000 0.0000 1692.4697 -7411.2881 289.8382 -9103.7578 -7359.9833 297.6013 -646.0738 -545.5125 30249.5965 -72.3413 26.1751
ENERGY: 900000 4.3590 8.1631 5.7523 0.0000 -10503.4677 1411.8624 0.0000 0.0000 1727.5327 -7345.7982 295.8428 -9073.3309 -7344.8030 298.4565 -115.6485 -29.8600 30425.2561 -159.0280 -66.5668
ENERGY: 1200000 7.0255 7.1999 5.5919 0.0000 -10470.1178 1415.0901 0.0000 0.0000 1785.6724 -7249.5381 305.7993 -9035.2105 -7340.8037 299.3066 445.6121 446.8809 30102.6421 -4.6667 74.7857
ENERGY: 1500000 6.2316 6.9213 9.7238 0.0000 -10591.6556 1466.6672 0.0000 0.0000 1706.9188 -7395.1927 292.3126 -9102.1116 -7343.6267 299.1769 584.1291 612.1244 29545.4619 0.2145 67.7568
TCL: Running FEP window   9: Lambda1 0.39999999999999997 Lambda2 0.44999999999999996 [dLambda 0.04999999999999999]
TCL: Setting parameter firsttimestep to 0
TCL: Setting parameter alchLambda to 0.39999999999999997
Info: NONBONDED TABLE R-SQUARED SPACING: 0.0625
Info: NONBONDED TABLE SIZE: 705 POINTS
TCL: Setting parameter alchLambda2 to 0.44999999999999996
Info: NONBONDED TABLE R-SQUARED SPACING: 0.0625
Info: NONBONDED TABLE SIZE: 705 POINTS
TCL: Running for 1500000 steps
ETITLE: TS BOND ANGLE DIHED IMPRP ELECT VDW BOUNDARY MISC KINETIC TOTAL TEMP POTENTIAL TOTALAVG TEMPAVG PRESSURE GPRESSURE VOLUME PRESSAVG GPRESSAVG
ENERGY: 0 6.2316 6.9213 9.7238 0.0000 -10591.6539 1467.1414 0.0000 0.0000 1706.0321 -7395.6037 292.1608 -9101.6357 -7395.6037 292.1608 547.2555 624.9810 29545.4619 547.2555 624.9810
ENERGY: 300000 7.9640 8.6628 6.9204 0.0000 -10510.7089 1459.9563 0.0000 0.0000 1777.1153 -7250.0899 304.3339 -9027.2053 -7351.4389 293.4723 736.1246 807.8195 29779.5898 22.4736 100.0397
ENERGY: 600000 9.7841 8.9300 6.0459 0.0000 -10577.8696 1419.1740 0.0000 0.0000 1782.6349 -7351.3007 305.2791 -9133.9356 -7348.1435 298.5294 -183.3958 -128.6012 30147.5265 63.5025 127.1719
ENERGY: 900000 8.2066 4.9305 4.8966 0.0000 -10576.8292 1444.1039 0.0000 0.0000 1757.9137 -7356.7778 301.0456 -9114.6916 -7346.1394 299.7945 32.1887 35.3802 30495.9295 66.6780 127.3186
ENERGY: 1200000 4.0013 8.4899 8.1312 0.0000 -10765.7760 1527.3609 0.0000 0.0000 1776.7524 -7441.0404 304.2717 -9217.7927 -7359.8945 300.4636 744.0802 783.5528 29686.1648 154.0750 204.2894
ENERGY: 1500000 13.0221 6.0244 7.0240 0.0000 -10432.2625 1358.3459 0.0000 0.0000 1798.1837 -7249.6624 307.9419 -9047.8460 -7357.1325 301.8832 -665.5308 -602.8038 30079.8842 6.3547 58.2877
TCL: Running FEP window  10: Lambda1 0.44999999999999996 Lambda2 0.49999999999999994 [dLambda 0.04999999999999999]
TCL: Setting parameter firsttimestep to 0
TCL: Setting parameter alchLambda to 0.44999999999999996
Info: NONBONDED TABLE R-SQUARED SPACING: 0.0625
Info: NONBONDED TABLE SIZE: 705 POINTS
TCL: Setting parameter alchLambda2 to 0.49999999999999994
Info: NONBONDED TABLE R-SQUARED SPACING: 0.0625
Info: NONBONDED TABLE SIZE: 705 POINTS
TCL: Running for 1500000 steps
ETITLE: TS BOND ANGLE DIHED IMPRP ELECT VDW BOUNDARY MISC KINETIC TOTAL TEMP POTENTIAL TOTALAVG TEMPAVG PRESSURE GPRESSURE VOLUME PRESSAVG GPRESSAVG
ENERGY: 0 13.0221 6.0244 7.0240 0.0000 -10432.2629 1358.0525 0.0000 0.0000 1797.3212 -7250.8186 307.7942 -9048.1398 -7250.8186 307.7942 -668.1663 -592.0080 30079.8842 -668.1663 -592.0080
ENERGY: 300000 6.0329 5.1780 7.0211 0.0000 -10611.7296 1457.6491 0.0000 0.0000 1712.3086 -7423.5397 293.2356 -9135.8484 -7333.4201 301.1735 -65.8712 41.5939 30226.6668 -436.6918 -356.3693
ENERGY: 600000 6.8718 8.9927 6.9792 0.0000 -10490.3258 1317.2104 0.0000 0.0000 1795.5463 -7354.7254 307.4902 -9150.2717 -7361.9526 300.0515 -1143.5058 -1041.6045 29900.0038 -399.6487 -309.4479
ENERGY: 900000 11.1203 9.0154 6.0546 0.0000 -10549.8230 1408.1133 0.0000 0.0000 1761.9951 -7353.5242 301.7445 -9115.5193 -7357.9356 300.6178 -354.1044 -329.6515 30399.5648 -415.2082 -338.8187
ENERGY: 1200000 6.7732 5.4604 6.6154 0.0000 -10575.0586 1381.0392 0.0000 0.0000 1785.9922 -7389.1783 305.8541 -9175.1705 -7358.9833 300.3635 -131.8696 -70.7511 29315.4270 -357.1059 -283.0214
ENERGY: 1500000 6.1132 5.1559 10.8742 0.0000 -10461.9718 1425.8454 0.0000 0.0000 1751.9282 -7262.0549 300.0205 -9013.9831 -7356.3224 300.1167 -19.4869 64.2442 30493.7131 -271.0974 -199.3669
TCL: Running FEP window  11: Lambda1 0.49999999999999994 Lambda2 0.5499999999999999 [dLambda 0.04999999999999999]
TCL: Setting parameter firsttimestep to 0
TCL: Setting parameter alchLambda to 0.49999999999999994
Info: NONBONDED TABLE R-SQUARED SPACING: 0.0625
Info: NONBONDED TABLE SIZE: 705 POINTS
TCL: Setting parameter alchLambda2 to 0.5499999999999999
Info: NONBONDED TABLE R-SQUARED SPACING: 0.0625
Info: NONBONDED TABLE SIZE: 705 POINTS
TCL: Running for 1500000 steps
ETITLE: TS BOND ANGLE DIHED IMPRP ELECT VDW BOUNDARY MISC KINETIC TOTAL TEMP POTENTIAL TOTALAVG TEMPAVG PRESSURE GPRESSURE VOLUME PRESSAVG GPRESSAVG
ENERGY: 0 6.1132 5.1559 10.8742 0.0000 -10461.9712 1425.1530 0.0000 0.0000 1751.0900 -7263.5850 299.8770 -9014.6750 -7263.5850 299.8770 -17.3328 68.3047 30493.7131 -17.3328 68.3047
ENERGY: 300000 6.5421 5.9394 3.7833 0.0000 -10449.9406 1413.4078 0.0000 0.0000 1756.6412 -7263.6269 300.8276 -9020.2680 -7278.3605 301.1985 -63.4883 23.7749 30622.1137 -226.2966 -144.9332
ENERGY: 600000 8.2302 8.6757 6.4424 0.0000 -10520.2666 1362.2301 0.0000 0.0000 1781.3962 -7353.2921 305.0670 -9134.6882 -7311.2306 301.3061 -738.5088 -711.3607 30170.0985 -328.6849 -257.6060
ENERGY: 900000 3.5892 9.2962 9.0685 0.0000 -10559.3432 1407.8913 0.0000 0.0000 1769.2138 -7360.2841 302.9807 -9129.4979 -7319.5012 301.0334 -118.9073 -34.5008 29833.9580 -341.0600 -269.8769
ENERGY: 1200000 6.7022 4.9388 7.4058 0.0000 -10430.2657 1381.9742 0.0000 0.0000 1736.0490 -7293.1957 297.3012 -9029.2447 -7320.7966 301.1751 -432.7054 -358.3909 30602.8135 -258.8714 -195.4811
ENERGY: 1500000 6.8071 6.7888 7.5260 0.0000 -10458.3702 1440.7499 0.0000 0.0000 1734.2257 -7262.2726 296.9890 -8996.4983 -7318.8169 301.0381 108.5529 131.1107 30587.9792 -252.2788 -190.0024
TCL: Running FEP window  12: Lambda1 0.5499999999999999 Lambda2 0.6    [dLambda 0.050000000000000044]
TCL: Setting parameter firsttimestep to 0
TCL: Setting parameter alchLambda to 0.5499999999999999
Info: NONBONDED TABLE R-SQUARED SPACING: 0.0625
Info: NONBONDED TABLE SIZE: 705 POINTS
TCL: Setting parameter alchLambda2 to 0.6
Info: NONBONDED TABLE R-SQUARED SPACING: 0.0625
Info: NONBONDED TABLE SIZE: 705 POINTS
TCL: Running for 1500000 steps
ETITLE: TS BOND ANGLE DIHED IMPRP ELECT VDW BOUNDARY MISC KINETIC TOTAL TEMP POTENTIAL TOTALAVG TEMPAVG PRESSURE GPRESSURE VOLUME PRESSAVG GPRESSAVG
ENERGY: 0 6.8071 6.7888 7.5260 0.0000 -10458.4190 1440.6877 0.0000 0.0000 1733.3665 -7263.2428 296.8418 -8996.6093 -7263.2428 296.8418 75.2168 138.5180 30587.9792 75.2168 138.5180
ENERGY: 300000 4.9223 9.5296 4.7642 0.0000 -10642.9855 1447.8825 0.0000 0.0000 1694.4630 -7481.4238 290.1795 -9175.8868 -7354.3120 295.6302 54.4567 158.1909 29855.6698 -90.5791 -14.8357
ENERGY: 600000 6.9341 6.0076 10.1863 0.0000 -10535.4969 1451.0785 0.0000 0.0000 1743.0186 -7318.2719 298.4948 -9061.2904 -7357.1257 297.9616 269.0804 324.0951 30227.8189 192.3202 261.9790
ENERGY: 900000 4.3199 9.2457 7.6543 0.0000 -10701.1801 1462.9664 0.0000 0.0000 1819.1573 -7397.8366 311.5336 -9216.9939 -7367.2169 299.3750 151.8209 220.3321 29808.9978 95.5692 163.7387
ENERGY: 1200000 7.4332 7.9787 9.5260 0.0000 -10682.9750 1476.3555 0.0000 0.0000 1710.5885 -7471.0931 292.9411 -9181.6816 -7375.0851 299.1493 122.3838 199.0378 30011.3933 96.0458 164.7111
ENERGY: 1500000 6.5694 5.5590 12.7783 0.0000 -10630.9564 1496.3558 0.0000 0.0000 1719.3561 -7390.3377 294.4425 -9109.6939 -7378.6105 299.1383 584.3334 705.7434 29895.7106 134.5283 198.3683
TCL: Running FEP window  13: Lambda1 0.6    Lambda2 0.65   [dLambda 0.050000000000000044]
TCL: Setting parameter firsttimestep to 0
TCL: Setting parameter alchLambda to 0.6
Info: NONBONDED TABLE R-SQUARED SPACING: 0.0625
Info: NONBONDED TABLE SIZE: 705 POINTS
TCL: Setting parameter alchLambda2 to 0.65
Info: NONBONDED TABLE R-SQUARED SPACING: 0.0625
Info: NONBONDED TABLE SIZE: 705 POINTS
TCL: Running for 1500000 steps
ETITLE: TS BOND ANGLE DIHED IMPRP ELECT VDW BOUNDARY MISC KINETIC TOTAL TEMP POTENTIAL TOTALAVG TEMPAVG PRESSURE GPRESSURE VOLUME PRESSAVG GPRESSAVG
ENERGY: 0 6.5695 5.5590 12.7783 0.0000 -10631.0643 1496.2188 0.0000 0.0000 1718.4992 -7391.4396 294.2958 -9109.9387 -7391.4396 294.2958 639.2196 717.6071 29895.7106 639.2196 717.6071
ENERGY: 300000 6.3672 5.6990 8.1050 0.0000 -10456.2504 1312.1175 0.0000 0.0000 1761.4831 -7362.4785 301.6568 -9123.9616 -7400.8433 297.6947 -959.2351 -906.2372 30052.9156 119.1946 183.2247
ENERGY: 600000 5.7870 7.2977 8.4918 0.0000 -10538.4980 1440.5991 0.0000 0.0000 1731.4879 -7344.8345 296.5201 -9076.3225 -7390.8285 299.3360 429.5393 450.5761 29942.5912 245.3127 293.5223
ENERGY: 900000 7.5072 8.5636 7.4820 0.0000 -10614.6315 1475.8279 0.0000 0.0000 1708.5937 -7406.6571 292.5994 -9115.2508 -7391.1867 297.7310 158.9217 194.4760 30140.9052 260.6738 307.5654
ENERGY: 1200000 4.7655 5.7940 11.0586 0.0000 -10599.5862 1412.9989 0.0000 0.0000 1754.5242 -7410.4450 300.4651 -9164.9692 -7377.0061 299.2788 -199.1435 -158.1628 30244.4916 128.2457 180.0307
ENERGY: 1500000 5.3550 5.1418 5.3970 0.0000 -10628.1110 1470.5893 0.0000 0.0000 1779.6960 -7361.9321 304.7758 -9141.6280 -7378.4098 299.6837 631.3064 671.7858 29722.3011 149.3660 203.4654
TCL: Running FEP window  14: Lambda1 0.65   Lambda2 0.7000000000000001 [dLambda 0.050000000000000044]
TCL: Setting parameter firsttimestep to 0
TCL: Setting parameter alchLambda to 0.65
Info: NONBONDED TABLE R-SQUARED SPACING: 0.0625
Info: NONBONDED TABLE SIZE: 705 POINTS
TCL: Setting parameter alchLambda2 to 0.7000000000000001
Info: NONBONDED TABLE R-SQUARED SPACING: 0.0625
Info: NONBONDED TABLE SIZE: 705 POINTS
TCL: Running for 1500000 steps
ETITLE: TS BOND ANGLE DIHED IMPRP ELECT VDW BOUNDARY MISC KINETIC TOTAL TEMP POTENTIAL TOTALAVG TEMPAVG PRESSURE GPRESSURE VOLUME PRESSAVG GPRESSAVG
ENERGY: 0 5.3550 5.1418 5.3970 0.0000 -10629.5382 1471.0528 0.0000 0.0000 1778.8534 -7363.7383 304.6315 -9142.5917 -7363.7383 304.6315 620.5662 689.0360 29722.3011 620.5662 689.0360
ENERGY: 300000 6.8587 6.4443 14.6186 0.0000 -10421.6086 1320.5074 0.0000 0.0000 1694.9834 -7378.1963 290.2687 -9073.1797 -7380.3300 299.1302 -1106.7233 -996.7586 30239.8435 -83.8886 -16.0252
ENERGY: 600000 4.0169 4.4279 9.7187 0.0000 -10574.7070 1398.6525 0.0000 0.0000 1748.8947 -7408.9964 299.5010 -9157.8910 -7367.4860 300.6476 -279.2941 -271.0267 30042.1581 -77.4848 -14.1983
ENERGY: 900000 6.7905 6.8409 6.5569 0.0000 -10582.5342 1432.2376 0.0000 0.0000 1752.6715 -7377.4367 300.1478 -9130.1082 -7370.3529 300.9529 -12.5399 81.3590 30032.6484 -201.9504 -138.2054
ENERGY: 1200000 6.3578 6.6913 7.4591 0.0000 -10687.6870 1403.3095 0.0000 0.0000 1740.1100 -7523.7593 297.9967 -9263.8693 -7382.0908 301.3782 -464.1072 -414.3826 29508.0074 -257.2650 -195.2041
ENERGY: 1500000 4.7600 8.8966 7.5256 0.0000 -10624.4107 1463.6899 0.0000 0.0000 1795.6978 -7343.8407 307.5162 -9139.5385 -7382.7735 300.8711 225.2570 238.2179 30084.2407 -174.7280 -122.2823
TCL: Running FEP window  15: Lambda1 0.7000000000000001 Lambda2 0.7500000000000001 [dLambda 0.050000000000000044]
TCL: Setting parameter firsttimestep to 0
TCL: Setting parameter alchLambda to 0.7000000000000001
Info: NONBONDED TABLE R-SQUARED SPACING: 0.0625
Info: NONBONDED TABLE SIZE: 705 POINTS
TCL: Setting parameter alchLambda2 to 0.7500000000000001
Info: NONBONDED TABLE R-SQUARED SPACING: 0.0625
Info: NONBONDED TABLE SIZE: 705 POINTS
TCL: Running for 1500000 steps
ETITLE: TS BOND ANGLE DIHED IMPRP ELECT VDW BOUNDARY MISC KINETIC TOTAL TEMP POTENTIAL TOTALAVG TEMPAVG PRESSURE GPRESSURE VOLUME PRESSAVG GPRESSAVG
ENERGY: 0 4.7600 8.8966 7.5256 0.0000 -10625.9631 1464.3285 0.0000 0.0000 1794.8721 -7345.5803 307.3748 -9140.4524 -7345.5803 307.3748 190.7803 253.0150 30084.2407 190.7803 253.0150
ENERGY: 300000 2.0036 5.8272 13.6495 0.0000 -10640.7485 1489.6200 0.0000 0.0000 1737.0327 -7392.6154 297.4697 -9129.6482 -7348.9580 301.8667 864.0595 912.2771 29743.9848 215.1161 279.2227
ENERGY: 600000 9.7829 6.9176 4.0012 0.0000 -10507.1553 1440.6324 0.0000 0.0000 1780.1293 -7265.6920 304.8500 -9045.8213 -7348.6369 302.4820 -118.1675 -100.1908 30583.4268 108.5319 173.2639
ENERGY: 900000 8.1411 6.6361 6.5967 0.0000 -10566.9261 1399.2645 0.0000 0.0000 1803.4709 -7342.8167 308.8473 -9146.2876 -7352.5633 300.8238 -191.7598 -138.1677 30345.9968 69.9593 138.0821
ENERGY: 1200000 3.5538 7.9629 5.7540 0.0000 -10654.8839 1555.2227 0.0000 0.0000 1695.5351 -7386.8555 290.3631 -9082.3906 -7361.4099 300.1201 1072.3254 1087.5754 30372.1899 158.8399 222.9478
ENERGY: 1500000 5.9800 7.8781 5.0958 0.0000 -10542.2025 1368.4457 0.0000 0.0000 1732.1733 -7422.6296 296.6375 -9154.8029 -7367.1489 299.6186 -504.0317 -449.6413 29938.1788 67.0563 129.2184
TCL: Running FEP window  16: Lambda1 0.7500000000000001 Lambda2 0.8000000000000002 [dLambda 0.050000000000000044]
TCL: Setting parameter firsttimestep to 0
TCL: Setting parameter alchLambda to 0.7500000000000001
Info: NONBONDED TABLE R-SQUARED SPACING: 0.0625
Info: NONBONDED TABLE SIZE: 705 POINTS
TCL: Setting parameter alchLambda2 to 0.8000000000000002
Info: NONBONDED TABLE R-SQUARED SPACING: 0.0625
Info: NONBONDED TABLE SIZE: 705 POINTS
TCL: Running for 1500000 steps
ETITLE: TS BOND ANGLE DIHED IMPRP ELECT VDW BOUNDARY MISC KINETIC TOTAL TEMP POTENTIAL TOTALAVG TEMPAVG PRESSURE GPRESSURE VOLUME PRESSAVG GPRESSAVG
ENERGY: 0 5.9800 7.8781 5.0958 0.0000 -10545.1804 1368.7516 0.0000 0.0000 1731.3273 -7426.1477 296.4926 -9157.4750 -7426.1477 296.4926 -525.5819 -440.3476 29938.1788 -525.5819 -440.3476
ENERGY: 300000 6.1319 4.7399 8.1625 0.0000 -10584.3479 1405.2262 0.0000 0.0000 1778.3016 -7381.7858 304.5370 -9160.0874 -7389.7843 303.3260 -480.1611 -415.2911 30597.9334 -100.0066 -32.7923
ENERGY: 600000 7.1928 6.3251 8.3049 0.0000 -10423.9511 1310.6544 0.0000 0.0000 1736.1761 -7355.2978 297.3230 -9091.4739 -7370.8162 301.8847 -982.7703 -886.7305 30328.6729 -124.8313 -62.7620
ENERGY: 900000 7.5394 9.9164 7.3060 0.0000 -10500.3032 1450.5547 0.0000 0.0000 1740.5412 -7284.4456 298.0705 -9024.9868 -7361.0649 301.5440 34.9555 79.6325 30705.2238 31.6868 104.4340
ENERGY: 1200000 5.6314 5.4779 7.5906 0.0000 -10630.3914 1401.5408 0.0000 0.0000 1789.6945 -7420.4562 306.4881 -9210.1507 -7364.8045 302.0728 -153.5803 -171.1276 29819.7871 -19.6451 43.2601
ENERGY: 1500000 6.6839 7.9046 5.1210 0.0000 -10534.1417 1358.7080 0.0000 0.0000 1789.7963 -7365.9279 306.5055 -9155.7242 -7366.3984 302.2650 -686.0323 -662.7094 30575.7103 -30.9841 33.0455
TCL: Running FEP window  17: Lambda1 0.8000000000000002 Lambda2 0.8500000000000002 [dLambda 0.050000000000000044]
TCL: Setting parameter firsttimestep to 0
TCL: Setting parameter alchLambda to 0.8000000000000002
Info: NONBONDED TABLE R-SQUARED SPACING: 0.0625
Info: NONBONDED TABLE SIZE: 705 POINTS
TCL: Setting parameter alchLambda2 to 0.8500000000000002
Info: NONBONDED TABLE R-SQUARED SPACING: 0.0625
Info: NONBONDED TABLE SIZE: 705 POINTS
TCL: Running for 1500000 steps
ETITLE: TS BOND ANGLE DIHED IMPRP ELECT VDW BOUNDARY MISC KINETIC TOTAL TEMP POTENTIAL TOTALAVG TEMPAVG PRESSURE GPRESSURE VOLUME PRESSAVG GPRESSAVG
ENERGY: 0 6.6839 7.9046 5.1210 0.0000 -10537.3159 1360.7433 0.0000 0.0000 1788.9315 -7367.9316 306.3574 -9156.8631 -7367.9316 306.3574 -723.4121 -633.2948 30575.7103 -723.4121 -633.2948
ENERGY: 300000 13.5234 7.2100 7.6116 0.0000 -10565.6071 1433.2340 0.0000 0.0000 1702.3981 -7401.6301 291.5384 -9104.0282 -7364.0808 301.8639 76.3706 116.3277 30036.6043 -270.8746 -183.6502
ENERGY: 600000 2.9184 8.4022 4.0819 0.0000 -10485.9570 1389.0740 0.0000 0.0000 1750.4822 -7330.9984 299.7729 -9081.4805 -7352.3898 301.0893 47.5880 79.7505 29900.0875 -215.7863 -131.1712
ENERGY: 900000 7.7777 6.4278 5.3142 0.0000 -10514.5007 1416.6330 0.0000 0.0000 1828.3941 -7249.9539 313.1155 -9078.3480 -7339.8184 302.3388 -27.6704 -13.2094 30256.2250 -179.9572 -104.3853
ENERGY: 1200000 7.7161 7.5978 10.5648 0.0000 -10701.4169 1485.3553 0.0000 0.0000 1659.3021 -7530.8808 284.1582 -9190.1829 -7370.4159 300.2847 278.6437 371.3683 29948.5342 -171.6432 -95.9220
ENERGY: 1500000 4.6100 9.8108 8.1872 0.0000 -10518.5144 1388.0348 0.0000 0.0000 1786.8800 -7320.9917 306.0061 -9107.8717 -7362.3699 300.8501 -262.8071 -182.3705 30173.2349 -113.9726 -46.1998
TCL: Running FEP window  18: Lambda1 0.8500000000000002 Lambda2 0.9000000000000002 [dLambda 0.050000000000000044]
TCL: Setting parameter firsttimestep to 0
TCL: Setting parameter alchLambda to 0.8500000000000002
Info: NONBONDED TABLE R-SQUARED SPACING: 0.0625
Info: NONBONDED TABLE SIZE: 705 POINTS
TCL: Setting parameter alchLambda2 to 0.9000000000000002
Info: NONBONDED TABLE R-SQUARED SPACING: 0.0625
Info: NONBONDED TABLE SIZE: 705 POINTS
TCL: Running for 1500000 steps
ETITLE: TS BOND ANGLE DIHED IMPRP ELECT VDW BOUNDARY MISC KINETIC TOTAL TEMP POTENTIAL TOTALAVG TEMPAVG PRESSURE GPRESSURE VOLUME PRESSAVG GPRESSAVG
ENERGY: 0 4.6100 9.8108 8.1872 0.0000 -10522.2146 1389.2169 0.0000 0.0000 1786.0435 -7324.3463 305.8628 -9110.3898 -7324.3463 305.8628 -250.6321 -158.1599 30173.2349 -250.6321 -158.1599
ENERGY: 300000 5.0087 5.6737 8.4547 0.0000 -10570.0497 1419.1105 0.0000 0.0000 1753.2863 -7378.5158 300.2531 -9131.8021 -7364.0873 302.7484 147.3415 266.9149 29835.3806 145.4899 229.3011
ENERGY: 600000 5.1579 6.1765 5.7566 0.0000 -10515.5654 1343.4305 0.0000 0.0000 1725.6830 -7429.3610 295.5260 -9155.0440 -7380.4985 300.4672 -852.3580 -795.7113 30565.0209 -46.7326 24.5247
ENERGY: 900000 5.0815 5.6969 8.4946 0.0000 -10527.5479 1386.1295 0.0000 0.0000 1742.6909 -7379.4545 298.4386 -9122.1454 -7373.8527 299.7474 -202.1082 -203.7850 30062.5503 4.4185 64.3239
ENERGY: 1200000 4.6142 6.8698 5.3971 0.0000 -10647.1964 1516.5311 0.0000 0.0000 1773.4008 -7340.3835 303.6978 -9113.7842 -7361.3252 300.4478 910.1967 952.5792 30155.4605 37.6112 98.1285
ENERGY: 1500000 8.3039 3.9943 8.1100 0.0000 -10579.9493 1409.8884 0.0000 0.0000 1692.2430 -7457.4098 289.7994 -9149.6528 -7371.7606 299.9155 -350.8567 -293.7058 30433.3616 25.7827 85.5693
TCL: Running FEP window  19: Lambda1 0.9000000000000002 Lambda2 0.9500000000000003 [dLambda 0.050000000000000044]
TCL: Setting parameter firsttimestep to 0
TCL: Setting parameter alchLambda to 0.9000000000000002
Info: NONBONDED TABLE R-SQUARED SPACING: 0.0625
Info: NONBONDED TABLE SIZE: 705 POINTS
TCL: Setting parameter alchLambda2 to 0.9500000000000003
Info: NONBONDED TABLE R-SQUARED SPACING: 0.0625
Info: NONBONDED TABLE SIZE: 705 POINTS
TCL: Running for 1500000 steps
ETITLE: TS BOND ANGLE DIHED IMPRP ELECT VDW BOUNDARY MISC KINETIC TOTAL TEMP POTENTIAL TOTALAVG TEMPAVG PRESSURE GPRESSURE VOLUME PRESSAVG GPRESSAVG
ENERGY: 0 8.3039 3.9943 8.1100 0.0000 -10583.5963 1411.4394 0.0000 0.0000 1691.4032 -7460.3456 289.6555 -9151.7488 -7460.3456 289.6555 -359.7069 -268.3109 30433.3616 -359.7069 -268.3109
ENERGY: 300000 6.5276 7.5949 8.5108 0.0000 -10569.5739 1397.9089 0.0000 0.0000 1763.0230 -7386.0086 301.9206 -9149.0316 -7402.9592 296.2259 -463.2753 -406.9263 30644.7321 -136.0563 -54.7101
ENERGY: 600000 7.8452 7.3694 6.5879 0.0000 -10520.7086 1401.3496 0.0000 0.0000 1747.9269 -7349.6296 299.3353 -9097.5566 -7387.0785 298.1300 -274.6692 -156.0352 30367.5877 -43.3535 52.9293
ENERGY: 900000 4.8980 6.6410 4.2897 0.0000 -10609.6382 1486.0155 0.0000 0.0000 1717.1282 -7390.6657 294.0610 -9107.7939 -7384.9480 297.3695 538.9295 597.9135 30003.8592 29.5082 118.7402
ENERGY: 1200000 7.4710 8.9849 5.9534 0.0000 -10491.1372 1424.3616 0.0000 0.0000 1769.9509 -7274.4155 303.1070 -9044.3663 -7360.5689 298.4408 21.4495 105.6529 30701.8709 64.2742 141.9945
ENERGY: 1500000 4.2231 5.6252 7.5658 0.0000 -10496.5220 1419.1860 0.0000 0.0000 1799.6055 -7260.3164 308.1854 -9059.9219 -7365.0877 299.5316 76.0059 146.9669 30551.7227 118.8708 192.9809
TCL: Running FEP window  20: Lambda1 0.9500000000000003 Lambda2 1.0    [dLambda 0.04999999999999971]
TCL: Setting parameter firsttimestep to 0
TCL: Setting parameter alchLambda to 0.9500000000000003
Info: NONBONDED TABLE R-SQUARED SPACING: 0.0625
Info: NONBONDED TABLE SIZE: 705 POINTS
TCL: Setting parameter alchLambda2 to 1.0
Info: NONBONDED TABLE R-SQUARED SPACING: 0.0625
Info: NONBONDED TABLE SIZE: 705 POINTS
TCL: Running for 1500000 steps
ETITLE: TS BOND ANGLE DIHED IMPRP ELECT VDW BOUNDARY MISC KINETIC TOTAL TEMP POTENTIAL TOTALAVG TEMPAVG PRESSURE GPRESSURE VOLUME PRESSAVG GPRESSAVG
ENERGY: 0 4.2231 5.6252 7.5658 0.0000 -10500.1978 1420.8432 0.0000 0.0000 1798.7471 -7263.1933 308.0384 -9061.9404 -7263.1933 308.0384 101.5936 181.1692 30551.7227 101.5936 181.1692
ENERGY: 300000 5.3748 9.3466 8.2020 0.0000 -10682.0120 1519.9944 0.0000 0.0000 1757.9405 -7381.1538 301.0502 -9139.0943 -7356.6699 303.5948 689.1366 753.4038 30351.7017 -37.9929 45.1241
ENERGY: 600000 3.7469 5.6159 13.7133 0.0000 -10696.0810 1496.9332 0.0000 0.0000 1810.9318 -7365.1399 310.1250 -9176.0717 -7360.0630 302.0048 432.9742 433.9905 30137.6884 16.4986 70.5413
ENERGY: 900000 6.2778 5.8139 6.2895 0.0000 -10678.4836 1486.7059 0.0000 0.0000 1756.0503 -7417.3462 300.7265 -9173.3965 -7371.4112 300.4628 465.1306 515.4499 30143.0425 106.9804 151.7552
ENERGY: 1200000 6.3378 6.7751 6.3529 0.0000 -10644.1336 1438.4673 0.0000 0.0000 1722.3772 -7463.8234 294.9599 -9186.2005 -7383.2650 300.0517 -320.0805 -182.4243 30328.8777 9.7437 66.3030
ENERGY: 1500000 7.3000 4.2740 11.5659 0.0000 -10453.9644 1400.8526 0.0000 0.0000 1718.8452 -7311.1266 294.3550 -9029.9718 -7384.6648 300.0703 -216.1812 -117.5749 30301.2940 26.0384 89.1262
TCL: Exiting due to exit command.
