Info: SIMULATION PARAMETERS:
Info: TIMESTEP               2
Info: NUMBER OF STEPS        0
Info: STEPS PER CYCLE        10
Info: PERIODIC CELL BASIS 1  30.9825 0 0
Info: PERIODIC CELL BASIS 2  0 31.6848 0
Info: PERIODIC CELL BASIS 3  0 0 31.6352
Info: PERIODIC CELL CENTER   0 0 0
Info: WRAPPING WATERS AROUND PERIODIC BOUNDARIES ON OUTPUT.
Info: WRAPPING ALL CLUSTERS AROUND PERIODIC BOUNDARIES ON OUTPUT.
Info: FIRST LDB TIMESTEP     50
Info: LAST LDB TIMESTEP     -1
Info: HOM BACKGROUND SCALING 1
Info: PME BACKGROUND SCALING 1
Info: MIN ATOMS PER PATCH    40
Info: EMPTY PATCH LOAD       40 ATOMS
Info: VELOCITY FILE          mobley_2727678_equil.vel
Info: CENTER OF MASS MOVING INITIALLY? NO
Info: DIELECTRIC             1
Info: EXCLUDE                SCALED ONE-FOUR
Info: 1-4 ELECTROSTATICS SCALED BY 0.833333
Info: MODIFIED 1-4 VDW PARAMETERS WILL BE USED
Info: DCD FILENAME           mobley_2727678_prod.dcd
Info: DCD FREQUENCY          100000
Info: DCD FIRST STEP         100000
Info: DCD FILE WILL CONTAIN UNIT CELL DATA
Info: XST FILENAME           mobley_2727678_prod.xst
Info: XST FREQUENCY          100000
Info: NO VELOCITY DCD OUTPUT
Info: NO FORCE DCD OUTPUT
Info: OUTPUT FILENAME        mobley_2727678_prod
Info: BINARY OUTPUT FILES WILL BE USED
Info: RESTART FILENAME       mobley_2727678_prod.restart
Info: RESTART FREQUENCY      100000
Info: BINARY RESTART FILES WILL BE USED
Info: CUTOFF                 9
Info: PAIRLIST DISTANCE      11
Info: PAIRLIST SHRINK RATE   0.01
Info: PAIRLIST GROW RATE     0.01
Info: PAIRLIST TRIGGER       0.3
Info: PAIRLISTS PER CYCLE    2
Info: PAIRLISTS ENABLED
Info: MARGIN                 2
Info: HYDROGEN GROUP CUTOFF  2.5
Info: PATCH DIMENSION        15.5
Info: ENERGY OUTPUT STEPS    100000
Info: ENERGY EVALUATION STEPS    100000
Info: OUTPUT ENERGY PRECISION 4
Info: CROSSTERM ENERGY INCLUDED IN DIHEDRAL
Info: TIMING OUTPUT STEPS    1000000
Info: PRESSURE OUTPUT STEPS  100000
Info: ALCHEMICAL FEP ON
Info: FEP CURRENT LAMBDA VALUE     1
Info: FEP COMPARISON LAMBDA VALUE  0.95
Info: FEP INTRA-ALCHEMICAL NON-BONDED INTERACTIONS WILL BE RETAINED
Info: FEP INTRA-ALCHEMICAL BONDED INTERACTIONS WILL BE RETAINED
Info: FEP VDW SHIFTING COEFFICIENT 5
Info: FEP ELEC. ACTIVE FOR ANNIHILATED PARTICLES BETWEEN LAMBDA = 0 AND LAMBDA = 0.5
Info: FEP ELEC. ACTIVE FOR EXNIHILATED PARTICLES BETWEEN LAMBDA = 0.5 AND LAMBDA = 1
Info: FEP VDW ACTIVE FOR ANNIHILATED PARTICLES BETWEEN LAMBDA = 0 AND LAMBDA = 1
Info: FEP VDW ACTIVE FOR EXNIHILATED PARTICLES BETWEEN LAMBDA = 0 AND LAMBDA = 1
Info: FEP BOND ACTIVE FOR ANNIHILATED PARTICLES BETWEEN LAMBDA = 1 AND LAMBDA = 1
Info: FEP BOND ACTIVE FOR EXNIHILATED PARTICLES BETWEEN LAMBDA = 0 AND LAMBDA = 0
Info: LANGEVIN DYNAMICS ACTIVE
Info: LANGEVIN TEMPERATURE   300
Info: LANGEVIN USING BBK INTEGRATOR
Info: LANGEVIN DAMPING COEFFICIENT IS 1 INVERSE PS
Info: LANGEVIN DYNAMICS APPLIED TO HYDROGENS
Info: LANGEVIN PISTON PRESSURE CONTROL ACTIVE
Info:        TARGET PRESSURE IS 1.01325 BAR
Info:     OSCILLATION PERIOD IS 50 FS
Info:             DECAY TIME IS 25 FS
Info:     PISTON TEMPERATURE IS 300 K
Info:       PRESSURE CONTROL IS GROUP-BASED
Info:    INITIAL STRAIN RATE IS 0.000243072 0.000243072 0.000243072
Info:       CELL FLUCTUATION IS ISOTROPIC
Info: PARTICLE MESH EWALD (PME) ACTIVE
Info: PME TOLERANCE               1e-06
Info: PME EWALD COEFFICIENT       0.348832
Info: PME INTERPOLATION ORDER     4
Info: PME GRID DIMENSIONS         32 32 32
Info: PME MAXIMUM GRID SPACING    1
Info: PME CALCULATION WILL BE PERFORMED ON GPU
Info: FULL ELECTROSTATIC EVALUATION FREQUENCY      2
Info: USING VERLET I (r-RESPA) MTS SCHEME.
Info: C1 SPLITTING OF LONG RANGE ELECTROSTATICS
Info: PLACING ATOMS IN PATCHES BY HYDROGEN GROUPS
Info: RIGID BONDS TO HYDROGEN : ALL
Info:         ERROR TOLERANCE : 1e-08
Info:          MAX ITERATIONS : 100
Info: RIGID WATER USING SETTLE ALGORITHM
Info: RANDOM NUMBER SEED     1743537690
Info: USE HYDROGEN BONDS?    NO
Info: Using AMBER format force field!
Info: AMBER PARM FILE        mobley_2727678.prmtop
Info: COORDINATE PDB         mobley_2727678.pdb
Info: Exclusions will be read from PARM file!
Info: SCNB (VDW SCALING)     2
Info: USING ARITHMETIC MEAN TO COMBINE L-J SIGMA PARAMETERS
Info: BINARY COORDINATES     mobley_2727678_equil.coor
Info: SUMMARY OF PARAMETERS:
Info: 10 BONDS
Info: 14 ANGLES
Info:   14 HARMONIC
Info:   0 COSINE-BASED
Info: 7 DIHEDRAL
Info: 0 IMPROPER
Info: 0 CROSSTERM
Info: 0 VDW
Info: 36 VDW_PAIRS
Info: 0 NBTHOLE_PAIRS
Info: To read alchdata from file: mobley_2727678.pdb
Info: To read alchflag data from column: 5
Info: STRUCTURE SUMMARY:
Info: 2964 ATOMS
Info: 2964 BONDS
Info: 18 ANGLES
Info: 33 DIHEDRALS
Info: 0 IMPROPERS
Info: 0 CROSSTERMS
Info: 3003 EXCLUSIONS
Info: 2955 RIGID BONDS
Info: ALCH: 0 ATOMS TO DISAPPEAR IN FINAL STATE
Info: ALCH: 12 ATOMS TO APPEAR IN FINAL STATE
Info: 5937 DEGREES OF FREEDOM
Info: 993 HYDROGEN GROUPS
Info: 3 ATOMS IN LARGEST HYDROGEN GROUP
Info: 993 MIGRATION GROUPS
Info: 3 ATOMS IN LARGEST MIGRATION GROUP
Info: TOTAL MASS = 17965.7 amu
Info: TOTAL CHARGE = 0.000100046 e
Info: MASS DENSITY = 0.960651 g/cm^3
Info: ATOM DENSITY = 0.095442 atoms/A^3
Info: ADDED 0 IMPLICIT EXCLUSIONS
Info: NONBONDED TABLE R-SQUARED SPACING: 0.0625
Info: NONBONDED TABLE SIZE: 705 POINTS
Info: REMOVING COM VELOCITY -0.0447222 -0.134359 -0.0253506
Info: Use 3D box decompostion in PME FFT.
Info: Updated CUDA force table with 4096 elements.
Info: Updated CUDA LJ table with 8 x 8 elements.
Info: Found 14 unique exclusion lists needing 24 bytes
TCL: Running for 1500000 steps
ETITLE: TS BOND ANGLE DIHED IMPRP ELECT VDW BOUNDARY MISC KINETIC TOTAL TEMP POTENTIAL TOTALAVG TEMPAVG PRESSURE GPRESSURE VOLUME PRESSAVG GPRESSAVG
ENERGY: 0 4.0892 1.9680 15.8775 0.0000 -10892.2970 1477.4334 0.0000 0.0000 1744.3990 -7648.5300 295.7121 -9392.9289 -7648.5300 295.7121 194.1379 282.5463 31055.5030 194.1379 282.5463
ENERGY: 300000 2.3700 4.9389 16.1561 0.0000 -11107.8425 1514.0706 0.0000 0.0000 1782.0693 -7788.2377 302.0981 -9570.3070 -7705.3410 299.5398 437.0971 555.4396 30074.7412 174.6806 243.5199
ENERGY: 600000 1.4301 2.0351 14.6180 0.0000 -10828.5960 1393.8852 0.0000 0.0000 1785.4315 -7631.1961 302.6680 -9416.6276 -7696.7747 300.2349 -376.3117 -346.8413 30984.7294 60.0021 116.9523
ENERGY: 900000 0.8838 2.6360 15.6434 0.0000 -10940.9830 1444.2295 0.0000 0.0000 1761.9622 -7715.6281 298.6895 -9477.5903 -7692.1413 300.1970 52.1923 109.5427 30292.8438 83.4785 132.9260
ENERGY: 1200000 1.7593 3.4398 14.8733 0.0000 -10868.0502 1358.5149 0.0000 0.0000 1805.2835 -7684.1795 306.0333 -9489.4630 -7690.7877 300.5048 -850.0430 -790.6152 30718.1856 -11.3651 45.4463
ENERGY: 1500000 4.1895 2.6693 14.8338 0.0000 -10948.6931 1393.2119 0.0000 0.0000 1766.7977 -7766.9909 299.5092 -9533.7887 -7692.7185 300.0614 -476.6443 -434.1570 30412.7330 -135.7433 -82.5746
TCL: Running FEP window   2: Lambda1 0.95   Lambda2 0.8999999999999999 [dLambda -0.050000000000000044]
TCL: Setting parameter firsttimestep to 0
TCL: Setting parameter alchLambda to 0.95
Info: NONBONDED TABLE R-SQUARED SPACING: 0.0625
Info: NONBONDED TABLE SIZE: 705 POINTS
TCL: Setting parameter alchLambda2 to 0.8999999999999999
Info: NONBONDED TABLE R-SQUARED SPACING: 0.0625
Info: NONBONDED TABLE SIZE: 705 POINTS
TCL: Running for 1500000 steps
ETITLE: TS BOND ANGLE DIHED IMPRP ELECT VDW BOUNDARY MISC KINETIC TOTAL TEMP POTENTIAL TOTALAVG TEMPAVG PRESSURE GPRESSURE VOLUME PRESSAVG GPRESSAVG
ENERGY: 0 4.1895 2.6693 14.8338 0.0000 -10944.3149 1392.3013 0.0000 0.0000 1765.8933 -7764.4276 299.3559 -9530.3210 -7764.4276 299.3559 -533.6210 -451.9345 30412.7330 -533.6210 -451.9345
ENERGY: 300000 1.7534 3.6151 13.0646 0.0000 -10930.1762 1413.7096 0.0000 0.0000 1769.3381 -7728.6954 299.9398 -9498.0335 -7726.9746 299.2195 -373.7076 -254.2530 30561.5343 -377.5797 -289.2838
ENERGY: 600000 2.0020 3.3040 16.1907 0.0000 -10868.7160 1452.5893 0.0000 0.0000 1814.3525 -7580.2775 307.5707 -9394.6300 -7701.8262 300.5830 479.1324 485.5488 30373.4057 -105.8770 -51.0771
ENERGY: 900000 2.9878 5.7720 14.0554 0.0000 -10959.4249 1419.7475 0.0000 0.0000 1768.1478 -7748.7144 299.7381 -9516.8622 -7697.2024 300.2315 -306.2358 -224.8862 30631.5212 -44.3033 8.0011
ENERGY: 1200000 4.6838 4.2530 15.9281 0.0000 -10817.5439 1404.5927 0.0000 0.0000 1778.5978 -7609.4884 301.5096 -9388.0862 -7687.8564 299.4811 -85.7916 -71.4993 31003.6934 -146.6186 -95.9074
ENERGY: 1500000 4.3532 3.5057 13.4746 0.0000 -11118.0555 1561.7903 0.0000 0.0000 1812.5511 -7722.3806 307.2654 -9534.9317 -7700.2510 299.2301 852.5186 964.3036 30392.4040 -87.1681 -29.3878
TCL: Running FEP window   3: Lambda1 0.8999999999999999 Lambda2 0.8499999999999999 [dLambda -0.050000000000000044]
TCL: Setting parameter firsttimestep to 0
TCL: Setting parameter alchLambda to 0.8999999999999999
Info: NONBONDED TABLE R-SQUARED SPACING: 0.0625
Info: NONBONDED TABLE SIZE: 705 POINTS
TCL: Setting parameter alchLambda2 to 0.8499999999999999
Info: NONBONDED TABLE R-SQUARED SPACING: 0.0625
Info: NONBONDED TABLE SIZE: 705 POINTS
TCL: Running for 1500000 steps
ETITLE: TS BOND ANGLE DIHED IMPRP ELECT VDW BOUNDARY MISC KINETIC TOTAL TEMP POTENTIAL TOTALAVG TEMPAVG PRESSURE GPRESSURE VOLUME PRESSAVG GPRESSAVG
ENERGY: 0 4.3532 3.5057 13.4746 0.0000 -11113.2515 1560.6429 0.0000 0.0000 1811.6732 -7719.6019 307.1165 -9531.2751 -7719.6019 307.1165 861.2990 942.6612 30392.4040 861.2990 942.6612
ENERGY: 300000 2.1812 5.8265 16.6693 0.0000 -11154.4510 1519.3820 0.0000 0.0000 1702.9195 -7907.4724 288.6805 -9610.3919 -7760.0325 299.9059 192.2248 200.4333 30247.2322 479.5191 523.7833
ENERGY: 600000 1.9116 2.1570 15.5499 0.0000 -11019.5592 1504.5917 0.0000 0.0000 1807.9462 -7687.4027 306.4847 -9495.3489 -7736.8826 299.6211 415.7543 412.6784 30600.2222 265.6043 312.4232
ENERGY: 900000 2.3332 3.9642 14.2873 0.0000 -10879.5065 1372.8962 0.0000 0.0000 1804.5916 -7681.4341 305.9160 -9486.0256 -7728.1090 299.4407 -563.8015 -508.6302 30402.1045 74.4090 119.6979
ENERGY: 1200000 4.4407 6.9958 13.7775 0.0000 -10959.1816 1481.0306 0.0000 0.0000 1769.3289 -7683.6081 299.9383 -9452.9370 -7719.8971 299.6714 386.9588 477.8246 30129.8042 170.2055 220.7379
ENERGY: 1500000 2.8157 5.4268 16.3944 0.0000 -11066.6277 1506.3060 0.0000 0.0000 1752.9024 -7782.7823 297.1537 -9535.6848 -7720.6891 298.7786 239.4512 317.1090 30676.3615 185.0111 237.4049
TCL: Running FEP window   4: Lambda1 0.8499999999999999 Lambda2 0.7999999999999998 [dLambda -0.050000000000000044]
TCL: Setting parameter firsttimestep to 0
TCL: Setting parameter alchLambda to 0.8499999999999999
Info: NONBONDED TABLE R-SQUARED SPACING: 0.0625
Info: NONBONDED TABLE SIZE: 705 POINTS
TCL: Setting parameter alchLambda2 to 0.7999999999999998
Info: NONBONDED TABLE R-SQUARED SPACING: 0.0625
Info: NONBONDED TABLE SIZE: 705 POINTS
TCL: Running for 1500000 steps
ETITLE: TS BOND ANGLE DIHED IMPRP ELECT VDW BOUNDARY MISC KINETIC TOTAL TEMP POTENTIAL TOTALAVG TEMPAVG PRESSURE GPRESSURE VOLUME PRESSAVG GPRESSAVG
ENERGY: 0 2.8157 5.4268 16.3944 0.0000 -11063.0477 1504.9706 0.0000 0.0000 1752.0401 -7781.4001 297.0075 -9533.4402 -7781.4001 297.0075 213.6794 297.8906 30676.3615 213.6794 297.8906
ENERGY: 300000 2.5156 5.7655 13.3678 0.0000 -10967.6516 1447.1034 0.0000 0.0000 1729.0345 -7769.8647 293.1075 -9498.8992 -7744.0946 297.0816 194.6335 289.0633 30064.3294 139.4561 219.2337
ENERGY: 600000 2.6144 4.2654 14.3559 0.0000 -11046.5320 1514.1520 0.0000 0.0000 1787.9417 -7723.2027 303.0935 -9511.1443 -7748.4422 296.7809 488.9777 539.0509 30464.6010 230.1863 308.0963
ENERGY: 900000 1.9774 2.3053 15.2710 0.0000 -10847.9301 1401.6548 0.0000 0.0000 1780.3484 -7646.3732 301.8063 -9426.7216 -7730.7082 298.2256 -118.3093 -76.9693 30276.6776 126.0427 189.3023
ENERGY: 1200000 1.8648 7.4723 14.1211 0.0000 -10839.7896 1365.6529 0.0000 0.0000 1765.4998 -7685.1788 299.2892 -9450.6785 -7711.7506 299.4375 -766.7860 -701.0067 30618.0215 78.5615 142.3185
ENERGY: 1500000 4.5384 5.3950 15.7132 0.0000 -10868.1226 1444.5702 0.0000 0.0000 1754.5818 -7643.3239 297.4384 -9397.9057 -7701.9387 300.2576 55.4625 90.3079 30564.1014 72.2220 131.1445
TCL: Running FEP window   5: Lambda1 0.7999999999999998 Lambda2 0.7499999999999998 [dLambda -0.050000000000000044]
TCL: Setting parameter firsttimestep to 0
TCL: Setting parameter alchLambda to 0.7999999999999998
Info: NONBONDED TABLE R-SQUARED SPACING: 0.0625
Info: NONBONDED TABLE SIZE: 705 POINTS
TCL: Setting parameter alchLambda2 to 0.7499999999999998
Info: NONBONDED TABLE R-SQUARED SPACING: 0.0625
Info: NONBONDED TABLE SIZE: 705 POINTS
TCL: Running for 1500000 steps
ETITLE: TS BOND ANGLE DIHED IMPRP ELECT VDW BOUNDARY MISC KINETIC TOTAL TEMP POTENTIAL TOTALAVG TEMPAVG PRESSURE GPRESSURE VOLUME PRESSAVG GPRESSAVG
ENERGY: 0 4.5384 5.3950 15.7132 0.0000 -10864.8620 1443.9177 0.0000 0.0000 1753.6824 -7641.6153 297.2859 -9395.2977 -7641.6153 297.2859 -1.1727 77.9751 30564.1014 -1.1727 77.9751
ENERGY: 300000 2.2178 3.2519 13.6258 0.0000 -10947.2376 1438.3311 0.0000 0.0000 1780.9503 -7708.8607 301.9084 -9489.8110 -7659.8081 300.9019 -163.5233 -60.8682 30618.0901 -68.7591 14.1607
ENERGY: 600000 4.2099 5.0460 14.0226 0.0000 -10946.9524 1429.9427 0.0000 0.0000 1727.5594 -7766.1719 292.8575 -9493.7313 -7694.1179 299.6556 -609.8756 -560.9887 31010.0456 -75.9787 8.1491
ENERGY: 900000 4.8361 4.1873 16.9483 0.0000 -10881.5265 1411.3372 0.0000 0.0000 1749.7858 -7694.4318 296.6253 -9444.2176 -7698.2012 298.5153 -141.5778 -86.5271 30586.7475 -193.4282 -117.1664
ENERGY: 1200000 3.9915 3.4435 15.0812 0.0000 -11098.4765 1488.0266 0.0000 0.0000 1777.1548 -7810.7789 301.2649 -9587.9337 -7706.1614 299.7154 129.8949 145.4340 30326.0277 -79.2867 -7.9614
ENERGY: 1500000 7.4683 4.3270 14.0376 0.0000 -11052.8354 1487.7157 0.0000 0.0000 1777.9929 -7761.2939 301.4070 -9539.2868 -7700.9424 300.1697 109.3040 106.1888 30339.2422 -99.0538 -33.3221
TCL: Running FEP window   6: Lambda1 0.7499999999999998 Lambda2 0.6999999999999997 [dLambda -0.050000000000000044]
TCL: Setting parameter firsttimestep to 0
TCL: Setting parameter alchLambda to 0.7499999999999998
Info: NONBONDED TABLE R-SQUARED SPACING: 0.0625
Info: NONBONDED TABLE SIZE: 705 POINTS
TCL: Setting parameter alchLambda2 to 0.6999999999999997
Info: NONBONDED TABLE R-SQUARED SPACING: 0.0625
Info: NONBONDED TABLE SIZE: 705 POINTS
TCL: Running for 1500000 steps
ETITLE: TS BOND ANGLE DIHED IMPRP ELECT VDW BOUNDARY MISC KINETIC TOTAL TEMP POTENTIAL TOTALAVG TEMPAVG PRESSURE GPRESSURE VOLUME PRESSAVG GPRESSAVG
ENERGY: 0 7.4683 4.3270 14.0376 0.0000 -11050.4138 1486.9756 0.0000 0.0000 1777.0784 -7760.5268 301.2520 -9537.6052 -7760.5268 301.2520 12.7541 91.6796 30339.2422 12.7541 91.6796
ENERGY: 300000 1.6596 5.4969 13.7585 0.0000 -10914.1864 1443.8346 0.0000 0.0000 1779.3474 -7670.0895 301.6366 -9449.4368 -7688.6027 301.0438 140.6783 226.1708 30476.3385 24.7233 100.3806
ENERGY: 600000 2.7980 4.6301 16.3540 0.0000 -10927.3634 1448.9022 0.0000 0.0000 1768.2618 -7686.4173 299.7574 -9454.6791 -7687.7154 301.3270 -43.8441 14.1139 30738.3963 43.0031 108.8997
ENERGY: 900000 2.5934 6.5081 12.7366 0.0000 -10873.6284 1440.6769 0.0000 0.0000 1745.8868 -7665.2265 295.9644 -9411.1133 -7678.2374 301.1464 54.3626 63.5379 30464.7351 -12.9366 44.6449
ENERGY: 1200000 4.2460 2.4170 16.6314 0.0000 -10822.3671 1410.8848 0.0000 0.0000 1797.5322 -7590.6557 304.7193 -9388.1879 -7679.3372 300.3346 63.2541 89.7826 30302.9189 -119.5504 -70.2151
ENERGY: 1500000 5.5712 4.5313 14.5520 0.0000 -10897.0082 1399.3266 0.0000 0.0000 1679.0109 -7794.0161 284.6275 -9473.0270 -7685.5630 299.6707 -629.2628 -551.3776 30773.6630 -112.9257 -64.5561
TCL: Running FEP window   7: Lambda1 0.6999999999999997 Lambda2 0.6499999999999997 [dLambda -0.050000000000000044]
TCL: Setting parameter firsttimestep to 0
TCL: Setting parameter alchLambda to 0.6999999999999997
Info: NONBONDED TABLE R-SQUARED SPACING: 0.0625
Info: NONBONDED TABLE SIZE: 705 POINTS
TCL: Setting parameter alchLambda2 to 0.6499999999999997
Info: NONBONDED TABLE R-SQUARED SPACING: 0.0625
Info: NONBONDED TABLE SIZE: 705 POINTS
TCL: Running for 1500000 steps
ETITLE: TS BOND ANGLE DIHED IMPRP ELECT VDW BOUNDARY MISC KINETIC TOTAL TEMP POTENTIAL TOTALAVG TEMPAVG PRESSURE GPRESSURE VOLUME PRESSAVG GPRESSAVG
ENERGY: 0 5.5712 4.5313 14.5520 0.0000 -10893.5818 1399.4335 0.0000 0.0000 1678.0700 -7791.4237 284.4680 -9469.4937 -7791.4237 284.4680 -632.9718 -555.8593 30773.6630 -632.9718 -555.8593
ENERGY: 300000 2.3335 3.8703 16.8405 0.0000 -11159.5153 1604.3456 0.0000 0.0000 1774.7688 -7757.3565 300.8605 -9532.1253 -7735.4899 294.6055 934.9243 1008.9738 30461.4344 329.9878 378.2838
ENERGY: 600000 2.6596 4.9410 15.3911 0.0000 -10962.8863 1451.6844 0.0000 0.0000 1703.9508 -7784.2595 288.8553 -9488.2103 -7719.0352 294.6807 -162.3123 -93.5383 30775.1494 209.4245 257.7577
ENERGY: 900000 3.2097 5.6450 16.8306 0.0000 -11069.1011 1523.1622 0.0000 0.0000 1781.1937 -7739.0599 301.9496 -9520.2536 -7716.0387 295.7919 292.5417 361.2673 30522.7687 158.8774 209.2239
ENERGY: 1200000 7.5734 2.8449 16.5319 0.0000 -10935.2140 1486.9481 0.0000 0.0000 1780.4658 -7640.8499 301.8262 -9421.3157 -7703.5676 296.2926 274.6537 313.9223 30477.1123 90.9382 143.0305
ENERGY: 1500000 2.3239 2.8409 15.2295 0.0000 -10921.2254 1450.7383 0.0000 0.0000 1775.5744 -7674.5184 300.9970 -9450.0928 -7708.2909 296.4342 -132.9254 -40.7566 30969.6022 24.0644 81.0146
TCL: Running FEP window   8: Lambda1 0.6499999999999997 Lambda2 0.5999999999999996 [dLambda -0.050000000000000044]
TCL: Setting parameter firsttimestep to 0
TCL: Setting parameter alchLambda to 0.6499999999999997
Info: NONBONDED TABLE R-SQUARED SPACING: 0.0625
Info: NONBONDED TABLE SIZE: 705 POINTS
TCL: Setting parameter alchLambda2 to 0.5999999999999996
Info: NONBONDED TABLE R-SQUARED SPACING: 0.0625
Info: NONBONDED TABLE SIZE: 705 POINTS
TCL: Running for 1500000 steps
ETITLE: TS BOND ANGLE DIHED IMPRP ELECT VDW BOUNDARY MISC KINETIC TOTAL TEMP POTENTIAL TOTALAVG TEMPAVG PRESSURE GPRESSURE VOLUME PRESSAVG GPRESSAVG
ENERGY: 0 2.3239 2.8409 15.2295 0.0000 -10918.6053 1450.8066 0.0000 0.0000 1774.7011 -7672.7033 300.8490 -9447.4044 -7672.7033 300.8490 -126.5566 -44.8820 30969.6022 -126.5566 -44.8820
ENERGY: 300000 2.0048 3.0981 17.9351 0.0000 -10818.0691 1358.0845 0.0000 0.0000 1820.8891 -7616.0574 308.6788 -9436.9465 -7653.2784 299.3839 -816.1733 -740.5508 30622.1636 -334.2586 -240.4306
ENERGY: 600000 1.9162 4.1207 14.3583 0.0000 -10909.6741 1454.6156 0.0000 0.0000 1764.3896 -7670.2737 299.1010 -9434.6633 -7663.9669 299.7028 235.2056 313.5699 30100.3291 -238.0681 -146.0988
ENERGY: 900000 2.3776 5.3858 14.5766 0.0000 -10964.2029 1477.5743 0.0000 0.0000 1755.4134 -7708.8752 297.5793 -9464.2886 -7683.1069 298.5826 377.4464 436.4108 30235.5039 -76.8653 3.9474
ENERGY: 1200000 7.6598 2.6716 16.3102 0.0000 -10895.1773 1442.4598 0.0000 0.0000 1778.9511 -7647.1248 301.5694 -9426.0759 -7685.2084 299.6153 -116.0482 -23.2947 30907.3967 -77.4254 3.9297
ENERGY: 1500000 4.6949 3.7446 14.4380 0.0000 -10740.0052 1368.3418 0.0000 0.0000 1750.7035 -7598.0824 296.7809 -9348.7859 -7675.5353 300.4394 -485.6501 -491.2254 30933.1762 -136.7124 -62.2880
TCL: Running FEP window   9: Lambda1 0.5999999999999996 Lambda2 0.5499999999999996 [dLambda -0.050000000000000044]
TCL: Setting parameter firsttimestep to 0
TCL: Setting parameter alchLambda to 0.5999999999999996
Info: NONBONDED TABLE R-SQUARED SPACING: 0.0625
Info: NONBONDED TABLE SIZE: 705 POINTS
TCL: Setting parameter alchLambda2 to 0.5499999999999996
Info: NONBONDED TABLE R-SQUARED SPACING: 0.0625
Info: NONBONDED TABLE SIZE: 705 POINTS
TCL: Running for 1500000 steps
ETITLE: TS BOND ANGLE DIHED IMPRP ELECT VDW BOUNDARY MISC KINETIC TOTAL TEMP POTENTIAL TOTALAVG TEMPAVG PRESSURE GPRESSURE VOLUME PRESSAVG GPRESSAVG
ENERGY: 0 4.6949 3.7446 14.4380 0.0000 -10737.6819 1368.3443 0.0000 0.0000 1749.8189 -7596.6412 296.6309 -9346.4601 -7596.6412 296.6309 -569.5251 -493.5398 30933.1762 -569.5251 -493.5398
ENERGY: 300000 4.5820 6.6373 13.1647 0.0000 -10968.6361 1438.1507 0.0000 0.0000 1767.5330 -7738.5684 299.6338 -9506.1014 -7694.2612 297.9325 -236.3881 -165.7089 30509.2285 -469.6626 -408.3808
ENERGY: 600000 4.8974 4.3530 13.1245 0.0000 -10894.6426 1481.2571 0.0000 0.0000 1743.8813 -7647.1293 295.6244 -9391.0106 -7693.7309 298.2060 303.9458 389.9476 30613.3388 -288.4462 -220.7824
ENERGY: 900000 3.0373 3.0530 14.9436 0.0000 -10928.2265 1442.0370 0.0000 0.0000 1743.7824 -7721.3732 295.6076 -9465.1556 -7685.5133 299.3087 -23.3370 -4.5045 30406.5184 -179.8378 -124.5050
ENERGY: 1200000 2.0638 3.1310 15.0415 0.0000 -10903.2244 1409.7026 0.0000 0.0000 1752.2804 -7721.0051 297.0482 -9473.2855 -7678.4968 300.5608 -577.2919 -536.5135 30989.6904 -106.1500 -46.4843
ENERGY: 1500000 1.8348 6.2125 15.8078 0.0000 -10975.1629 1507.2695 0.0000 0.0000 1739.7980 -7704.2403 294.9322 -9444.0383 -7675.4417 299.7907 161.2053 256.4164 30802.0610 -137.6271 -68.2448
TCL: Running FEP window  10: Lambda1 0.5499999999999996 Lambda2 0.4999999999999996 [dLambda -0.04999999999999999]
TCL: Setting parameter firsttimestep to 0
TCL: Setting parameter alchLambda to 0.5499999999999996
Info: NONBONDED TABLE R-SQUARED SPACING: 0.0625
Info: NONBONDED TABLE SIZE: 705 POINTS
TCL: Setting parameter alchLambda2 to 0.4999999999999996
Info: NONBONDED TABLE R-SQUARED SPACING: 0.0625
Info: NONBONDED TABLE SIZE: 705 POINTS
TCL: Running for 1500000 steps
ETITLE: TS BOND ANGLE DIHED IMPRP ELECT VDW BOUNDARY MISC KINETIC TOTAL TEMP POTENTIAL TOTALAVG TEMPAVG PRESSURE GPRESSURE VOLUME PRESSAVG GPRESSAVG
ENERGY: 0 1.8348 6.2125 15.8078 0.0000 -10973.1143 1507.0800 0.0000 0.0000 1738.8920 -7703.2873 294.7786 -9442.1793 -7703.2873 294.7786 178.4859 251.2116 30802.0610 178.4859 251.2116
ENERGY: 300000 2.8407 4.3644 14.6078 0.0000 -10836.6924 1403.0810 0.0000 0.0000 1761.7987 -7649.9998 298.6618 -9411.7984 -7705.8216 298.3674 -640.7689 -543.6565 31199.8296 -16.5885 61.3015
ENERGY: 600000 3.5879 4.4978 16.0647 0.0000 -10838.7363 1373.9827 0.0000 0.0000 1814.4620 -7626.1412 307.5893 -9440.6033 -7679.7628 301.1510 -540.8329 -448.4334 30597.6966 67.1305 149.8568
ENERGY: 900000 1.1398 4.0518 13.8641 0.0000 -10927.3500 1489.8615 0.0000 0.0000 1791.7402 -7626.6925 303.7375 -9418.4327 -7676.7815 301.0389 200.6811 272.1801 30755.9003 126.1036 209.2403
ENERGY: 1200000 4.4219 5.2565 16.3883 0.0000 -11014.6045 1502.0064 0.0000 0.0000 1779.3484 -7707.1829 301.6368 -9486.5313 -7668.8032 301.8927 285.7213 372.3884 30402.9490 136.3726 219.9828
ENERGY: 1500000 3.5182 3.4533 14.6616 0.0000 -11064.7468 1498.7211 0.0000 0.0000 1760.4074 -7783.9853 298.4259 -9544.3927 -7676.0797 302.0956 247.1883 234.1231 30232.2011 140.7277 215.5414
TCL: Running FEP window  11: Lambda1 0.4999999999999996 Lambda2 0.4499999999999996 [dLambda -0.04999999999999999]
TCL: Setting parameter firsttimestep to 0
TCL: Setting parameter alchLambda to 0.4999999999999996
Info: NONBONDED TABLE R-SQUARED SPACING: 0.0625
Info: NONBONDED TABLE SIZE: 705 POINTS
TCL: Setting parameter alchLambda2 to 0.4499999999999996
Info: NONBONDED TABLE R-SQUARED SPACING: 0.0625
Info: NONBONDED TABLE SIZE: 705 POINTS
TCL: Running for 1500000 steps
ETITLE: TS BOND ANGLE DIHED IMPRP ELECT VDW BOUNDARY MISC KINETIC TOTAL TEMP POTENTIAL TOTALAVG TEMPAVG PRESSURE GPRESSURE VOLUME PRESSAVG GPRESSAVG
ENERGY: 0 3.5182 3.4533 14.6616 0.0000 -11063.9091 1498.2632 0.0000 0.0000 1759.5067 -7784.5062 298.2732 -9544.0129 -7784.5062 298.2732 145.2715 224.8029 30232.2011 145.2715 224.8029
ENERGY: 300000 2.5224 6.7024 14.2614 0.0000 -11034.7359 1482.3156 0.0000 0.0000 1793.9368 -7734.9972 304.1098 -9528.9340 -7729.3854 300.7017 13.0341 100.2368 30485.5807 -325.5405 -264.0676
ENERGY: 600000 3.1345 3.5089 15.4681 0.0000 -10883.8786 1423.9627 0.0000 0.0000 1718.9703 -7718.8341 291.4015 -9437.8044 -7711.3626 298.9739 -308.8926 -318.3819 30723.7499 -137.9336 -84.6580
ENERGY: 900000 5.8232 3.6426 14.7007 0.0000 -10978.0143 1481.0559 0.0000 0.0000 1730.0206 -7742.7712 293.2747 -9472.7918 -7706.4832 299.2814 -102.8174 12.6738 30878.3571 -2.2803 61.8254
ENERGY: 1200000 1.6998 2.5046 13.2157 0.0000 -10835.0478 1419.1011 0.0000 0.0000 1711.6762 -7686.8504 290.1649 -9398.5266 -7690.6926 300.4207 61.2983 69.5704 30253.0837 16.1476 76.3998
ENERGY: 1500000 7.8278 4.5655 14.3000 0.0000 -11019.4528 1497.9631 0.0000 0.0000 1793.0757 -7701.7208 303.9639 -9494.7965 -7687.8888 300.2257 465.6422 502.2285 30356.5015 51.7165 110.9393
TCL: Running FEP window  12: Lambda1 0.4499999999999996 Lambda2 0.39999999999999963 [dLambda -0.04999999999999999]
TCL: Setting parameter firsttimestep to 0
TCL: Setting parameter alchLambda to 0.4499999999999996
Info: NONBONDED TABLE R-SQUARED SPACING: 0.0625
Info: NONBONDED TABLE SIZE: 705 POINTS
TCL: Setting parameter alchLambda2 to 0.39999999999999963
Info: NONBONDED TABLE R-SQUARED SPACING: 0.0625
Info: NONBONDED TABLE SIZE: 705 POINTS
TCL: Running for 1500000 steps
ETITLE: TS BOND ANGLE DIHED IMPRP ELECT VDW BOUNDARY MISC KINETIC TOTAL TEMP POTENTIAL TOTALAVG TEMPAVG PRESSURE GPRESSURE VOLUME PRESSAVG GPRESSAVG
ENERGY: 0 7.8278 4.5655 14.3000 0.0000 -11019.4534 1498.5077 0.0000 0.0000 1792.2073 -7702.0452 303.8167 -9494.2525 -7702.0452 303.8167 410.5969 500.4241 30356.5015 410.5969 500.4241
ENERGY: 300000 3.0760 3.9784 14.1660 0.0000 -10892.6313 1377.6916 0.0000 0.0000 1772.2582 -7721.4611 300.4349 -9493.7193 -7692.8936 299.0503 -685.2656 -599.0100 30270.6196 -170.0966 -97.8915
ENERGY: 600000 3.4208 6.8551 13.7144 0.0000 -10891.0335 1413.6026 0.0000 0.0000 1755.6759 -7697.7646 297.6238 -9453.4406 -7713.3476 297.1606 -465.6076 -406.6064 30605.3415 -213.7885 -149.1447
ENERGY: 900000 2.9408 2.6863 14.6010 0.0000 -10950.7321 1502.8271 0.0000 0.0000 1788.4997 -7639.1771 303.1881 -9427.6769 -7707.7850 297.7873 510.2432 586.2903 30373.5128 -148.6976 -81.6255
ENERGY: 1200000 3.1741 6.4341 14.9705 0.0000 -10955.9971 1472.0258 0.0000 0.0000 1722.5393 -7736.8533 292.0065 -9459.3926 -7693.5674 297.7062 107.0773 121.9449 30655.4595 -223.8473 -162.0687
ENERGY: 1500000 2.4895 8.6942 14.5702 0.0000 -10997.3398 1518.7846 0.0000 0.0000 1717.0851 -7735.7162 291.0819 -9452.8013 -7680.1948 298.0746 471.9207 514.9318 30082.4041 -173.9460 -113.4531
TCL: Running FEP window  13: Lambda1 0.39999999999999963 Lambda2 0.34999999999999964 [dLambda -0.04999999999999999]
TCL: Setting parameter firsttimestep to 0
TCL: Setting parameter alchLambda to 0.39999999999999963
Info: NONBONDED TABLE R-SQUARED SPACING: 0.0625
Info: NONBONDED TABLE SIZE: 705 POINTS
TCL: Setting parameter alchLambda2 to 0.34999999999999964
Info: NONBONDED TABLE R-SQUARED SPACING: 0.0625
Info: NONBONDED TABLE SIZE: 705 POINTS
TCL: Running for 1500000 steps
ETITLE: TS BOND ANGLE DIHED IMPRP ELECT VDW BOUNDARY MISC KINETIC TOTAL TEMP POTENTIAL TOTALAVG TEMPAVG PRESSURE GPRESSURE VOLUME PRESSAVG GPRESSAVG
ENERGY: 0 2.4895 8.6941 14.5702 0.0000 -10997.3388 1519.4077 0.0000 0.0000 1716.2476 -7735.9297 290.9399 -9452.1773 -7735.9297 290.9399 417.2534 510.6318 30082.4041 417.2534 510.6318
ENERGY: 300000 2.5204 6.0070 14.8171 0.0000 -10861.2260 1430.1246 0.0000 0.0000 1787.9643 -7619.7925 303.0974 -9407.7568 -7667.9425 299.7915 -239.5920 -111.8248 30443.0368 136.2115 224.8292
ENERGY: 600000 0.6426 2.9961 13.2865 0.0000 -10933.2464 1445.6173 0.0000 0.0000 1794.3262 -7676.3778 304.1759 -9470.7040 -7658.0409 302.8003 382.5313 389.0095 29854.4758 67.1656 142.8619
ENERGY: 900000 2.2223 6.8027 13.9538 0.0000 -11023.4990 1515.5242 0.0000 0.0000 1751.3443 -7733.6518 296.8895 -9484.9961 -7667.5082 300.6077 123.5991 157.1476 30700.0650 24.9318 96.0760
ENERGY: 1200000 4.9291 3.0823 14.7806 0.0000 -10748.8352 1331.9879 0.0000 0.0000 1768.1476 -7625.9077 299.7380 -9394.0553 -7667.8639 299.6497 -1126.5927 -1074.1488 31154.2286 -99.2823 -27.9507
ENERGY: 1500000 4.1044 4.0974 15.2578 0.0000 -10895.0494 1443.1379 0.0000 0.0000 1742.3028 -7686.1492 295.3568 -9428.4519 -7664.5815 299.8357 31.4289 91.9933 30587.6620 -74.0694 -4.9556
TCL: Running FEP window  14: Lambda1 0.34999999999999964 Lambda2 0.29999999999999966 [dLambda -0.04999999999999999]
TCL: Setting parameter firsttimestep to 0
TCL: Setting parameter alchLambda to 0.34999999999999964
Info: NONBONDED TABLE R-SQUARED SPACING: 0.0625
Info: NONBONDED TABLE SIZE: 705 POINTS
TCL: Setting parameter alchLambda2 to 0.29999999999999966
Info: NONBONDED TABLE R-SQUARED SPACING: 0.0625
Info: NONBONDED TABLE SIZE: 705 POINTS
TCL: Running for 1500000 steps
ETITLE: TS BOND ANGLE DIHED IMPRP ELECT VDW BOUNDARY MISC KINETIC TOTAL TEMP POTENTIAL TOTALAVG TEMPAVG PRESSURE GPRESSURE VOLUME PRESSAVG GPRESSAVG
ENERGY: 0 4.1044 4.0975 15.2578 0.0000 -10895.0492 1443.5919 0.0000 0.0000 1741.4102 -7686.5874 295.2055 -9427.9976 -7686.5874 295.2055 13.3590 87.4788 30587.6620 13.3590 87.4788
ENERGY: 300000 6.3807 4.1872 15.3500 0.0000 -11005.6380 1535.5892 0.0000 0.0000 1827.4270 -7616.7039 309.7871 -9444.1308 -7637.3140 304.2534 788.6920 790.0720 30463.4079 165.0744 224.0904
ENERGY: 600000 3.7036 4.5272 15.0923 0.0000 -10914.2598 1430.4302 0.0000 0.0000 1674.9399 -7785.5666 283.9374 -9460.5065 -7661.7064 300.4595 -547.1007 -457.7137 30787.5353 72.0234 124.3922
ENERGY: 900000 6.7398 6.3389 12.6651 0.0000 -10872.4129 1418.0586 0.0000 0.0000 1783.0742 -7645.5363 302.2684 -9428.6105 -7656.4496 300.3892 -154.5434 -137.4429 30592.0471 27.4621 83.9768
ENERGY: 1200000 4.0774 3.3372 13.4071 0.0000 -10931.3245 1411.3053 0.0000 0.0000 1797.1250 -7702.0726 304.6503 -9499.1976 -7664.7000 300.2479 -451.8823 -366.9672 30163.0263 -23.8003 34.8794
ENERGY: 1500000 1.1878 2.7722 14.9710 0.0000 -11024.5122 1522.9633 0.0000 0.0000 1749.1099 -7733.5081 296.5107 -9482.6180 -7665.7130 299.8276 408.3875 457.1073 30362.6792 43.3173 97.1202
TCL: Running FEP window  15: Lambda1 0.29999999999999966 Lambda2 0.24999999999999967 [dLambda -0.04999999999999999]
TCL: Setting parameter firsttimestep to 0
TCL: Setting parameter alchLambda to 0.29999999999999966
Info: NONBONDED TABLE R-SQUARED SPACING: 0.0625
Info: NONBONDED TABLE SIZE: 705 POINTS
TCL: Setting parameter alchLambda2 to 0.24999999999999967
Info: NONBONDED TABLE R-SQUARED SPACING: 0.0625
Info: NONBONDED TABLE SIZE: 705 POINTS
TCL: Running for 1500000 steps
ETITLE: TS BOND ANGLE DIHED IMPRP ELECT VDW BOUNDARY MISC KINETIC TOTAL TEMP POTENTIAL TOTALAVG TEMPAVG PRESSURE GPRESSURE VOLUME PRESSAVG GPRESSAVG
ENERGY: 0 1.1877 2.7722 14.9710 0.0000 -11024.5132 1523.2577 0.0000 0.0000 1748.1980 -7734.1266 296.3562 -9482.3246 -7734.1266 296.3562 390.7713 454.4494 30362.6792 390.7713 454.4494
ENERGY: 300000 1.3750 2.2372 16.0014 0.0000 -10867.4470 1400.1408 0.0000 0.0000 1785.2996 -7662.3930 302.6457 -9447.6926 -7734.5971 298.1544 -528.2156 -478.0489 30710.9062 -5.8047 58.5654
ENERGY: 600000 2.3463 3.5865 14.7652 0.0000 -10823.8087 1382.6550 0.0000 0.0000 1773.0424 -7647.4133 300.5678 -9420.4556 -7707.5980 300.2926 -759.3901 -671.9335 30951.0284 -92.5934 -23.2027
ENERGY: 900000 1.6216 4.7071 13.9858 0.0000 -10983.0727 1482.3236 0.0000 0.0000 1703.2414 -7777.1933 288.7351 -9480.4347 -7705.9518 300.3485 -122.2940 -46.7308 30785.1717 -31.3456 41.6520
ENERGY: 1200000 2.6608 1.7823 14.5113 0.0000 -10758.0288 1330.0199 0.0000 0.0000 1722.5575 -7686.4968 292.0096 -9409.0543 -7702.4928 299.4923 -1019.6003 -943.7305 30678.0199 -190.8401 -113.6737
ENERGY: 1500000 4.5575 4.0613 13.6590 0.0000 -10924.6494 1394.2986 0.0000 0.0000 1698.4381 -7809.6349 287.9208 -9508.0730 -7705.5863 298.6049 -474.7904 -391.4286 29894.3732 -108.5799 -30.5717
TCL: Running FEP window  16: Lambda1 0.24999999999999967 Lambda2 0.19999999999999968 [dLambda -0.04999999999999999]
TCL: Setting parameter firsttimestep to 0
TCL: Setting parameter alchLambda to 0.24999999999999967
Info: NONBONDED TABLE R-SQUARED SPACING: 0.0625
Info: NONBONDED TABLE SIZE: 705 POINTS
TCL: Setting parameter alchLambda2 to 0.19999999999999968
Info: NONBONDED TABLE R-SQUARED SPACING: 0.0625
Info: NONBONDED TABLE SIZE: 705 POINTS
TCL: Running for 1500000 steps
ETITLE: TS BOND ANGLE DIHED IMPRP ELECT VDW BOUNDARY MISC KINETIC TOTAL TEMP POTENTIAL TOTALAVG TEMPAVG PRESSURE GPRESSURE VOLUME PRESSAVG GPRESSAVG
ENERGY: 0 4.5575 4.0613 13.6590 0.0000 -10924.6492 1395.0674 0.0000 0.0000 1697.5788 -7809.7252 287.7751 -9507.3041 -7809.7252 287.7751 -480.8594 -388.4350 29894.3732 -480.8594 -388.4350
ENERGY: 300000 3.5241 1.8816 17.9177 0.0000 -10980.3434 1462.3155 0.0000 0.0000 1777.0009 -7717.7035 301.2389 -9494.7045 -7720.7871 295.8545 37.5376 84.2555 29850.6572 -156.5697 -89.4234
ENERGY: 600000 4.4889 3.8987 12.7732 0.0000 -10871.5529 1426.3379 0.0000 0.0000 1801.2748 -7622.7794 305.3538 -9424.0542 -7707.6960 296.5984 433.7707 436.7692 29791.2140 -37.8392 28.1239
ENERGY: 900000 2.4992 2.1337 12.6842 0.0000 -10914.5331 1391.8110 0.0000 0.0000 1759.8078 -7745.5972 298.3243 -9505.4049 -7696.1224 298.1168 -771.6916 -699.2475 30406.5129 -117.8922 -56.9542
ENERGY: 1200000 4.8275 3.4173 14.5348 0.0000 -10937.3886 1490.4444 0.0000 0.0000 1806.2862 -7617.8783 306.2033 -9424.1646 -7689.6361 298.4803 494.8672 541.0443 29971.5665 -44.9660 13.1359
ENERGY: 1500000 1.1329 5.0728 12.9246 0.0000 -10939.0535 1481.8470 0.0000 0.0000 1826.0620 -7612.0142 309.5557 -9438.0762 -7676.7476 299.8007 45.5542 103.9480 30563.2335 -20.7297 34.9290
TCL: Running FEP window  17: Lambda1 0.19999999999999968 Lambda2 0.1499999999999997 [dLambda -0.04999999999999999]
TCL: Setting parameter firsttimestep to 0
TCL: Setting parameter alchLambda to 0.19999999999999968
Info: NONBONDED TABLE R-SQUARED SPACING: 0.0625
Info: NONBONDED TABLE SIZE: 705 POINTS
TCL: Setting parameter alchLambda2 to 0.1499999999999997
Info: NONBONDED TABLE R-SQUARED SPACING: 0.0625
Info: NONBONDED TABLE SIZE: 705 POINTS
TCL: Running for 1500000 steps
ETITLE: TS BOND ANGLE DIHED IMPRP ELECT VDW BOUNDARY MISC KINETIC TOTAL TEMP POTENTIAL TOTALAVG TEMPAVG PRESSURE GPRESSURE VOLUME PRESSAVG GPRESSAVG
ENERGY: 0 1.1329 5.0728 12.9246 0.0000 -10939.0527 1482.5258 0.0000 0.0000 1825.1249 -7612.2718 309.3969 -9437.3967 -7612.2718 309.3969 23.1627 106.4638 30563.2335 23.1627 106.4638
ENERGY: 300000 3.3156 4.2331 14.3212 0.0000 -10936.3831 1511.3374 0.0000 0.0000 1734.6304 -7668.5453 294.0562 -9403.1757 -7630.9672 300.6110 465.6582 544.7115 30527.9745 157.1277 241.4284
ENERGY: 600000 2.7400 3.7440 15.9088 0.0000 -10916.1359 1397.7562 0.0000 0.0000 1771.8749 -7724.1119 300.3699 -9495.9868 -7661.9193 299.6144 -588.9439 -566.4472 30301.5177 -47.1975 23.7025
ENERGY: 900000 3.5640 4.1675 14.1497 0.0000 -10902.5832 1434.8917 0.0000 0.0000 1734.0706 -7711.7396 293.9613 -9445.8102 -7674.5254 297.7212 -201.0365 -182.4865 30225.9767 42.6037 98.3686
ENERGY: 1200000 1.3931 7.0130 15.6746 0.0000 -10945.0785 1428.6309 0.0000 0.0000 1754.2038 -7738.1629 297.3743 -9492.3668 -7686.3782 297.5774 -644.7776 -564.8787 30861.7983 8.8460 73.6851
ENERGY: 1500000 3.8306 4.5614 14.2642 0.0000 -10795.0397 1370.3629 0.0000 0.0000 1736.4951 -7665.5254 294.3723 -9402.0205 -7678.5805 297.6215 -542.7789 -489.4424 29990.4770 46.7724 110.2279
TCL: Running FEP window  18: Lambda1 0.1499999999999997 Lambda2 0.09999999999999969 [dLambda -0.05 ]
TCL: Setting parameter firsttimestep to 0
TCL: Setting parameter alchLambda to 0.1499999999999997
Info: NONBONDED TABLE R-SQUARED SPACING: 0.0625
Info: NONBONDED TABLE SIZE: 705 POINTS
TCL: Setting parameter alchLambda2 to 0.09999999999999969
Info: NONBONDED TABLE R-SQUARED SPACING: 0.0625
Info: NONBONDED TABLE SIZE: 705 POINTS
TCL: Running for 1500000 steps
ETITLE: TS BOND ANGLE DIHED IMPRP ELECT VDW BOUNDARY MISC KINETIC TOTAL TEMP POTENTIAL TOTALAVG TEMPAVG PRESSURE GPRESSURE VOLUME PRESSAVG GPRESSAVG
ENERGY: 0 3.8306 4.5614 14.2642 0.0000 -10795.0392 1369.9912 0.0000 0.0000 1735.6515 -7666.7403 294.2293 -9402.3918 -7666.7403 294.2293 -565.1351 -495.2427 29990.4770 -565.1351 -495.2427
ENERGY: 300000 1.1523 6.0578 13.0390 0.0000 -10779.5652 1354.4216 0.0000 0.0000 1831.1552 -7573.7393 310.4191 -9404.8945 -7624.2211 303.6665 -868.9958 -828.9471 30845.5527 -362.4081 -310.1315
ENERGY: 600000 6.2085 4.4828 15.2752 0.0000 -11036.5354 1481.0583 0.0000 0.0000 1745.5560 -7783.9547 295.9083 -9529.5106 -7669.0403 301.5276 49.9120 87.3155 30436.6441 -241.1557 -179.0010
ENERGY: 900000 1.3426 2.9388 15.5701 0.0000 -10842.7099 1432.4614 0.0000 0.0000 1792.3801 -7598.0168 303.8459 -9390.3969 -7651.3457 301.7427 -59.0451 -41.1925 30407.7366 -115.2176 -49.6894
ENERGY: 1200000 1.5196 5.5773 15.8907 0.0000 -11113.7796 1542.6455 0.0000 0.0000 1777.4741 -7770.6724 301.3191 -9548.1466 -7668.5418 301.1136 703.9444 784.6331 29750.4194 -9.6088 58.1535
ENERGY: 1500000 2.2129 4.0331 14.2168 0.0000 -10905.9859 1474.7910 0.0000 0.0000 1711.7213 -7699.0108 290.1726 -9410.7321 -7663.8532 300.8388 48.7684 114.2732 30618.3575 -36.5994 24.6251
TCL: Running FEP window  19: Lambda1 0.09999999999999969 Lambda2 0.049999999999999684 [dLambda -0.05 ]
TCL: Setting parameter firsttimestep to 0
TCL: Setting parameter alchLambda to 0.09999999999999969
Info: NONBONDED TABLE R-SQUARED SPACING: 0.0625
Info: NONBONDED TABLE SIZE: 705 POINTS
TCL: Setting parameter alchLambda2 to 0.049999999999999684
Info: NONBONDED TABLE R-SQUARED SPACING: 0.0625
Info: NONBONDED TABLE SIZE: 705 POINTS
TCL: Running for 1500000 steps
ETITLE: TS BOND ANGLE DIHED IMPRP ELECT VDW BOUNDARY MISC KINETIC TOTAL TEMP POTENTIAL TOTALAVG TEMPAVG PRESSURE GPRESSURE VOLUME PRESSAVG GPRESSAVG
ENERGY: 0 2.2129 4.0331 14.2168 0.0000 -10905.9863 1474.7272 0.0000 0.0000 1710.8106 -7699.9858 290.0182 -9410.7963 -7699.9858 290.0182 23.3978 112.4223 30618.3575 23.3978 112.4223
ENERGY: 300000 5.4075 7.1876 13.9550 0.0000 -10845.9431 1410.4403 0.0000 0.0000 1790.9346 -7618.0180 303.6009 -9408.9527 -7616.3812 303.3741 -100.2277 -79.3384 30308.2813 45.1016 81.6542
ENERGY: 600000 3.2606 3.7741 13.1666 0.0000 -10977.6858 1527.2295 0.0000 0.0000 1741.4936 -7688.7614 295.2196 -9430.2550 -7631.4905 300.5964 892.9276 863.3896 30096.2079 137.2461 168.1482
ENERGY: 900000 2.7141 3.4551 13.2886 0.0000 -11030.5957 1480.4199 0.0000 0.0000 1699.3547 -7831.3634 288.0762 -9530.7180 -7657.8215 298.8884 -434.8702 -346.4164 30954.5244 62.8038 107.3142
ENERGY: 1200000 2.6859 4.1534 13.6365 0.0000 -10922.1802 1478.8260 0.0000 0.0000 1803.9174 -7618.9609 305.8018 -9422.8783 -7650.2692 299.8652 277.3337 410.4173 30043.9800 64.9485 112.8268
ENERGY: 1500000 4.7715 4.3961 16.3881 0.0000 -11031.7742 1483.6116 0.0000 0.0000 1778.1018 -7744.5050 301.4255 -9522.6068 -7654.4916 299.9903 167.8738 262.2996 29957.3459 45.3137 99.6895
TCL: Running FEP window  20: Lambda1 0.049999999999999684 Lambda2 0.0    [dLambda -0.049999999999999684]
TCL: Setting parameter firsttimestep to 0
TCL: Setting parameter alchLambda to 0.049999999999999684
Info: NONBONDED TABLE R-SQUARED SPACING: 0.0625
Info: NONBONDED TABLE SIZE: 705 POINTS
TCL: Setting parameter alchLambda2 to 0.0
Info: NONBONDED TABLE R-SQUARED SPACING: 0.0625
Info: NONBONDED TABLE SIZE: 705 POINTS
TCL: Running for 1500000 steps
ETITLE: TS BOND ANGLE DIHED IMPRP ELECT VDW BOUNDARY MISC KINETIC TOTAL TEMP POTENTIAL TOTALAVG TEMPAVG PRESSURE GPRESSURE VOLUME PRESSAVG GPRESSAVG
ENERGY: 0 4.7715 4.3961 16.3881 0.0000 -11031.7738 1482.7752 0.0000 0.0000 1777.2308 -7746.2121 301.2778 -9523.4429 -7746.2121 301.2778 165.9390 254.7298 29957.3459 165.9390 254.7298
ENERGY: 300000 2.7917 5.4623 13.7869 0.0000 -10832.1308 1429.5984 0.0000 0.0000 1790.2079 -7590.2836 303.4777 -9380.4914 -7681.0486 298.2008 -172.8686 -51.2688 30546.5328 -94.9466 -44.1228
ENERGY: 600000 2.5221 2.2018 14.5541 0.0000 -10953.8911 1483.6297 0.0000 0.0000 1794.7150 -7656.2683 304.2418 -9450.9833 -7663.7053 298.4185 106.3175 121.6235 30367.3867 -52.5576 12.9087
ENERGY: 900000 2.0535 3.5138 14.3166 0.0000 -10940.3702 1406.7711 0.0000 0.0000 1761.8026 -7751.9125 298.6624 -9513.7152 -7673.8157 297.5819 -677.2361 -528.5020 30418.1551 -209.4154 -136.8242
ENERGY: 1200000 4.6243 3.2792 15.2763 0.0000 -10912.5585 1436.0174 0.0000 0.0000 1740.0118 -7713.3494 294.9684 -9453.3612 -7687.9151 297.1199 -493.8445 -421.0704 30910.3903 -265.9410 -187.7138
ENERGY: 1500000 2.9598 6.7892 15.3976 0.0000 -11000.0883 1537.7129 0.0000 0.0000 1762.5192 -7674.7096 298.7839 -9437.2288 -7682.9208 297.1783 410.1128 525.9856 30437.8175 -155.0329 -75.7906
TCL: Exiting due to exit command.
