Info: SIMULATION PARAMETERS:
Info: TIMESTEP               2
Info: NUMBER OF STEPS        0
Info: STEPS PER CYCLE        10
Info: PERIODIC CELL BASIS 1  31.2014 0 0
Info: PERIODIC CELL BASIS 2  0 30.9428 0
Info: PERIODIC CELL BASIS 3  0 0 31.9773
Info: PERIODIC CELL CENTER   0 0 0
Info: WRAPPING WATERS AROUND PERIODIC BOUNDARIES ON OUTPUT.
Info: WRAPPING ALL CLUSTERS AROUND PERIODIC BOUNDARIES ON OUTPUT.
Info: FIRST LDB TIMESTEP     50
Info: LAST LDB TIMESTEP     -1
Info: HOM BACKGROUND SCALING 1
Info: PME BACKGROUND SCALING 1
Info: MIN ATOMS PER PATCH    40
Info: EMPTY PATCH LOAD       40 ATOMS
Info: VELOCITY FILE          mobley_3982371_equil.vel
Info: CENTER OF MASS MOVING INITIALLY? NO
Info: DIELECTRIC             1
Info: EXCLUDE                SCALED ONE-FOUR
Info: 1-4 ELECTROSTATICS SCALED BY 0.833333
Info: MODIFIED 1-4 VDW PARAMETERS WILL BE USED
Info: DCD FILENAME           mobley_3982371_prod.dcd
Info: DCD FREQUENCY          100000
Info: DCD FIRST STEP         100000
Info: DCD FILE WILL CONTAIN UNIT CELL DATA
Info: XST FILENAME           mobley_3982371_prod.xst
Info: XST FREQUENCY          100000
Info: NO VELOCITY DCD OUTPUT
Info: NO FORCE DCD OUTPUT
Info: OUTPUT FILENAME        mobley_3982371_prod
Info: BINARY OUTPUT FILES WILL BE USED
Info: RESTART FILENAME       mobley_3982371_prod.restart
Info: RESTART FREQUENCY      100000
Info: BINARY RESTART FILES WILL BE USED
Info: CUTOFF                 9
Info: PAIRLIST DISTANCE      11
Info: PAIRLIST SHRINK RATE   0.01
Info: PAIRLIST GROW RATE     0.01
Info: PAIRLIST TRIGGER       0.3
Info: PAIRLISTS PER CYCLE    2
Info: PAIRLISTS ENABLED
Info: MARGIN                 2
Info: HYDROGEN GROUP CUTOFF  2.5
Info: PATCH DIMENSION        15.5
Info: ENERGY OUTPUT STEPS    100000
Info: ENERGY EVALUATION STEPS    100000
Info: OUTPUT ENERGY PRECISION 4
Info: CROSSTERM ENERGY INCLUDED IN DIHEDRAL
Info: TIMING OUTPUT STEPS    1000000
Info: PRESSURE OUTPUT STEPS  100000
Info: ALCHEMICAL FEP ON
Info: FEP CURRENT LAMBDA VALUE     1
Info: FEP COMPARISON LAMBDA VALUE  0.95
Info: FEP INTRA-ALCHEMICAL NON-BONDED INTERACTIONS WILL BE RETAINED
Info: FEP INTRA-ALCHEMICAL BONDED INTERACTIONS WILL BE RETAINED
Info: FEP VDW SHIFTING COEFFICIENT 5
Info: FEP ELEC. ACTIVE FOR ANNIHILATED PARTICLES BETWEEN LAMBDA = 0 AND LAMBDA = 0.5
Info: FEP ELEC. ACTIVE FOR EXNIHILATED PARTICLES BETWEEN LAMBDA = 0.5 AND LAMBDA = 1
Info: FEP VDW ACTIVE FOR ANNIHILATED PARTICLES BETWEEN LAMBDA = 0 AND LAMBDA = 1
Info: FEP VDW ACTIVE FOR EXNIHILATED PARTICLES BETWEEN LAMBDA = 0 AND LAMBDA = 1
Info: FEP BOND ACTIVE FOR ANNIHILATED PARTICLES BETWEEN LAMBDA = 1 AND LAMBDA = 1
Info: FEP BOND ACTIVE FOR EXNIHILATED PARTICLES BETWEEN LAMBDA = 0 AND LAMBDA = 0
Info: LANGEVIN DYNAMICS ACTIVE
Info: LANGEVIN TEMPERATURE   300
Info: LANGEVIN USING BBK INTEGRATOR
Info: LANGEVIN DAMPING COEFFICIENT IS 1 INVERSE PS
Info: LANGEVIN DYNAMICS APPLIED TO HYDROGENS
Info: LANGEVIN PISTON PRESSURE CONTROL ACTIVE
Info:        TARGET PRESSURE IS 1.01325 BAR
Info:     OSCILLATION PERIOD IS 50 FS
Info:             DECAY TIME IS 25 FS
Info:     PISTON TEMPERATURE IS 300 K
Info:       PRESSURE CONTROL IS GROUP-BASED
Info:    INITIAL STRAIN RATE IS -1.76531e-05 -1.76531e-05 -1.76531e-05
Info:       CELL FLUCTUATION IS ISOTROPIC
Info: PARTICLE MESH EWALD (PME) ACTIVE
Info: PME TOLERANCE               1e-06
Info: PME EWALD COEFFICIENT       0.348832
Info: PME INTERPOLATION ORDER     4
Info: PME GRID DIMENSIONS         32 32 32
Info: PME MAXIMUM GRID SPACING    1
Info: PME CALCULATION WILL BE PERFORMED ON GPU
Info: FULL ELECTROSTATIC EVALUATION FREQUENCY      2
Info: USING VERLET I (r-RESPA) MTS SCHEME.
Info: C1 SPLITTING OF LONG RANGE ELECTROSTATICS
Info: PLACING ATOMS IN PATCHES BY HYDROGEN GROUPS
Info: RIGID BONDS TO HYDROGEN : ALL
Info:         ERROR TOLERANCE : 1e-08
Info:          MAX ITERATIONS : 100
Info: RIGID WATER USING SETTLE ALGORITHM
Info: RANDOM NUMBER SEED     1743528456
Info: USE HYDROGEN BONDS?    NO
Info: Using AMBER format force field!
Info: AMBER PARM FILE        mobley_3982371.prmtop
Info: COORDINATE PDB         mobley_3982371.pdb
Info: Exclusions will be read from PARM file!
Info: SCNB (VDW SCALING)     2
Info: USING ARITHMETIC MEAN TO COMBINE L-J SIGMA PARAMETERS
Info: BINARY COORDINATES     mobley_3982371_equil.coor
Info: SUMMARY OF PARAMETERS:
Info: 8 BONDS
Info: 8 ANGLES
Info:   8 HARMONIC
Info:   0 COSINE-BASED
Info: 10 DIHEDRAL
Info: 0 IMPROPER
Info: 0 CROSSTERM
Info: 0 VDW
Info: 36 VDW_PAIRS
Info: 0 NBTHOLE_PAIRS
Info: To read alchdata from file: mobley_3982371.pdb
Info: To read alchflag data from column: 5
Info: STRUCTURE SUMMARY:
Info: 2951 ATOMS
Info: 2950 BONDS
Info: 16 ANGLES
Info: 21 DIHEDRALS
Info: 0 IMPROPERS
Info: 0 CROSSTERMS
Info: 2977 EXCLUSIONS
Info: 2946 RIGID BONDS
Info: ALCH: 0 ATOMS TO DISAPPEAR IN FINAL STATE
Info: ALCH: 11 ATOMS TO APPEAR IN FINAL STATE
Info: 5907 DEGREES OF FREEDOM
Info: 985 HYDROGEN GROUPS
Info: 4 ATOMS IN LARGEST HYDROGEN GROUP
Info: 985 MIGRATION GROUPS
Info: 4 ATOMS IN LARGEST MIGRATION GROUP
Info: TOTAL MASS = 17729.8 amu
Info: TOTAL CHARGE = 0.000199992 e
Info: MASS DENSITY = 0.953643 g/cm^3
Info: ATOM DENSITY = 0.0955857 atoms/A^3
Info: ADDED 0 IMPLICIT EXCLUSIONS
Info: NONBONDED TABLE R-SQUARED SPACING: 0.0625
Info: NONBONDED TABLE SIZE: 705 POINTS
Info: REMOVING COM VELOCITY -0.016442 -0.345926 0.0274839
Info: Use 3D box decompostion in PME FFT.
Info: Updated CUDA force table with 4096 elements.
Info: Updated CUDA LJ table with 8 x 8 elements.
Info: Found 11 unique exclusion lists needing 16 bytes
TCL: Running for 1500000 steps
ETITLE: TS BOND ANGLE DIHED IMPRP ELECT VDW BOUNDARY MISC KINETIC TOTAL TEMP POTENTIAL TOTALAVG TEMPAVG PRESSURE GPRESSURE VOLUME PRESSAVG GPRESSAVG
ENERGY: 0 1.3702 3.3303 4.3860 0.0000 -10702.3820 1412.8114 0.0000 0.0000 1781.8332 -7498.6510 303.5921 -9280.4842 -7498.6510 303.5921 -282.3441 -209.6776 30872.8180 -282.3441 -209.6776
ENERGY: 300000 2.6352 2.0021 2.7695 0.0000 -10672.1607 1414.2774 0.0000 0.0000 1817.7220 -7432.7545 309.7069 -9250.4765 -7467.1353 303.9359 154.2772 202.4699 30387.4052 132.8891 175.5667
ENERGY: 600000 2.6346 4.4750 4.2871 0.0000 -10529.8901 1333.9493 0.0000 0.0000 1749.9637 -7434.5804 298.1621 -9184.5441 -7502.3477 301.3150 -526.3957 -435.1728 30367.8566 97.8313 154.5994
ENERGY: 900000 0.5328 5.0614 3.2584 0.0000 -10795.2030 1490.5401 0.0000 0.0000 1812.7323 -7483.0779 308.8567 -9295.8102 -7494.0733 302.6040 592.5777 647.4826 30073.3926 101.7606 168.2074
ENERGY: 1200000 0.7594 4.6820 3.4791 0.0000 -10679.1844 1433.4768 0.0000 0.0000 1767.0464 -7469.7407 301.0727 -9236.7871 -7490.5465 303.0405 335.3465 395.9728 30017.2020 42.9710 109.3318
ENERGY: 1500000 1.4334 3.7391 3.0273 0.0000 -10676.0783 1454.3441 0.0000 0.0000 1780.7044 -7432.8301 303.3998 -9213.5344 -7492.1412 302.3098 205.1570 279.7908 30465.2514 -14.9738 53.9596
TCL: Running FEP window   2: Lambda1 0.95   Lambda2 0.8999999999999999 [dLambda -0.050000000000000044]
TCL: Setting parameter firsttimestep to 0
TCL: Setting parameter alchLambda to 0.95
Info: NONBONDED TABLE R-SQUARED SPACING: 0.0625
Info: NONBONDED TABLE SIZE: 705 POINTS
TCL: Setting parameter alchLambda2 to 0.8999999999999999
Info: NONBONDED TABLE R-SQUARED SPACING: 0.0625
Info: NONBONDED TABLE SIZE: 705 POINTS
TCL: Running for 1500000 steps
ETITLE: TS BOND ANGLE DIHED IMPRP ELECT VDW BOUNDARY MISC KINETIC TOTAL TEMP POTENTIAL TOTALAVG TEMPAVG PRESSURE GPRESSURE VOLUME PRESSAVG GPRESSAVG
ENERGY: 0 1.4334 3.7391 3.0273 0.0000 -10675.5422 1454.5743 0.0000 0.0000 1779.7994 -7432.9686 303.2456 -9212.7680 -7432.9686 303.2456 184.4711 272.0484 30465.2514 184.4711 272.0484
ENERGY: 300000 1.8893 4.5631 4.1001 0.0000 -10644.0325 1370.1860 0.0000 0.0000 1826.1508 -7437.1431 311.1430 -9263.2939 -7500.3025 302.0715 -592.5152 -539.4227 30523.8749 -193.0923 -120.1509
ENERGY: 600000 0.6315 5.5380 2.9165 0.0000 -10716.5802 1422.9082 0.0000 0.0000 1750.8397 -7533.7465 298.3114 -9284.5862 -7521.0091 301.3499 138.1819 180.9843 29961.1916 -265.3986 -200.5110
ENERGY: 900000 0.4698 2.1606 3.5402 0.0000 -10693.8702 1418.6525 0.0000 0.0000 1776.0472 -7492.9998 302.6063 -9269.0471 -7512.4420 300.6171 -357.2502 -284.6477 30850.3271 -201.1675 -130.1426
ENERGY: 1200000 0.7471 5.1189 4.6444 0.0000 -10813.3504 1497.1356 0.0000 0.0000 1776.2683 -7529.4362 302.6439 -9305.7045 -7516.0536 300.7871 576.0008 637.9496 29897.8363 -156.2232 -86.2782
ENERGY: 1500000 0.5408 6.1492 2.9954 0.0000 -10753.3071 1479.1678 0.0000 0.0000 1696.3259 -7568.1279 289.0232 -9264.4538 -7522.0630 300.0682 340.6550 331.6278 30579.2807 -24.3593 39.2176
TCL: Running FEP window   3: Lambda1 0.8999999999999999 Lambda2 0.8499999999999999 [dLambda -0.050000000000000044]
TCL: Setting parameter firsttimestep to 0
TCL: Setting parameter alchLambda to 0.8999999999999999
Info: NONBONDED TABLE R-SQUARED SPACING: 0.0625
Info: NONBONDED TABLE SIZE: 705 POINTS
TCL: Setting parameter alchLambda2 to 0.8499999999999999
Info: NONBONDED TABLE R-SQUARED SPACING: 0.0625
Info: NONBONDED TABLE SIZE: 705 POINTS
TCL: Running for 1500000 steps
ETITLE: TS BOND ANGLE DIHED IMPRP ELECT VDW BOUNDARY MISC KINETIC TOTAL TEMP POTENTIAL TOTALAVG TEMPAVG PRESSURE GPRESSURE VOLUME PRESSAVG GPRESSAVG
ENERGY: 0 0.5408 6.1492 2.9954 0.0000 -10752.1404 1477.9421 0.0000 0.0000 1695.4866 -7569.0263 288.8802 -9264.5129 -7569.0263 288.8802 250.4543 311.6299 30579.2807 250.4543 311.6299
ENERGY: 300000 3.5294 3.9936 3.6422 0.0000 -10618.9404 1394.9752 0.0000 0.0000 1754.3408 -7458.4591 298.9079 -9212.7999 -7508.3593 296.3185 -308.3042 -298.3135 30885.9077 115.8764 150.3252
ENERGY: 600000 1.0647 4.7939 2.7043 0.0000 -10718.6364 1419.9432 0.0000 0.0000 1789.1268 -7501.0035 304.8348 -9290.1303 -7527.4695 300.2302 -248.2461 -151.2130 30580.9543 1.7925 54.0905
ENERGY: 900000 1.0859 3.3346 4.2157 0.0000 -10693.5150 1440.3586 0.0000 0.0000 1749.4569 -7495.0632 298.0758 -9244.5201 -7526.7713 299.4227 16.4965 70.3150 30403.6730 70.9714 124.0714
ENERGY: 1200000 1.4951 5.5761 3.9077 0.0000 -10647.1841 1443.8156 0.0000 0.0000 1811.2996 -7381.0900 308.6126 -9192.3896 -7511.9758 300.6344 38.7851 92.8551 30935.3350 94.3076 141.4611
ENERGY: 1500000 0.5946 5.6962 2.6668 0.0000 -10705.6055 1428.8931 0.0000 0.0000 1750.2539 -7517.5009 298.2116 -9267.7548 -7510.2107 301.0109 118.0038 117.7845 30205.7545 34.5545 73.6014
TCL: Running FEP window   4: Lambda1 0.8499999999999999 Lambda2 0.7999999999999998 [dLambda -0.050000000000000044]
TCL: Setting parameter firsttimestep to 0
TCL: Setting parameter alchLambda to 0.8499999999999999
Info: NONBONDED TABLE R-SQUARED SPACING: 0.0625
Info: NONBONDED TABLE SIZE: 705 POINTS
TCL: Setting parameter alchLambda2 to 0.7999999999999998
Info: NONBONDED TABLE R-SQUARED SPACING: 0.0625
Info: NONBONDED TABLE SIZE: 705 POINTS
TCL: Running for 1500000 steps
ETITLE: TS BOND ANGLE DIHED IMPRP ELECT VDW BOUNDARY MISC KINETIC TOTAL TEMP POTENTIAL TOTALAVG TEMPAVG PRESSURE GPRESSURE VOLUME PRESSAVG GPRESSAVG
ENERGY: 0 0.5946 5.6962 2.6668 0.0000 -10704.3807 1428.9023 0.0000 0.0000 1749.3931 -7517.1278 298.0649 -9266.5209 -7517.1278 298.0649 46.5342 115.2233 30205.7545 46.5342 115.2233
ENERGY: 300000 1.4072 3.6689 3.4208 0.0000 -10728.3157 1445.0535 0.0000 0.0000 1786.7934 -7487.9718 304.4372 -9274.7652 -7504.9462 301.0566 101.9944 121.4309 30226.4092 401.9154 460.0565
ENERGY: 600000 0.2113 3.5288 3.9203 0.0000 -10615.6643 1398.1008 0.0000 0.0000 1808.9184 -7400.9847 308.2069 -9209.9031 -7492.8864 302.5943 -49.3877 12.5045 30363.0569 314.5813 368.9224
ENERGY: 900000 0.9025 5.4220 2.6682 0.0000 -10715.6083 1384.4846 0.0000 0.0000 1797.7818 -7524.3492 306.3094 -9322.1311 -7490.6262 303.4705 -416.7647 -326.1166 30188.8360 64.7088 125.8277
ENERGY: 1200000 0.1767 2.0354 3.4057 0.0000 -10762.2114 1405.4807 0.0000 0.0000 1755.8385 -7595.2743 299.1631 -9351.1128 -7506.2671 302.8268 -528.9077 -524.5713 30504.8444 -88.5302 -27.7166
ENERGY: 1500000 1.7386 3.4360 3.3962 0.0000 -10785.2703 1453.8781 0.0000 0.0000 1732.7232 -7590.0981 295.2246 -9322.8213 -7512.2593 302.1171 92.1798 167.1634 30198.4933 -107.1916 -46.0709
TCL: Running FEP window   5: Lambda1 0.7999999999999998 Lambda2 0.7499999999999998 [dLambda -0.050000000000000044]
TCL: Setting parameter firsttimestep to 0
TCL: Setting parameter alchLambda to 0.7999999999999998
Info: NONBONDED TABLE R-SQUARED SPACING: 0.0625
Info: NONBONDED TABLE SIZE: 705 POINTS
TCL: Setting parameter alchLambda2 to 0.7499999999999998
Info: NONBONDED TABLE R-SQUARED SPACING: 0.0625
Info: NONBONDED TABLE SIZE: 705 POINTS
TCL: Running for 1500000 steps
ETITLE: TS BOND ANGLE DIHED IMPRP ELECT VDW BOUNDARY MISC KINETIC TOTAL TEMP POTENTIAL TOTALAVG TEMPAVG PRESSURE GPRESSURE VOLUME PRESSAVG GPRESSAVG
ENERGY: 0 1.7386 3.4360 3.3962 0.0000 -10784.0215 1453.0531 0.0000 0.0000 1731.8978 -7590.4998 295.0840 -9322.3976 -7590.4998 295.0840 67.6623 152.4807 30198.4933 67.6623 152.4807
ENERGY: 300000 3.2306 3.3776 2.7937 0.0000 -10862.2216 1485.1115 0.0000 0.0000 1746.3372 -7621.3710 297.5442 -9367.7081 -7588.9708 296.7338 190.7178 218.9162 30149.7389 21.5691 66.7799
ENERGY: 600000 0.3371 3.3171 3.6828 0.0000 -10877.0128 1611.4384 0.0000 0.0000 1722.6222 -7535.6153 293.5036 -9258.2375 -7517.7724 298.8960 1539.3356 1597.6570 30020.0871 349.5717 390.6783
ENERGY: 900000 0.8467 3.1599 4.0441 0.0000 -10696.6751 1403.0973 0.0000 0.0000 1706.3674 -7579.1598 290.7341 -9285.5272 -7521.4857 297.7221 -481.3147 -407.6424 30521.5270 116.5298 161.7341
ENERGY: 1200000 2.5014 5.4890 3.4445 0.0000 -10631.7111 1327.0810 0.0000 0.0000 1778.4757 -7514.7196 303.0200 -9293.1953 -7522.3784 297.8739 -915.6467 -857.8580 30450.4310 -10.3796 41.3285
ENERGY: 1500000 2.3878 4.6491 3.0803 0.0000 -10748.9113 1445.1329 0.0000 0.0000 1805.8213 -7487.8398 307.6792 -9293.6611 -7522.2895 298.5956 84.3181 85.0308 30582.4602 -28.4204 19.0090
TCL: Running FEP window   6: Lambda1 0.7499999999999998 Lambda2 0.6999999999999997 [dLambda -0.050000000000000044]
TCL: Setting parameter firsttimestep to 0
TCL: Setting parameter alchLambda to 0.7499999999999998
Info: NONBONDED TABLE R-SQUARED SPACING: 0.0625
Info: NONBONDED TABLE SIZE: 705 POINTS
TCL: Setting parameter alchLambda2 to 0.6999999999999997
Info: NONBONDED TABLE R-SQUARED SPACING: 0.0625
Info: NONBONDED TABLE SIZE: 705 POINTS
TCL: Running for 1500000 steps
ETITLE: TS BOND ANGLE DIHED IMPRP ELECT VDW BOUNDARY MISC KINETIC TOTAL TEMP POTENTIAL TOTALAVG TEMPAVG PRESSURE GPRESSURE VOLUME PRESSAVG GPRESSAVG
ENERGY: 0 2.3878 4.6491 3.0803 0.0000 -10747.7026 1444.3640 0.0000 0.0000 1804.9620 -7488.2594 307.5328 -9293.2214 -7488.2594 307.5328 -9.5894 72.4086 30582.4602 -9.5894 72.4086
ENERGY: 300000 0.7382 1.1582 3.1305 0.0000 -10692.1902 1437.1527 0.0000 0.0000 1793.6701 -7456.3404 305.6089 -9250.0105 -7459.3941 306.7507 50.3718 40.9521 30616.5360 -109.0337 -73.8746
ENERGY: 600000 0.7161 4.1261 5.3403 0.0000 -10678.8379 1468.1851 0.0000 0.0000 1775.3338 -7425.1364 302.4847 -9200.4702 -7475.5904 304.2763 510.0034 527.2231 30261.3948 111.0936 141.2879
ENERGY: 900000 2.3172 4.0995 3.3461 0.0000 -10722.8869 1420.0862 0.0000 0.0000 1760.9593 -7532.0787 300.0356 -9293.0380 -7492.8407 302.7210 45.4555 128.6347 30102.6801 -34.1547 20.0093
ENERGY: 1200000 1.2073 5.6403 3.9293 0.0000 -10657.3376 1397.0073 0.0000 0.0000 1700.6281 -7548.9252 289.7562 -9249.5533 -7505.4072 301.4179 -179.7203 -46.9228 29984.2082 -104.3810 -42.1512
ENERGY: 1500000 1.5143 3.7987 2.4462 0.0000 -10728.4411 1429.2922 0.0000 0.0000 1750.5612 -7540.8285 298.2639 -9291.3896 -7507.0102 301.3117 -204.5025 -148.8753 30494.2902 -67.9024 -6.2198
TCL: Running FEP window   7: Lambda1 0.6999999999999997 Lambda2 0.6499999999999997 [dLambda -0.050000000000000044]
TCL: Setting parameter firsttimestep to 0
TCL: Setting parameter alchLambda to 0.6999999999999997
Info: NONBONDED TABLE R-SQUARED SPACING: 0.0625
Info: NONBONDED TABLE SIZE: 705 POINTS
TCL: Setting parameter alchLambda2 to 0.6499999999999997
Info: NONBONDED TABLE R-SQUARED SPACING: 0.0625
Info: NONBONDED TABLE SIZE: 705 POINTS
TCL: Running for 1500000 steps
ETITLE: TS BOND ANGLE DIHED IMPRP ELECT VDW BOUNDARY MISC KINETIC TOTAL TEMP POTENTIAL TOTALAVG TEMPAVG PRESSURE GPRESSURE VOLUME PRESSAVG GPRESSAVG
ENERGY: 0 1.5143 3.7987 2.4462 0.0000 -10726.7872 1428.8937 0.0000 0.0000 1749.7075 -7540.4268 298.1185 -9290.1343 -7540.4268 298.1185 -241.3413 -157.0949 30494.2902 -241.3413 -157.0949
ENERGY: 300000 0.4132 4.6738 3.0236 0.0000 -10809.9780 1522.2930 0.0000 0.0000 1786.4732 -7493.1012 304.3827 -9279.5744 -7519.5835 300.5859 942.7622 993.3264 29802.4727 100.4308 161.0000
ENERGY: 600000 1.4985 4.3941 3.1357 0.0000 -10848.9755 1472.9745 0.0000 0.0000 1762.4632 -7604.5095 300.2918 -9366.9727 -7548.2304 299.2504 8.3458 80.5267 30271.6380 114.8829 184.0469
ENERGY: 900000 1.4974 3.2402 2.5578 0.0000 -10735.6519 1401.6666 0.0000 0.0000 1736.7349 -7589.9550 295.9082 -9326.6899 -7540.3588 299.5094 -756.9410 -636.8383 30600.2266 -33.1892 46.5410
ENERGY: 1200000 0.2589 5.2026 3.3092 0.0000 -10865.2163 1539.6902 0.0000 0.0000 1745.7870 -7570.9683 297.4505 -9316.7554 -7540.7427 299.9812 655.0596 679.4400 30304.3871 39.4473 110.4594
ENERGY: 1500000 0.7834 2.3496 5.1028 0.0000 -10535.0075 1322.1857 0.0000 0.0000 1766.3705 -7438.2155 300.9575 -9204.5860 -7533.3051 299.6727 -793.8630 -702.4205 30676.6459 -28.0102 43.5399
TCL: Running FEP window   8: Lambda1 0.6499999999999997 Lambda2 0.5999999999999996 [dLambda -0.050000000000000044]
TCL: Setting parameter firsttimestep to 0
TCL: Setting parameter alchLambda to 0.6499999999999997
Info: NONBONDED TABLE R-SQUARED SPACING: 0.0625
Info: NONBONDED TABLE SIZE: 705 POINTS
TCL: Setting parameter alchLambda2 to 0.5999999999999996
Info: NONBONDED TABLE R-SQUARED SPACING: 0.0625
Info: NONBONDED TABLE SIZE: 705 POINTS
TCL: Running for 1500000 steps
ETITLE: TS BOND ANGLE DIHED IMPRP ELECT VDW BOUNDARY MISC KINETIC TOTAL TEMP POTENTIAL TOTALAVG TEMPAVG PRESSURE GPRESSURE VOLUME PRESSAVG GPRESSAVG
ENERGY: 0 0.7834 2.3496 5.1028 0.0000 -10534.5486 1322.4119 0.0000 0.0000 1765.5159 -7438.3851 300.8119 -9203.9010 -7438.3851 300.8119 -789.1269 -704.3622 30676.6459 -789.1269 -704.3622
ENERGY: 300000 0.5371 2.8010 3.8408 0.0000 -10773.0489 1439.1531 0.0000 0.0000 1792.2221 -7534.4948 305.3622 -9326.7169 -7479.2164 302.3782 49.9716 139.6448 30074.5847 -626.6707 -560.8474
ENERGY: 600000 4.0035 3.1722 3.6634 0.0000 -10640.6024 1345.7807 0.0000 0.0000 1740.3881 -7543.5946 296.5306 -9283.9827 -7512.2716 298.2742 -659.7948 -568.1476 30148.0641 -379.5144 -309.3663
ENERGY: 900000 1.2332 7.8415 3.7145 0.0000 -10565.5891 1321.5559 0.0000 0.0000 1821.7457 -7409.4983 310.3925 -9231.2440 -7497.5694 300.5824 -782.5784 -789.9104 30558.5769 -290.0740 -226.3925
ENERGY: 1200000 0.5066 3.3734 4.0225 0.0000 -10881.6429 1515.1216 0.0000 0.0000 1779.5369 -7579.0819 303.2009 -9358.6188 -7502.9758 300.0394 532.5501 575.3750 30224.2730 -192.6071 -130.1214
ENERGY: 1500000 0.4638 3.9319 3.0530 0.0000 -10687.6295 1410.7415 0.0000 0.0000 1741.8208 -7527.6186 296.7747 -9269.4393 -7510.4199 299.6529 -38.8749 -41.4705 30254.7539 -106.8778 -49.0235
TCL: Running FEP window   9: Lambda1 0.5999999999999996 Lambda2 0.5499999999999996 [dLambda -0.050000000000000044]
TCL: Setting parameter firsttimestep to 0
TCL: Setting parameter alchLambda to 0.5999999999999996
Info: NONBONDED TABLE R-SQUARED SPACING: 0.0625
Info: NONBONDED TABLE SIZE: 705 POINTS
TCL: Setting parameter alchLambda2 to 0.5499999999999996
Info: NONBONDED TABLE R-SQUARED SPACING: 0.0625
Info: NONBONDED TABLE SIZE: 705 POINTS
TCL: Running for 1500000 steps
ETITLE: TS BOND ANGLE DIHED IMPRP ELECT VDW BOUNDARY MISC KINETIC TOTAL TEMP POTENTIAL TOTALAVG TEMPAVG PRESSURE GPRESSURE VOLUME PRESSAVG GPRESSAVG
ENERGY: 0 0.4638 3.9319 3.0530 0.0000 -10687.6926 1410.6879 0.0000 0.0000 1740.9154 -7528.6406 296.6204 -9269.5561 -7528.6406 296.6204 -124.7468 -49.6236 30254.7539 -124.7468 -49.6236
ENERGY: 300000 0.9703 2.9729 4.0972 0.0000 -10765.3621 1490.7228 0.0000 0.0000 1789.0440 -7477.5550 304.8207 -9266.5990 -7492.6999 299.5018 342.7399 455.5013 30408.9328 55.9711 124.5677
ENERGY: 600000 1.1392 2.8393 3.3258 0.0000 -10727.4162 1438.4046 0.0000 0.0000 1735.5134 -7546.1940 295.7000 -9281.7073 -7497.9862 300.6749 -70.2435 -28.6439 30367.6165 -58.7098 6.2371
ENERGY: 900000 0.5135 5.0530 2.8073 0.0000 -10952.5765 1597.2419 0.0000 0.0000 1761.0401 -7585.9208 300.0493 -9346.9608 -7506.7865 300.8717 1581.1348 1640.6560 29415.1966 143.2662 204.5295
ENERGY: 1200000 2.2478 4.8998 3.5494 0.0000 -10735.4885 1460.2547 0.0000 0.0000 1765.4956 -7499.0410 300.8085 -9264.5367 -7506.3957 300.6689 146.0277 174.9983 30473.6552 96.2298 161.0138
ENERGY: 1500000 0.7804 5.5069 4.1404 0.0000 -10800.4912 1444.1444 0.0000 0.0000 1779.5918 -7566.3274 303.2102 -9345.9192 -7520.4638 300.8023 -172.8198 -81.4028 30184.1700 57.8792 118.1156
TCL: Running FEP window  10: Lambda1 0.5499999999999996 Lambda2 0.4999999999999996 [dLambda -0.04999999999999999]
TCL: Setting parameter firsttimestep to 0
TCL: Setting parameter alchLambda to 0.5499999999999996
Info: NONBONDED TABLE R-SQUARED SPACING: 0.0625
Info: NONBONDED TABLE SIZE: 705 POINTS
TCL: Setting parameter alchLambda2 to 0.4999999999999996
Info: NONBONDED TABLE R-SQUARED SPACING: 0.0625
Info: NONBONDED TABLE SIZE: 705 POINTS
TCL: Running for 1500000 steps
ETITLE: TS BOND ANGLE DIHED IMPRP ELECT VDW BOUNDARY MISC KINETIC TOTAL TEMP POTENTIAL TOTALAVG TEMPAVG PRESSURE GPRESSURE VOLUME PRESSAVG GPRESSAVG
ENERGY: 0 0.7804 5.5069 4.1404 0.0000 -10800.4562 1444.2890 0.0000 0.0000 1778.7410 -7566.9985 303.0652 -9345.7395 -7566.9985 303.0652 -160.2221 -83.4113 30184.1700 -160.2221 -83.4113
ENERGY: 300000 0.1580 3.2385 3.0182 0.0000 -10727.4074 1446.2853 0.0000 0.0000 1774.2041 -7500.5033 302.2922 -9274.7074 -7538.3458 300.5194 23.8135 90.9835 30442.9094 -184.5833 -96.5419
ENERGY: 600000 2.1322 5.9203 3.0314 0.0000 -10917.7490 1565.9615 0.0000 0.0000 1765.0854 -7575.6181 300.7386 -9340.7036 -7542.2297 299.3290 952.3307 1030.8947 29947.9971 178.0782 260.9244
ENERGY: 900000 0.4261 3.8434 3.5405 0.0000 -10799.2778 1457.7825 0.0000 0.0000 1682.8639 -7650.8213 286.7295 -9333.6852 -7551.2936 299.0320 53.9937 169.3258 29778.5966 187.1916 276.0593
ENERGY: 1200000 1.9639 2.9367 3.2196 0.0000 -10869.0322 1511.7905 0.0000 0.0000 1777.6018 -7571.5197 302.8711 -9349.1215 -7539.8415 299.4269 478.6824 520.7384 30072.0603 201.7676 277.8142
ENERGY: 1500000 0.6105 2.1171 3.0432 0.0000 -10723.1877 1394.5388 0.0000 0.0000 1794.6390 -7528.2390 305.7740 -9322.8780 -7541.6618 299.1979 -437.0950 -407.0211 30268.1827 160.7654 233.5506
TCL: Running FEP window  11: Lambda1 0.4999999999999996 Lambda2 0.4499999999999996 [dLambda -0.04999999999999999]
TCL: Setting parameter firsttimestep to 0
TCL: Setting parameter alchLambda to 0.4999999999999996
Info: NONBONDED TABLE R-SQUARED SPACING: 0.0625
Info: NONBONDED TABLE SIZE: 705 POINTS
TCL: Setting parameter alchLambda2 to 0.4499999999999996
Info: NONBONDED TABLE R-SQUARED SPACING: 0.0625
Info: NONBONDED TABLE SIZE: 705 POINTS
TCL: Running for 1500000 steps
ETITLE: TS BOND ANGLE DIHED IMPRP ELECT VDW BOUNDARY MISC KINETIC TOTAL TEMP POTENTIAL TOTALAVG TEMPAVG PRESSURE GPRESSURE VOLUME PRESSAVG GPRESSAVG
ENERGY: 0 0.6105 2.1171 3.0432 0.0000 -10723.1584 1394.4261 0.0000 0.0000 1793.7678 -7529.1936 305.6255 -9322.9615 -7529.1936 305.6255 -496.1776 -413.5557 30268.1827 -496.1776 -413.5557
ENERGY: 300000 1.0396 3.7994 3.2181 0.0000 -10643.6258 1369.5362 0.0000 0.0000 1754.3737 -7511.6589 298.9135 -9266.0326 -7549.1199 303.1432 -668.6559 -569.6967 30467.2012 -54.4098 26.8337
ENERGY: 600000 0.2115 2.8808 2.6980 0.0000 -10837.8277 1491.3486 0.0000 0.0000 1769.4588 -7571.2301 301.4837 -9340.6890 -7536.8090 302.9979 229.5700 252.5408 30195.4132 -34.0475 34.2279
ENERGY: 900000 0.8684 2.0076 3.8244 0.0000 -10761.8763 1437.8938 0.0000 0.0000 1768.8109 -7548.4712 301.3733 -9317.2821 -7539.6677 302.8969 -225.0687 -143.4171 30600.4263 -116.1988 -47.2902
ENERGY: 1200000 2.1344 2.7841 4.2034 0.0000 -10730.3038 1424.9027 0.0000 0.0000 1747.6303 -7548.6489 297.7645 -9296.2791 -7523.7812 303.8416 -291.6129 -255.2428 30574.4854 -59.2165 6.6738
ENERGY: 1500000 0.4313 5.7093 3.0532 0.0000 -10897.2662 1558.4218 0.0000 0.0000 1762.8623 -7566.7883 300.3598 -9329.6506 -7533.8063 302.8101 981.3809 1016.1363 29762.3778 31.6427 95.2525
TCL: Running FEP window  12: Lambda1 0.4499999999999996 Lambda2 0.39999999999999963 [dLambda -0.04999999999999999]
TCL: Setting parameter firsttimestep to 0
TCL: Setting parameter alchLambda to 0.4499999999999996
Info: NONBONDED TABLE R-SQUARED SPACING: 0.0625
Info: NONBONDED TABLE SIZE: 705 POINTS
TCL: Setting parameter alchLambda2 to 0.39999999999999963
Info: NONBONDED TABLE R-SQUARED SPACING: 0.0625
Info: NONBONDED TABLE SIZE: 705 POINTS
TCL: Running for 1500000 steps
ETITLE: TS BOND ANGLE DIHED IMPRP ELECT VDW BOUNDARY MISC KINETIC TOTAL TEMP POTENTIAL TOTALAVG TEMPAVG PRESSURE GPRESSURE VOLUME PRESSAVG GPRESSAVG
ENERGY: 0 0.4313 5.7093 3.0532 0.0000 -10897.2659 1558.3235 0.0000 0.0000 1762.0009 -7567.7477 300.2130 -9329.7486 -7567.7477 300.2130 923.3073 1007.4387 29762.3778 923.3073 1007.4387
ENERGY: 300000 0.7543 3.3177 3.4656 0.0000 -10790.3715 1441.3946 0.0000 0.0000 1752.5250 -7588.9142 298.5985 -9341.4392 -7560.1889 297.6539 -103.6315 -43.0526 30272.9310 227.7243 296.6421
ENERGY: 600000 0.7975 4.3314 6.8066 0.0000 -10646.4447 1353.1817 0.0000 0.0000 1728.9032 -7552.4243 294.5738 -9281.3274 -7563.1525 297.0362 -875.4287 -790.7190 30689.5506 19.6134 84.2687
ENERGY: 900000 0.7225 6.7102 3.2427 0.0000 -10728.6604 1440.2127 0.0000 0.0000 1751.0343 -7526.7380 298.3445 -9277.7723 -7553.4697 298.4612 -42.9122 -14.2621 30609.5674 46.6056 104.7182
ENERGY: 1200000 2.4769 7.2860 3.3997 0.0000 -10671.6008 1401.2355 0.0000 0.0000 1783.3050 -7473.8976 303.8429 -9257.2027 -7548.0840 299.2169 -445.1813 -326.7971 30727.7549 -76.7880 -10.6127
ENERGY: 1500000 2.1227 3.1597 3.6915 0.0000 -10660.2088 1444.2415 0.0000 0.0000 1714.1856 -7492.8078 292.0662 -9206.9934 -7539.8225 299.1580 101.1274 196.7989 30341.9297 -48.0118 21.5537
TCL: Running FEP window  13: Lambda1 0.39999999999999963 Lambda2 0.34999999999999964 [dLambda -0.04999999999999999]
TCL: Setting parameter firsttimestep to 0
TCL: Setting parameter alchLambda to 0.39999999999999963
Info: NONBONDED TABLE R-SQUARED SPACING: 0.0625
Info: NONBONDED TABLE SIZE: 705 POINTS
TCL: Setting parameter alchLambda2 to 0.34999999999999964
Info: NONBONDED TABLE R-SQUARED SPACING: 0.0625
Info: NONBONDED TABLE SIZE: 705 POINTS
TCL: Running for 1500000 steps
ETITLE: TS BOND ANGLE DIHED IMPRP ELECT VDW BOUNDARY MISC KINETIC TOTAL TEMP POTENTIAL TOTALAVG TEMPAVG PRESSURE GPRESSURE VOLUME PRESSAVG GPRESSAVG
ENERGY: 0 2.1227 3.1597 3.6915 0.0000 -10660.2090 1444.2151 0.0000 0.0000 1713.2985 -7493.7215 291.9150 -9207.0200 -7493.7215 291.9150 101.1943 190.2720 30341.9297 101.1943 190.2720
ENERGY: 300000 1.8899 8.9817 3.9300 0.0000 -10683.3689 1436.8676 0.0000 0.0000 1735.2997 -7496.3999 295.6636 -9231.6996 -7516.5242 298.9663 347.1393 384.9751 30147.7438 -97.0484 -41.7495
ENERGY: 600000 1.8799 2.6672 2.8659 0.0000 -10662.1867 1389.6734 0.0000 0.0000 1789.0690 -7476.0313 304.8249 -9265.1002 -7524.1278 298.9541 -234.1872 -193.2433 30236.1978 -200.5697 -147.1769
ENERGY: 900000 0.3618 3.7578 2.8120 0.0000 -10970.5577 1510.4412 0.0000 0.0000 1706.2981 -7746.8869 290.7223 -9453.1850 -7556.6797 297.9966 201.9569 298.4256 29850.7909 -171.2131 -125.3603
ENERGY: 1200000 1.6239 3.1317 5.3986 0.0000 -10650.7254 1415.4473 0.0000 0.0000 1738.4787 -7486.6452 296.2053 -9225.1239 -7555.3765 297.1419 -166.8495 -170.2509 30703.3964 -202.3908 -155.1962
ENERGY: 1500000 1.2849 3.1421 5.3358 0.0000 -10756.2065 1465.2788 0.0000 0.0000 1704.6483 -7576.5166 290.4412 -9281.1649 -7565.9878 296.1935 111.0872 150.9154 30488.5508 -228.5786 -176.1698
TCL: Running FEP window  14: Lambda1 0.34999999999999964 Lambda2 0.29999999999999966 [dLambda -0.04999999999999999]
TCL: Setting parameter firsttimestep to 0
TCL: Setting parameter alchLambda to 0.34999999999999964
Info: NONBONDED TABLE R-SQUARED SPACING: 0.0625
Info: NONBONDED TABLE SIZE: 705 POINTS
TCL: Setting parameter alchLambda2 to 0.29999999999999966
Info: NONBONDED TABLE R-SQUARED SPACING: 0.0625
Info: NONBONDED TABLE SIZE: 705 POINTS
TCL: Running for 1500000 steps
ETITLE: TS BOND ANGLE DIHED IMPRP ELECT VDW BOUNDARY MISC KINETIC TOTAL TEMP POTENTIAL TOTALAVG TEMPAVG PRESSURE GPRESSURE VOLUME PRESSAVG GPRESSAVG
ENERGY: 0 1.2849 3.1421 5.3358 0.0000 -10756.2074 1465.0449 0.0000 0.0000 1703.7476 -7577.6521 290.2877 -9281.3997 -7577.6521 290.2877 54.8435 143.7497 30488.5508 54.8435 143.7497
ENERGY: 300000 0.8716 3.8732 2.9538 0.0000 -10800.9472 1526.4045 0.0000 0.0000 1817.9393 -7448.9048 309.7439 -9266.8441 -7517.6263 299.1487 567.7805 699.9726 30456.3283 222.4802 296.5087
ENERGY: 600000 2.0930 2.9313 3.9849 0.0000 -10607.5395 1345.2707 0.0000 0.0000 1753.5530 -7499.7067 298.7737 -9253.2597 -7496.1051 299.1517 -710.0059 -657.0429 30297.7017 -141.4386 -66.7420
ENERGY: 900000 1.7167 7.3332 3.8278 0.0000 -10719.8923 1420.6186 0.0000 0.0000 1763.3031 -7523.0929 300.4349 -9286.3960 -7503.3124 299.2403 -491.0125 -448.1707 30835.2208 -152.1752 -78.0342
ENERGY: 1200000 0.4703 2.8209 2.8263 0.0000 -10837.7014 1562.6075 0.0000 0.0000 1771.5055 -7497.4710 301.8324 -9268.9764 -7506.4500 300.2730 702.6088 733.5862 30530.0485 -78.9804 -3.3330
ENERGY: 1500000 0.2336 4.8560 3.2756 0.0000 -10736.3958 1445.1315 0.0000 0.0000 1785.1440 -7497.7553 304.1562 -9282.8993 -7509.8009 300.6240 -116.7906 -75.9981 30412.5461 -59.9471 12.0186
TCL: Running FEP window  15: Lambda1 0.29999999999999966 Lambda2 0.24999999999999967 [dLambda -0.04999999999999999]
TCL: Setting parameter firsttimestep to 0
TCL: Setting parameter alchLambda to 0.29999999999999966
Info: NONBONDED TABLE R-SQUARED SPACING: 0.0625
Info: NONBONDED TABLE SIZE: 705 POINTS
TCL: Setting parameter alchLambda2 to 0.24999999999999967
Info: NONBONDED TABLE R-SQUARED SPACING: 0.0625
Info: NONBONDED TABLE SIZE: 705 POINTS
TCL: Running for 1500000 steps
ETITLE: TS BOND ANGLE DIHED IMPRP ELECT VDW BOUNDARY MISC KINETIC TOTAL TEMP POTENTIAL TOTALAVG TEMPAVG PRESSURE GPRESSURE VOLUME PRESSAVG GPRESSAVG
ENERGY: 0 0.2336 4.8560 3.2756 0.0000 -10736.3955 1445.3416 0.0000 0.0000 1784.2653 -7498.4235 304.0065 -9282.6888 -7498.4235 304.0065 -173.5643 -76.3897 30412.5461 -173.5643 -76.3897
ENERGY: 300000 0.9261 4.6990 3.9067 0.0000 -10616.7195 1441.9581 0.0000 0.0000 1810.7469 -7354.4828 308.5185 -9165.2297 -7457.4539 304.2401 229.7176 356.6253 30480.1326 -129.9462 -45.9191
ENERGY: 600000 1.6750 5.6261 3.7113 0.0000 -10698.0888 1450.1597 0.0000 0.0000 1737.2113 -7499.7054 295.9893 -9236.9167 -7488.9119 300.9990 -106.5293 -21.2707 30784.0285 24.0520 109.6284
ENERGY: 900000 0.8350 3.8594 3.7930 0.0000 -10614.8597 1351.9569 0.0000 0.0000 1686.2174 -7568.1981 287.3009 -9254.4155 -7501.9026 299.5919 -545.2437 -533.4362 30395.6218 -61.1013 11.3777
ENERGY: 1200000 2.5249 3.7745 2.9031 0.0000 -10716.1626 1416.1647 0.0000 0.0000 1735.0961 -7555.6995 295.6289 -9290.7955 -7502.6150 299.4419 -343.8880 -289.8510 30251.0232 -187.0336 -113.0456
ENERGY: 1500000 1.4273 3.4938 2.9905 0.0000 -10705.9358 1444.8836 0.0000 0.0000 1809.0946 -7444.0460 308.2369 -9253.1406 -7503.7305 300.0587 119.3882 101.6099 30388.0619 -164.4216 -104.3193
TCL: Running FEP window  16: Lambda1 0.24999999999999967 Lambda2 0.19999999999999968 [dLambda -0.04999999999999999]
TCL: Setting parameter firsttimestep to 0
TCL: Setting parameter alchLambda to 0.24999999999999967
Info: NONBONDED TABLE R-SQUARED SPACING: 0.0625
Info: NONBONDED TABLE SIZE: 705 POINTS
TCL: Setting parameter alchLambda2 to 0.19999999999999968
Info: NONBONDED TABLE R-SQUARED SPACING: 0.0625
Info: NONBONDED TABLE SIZE: 705 POINTS
TCL: Running for 1500000 steps
ETITLE: TS BOND ANGLE DIHED IMPRP ELECT VDW BOUNDARY MISC KINETIC TOTAL TEMP POTENTIAL TOTALAVG TEMPAVG PRESSURE GPRESSURE VOLUME PRESSAVG GPRESSAVG
ENERGY: 0 1.4273 3.4938 2.9905 0.0000 -10705.9357 1445.2812 0.0000 0.0000 1808.2290 -7444.5139 308.0895 -9252.7430 -7444.5139 308.0895 23.6996 101.1322 30388.0619 23.6996 101.1322
ENERGY: 300000 0.6728 7.3273 3.2603 0.0000 -10611.2988 1364.2271 0.0000 0.0000 1778.8932 -7456.9181 303.0912 -9235.8113 -7478.2364 305.1264 -620.3856 -500.6419 30511.0804 10.7584 87.6748
ENERGY: 600000 1.5754 1.8143 3.5752 0.0000 -10673.2417 1410.4209 0.0000 0.0000 1771.0441 -7484.8118 301.7538 -9255.8559 -7488.2471 303.7527 45.5056 116.3876 29978.1638 35.9441 92.0417
ENERGY: 900000 1.9077 3.5302 2.8849 0.0000 -10711.3504 1396.1649 0.0000 0.0000 1747.2798 -7559.5828 297.7048 -9306.8627 -7510.3928 302.4554 -316.2064 -258.2839 30088.1137 27.1362 94.1404
ENERGY: 1200000 2.3604 5.5909 3.6274 0.0000 -10756.3447 1408.6953 0.0000 0.0000 1787.0874 -7548.9832 304.4873 -9336.0706 -7510.7801 301.6770 -442.4039 -457.7922 30339.2363 -12.9097 46.3368
ENERGY: 1500000 1.1154 4.7264 2.9243 0.0000 -10700.8361 1461.3939 0.0000 0.0000 1783.4544 -7447.2217 303.8683 -9230.6760 -7503.7023 301.8321 476.2892 527.7021 30143.9644 46.7096 101.3146
TCL: Running FEP window  17: Lambda1 0.19999999999999968 Lambda2 0.1499999999999997 [dLambda -0.04999999999999999]
TCL: Setting parameter firsttimestep to 0
TCL: Setting parameter alchLambda to 0.19999999999999968
Info: NONBONDED TABLE R-SQUARED SPACING: 0.0625
Info: NONBONDED TABLE SIZE: 705 POINTS
TCL: Setting parameter alchLambda2 to 0.1499999999999997
Info: NONBONDED TABLE R-SQUARED SPACING: 0.0625
Info: NONBONDED TABLE SIZE: 705 POINTS
TCL: Running for 1500000 steps
ETITLE: TS BOND ANGLE DIHED IMPRP ELECT VDW BOUNDARY MISC KINETIC TOTAL TEMP POTENTIAL TOTALAVG TEMPAVG PRESSURE GPRESSURE VOLUME PRESSAVG GPRESSAVG
ENERGY: 0 1.1154 4.7264 2.9243 0.0000 -10700.8367 1461.7044 0.0000 0.0000 1782.5774 -7447.7888 303.7189 -9230.3662 -7447.7888 303.7189 453.7888 526.4285 30143.9644 453.7888 526.4285
ENERGY: 300000 0.6667 7.0253 2.7715 0.0000 -10793.1142 1483.4783 0.0000 0.0000 1788.1233 -7511.0492 304.6638 -9299.1725 -7471.9198 302.9384 392.6185 485.1719 30110.1880 331.5587 386.8399
ENERGY: 600000 0.2783 4.5550 3.8684 0.0000 -10819.2844 1549.7999 0.0000 0.0000 1779.8169 -7480.9659 303.2486 -9260.7829 -7484.4066 302.7278 862.2056 978.5981 30090.2655 292.3312 368.4789
ENERGY: 900000 1.7761 5.1676 5.4496 0.0000 -10605.6781 1389.6241 0.0000 0.0000 1778.4603 -7425.2005 303.0174 -9203.6608 -7486.5604 304.0496 -223.7195 -126.7981 30529.9817 114.1665 189.2341
ENERGY: 1200000 0.9107 2.0283 3.2659 0.0000 -10817.8855 1526.8031 0.0000 0.0000 1696.9155 -7587.9621 289.1236 -9284.8776 -7498.4110 302.3720 717.3841 743.8268 29911.1783 153.7017 216.0781
ENERGY: 1500000 0.6745 4.4712 2.7766 0.0000 -10550.9283 1328.4793 0.0000 0.0000 1809.3955 -7405.1312 308.2882 -9214.5267 -7491.9910 302.7711 -637.6022 -552.9867 30337.7784 73.1211 132.9626
TCL: Running FEP window  18: Lambda1 0.1499999999999997 Lambda2 0.09999999999999969 [dLambda -0.05 ]
TCL: Setting parameter firsttimestep to 0
TCL: Setting parameter alchLambda to 0.1499999999999997
Info: NONBONDED TABLE R-SQUARED SPACING: 0.0625
Info: NONBONDED TABLE SIZE: 705 POINTS
TCL: Setting parameter alchLambda2 to 0.09999999999999969
Info: NONBONDED TABLE R-SQUARED SPACING: 0.0625
Info: NONBONDED TABLE SIZE: 705 POINTS
TCL: Running for 1500000 steps
ETITLE: TS BOND ANGLE DIHED IMPRP ELECT VDW BOUNDARY MISC KINETIC TOTAL TEMP POTENTIAL TOTALAVG TEMPAVG PRESSURE GPRESSURE VOLUME PRESSAVG GPRESSAVG
ENERGY: 0 0.6745 4.4712 2.7766 0.0000 -10550.9285 1328.6008 0.0000 0.0000 1808.5350 -7405.8705 308.1416 -9214.4055 -7405.8705 308.1416 -620.4957 -556.1480 30337.7784 -620.4957 -556.1480
ENERGY: 300000 1.3313 2.7268 3.1678 0.0000 -10542.9888 1324.8395 0.0000 0.0000 1725.6026 -7485.3209 294.0114 -9210.9235 -7497.0370 298.2235 -780.5007 -743.4328 30829.8620 -260.5303 -199.4718
ENERGY: 600000 1.3891 3.7757 3.1689 0.0000 -10786.5867 1484.0261 0.0000 0.0000 1750.3989 -7543.8279 298.2363 -9294.2268 -7509.8547 299.6495 285.2128 421.0688 30125.0582 -183.6371 -125.2085
ENERGY: 900000 3.0938 2.8459 3.2188 0.0000 -10796.1181 1509.3008 0.0000 0.0000 1736.4718 -7541.1870 295.8633 -9277.6588 -7515.3178 300.5863 697.9040 791.9301 29789.4453 -106.9377 -46.3813
ENERGY: 1200000 4.2334 3.5786 3.1430 0.0000 -10805.2397 1505.4296 0.0000 0.0000 1769.0125 -7519.8426 301.4077 -9288.8550 -7513.9874 300.1711 219.4828 302.6622 30422.9390 -152.6573 -88.1300
ENERGY: 1500000 3.5165 3.2619 2.8498 0.0000 -10721.7547 1527.8256 0.0000 0.0000 1777.5405 -7406.7603 302.8607 -9184.3009 -7511.5954 300.1685 1089.4696 1149.5241 29921.0345 -100.3892 -32.8760
TCL: Running FEP window  19: Lambda1 0.09999999999999969 Lambda2 0.049999999999999684 [dLambda -0.05 ]
TCL: Setting parameter firsttimestep to 0
TCL: Setting parameter alchLambda to 0.09999999999999969
Info: NONBONDED TABLE R-SQUARED SPACING: 0.0625
Info: NONBONDED TABLE SIZE: 705 POINTS
TCL: Setting parameter alchLambda2 to 0.049999999999999684
Info: NONBONDED TABLE R-SQUARED SPACING: 0.0625
Info: NONBONDED TABLE SIZE: 705 POINTS
TCL: Running for 1500000 steps
ETITLE: TS BOND ANGLE DIHED IMPRP ELECT VDW BOUNDARY MISC KINETIC TOTAL TEMP POTENTIAL TOTALAVG TEMPAVG PRESSURE GPRESSURE VOLUME PRESSAVG GPRESSAVG
ENERGY: 0 3.5165 3.2619 2.8498 0.0000 -10721.7547 1527.5463 0.0000 0.0000 1776.6438 -7407.9364 302.7079 -9184.5802 -7407.9364 302.7079 1062.2351 1145.7443 29921.0345 1062.2351 1145.7443
ENERGY: 300000 0.8267 3.5273 2.9050 0.0000 -10761.9138 1442.8150 0.0000 0.0000 1784.4158 -7527.4239 304.0321 -9311.8397 -7530.5923 300.0240 -174.6810 -119.3505 30553.0185 194.7219 247.7795
ENERGY: 600000 0.7464 2.8970 3.7488 0.0000 -10770.3553 1457.8633 0.0000 0.0000 1768.9060 -7536.1938 301.3895 -9305.0998 -7524.5176 301.5604 314.0333 331.7339 30147.4610 233.9417 284.1537
ENERGY: 900000 1.3534 3.3990 2.9267 0.0000 -10720.2349 1422.8660 0.0000 0.0000 1799.0613 -7490.6285 306.5275 -9289.6898 -7521.9638 302.4217 -173.7819 -120.7598 30122.6062 0.8336 47.9584
ENERGY: 1200000 0.4485 8.7729 3.4234 0.0000 -10661.4885 1456.7027 0.0000 0.0000 1719.9483 -7472.1927 293.0480 -9192.1411 -7515.0361 301.5809 200.8617 201.8496 30402.5926 58.5876 106.5838
ENERGY: 1500000 0.7806 1.3617 3.7408 0.0000 -10692.3579 1449.2716 0.0000 0.0000 1736.5267 -7500.6765 295.8727 -9237.2032 -7520.7054 300.2048 387.8313 452.4977 30027.8060 39.1155 84.9593
TCL: Running FEP window  20: Lambda1 0.049999999999999684 Lambda2 0.0    [dLambda -0.049999999999999684]
TCL: Setting parameter firsttimestep to 0
TCL: Setting parameter alchLambda to 0.049999999999999684
Info: NONBONDED TABLE R-SQUARED SPACING: 0.0625
Info: NONBONDED TABLE SIZE: 705 POINTS
TCL: Setting parameter alchLambda2 to 0.0
Info: NONBONDED TABLE R-SQUARED SPACING: 0.0625
Info: NONBONDED TABLE SIZE: 705 POINTS
TCL: Running for 1500000 steps
ETITLE: TS BOND ANGLE DIHED IMPRP ELECT VDW BOUNDARY MISC KINETIC TOTAL TEMP POTENTIAL TOTALAVG TEMPAVG PRESSURE GPRESSURE VOLUME PRESSAVG GPRESSAVG
ENERGY: 0 0.7806 1.3617 3.7408 0.0000 -10692.3593 1448.2809 0.0000 0.0000 1735.6437 -7502.5516 295.7222 -9238.1953 -7502.5516 295.7222 345.1267 445.7412 30027.8060 345.1267 445.7412
ENERGY: 300000 1.5084 5.9399 4.5183 0.0000 -10746.1545 1430.1873 0.0000 0.0000 1803.3955 -7500.6052 307.2659 -9304.0007 -7532.2872 297.9355 -108.0799 -37.6510 30043.0375 158.7404 228.7735
ENERGY: 600000 0.7949 2.5346 3.8545 0.0000 -10597.6788 1375.8768 0.0000 0.0000 1701.2442 -7513.3737 289.8612 -9214.6180 -7542.1878 295.2844 -323.6966 -219.0024 30293.6825 53.1069 117.6679
ENERGY: 900000 2.1024 5.2876 3.6380 0.0000 -10846.1096 1463.2777 0.0000 0.0000 1770.1831 -7601.6208 301.6071 -9371.8039 -7546.8753 297.3149 143.6987 174.0388 29846.9932 58.2450 120.3396
ENERGY: 1200000 0.2627 3.3921 3.2662 0.0000 -10703.5903 1441.5993 0.0000 0.0000 1754.1372 -7500.9329 298.8732 -9255.0701 -7527.8899 298.0786 306.9677 355.6435 29698.8860 24.4289 88.6029
ENERGY: 1500000 0.9073 3.1942 3.6363 0.0000 -10786.6738 1476.3364 0.0000 0.0000 1805.9567 -7496.6428 307.7023 -9302.5995 -7520.1837 298.5658 351.1155 404.6371 29822.1791 -12.8456 46.1301
TCL: Exiting due to exit command.
