Info: SIMULATION PARAMETERS:
Info: TIMESTEP               2
Info: NUMBER OF STEPS        0
Info: STEPS PER CYCLE        10
Info: PERIODIC CELL BASIS 1  31.0737 0 0
Info: PERIODIC CELL BASIS 2  0 30.4081 0
Info: PERIODIC CELL BASIS 3  0 0 31.8246
Info: PERIODIC CELL CENTER   0 0 0
Info: WRAPPING WATERS AROUND PERIODIC BOUNDARIES ON OUTPUT.
Info: WRAPPING ALL CLUSTERS AROUND PERIODIC BOUNDARIES ON OUTPUT.
Info: FIRST LDB TIMESTEP     50
Info: LAST LDB TIMESTEP     -1
Info: HOM BACKGROUND SCALING 1
Info: PME BACKGROUND SCALING 1
Info: MIN ATOMS PER PATCH    40
Info: EMPTY PATCH LOAD       40 ATOMS
Info: VELOCITY FILE          mobley_5852491_equil.vel
Info: CENTER OF MASS MOVING INITIALLY? NO
Info: DIELECTRIC             1
Info: EXCLUDE                SCALED ONE-FOUR
Info: 1-4 ELECTROSTATICS SCALED BY 0.833333
Info: MODIFIED 1-4 VDW PARAMETERS WILL BE USED
Info: DCD FILENAME           mobley_5852491_prod.dcd
Info: DCD FREQUENCY          100000
Info: DCD FIRST STEP         100000
Info: DCD FILE WILL CONTAIN UNIT CELL DATA
Info: XST FILENAME           mobley_5852491_prod.xst
Info: XST FREQUENCY          100000
Info: NO VELOCITY DCD OUTPUT
Info: NO FORCE DCD OUTPUT
Info: OUTPUT FILENAME        mobley_5852491_prod
Info: BINARY OUTPUT FILES WILL BE USED
Info: RESTART FILENAME       mobley_5852491_prod.restart
Info: RESTART FREQUENCY      100000
Info: BINARY RESTART FILES WILL BE USED
Info: CUTOFF                 9
Info: PAIRLIST DISTANCE      11
Info: PAIRLIST SHRINK RATE   0.01
Info: PAIRLIST GROW RATE     0.01
Info: PAIRLIST TRIGGER       0.3
Info: PAIRLISTS PER CYCLE    2
Info: PAIRLISTS ENABLED
Info: MARGIN                 2
Info: HYDROGEN GROUP CUTOFF  2.5
Info: PATCH DIMENSION        15.5
Info: ENERGY OUTPUT STEPS    100000
Info: ENERGY EVALUATION STEPS    100000
Info: OUTPUT ENERGY PRECISION 4
Info: CROSSTERM ENERGY INCLUDED IN DIHEDRAL
Info: TIMING OUTPUT STEPS    1000000
Info: PRESSURE OUTPUT STEPS  100000
Info: ALCHEMICAL FEP ON
Info: FEP CURRENT LAMBDA VALUE     0
Info: FEP COMPARISON LAMBDA VALUE  0.05
Info: FEP INTRA-ALCHEMICAL NON-BONDED INTERACTIONS WILL BE RETAINED
Info: FEP INTRA-ALCHEMICAL BONDED INTERACTIONS WILL BE RETAINED
Info: FEP VDW SHIFTING COEFFICIENT 5
Info: FEP ELEC. ACTIVE FOR ANNIHILATED PARTICLES BETWEEN LAMBDA = 0 AND LAMBDA = 0.5
Info: FEP ELEC. ACTIVE FOR EXNIHILATED PARTICLES BETWEEN LAMBDA = 0.5 AND LAMBDA = 1
Info: FEP VDW ACTIVE FOR ANNIHILATED PARTICLES BETWEEN LAMBDA = 0 AND LAMBDA = 1
Info: FEP VDW ACTIVE FOR EXNIHILATED PARTICLES BETWEEN LAMBDA = 0 AND LAMBDA = 1
Info: FEP BOND ACTIVE FOR ANNIHILATED PARTICLES BETWEEN LAMBDA = 1 AND LAMBDA = 1
Info: FEP BOND ACTIVE FOR EXNIHILATED PARTICLES BETWEEN LAMBDA = 0 AND LAMBDA = 0
Info: LANGEVIN DYNAMICS ACTIVE
Info: LANGEVIN TEMPERATURE   300
Info: LANGEVIN USING BBK INTEGRATOR
Info: LANGEVIN DAMPING COEFFICIENT IS 1 INVERSE PS
Info: LANGEVIN DYNAMICS APPLIED TO HYDROGENS
Info: LANGEVIN PISTON PRESSURE CONTROL ACTIVE
Info:        TARGET PRESSURE IS 1.01325 BAR
Info:     OSCILLATION PERIOD IS 50 FS
Info:             DECAY TIME IS 25 FS
Info:     PISTON TEMPERATURE IS 300 K
Info:       PRESSURE CONTROL IS GROUP-BASED
Info:    INITIAL STRAIN RATE IS 0.000141193 0.000141193 0.000141193
Info:       CELL FLUCTUATION IS ISOTROPIC
Info: PARTICLE MESH EWALD (PME) ACTIVE
Info: PME TOLERANCE               1e-06
Info: PME EWALD COEFFICIENT       0.348832
Info: PME INTERPOLATION ORDER     4
Info: PME GRID DIMENSIONS         32 32 32
Info: PME MAXIMUM GRID SPACING    1
Info: PME CALCULATION WILL BE PERFORMED ON GPU
Info: FULL ELECTROSTATIC EVALUATION FREQUENCY      2
Info: USING VERLET I (r-RESPA) MTS SCHEME.
Info: C1 SPLITTING OF LONG RANGE ELECTROSTATICS
Info: PLACING ATOMS IN PATCHES BY HYDROGEN GROUPS
Info: RIGID BONDS TO HYDROGEN : ALL
Info:         ERROR TOLERANCE : 1e-08
Info:          MAX ITERATIONS : 100
Info: RIGID WATER USING SETTLE ALGORITHM
Info: RANDOM NUMBER SEED     1743600965
Info: USE HYDROGEN BONDS?    NO
Info: Using AMBER format force field!
Info: AMBER PARM FILE        mobley_5852491.prmtop
Info: COORDINATE PDB         mobley_5852491.pdb
Info: Exclusions will be read from PARM file!
Info: SCNB (VDW SCALING)     2
Info: USING ARITHMETIC MEAN TO COMBINE L-J SIGMA PARAMETERS
Info: BINARY COORDINATES     mobley_5852491_equil.coor
Info: SUMMARY OF PARAMETERS:
Info: 4 BONDS
Info: 3 ANGLES
Info:   3 HARMONIC
Info:   0 COSINE-BASED
Info: 5 DIHEDRAL
Info: 0 IMPROPER
Info: 0 CROSSTERM
Info: 0 VDW
Info: 10 VDW_PAIRS
Info: 0 NBTHOLE_PAIRS
Info: To read alchdata from file: mobley_5852491.pdb
Info: To read alchflag data from column: 5
Info: STRUCTURE SUMMARY:
Info: 2904 ATOMS
Info: 2904 BONDS
Info: 36 ANGLES
Info: 68 DIHEDRALS
Info: 0 IMPROPERS
Info: 0 CROSSTERMS
Info: 2989 EXCLUSIONS
Info: 2898 RIGID BONDS
Info: ALCH: 0 ATOMS TO DISAPPEAR IN FINAL STATE
Info: ALCH: 18 ATOMS TO APPEAR IN FINAL STATE
Info: 5814 DEGREES OF FREEDOM
Info: 968 HYDROGEN GROUPS
Info: 4 ATOMS IN LARGEST HYDROGEN GROUP
Info: 968 MIGRATION GROUPS
Info: 4 ATOMS IN LARGEST MIGRATION GROUP
Info: TOTAL MASS = 17415.5 amu
Info: TOTAL CHARGE = 0.000100002 e
Info: MASS DENSITY = 0.961724 g/cm^3
Info: ATOM DENSITY = 0.0965719 atoms/A^3
Info: ADDED 0 IMPLICIT EXCLUSIONS
Info: NONBONDED TABLE R-SQUARED SPACING: 0.0625
Info: NONBONDED TABLE SIZE: 705 POINTS
Info: REMOVING COM VELOCITY -0.147252 -0.0412755 0.107125
Info: Use 3D box decompostion in PME FFT.
Info: Updated CUDA force table with 4096 elements.
Info: Updated CUDA LJ table with 4 x 4 elements.
Info: Found 21 unique exclusion lists needing 56 bytes
TCL: Running for 1500000 steps
ETITLE: TS BOND ANGLE DIHED IMPRP ELECT VDW BOUNDARY MISC KINETIC TOTAL TEMP POTENTIAL TOTALAVG TEMPAVG PRESSURE GPRESSURE VOLUME PRESSAVG GPRESSAVG
ENERGY: 0 1.6930 10.0149 12.2215 0.0000 -10432.7328 1317.4109 0.0000 0.0000 1742.2449 -7349.1477 301.5953 -9091.3926 -7349.1477 301.5953 -809.5709 -729.4943 30070.8689 -809.5709 -729.4943
ENERGY: 300000 3.1026 8.6822 10.3995 0.0000 -10748.0758 1572.4939 0.0000 0.0000 1696.4110 -7456.9866 293.6611 -9153.3976 -7377.7688 299.4504 728.8327 842.2499 29838.7403 -198.3101 -129.8393
ENERGY: 600000 2.9408 10.1691 12.3102 0.0000 -10482.2372 1355.3049 0.0000 0.0000 1723.2793 -7378.2330 298.3122 -9101.5123 -7379.6505 299.1417 -676.7967 -544.8388 29625.9273 -292.6964 -231.0441
ENERGY: 900000 1.4946 19.0198 7.7571 0.0000 -10561.1390 1420.9228 0.0000 0.0000 1734.6694 -7377.2754 300.2839 -9111.9448 -7362.4825 299.4820 109.1013 142.1009 29744.4483 -210.2217 -154.9292
ENERGY: 1200000 1.4238 8.7547 12.4522 0.0000 -10610.4817 1397.9192 0.0000 0.0000 1737.3116 -7452.6202 300.7413 -9189.9318 -7363.1972 300.1460 -247.4293 -195.7496 29387.8401 -160.7901 -107.6663
ENERGY: 1500000 0.4973 11.3724 11.3462 0.0000 -10589.6975 1447.4429 0.0000 0.0000 1755.9709 -7363.0677 303.9714 -9119.0386 -7358.6062 300.4466 197.9789 206.3065 29484.0237 -159.0870 -103.2427
TCL: Running FEP window   2: Lambda1 0.05   Lambda2 0.1    [dLambda 0.05  ]
TCL: Setting parameter firsttimestep to 0
TCL: Setting parameter alchLambda to 0.05
Info: NONBONDED TABLE R-SQUARED SPACING: 0.0625
Info: NONBONDED TABLE SIZE: 705 POINTS
TCL: Setting parameter alchLambda2 to 0.1
Info: NONBONDED TABLE R-SQUARED SPACING: 0.0625
Info: NONBONDED TABLE SIZE: 705 POINTS
TCL: Running for 1500000 steps
ETITLE: TS BOND ANGLE DIHED IMPRP ELECT VDW BOUNDARY MISC KINETIC TOTAL TEMP POTENTIAL TOTALAVG TEMPAVG PRESSURE GPRESSURE VOLUME PRESSAVG GPRESSAVG
ENERGY: 0 0.4973 11.3724 11.3462 0.0000 -10589.6983 1449.4695 0.0000 0.0000 1755.1039 -7361.9089 303.8213 -9117.0129 -7361.9089 303.8213 144.1916 212.4699 29484.0237 144.1916 212.4699
ENERGY: 300000 1.7097 13.3527 7.7079 0.0000 -10593.0766 1471.3856 0.0000 0.0000 1795.2263 -7303.6943 310.7668 -9098.9206 -7306.5427 305.6259 308.2891 352.9200 29834.0810 338.9314 386.9253
ENERGY: 600000 2.3296 10.9234 9.6528 0.0000 -10622.8946 1534.4326 0.0000 0.0000 1759.6839 -7305.8723 304.6141 -9065.5562 -7316.5401 305.2307 907.9536 976.9766 29631.1671 214.3821 280.3930
ENERGY: 900000 2.6791 9.9272 12.3115 0.0000 -10567.2472 1432.2337 0.0000 0.0000 1780.3188 -7329.7770 308.1862 -9110.0957 -7323.6875 303.6661 -68.0342 2.0286 29828.5500 16.3528 73.7939
ENERGY: 1200000 2.4500 14.2959 11.5820 0.0000 -10403.1884 1365.3034 0.0000 0.0000 1748.4445 -7261.1125 302.6685 -9009.5570 -7318.8808 302.6157 -167.7389 -133.9499 29490.4756 -32.2892 25.6558
ENERGY: 1500000 2.3157 11.9578 11.5215 0.0000 -10519.6778 1494.8688 0.0000 0.0000 1710.4381 -7288.5759 296.0893 -8999.0140 -7313.6169 302.0689 757.0984 824.1241 29535.3554 -28.5098 29.0692
TCL: Running FEP window   3: Lambda1 0.1    Lambda2 0.15000000000000002 [dLambda 0.05000000000000002]
TCL: Setting parameter firsttimestep to 0
TCL: Setting parameter alchLambda to 0.1
Info: NONBONDED TABLE R-SQUARED SPACING: 0.0625
Info: NONBONDED TABLE SIZE: 705 POINTS
TCL: Setting parameter alchLambda2 to 0.15000000000000002
Info: NONBONDED TABLE R-SQUARED SPACING: 0.0625
Info: NONBONDED TABLE SIZE: 705 POINTS
TCL: Running for 1500000 steps
ETITLE: TS BOND ANGLE DIHED IMPRP ELECT VDW BOUNDARY MISC KINETIC TOTAL TEMP POTENTIAL TOTALAVG TEMPAVG PRESSURE GPRESSURE VOLUME PRESSAVG GPRESSAVG
ENERGY: 0 2.3157 11.9578 11.5215 0.0000 -10519.6773 1495.0744 0.0000 0.0000 1709.6233 -7289.1845 295.9483 -8998.8079 -7289.1845 295.9483 750.5068 826.9959 29535.3554 750.5068 826.9959
ENERGY: 300000 3.8121 8.4433 9.4663 0.0000 -10593.3446 1499.1980 0.0000 0.0000 1751.3372 -7321.0877 303.1692 -9072.4249 -7359.1708 297.0711 989.7164 978.5226 29148.3926 322.4953 388.3457
ENERGY: 600000 1.0961 12.7019 10.4348 0.0000 -10537.0236 1434.9415 0.0000 0.0000 1741.7633 -7336.0860 301.5119 -9077.8493 -7337.9204 298.0844 101.8942 111.7217 29772.3921 227.3389 293.1590
ENERGY: 900000 1.5470 13.9885 9.7176 0.0000 -10599.3027 1463.8906 0.0000 0.0000 1766.6082 -7343.5509 305.8128 -9110.1591 -7324.5612 299.6830 453.9999 496.8367 29315.7039 275.2033 335.1465
ENERGY: 1200000 0.7423 11.0302 10.5893 0.0000 -10457.6817 1395.8108 0.0000 0.0000 1725.5379 -7313.9711 298.7032 -9039.5091 -7327.5007 299.7676 -116.7162 -33.5598 29937.7154 219.9849 283.7064
ENERGY: 1500000 0.8018 8.5724 14.7282 0.0000 -10827.8322 1628.3844 0.0000 0.0000 1696.9527 -7478.3926 293.7549 -9175.3453 -7333.4337 299.9460 1656.2961 1697.8621 28882.1655 287.2255 357.3133
TCL: Running FEP window   4: Lambda1 0.15000000000000002 Lambda2 0.2    [dLambda 0.04999999999999999]
TCL: Setting parameter firsttimestep to 0
TCL: Setting parameter alchLambda to 0.15000000000000002
Info: NONBONDED TABLE R-SQUARED SPACING: 0.0625
Info: NONBONDED TABLE SIZE: 705 POINTS
TCL: Setting parameter alchLambda2 to 0.2
Info: NONBONDED TABLE R-SQUARED SPACING: 0.0625
Info: NONBONDED TABLE SIZE: 705 POINTS
TCL: Running for 1500000 steps
ETITLE: TS BOND ANGLE DIHED IMPRP ELECT VDW BOUNDARY MISC KINETIC TOTAL TEMP POTENTIAL TOTALAVG TEMPAVG PRESSURE GPRESSURE VOLUME PRESSAVG GPRESSAVG
ENERGY: 0 0.8018 8.5724 14.7282 0.0000 -10827.8325 1629.3620 0.0000 0.0000 1696.0650 -7478.3029 293.6012 -9174.3680 -7478.3029 293.6012 1625.6636 1705.5086 28882.1655 1625.6636 1705.5086
ENERGY: 300000 4.0638 11.1545 9.3090 0.0000 -10557.3828 1380.7843 0.0000 0.0000 1778.1642 -7373.9070 307.8132 -9152.0712 -7376.2206 302.6343 -422.6022 -358.2594 29692.2695 509.3048 584.4649
ENERGY: 600000 2.2652 10.9265 10.1933 0.0000 -10619.6013 1564.9742 0.0000 0.0000 1789.5763 -7241.6657 309.7887 -9031.2421 -7334.2270 304.0946 1380.3860 1465.5870 29524.6031 401.0336 488.6286
ENERGY: 900000 1.0531 15.7182 9.5527 0.0000 -10494.8556 1428.4501 0.0000 0.0000 1737.2082 -7302.8734 300.7234 -9040.0816 -7340.1224 302.1071 223.5864 243.5934 29583.6804 216.9160 281.3640
ENERGY: 1200000 0.3019 13.7956 8.7601 0.0000 -10568.1181 1455.2861 0.0000 0.0000 1657.0853 -7432.8890 286.8536 -9089.9743 -7348.6394 300.4716 239.8490 289.3153 29457.6087 118.6610 184.7806
ENERGY: 1500000 1.1783 7.4033 10.9553 0.0000 -10676.2951 1472.5170 0.0000 0.0000 1805.2219 -7379.0192 312.4971 -9184.2411 -7342.0363 301.4418 236.3775 369.9583 29577.3948 153.6388 227.0773
TCL: Running FEP window   5: Lambda1 0.2    Lambda2 0.25   [dLambda 0.04999999999999999]
TCL: Setting parameter firsttimestep to 0
TCL: Setting parameter alchLambda to 0.2
Info: NONBONDED TABLE R-SQUARED SPACING: 0.0625
Info: NONBONDED TABLE SIZE: 705 POINTS
TCL: Setting parameter alchLambda2 to 0.25
Info: NONBONDED TABLE R-SQUARED SPACING: 0.0625
Info: NONBONDED TABLE SIZE: 705 POINTS
TCL: Running for 1500000 steps
ETITLE: TS BOND ANGLE DIHED IMPRP ELECT VDW BOUNDARY MISC KINETIC TOTAL TEMP POTENTIAL TOTALAVG TEMPAVG PRESSURE GPRESSURE VOLUME PRESSAVG GPRESSAVG
ENERGY: 0 1.1783 7.4033 10.9553 0.0000 -10676.2948 1473.7285 0.0000 0.0000 1804.3403 -7378.6891 312.3445 -9183.0294 -7378.6891 312.3445 292.3010 380.9463 29577.3948 292.3010 380.9463
ENERGY: 300000 1.7168 9.8943 12.1014 0.0000 -10477.7567 1393.3242 0.0000 0.0000 1748.4244 -7312.2956 302.6650 -9060.7199 -7366.2735 303.2642 -520.5976 -438.4478 30439.2246 -122.6569 -38.9407
ENERGY: 600000 2.3226 11.0176 9.2725 0.0000 -10357.0321 1371.5421 0.0000 0.0000 1778.2962 -7184.5811 307.8360 -8962.8773 -7330.4656 303.8826 -122.8687 -86.5632 29825.7152 -89.2008 -20.0424
ENERGY: 900000 4.1798 13.8365 11.1199 0.0000 -10523.7962 1357.2640 0.0000 0.0000 1716.6044 -7420.7916 297.1567 -9137.3960 -7344.3504 301.9657 -704.4923 -612.0683 29827.0864 -236.1066 -181.6521
ENERGY: 1200000 1.0193 9.9850 11.9926 0.0000 -10447.2950 1418.8831 0.0000 0.0000 1787.7870 -7217.6280 309.4790 -9005.4150 -7339.0448 301.8345 55.1239 131.3142 30122.1901 -156.0860 -102.1164
ENERGY: 1500000 1.2310 12.4219 10.9952 0.0000 -10391.1399 1311.6216 0.0000 0.0000 1683.0955 -7371.7747 291.3561 -9054.8703 -7335.2375 301.6169 -805.7136 -761.6202 29595.7186 -154.8956 -97.1171
TCL: Running FEP window   6: Lambda1 0.25   Lambda2 0.3    [dLambda 0.04999999999999999]
TCL: Setting parameter firsttimestep to 0
TCL: Setting parameter alchLambda to 0.25
Info: NONBONDED TABLE R-SQUARED SPACING: 0.0625
Info: NONBONDED TABLE SIZE: 705 POINTS
TCL: Setting parameter alchLambda2 to 0.3
Info: NONBONDED TABLE R-SQUARED SPACING: 0.0625
Info: NONBONDED TABLE SIZE: 705 POINTS
TCL: Running for 1500000 steps
ETITLE: TS BOND ANGLE DIHED IMPRP ELECT VDW BOUNDARY MISC KINETIC TOTAL TEMP POTENTIAL TOTALAVG TEMPAVG PRESSURE GPRESSURE VOLUME PRESSAVG GPRESSAVG
ENERGY: 0 1.2310 12.4219 10.9952 0.0000 -10391.1395 1311.3548 0.0000 0.0000 1682.1994 -7372.9371 291.2010 -9055.1366 -7372.9371 291.2010 -855.6103 -759.1563 29595.7186 -855.6103 -759.1563
ENERGY: 300000 1.2194 14.0267 9.9785 0.0000 -10544.7850 1384.4349 0.0000 0.0000 1759.9147 -7375.2107 304.6541 -9135.1254 -7359.3215 298.1134 -163.3342 -115.9818 29338.3312 -311.1468 -256.1847
ENERGY: 600000 1.2180 9.9333 9.3159 0.0000 -10469.2044 1373.2390 0.0000 0.0000 1751.0249 -7324.4734 303.1152 -9075.4983 -7337.5337 299.3924 -303.1911 -307.8504 29842.5636 -308.4930 -278.8971
ENERGY: 900000 1.5972 9.6101 11.0627 0.0000 -10598.7652 1501.4942 0.0000 0.0000 1732.7783 -7342.2228 299.9566 -9075.0011 -7348.3842 298.4410 549.7489 622.5360 29788.2981 -138.4767 -102.8716
ENERGY: 1200000 0.5144 13.9772 11.3452 0.0000 -10372.1379 1359.1167 0.0000 0.0000 1708.8525 -7278.3318 295.8148 -8987.1843 -7336.4091 298.0040 -239.3523 -204.6787 29963.0237 -99.4951 -54.2954
ENERGY: 1500000 1.4555 7.9697 10.0291 0.0000 -10370.6174 1365.0278 0.0000 0.0000 1682.5104 -7303.6248 291.2548 -8986.1353 -7338.7034 296.9840 127.5190 232.5921 29492.7826 -87.6531 -34.3982
TCL: Running FEP window   7: Lambda1 0.3    Lambda2 0.35   [dLambda 0.04999999999999999]
TCL: Setting parameter firsttimestep to 0
TCL: Setting parameter alchLambda to 0.3
Info: NONBONDED TABLE R-SQUARED SPACING: 0.0625
Info: NONBONDED TABLE SIZE: 705 POINTS
TCL: Setting parameter alchLambda2 to 0.35
Info: NONBONDED TABLE R-SQUARED SPACING: 0.0625
Info: NONBONDED TABLE SIZE: 705 POINTS
TCL: Running for 1500000 steps
ETITLE: TS BOND ANGLE DIHED IMPRP ELECT VDW BOUNDARY MISC KINETIC TOTAL TEMP POTENTIAL TOTALAVG TEMPAVG PRESSURE GPRESSURE VOLUME PRESSAVG GPRESSAVG
ENERGY: 0 1.4555 7.9697 10.0291 0.0000 -10370.6171 1366.9059 0.0000 0.0000 1681.6431 -7302.6138 291.1047 -8984.2569 -7302.6138 291.1047 168.6987 248.2834 29492.7826 168.6987 248.2834
ENERGY: 300000 0.8013 9.9247 11.0040 0.0000 -10420.0101 1311.5336 0.0000 0.0000 1640.1327 -7446.6138 283.9189 -9086.7465 -7353.9610 293.6247 -978.1524 -959.1959 29863.8393 49.5780 92.8827
ENERGY: 600000 2.2963 9.8209 10.8062 0.0000 -10564.9510 1490.0253 0.0000 0.0000 1733.3953 -7318.6070 300.0634 -9052.0023 -7317.3987 297.9514 762.7277 939.9863 29225.4975 -36.4207 25.7175
ENERGY: 900000 0.9068 11.1192 12.8334 0.0000 -10479.0365 1454.8607 0.0000 0.0000 1716.0773 -7283.2392 297.0655 -8999.3165 -7308.1150 298.9653 311.6332 365.7700 30317.2300 -47.3457 16.8319
ENERGY: 1200000 2.3553 10.1732 14.1150 0.0000 -10553.9390 1458.0088 0.0000 0.0000 1734.6011 -7334.6856 300.2721 -9069.2868 -7313.4525 299.1992 281.5074 292.9912 29816.5312 -48.0324 15.2144
ENERGY: 1500000 0.6768 12.3357 12.6061 0.0000 -10464.3792 1416.2493 0.0000 0.0000 1713.1741 -7309.3371 296.5629 -9022.5113 -7317.2299 299.5664 60.9444 64.9644 30209.0804 -61.0007 0.4226
TCL: Running FEP window   8: Lambda1 0.35   Lambda2 0.39999999999999997 [dLambda 0.04999999999999999]
TCL: Setting parameter firsttimestep to 0
TCL: Setting parameter alchLambda to 0.35
Info: NONBONDED TABLE R-SQUARED SPACING: 0.0625
Info: NONBONDED TABLE SIZE: 705 POINTS
TCL: Setting parameter alchLambda2 to 0.39999999999999997
Info: NONBONDED TABLE R-SQUARED SPACING: 0.0625
Info: NONBONDED TABLE SIZE: 705 POINTS
TCL: Running for 1500000 steps
ETITLE: TS BOND ANGLE DIHED IMPRP ELECT VDW BOUNDARY MISC KINETIC TOTAL TEMP POTENTIAL TOTALAVG TEMPAVG PRESSURE GPRESSURE VOLUME PRESSAVG GPRESSAVG
ENERGY: 0 0.6768 12.3357 12.6061 0.0000 -10464.3803 1416.3336 0.0000 0.0000 1712.3257 -7310.1025 296.4161 -9022.4281 -7310.1025 296.4161 -9.2932 70.3154 30209.0804 -9.2932 70.3154
ENERGY: 300000 4.6122 12.7217 13.4461 0.0000 -10526.8422 1393.0274 0.0000 0.0000 1724.2884 -7378.7464 298.4869 -9103.0348 -7311.8770 300.6044 -384.5861 -295.7212 30043.7648 -21.9404 24.3958
ENERGY: 600000 1.3827 17.2085 9.0521 0.0000 -10494.3639 1393.5211 0.0000 0.0000 1673.1888 -7400.0107 289.6412 -9073.1995 -7299.0625 301.2802 -295.8392 -284.8006 30075.9490 -161.3987 -101.5906
ENERGY: 900000 1.3623 16.9806 12.0120 0.0000 -10430.2743 1410.9984 0.0000 0.0000 1715.5872 -7273.3338 296.9806 -8988.9210 -7301.4959 301.0179 477.5834 572.0072 29276.9153 -45.6022 15.0766
ENERGY: 1200000 4.9397 12.4311 12.9999 0.0000 -10581.3394 1397.5939 0.0000 0.0000 1729.7784 -7423.5963 299.4372 -9153.3747 -7319.9907 301.0320 -367.4970 -344.7703 30019.5305 -155.1748 -94.8364
ENERGY: 1500000 1.9621 8.8859 11.4766 0.0000 -10588.0342 1518.8315 0.0000 0.0000 1686.7959 -7360.0823 291.9967 -9046.8781 -7321.6584 301.1313 838.1465 925.7743 29588.0713 -60.3164 -1.2521
TCL: Running FEP window   9: Lambda1 0.39999999999999997 Lambda2 0.44999999999999996 [dLambda 0.04999999999999999]
TCL: Setting parameter firsttimestep to 0
TCL: Setting parameter alchLambda to 0.39999999999999997
Info: NONBONDED TABLE R-SQUARED SPACING: 0.0625
Info: NONBONDED TABLE SIZE: 705 POINTS
TCL: Setting parameter alchLambda2 to 0.44999999999999996
Info: NONBONDED TABLE R-SQUARED SPACING: 0.0625
Info: NONBONDED TABLE SIZE: 705 POINTS
TCL: Running for 1500000 steps
ETITLE: TS BOND ANGLE DIHED IMPRP ELECT VDW BOUNDARY MISC KINETIC TOTAL TEMP POTENTIAL TOTALAVG TEMPAVG PRESSURE GPRESSURE VOLUME PRESSAVG GPRESSAVG
ENERGY: 0 1.9621 8.8859 11.4766 0.0000 -10588.0348 1518.8749 0.0000 0.0000 1685.9584 -7360.8770 291.8517 -9046.8354 -7360.8770 291.8517 835.1373 932.4126 29588.0713 835.1373 932.4126
ENERGY: 300000 1.4969 11.4327 10.2774 0.0000 -10601.4859 1522.3717 0.0000 0.0000 1779.9545 -7275.9528 308.1231 -9055.9073 -7314.8915 297.7592 985.2439 1077.7519 29598.2527 462.5051 558.6260
ENERGY: 600000 1.6239 16.5223 10.4094 0.0000 -10479.8855 1395.5424 0.0000 0.0000 1745.7021 -7310.0854 302.1938 -9055.7875 -7326.0793 301.0908 215.0405 192.9281 29411.7693 316.4261 399.4368
ENERGY: 900000 3.2205 10.6803 10.9405 0.0000 -10357.3083 1319.9124 0.0000 0.0000 1768.7229 -7243.8316 306.1788 -9012.5545 -7318.3755 301.9714 -585.1418 -445.9317 29822.3450 93.9836 190.3617
ENERGY: 1200000 1.8774 9.3931 11.2658 0.0000 -10607.6127 1433.1112 0.0000 0.0000 1721.4043 -7430.5609 297.9876 -9151.9652 -7328.1283 300.8385 -218.2318 -121.8413 29901.6704 -34.2702 63.5231
ENERGY: 1500000 2.0677 12.6761 9.4110 0.0000 -10518.0256 1429.0478 0.0000 0.0000 1692.0613 -7372.7617 292.9082 -9064.8230 -7331.5406 300.2113 29.2709 54.4903 29863.2752 -9.8901 79.2849
TCL: Running FEP window  10: Lambda1 0.44999999999999996 Lambda2 0.49999999999999994 [dLambda 0.04999999999999999]
TCL: Setting parameter firsttimestep to 0
TCL: Setting parameter alchLambda to 0.44999999999999996
Info: NONBONDED TABLE R-SQUARED SPACING: 0.0625
Info: NONBONDED TABLE SIZE: 705 POINTS
TCL: Setting parameter alchLambda2 to 0.49999999999999994
Info: NONBONDED TABLE R-SQUARED SPACING: 0.0625
Info: NONBONDED TABLE SIZE: 705 POINTS
TCL: Running for 1500000 steps
ETITLE: TS BOND ANGLE DIHED IMPRP ELECT VDW BOUNDARY MISC KINETIC TOTAL TEMP POTENTIAL TOTALAVG TEMPAVG PRESSURE GPRESSURE VOLUME PRESSAVG GPRESSAVG
ENERGY: 0 2.0677 12.6761 9.4110 0.0000 -10518.0258 1429.4153 0.0000 0.0000 1691.1922 -7373.2635 292.7577 -9064.4557 -7373.2635 292.7577 -18.8967 64.2806 29863.2752 -18.8967 64.2806
ENERGY: 300000 1.2684 13.6662 10.4576 0.0000 -10433.3674 1366.2403 0.0000 0.0000 1695.3769 -7346.3581 293.4821 -9041.7350 -7348.9001 294.2891 -472.8698 -410.6856 29903.3694 108.0584 161.5665
ENERGY: 600000 2.7734 7.3354 10.2664 0.0000 -10405.7954 1385.7411 0.0000 0.0000 1761.2511 -7238.4279 304.8854 -8999.6791 -7318.2148 297.6128 15.3834 134.2828 29531.2677 -79.2435 -7.9675
ENERGY: 900000 4.2126 9.5228 11.6538 0.0000 -10527.1166 1421.4152 0.0000 0.0000 1752.7589 -7327.5533 303.4153 -9080.3122 -7312.6594 300.5676 215.1311 221.4180 29724.7209 -54.5033 8.7532
ENERGY: 1200000 0.8399 13.0193 9.9419 0.0000 -10525.9491 1442.0144 0.0000 0.0000 1720.7392 -7339.3943 297.8725 -9060.1336 -7322.6044 300.3319 102.4744 168.9316 29894.2772 -59.0223 1.1935
ENERGY: 1500000 1.2214 10.3483 10.6980 0.0000 -10621.4548 1474.4710 0.0000 0.0000 1772.3929 -7352.3232 306.8141 -9124.7161 -7330.5169 300.5169 418.0987 469.4298 29755.5749 -9.4195 46.8612
TCL: Running FEP window  11: Lambda1 0.49999999999999994 Lambda2 0.5499999999999999 [dLambda 0.04999999999999999]
TCL: Setting parameter firsttimestep to 0
TCL: Setting parameter alchLambda to 0.49999999999999994
Info: NONBONDED TABLE R-SQUARED SPACING: 0.0625
Info: NONBONDED TABLE SIZE: 705 POINTS
TCL: Setting parameter alchLambda2 to 0.5499999999999999
Info: NONBONDED TABLE R-SQUARED SPACING: 0.0625
Info: NONBONDED TABLE SIZE: 705 POINTS
TCL: Running for 1500000 steps
ETITLE: TS BOND ANGLE DIHED IMPRP ELECT VDW BOUNDARY MISC KINETIC TOTAL TEMP POTENTIAL TOTALAVG TEMPAVG PRESSURE GPRESSURE VOLUME PRESSAVG GPRESSAVG
ENERGY: 0 1.2214 10.3483 10.6980 0.0000 -10621.4549 1474.3852 0.0000 0.0000 1771.4833 -7353.3187 306.6567 -9124.8020 -7353.3187 306.6567 396.7725 472.1608 29755.5749 396.7725 472.1608
ENERGY: 300000 1.9081 9.1148 11.5682 0.0000 -10364.0009 1375.3164 0.0000 0.0000 1798.3437 -7167.7496 311.3064 -8966.0933 -7282.1692 305.7342 328.7782 361.5850 29584.7805 287.5129 358.2018
ENERGY: 600000 3.4548 8.8068 10.7940 0.0000 -10375.7859 1316.2584 0.0000 0.0000 1715.6730 -7320.7988 296.9955 -9036.4718 -7304.6282 304.2392 -950.8518 -884.1986 30208.0868 59.2467 139.8684
ENERGY: 900000 0.8212 10.2164 12.5989 0.0000 -10488.0981 1370.3017 0.0000 0.0000 1793.9775 -7300.1823 310.5506 -9094.1598 -7312.1272 304.8583 -414.8595 -403.9541 30142.3100 -61.6092 9.0132
ENERGY: 1200000 2.5989 12.1249 10.6721 0.0000 -10427.7076 1434.9525 0.0000 0.0000 1722.6247 -7244.7346 298.1989 -8967.3593 -7313.9849 303.7554 70.8010 162.6709 30439.5427 -168.4877 -94.1547
ENERGY: 1500000 1.6729 12.3224 10.1489 0.0000 -10581.3886 1457.0253 0.0000 0.0000 1697.1911 -7403.0281 293.7961 -9100.2192 -7312.1484 303.2651 224.9508 290.3662 29662.1876 -194.5177 -129.7004
TCL: Running FEP window  12: Lambda1 0.5499999999999999 Lambda2 0.6    [dLambda 0.050000000000000044]
TCL: Setting parameter firsttimestep to 0
TCL: Setting parameter alchLambda to 0.5499999999999999
Info: NONBONDED TABLE R-SQUARED SPACING: 0.0625
Info: NONBONDED TABLE SIZE: 705 POINTS
TCL: Setting parameter alchLambda2 to 0.6
Info: NONBONDED TABLE R-SQUARED SPACING: 0.0625
Info: NONBONDED TABLE SIZE: 705 POINTS
TCL: Running for 1500000 steps
ETITLE: TS BOND ANGLE DIHED IMPRP ELECT VDW BOUNDARY MISC KINETIC TOTAL TEMP POTENTIAL TOTALAVG TEMPAVG PRESSURE GPRESSURE VOLUME PRESSAVG GPRESSAVG
ENERGY: 0 1.6729 12.3224 10.1489 0.0000 -10581.3638 1456.8040 0.0000 0.0000 1696.3595 -7404.0561 293.6522 -9100.4157 -7404.0561 293.6522 204.7596 296.1280 29662.1876 204.7596 296.1280
ENERGY: 300000 3.5926 13.5950 9.6152 0.0000 -10460.0666 1328.8134 0.0000 0.0000 1717.8207 -7386.6299 297.3673 -9104.4505 -7352.5808 297.0204 -1012.4284 -960.0720 29969.2993 -234.0664 -159.4710
ENERGY: 600000 0.8631 12.3918 10.3536 0.0000 -10426.3943 1395.0142 0.0000 0.0000 1762.3661 -7245.4055 305.0784 -9007.7717 -7330.0684 299.6236 -108.3751 -93.9892 30253.1661 -227.1292 -180.6466
ENERGY: 900000 1.4790 18.7085 10.5373 0.0000 -10441.2209 1376.7388 0.0000 0.0000 1740.3592 -7293.3981 301.2689 -9033.7574 -7332.1862 299.9381 8.9286 117.0773 29497.5820 -101.4961 -43.5924
ENERGY: 1200000 0.6768 7.3882 11.7834 0.0000 -10438.2923 1367.1892 0.0000 0.0000 1746.4070 -7304.8477 302.3158 -9051.2547 -7338.1986 300.0794 -485.7382 -361.6089 30233.4753 -159.7082 -100.0791
ENERGY: 1500000 3.0450 14.9467 9.2167 0.0000 -10444.5980 1339.5228 0.0000 0.0000 1743.0580 -7334.8087 301.7361 -9077.8668 -7337.1870 300.0359 -662.6142 -640.0374 30045.3672 -158.3482 -103.2602
TCL: Running FEP window  13: Lambda1 0.6    Lambda2 0.65   [dLambda 0.050000000000000044]
TCL: Setting parameter firsttimestep to 0
TCL: Setting parameter alchLambda to 0.6
Info: NONBONDED TABLE R-SQUARED SPACING: 0.0625
Info: NONBONDED TABLE SIZE: 705 POINTS
TCL: Setting parameter alchLambda2 to 0.65
Info: NONBONDED TABLE R-SQUARED SPACING: 0.0625
Info: NONBONDED TABLE SIZE: 705 POINTS
TCL: Running for 1500000 steps
ETITLE: TS BOND ANGLE DIHED IMPRP ELECT VDW BOUNDARY MISC KINETIC TOTAL TEMP POTENTIAL TOTALAVG TEMPAVG PRESSURE GPRESSURE VOLUME PRESSAVG GPRESSAVG
ENERGY: 0 3.0450 14.9467 9.2167 0.0000 -10444.5653 1339.4079 0.0000 0.0000 1742.2224 -7335.7265 301.5914 -9077.9489 -7335.7265 301.5914 -729.2590 -634.9984 30045.3672 -729.2590 -634.9984
ENERGY: 300000 3.6627 14.2452 10.7942 0.0000 -10590.6253 1429.4852 0.0000 0.0000 1747.2109 -7385.2271 302.4549 -9132.4381 -7373.7019 297.8671 -28.1043 34.7523 29687.4435 -399.0472 -339.5717
ENERGY: 600000 2.2423 16.3597 7.4425 0.0000 -10493.8618 1384.3759 0.0000 0.0000 1736.4768 -7346.9647 300.5968 -9083.4415 -7359.0929 296.5082 -253.0934 -194.6524 29748.0993 -270.7446 -207.8063
ENERGY: 900000 2.6233 10.6822 9.6728 0.0000 -10470.3419 1422.1505 0.0000 0.0000 1709.3887 -7315.8245 295.9076 -9025.2132 -7363.8109 297.0886 263.8391 271.1271 29783.8599 -62.6358 -8.2824
ENERGY: 1200000 3.9899 13.7288 15.1352 0.0000 -10483.9402 1411.2043 0.0000 0.0000 1735.4356 -7304.4465 300.4165 -9039.8820 -7356.8076 298.1989 -202.5503 -158.5577 30273.1357 -54.6791 -0.9270
ENERGY: 1500000 3.4358 12.5883 9.6874 0.0000 -10315.1205 1264.8417 0.0000 0.0000 1763.1351 -7261.4324 305.2115 -9024.5674 -7344.3357 299.3978 -1209.3533 -1174.8233 30306.2620 -170.4070 -111.9037
TCL: Running FEP window  14: Lambda1 0.65   Lambda2 0.7000000000000001 [dLambda 0.050000000000000044]
TCL: Setting parameter firsttimestep to 0
TCL: Setting parameter alchLambda to 0.65
Info: NONBONDED TABLE R-SQUARED SPACING: 0.0625
Info: NONBONDED TABLE SIZE: 705 POINTS
TCL: Setting parameter alchLambda2 to 0.7000000000000001
Info: NONBONDED TABLE R-SQUARED SPACING: 0.0625
Info: NONBONDED TABLE SIZE: 705 POINTS
TCL: Running for 1500000 steps
ETITLE: TS BOND ANGLE DIHED IMPRP ELECT VDW BOUNDARY MISC KINETIC TOTAL TEMP POTENTIAL TOTALAVG TEMPAVG PRESSURE GPRESSURE VOLUME PRESSAVG GPRESSAVG
ENERGY: 0 3.4358 12.5883 9.6874 0.0000 -10315.1526 1265.1612 0.0000 0.0000 1762.2732 -7262.0068 305.0623 -9024.2800 -7262.0068 305.0623 -1237.4808 -1164.6402 30306.2620 -1237.4808 -1164.6402
ENERGY: 300000 2.1837 18.2246 8.4117 0.0000 -10495.9386 1348.6852 0.0000 0.0000 1781.9056 -7336.5279 308.4608 -9118.4334 -7343.8147 300.2615 -597.3244 -486.4859 29636.8215 -763.4711 -691.1331
ENERGY: 600000 1.3609 13.5199 9.3683 0.0000 -10441.6079 1376.3115 0.0000 0.0000 1724.9081 -7316.1393 298.5942 -9041.0474 -7334.3615 300.0493 -227.6271 -140.2078 29701.5375 -342.7027 -277.2370
ENERGY: 900000 2.6663 10.8073 10.4224 0.0000 -10542.0400 1396.4335 0.0000 0.0000 1712.9712 -7408.7393 296.5278 -9121.7104 -7356.5386 298.5199 -87.1593 -60.4606 29423.8137 -297.6264 -237.6723
ENERGY: 1200000 3.4333 13.6428 8.9855 0.0000 -10599.2469 1487.1822 0.0000 0.0000 1785.7825 -7300.2206 309.1320 -9086.0032 -7348.7348 298.7587 691.1844 714.6495 29577.8326 -192.4888 -140.6991
ENERGY: 1500000 4.3410 9.5321 10.0070 0.0000 -10511.2871 1384.8910 0.0000 0.0000 1733.0375 -7369.4787 300.0014 -9102.5161 -7343.8088 299.3411 -415.9931 -363.5952 30012.6478 -191.8747 -137.2445
TCL: Running FEP window  15: Lambda1 0.7000000000000001 Lambda2 0.7500000000000001 [dLambda 0.050000000000000044]
TCL: Setting parameter firsttimestep to 0
TCL: Setting parameter alchLambda to 0.7000000000000001
Info: NONBONDED TABLE R-SQUARED SPACING: 0.0625
Info: NONBONDED TABLE SIZE: 705 POINTS
TCL: Setting parameter alchLambda2 to 0.7500000000000001
Info: NONBONDED TABLE R-SQUARED SPACING: 0.0625
Info: NONBONDED TABLE SIZE: 705 POINTS
TCL: Running for 1500000 steps
ETITLE: TS BOND ANGLE DIHED IMPRP ELECT VDW BOUNDARY MISC KINETIC TOTAL TEMP POTENTIAL TOTALAVG TEMPAVG PRESSURE GPRESSURE VOLUME PRESSAVG GPRESSAVG
ENERGY: 0 4.3410 9.5321 10.0070 0.0000 -10511.2651 1384.7831 0.0000 0.0000 1732.1183 -7370.4837 299.8423 -9102.6020 -7370.4837 299.8423 -438.4582 -357.6386 30012.6478 -438.4582 -357.6386
ENERGY: 300000 3.3126 10.6540 12.1635 0.0000 -10603.4557 1492.1983 0.0000 0.0000 1683.5243 -7401.6031 291.4303 -9085.1274 -7384.4899 294.2698 624.7459 693.7706 29692.8724 9.9032 91.3490
ENERGY: 600000 1.5226 14.9068 9.9338 0.0000 -10650.5522 1558.9779 0.0000 0.0000 1787.3338 -7277.8773 309.4005 -9065.2111 -7373.5320 296.6544 1512.8281 1532.8843 29414.5946 153.6968 218.8549
ENERGY: 900000 2.9464 14.7873 10.1324 0.0000 -10426.8601 1352.4958 0.0000 0.0000 1721.0436 -7325.4546 297.9252 -9046.4981 -7365.2819 297.8782 -468.9648 -385.9625 29720.1285 123.9462 191.7326
ENERGY: 1200000 4.4156 14.1088 9.7801 0.0000 -10525.4860 1437.4912 0.0000 0.0000 1729.3551 -7330.3351 299.3640 -9059.6902 -7346.1059 298.2374 181.9429 203.0548 29874.1304 132.9711 199.7468
ENERGY: 1500000 2.0296 6.5125 11.6729 0.0000 -10381.1999 1394.1722 0.0000 0.0000 1743.4512 -7223.3617 301.8041 -8966.8129 -7340.8509 298.1084 76.4276 62.5682 30302.1208 106.0627 168.1518
TCL: Running FEP window  16: Lambda1 0.7500000000000001 Lambda2 0.8000000000000002 [dLambda 0.050000000000000044]
TCL: Setting parameter firsttimestep to 0
TCL: Setting parameter alchLambda to 0.7500000000000001
Info: NONBONDED TABLE R-SQUARED SPACING: 0.0625
Info: NONBONDED TABLE SIZE: 705 POINTS
TCL: Setting parameter alchLambda2 to 0.8000000000000002
Info: NONBONDED TABLE R-SQUARED SPACING: 0.0625
Info: NONBONDED TABLE SIZE: 705 POINTS
TCL: Running for 1500000 steps
ETITLE: TS BOND ANGLE DIHED IMPRP ELECT VDW BOUNDARY MISC KINETIC TOTAL TEMP POTENTIAL TOTALAVG TEMPAVG PRESSURE GPRESSURE VOLUME PRESSAVG GPRESSAVG
ENERGY: 0 2.0296 6.5125 11.6729 0.0000 -10381.2311 1394.6464 0.0000 0.0000 1742.6131 -7223.7566 301.6590 -8966.3697 -7223.7566 301.6590 -2.2748 78.7740 30302.1208 -2.2748 78.7740
ENERGY: 300000 0.9330 14.7993 11.4116 0.0000 -10657.6361 1562.7299 0.0000 0.0000 1784.8016 -7282.9606 308.9622 -9067.7622 -7233.4883 302.4562 1292.8033 1377.3394 29641.6404 305.7573 411.9295
ENERGY: 600000 1.3486 12.8006 12.0356 0.0000 -10562.0067 1411.6529 0.0000 0.0000 1772.8636 -7351.3053 306.8956 -9124.1689 -7293.6367 302.0113 -261.7913 -204.0922 30244.8964 240.1629 317.8276
ENERGY: 900000 1.9481 14.0862 9.2434 0.0000 -10439.9520 1381.7990 0.0000 0.0000 1728.1901 -7304.6852 299.1623 -9032.8753 -7306.1196 300.8171 -183.5259 -158.1254 29881.7308 211.6058 279.0738
ENERGY: 1200000 1.4841 14.4963 11.5521 0.0000 -10499.6690 1400.4713 0.0000 0.0000 1755.8274 -7315.8377 303.9465 -9071.6652 -7312.4793 299.9024 -88.0316 -20.6790 29948.0741 115.5998 181.6460
ENERGY: 1500000 2.4695 14.6229 10.3600 0.0000 -10466.6107 1382.5007 0.0000 0.0000 1698.2519 -7358.4058 293.9798 -9056.6577 -7323.0766 298.8935 38.3495 59.5360 29763.4471 36.9679 100.4203
TCL: Running FEP window  17: Lambda1 0.8000000000000002 Lambda2 0.8500000000000002 [dLambda 0.050000000000000044]
TCL: Setting parameter firsttimestep to 0
TCL: Setting parameter alchLambda to 0.8000000000000002
Info: NONBONDED TABLE R-SQUARED SPACING: 0.0625
Info: NONBONDED TABLE SIZE: 705 POINTS
TCL: Setting parameter alchLambda2 to 0.8500000000000002
Info: NONBONDED TABLE R-SQUARED SPACING: 0.0625
Info: NONBONDED TABLE SIZE: 705 POINTS
TCL: Running for 1500000 steps
ETITLE: TS BOND ANGLE DIHED IMPRP ELECT VDW BOUNDARY MISC KINETIC TOTAL TEMP POTENTIAL TOTALAVG TEMPAVG PRESSURE GPRESSURE VOLUME PRESSAVG GPRESSAVG
ENERGY: 0 2.4695 14.6229 10.3600 0.0000 -10466.5727 1382.7579 0.0000 0.0000 1697.4035 -7358.9590 293.8329 -9056.3624 -7358.9590 293.8329 -13.2889 69.4110 29763.4471 -13.2889 69.4110
ENERGY: 300000 1.2626 9.3401 11.9866 0.0000 -10517.5723 1436.9385 0.0000 0.0000 1782.7425 -7275.3020 308.6057 -9058.0445 -7319.4367 301.4531 281.5233 332.3781 29757.3277 17.6021 75.4064
ENERGY: 600000 2.4423 10.8778 10.3099 0.0000 -10367.0932 1320.1735 0.0000 0.0000 1769.6096 -7253.6802 306.3323 -9023.2898 -7306.5586 301.4933 -797.5954 -730.2694 30287.7343 -112.6839 -48.8969
ENERGY: 900000 1.3358 12.7549 10.9884 0.0000 -10689.3057 1524.3449 0.0000 0.0000 1724.8921 -7414.9895 298.5914 -9139.8816 -7309.2931 302.2727 468.4417 607.2531 29911.5902 -112.1308 -37.4988
ENERGY: 1200000 3.5160 12.7180 8.7108 0.0000 -10491.7438 1476.6324 0.0000 0.0000 1695.5690 -7294.5975 293.5154 -8990.1665 -7312.1156 300.7044 751.9558 743.7310 29817.8068 -167.6254 -103.7597
ENERGY: 1500000 3.5984 12.0413 9.2385 0.0000 -10403.7734 1332.0812 0.0000 0.0000 1721.3558 -7325.4582 297.9792 -9046.8140 -7313.4956 300.7753 -851.8466 -708.4948 30082.2547 -214.4075 -152.9235
TCL: Running FEP window  18: Lambda1 0.8500000000000002 Lambda2 0.9000000000000002 [dLambda 0.050000000000000044]
TCL: Setting parameter firsttimestep to 0
TCL: Setting parameter alchLambda to 0.8500000000000002
Info: NONBONDED TABLE R-SQUARED SPACING: 0.0625
Info: NONBONDED TABLE SIZE: 705 POINTS
TCL: Setting parameter alchLambda2 to 0.9000000000000002
Info: NONBONDED TABLE R-SQUARED SPACING: 0.0625
Info: NONBONDED TABLE SIZE: 705 POINTS
TCL: Running for 1500000 steps
ETITLE: TS BOND ANGLE DIHED IMPRP ELECT VDW BOUNDARY MISC KINETIC TOTAL TEMP POTENTIAL TOTALAVG TEMPAVG PRESSURE GPRESSURE VOLUME PRESSAVG GPRESSAVG
ENERGY: 0 3.5984 12.0414 9.2385 0.0000 -10403.7667 1331.7333 0.0000 0.0000 1720.5179 -7326.6372 297.8342 -9047.1551 -7326.6372 297.8342 -802.9465 -702.1907 30082.2547 -802.9465 -702.1907
ENERGY: 300000 1.4256 10.3137 10.9903 0.0000 -10545.9926 1403.6613 0.0000 0.0000 1773.1303 -7346.4714 306.9418 -9119.6017 -7340.4615 303.5552 -228.8117 -154.8869 30161.0311 -191.1706 -114.8248
ENERGY: 600000 1.2812 10.4131 10.0279 0.0000 -10660.0669 1483.3875 0.0000 0.0000 1740.9866 -7413.9706 301.3775 -9154.9572 -7354.4252 301.5076 731.6859 773.9816 29092.0923 34.2222 114.0077
ENERGY: 900000 2.6116 12.5752 8.3786 0.0000 -10473.5111 1369.8411 0.0000 0.0000 1714.7705 -7365.3341 296.8393 -9080.1046 -7349.5929 301.1278 -648.3123 -581.2260 30163.9361 -6.0808 59.7415
ENERGY: 1200000 2.2711 12.2788 9.6551 0.0000 -10555.3088 1418.0598 0.0000 0.0000 1736.3294 -7376.7146 300.5713 -9113.0440 -7349.3383 299.7363 25.3261 96.1034 29483.0036 -4.6978 52.2665
ENERGY: 1500000 0.9684 8.2552 13.1341 0.0000 -10373.3000 1314.1439 0.0000 0.0000 1735.5960 -7301.2024 300.4443 -9036.7985 -7340.5072 299.7802 -672.9585 -606.4136 30136.2804 -70.5437 -11.3697
TCL: Running FEP window  19: Lambda1 0.9000000000000002 Lambda2 0.9500000000000003 [dLambda 0.050000000000000044]
TCL: Setting parameter firsttimestep to 0
TCL: Setting parameter alchLambda to 0.9000000000000002
Info: NONBONDED TABLE R-SQUARED SPACING: 0.0625
Info: NONBONDED TABLE SIZE: 705 POINTS
TCL: Setting parameter alchLambda2 to 0.9500000000000003
Info: NONBONDED TABLE R-SQUARED SPACING: 0.0625
Info: NONBONDED TABLE SIZE: 705 POINTS
TCL: Running for 1500000 steps
ETITLE: TS BOND ANGLE DIHED IMPRP ELECT VDW BOUNDARY MISC KINETIC TOTAL TEMP POTENTIAL TOTALAVG TEMPAVG PRESSURE GPRESSURE VOLUME PRESSAVG GPRESSAVG
ENERGY: 0 0.9684 8.2552 13.1341 0.0000 -10373.2757 1313.8114 0.0000 0.0000 1734.7177 -7302.3889 300.2923 -9037.1066 -7302.3889 300.2923 -688.6028 -600.9040 30136.2804 -688.6028 -600.9040
ENERGY: 300000 1.4031 7.7804 10.4421 0.0000 -10618.1433 1483.2113 0.0000 0.0000 1684.1167 -7431.1897 291.5329 -9115.3064 -7318.8874 301.5660 681.1772 659.6766 29518.9416 120.9618 167.3911
ENERGY: 600000 2.9887 13.9029 11.0372 0.0000 -10498.5672 1388.8261 0.0000 0.0000 1757.8742 -7323.9381 304.3008 -9081.8123 -7346.7903 299.1857 -474.4392 -435.8634 30174.1715 -150.1617 -96.2076
ENERGY: 900000 1.6434 15.3515 8.5166 0.0000 -10432.7053 1330.3073 0.0000 0.0000 1786.2808 -7290.6057 309.2182 -9076.8865 -7346.6036 300.4821 -748.1272 -685.2577 30090.7057 -266.4537 -208.7627
ENERGY: 1200000 1.8309 11.9766 10.1518 0.0000 -10523.3773 1456.4265 0.0000 0.0000 1711.4090 -7331.5824 296.2574 -9042.9914 -7348.6196 300.0166 310.5533 338.6744 29948.4985 -269.7364 -207.1696
ENERGY: 1500000 4.0374 11.7643 9.7410 0.0000 -10444.2093 1429.8606 0.0000 0.0000 1707.5734 -7281.2327 295.5934 -8988.8060 -7346.1535 299.4457 536.8075 506.9640 29663.0668 -182.1558 -126.7786
TCL: Running FEP window  20: Lambda1 0.9500000000000003 Lambda2 1.0    [dLambda 0.04999999999999971]
TCL: Setting parameter firsttimestep to 0
TCL: Setting parameter alchLambda to 0.9500000000000003
Info: NONBONDED TABLE R-SQUARED SPACING: 0.0625
Info: NONBONDED TABLE SIZE: 705 POINTS
TCL: Setting parameter alchLambda2 to 1.0
Info: NONBONDED TABLE R-SQUARED SPACING: 0.0625
Info: NONBONDED TABLE SIZE: 705 POINTS
TCL: Running for 1500000 steps
ETITLE: TS BOND ANGLE DIHED IMPRP ELECT VDW BOUNDARY MISC KINETIC TOTAL TEMP POTENTIAL TOTALAVG TEMPAVG PRESSURE GPRESSURE VOLUME PRESSAVG GPRESSAVG
ENERGY: 0 4.0374 11.7643 9.7410 0.0000 -10444.1775 1430.7441 0.0000 0.0000 1706.7475 -7281.1433 295.4504 -8987.8907 -7281.1433 295.4504 446.8300 532.4527 29663.0668 446.8300 532.4527
ENERGY: 300000 0.9500 14.6932 9.2643 0.0000 -10406.3756 1351.3744 0.0000 0.0000 1765.3862 -7264.7074 305.6012 -9030.0936 -7314.5472 304.0392 -401.5248 -364.0785 30232.8395 -20.5877 48.1086
ENERGY: 600000 0.7456 9.8668 12.1352 0.0000 -10355.1500 1325.1669 0.0000 0.0000 1736.3556 -7270.8800 300.5758 -9007.2356 -7333.6364 300.0105 -169.4958 -163.2841 29617.7372 111.6590 176.6661
ENERGY: 900000 0.7175 13.8822 8.1118 0.0000 -10493.0823 1392.0023 0.0000 0.0000 1713.9273 -7364.4413 296.6933 -9078.3686 -7319.2042 301.4013 -85.7800 -30.3963 29930.6410 90.6661 155.5246
ENERGY: 1200000 2.2972 15.4984 8.5670 0.0000 -10375.8168 1368.6416 0.0000 0.0000 1789.4933 -7191.3193 309.7743 -8980.8127 -7312.5006 301.2694 -296.8117 -219.1809 30442.6788 -15.1954 42.6214
ENERGY: 1500000 1.2103 13.7405 12.6149 0.0000 -10489.2595 1354.7503 0.0000 0.0000 1749.1253 -7357.8182 302.7863 -9106.9436 -7315.9343 301.7649 -484.7621 -377.9682 29740.4466 -96.3139 -31.3933
TCL: Exiting due to exit command.
