Info: SIMULATION PARAMETERS:
Info: TIMESTEP               2
Info: NUMBER OF STEPS        0
Info: STEPS PER CYCLE        10
Info: PERIODIC CELL BASIS 1  31.8026 0 0
Info: PERIODIC CELL BASIS 2  0 30.2613 0
Info: PERIODIC CELL BASIS 3  0 0 31.7072
Info: PERIODIC CELL CENTER   0 0 0
Info: WRAPPING WATERS AROUND PERIODIC BOUNDARIES ON OUTPUT.
Info: WRAPPING ALL CLUSTERS AROUND PERIODIC BOUNDARIES ON OUTPUT.
Info: FIRST LDB TIMESTEP     50
Info: LAST LDB TIMESTEP     -1
Info: HOM BACKGROUND SCALING 1
Info: PME BACKGROUND SCALING 1
Info: MIN ATOMS PER PATCH    40
Info: EMPTY PATCH LOAD       40 ATOMS
Info: VELOCITY FILE          mobley_2577969_equil.vel
Info: CENTER OF MASS MOVING INITIALLY? NO
Info: DIELECTRIC             1
Info: EXCLUDE                SCALED ONE-FOUR
Info: 1-4 ELECTROSTATICS SCALED BY 0.833333
Info: MODIFIED 1-4 VDW PARAMETERS WILL BE USED
Info: DCD FILENAME           mobley_2577969_prod.dcd
Info: DCD FREQUENCY          100000
Info: DCD FIRST STEP         100000
Info: DCD FILE WILL CONTAIN UNIT CELL DATA
Info: XST FILENAME           mobley_2577969_prod.xst
Info: XST FREQUENCY          100000
Info: NO VELOCITY DCD OUTPUT
Info: NO FORCE DCD OUTPUT
Info: OUTPUT FILENAME        mobley_2577969_prod
Info: BINARY OUTPUT FILES WILL BE USED
Info: RESTART FILENAME       mobley_2577969_prod.restart
Info: RESTART FREQUENCY      100000
Info: BINARY RESTART FILES WILL BE USED
Info: CUTOFF                 9
Info: PAIRLIST DISTANCE      11
Info: PAIRLIST SHRINK RATE   0.01
Info: PAIRLIST GROW RATE     0.01
Info: PAIRLIST TRIGGER       0.3
Info: PAIRLISTS PER CYCLE    2
Info: PAIRLISTS ENABLED
Info: MARGIN                 2
Info: HYDROGEN GROUP CUTOFF  2.5
Info: PATCH DIMENSION        15.5
Info: ENERGY OUTPUT STEPS    100000
Info: ENERGY EVALUATION STEPS    100000
Info: OUTPUT ENERGY PRECISION 4
Info: CROSSTERM ENERGY INCLUDED IN DIHEDRAL
Info: TIMING OUTPUT STEPS    1000000
Info: PRESSURE OUTPUT STEPS  100000
Info: ALCHEMICAL FEP ON
Info: FEP CURRENT LAMBDA VALUE     0
Info: FEP COMPARISON LAMBDA VALUE  0.05
Info: FEP INTRA-ALCHEMICAL NON-BONDED INTERACTIONS WILL BE RETAINED
Info: FEP INTRA-ALCHEMICAL BONDED INTERACTIONS WILL BE RETAINED
Info: FEP VDW SHIFTING COEFFICIENT 5
Info: FEP ELEC. ACTIVE FOR ANNIHILATED PARTICLES BETWEEN LAMBDA = 0 AND LAMBDA = 0.5
Info: FEP ELEC. ACTIVE FOR EXNIHILATED PARTICLES BETWEEN LAMBDA = 0.5 AND LAMBDA = 1
Info: FEP VDW ACTIVE FOR ANNIHILATED PARTICLES BETWEEN LAMBDA = 0 AND LAMBDA = 1
Info: FEP VDW ACTIVE FOR EXNIHILATED PARTICLES BETWEEN LAMBDA = 0 AND LAMBDA = 1
Info: FEP BOND ACTIVE FOR ANNIHILATED PARTICLES BETWEEN LAMBDA = 1 AND LAMBDA = 1
Info: FEP BOND ACTIVE FOR EXNIHILATED PARTICLES BETWEEN LAMBDA = 0 AND LAMBDA = 0
Info: LANGEVIN DYNAMICS ACTIVE
Info: LANGEVIN TEMPERATURE   300
Info: LANGEVIN USING BBK INTEGRATOR
Info: LANGEVIN DAMPING COEFFICIENT IS 1 INVERSE PS
Info: LANGEVIN DYNAMICS APPLIED TO HYDROGENS
Info: LANGEVIN PISTON PRESSURE CONTROL ACTIVE
Info:        TARGET PRESSURE IS 1.01325 BAR
Info:     OSCILLATION PERIOD IS 50 FS
Info:             DECAY TIME IS 25 FS
Info:     PISTON TEMPERATURE IS 300 K
Info:       PRESSURE CONTROL IS GROUP-BASED
Info:    INITIAL STRAIN RATE IS -0.000568426 -0.000568426 -0.000568426
Info:       CELL FLUCTUATION IS ISOTROPIC
Info: PARTICLE MESH EWALD (PME) ACTIVE
Info: PME TOLERANCE               1e-06
Info: PME EWALD COEFFICIENT       0.348832
Info: PME INTERPOLATION ORDER     4
Info: PME GRID DIMENSIONS         32 32 32
Info: PME MAXIMUM GRID SPACING    1
Info: PME CALCULATION WILL BE PERFORMED ON GPU
Info: FULL ELECTROSTATIC EVALUATION FREQUENCY      2
Info: USING VERLET I (r-RESPA) MTS SCHEME.
Info: C1 SPLITTING OF LONG RANGE ELECTROSTATICS
Info: PLACING ATOMS IN PATCHES BY HYDROGEN GROUPS
Info: RIGID BONDS TO HYDROGEN : ALL
Info:         ERROR TOLERANCE : 1e-08
Info:          MAX ITERATIONS : 100
Info: RIGID WATER USING SETTLE ALGORITHM
Info: RANDOM NUMBER SEED     1743654677
Info: USE HYDROGEN BONDS?    NO
Info: Using AMBER format force field!
Info: AMBER PARM FILE        mobley_2577969.prmtop
Info: COORDINATE PDB         mobley_2577969.pdb
Info: Exclusions will be read from PARM file!
Info: SCNB (VDW SCALING)     2
Info: USING ARITHMETIC MEAN TO COMBINE L-J SIGMA PARAMETERS
Info: BINARY COORDINATES     mobley_2577969_equil.coor
Info: SUMMARY OF PARAMETERS:
Info: 4 BONDS
Info: 2 ANGLES
Info:   2 HARMONIC
Info:   0 COSINE-BASED
Info: 2 DIHEDRAL
Info: 0 IMPROPER
Info: 0 CROSSTERM
Info: 0 VDW
Info: 10 VDW_PAIRS
Info: 0 NBTHOLE_PAIRS
Info: To read alchdata from file: mobley_2577969.pdb
Info: To read alchflag data from column: 5
Info: STRUCTURE SUMMARY:
Info: 2966 ATOMS
Info: 2969 BONDS
Info: 48 ANGLES
Info: 92 DIHEDRALS
Info: 0 IMPROPERS
Info: 0 CROSSTERMS
Info: 3081 EXCLUSIONS
Info: 2950 RIGID BONDS
Info: ALCH: 0 ATOMS TO DISAPPEAR IN FINAL STATE
Info: ALCH: 26 ATOMS TO APPEAR IN FINAL STATE
Info: 5948 DEGREES OF FREEDOM
Info: 996 HYDROGEN GROUPS
Info: 3 ATOMS IN LARGEST HYDROGEN GROUP
Info: 996 MIGRATION GROUPS
Info: 3 ATOMS IN LARGEST MIGRATION GROUP
Info: TOTAL MASS = 17857.9 amu
Info: TOTAL CHARGE = 9.9944e-05 e
Info: MASS DENSITY = 0.97181 g/cm^3
Info: ATOM DENSITY = 0.0971991 atoms/A^3
Info: ADDED 0 IMPLICIT EXCLUSIONS
Info: NONBONDED TABLE R-SQUARED SPACING: 0.0625
Info: NONBONDED TABLE SIZE: 705 POINTS
Info: REMOVING COM VELOCITY 0.129171 0.0239904 -0.224753
Info: Use 3D box decompostion in PME FFT.
Info: Updated CUDA force table with 4096 elements.
Info: Updated CUDA LJ table with 4 x 4 elements.
Info: Found 26 unique exclusion lists needing 92 bytes
TCL: Running for 1500000 steps
ETITLE: TS BOND ANGLE DIHED IMPRP ELECT VDW BOUNDARY MISC KINETIC TOTAL TEMP POTENTIAL TOTALAVG TEMPAVG PRESSURE GPRESSURE VOLUME PRESSAVG GPRESSAVG
ENERGY: 0 7.9199 4.2379 7.3535 0.0000 -10638.1623 1449.0816 0.0000 0.0000 1855.4156 -7314.1539 313.9501 -9169.5694 -7314.1539 313.9501 195.6072 283.4099 30514.6835 195.6072 283.4099
ENERGY: 300000 4.8018 6.0425 7.4936 0.0000 -10641.3473 1395.6029 0.0000 0.0000 1766.6533 -7460.7532 298.9309 -9227.4064 -7423.0696 300.6975 -430.0689 -424.3349 30792.2468 -479.7369 -402.1371
ENERGY: 600000 7.5970 3.7356 6.2460 0.0000 -10678.3482 1497.6425 0.0000 0.0000 1788.6344 -7374.4926 302.6502 -9163.1271 -7414.3156 299.6346 396.9012 469.8263 30280.9200 -204.8858 -138.2914
ENERGY: 900000 8.8912 3.6745 5.3007 0.0000 -10488.2235 1343.6511 0.0000 0.0000 1796.6473 -7330.0588 304.0061 -9126.7061 -7413.6408 300.0535 -1286.8153 -1228.2929 31232.3384 -311.1208 -235.7084
ENERGY: 1200000 5.9967 7.4912 7.7480 0.0000 -10911.9820 1526.7770 0.0000 0.0000 1777.5148 -7586.4543 300.7687 -9363.9691 -7428.6044 300.5012 406.4696 468.3066 29558.9450 -319.5186 -246.1796
ENERGY: 1500000 4.6438 3.9862 5.9726 0.0000 -10597.3068 1426.5013 0.0000 0.0000 1785.9248 -7370.2782 302.1917 -9156.2030 -7435.0636 299.8622 -45.7227 42.7625 30506.6710 -290.8747 -215.1807
TCL: Running FEP window   2: Lambda1 0.05   Lambda2 0.1    [dLambda 0.05  ]
TCL: Setting parameter firsttimestep to 0
TCL: Setting parameter alchLambda to 0.05
Info: NONBONDED TABLE R-SQUARED SPACING: 0.0625
Info: NONBONDED TABLE SIZE: 705 POINTS
TCL: Setting parameter alchLambda2 to 0.1
Info: NONBONDED TABLE R-SQUARED SPACING: 0.0625
Info: NONBONDED TABLE SIZE: 705 POINTS
TCL: Running for 1500000 steps
ETITLE: TS BOND ANGLE DIHED IMPRP ELECT VDW BOUNDARY MISC KINETIC TOTAL TEMP POTENTIAL TOTALAVG TEMPAVG PRESSURE GPRESSURE VOLUME PRESSAVG GPRESSAVG
ENERGY: 0 4.6438 3.9862 5.9726 0.0000 -10597.3063 1430.7923 0.0000 0.0000 1785.0240 -7366.8875 302.0393 -9151.9115 -7366.8875 302.0393 -33.2805 51.6847 30506.6710 -33.2805 51.6847
ENERGY: 300000 8.0430 5.1561 7.0939 0.0000 -10604.2107 1427.4279 0.0000 0.0000 1818.8060 -7337.6838 307.7555 -9156.4898 -7409.2956 300.8488 -116.3982 -101.2930 30628.8567 88.1340 131.6975
ENERGY: 600000 8.2706 7.5245 5.1639 0.0000 -10821.2780 1550.8021 0.0000 0.0000 1785.3660 -7464.1510 302.0972 -9249.5170 -7424.1048 302.6522 627.7680 647.4782 30246.0205 -86.9350 -36.6080
ENERGY: 900000 12.6133 7.6541 6.8925 0.0000 -10685.3083 1362.2040 0.0000 0.0000 1766.9149 -7529.0295 298.9751 -9295.9444 -7439.3680 302.1821 -1223.4132 -1202.2791 30299.8863 -279.8302 -227.4461
ENERGY: 1200000 8.9514 5.3350 6.2386 0.0000 -10651.4705 1471.5212 0.0000 0.0000 1742.2307 -7417.1936 294.7984 -9159.4243 -7427.6610 302.2651 292.4745 388.0365 30373.3177 -147.5455 -89.1497
ENERGY: 1500000 7.3794 7.3779 8.1275 0.0000 -10887.8238 1544.0429 0.0000 0.0000 1808.6177 -7512.2785 306.0315 -9320.8962 -7442.0866 301.2692 504.4499 631.8323 29933.6417 -72.6519 -12.3112
TCL: Running FEP window   3: Lambda1 0.1    Lambda2 0.15000000000000002 [dLambda 0.05000000000000002]
TCL: Setting parameter firsttimestep to 0
TCL: Setting parameter alchLambda to 0.1
Info: NONBONDED TABLE R-SQUARED SPACING: 0.0625
Info: NONBONDED TABLE SIZE: 705 POINTS
TCL: Setting parameter alchLambda2 to 0.15000000000000002
Info: NONBONDED TABLE R-SQUARED SPACING: 0.0625
Info: NONBONDED TABLE SIZE: 705 POINTS
TCL: Running for 1500000 steps
ETITLE: TS BOND ANGLE DIHED IMPRP ELECT VDW BOUNDARY MISC KINETIC TOTAL TEMP POTENTIAL TOTALAVG TEMPAVG PRESSURE GPRESSURE VOLUME PRESSAVG GPRESSAVG
ENERGY: 0 7.3794 7.3779 8.1275 0.0000 -10887.8248 1546.0492 0.0000 0.0000 1807.7082 -7511.1826 305.8777 -9318.8908 -7511.1826 305.8777 543.2732 643.1720 29933.6417 543.2732 643.1720
ENERGY: 300000 4.3613 7.9296 7.9131 0.0000 -10685.3364 1433.4466 0.0000 0.0000 1791.0319 -7440.6539 303.0559 -9231.6858 -7479.8885 302.6209 32.0607 60.6057 30411.5389 301.9924 381.8654
ENERGY: 600000 8.0481 6.7419 7.0970 0.0000 -10693.1125 1446.8265 0.0000 0.0000 1777.4819 -7446.9171 300.7631 -9224.3990 -7470.7650 300.8757 -139.0019 -120.1919 30548.2580 101.4338 160.4378
ENERGY: 900000 5.6946 3.9194 6.5355 0.0000 -10731.8081 1439.9984 0.0000 0.0000 1754.4628 -7521.1974 296.8681 -9275.6601 -7456.8434 301.6376 -348.4386 -288.2979 30417.6130 103.7865 168.4525
ENERGY: 1200000 6.4435 9.1127 7.8621 0.0000 -10820.0160 1498.6624 0.0000 0.0000 1725.8263 -7572.1090 292.0226 -9297.9353 -7470.6923 300.5732 84.2941 198.0162 29930.6496 143.2485 206.0153
ENERGY: 1500000 5.4956 5.4440 2.6773 0.0000 -10807.8995 1514.9152 0.0000 0.0000 1798.8033 -7480.5641 304.3709 -9279.3674 -7465.9543 301.0822 237.6865 300.7951 29973.6315 159.3736 216.9651
TCL: Running FEP window   4: Lambda1 0.15000000000000002 Lambda2 0.2    [dLambda 0.04999999999999999]
TCL: Setting parameter firsttimestep to 0
TCL: Setting parameter alchLambda to 0.15000000000000002
Info: NONBONDED TABLE R-SQUARED SPACING: 0.0625
Info: NONBONDED TABLE SIZE: 705 POINTS
TCL: Setting parameter alchLambda2 to 0.2
Info: NONBONDED TABLE R-SQUARED SPACING: 0.0625
Info: NONBONDED TABLE SIZE: 705 POINTS
TCL: Running for 1500000 steps
ETITLE: TS BOND ANGLE DIHED IMPRP ELECT VDW BOUNDARY MISC KINETIC TOTAL TEMP POTENTIAL TOTALAVG TEMPAVG PRESSURE GPRESSURE VOLUME PRESSAVG GPRESSAVG
ENERGY: 0 5.4957 5.4440 2.6773 0.0000 -10807.9000 1518.6199 0.0000 0.0000 1797.9208 -7477.7423 304.2215 -9275.6631 -7477.7423 304.2215 230.7275 319.1621 29973.6315 230.7275 319.1621
ENERGY: 300000 4.1030 4.5636 8.3917 0.0000 -10725.0622 1520.5274 0.0000 0.0000 1823.5581 -7363.9185 308.5596 -9187.4766 -7434.1419 302.1510 774.2817 812.0819 30157.5937 267.7691 351.4056
ENERGY: 600000 9.6436 6.6565 7.9887 0.0000 -10662.7025 1410.8862 0.0000 0.0000 1730.8294 -7496.6980 292.8692 -9227.5274 -7466.1322 299.6824 -385.2034 -366.2108 30278.8253 23.1053 88.1390
ENERGY: 900000 10.5515 6.2765 7.4325 0.0000 -10791.3666 1451.2270 0.0000 0.0000 1801.7696 -7514.1095 304.8728 -9315.8791 -7472.6971 300.5598 -469.9264 -383.5123 30179.7603 -82.7727 -12.2960
ENERGY: 1200000 9.7141 5.7894 3.9280 0.0000 -10758.8670 1419.7002 0.0000 0.0000 1777.3550 -7542.3803 300.7417 -9319.7353 -7478.6485 301.2504 -304.8242 -208.1979 30053.3473 -2.4754 63.9708
ENERGY: 1500000 5.0370 7.7295 6.8919 0.0000 -10731.0377 1513.1687 0.0000 0.0000 1767.3055 -7430.9052 299.0412 -9198.2107 -7471.1066 300.3396 477.7343 545.8140 30366.1850 -24.3008 42.9065
TCL: Running FEP window   5: Lambda1 0.2    Lambda2 0.25   [dLambda 0.04999999999999999]
TCL: Setting parameter firsttimestep to 0
TCL: Setting parameter alchLambda to 0.2
Info: NONBONDED TABLE R-SQUARED SPACING: 0.0625
Info: NONBONDED TABLE SIZE: 705 POINTS
TCL: Setting parameter alchLambda2 to 0.25
Info: NONBONDED TABLE R-SQUARED SPACING: 0.0625
Info: NONBONDED TABLE SIZE: 705 POINTS
TCL: Running for 1500000 steps
ETITLE: TS BOND ANGLE DIHED IMPRP ELECT VDW BOUNDARY MISC KINETIC TOTAL TEMP POTENTIAL TOTALAVG TEMPAVG PRESSURE GPRESSURE VOLUME PRESSAVG GPRESSAVG
ENERGY: 0 5.0370 7.7295 6.8919 0.0000 -10731.0385 1514.4384 0.0000 0.0000 1766.4292 -7430.5125 298.8929 -9196.9417 -7430.5125 298.8929 466.0805 551.7420 30366.1850 466.0805 551.7420
ENERGY: 300000 7.1778 3.8895 6.9943 0.0000 -10724.7173 1462.4013 0.0000 0.0000 1755.1581 -7489.0964 296.9858 -9244.2545 -7446.8582 297.9500 -169.2302 -81.8754 30567.9749 -149.7836 -57.7804
ENERGY: 600000 8.6484 5.3407 3.5874 0.0000 -10653.9860 1490.9626 0.0000 0.0000 1777.7283 -7367.7186 300.8048 -9145.4469 -7422.7398 297.6743 435.4540 507.6855 30640.7680 49.8114 124.2901
ENERGY: 900000 8.6883 8.6868 6.2093 0.0000 -10749.0642 1560.9702 0.0000 0.0000 1816.8781 -7347.6316 307.4293 -9164.5097 -7422.6604 299.4093 893.5399 1008.3891 30797.8763 101.3049 175.2521
ENERGY: 1200000 7.1314 6.9374 8.8120 0.0000 -10732.1352 1495.3324 0.0000 0.0000 1732.1452 -7481.7768 293.0918 -9213.9220 -7425.7356 299.7700 315.1337 353.7361 30555.8895 133.2317 199.2229
ENERGY: 1500000 8.4164 3.9173 8.3747 0.0000 -10475.9201 1282.3971 0.0000 0.0000 1808.6582 -7364.1563 306.0384 -9172.8145 -7428.4445 299.8509 -1157.7708 -1106.9171 30456.8806 70.7517 131.9750
TCL: Running FEP window   6: Lambda1 0.25   Lambda2 0.3    [dLambda 0.04999999999999999]
TCL: Setting parameter firsttimestep to 0
TCL: Setting parameter alchLambda to 0.25
Info: NONBONDED TABLE R-SQUARED SPACING: 0.0625
Info: NONBONDED TABLE SIZE: 705 POINTS
TCL: Setting parameter alchLambda2 to 0.3
Info: NONBONDED TABLE R-SQUARED SPACING: 0.0625
Info: NONBONDED TABLE SIZE: 705 POINTS
TCL: Running for 1500000 steps
ETITLE: TS BOND ANGLE DIHED IMPRP ELECT VDW BOUNDARY MISC KINETIC TOTAL TEMP POTENTIAL TOTALAVG TEMPAVG PRESSURE GPRESSURE VOLUME PRESSAVG GPRESSAVG
ENERGY: 0 8.4164 3.9173 8.3747 0.0000 -10475.9199 1282.1005 0.0000 0.0000 1807.7710 -7365.3400 305.8883 -9173.1110 -7365.3400 305.8883 -1193.4129 -1103.2763 30456.8806 -1193.4129 -1103.2763
ENERGY: 300000 4.6879 9.1968 4.6583 0.0000 -10745.8168 1489.7502 0.0000 0.0000 1778.2773 -7459.2464 300.8977 -9237.5236 -7420.5074 302.5342 236.3306 324.4476 30492.4295 -526.5747 -456.8971
ENERGY: 600000 7.2077 6.5435 5.9373 0.0000 -10751.6492 1472.3709 0.0000 0.0000 1772.3472 -7487.2427 299.8943 -9259.5898 -7440.6604 302.0923 -86.0532 -13.6494 30459.8626 -301.5402 -236.2615
ENERGY: 900000 5.4464 3.8840 7.1931 0.0000 -10575.5298 1339.0792 0.0000 0.0000 1770.9252 -7449.0019 299.6537 -9219.9271 -7444.0918 301.9384 -772.8801 -733.6286 30720.0670 -242.8375 -187.4736
ENERGY: 1200000 6.6016 5.3183 3.9578 0.0000 -10613.1043 1376.7260 0.0000 0.0000 1746.8788 -7473.6219 295.5849 -9220.5007 -7446.6729 300.5461 -744.8487 -682.7488 30585.3744 -210.3539 -154.6289
ENERGY: 1500000 3.5734 6.2038 5.9344 0.0000 -10613.4313 1360.5356 0.0000 0.0000 1772.4588 -7464.7253 299.9132 -9237.1841 -7445.9892 300.1874 -761.1169 -681.7970 30440.2967 -269.2347 -207.8492
TCL: Running FEP window   7: Lambda1 0.3    Lambda2 0.35   [dLambda 0.04999999999999999]
TCL: Setting parameter firsttimestep to 0
TCL: Setting parameter alchLambda to 0.3
Info: NONBONDED TABLE R-SQUARED SPACING: 0.0625
Info: NONBONDED TABLE SIZE: 705 POINTS
TCL: Setting parameter alchLambda2 to 0.35
Info: NONBONDED TABLE R-SQUARED SPACING: 0.0625
Info: NONBONDED TABLE SIZE: 705 POINTS
TCL: Running for 1500000 steps
ETITLE: TS BOND ANGLE DIHED IMPRP ELECT VDW BOUNDARY MISC KINETIC TOTAL TEMP POTENTIAL TOTALAVG TEMPAVG PRESSURE GPRESSURE VOLUME PRESSAVG GPRESSAVG
ENERGY: 0 3.5734 6.2038 5.9344 0.0000 -10613.4322 1360.4856 0.0000 0.0000 1771.5709 -7465.6640 299.7630 -9237.2349 -7465.6640 299.7630 -759.2107 -675.5899 30440.2967 -759.2107 -675.5899
ENERGY: 300000 5.0657 4.5785 4.0403 0.0000 -10655.3503 1473.4858 0.0000 0.0000 1730.1631 -7438.0170 292.7564 -9168.1801 -7452.6335 298.0519 263.3707 330.2073 30427.2467 -164.1952 -113.2506
ENERGY: 600000 7.5635 10.0214 7.1723 0.0000 -10736.8037 1436.5461 0.0000 0.0000 1719.2991 -7556.2015 290.9182 -9275.5005 -7446.1782 299.7885 -389.8356 -295.2222 30364.8174 -165.7028 -105.7917
ENERGY: 900000 8.6135 4.6890 5.0276 0.0000 -10605.0475 1448.7517 0.0000 0.0000 1790.3609 -7347.6047 302.9424 -9137.9656 -7451.3971 299.6973 405.4468 509.7874 30383.3929 -64.2711 4.1080
ENERGY: 1200000 6.2756 14.0024 7.0170 0.0000 -10657.3222 1439.2641 0.0000 0.0000 1822.5135 -7368.2495 308.3828 -9190.7630 -7453.1675 300.3200 -146.7211 -66.0867 30805.5786 -123.8597 -55.2006
ENERGY: 1500000 3.6707 5.2444 5.9164 0.0000 -10590.9044 1415.1582 0.0000 0.0000 1749.5848 -7411.3299 296.0427 -9160.9146 -7440.3841 300.1521 -240.5768 -158.9377 30929.4618 -90.4923 -26.3219
TCL: Running FEP window   8: Lambda1 0.35   Lambda2 0.39999999999999997 [dLambda 0.04999999999999999]
TCL: Setting parameter firsttimestep to 0
TCL: Setting parameter alchLambda to 0.35
Info: NONBONDED TABLE R-SQUARED SPACING: 0.0625
Info: NONBONDED TABLE SIZE: 705 POINTS
TCL: Setting parameter alchLambda2 to 0.39999999999999997
Info: NONBONDED TABLE R-SQUARED SPACING: 0.0625
Info: NONBONDED TABLE SIZE: 705 POINTS
TCL: Running for 1500000 steps
ETITLE: TS BOND ANGLE DIHED IMPRP ELECT VDW BOUNDARY MISC KINETIC TOTAL TEMP POTENTIAL TOTALAVG TEMPAVG PRESSURE GPRESSURE VOLUME PRESSAVG GPRESSAVG
ENERGY: 0 3.6708 5.2444 5.9164 0.0000 -10590.9036 1415.5147 0.0000 0.0000 1748.7143 -7411.8430 295.8954 -9160.5573 -7411.8430 295.8954 -235.2212 -152.4850 30929.4618 -235.2212 -152.4850
ENERGY: 300000 4.7838 5.4889 8.5728 0.0000 -10711.1010 1415.9413 0.0000 0.0000 1796.8453 -7479.4689 304.0396 -9276.3143 -7443.7209 302.8624 -181.9371 -65.1502 29988.7440 -50.2976 11.8528
ENERGY: 600000 7.7339 5.5707 6.2310 0.0000 -10742.0870 1443.0971 0.0000 0.0000 1795.2385 -7484.2159 303.7677 -9279.4544 -7453.5053 302.2156 -91.2210 -46.4689 30147.6516 -117.6542 -67.5462
ENERGY: 900000 6.5504 4.7355 6.4029 0.0000 -10712.2840 1391.9564 0.0000 0.0000 1747.0933 -7555.5454 295.6212 -9302.6388 -7463.5453 300.8762 -892.1540 -818.8336 30397.1009 -176.3004 -113.7355
ENERGY: 1200000 4.1651 4.8470 8.8583 0.0000 -10514.2832 1328.8380 0.0000 0.0000 1733.3848 -7434.1900 293.3016 -9167.5748 -7456.4972 300.4233 -628.1647 -576.7021 30026.6718 -206.4622 -144.5430
ENERGY: 1500000 6.4487 5.2093 6.1151 0.0000 -10635.1087 1446.5908 0.0000 0.0000 1779.3997 -7391.3452 301.0876 -9170.7449 -7446.8113 300.5942 535.4651 513.2627 30105.0919 -132.0799 -71.9510
TCL: Running FEP window   9: Lambda1 0.39999999999999997 Lambda2 0.44999999999999996 [dLambda 0.04999999999999999]
TCL: Setting parameter firsttimestep to 0
TCL: Setting parameter alchLambda to 0.39999999999999997
Info: NONBONDED TABLE R-SQUARED SPACING: 0.0625
Info: NONBONDED TABLE SIZE: 705 POINTS
TCL: Setting parameter alchLambda2 to 0.44999999999999996
Info: NONBONDED TABLE R-SQUARED SPACING: 0.0625
Info: NONBONDED TABLE SIZE: 705 POINTS
TCL: Running for 1500000 steps
ETITLE: TS BOND ANGLE DIHED IMPRP ELECT VDW BOUNDARY MISC KINETIC TOTAL TEMP POTENTIAL TOTALAVG TEMPAVG PRESSURE GPRESSURE VOLUME PRESSAVG GPRESSAVG
ENERGY: 0 6.4487 5.2093 6.1151 0.0000 -10635.1076 1446.3734 0.0000 0.0000 1778.4968 -7392.4643 300.9349 -9170.9611 -7392.4643 300.9349 435.9094 518.1489 30105.0919 435.9094 518.1489
ENERGY: 300000 7.5962 6.1865 8.5235 0.0000 -10784.3368 1478.8452 0.0000 0.0000 1792.8824 -7490.3030 303.3690 -9283.1854 -7462.3184 301.6020 75.7885 72.6907 30277.1837 -32.4675 2.0064
ENERGY: 600000 3.7026 6.7489 5.6474 0.0000 -10581.3181 1371.0284 0.0000 0.0000 1788.1342 -7406.0566 302.5656 -9194.1908 -7463.1207 300.1294 -234.8012 -176.3754 30350.5738 -7.7116 38.5671
ENERGY: 900000 8.5439 7.4554 10.0621 0.0000 -10608.7811 1446.5983 0.0000 0.0000 1757.1135 -7379.0079 297.3167 -9136.1214 -7462.8341 298.0276 -366.4073 -295.9120 31013.8131 -128.5010 -73.6798
ENERGY: 1200000 7.5789 4.0800 5.9769 0.0000 -10653.1190 1461.5018 0.0000 0.0000 1712.3764 -7461.6049 289.7468 -9173.9814 -7465.7480 296.9357 -9.6617 8.5342 30769.2657 -78.8152 -23.2645
ENERGY: 1500000 12.3073 8.3985 5.8042 0.0000 -10587.6269 1410.1164 0.0000 0.0000 1718.6179 -7432.3824 290.8029 -9151.0003 -7467.6408 296.2045 -356.7404 -266.4488 30593.0910 -99.4881 -45.0203
TCL: Running FEP window  10: Lambda1 0.44999999999999996 Lambda2 0.49999999999999994 [dLambda 0.04999999999999999]
TCL: Setting parameter firsttimestep to 0
TCL: Setting parameter alchLambda to 0.44999999999999996
Info: NONBONDED TABLE R-SQUARED SPACING: 0.0625
Info: NONBONDED TABLE SIZE: 705 POINTS
TCL: Setting parameter alchLambda2 to 0.49999999999999994
Info: NONBONDED TABLE R-SQUARED SPACING: 0.0625
Info: NONBONDED TABLE SIZE: 705 POINTS
TCL: Running for 1500000 steps
ETITLE: TS BOND ANGLE DIHED IMPRP ELECT VDW BOUNDARY MISC KINETIC TOTAL TEMP POTENTIAL TOTALAVG TEMPAVG PRESSURE GPRESSURE VOLUME PRESSAVG GPRESSAVG
ENERGY: 0 12.3073 8.3985 5.8042 0.0000 -10587.6255 1409.8104 0.0000 0.0000 1717.7452 -7433.5599 290.6552 -9151.3050 -7433.5599 290.6552 -344.6189 -264.9329 30593.0910 -344.6189 -264.9329
ENERGY: 300000 7.1203 6.4761 5.9642 0.0000 -10698.0230 1454.8745 0.0000 0.0000 1737.1878 -7486.4001 293.9451 -9223.5879 -7438.1316 296.7568 -134.7348 -46.0634 30446.2342 -293.8739 -215.5757
ENERGY: 600000 5.2512 4.1887 4.5511 0.0000 -10543.1822 1312.6409 0.0000 0.0000 1783.4698 -7433.0805 301.7763 -9216.5503 -7441.2865 299.2733 -1079.1563 -1030.5285 30661.0181 -541.3352 -465.7176
ENERGY: 900000 7.3643 4.4093 7.9300 0.0000 -10689.7786 1470.6101 0.0000 0.0000 1728.2852 -7471.1797 292.4387 -9199.4649 -7458.9534 296.9660 204.8039 263.6491 30594.3517 -351.3655 -290.8077
ENERGY: 1200000 3.8489 4.4808 7.3799 0.0000 -10712.1942 1424.5746 0.0000 0.0000 1804.2548 -7467.6552 305.2933 -9271.9100 -7456.6327 298.0399 -10.1845 71.7749 30475.6072 -242.1501 -176.8219
ENERGY: 1500000 4.7264 5.1677 7.2040 0.0000 -10653.6797 1454.6284 0.0000 0.0000 1747.5991 -7434.3540 295.7068 -9181.9531 -7452.0251 298.2232 408.3553 428.2787 30256.8781 -205.1553 -144.0445
TCL: Running FEP window  11: Lambda1 0.49999999999999994 Lambda2 0.5499999999999999 [dLambda 0.04999999999999999]
TCL: Setting parameter firsttimestep to 0
TCL: Setting parameter alchLambda to 0.49999999999999994
Info: NONBONDED TABLE R-SQUARED SPACING: 0.0625
Info: NONBONDED TABLE SIZE: 705 POINTS
TCL: Setting parameter alchLambda2 to 0.5499999999999999
Info: NONBONDED TABLE R-SQUARED SPACING: 0.0625
Info: NONBONDED TABLE SIZE: 705 POINTS
TCL: Running for 1500000 steps
ETITLE: TS BOND ANGLE DIHED IMPRP ELECT VDW BOUNDARY MISC KINETIC TOTAL TEMP POTENTIAL TOTALAVG TEMPAVG PRESSURE GPRESSURE VOLUME PRESSAVG GPRESSAVG
ENERGY: 0 4.7264 5.1677 7.2040 0.0000 -10653.6807 1453.6237 0.0000 0.0000 1746.7009 -7436.2579 295.5548 -9182.9588 -7436.2579 295.5548 346.4521 428.9058 30256.8781 346.4521 428.9058
ENERGY: 300000 5.8192 9.9347 4.6464 0.0000 -10623.6021 1391.0949 0.0000 0.0000 1830.8080 -7381.2990 309.7863 -9212.1070 -7382.3078 302.6176 -437.1164 -339.3679 30485.2495 13.7565 94.0836
ENERGY: 600000 4.5634 7.7570 5.8667 0.0000 -10730.0831 1459.1101 0.0000 0.0000 1770.9204 -7481.8655 299.6529 -9252.7859 -7433.8268 300.3191 269.7285 317.9243 29888.3069 114.1689 179.8610
ENERGY: 900000 5.8131 5.7745 6.2195 0.0000 -10639.3869 1445.5787 0.0000 0.0000 1740.0367 -7435.9644 294.4271 -9176.0011 -7434.4901 300.2792 0.8358 109.9491 30352.0675 46.0807 114.3151
ENERGY: 1200000 8.2663 3.2713 9.5570 0.0000 -10650.0202 1385.0209 0.0000 0.0000 1760.1874 -7483.7173 297.8368 -9243.9047 -7451.8599 298.6372 -627.0954 -572.3467 30356.9919 4.3519 68.4503
ENERGY: 1500000 4.1029 4.6832 7.9578 0.0000 -10735.7478 1487.2061 0.0000 0.0000 1730.7613 -7501.0366 292.8577 -9231.7978 -7448.6973 298.4093 84.5812 131.8368 30773.6787 29.5847 94.3864
TCL: Running FEP window  12: Lambda1 0.5499999999999999 Lambda2 0.6    [dLambda 0.050000000000000044]
TCL: Setting parameter firsttimestep to 0
TCL: Setting parameter alchLambda to 0.5499999999999999
Info: NONBONDED TABLE R-SQUARED SPACING: 0.0625
Info: NONBONDED TABLE SIZE: 705 POINTS
TCL: Setting parameter alchLambda2 to 0.6
Info: NONBONDED TABLE R-SQUARED SPACING: 0.0625
Info: NONBONDED TABLE SIZE: 705 POINTS
TCL: Running for 1500000 steps
ETITLE: TS BOND ANGLE DIHED IMPRP ELECT VDW BOUNDARY MISC KINETIC TOTAL TEMP POTENTIAL TOTALAVG TEMPAVG PRESSURE GPRESSURE VOLUME PRESSAVG GPRESSAVG
ENERGY: 0 4.1029 4.6832 7.9578 0.0000 -10736.0733 1487.0996 0.0000 0.0000 1729.8875 -7502.3424 292.7098 -9232.2299 -7502.3424 292.7098 74.0000 142.4427 30773.6787 74.0000 142.4427
ENERGY: 300000 6.4651 3.7912 6.1356 0.0000 -10647.3804 1408.6608 0.0000 0.0000 1749.8148 -7472.5128 296.0817 -9222.3276 -7452.9921 297.2241 -448.3935 -407.7075 30617.1877 162.7409 212.5054
ENERGY: 600000 6.6127 7.6822 8.0055 0.0000 -10814.9114 1456.8043 0.0000 0.0000 1777.0134 -7558.7933 300.6839 -9335.8067 -7481.4980 298.1335 -19.4724 32.4968 29969.3145 190.0690 247.3443
ENERGY: 900000 7.0353 10.4611 8.0323 0.0000 -10706.6895 1376.6286 0.0000 0.0000 1788.2822 -7516.2499 302.5906 -9304.5321 -7481.5623 298.9921 -707.7957 -645.6240 30332.1247 -28.3823 29.0976
ENERGY: 1200000 6.6681 3.9125 10.9117 0.0000 -10784.9991 1483.6911 0.0000 0.0000 1767.9432 -7511.8726 299.1491 -9279.8157 -7485.7732 299.6202 324.9854 376.5556 30512.9348 36.2055 94.4835
ENERGY: 1500000 6.3067 6.8222 11.0071 0.0000 -10759.4879 1507.6680 0.0000 0.0000 1780.9344 -7446.7495 301.3473 -9227.6840 -7485.6768 299.1855 835.7250 855.8261 30061.1816 100.4358 156.1765
TCL: Running FEP window  13: Lambda1 0.6    Lambda2 0.65   [dLambda 0.050000000000000044]
TCL: Setting parameter firsttimestep to 0
TCL: Setting parameter alchLambda to 0.6
Info: NONBONDED TABLE R-SQUARED SPACING: 0.0625
Info: NONBONDED TABLE SIZE: 705 POINTS
TCL: Setting parameter alchLambda2 to 0.65
Info: NONBONDED TABLE R-SQUARED SPACING: 0.0625
Info: NONBONDED TABLE SIZE: 705 POINTS
TCL: Running for 1500000 steps
ETITLE: TS BOND ANGLE DIHED IMPRP ELECT VDW BOUNDARY MISC KINETIC TOTAL TEMP POTENTIAL TOTALAVG TEMPAVG PRESSURE GPRESSURE VOLUME PRESSAVG GPRESSAVG
ENERGY: 0 6.3067 6.8222 11.0071 0.0000 -10759.4661 1507.5963 0.0000 0.0000 1780.0661 -7447.6677 301.2004 -9227.7338 -7447.6677 301.2004 798.1709 868.4206 30061.1816 798.1709 868.4206
ENERGY: 300000 5.8230 5.4962 5.4262 0.0000 -10744.7756 1431.1048 0.0000 0.0000 1819.3802 -7477.5453 307.8526 -9296.9255 -7423.1494 301.9114 -51.5288 11.9164 30176.0412 -149.0554 -85.7106
ENERGY: 600000 6.6043 6.0118 6.3354 0.0000 -10700.3214 1453.5922 0.0000 0.0000 1793.7685 -7434.0093 303.5189 -9227.7777 -7418.0808 303.6787 -272.7025 -245.0714 30953.6941 -61.2129 -16.7620
ENERGY: 900000 6.2010 4.3998 7.2323 0.0000 -10625.0591 1364.7891 0.0000 0.0000 1771.3781 -7471.0589 299.7303 -9242.4370 -7424.8048 302.4892 -697.9124 -637.1563 30633.2425 7.9040 59.1199
ENERGY: 1200000 6.6787 5.4313 10.6304 0.0000 -10751.2944 1480.7737 0.0000 0.0000 1753.7304 -7494.0499 296.7442 -9247.7803 -7439.8209 300.8697 -83.8503 8.3410 30835.6621 -41.2724 13.3476
ENERGY: 1500000 4.7511 4.7915 4.3877 0.0000 -10635.3881 1377.2033 0.0000 0.0000 1777.6743 -7466.5802 300.7957 -9244.2545 -7436.8576 300.9838 -579.3348 -472.3573 30880.4181 -25.2943 37.6286
TCL: Running FEP window  14: Lambda1 0.65   Lambda2 0.7000000000000001 [dLambda 0.050000000000000044]
TCL: Setting parameter firsttimestep to 0
TCL: Setting parameter alchLambda to 0.65
Info: NONBONDED TABLE R-SQUARED SPACING: 0.0625
Info: NONBONDED TABLE SIZE: 705 POINTS
TCL: Setting parameter alchLambda2 to 0.7000000000000001
Info: NONBONDED TABLE R-SQUARED SPACING: 0.0625
Info: NONBONDED TABLE SIZE: 705 POINTS
TCL: Running for 1500000 steps
ETITLE: TS BOND ANGLE DIHED IMPRP ELECT VDW BOUNDARY MISC KINETIC TOTAL TEMP POTENTIAL TOTALAVG TEMPAVG PRESSURE GPRESSURE VOLUME PRESSAVG GPRESSAVG
ENERGY: 0 4.7511 4.7915 4.3877 0.0000 -10635.2063 1376.8249 0.0000 0.0000 1776.7981 -7467.6529 300.6474 -9244.4511 -7467.6529 300.6474 -550.9484 -464.6342 30880.4181 -550.9484 -464.6342
ENERGY: 300000 7.2661 6.8650 8.5695 0.0000 -10861.0122 1549.5735 0.0000 0.0000 1790.8598 -7497.8783 303.0268 -9288.7381 -7502.4683 302.5066 528.0914 605.9805 30561.4490 -110.1609 -34.5509
ENERGY: 600000 6.6146 9.6462 8.9953 0.0000 -10798.0405 1563.2611 0.0000 0.0000 1723.2675 -7486.2559 291.5897 -9209.5233 -7501.9799 299.1378 954.8827 1039.3333 30262.8040 245.2022 315.3007
ENERGY: 900000 6.0005 4.9339 5.7822 0.0000 -10620.1783 1400.7818 0.0000 0.0000 1792.8040 -7409.8759 303.3557 -9202.6798 -7492.9165 298.3119 -260.4467 -181.2252 30616.8422 147.7941 221.0848
ENERGY: 1200000 9.8315 11.3401 7.8273 0.0000 -10792.6963 1485.0043 0.0000 0.0000 1825.5141 -7453.1789 308.8905 -9278.6930 -7478.7055 299.9159 -113.9409 -10.0476 30572.4717 77.0391 152.9538
ENERGY: 1500000 5.0846 5.6781 6.3755 0.0000 -10526.2728 1373.4311 0.0000 0.0000 1808.3466 -7327.3568 305.9857 -9135.7034 -7464.3684 300.2501 -494.3253 -438.6958 30878.2008 -48.0178 23.2806
TCL: Running FEP window  15: Lambda1 0.7000000000000001 Lambda2 0.7500000000000001 [dLambda 0.050000000000000044]
TCL: Setting parameter firsttimestep to 0
TCL: Setting parameter alchLambda to 0.7000000000000001
Info: NONBONDED TABLE R-SQUARED SPACING: 0.0625
Info: NONBONDED TABLE SIZE: 705 POINTS
TCL: Setting parameter alchLambda2 to 0.7500000000000001
Info: NONBONDED TABLE R-SQUARED SPACING: 0.0625
Info: NONBONDED TABLE SIZE: 705 POINTS
TCL: Running for 1500000 steps
ETITLE: TS BOND ANGLE DIHED IMPRP ELECT VDW BOUNDARY MISC KINETIC TOTAL TEMP POTENTIAL TOTALAVG TEMPAVG PRESSURE GPRESSURE VOLUME PRESSAVG GPRESSAVG
ENERGY: 0 5.0846 5.6781 6.3755 0.0000 -10526.6041 1373.1011 0.0000 0.0000 1807.4253 -7328.9394 305.8298 -9136.3648 -7328.9394 305.8298 -503.2856 -428.0499 30878.2008 -503.2856 -428.0499
ENERGY: 300000 7.1027 4.4387 5.4158 0.0000 -10643.8319 1395.4599 0.0000 0.0000 1710.6507 -7520.7640 289.4548 -9231.4147 -7463.4626 297.9075 -432.5336 -344.9078 30631.4417 -162.6377 -97.5469
ENERGY: 600000 8.1044 3.7790 4.2900 0.0000 -10757.7302 1447.8675 0.0000 0.0000 1738.8533 -7554.8360 294.2269 -9293.6893 -7479.2675 297.3363 -35.0558 39.7964 30069.9209 -238.3929 -183.3537
ENERGY: 900000 6.9878 6.0498 7.7528 0.0000 -10682.3932 1421.0730 0.0000 0.0000 1757.9221 -7482.6077 297.4535 -9240.5297 -7475.7645 297.0060 -568.0140 -452.6245 30887.4223 -182.5738 -118.5419
ENERGY: 1200000 4.4891 5.1479 7.6304 0.0000 -10629.8580 1391.0427 0.0000 0.0000 1769.2225 -7452.3253 299.3656 -9221.5478 -7477.5619 298.0218 -441.7014 -433.1222 30611.8411 -184.8427 -124.5306
ENERGY: 1500000 5.9632 6.4397 6.9478 0.0000 -10592.6453 1414.8279 0.0000 0.0000 1743.6955 -7414.7711 295.0462 -9158.4667 -7478.8316 297.1616 -225.7473 -123.0009 30885.4854 -240.9683 -176.4672
TCL: Running FEP window  16: Lambda1 0.7500000000000001 Lambda2 0.8000000000000002 [dLambda 0.050000000000000044]
TCL: Setting parameter firsttimestep to 0
TCL: Setting parameter alchLambda to 0.7500000000000001
Info: NONBONDED TABLE R-SQUARED SPACING: 0.0625
Info: NONBONDED TABLE SIZE: 705 POINTS
TCL: Setting parameter alchLambda2 to 0.8000000000000002
Info: NONBONDED TABLE R-SQUARED SPACING: 0.0625
Info: NONBONDED TABLE SIZE: 705 POINTS
TCL: Running for 1500000 steps
ETITLE: TS BOND ANGLE DIHED IMPRP ELECT VDW BOUNDARY MISC KINETIC TOTAL TEMP POTENTIAL TOTALAVG TEMPAVG PRESSURE GPRESSURE VOLUME PRESSAVG GPRESSAVG
ENERGY: 0 5.9632 6.4397 6.9478 0.0000 -10593.4882 1415.0979 0.0000 0.0000 1742.8116 -7416.2280 294.8967 -9159.0395 -7416.2280 294.8967 -183.2690 -109.8309 30885.4854 -183.2690 -109.8309
ENERGY: 300000 4.6970 6.2993 3.8451 0.0000 -10653.3691 1398.7640 0.0000 0.0000 1770.8380 -7468.9257 299.6389 -9239.7636 -7470.3359 297.2189 -210.6850 -204.2157 30759.0649 -371.7745 -312.6276
ENERGY: 600000 7.7171 4.4524 7.0624 0.0000 -10668.8381 1409.4633 0.0000 0.0000 1768.9392 -7471.2037 299.3177 -9240.1429 -7469.5458 297.9413 -5.2156 66.3373 30119.1981 -373.3965 -310.1108
ENERGY: 900000 11.2854 6.6438 8.4423 0.0000 -10842.5595 1505.8301 0.0000 0.0000 1719.2732 -7591.0847 290.9138 -9310.3580 -7487.6391 296.6588 2.2855 128.0516 30245.3761 -325.4481 -264.0637
ENERGY: 1200000 4.4947 6.5225 5.0722 0.0000 -10691.1681 1403.6705 0.0000 0.0000 1777.5521 -7493.8561 300.7750 -9271.4082 -7481.8579 297.3754 -365.0182 -317.9577 30587.6876 -218.8738 -162.0760
ENERGY: 1500000 3.7680 4.4325 5.4875 0.0000 -10770.0397 1551.1989 0.0000 0.0000 1809.3133 -7395.8395 306.1493 -9205.1528 -7480.5950 297.5438 830.7113 956.8801 30689.8605 -176.9465 -122.2750
TCL: Running FEP window  17: Lambda1 0.8000000000000002 Lambda2 0.8500000000000002 [dLambda 0.050000000000000044]
TCL: Setting parameter firsttimestep to 0
TCL: Setting parameter alchLambda to 0.8000000000000002
Info: NONBONDED TABLE R-SQUARED SPACING: 0.0625
Info: NONBONDED TABLE SIZE: 705 POINTS
TCL: Setting parameter alchLambda2 to 0.8500000000000002
Info: NONBONDED TABLE R-SQUARED SPACING: 0.0625
Info: NONBONDED TABLE SIZE: 705 POINTS
TCL: Running for 1500000 steps
ETITLE: TS BOND ANGLE DIHED IMPRP ELECT VDW BOUNDARY MISC KINETIC TOTAL TEMP POTENTIAL TOTALAVG TEMPAVG PRESSURE GPRESSURE VOLUME PRESSAVG GPRESSAVG
ENERGY: 0 3.7680 4.4325 5.4875 0.0000 -10770.9471 1551.1742 0.0000 0.0000 1808.3966 -7397.6884 305.9941 -9206.0849 -7397.6884 305.9941 890.3418 967.9052 30689.8605 890.3418 967.9052
ENERGY: 300000 4.9720 5.4809 4.4078 0.0000 -10588.0564 1321.6928 0.0000 0.0000 1735.9630 -7515.5399 293.7378 -9251.5028 -7461.9302 298.6568 -1035.3942 -1004.0725 30622.9873 -65.6325 -9.8617
ENERGY: 600000 3.3437 8.0142 6.7685 0.0000 -10771.0342 1474.9890 0.0000 0.0000 1779.7122 -7498.2066 301.1405 -9277.9188 -7490.8590 298.9372 579.0971 626.3467 29856.2552 214.8972 270.7042
ENERGY: 900000 7.5410 7.3502 8.4392 0.0000 -10729.4617 1479.7764 0.0000 0.0000 1707.2605 -7519.0943 288.8812 -9226.3548 -7491.0422 298.5945 192.5099 264.8012 30799.7045 90.2168 144.1919
ENERGY: 1200000 4.4572 6.8409 5.0580 0.0000 -10758.6650 1492.3303 0.0000 0.0000 1797.5809 -7452.3976 304.1640 -9249.9785 -7482.2329 298.7892 108.1549 195.3008 30605.2153 134.1921 199.0459
ENERGY: 1500000 2.8733 3.8084 5.2404 0.0000 -10837.4925 1528.6563 0.0000 0.0000 1753.5706 -7543.3435 296.7172 -9296.9141 -7481.5830 297.9331 315.4538 336.3489 30828.6174 170.6132 226.0855
TCL: Running FEP window  18: Lambda1 0.8500000000000002 Lambda2 0.9000000000000002 [dLambda 0.050000000000000044]
TCL: Setting parameter firsttimestep to 0
TCL: Setting parameter alchLambda to 0.8500000000000002
Info: NONBONDED TABLE R-SQUARED SPACING: 0.0625
Info: NONBONDED TABLE SIZE: 705 POINTS
TCL: Setting parameter alchLambda2 to 0.9000000000000002
Info: NONBONDED TABLE R-SQUARED SPACING: 0.0625
Info: NONBONDED TABLE SIZE: 705 POINTS
TCL: Running for 1500000 steps
ETITLE: TS BOND ANGLE DIHED IMPRP ELECT VDW BOUNDARY MISC KINETIC TOTAL TEMP POTENTIAL TOTALAVG TEMPAVG PRESSURE GPRESSURE VOLUME PRESSAVG GPRESSAVG
ENERGY: 0 2.8733 3.8084 5.2404 0.0000 -10838.1557 1528.5150 0.0000 0.0000 1752.7223 -7544.9963 296.5736 -9297.7186 -7544.9963 296.5736 262.9493 349.8108 30828.6174 262.9493 349.8108
ENERGY: 300000 4.8942 5.5421 4.8258 0.0000 -10581.4055 1362.9814 0.0000 0.0000 1756.4593 -7446.7027 297.2060 -9203.1620 -7456.9881 302.3980 -817.0175 -731.9900 31355.7050 -359.2619 -285.5724
ENERGY: 600000 7.3678 7.1704 8.8070 0.0000 -10694.7477 1451.7783 0.0000 0.0000 1777.7237 -7441.9004 300.8041 -9219.6241 -7453.2821 301.9383 -222.9847 -150.0112 30994.3763 -91.3520 -33.2876
ENERGY: 900000 4.1186 4.4887 7.2873 0.0000 -10799.8792 1454.1525 0.0000 0.0000 1736.0741 -7593.7579 293.7566 -9329.8320 -7472.6231 301.4357 -339.3032 -277.3961 30678.9765 -219.4799 -160.6892
ENERGY: 1200000 4.7325 4.4682 6.4297 0.0000 -10551.8736 1394.2795 0.0000 0.0000 1778.2992 -7363.6645 300.9014 -9141.9637 -7457.8844 300.7701 -426.5311 -408.9952 31210.6857 -233.1048 -176.3431
ENERGY: 1500000 11.6240 13.3729 7.8747 0.0000 -10615.2370 1400.3164 0.0000 0.0000 1753.2467 -7428.8024 296.6624 -9182.0491 -7460.4494 300.1654 -552.8208 -485.5709 30837.2130 -237.9463 -166.8011
TCL: Running FEP window  19: Lambda1 0.9000000000000002 Lambda2 0.9500000000000003 [dLambda 0.050000000000000044]
TCL: Setting parameter firsttimestep to 0
TCL: Setting parameter alchLambda to 0.9000000000000002
Info: NONBONDED TABLE R-SQUARED SPACING: 0.0625
Info: NONBONDED TABLE SIZE: 705 POINTS
TCL: Setting parameter alchLambda2 to 0.9500000000000003
Info: NONBONDED TABLE R-SQUARED SPACING: 0.0625
Info: NONBONDED TABLE SIZE: 705 POINTS
TCL: Running for 1500000 steps
ETITLE: TS BOND ANGLE DIHED IMPRP ELECT VDW BOUNDARY MISC KINETIC TOTAL TEMP POTENTIAL TOTALAVG TEMPAVG PRESSURE GPRESSURE VOLUME PRESSAVG GPRESSAVG
ENERGY: 0 11.6240 13.3729 7.8747 0.0000 -10616.7388 1399.7527 0.0000 0.0000 1752.3879 -7431.7267 296.5170 -9184.1146 -7431.7267 296.5170 -555.3512 -476.7812 30837.2130 -555.3512 -476.7812
ENERGY: 300000 8.3426 5.6410 4.9834 0.0000 -10782.8117 1483.1099 0.0000 0.0000 1705.8352 -7574.8996 288.6400 -9280.7348 -7468.4128 300.6743 318.8064 459.3056 30459.6856 197.8458 304.4127
ENERGY: 600000 4.5342 6.2272 4.5382 0.0000 -10589.5454 1305.8237 0.0000 0.0000 1721.9343 -7546.4878 291.3641 -9268.4221 -7461.9032 300.6764 -1046.1022 -1002.9654 30332.2050 -145.1763 -63.6891
ENERGY: 900000 8.8098 5.2516 7.5491 0.0000 -10577.8353 1374.1157 0.0000 0.0000 1792.1202 -7389.9888 303.2401 -9182.1091 -7451.9851 302.8844 -410.4040 -360.7727 30498.9326 -132.7921 -61.1340
ENERGY: 1200000 8.6622 5.3823 6.1879 0.0000 -10678.6680 1410.0354 0.0000 0.0000 1803.7925 -7444.6079 305.2151 -9248.4003 -7458.7780 303.0680 -613.0444 -617.4970 31078.1820 -141.3400 -84.9612
ENERGY: 1500000 5.2901 2.2367 5.9570 0.0000 -10708.7790 1449.6310 0.0000 0.0000 1754.4615 -7491.2028 296.8679 -9245.6643 -7460.1836 302.1435 188.1983 237.9568 30907.5471 -127.5214 -74.6897
TCL: Running FEP window  20: Lambda1 0.9500000000000003 Lambda2 1.0    [dLambda 0.04999999999999971]
TCL: Setting parameter firsttimestep to 0
TCL: Setting parameter alchLambda to 0.9500000000000003
Info: NONBONDED TABLE R-SQUARED SPACING: 0.0625
Info: NONBONDED TABLE SIZE: 705 POINTS
TCL: Setting parameter alchLambda2 to 1.0
Info: NONBONDED TABLE R-SQUARED SPACING: 0.0625
Info: NONBONDED TABLE SIZE: 705 POINTS
TCL: Running for 1500000 steps
ETITLE: TS BOND ANGLE DIHED IMPRP ELECT VDW BOUNDARY MISC KINETIC TOTAL TEMP POTENTIAL TOTALAVG TEMPAVG PRESSURE GPRESSURE VOLUME PRESSAVG GPRESSAVG
ENERGY: 0 5.2901 2.2367 5.9570 0.0000 -10709.8784 1450.1245 0.0000 0.0000 1753.6348 -7492.6353 296.7280 -9246.2701 -7492.6353 296.7280 187.5991 264.3921 30907.5471 187.5991 264.3921
ENERGY: 300000 8.9770 5.4943 7.4521 0.0000 -10787.8639 1487.9237 0.0000 0.0000 1743.8851 -7534.1317 295.0783 -9278.0168 -7505.6767 297.9591 52.7187 35.2644 30679.2579 -93.0226 -54.7153
ENERGY: 600000 8.9017 7.9431 10.4645 0.0000 -10905.0310 1554.8073 0.0000 0.0000 1815.1183 -7507.7961 307.1315 -9322.9144 -7504.5779 299.2420 769.9461 889.7619 29833.8162 109.5026 169.0043
ENERGY: 900000 3.5830 4.5170 8.7631 0.0000 -10644.9774 1412.5226 0.0000 0.0000 1805.2420 -7410.3496 305.4604 -9215.5916 -7477.4577 300.6667 -433.8728 -320.4387 30922.9599 105.6626 182.8402
ENERGY: 1200000 3.5451 7.1815 8.0688 0.0000 -10867.9087 1538.4334 0.0000 0.0000 1764.9221 -7545.7579 298.6379 -9310.6800 -7479.5851 301.4391 561.8314 581.4929 30620.4679 184.3673 259.4469
ENERGY: 1500000 5.1110 9.9009 10.1829 0.0000 -10666.5792 1382.5325 0.0000 0.0000 1742.6330 -7516.2187 294.8665 -9258.8518 -7483.7183 300.1651 -558.9334 -456.9758 30475.1658 153.9836 232.6544
TCL: Exiting due to exit command.
