Info: SIMULATION PARAMETERS:
Info: TIMESTEP               2
Info: NUMBER OF STEPS        0
Info: STEPS PER CYCLE        10
Info: PERIODIC CELL BASIS 1  31.5188 0 0
Info: PERIODIC CELL BASIS 2  0 29.3312 0
Info: PERIODIC CELL BASIS 3  0 0 32.1274
Info: PERIODIC CELL CENTER   0 0 0
Info: WRAPPING WATERS AROUND PERIODIC BOUNDARIES ON OUTPUT.
Info: WRAPPING ALL CLUSTERS AROUND PERIODIC BOUNDARIES ON OUTPUT.
Info: FIRST LDB TIMESTEP     50
Info: LAST LDB TIMESTEP     -1
Info: HOM BACKGROUND SCALING 1
Info: PME BACKGROUND SCALING 1
Info: MIN ATOMS PER PATCH    40
Info: EMPTY PATCH LOAD       40 ATOMS
Info: VELOCITY FILE          mobley_9740891_equil.vel
Info: CENTER OF MASS MOVING INITIALLY? NO
Info: DIELECTRIC             1
Info: EXCLUDE                SCALED ONE-FOUR
Info: 1-4 ELECTROSTATICS SCALED BY 0.833333
Info: MODIFIED 1-4 VDW PARAMETERS WILL BE USED
Info: DCD FILENAME           mobley_9740891_prod.dcd
Info: DCD FREQUENCY          100000
Info: DCD FIRST STEP         100000
Info: DCD FILE WILL CONTAIN UNIT CELL DATA
Info: XST FILENAME           mobley_9740891_prod.xst
Info: XST FREQUENCY          100000
Info: NO VELOCITY DCD OUTPUT
Info: NO FORCE DCD OUTPUT
Info: OUTPUT FILENAME        mobley_9740891_prod
Info: BINARY OUTPUT FILES WILL BE USED
Info: RESTART FILENAME       mobley_9740891_prod.restart
Info: RESTART FREQUENCY      100000
Info: BINARY RESTART FILES WILL BE USED
Info: CUTOFF                 9
Info: PAIRLIST DISTANCE      11
Info: PAIRLIST SHRINK RATE   0.01
Info: PAIRLIST GROW RATE     0.01
Info: PAIRLIST TRIGGER       0.3
Info: PAIRLISTS PER CYCLE    2
Info: PAIRLISTS ENABLED
Info: MARGIN                 2
Info: HYDROGEN GROUP CUTOFF  2.5
Info: PATCH DIMENSION        15.5
Info: ENERGY OUTPUT STEPS    100000
Info: ENERGY EVALUATION STEPS    100000
Info: OUTPUT ENERGY PRECISION 4
Info: CROSSTERM ENERGY INCLUDED IN DIHEDRAL
Info: TIMING OUTPUT STEPS    1000000
Info: PRESSURE OUTPUT STEPS  100000
Info: ALCHEMICAL FEP ON
Info: FEP CURRENT LAMBDA VALUE     0
Info: FEP COMPARISON LAMBDA VALUE  0.05
Info: FEP INTRA-ALCHEMICAL NON-BONDED INTERACTIONS WILL BE RETAINED
Info: FEP INTRA-ALCHEMICAL BONDED INTERACTIONS WILL BE RETAINED
Info: FEP VDW SHIFTING COEFFICIENT 5
Info: FEP ELEC. ACTIVE FOR ANNIHILATED PARTICLES BETWEEN LAMBDA = 0 AND LAMBDA = 0.5
Info: FEP ELEC. ACTIVE FOR EXNIHILATED PARTICLES BETWEEN LAMBDA = 0.5 AND LAMBDA = 1
Info: FEP VDW ACTIVE FOR ANNIHILATED PARTICLES BETWEEN LAMBDA = 0 AND LAMBDA = 1
Info: FEP VDW ACTIVE FOR EXNIHILATED PARTICLES BETWEEN LAMBDA = 0 AND LAMBDA = 1
Info: FEP BOND ACTIVE FOR ANNIHILATED PARTICLES BETWEEN LAMBDA = 1 AND LAMBDA = 1
Info: FEP BOND ACTIVE FOR EXNIHILATED PARTICLES BETWEEN LAMBDA = 0 AND LAMBDA = 0
Info: LANGEVIN DYNAMICS ACTIVE
Info: LANGEVIN TEMPERATURE   300
Info: LANGEVIN USING BBK INTEGRATOR
Info: LANGEVIN DAMPING COEFFICIENT IS 1 INVERSE PS
Info: LANGEVIN DYNAMICS APPLIED TO HYDROGENS
Info: LANGEVIN PISTON PRESSURE CONTROL ACTIVE
Info:        TARGET PRESSURE IS 1.01325 BAR
Info:     OSCILLATION PERIOD IS 50 FS
Info:             DECAY TIME IS 25 FS
Info:     PISTON TEMPERATURE IS 300 K
Info:       PRESSURE CONTROL IS GROUP-BASED
Info:    INITIAL STRAIN RATE IS -0.000230009 -0.000230009 -0.000230009
Info:       CELL FLUCTUATION IS ISOTROPIC
Info: PARTICLE MESH EWALD (PME) ACTIVE
Info: PME TOLERANCE               1e-06
Info: PME EWALD COEFFICIENT       0.348832
Info: PME INTERPOLATION ORDER     4
Info: PME GRID DIMENSIONS         32 32 36
Info: PME MAXIMUM GRID SPACING    1
Info: PME CALCULATION WILL BE PERFORMED ON GPU
Info: FULL ELECTROSTATIC EVALUATION FREQUENCY      2
Info: USING VERLET I (r-RESPA) MTS SCHEME.
Info: C1 SPLITTING OF LONG RANGE ELECTROSTATICS
Info: PLACING ATOMS IN PATCHES BY HYDROGEN GROUPS
Info: RIGID BONDS TO HYDROGEN : ALL
Info:         ERROR TOLERANCE : 1e-08
Info:          MAX ITERATIONS : 100
Info: RIGID WATER USING SETTLE ALGORITHM
Info: RANDOM NUMBER SEED     1743556992
Info: USE HYDROGEN BONDS?    NO
Info: Using AMBER format force field!
Info: AMBER PARM FILE        mobley_9740891.prmtop
Info: COORDINATE PDB         mobley_9740891.pdb
Info: Exclusions will be read from PARM file!
Info: SCNB (VDW SCALING)     2
Info: USING ARITHMETIC MEAN TO COMBINE L-J SIGMA PARAMETERS
Info: BINARY COORDINATES     mobley_9740891_equil.coor
Info: SUMMARY OF PARAMETERS:
Info: 7 BONDS
Info: 5 ANGLES
Info:   5 HARMONIC
Info:   0 COSINE-BASED
Info: 3 DIHEDRAL
Info: 0 IMPROPER
Info: 0 CROSSTERM
Info: 0 VDW
Info: 28 VDW_PAIRS
Info: 0 NBTHOLE_PAIRS
Info: To read alchdata from file: mobley_9740891.pdb
Info: To read alchflag data from column: 5
Info: STRUCTURE SUMMARY:
Info: 2914 ATOMS
Info: 2914 BONDS
Info: 19 ANGLES
Info: 32 DIHEDRALS
Info: 0 IMPROPERS
Info: 0 CROSSTERMS
Info: 2956 EXCLUSIONS
Info: 2904 RIGID BONDS
Info: ALCH: 0 ATOMS TO DISAPPEAR IN FINAL STATE
Info: ALCH: 13 ATOMS TO APPEAR IN FINAL STATE
Info: 5838 DEGREES OF FREEDOM
Info: 977 HYDROGEN GROUPS
Info: 3 ATOMS IN LARGEST HYDROGEN GROUP
Info: 977 MIGRATION GROUPS
Info: 3 ATOMS IN LARGEST MIGRATION GROUP
Info: TOTAL MASS = 17593.5 amu
Info: TOTAL CHARGE = 9.99942e-05 e
Info: MASS DENSITY = 0.98364 g/cm^3
Info: ATOM DENSITY = 0.0981104 atoms/A^3
Info: ADDED 0 IMPLICIT EXCLUSIONS
Info: NONBONDED TABLE R-SQUARED SPACING: 0.0625
Info: NONBONDED TABLE SIZE: 705 POINTS
Info: REMOVING COM VELOCITY -0.0923158 0.228037 0.128718
Info: Use 3D box decompostion in PME FFT.
Info: Updated CUDA force table with 4096 elements.
Info: Updated CUDA LJ table with 7 x 7 elements.
Info: Found 16 unique exclusion lists needing 32 bytes
TCL: Running for 1500000 steps
ETITLE: TS BOND ANGLE DIHED IMPRP ELECT VDW BOUNDARY MISC KINETIC TOTAL TEMP POTENTIAL TOTALAVG TEMPAVG PRESSURE GPRESSURE VOLUME PRESSAVG GPRESSAVG
ENERGY: 0 2.8018 5.1519 2.1735 0.0000 -10584.5419 1395.7233 0.0000 0.0000 1769.1410 -7409.5504 304.9922 -9178.6913 -7409.5504 304.9922 -299.9972 -216.4942 29701.2421 -299.9972 -216.4942
ENERGY: 300000 6.5257 1.5571 0.7322 0.0000 -10567.4361 1450.1860 0.0000 0.0000 1784.3365 -7324.0986 307.6118 -9108.4351 -7340.6024 302.6873 175.4409 206.4383 29977.9426 -84.3379 -13.1450
ENERGY: 600000 3.9704 2.4263 2.1431 0.0000 -10687.5358 1466.2791 0.0000 0.0000 1716.8523 -7495.8646 295.9779 -9212.7169 -7373.6710 298.5894 339.6041 423.7603 29524.3118 -143.5512 -83.3084
ENERGY: 900000 3.0524 4.4845 1.5471 0.0000 -10679.3150 1511.9549 0.0000 0.0000 1760.9329 -7397.3432 303.5772 -9158.2760 -7378.1606 299.3069 676.6419 812.8533 29313.2953 -86.6149 -12.5890
ENERGY: 1200000 5.6022 5.1901 2.7009 0.0000 -10470.1336 1368.8345 0.0000 0.0000 1691.2322 -7396.5738 291.5611 -9087.8059 -7377.3037 299.2240 -133.4851 -113.4025 29684.9142 -199.8194 -134.1871
ENERGY: 1500000 3.2067 2.8971 1.2271 0.0000 -10599.7756 1437.4331 0.0000 0.0000 1771.4537 -7383.5579 305.3909 -9155.0116 -7382.9747 299.9214 -259.5039 -95.3256 30129.9425 -148.2862 -73.3805
TCL: Running FEP window   2: Lambda1 0.05   Lambda2 0.1    [dLambda 0.05  ]
TCL: Setting parameter firsttimestep to 0
TCL: Setting parameter alchLambda to 0.05
Info: NONBONDED TABLE R-SQUARED SPACING: 0.0625
Info: NONBONDED TABLE SIZE: 705 POINTS
TCL: Setting parameter alchLambda2 to 0.1
Info: NONBONDED TABLE R-SQUARED SPACING: 0.0625
Info: NONBONDED TABLE SIZE: 705 POINTS
TCL: Running for 1500000 steps
ETITLE: TS BOND ANGLE DIHED IMPRP ELECT VDW BOUNDARY MISC KINETIC TOTAL TEMP POTENTIAL TOTALAVG TEMPAVG PRESSURE GPRESSURE VOLUME PRESSAVG GPRESSAVG
ENERGY: 0 3.2067 2.8971 1.2271 0.0000 -10599.7763 1439.0282 0.0000 0.0000 1770.5728 -7382.8443 305.2390 -9153.4172 -7382.8443 305.2390 -184.8595 -90.2135 30129.9425 -184.8595 -90.2135
ENERGY: 300000 1.2484 2.3706 2.2720 0.0000 -10414.2965 1416.2510 0.0000 0.0000 1749.5427 -7242.6118 301.6136 -8992.1545 -7293.5234 306.4849 230.0123 307.4906 30356.0851 -2.6019 70.6760
ENERGY: 600000 3.7089 3.4092 1.8875 0.0000 -10500.4033 1392.3034 0.0000 0.0000 1735.0523 -7364.0420 299.1155 -9099.0942 -7320.4217 304.5985 -151.0080 -53.4184 29840.6327 -81.7825 -15.6815
ENERGY: 900000 3.1341 2.0118 2.7728 0.0000 -10532.6159 1406.2541 0.0000 0.0000 1741.5847 -7376.8584 300.2416 -9118.4430 -7336.8085 303.9624 -229.2565 -192.6466 30102.4565 -133.9774 -70.2885
ENERGY: 1200000 7.1041 2.7607 1.5895 0.0000 -10691.7172 1499.0884 0.0000 0.0000 1719.2467 -7461.9277 296.3906 -9181.1744 -7356.1561 301.9215 380.6446 432.3669 29740.8919 -41.5822 21.0949
ENERGY: 1500000 4.9079 2.0062 1.9109 0.0000 -10566.3907 1438.3690 0.0000 0.0000 1697.8482 -7421.3484 292.7016 -9119.1966 -7366.1561 300.7203 88.0338 104.5376 30054.2443 34.0120 95.0507
TCL: Running FEP window   3: Lambda1 0.1    Lambda2 0.15000000000000002 [dLambda 0.05000000000000002]
TCL: Setting parameter firsttimestep to 0
TCL: Setting parameter alchLambda to 0.1
Info: NONBONDED TABLE R-SQUARED SPACING: 0.0625
Info: NONBONDED TABLE SIZE: 705 POINTS
TCL: Setting parameter alchLambda2 to 0.15000000000000002
Info: NONBONDED TABLE R-SQUARED SPACING: 0.0625
Info: NONBONDED TABLE SIZE: 705 POINTS
TCL: Running for 1500000 steps
ETITLE: TS BOND ANGLE DIHED IMPRP ELECT VDW BOUNDARY MISC KINETIC TOTAL TEMP POTENTIAL TOTALAVG TEMPAVG PRESSURE GPRESSURE VOLUME PRESSAVG GPRESSAVG
ENERGY: 0 4.9079 2.0062 1.9109 0.0000 -10566.3907 1440.2719 0.0000 0.0000 1696.9674 -7420.3263 292.5498 -9117.2937 -7420.3263 292.5498 31.4192 112.9595 30054.2443 31.4192 112.9595
ENERGY: 300000 2.8574 3.4434 2.0773 0.0000 -10610.0778 1446.1382 0.0000 0.0000 1736.2356 -7419.3258 299.3195 -9155.5614 -7419.2644 294.1318 257.5670 352.8941 29882.7255 -304.2034 -192.6213
ENERGY: 600000 2.0126 2.9428 2.8502 0.0000 -10597.9731 1463.5819 0.0000 0.0000 1736.4208 -7390.1648 299.3514 -9126.5856 -7420.0426 297.4081 188.6182 287.0467 29850.3025 -170.4387 -68.6899
ENERGY: 900000 2.4857 5.0757 1.5098 0.0000 -10603.5982 1481.2302 0.0000 0.0000 1713.3212 -7399.9756 295.3691 -9113.2968 -7411.9185 298.0800 608.2154 616.9876 29636.4446 -89.1361 -9.2676
ENERGY: 1200000 2.2544 2.2176 2.0596 0.0000 -10469.2331 1390.9923 0.0000 0.0000 1725.1393 -7346.5700 297.4065 -9071.7093 -7412.2002 297.3884 141.4553 180.2936 29784.8984 -99.1831 -26.1012
ENERGY: 1500000 1.6474 1.2057 4.1981 0.0000 -10517.1753 1379.8171 0.0000 0.0000 1729.0337 -7401.2733 298.0779 -9130.3070 -7410.4359 297.9471 -406.8107 -354.7386 30295.4460 -175.2375 -106.7560
TCL: Running FEP window   4: Lambda1 0.15000000000000002 Lambda2 0.2    [dLambda 0.04999999999999999]
TCL: Setting parameter firsttimestep to 0
TCL: Setting parameter alchLambda to 0.15000000000000002
Info: NONBONDED TABLE R-SQUARED SPACING: 0.0625
Info: NONBONDED TABLE SIZE: 705 POINTS
TCL: Setting parameter alchLambda2 to 0.2
Info: NONBONDED TABLE R-SQUARED SPACING: 0.0625
Info: NONBONDED TABLE SIZE: 705 POINTS
TCL: Running for 1500000 steps
ETITLE: TS BOND ANGLE DIHED IMPRP ELECT VDW BOUNDARY MISC KINETIC TOTAL TEMP POTENTIAL TOTALAVG TEMPAVG PRESSURE GPRESSURE VOLUME PRESSAVG GPRESSAVG
ENERGY: 0 1.6474 1.2057 4.1981 0.0000 -10517.1737 1381.1280 0.0000 0.0000 1728.1832 -7400.8112 297.9313 -9128.9944 -7400.8112 297.9313 -413.1031 -347.3048 30295.4460 -413.1031 -347.3048
ENERGY: 300000 5.7635 1.6988 2.8243 0.0000 -10412.0422 1383.7943 0.0000 0.0000 1742.7483 -7275.2130 300.4422 -9017.9613 -7370.4747 297.6945 -125.9372 -98.0000 30376.3535 60.6982 96.5059
ENERGY: 600000 2.4871 1.3638 2.3282 0.0000 -10565.7302 1396.2903 0.0000 0.0000 1737.8820 -7425.3788 299.6033 -9163.2608 -7361.2477 301.3348 -326.2894 -288.5058 29622.2941 -148.2874 -103.6602
ENERGY: 900000 1.4842 4.2817 4.1838 0.0000 -10513.8737 1485.2892 0.0000 0.0000 1709.0814 -7309.5535 294.6382 -9018.6349 -7365.0674 300.2705 771.9176 804.6989 29950.5824 -70.2994 -20.8377
ENERGY: 1200000 3.5911 3.6461 4.9396 0.0000 -10474.2697 1374.6533 0.0000 0.0000 1713.6030 -7373.8365 295.4177 -9087.4395 -7370.4565 300.0867 -520.0895 -450.4837 30181.6135 -189.8907 -135.3352
ENERGY: 1500000 1.6011 1.8243 2.6872 0.0000 -10407.1393 1293.9555 0.0000 0.0000 1733.5457 -7373.5255 298.8557 -9107.0712 -7377.1008 299.5440 -963.6832 -979.5465 30000.9574 -249.0450 -197.2458
TCL: Running FEP window   5: Lambda1 0.2    Lambda2 0.25   [dLambda 0.04999999999999999]
TCL: Setting parameter firsttimestep to 0
TCL: Setting parameter alchLambda to 0.2
Info: NONBONDED TABLE R-SQUARED SPACING: 0.0625
Info: NONBONDED TABLE SIZE: 705 POINTS
TCL: Setting parameter alchLambda2 to 0.25
Info: NONBONDED TABLE R-SQUARED SPACING: 0.0625
Info: NONBONDED TABLE SIZE: 705 POINTS
TCL: Running for 1500000 steps
ETITLE: TS BOND ANGLE DIHED IMPRP ELECT VDW BOUNDARY MISC KINETIC TOTAL TEMP POTENTIAL TOTALAVG TEMPAVG PRESSURE GPRESSURE VOLUME PRESSAVG GPRESSAVG
ENERGY: 0 1.6011 1.8243 2.6872 0.0000 -10407.1395 1294.1824 0.0000 0.0000 1732.6912 -7374.1532 298.7084 -9106.8444 -7374.1532 298.7084 -1064.5039 -975.0085 30000.9574 -1064.5039 -975.0085
ENERGY: 300000 3.7978 3.6116 4.6974 0.0000 -10506.4087 1402.8189 0.0000 0.0000 1707.7957 -7383.6873 294.4166 -9091.4831 -7399.8852 299.7807 -63.7190 -57.4799 29990.7105 -429.9817 -383.8994
ENERGY: 600000 4.3807 4.5866 8.8549 0.0000 -10557.5600 1444.2163 0.0000 0.0000 1725.3081 -7370.2133 297.4356 -9095.5214 -7387.9688 300.4833 314.9654 273.0174 30110.3101 -219.4266 -163.1876
ENERGY: 900000 6.8160 1.8780 2.5034 0.0000 -10536.1517 1365.6031 0.0000 0.0000 1754.1745 -7405.1767 302.4120 -9159.3512 -7389.4961 300.6009 -466.0387 -482.0822 29624.9310 -188.0432 -137.6868
ENERGY: 1200000 4.5282 3.0729 3.0983 0.0000 -10524.1648 1445.4510 0.0000 0.0000 1800.8923 -7267.1221 310.4660 -9068.0144 -7381.2979 301.0617 288.3926 339.4504 29957.3524 -44.9119 11.4031
ENERGY: 1500000 3.4901 6.9313 5.0092 0.0000 -10517.7233 1404.6675 0.0000 0.0000 1778.2460 -7319.3792 306.5619 -9097.6252 -7367.6979 301.6938 -111.3381 -57.9319 30188.0620 17.0250 71.0035
TCL: Running FEP window   6: Lambda1 0.25   Lambda2 0.3    [dLambda 0.04999999999999999]
TCL: Setting parameter firsttimestep to 0
TCL: Setting parameter alchLambda to 0.25
Info: NONBONDED TABLE R-SQUARED SPACING: 0.0625
Info: NONBONDED TABLE SIZE: 705 POINTS
TCL: Setting parameter alchLambda2 to 0.3
Info: NONBONDED TABLE R-SQUARED SPACING: 0.0625
Info: NONBONDED TABLE SIZE: 705 POINTS
TCL: Running for 1500000 steps
ETITLE: TS BOND ANGLE DIHED IMPRP ELECT VDW BOUNDARY MISC KINETIC TOTAL TEMP POTENTIAL TOTALAVG TEMPAVG PRESSURE GPRESSURE VOLUME PRESSAVG GPRESSAVG
ENERGY: 0 3.4901 6.9313 5.0092 0.0000 -10517.7225 1404.4548 0.0000 0.0000 1777.3569 -7320.4802 306.4086 -9097.8371 -7320.4802 306.4086 -134.6658 -54.2553 30188.0620 -134.6658 -54.2553
ENERGY: 300000 6.9401 3.3075 3.8836 0.0000 -10528.0729 1386.4967 0.0000 0.0000 1785.9147 -7341.5303 307.8839 -9127.4450 -7369.9034 305.1014 -741.8962 -599.4913 30586.8384 -87.0211 4.6738
ENERGY: 600000 3.8321 2.5850 3.1939 0.0000 -10537.7503 1415.3863 0.0000 0.0000 1782.3682 -7330.3849 307.2725 -9112.7530 -7375.5212 304.1956 158.4388 213.4207 29717.2948 -40.7160 34.4242
ENERGY: 900000 5.4097 2.0227 1.7536 0.0000 -10524.1377 1401.2084 0.0000 0.0000 1710.7574 -7402.9859 294.9271 -9113.7433 -7372.2170 302.7790 -378.8363 -312.0316 30204.5004 -44.6992 25.0893
ENERGY: 1200000 4.0609 5.6026 2.0941 0.0000 -10522.6652 1438.5284 0.0000 0.0000 1728.4295 -7343.9497 297.9737 -9072.3791 -7374.4956 302.7323 66.4139 128.8091 29810.8153 56.7659 112.9788
ENERGY: 1500000 2.6691 4.0554 1.8444 0.0000 -10676.1821 1542.7424 0.0000 0.0000 1742.4129 -7382.4579 300.3844 -9124.8708 -7379.1339 301.6565 886.3140 957.6155 29930.1557 80.9551 139.1098
TCL: Running FEP window   7: Lambda1 0.3    Lambda2 0.35   [dLambda 0.04999999999999999]
TCL: Setting parameter firsttimestep to 0
TCL: Setting parameter alchLambda to 0.3
Info: NONBONDED TABLE R-SQUARED SPACING: 0.0625
Info: NONBONDED TABLE SIZE: 705 POINTS
TCL: Setting parameter alchLambda2 to 0.35
Info: NONBONDED TABLE R-SQUARED SPACING: 0.0625
Info: NONBONDED TABLE SIZE: 705 POINTS
TCL: Running for 1500000 steps
ETITLE: TS BOND ANGLE DIHED IMPRP ELECT VDW BOUNDARY MISC KINETIC TOTAL TEMP POTENTIAL TOTALAVG TEMPAVG PRESSURE GPRESSURE VOLUME PRESSAVG GPRESSAVG
ENERGY: 0 2.6691 4.0554 1.8444 0.0000 -10676.1825 1545.0774 0.0000 0.0000 1741.5542 -7380.9820 300.2364 -9122.5362 -7380.9820 300.2364 902.4034 973.2952 29930.1557 902.4034 973.2952
ENERGY: 300000 1.7044 6.0526 3.7623 0.0000 -10457.0418 1392.3643 0.0000 0.0000 1780.5415 -7272.6167 306.9576 -9053.1582 -7393.6363 297.1347 -35.5353 56.0984 30143.8495 414.8313 499.4757
ENERGY: 600000 1.5359 2.2987 2.5695 0.0000 -10573.5538 1448.9212 0.0000 0.0000 1709.5039 -7408.7247 294.7110 -9118.2286 -7380.5498 298.1011 460.3851 487.4302 29551.7536 216.8505 298.7750
ENERGY: 900000 7.7541 2.7428 1.9089 0.0000 -10651.9145 1503.0775 0.0000 0.0000 1723.0135 -7413.4177 297.0400 -9136.4312 -7386.8650 297.4215 583.0297 658.4376 29742.3406 173.1570 252.1756
ENERGY: 1200000 4.9287 2.6020 2.0118 0.0000 -10668.1569 1454.3886 0.0000 0.0000 1789.2785 -7414.9473 308.4638 -9204.2258 -7393.5763 298.0756 -20.1226 76.6390 29608.4139 187.1107 266.4495
ENERGY: 1500000 2.6998 3.2876 7.5549 0.0000 -10387.3363 1293.8668 0.0000 0.0000 1692.2326 -7387.6944 291.7335 -9079.9270 -7391.3131 298.1037 -1141.3256 -1083.8047 30093.9649 65.3211 140.0571
TCL: Running FEP window   8: Lambda1 0.35   Lambda2 0.39999999999999997 [dLambda 0.04999999999999999]
TCL: Setting parameter firsttimestep to 0
TCL: Setting parameter alchLambda to 0.35
Info: NONBONDED TABLE R-SQUARED SPACING: 0.0625
Info: NONBONDED TABLE SIZE: 705 POINTS
TCL: Setting parameter alchLambda2 to 0.39999999999999997
Info: NONBONDED TABLE R-SQUARED SPACING: 0.0625
Info: NONBONDED TABLE SIZE: 705 POINTS
TCL: Running for 1500000 steps
ETITLE: TS BOND ANGLE DIHED IMPRP ELECT VDW BOUNDARY MISC KINETIC TOTAL TEMP POTENTIAL TOTALAVG TEMPAVG PRESSURE GPRESSURE VOLUME PRESSAVG GPRESSAVG
ENERGY: 0 2.6998 3.2876 7.5549 0.0000 -10387.3353 1293.8029 0.0000 0.0000 1691.3474 -7388.6426 291.5809 -9079.9900 -7388.6426 291.5809 -1162.6003 -1077.9323 30093.9649 -1162.6003 -1077.9323
ENERGY: 300000 2.4726 4.1377 2.1888 0.0000 -10480.6163 1420.6720 0.0000 0.0000 1710.1711 -7340.9741 294.8261 -9051.1452 -7392.3324 294.2586 125.5566 212.4309 29965.2790 -513.7788 -451.1703
ENERGY: 600000 1.2025 4.7051 1.8471 0.0000 -10613.9377 1489.8244 0.0000 0.0000 1777.2577 -7339.1008 306.3915 -9116.3585 -7378.5021 298.8378 785.5767 775.3589 29490.8850 -52.0186 -15.9025
ENERGY: 900000 4.9777 3.0750 1.9662 0.0000 -10335.8568 1355.9906 0.0000 0.0000 1734.6383 -7235.2090 299.0441 -8969.8473 -7367.4712 298.7664 -11.1996 10.2359 30336.2785 -207.9095 -166.0937
ENERGY: 1200000 3.7451 1.4857 4.6734 0.0000 -10531.1757 1397.5512 0.0000 0.0000 1732.1166 -7391.6038 298.6094 -9123.7204 -7373.3484 297.7807 -145.7110 -93.4699 29876.6542 -133.0231 -93.0988
ENERGY: 1500000 2.9359 4.9800 2.7716 0.0000 -10704.9069 1539.0141 0.0000 0.0000 1763.3015 -7391.9039 303.9855 -9155.2054 -7374.6559 299.3259 779.9837 829.5328 29858.0289 -20.9848 23.5775
TCL: Running FEP window   9: Lambda1 0.39999999999999997 Lambda2 0.44999999999999996 [dLambda 0.04999999999999999]
TCL: Setting parameter firsttimestep to 0
TCL: Setting parameter alchLambda to 0.39999999999999997
Info: NONBONDED TABLE R-SQUARED SPACING: 0.0625
Info: NONBONDED TABLE SIZE: 705 POINTS
TCL: Setting parameter alchLambda2 to 0.44999999999999996
Info: NONBONDED TABLE R-SQUARED SPACING: 0.0625
Info: NONBONDED TABLE SIZE: 705 POINTS
TCL: Running for 1500000 steps
ETITLE: TS BOND ANGLE DIHED IMPRP ELECT VDW BOUNDARY MISC KINETIC TOTAL TEMP POTENTIAL TOTALAVG TEMPAVG PRESSURE GPRESSURE VOLUME PRESSAVG GPRESSAVG
ENERGY: 0 2.9359 4.9800 2.7716 0.0000 -10704.9070 1538.5072 0.0000 0.0000 1762.4372 -7393.2752 303.8365 -9155.7124 -7393.2752 303.8365 743.1988 831.0775 29858.0289 743.1988 831.0775
ENERGY: 300000 3.3490 3.5382 4.7353 0.0000 -10517.9771 1408.8128 0.0000 0.0000 1694.3057 -7403.2360 292.0909 -9097.5417 -7402.3204 297.3039 2.6608 36.5440 29873.3680 232.8850 299.3827
ENERGY: 600000 5.2797 1.8468 1.6128 0.0000 -10453.3827 1369.1293 0.0000 0.0000 1737.3309 -7338.1832 299.5083 -9075.5141 -7373.9243 299.7802 -222.2343 -137.9025 29739.4600 54.7097 128.1047
ENERGY: 900000 1.9079 4.4618 3.9083 0.0000 -10712.9029 1477.3476 0.0000 0.0000 1743.1536 -7482.1237 300.5121 -9225.2773 -7381.7356 300.1538 175.5144 228.7488 29730.3713 27.9429 87.1522
ENERGY: 1200000 1.7585 2.4506 4.1847 0.0000 -10570.5595 1498.0681 0.0000 0.0000 1719.9872 -7344.1103 296.5183 -9064.0975 -7375.3467 299.6820 789.2130 838.0691 30094.0631 32.3110 94.9374
ENERGY: 1500000 4.6634 2.6536 3.7483 0.0000 -10520.3127 1330.8327 0.0000 0.0000 1761.1234 -7417.2913 303.6100 -9178.4147 -7382.0678 299.6995 -867.5415 -807.1927 29813.7445 -70.0436 -7.7040
TCL: Running FEP window  10: Lambda1 0.44999999999999996 Lambda2 0.49999999999999994 [dLambda 0.04999999999999999]
TCL: Setting parameter firsttimestep to 0
TCL: Setting parameter alchLambda to 0.44999999999999996
Info: NONBONDED TABLE R-SQUARED SPACING: 0.0625
Info: NONBONDED TABLE SIZE: 705 POINTS
TCL: Setting parameter alchLambda2 to 0.49999999999999994
Info: NONBONDED TABLE R-SQUARED SPACING: 0.0625
Info: NONBONDED TABLE SIZE: 705 POINTS
TCL: Running for 1500000 steps
ETITLE: TS BOND ANGLE DIHED IMPRP ELECT VDW BOUNDARY MISC KINETIC TOTAL TEMP POTENTIAL TOTALAVG TEMPAVG PRESSURE GPRESSURE VOLUME PRESSAVG GPRESSAVG
ENERGY: 0 4.6634 2.6536 3.7483 0.0000 -10520.3128 1330.3376 0.0000 0.0000 1760.2637 -7418.6462 303.4618 -9178.9099 -7418.6462 303.4618 -889.7024 -803.4485 29813.7445 -889.7024 -803.4485
ENERGY: 300000 6.5092 4.7059 3.8324 0.0000 -10510.5665 1408.1991 0.0000 0.0000 1750.8446 -7336.4754 301.8380 -9087.3200 -7394.4646 298.0394 203.5726 297.1019 29503.2563 -237.2653 -166.5906
ENERGY: 600000 1.4490 4.3741 1.6103 0.0000 -10617.1551 1493.5697 0.0000 0.0000 1749.8336 -7366.3184 301.6637 -9116.1520 -7389.4823 301.2752 689.5884 720.0648 29810.7094 -28.1574 22.8146
ENERGY: 900000 2.2094 2.0608 2.1900 0.0000 -10576.7662 1414.6789 0.0000 0.0000 1790.7509 -7364.8762 308.7177 -9155.6271 -7370.1919 303.4351 -214.6073 -128.3056 30177.6251 -24.6795 30.9767
ENERGY: 1200000 5.8606 5.2887 1.4293 0.0000 -10611.3594 1475.3002 0.0000 0.0000 1707.7476 -7415.7330 294.4083 -9123.4806 -7365.6193 301.8199 352.1595 456.7499 29741.4615 7.6782 69.1164
ENERGY: 1500000 5.4029 4.3312 2.4543 0.0000 -10425.8477 1362.3465 0.0000 0.0000 1712.0345 -7339.2783 295.1473 -9051.3128 -7363.4481 301.4625 -380.3971 -363.5420 30244.1441 8.2303 71.4059
TCL: Running FEP window  11: Lambda1 0.49999999999999994 Lambda2 0.5499999999999999 [dLambda 0.04999999999999999]
TCL: Setting parameter firsttimestep to 0
TCL: Setting parameter alchLambda to 0.49999999999999994
Info: NONBONDED TABLE R-SQUARED SPACING: 0.0625
Info: NONBONDED TABLE SIZE: 705 POINTS
TCL: Setting parameter alchLambda2 to 0.5499999999999999
Info: NONBONDED TABLE R-SQUARED SPACING: 0.0625
Info: NONBONDED TABLE SIZE: 705 POINTS
TCL: Running for 1500000 steps
ETITLE: TS BOND ANGLE DIHED IMPRP ELECT VDW BOUNDARY MISC KINETIC TOTAL TEMP POTENTIAL TOTALAVG TEMPAVG PRESSURE GPRESSURE VOLUME PRESSAVG GPRESSAVG
ENERGY: 0 5.4029 4.3312 2.4543 0.0000 -10425.8474 1362.3550 0.0000 0.0000 1711.1778 -7340.1263 294.9996 -9051.3041 -7340.1263 294.9996 -446.6324 -356.3625 30244.1441 -446.6324 -356.3625
ENERGY: 300000 1.1951 3.4646 1.3805 0.0000 -10585.2165 1404.3720 0.0000 0.0000 1670.1064 -7504.6979 287.9191 -9174.8042 -7438.0888 294.4268 -450.2130 -339.8406 30232.7590 -313.6195 -204.1168
ENERGY: 600000 1.9310 2.4783 3.5504 0.0000 -10497.8700 1333.3509 0.0000 0.0000 1686.8379 -7469.7216 290.8035 -9156.5595 -7443.1001 294.9075 -1036.6305 -963.1810 30484.7151 -223.3106 -139.1611
ENERGY: 900000 2.7710 3.3852 2.6670 0.0000 -10671.4443 1459.8838 0.0000 0.0000 1758.8878 -7443.8495 303.2246 -9202.7373 -7433.9453 297.0626 186.4091 246.8572 29839.2988 -99.2904 -22.3416
ENERGY: 1200000 2.7479 1.1106 2.8880 0.0000 -10473.3342 1361.5912 0.0000 0.0000 1742.2502 -7362.7462 300.3563 -9104.9964 -7414.4236 298.1085 -325.6047 -263.6666 29894.6000 -116.7029 -37.5082
ENERGY: 1500000 2.1409 6.6463 1.8559 0.0000 -10670.2466 1451.9176 0.0000 0.0000 1696.5050 -7511.1808 292.4701 -9207.6858 -7418.7204 297.9746 31.8179 96.0210 29872.1014 -120.0604 -42.1135
TCL: Running FEP window  12: Lambda1 0.5499999999999999 Lambda2 0.6    [dLambda 0.050000000000000044]
TCL: Setting parameter firsttimestep to 0
TCL: Setting parameter alchLambda to 0.5499999999999999
Info: NONBONDED TABLE R-SQUARED SPACING: 0.0625
Info: NONBONDED TABLE SIZE: 705 POINTS
TCL: Setting parameter alchLambda2 to 0.6
Info: NONBONDED TABLE R-SQUARED SPACING: 0.0625
Info: NONBONDED TABLE SIZE: 705 POINTS
TCL: Running for 1500000 steps
ETITLE: TS BOND ANGLE DIHED IMPRP ELECT VDW BOUNDARY MISC KINETIC TOTAL TEMP POTENTIAL TOTALAVG TEMPAVG PRESSURE GPRESSURE VOLUME PRESSAVG GPRESSAVG
ENERGY: 0 2.1409 6.6463 1.8559 0.0000 -10670.3439 1451.6606 0.0000 0.0000 1695.6066 -7512.4336 292.3152 -9208.0402 -7512.4336 292.3152 14.7202 101.5920 29872.1014 14.7202 101.5920
ENERGY: 300000 0.5132 3.4930 1.6669 0.0000 -10587.1718 1455.4355 0.0000 0.0000 1677.8631 -7448.2002 289.2563 -9126.0633 -7447.8902 293.2860 199.7633 316.3925 29981.9166 -122.5018 -42.7524
ENERGY: 600000 3.4375 3.3806 3.8249 0.0000 -10490.3737 1409.8380 0.0000 0.0000 1704.4392 -7365.4536 293.8379 -9069.8928 -7424.9030 294.7780 -182.2263 -168.5713 30542.9418 -28.2952 47.7156
ENERGY: 900000 3.9884 3.5084 2.1902 0.0000 -10530.8009 1443.1747 0.0000 0.0000 1709.4849 -7368.4543 294.7078 -9077.9392 -7422.5757 294.9264 152.1503 263.2558 30092.0944 -41.2631 42.9693
ENERGY: 1200000 1.7192 3.5707 2.5307 0.0000 -10499.2788 1411.4667 0.0000 0.0000 1710.4588 -7369.5328 294.8757 -9079.9916 -7415.1013 294.0199 207.9999 281.7035 29686.4921 6.5763 89.3210
ENERGY: 1500000 2.0723 4.9431 2.5725 0.0000 -10576.8580 1394.0927 0.0000 0.0000 1763.5420 -7409.6354 304.0270 -9173.1775 -7412.4148 295.1225 -432.5548 -402.9258 30227.5421 -61.3246 19.9461
TCL: Running FEP window  13: Lambda1 0.6    Lambda2 0.65   [dLambda 0.050000000000000044]
TCL: Setting parameter firsttimestep to 0
TCL: Setting parameter alchLambda to 0.6
Info: NONBONDED TABLE R-SQUARED SPACING: 0.0625
Info: NONBONDED TABLE SIZE: 705 POINTS
TCL: Setting parameter alchLambda2 to 0.65
Info: NONBONDED TABLE R-SQUARED SPACING: 0.0625
Info: NONBONDED TABLE SIZE: 705 POINTS
TCL: Running for 1500000 steps
ETITLE: TS BOND ANGLE DIHED IMPRP ELECT VDW BOUNDARY MISC KINETIC TOTAL TEMP POTENTIAL TOTALAVG TEMPAVG PRESSURE GPRESSURE VOLUME PRESSAVG GPRESSAVG
ENERGY: 0 2.0723 4.9431 2.5725 0.0000 -10577.5251 1395.5530 0.0000 0.0000 1762.6693 -7409.7150 303.8765 -9172.3843 -7409.7150 303.8765 -461.6125 -380.0493 30227.5421 -461.6125 -380.0493
ENERGY: 300000 2.3062 1.3412 4.4406 0.0000 -10577.6061 1364.6192 0.0000 0.0000 1722.1212 -7482.7777 296.8862 -9204.8989 -7394.0298 296.3029 -765.2051 -732.2268 30218.1284 -280.9502 -209.9388
ENERGY: 600000 9.7163 4.9425 2.7472 0.0000 -10813.1165 1527.1612 0.0000 0.0000 1708.9067 -7559.6426 294.6081 -9268.5493 -7419.1246 296.5704 898.7449 908.6683 29142.6282 -11.5017 41.4696
ENERGY: 900000 3.0631 0.7891 0.5514 0.0000 -10684.4989 1488.1594 0.0000 0.0000 1717.9242 -7474.0117 296.1627 -9191.9359 -7424.2399 296.2005 228.5230 320.2501 29865.6732 3.3588 61.3342
ENERGY: 1200000 4.7592 5.8841 1.8287 0.0000 -10519.6286 1444.3758 0.0000 0.0000 1835.0857 -7227.6950 316.3608 -9062.7807 -7404.5156 298.4970 540.2041 534.0167 29950.6091 42.4481 96.6627
ENERGY: 1500000 4.7698 5.8929 2.0627 0.0000 -10545.9583 1456.9437 0.0000 0.0000 1714.5759 -7361.7133 295.5854 -9076.2892 -7400.0185 298.1579 410.5692 478.0437 30124.8839 73.2845 124.6449
TCL: Running FEP window  14: Lambda1 0.65   Lambda2 0.7000000000000001 [dLambda 0.050000000000000044]
TCL: Setting parameter firsttimestep to 0
TCL: Setting parameter alchLambda to 0.65
Info: NONBONDED TABLE R-SQUARED SPACING: 0.0625
Info: NONBONDED TABLE SIZE: 705 POINTS
TCL: Setting parameter alchLambda2 to 0.7000000000000001
Info: NONBONDED TABLE R-SQUARED SPACING: 0.0625
Info: NONBONDED TABLE SIZE: 705 POINTS
TCL: Running for 1500000 steps
ETITLE: TS BOND ANGLE DIHED IMPRP ELECT VDW BOUNDARY MISC KINETIC TOTAL TEMP POTENTIAL TOTALAVG TEMPAVG PRESSURE GPRESSURE VOLUME PRESSAVG GPRESSAVG
ENERGY: 0 4.7698 5.8929 2.0627 0.0000 -10546.1209 1456.2334 0.0000 0.0000 1713.7011 -7363.4609 295.4346 -9077.1621 -7363.4609 295.4346 394.4734 476.6779 30124.8839 394.4734 476.6779
ENERGY: 300000 6.1258 1.8877 1.3484 0.0000 -10580.9842 1407.7484 0.0000 0.0000 1745.0700 -7418.8040 300.8425 -9163.8740 -7363.4475 302.7914 -220.3290 -135.5034 30183.1973 73.2756 166.3487
ENERGY: 600000 3.9177 9.2838 2.7467 0.0000 -10614.3651 1399.0346 0.0000 0.0000 1761.8679 -7437.5144 303.7384 -9199.3823 -7377.9155 302.9682 -637.2491 -554.6579 29759.8084 -40.7039 22.7925
ENERGY: 900000 1.5599 3.3559 4.9694 0.0000 -10621.5739 1408.2919 0.0000 0.0000 1745.6455 -7457.7514 300.9417 -9203.3969 -7395.8842 301.7478 -169.2016 -99.6957 29956.2965 -32.1458 38.5304
ENERGY: 1200000 3.6710 2.9739 4.2458 0.0000 -10670.4674 1459.9030 0.0000 0.0000 1785.5736 -7414.1002 307.8251 -9199.6738 -7397.4993 302.0825 61.8172 83.1873 29925.3146 -44.1349 16.9793
ENERGY: 1500000 4.2872 3.9513 4.3500 0.0000 -10628.3026 1485.2857 0.0000 0.0000 1695.1389 -7435.2895 292.2346 -9130.4284 -7395.3271 301.5779 458.3325 529.5618 30040.0767 16.9559 75.1345
TCL: Running FEP window  15: Lambda1 0.7000000000000001 Lambda2 0.7500000000000001 [dLambda 0.050000000000000044]
TCL: Setting parameter firsttimestep to 0
TCL: Setting parameter alchLambda to 0.7000000000000001
Info: NONBONDED TABLE R-SQUARED SPACING: 0.0625
Info: NONBONDED TABLE SIZE: 705 POINTS
TCL: Setting parameter alchLambda2 to 0.7500000000000001
Info: NONBONDED TABLE R-SQUARED SPACING: 0.0625
Info: NONBONDED TABLE SIZE: 705 POINTS
TCL: Running for 1500000 steps
ETITLE: TS BOND ANGLE DIHED IMPRP ELECT VDW BOUNDARY MISC KINETIC TOTAL TEMP POTENTIAL TOTALAVG TEMPAVG PRESSURE GPRESSURE VOLUME PRESSAVG GPRESSAVG
ENERGY: 0 4.2872 3.9513 4.3500 0.0000 -10628.3022 1485.1426 0.0000 0.0000 1694.2614 -7436.3097 292.0833 -9130.5711 -7436.3097 292.0833 434.2873 538.5685 30040.0767 434.2873 538.5685
ENERGY: 300000 5.1425 5.4274 2.4911 0.0000 -10553.5030 1434.0533 0.0000 0.0000 1738.4922 -7367.8965 299.7085 -9106.3887 -7396.6838 297.2789 -106.2058 29.4777 29951.1933 -26.0200 48.1713
ENERGY: 600000 4.6917 2.1943 2.7695 0.0000 -10600.1321 1427.8309 0.0000 0.0000 1746.6824 -7415.9634 301.1204 -9162.6458 -7392.9216 299.4879 -278.1324 -246.3738 30294.5532 75.9252 127.7165
ENERGY: 900000 3.8533 2.5214 1.8549 0.0000 -10493.4074 1333.4301 0.0000 0.0000 1732.1703 -7419.5773 298.6186 -9151.7476 -7385.1397 301.8005 -877.3428 -811.5953 30373.2204 -85.0282 -25.4806
ENERGY: 1200000 2.2219 4.2348 1.9221 0.0000 -10619.1317 1428.0549 0.0000 0.0000 1775.9320 -7406.7659 306.1629 -9182.6979 -7388.0537 301.8698 71.7628 147.4423 29750.2104 -56.9432 -2.5874
ENERGY: 1500000 2.8361 0.8950 2.6729 0.0000 -10580.6364 1446.0037 0.0000 0.0000 1758.3084 -7369.9202 303.1247 -9128.2286 -7387.3061 302.1797 568.6523 574.0491 29546.9153 -38.6813 21.2541
TCL: Running FEP window  16: Lambda1 0.7500000000000001 Lambda2 0.8000000000000002 [dLambda 0.050000000000000044]
TCL: Setting parameter firsttimestep to 0
TCL: Setting parameter alchLambda to 0.7500000000000001
Info: NONBONDED TABLE R-SQUARED SPACING: 0.0625
Info: NONBONDED TABLE SIZE: 705 POINTS
TCL: Setting parameter alchLambda2 to 0.8000000000000002
Info: NONBONDED TABLE R-SQUARED SPACING: 0.0625
Info: NONBONDED TABLE SIZE: 705 POINTS
TCL: Running for 1500000 steps
ETITLE: TS BOND ANGLE DIHED IMPRP ELECT VDW BOUNDARY MISC KINETIC TOTAL TEMP POTENTIAL TOTALAVG TEMPAVG PRESSURE GPRESSURE VOLUME PRESSAVG GPRESSAVG
ENERGY: 0 2.8361 0.8950 2.6730 0.0000 -10581.4216 1446.0498 0.0000 0.0000 1757.4346 -7371.5331 302.9741 -9128.9677 -7371.5331 302.9741 525.3535 585.2441 29546.9153 525.3535 585.2441
ENERGY: 300000 5.9699 5.6494 1.2243 0.0000 -10434.9655 1348.9887 0.0000 0.0000 1793.5513 -7279.5820 309.2004 -9073.1333 -7316.9169 302.4143 -446.1140 -341.5893 30306.3206 294.9254 368.8898
ENERGY: 600000 3.2465 7.8373 3.3780 0.0000 -10527.5829 1425.1288 0.0000 0.0000 1760.5902 -7327.4020 303.5181 -9087.9922 -7354.4852 300.1206 354.9382 412.3907 30069.5465 23.0632 101.0628
ENERGY: 900000 1.4321 3.1595 3.7051 0.0000 -10512.0722 1378.7465 0.0000 0.0000 1772.5802 -7352.4488 305.5851 -9125.0290 -7362.5660 301.1090 -268.0980 -201.7364 30052.7010 -7.1229 63.1168
ENERGY: 1200000 5.4647 6.1845 1.6767 0.0000 -10597.3349 1492.4809 0.0000 0.0000 1806.5640 -7284.9640 311.4438 -9091.5281 -7364.3771 300.6794 758.5511 803.3048 29813.4226 -2.6269 60.0011
ENERGY: 1500000 1.8384 3.8796 4.2721 0.0000 -10475.2763 1413.8729 0.0000 0.0000 1675.1418 -7376.2717 288.7871 -9051.4135 -7369.0381 299.6707 346.3348 409.2022 30028.8769 63.9593 129.3751
TCL: Running FEP window  17: Lambda1 0.8000000000000002 Lambda2 0.8500000000000002 [dLambda 0.050000000000000044]
TCL: Setting parameter firsttimestep to 0
TCL: Setting parameter alchLambda to 0.8000000000000002
Info: NONBONDED TABLE R-SQUARED SPACING: 0.0625
Info: NONBONDED TABLE SIZE: 705 POINTS
TCL: Setting parameter alchLambda2 to 0.8500000000000002
Info: NONBONDED TABLE R-SQUARED SPACING: 0.0625
Info: NONBONDED TABLE SIZE: 705 POINTS
TCL: Running for 1500000 steps
ETITLE: TS BOND ANGLE DIHED IMPRP ELECT VDW BOUNDARY MISC KINETIC TOTAL TEMP POTENTIAL TOTALAVG TEMPAVG PRESSURE GPRESSURE VOLUME PRESSAVG GPRESSAVG
ENERGY: 0 1.8384 3.8796 4.2721 0.0000 -10475.6458 1413.7129 0.0000 0.0000 1674.2557 -7377.6872 288.6344 -9051.9429 -7377.6872 288.6344 339.8364 416.5148 30028.8769 339.8364 416.5148
ENERGY: 300000 4.3033 1.9644 2.2646 0.0000 -10559.3080 1457.8045 0.0000 0.0000 1699.2138 -7393.7573 292.9371 -9092.9712 -7417.7849 293.2179 49.4943 134.1795 30554.3438 -164.3940 -116.8559
ENERGY: 600000 3.9703 6.1160 3.8163 0.0000 -10601.7616 1437.5377 0.0000 0.0000 1673.5463 -7476.7750 288.5121 -9150.3213 -7413.0257 293.9445 -60.9185 -21.0574 30056.8370 -169.2933 -95.4094
ENERGY: 900000 2.8534 3.6465 1.8560 0.0000 -10443.3403 1367.2982 0.0000 0.0000 1715.4129 -7352.2733 295.7297 -9067.6862 -7393.3934 295.6501 -343.0058 -318.5493 30401.5351 -141.9821 -76.3430
ENERGY: 1200000 3.2189 5.7179 5.4177 0.0000 -10636.1162 1408.0615 0.0000 0.0000 1725.4707 -7488.2296 297.4636 -9213.7002 -7408.1263 295.9221 -212.8512 -177.2835 30084.9571 -129.8752 -73.2252
ENERGY: 1500000 2.9564 2.4891 1.8361 0.0000 -10436.5072 1318.6473 0.0000 0.0000 1715.3845 -7395.1938 295.7248 -9110.5783 -7402.0821 296.0105 -398.8721 -395.3891 29703.3760 -296.3858 -238.8888
TCL: Running FEP window  18: Lambda1 0.8500000000000002 Lambda2 0.9000000000000002 [dLambda 0.050000000000000044]
TCL: Setting parameter firsttimestep to 0
TCL: Setting parameter alchLambda to 0.8500000000000002
Info: NONBONDED TABLE R-SQUARED SPACING: 0.0625
Info: NONBONDED TABLE SIZE: 705 POINTS
TCL: Setting parameter alchLambda2 to 0.9000000000000002
Info: NONBONDED TABLE R-SQUARED SPACING: 0.0625
Info: NONBONDED TABLE SIZE: 705 POINTS
TCL: Running for 1500000 steps
ETITLE: TS BOND ANGLE DIHED IMPRP ELECT VDW BOUNDARY MISC KINETIC TOTAL TEMP POTENTIAL TOTALAVG TEMPAVG PRESSURE GPRESSURE VOLUME PRESSAVG GPRESSAVG
ENERGY: 0 2.9564 2.4891 1.8361 0.0000 -10436.9784 1318.4191 0.0000 0.0000 1714.5376 -7396.7400 295.5788 -9111.2776 -7396.7400 295.5788 -468.4368 -386.9907 29703.3760 -468.4368 -386.9907
ENERGY: 300000 1.9191 2.5025 1.7192 0.0000 -10468.3846 1393.5696 0.0000 0.0000 1740.8915 -7327.7826 300.1221 -9068.6741 -7437.6521 298.3325 -84.2455 38.4174 30306.8369 -535.7632 -445.2855
ENERGY: 600000 2.8069 2.4024 3.3124 0.0000 -10707.3529 1493.1547 0.0000 0.0000 1728.1852 -7477.4913 297.9316 -9205.6765 -7425.4570 300.0007 398.8960 457.8514 29817.2698 -406.5006 -336.2094
ENERGY: 900000 2.5066 4.7377 1.2287 0.0000 -10614.3561 1446.8145 0.0000 0.0000 1724.8955 -7434.1730 297.3645 -9159.0685 -7430.1708 299.8007 145.5468 219.7132 30147.0339 -71.6817 -8.9922
ENERGY: 1200000 3.0335 1.8572 3.0832 0.0000 -10622.8369 1469.5287 0.0000 0.0000 1771.5077 -7373.8266 305.4002 -9145.3344 -7405.6917 300.2174 313.8260 344.8679 30306.0121 -82.0296 -14.2585
ENERGY: 1500000 4.2471 2.8401 1.6720 0.0000 -10519.8148 1358.1162 0.0000 0.0000 1768.6728 -7384.2667 304.9115 -9152.9395 -7400.1080 300.4775 -200.3358 -146.9855 29665.1447 -97.5557 -32.7499
TCL: Running FEP window  19: Lambda1 0.9000000000000002 Lambda2 0.9500000000000003 [dLambda 0.050000000000000044]
TCL: Setting parameter firsttimestep to 0
TCL: Setting parameter alchLambda to 0.9000000000000002
Info: NONBONDED TABLE R-SQUARED SPACING: 0.0625
Info: NONBONDED TABLE SIZE: 705 POINTS
TCL: Setting parameter alchLambda2 to 0.9500000000000003
Info: NONBONDED TABLE R-SQUARED SPACING: 0.0625
Info: NONBONDED TABLE SIZE: 705 POINTS
TCL: Running for 1500000 steps
ETITLE: TS BOND ANGLE DIHED IMPRP ELECT VDW BOUNDARY MISC KINETIC TOTAL TEMP POTENTIAL TOTALAVG TEMPAVG PRESSURE GPRESSURE VOLUME PRESSAVG GPRESSAVG
ENERGY: 0 4.2471 2.8401 1.6720 0.0000 -10520.6560 1358.6285 0.0000 0.0000 1767.8173 -7385.4511 304.7640 -9153.2684 -7385.4511 304.7640 -218.5636 -131.6982 29665.1447 -218.5636 -131.6982
ENERGY: 300000 2.6384 2.9434 2.6522 0.0000 -10568.7767 1459.8737 0.0000 0.0000 1848.4679 -7252.2010 318.6678 -9100.6690 -7369.1056 304.3008 141.4924 274.5066 30161.6253 -33.4776 64.4420
ENERGY: 600000 4.8548 3.5819 1.8054 0.0000 -10581.4670 1407.1129 0.0000 0.0000 1722.3148 -7441.7971 296.9196 -9164.1120 -7382.4430 302.1974 -461.2106 -409.7949 30275.4142 -45.7885 28.1992
ENERGY: 900000 1.8759 0.8550 2.3462 0.0000 -10683.6368 1490.0093 0.0000 0.0000 1703.0835 -7485.4669 293.6042 -9188.5504 -7405.7019 300.9740 421.3590 475.1228 30186.7514 94.1277 166.1042
ENERGY: 1200000 2.4864 4.5216 1.9551 0.0000 -10617.7743 1400.1276 0.0000 0.0000 1713.7486 -7494.9350 295.4428 -9208.6836 -7405.5165 301.0263 -92.6224 -57.3311 29966.5874 130.1879 205.1036
ENERGY: 1500000 2.1896 5.4705 1.4536 0.0000 -10696.1775 1520.1788 0.0000 0.0000 1742.0805 -7424.8044 300.3271 -9166.8850 -7409.9446 301.4674 836.0303 891.2699 29977.1818 182.3047 251.1458
TCL: Running FEP window  20: Lambda1 0.9500000000000003 Lambda2 1.0    [dLambda 0.04999999999999971]
TCL: Setting parameter firsttimestep to 0
TCL: Setting parameter alchLambda to 0.9500000000000003
Info: NONBONDED TABLE R-SQUARED SPACING: 0.0625
Info: NONBONDED TABLE SIZE: 705 POINTS
TCL: Setting parameter alchLambda2 to 1.0
Info: NONBONDED TABLE R-SQUARED SPACING: 0.0625
Info: NONBONDED TABLE SIZE: 705 POINTS
TCL: Running for 1500000 steps
ETITLE: TS BOND ANGLE DIHED IMPRP ELECT VDW BOUNDARY MISC KINETIC TOTAL TEMP POTENTIAL TOTALAVG TEMPAVG PRESSURE GPRESSURE VOLUME PRESSAVG GPRESSAVG
ENERGY: 0 2.1896 5.4705 1.4536 0.0000 -10696.7779 1520.2415 0.0000 0.0000 1741.2039 -7426.2187 300.1760 -9167.4226 -7426.2187 300.1760 816.4224 903.9103 29977.1818 816.4224 903.9103
ENERGY: 300000 2.6399 1.2320 3.6895 0.0000 -10654.3475 1466.3182 0.0000 0.0000 1737.0228 -7443.4451 299.4552 -9180.4679 -7389.6881 301.0694 460.4751 547.1592 29693.8633 385.3839 479.9890
ENERGY: 600000 5.2083 2.7707 2.2620 0.0000 -10618.3061 1485.7471 0.0000 0.0000 1723.4380 -7398.8800 297.1132 -9122.3180 -7404.4646 299.3034 458.6125 450.2593 30202.3482 302.9044 371.8029
ENERGY: 900000 2.2420 4.6794 3.8082 0.0000 -10584.8074 1450.1522 0.0000 0.0000 1708.8682 -7415.0574 294.6014 -9123.9256 -7403.0716 300.3287 320.4973 391.6077 29990.1226 87.7308 158.3540
ENERGY: 1200000 2.6424 2.8923 2.9843 0.0000 -10454.1492 1386.5384 0.0000 0.0000 1752.9333 -7306.1586 302.1981 -9059.0919 -7403.0117 300.2540 -21.1978 4.8064 30207.5637 74.3110 144.1437
ENERGY: 1500000 2.3086 6.9459 2.3288 0.0000 -10522.6241 1404.4669 0.0000 0.0000 1785.4890 -7321.0850 307.8105 -9106.5740 -7394.7928 300.7585 188.7280 204.0593 29997.9255 115.0793 182.9849
TCL: Exiting due to exit command.
