Info: SIMULATION PARAMETERS:
Info: TIMESTEP               2
Info: NUMBER OF STEPS        0
Info: STEPS PER CYCLE        10
Info: PERIODIC CELL BASIS 1  31.452 0 0
Info: PERIODIC CELL BASIS 2  0 31.8416 0
Info: PERIODIC CELL BASIS 3  0 0 30.2945
Info: PERIODIC CELL CENTER   0 0 0
Info: WRAPPING WATERS AROUND PERIODIC BOUNDARIES ON OUTPUT.
Info: WRAPPING ALL CLUSTERS AROUND PERIODIC BOUNDARIES ON OUTPUT.
Info: FIRST LDB TIMESTEP     50
Info: LAST LDB TIMESTEP     -1
Info: HOM BACKGROUND SCALING 1
Info: PME BACKGROUND SCALING 1
Info: MIN ATOMS PER PATCH    40
Info: EMPTY PATCH LOAD       40 ATOMS
Info: VELOCITY FILE          mobley_7735340_equil.vel
Info: CENTER OF MASS MOVING INITIALLY? NO
Info: DIELECTRIC             1
Info: EXCLUDE                SCALED ONE-FOUR
Info: 1-4 ELECTROSTATICS SCALED BY 0.833333
Info: MODIFIED 1-4 VDW PARAMETERS WILL BE USED
Info: DCD FILENAME           mobley_7735340_prod.dcd
Info: DCD FREQUENCY          100000
Info: DCD FIRST STEP         100000
Info: DCD FILE WILL CONTAIN UNIT CELL DATA
Info: XST FILENAME           mobley_7735340_prod.xst
Info: XST FREQUENCY          100000
Info: NO VELOCITY DCD OUTPUT
Info: NO FORCE DCD OUTPUT
Info: OUTPUT FILENAME        mobley_7735340_prod
Info: BINARY OUTPUT FILES WILL BE USED
Info: RESTART FILENAME       mobley_7735340_prod.restart
Info: RESTART FREQUENCY      100000
Info: BINARY RESTART FILES WILL BE USED
Info: CUTOFF                 9
Info: PAIRLIST DISTANCE      11
Info: PAIRLIST SHRINK RATE   0.01
Info: PAIRLIST GROW RATE     0.01
Info: PAIRLIST TRIGGER       0.3
Info: PAIRLISTS PER CYCLE    2
Info: PAIRLISTS ENABLED
Info: MARGIN                 2
Info: HYDROGEN GROUP CUTOFF  2.5
Info: PATCH DIMENSION        15.5
Info: ENERGY OUTPUT STEPS    100000
Info: ENERGY EVALUATION STEPS    100000
Info: OUTPUT ENERGY PRECISION 4
Info: CROSSTERM ENERGY INCLUDED IN DIHEDRAL
Info: TIMING OUTPUT STEPS    1000000
Info: PRESSURE OUTPUT STEPS  100000
Info: ALCHEMICAL FEP ON
Info: FEP CURRENT LAMBDA VALUE     1
Info: FEP COMPARISON LAMBDA VALUE  0.95
Info: FEP INTRA-ALCHEMICAL NON-BONDED INTERACTIONS WILL BE RETAINED
Info: FEP INTRA-ALCHEMICAL BONDED INTERACTIONS WILL BE RETAINED
Info: FEP VDW SHIFTING COEFFICIENT 5
Info: FEP ELEC. ACTIVE FOR ANNIHILATED PARTICLES BETWEEN LAMBDA = 0 AND LAMBDA = 0.5
Info: FEP ELEC. ACTIVE FOR EXNIHILATED PARTICLES BETWEEN LAMBDA = 0.5 AND LAMBDA = 1
Info: FEP VDW ACTIVE FOR ANNIHILATED PARTICLES BETWEEN LAMBDA = 0 AND LAMBDA = 1
Info: FEP VDW ACTIVE FOR EXNIHILATED PARTICLES BETWEEN LAMBDA = 0 AND LAMBDA = 1
Info: FEP BOND ACTIVE FOR ANNIHILATED PARTICLES BETWEEN LAMBDA = 1 AND LAMBDA = 1
Info: FEP BOND ACTIVE FOR EXNIHILATED PARTICLES BETWEEN LAMBDA = 0 AND LAMBDA = 0
Info: LANGEVIN DYNAMICS ACTIVE
Info: LANGEVIN TEMPERATURE   300
Info: LANGEVIN USING BBK INTEGRATOR
Info: LANGEVIN DAMPING COEFFICIENT IS 1 INVERSE PS
Info: LANGEVIN DYNAMICS APPLIED TO HYDROGENS
Info: LANGEVIN PISTON PRESSURE CONTROL ACTIVE
Info:        TARGET PRESSURE IS 1.01325 BAR
Info:     OSCILLATION PERIOD IS 50 FS
Info:             DECAY TIME IS 25 FS
Info:     PISTON TEMPERATURE IS 300 K
Info:       PRESSURE CONTROL IS GROUP-BASED
Info:    INITIAL STRAIN RATE IS -0.000403701 -0.000403701 -0.000403701
Info:       CELL FLUCTUATION IS ISOTROPIC
Info: PARTICLE MESH EWALD (PME) ACTIVE
Info: PME TOLERANCE               1e-06
Info: PME EWALD COEFFICIENT       0.348832
Info: PME INTERPOLATION ORDER     4
Info: PME GRID DIMENSIONS         32 32 32
Info: PME MAXIMUM GRID SPACING    1
Info: PME CALCULATION WILL BE PERFORMED ON GPU
Info: FULL ELECTROSTATIC EVALUATION FREQUENCY      2
Info: USING VERLET I (r-RESPA) MTS SCHEME.
Info: C1 SPLITTING OF LONG RANGE ELECTROSTATICS
Info: PLACING ATOMS IN PATCHES BY HYDROGEN GROUPS
Info: RIGID BONDS TO HYDROGEN : ALL
Info:         ERROR TOLERANCE : 1e-08
Info:          MAX ITERATIONS : 100
Info: RIGID WATER USING SETTLE ALGORITHM
Info: RANDOM NUMBER SEED     1743516157
Info: USE HYDROGEN BONDS?    NO
Info: Using AMBER format force field!
Info: AMBER PARM FILE        mobley_7735340.prmtop
Info: COORDINATE PDB         mobley_7735340.pdb
Info: Exclusions will be read from PARM file!
Info: SCNB (VDW SCALING)     2
Info: USING ARITHMETIC MEAN TO COMBINE L-J SIGMA PARAMETERS
Info: BINARY COORDINATES     mobley_7735340_equil.coor
Info: SUMMARY OF PARAMETERS:
Info: 10 BONDS
Info: 12 ANGLES
Info:   12 HARMONIC
Info:   0 COSINE-BASED
Info: 4 DIHEDRAL
Info: 0 IMPROPER
Info: 0 CROSSTERM
Info: 0 VDW
Info: 28 VDW_PAIRS
Info: 0 NBTHOLE_PAIRS
Info: To read alchdata from file: mobley_7735340.pdb
Info: To read alchflag data from column: 5
Info: STRUCTURE SUMMARY:
Info: 2952 ATOMS
Info: 2952 BONDS
Info: 13 ANGLES
Info: 20 DIHEDRALS
Info: 0 IMPROPERS
Info: 0 CROSSTERMS
Info: 2976 EXCLUSIONS
Info: 2947 RIGID BONDS
Info: ALCH: 0 ATOMS TO DISAPPEAR IN FINAL STATE
Info: ALCH: 9 ATOMS TO APPEAR IN FINAL STATE
Info: 5909 DEGREES OF FREEDOM
Info: 986 HYDROGEN GROUPS
Info: 3 ATOMS IN LARGEST HYDROGEN GROUP
Info: 986 MIGRATION GROUPS
Info: 3 ATOMS IN LARGEST MIGRATION GROUP
Info: TOTAL MASS = 17741.8 amu
Info: TOTAL CHARGE = -9.99831e-05 e
Info: MASS DENSITY = 0.971069 g/cm^3
Info: ATOM DENSITY = 0.0972994 atoms/A^3
Info: ADDED 0 IMPLICIT EXCLUSIONS
Info: NONBONDED TABLE R-SQUARED SPACING: 0.0625
Info: NONBONDED TABLE SIZE: 705 POINTS
Info: REDUCING NUMBER OF PATCHES TO IMPROVE LOAD BALANCE
Info: REMOVING COM VELOCITY -0.00506212 -0.00594495 -0.28384
Info: Use 3D box decompostion in PME FFT.
Info: Updated CUDA force table with 4096 elements.
Info: Updated CUDA LJ table with 7 x 7 elements.
Info: Found 12 unique exclusion lists needing 16 bytes
TCL: Running for 1500000 steps
ETITLE: TS BOND ANGLE DIHED IMPRP ELECT VDW BOUNDARY MISC KINETIC TOTAL TEMP POTENTIAL TOTALAVG TEMPAVG PRESSURE GPRESSURE VOLUME PRESSAVG GPRESSAVG
ENERGY: 0 0.5557 7.5342 1.3131 0.0000 -10684.8104 1419.0565 0.0000 0.0000 1710.1221 -7546.2287 291.2752 -9256.3509 -7546.2287 291.2752 -232.3414 -143.9963 30339.3567 -232.3414 -143.9963
ENERGY: 300000 0.7549 2.1473 2.8096 0.0000 -10729.4054 1422.6368 0.0000 0.0000 1818.2475 -7482.8093 309.6916 -9301.0569 -7519.8493 299.5268 -121.7492 -41.6939 30314.4758 127.6470 207.4820
ENERGY: 600000 2.7336 1.6917 4.6222 0.0000 -10584.2979 1368.1157 0.0000 0.0000 1806.4855 -7400.6492 307.6882 -9207.1347 -7508.6248 300.8831 -530.2739 -425.0006 30562.8431 108.2503 183.4837
ENERGY: 900000 2.1711 6.0447 0.7265 0.0000 -10768.0111 1412.6873 0.0000 0.0000 1771.6995 -7574.6820 301.7633 -9346.3816 -7511.1749 299.8478 -421.6241 -349.5416 30448.6057 -11.1731 65.1348
ENERGY: 1200000 1.2115 2.0875 1.3699 0.0000 -10855.7207 1514.7664 0.0000 0.0000 1786.3563 -7549.9291 304.2597 -9336.2854 -7533.1625 298.9891 547.2883 631.8948 30131.9803 112.9830 187.0304
ENERGY: 1500000 0.2647 3.9863 1.0513 0.0000 -10618.2928 1351.2877 0.0000 0.0000 1777.6588 -7484.0441 302.7783 -9261.7028 -7530.6112 299.6198 -747.3961 -625.2106 30405.5913 94.3253 169.2083
TCL: Running FEP window   2: Lambda1 0.95   Lambda2 0.8999999999999999 [dLambda -0.050000000000000044]
TCL: Setting parameter firsttimestep to 0
TCL: Setting parameter alchLambda to 0.95
Info: NONBONDED TABLE R-SQUARED SPACING: 0.0625
Info: NONBONDED TABLE SIZE: 705 POINTS
TCL: Setting parameter alchLambda2 to 0.8999999999999999
Info: NONBONDED TABLE R-SQUARED SPACING: 0.0625
Info: NONBONDED TABLE SIZE: 705 POINTS
TCL: Running for 1500000 steps
ETITLE: TS BOND ANGLE DIHED IMPRP ELECT VDW BOUNDARY MISC KINETIC TOTAL TEMP POTENTIAL TOTALAVG TEMPAVG PRESSURE GPRESSURE VOLUME PRESSAVG GPRESSAVG
ENERGY: 0 0.2647 3.9863 1.0513 0.0000 -10616.5061 1350.3700 0.0000 0.0000 1776.7759 -7484.0579 302.6280 -9260.8338 -7484.0579 302.6280 -719.2627 -639.7174 30405.5913 -719.2627 -639.7174
ENERGY: 300000 1.3722 1.9862 0.6441 0.0000 -10717.3182 1417.8293 0.0000 0.0000 1762.6014 -7532.8848 300.2137 -9295.4863 -7521.0581 300.0595 -174.0876 -76.7483 29963.6777 -209.0114 -141.0510
ENERGY: 600000 1.2463 1.8669 0.2831 0.0000 -10728.2570 1436.2318 0.0000 0.0000 1765.1319 -7523.4970 300.6447 -9288.6289 -7524.1493 297.0158 -112.1023 -92.2981 30595.1146 -220.1869 -155.7706
ENERGY: 900000 4.5029 1.7156 3.3499 0.0000 -10708.0755 1480.8528 0.0000 0.0000 1770.2298 -7447.4245 301.5130 -9217.6543 -7507.6717 299.5202 623.2266 689.3103 30341.9699 -81.2793 -7.1055
ENERGY: 1200000 0.9453 2.9378 1.1736 0.0000 -10912.5290 1494.4617 0.0000 0.0000 1717.5509 -7695.4597 292.5405 -9413.0106 -7522.6854 298.7519 7.3279 61.6457 30173.9465 -103.8660 -28.3282
ENERGY: 1500000 1.2845 6.0406 2.4126 0.0000 -10696.5613 1453.1468 0.0000 0.0000 1735.9837 -7497.6929 295.6801 -9233.6766 -7531.0083 298.3282 5.7478 103.8439 30775.5340 -43.4290 31.5579
TCL: Running FEP window   3: Lambda1 0.8999999999999999 Lambda2 0.8499999999999999 [dLambda -0.050000000000000044]
TCL: Setting parameter firsttimestep to 0
TCL: Setting parameter alchLambda to 0.8999999999999999
Info: NONBONDED TABLE R-SQUARED SPACING: 0.0625
Info: NONBONDED TABLE SIZE: 705 POINTS
TCL: Setting parameter alchLambda2 to 0.8499999999999999
Info: NONBONDED TABLE R-SQUARED SPACING: 0.0625
Info: NONBONDED TABLE SIZE: 705 POINTS
TCL: Running for 1500000 steps
ETITLE: TS BOND ANGLE DIHED IMPRP ELECT VDW BOUNDARY MISC KINETIC TOTAL TEMP POTENTIAL TOTALAVG TEMPAVG PRESSURE GPRESSURE VOLUME PRESSAVG GPRESSAVG
ENERGY: 0 1.2845 6.0406 2.4126 0.0000 -10695.0346 1453.0923 0.0000 0.0000 1735.1332 -7497.0712 295.5352 -9232.2044 -7497.0712 295.5352 31.9682 99.3169 30775.5340 31.9682 99.3169
ENERGY: 300000 1.9010 2.0658 1.0806 0.0000 -10809.4423 1446.1968 0.0000 0.0000 1708.1363 -7650.0619 290.9370 -9358.1982 -7591.4579 294.4813 -150.8594 -76.2965 30042.0426 -91.2273 -27.5393
ENERGY: 600000 1.8032 5.2742 0.9573 0.0000 -10732.8258 1403.7791 0.0000 0.0000 1770.1510 -7550.8611 301.4996 -9321.0120 -7570.2679 296.8259 -352.3103 -339.9900 30263.9969 -82.3411 -19.8819
ENERGY: 900000 1.5075 1.3718 1.8278 0.0000 -10694.8493 1414.1340 0.0000 0.0000 1815.2103 -7460.7978 309.1743 -9276.0081 -7543.7916 299.5411 -308.5609 -225.0071 30682.0056 -229.3106 -172.5703
ENERGY: 1200000 1.9598 2.3967 1.8998 0.0000 -10752.3320 1475.6780 0.0000 0.0000 1730.3285 -7540.0690 294.7168 -9270.3976 -7532.9400 299.3257 58.6638 61.3130 30807.3723 -212.2773 -158.0679
ENERGY: 1500000 0.5209 0.9397 2.2217 0.0000 -10730.5255 1481.2528 0.0000 0.0000 1766.1323 -7479.4582 300.8151 -9245.5905 -7522.2313 299.2084 433.8178 446.3993 30454.5705 -107.6560 -57.7516
TCL: Running FEP window   4: Lambda1 0.8499999999999999 Lambda2 0.7999999999999998 [dLambda -0.050000000000000044]
TCL: Setting parameter firsttimestep to 0
TCL: Setting parameter alchLambda to 0.8499999999999999
Info: NONBONDED TABLE R-SQUARED SPACING: 0.0625
Info: NONBONDED TABLE SIZE: 705 POINTS
TCL: Setting parameter alchLambda2 to 0.7999999999999998
Info: NONBONDED TABLE R-SQUARED SPACING: 0.0625
Info: NONBONDED TABLE SIZE: 705 POINTS
TCL: Running for 1500000 steps
ETITLE: TS BOND ANGLE DIHED IMPRP ELECT VDW BOUNDARY MISC KINETIC TOTAL TEMP POTENTIAL TOTALAVG TEMPAVG PRESSURE GPRESSURE VOLUME PRESSAVG GPRESSAVG
ENERGY: 0 0.5209 0.9397 2.2217 0.0000 -10728.0922 1480.1837 0.0000 0.0000 1765.2297 -7478.9966 300.6614 -9244.2263 -7478.9966 300.6614 350.9972 435.6572 30454.5705 350.9972 435.6572
ENERGY: 300000 0.3951 1.1715 1.1168 0.0000 -10705.8289 1438.6148 0.0000 0.0000 1785.4444 -7479.0862 304.1044 -9264.5306 -7465.5420 302.5429 -56.1990 71.1016 30390.5792 -131.3230 -25.2389
ENERGY: 600000 0.5858 2.5356 1.2140 0.0000 -10785.9349 1454.1463 0.0000 0.0000 1749.6740 -7577.7792 298.0119 -9327.4532 -7499.2983 300.9030 1.1130 17.7943 30493.6503 12.1968 102.5435
ENERGY: 900000 0.6564 1.6898 0.4086 0.0000 -10783.8178 1467.6882 0.0000 0.0000 1795.6375 -7517.7373 305.8405 -9313.3748 -7498.1705 302.0796 117.5246 224.4800 30250.8826 146.3261 235.7338
ENERGY: 1200000 0.6456 1.9594 2.4727 0.0000 -10814.7414 1543.2312 0.0000 0.0000 1740.5648 -7525.8678 296.4603 -9266.4325 -7508.0265 301.6920 896.2333 919.1790 30147.1281 190.2972 263.5119
ENERGY: 1500000 1.5388 1.6275 0.8907 0.0000 -10648.8196 1434.2872 0.0000 0.0000 1783.7489 -7426.7264 303.8156 -9210.4753 -7503.9154 301.1006 264.3924 357.6640 30395.6423 178.7245 262.2919
TCL: Running FEP window   5: Lambda1 0.7999999999999998 Lambda2 0.7499999999999998 [dLambda -0.050000000000000044]
TCL: Setting parameter firsttimestep to 0
TCL: Setting parameter alchLambda to 0.7999999999999998
Info: NONBONDED TABLE R-SQUARED SPACING: 0.0625
Info: NONBONDED TABLE SIZE: 705 POINTS
TCL: Setting parameter alchLambda2 to 0.7499999999999998
Info: NONBONDED TABLE R-SQUARED SPACING: 0.0625
Info: NONBONDED TABLE SIZE: 705 POINTS
TCL: Running for 1500000 steps
ETITLE: TS BOND ANGLE DIHED IMPRP ELECT VDW BOUNDARY MISC KINETIC TOTAL TEMP POTENTIAL TOTALAVG TEMPAVG PRESSURE GPRESSURE VOLUME PRESSAVG GPRESSAVG
ENERGY: 0 1.5388 1.6275 0.8907 0.0000 -10646.4818 1433.3423 0.0000 0.0000 1782.8892 -7426.1932 303.6692 -9209.0824 -7426.1932 303.6692 259.8618 345.3434 30395.6423 259.8618 345.3434
ENERGY: 300000 1.3900 1.7335 0.4041 0.0000 -10771.2627 1470.7326 0.0000 0.0000 1773.8168 -7523.1857 302.1239 -9297.0025 -7502.8665 302.0841 2.7678 54.7066 30520.4178 239.1248 299.3311
ENERGY: 600000 1.9306 3.9573 2.0081 0.0000 -10770.7801 1459.3922 0.0000 0.0000 1796.6779 -7506.8140 306.0178 -9303.4919 -7514.4755 301.8719 281.6107 324.0338 29998.2752 382.0465 440.9634
ENERGY: 900000 1.3524 1.9713 3.2169 0.0000 -10695.5044 1418.8707 0.0000 0.0000 1790.1006 -7479.9925 304.8975 -9270.0931 -7511.0456 302.5630 -219.8417 -209.2248 30466.3011 255.4130 313.7745
ENERGY: 1200000 1.4540 1.9239 2.3102 0.0000 -10701.7828 1384.4247 0.0000 0.0000 1770.8489 -7540.8210 301.6185 -9311.6700 -7513.1279 302.8656 -1098.4036 -1018.0297 31069.5698 92.4798 150.8949
ENERGY: 1500000 1.2754 5.0111 1.8051 0.0000 -10785.1192 1473.5277 0.0000 0.0000 1795.4144 -7508.0856 305.8026 -9303.5000 -7511.3218 303.1917 207.9903 304.3344 30212.2021 80.0204 139.6014
TCL: Running FEP window   6: Lambda1 0.7499999999999998 Lambda2 0.6999999999999997 [dLambda -0.050000000000000044]
TCL: Setting parameter firsttimestep to 0
TCL: Setting parameter alchLambda to 0.7499999999999998
Info: NONBONDED TABLE R-SQUARED SPACING: 0.0625
Info: NONBONDED TABLE SIZE: 705 POINTS
TCL: Setting parameter alchLambda2 to 0.6999999999999997
Info: NONBONDED TABLE R-SQUARED SPACING: 0.0625
Info: NONBONDED TABLE SIZE: 705 POINTS
TCL: Running for 1500000 steps
ETITLE: TS BOND ANGLE DIHED IMPRP ELECT VDW BOUNDARY MISC KINETIC TOTAL TEMP POTENTIAL TOTALAVG TEMPAVG PRESSURE GPRESSURE VOLUME PRESSAVG GPRESSAVG
ENERGY: 0 1.2754 5.0111 1.8051 0.0000 -10783.5550 1472.6936 0.0000 0.0000 1794.5640 -7508.2059 305.6577 -9302.7698 -7508.2059 305.6577 207.8125 293.7944 30212.2021 207.8125 293.7944
ENERGY: 300000 1.3570 2.1706 1.8781 0.0000 -10756.1215 1478.0635 0.0000 0.0000 1743.9210 -7528.7313 297.0320 -9272.6523 -7533.4426 302.1274 374.0968 426.7802 30270.5970 -67.8171 -9.0175
ENERGY: 600000 0.4951 1.9674 2.0305 0.0000 -10599.6003 1342.1203 0.0000 0.0000 1768.3079 -7484.6791 301.1857 -9252.9870 -7533.3745 300.2655 -958.5177 -903.3088 30907.9893 -174.5867 -115.1556
ENERGY: 900000 1.4929 3.1183 3.1113 0.0000 -10626.0863 1441.1638 0.0000 0.0000 1747.4002 -7429.7999 297.6246 -9177.2001 -7518.4319 300.1426 -103.2449 42.2182 30774.2757 -76.6082 -8.9564
ENERGY: 1200000 4.8821 3.9995 4.6610 0.0000 -10616.9794 1350.3350 0.0000 0.0000 1842.1394 -7410.9624 313.7609 -9253.1018 -7505.1957 300.5719 -453.1525 -381.7321 30423.9918 -136.9501 -73.2342
ENERGY: 1500000 2.3600 2.9485 1.0790 0.0000 -10834.1381 1536.5247 0.0000 0.0000 1801.1631 -7490.0627 306.7817 -9291.2259 -7507.8266 300.8104 1082.5176 1102.7424 29825.1052 -48.3561 8.3347
TCL: Running FEP window   7: Lambda1 0.6999999999999997 Lambda2 0.6499999999999997 [dLambda -0.050000000000000044]
TCL: Setting parameter firsttimestep to 0
TCL: Setting parameter alchLambda to 0.6999999999999997
Info: NONBONDED TABLE R-SQUARED SPACING: 0.0625
Info: NONBONDED TABLE SIZE: 705 POINTS
TCL: Setting parameter alchLambda2 to 0.6499999999999997
Info: NONBONDED TABLE R-SQUARED SPACING: 0.0625
Info: NONBONDED TABLE SIZE: 705 POINTS
TCL: Running for 1500000 steps
ETITLE: TS BOND ANGLE DIHED IMPRP ELECT VDW BOUNDARY MISC KINETIC TOTAL TEMP POTENTIAL TOTALAVG TEMPAVG PRESSURE GPRESSURE VOLUME PRESSAVG GPRESSAVG
ENERGY: 0 2.3600 2.9485 1.0790 0.0000 -10832.0484 1535.3790 0.0000 0.0000 1800.2679 -7490.0139 306.6292 -9290.2818 -7490.0139 306.6292 1001.7841 1089.2924 29825.1052 1001.7841 1089.2924
ENERGY: 300000 0.9041 1.1750 1.9027 0.0000 -10811.0962 1539.9468 0.0000 0.0000 1770.4638 -7496.7038 301.5529 -9267.1676 -7475.2769 303.1547 1015.9187 1106.6115 29938.8908 581.0639 641.3640
ENERGY: 600000 0.5828 5.9205 1.3375 0.0000 -10721.9432 1423.0141 0.0000 0.0000 1746.4716 -7544.6168 297.4664 -9291.0884 -7497.3652 299.8567 -354.2334 -259.2460 30727.8069 196.1257 271.2486
ENERGY: 900000 1.9867 1.3071 2.3403 0.0000 -10578.7508 1364.3785 0.0000 0.0000 1714.7537 -7493.9845 292.0641 -9208.7382 -7510.6795 297.8429 -577.1319 -475.7553 30872.9736 74.7085 142.3764
ENERGY: 1200000 1.8912 2.9705 0.5908 0.0000 -10783.6360 1462.0272 0.0000 0.0000 1781.5978 -7534.5585 303.4492 -9316.1563 -7497.7318 299.4737 36.9327 115.7641 30448.6374 94.0716 158.2855
ENERGY: 1500000 0.4707 4.1155 1.5488 0.0000 -10676.8180 1382.3027 0.0000 0.0000 1781.8461 -7506.5342 303.4915 -9288.3804 -7498.0170 299.8840 -421.8971 -427.6750 30383.3396 46.9932 111.2204
TCL: Running FEP window   8: Lambda1 0.6499999999999997 Lambda2 0.5999999999999996 [dLambda -0.050000000000000044]
TCL: Setting parameter firsttimestep to 0
TCL: Setting parameter alchLambda to 0.6499999999999997
Info: NONBONDED TABLE R-SQUARED SPACING: 0.0625
Info: NONBONDED TABLE SIZE: 705 POINTS
TCL: Setting parameter alchLambda2 to 0.5999999999999996
Info: NONBONDED TABLE R-SQUARED SPACING: 0.0625
Info: NONBONDED TABLE SIZE: 705 POINTS
TCL: Running for 1500000 steps
ETITLE: TS BOND ANGLE DIHED IMPRP ELECT VDW BOUNDARY MISC KINETIC TOTAL TEMP POTENTIAL TOTALAVG TEMPAVG PRESSURE GPRESSURE VOLUME PRESSAVG GPRESSAVG
ENERGY: 0 0.4707 4.1155 1.5488 0.0000 -10675.7669 1382.2888 0.0000 0.0000 1780.9821 -7506.3611 303.3444 -9287.3432 -7506.3611 303.3444 -514.1895 -431.5465 30383.3396 -514.1895 -431.5465
ENERGY: 300000 6.0133 1.1724 1.1559 0.0000 -10842.9935 1539.6317 0.0000 0.0000 1771.8863 -7523.1340 301.7951 -9295.0203 -7507.5876 301.9337 1032.3338 1051.7399 30178.4107 225.2544 274.6445
ENERGY: 600000 0.8399 4.1190 1.0629 0.0000 -10720.0623 1454.9468 0.0000 0.0000 1785.2520 -7473.8418 304.0716 -9259.0938 -7492.6033 302.6679 85.5818 147.2212 30345.3822 103.6103 166.7204
ENERGY: 900000 1.0937 2.5696 3.5604 0.0000 -10707.4288 1424.0825 0.0000 0.0000 1712.7417 -7563.3808 291.7214 -9276.1225 -7500.9043 301.1850 -426.6846 -331.7428 30815.8938 -27.1416 32.9326
ENERGY: 1200000 2.1257 3.6909 2.7298 0.0000 -10569.2248 1332.0039 0.0000 0.0000 1743.5014 -7485.1732 296.9605 -9228.6746 -7494.6956 300.3107 -712.1278 -614.0642 30205.2880 -39.2864 23.6819
ENERGY: 1500000 2.4946 3.6734 1.0916 0.0000 -10791.8269 1447.5407 0.0000 0.0000 1774.2960 -7562.7306 302.2056 -9337.0267 -7510.4108 299.7643 -327.6844 -269.7744 30586.7451 -5.5837 60.5776
TCL: Running FEP window   9: Lambda1 0.5999999999999996 Lambda2 0.5499999999999996 [dLambda -0.050000000000000044]
TCL: Setting parameter firsttimestep to 0
TCL: Setting parameter alchLambda to 0.5999999999999996
Info: NONBONDED TABLE R-SQUARED SPACING: 0.0625
Info: NONBONDED TABLE SIZE: 705 POINTS
TCL: Setting parameter alchLambda2 to 0.5499999999999996
Info: NONBONDED TABLE R-SQUARED SPACING: 0.0625
Info: NONBONDED TABLE SIZE: 705 POINTS
TCL: Running for 1500000 steps
ETITLE: TS BOND ANGLE DIHED IMPRP ELECT VDW BOUNDARY MISC KINETIC TOTAL TEMP POTENTIAL TOTALAVG TEMPAVG PRESSURE GPRESSURE VOLUME PRESSAVG GPRESSAVG
ENERGY: 0 2.4946 3.6734 1.0916 0.0000 -10791.2085 1447.8566 0.0000 0.0000 1773.4255 -7562.6668 302.0573 -9336.0924 -7562.6668 302.0573 -347.1435 -271.3421 30586.7451 -347.1435 -271.3421
ENERGY: 300000 0.3810 3.1981 0.3429 0.0000 -10541.0256 1315.6464 0.0000 0.0000 1751.7767 -7469.6806 298.3700 -9221.4573 -7516.6049 302.9519 -886.5921 -790.4423 30317.8435 -53.9341 32.1424
ENERGY: 600000 1.2260 2.7182 2.0946 0.0000 -10844.2122 1534.1036 0.0000 0.0000 1732.5912 -7571.4785 295.1022 -9304.0697 -7518.9068 299.8396 546.6938 639.9043 30570.6525 33.0996 119.3946
ENERGY: 900000 0.9256 2.0877 1.1871 0.0000 -10672.4881 1436.0995 0.0000 0.0000 1737.1728 -7495.0154 295.8826 -9232.1882 -7526.0804 298.2967 2.5763 10.8425 30662.3074 -17.5861 47.2166
ENERGY: 1200000 0.6484 1.4252 1.5615 0.0000 -10788.4584 1448.9027 0.0000 0.0000 1725.3014 -7610.6193 293.8606 -9335.9207 -7528.8503 299.0705 -187.7609 -183.1393 30479.1643 -60.4365 4.8374
ENERGY: 1500000 0.8479 2.8421 2.0621 0.0000 -10789.7034 1481.0108 0.0000 0.0000 1726.5884 -7576.3520 294.0798 -9302.9404 -7523.5870 299.1655 157.4325 191.2200 30443.4082 -54.7506 5.1078
TCL: Running FEP window  10: Lambda1 0.5499999999999996 Lambda2 0.4999999999999996 [dLambda -0.04999999999999999]
TCL: Setting parameter firsttimestep to 0
TCL: Setting parameter alchLambda to 0.5499999999999996
Info: NONBONDED TABLE R-SQUARED SPACING: 0.0625
Info: NONBONDED TABLE SIZE: 705 POINTS
TCL: Setting parameter alchLambda2 to 0.4999999999999996
Info: NONBONDED TABLE R-SQUARED SPACING: 0.0625
Info: NONBONDED TABLE SIZE: 705 POINTS
TCL: Running for 1500000 steps
ETITLE: TS BOND ANGLE DIHED IMPRP ELECT VDW BOUNDARY MISC KINETIC TOTAL TEMP POTENTIAL TOTALAVG TEMPAVG PRESSURE GPRESSURE VOLUME PRESSAVG GPRESSAVG
ENERGY: 0 0.8479 2.8421 2.0621 0.0000 -10788.6357 1481.1827 0.0000 0.0000 1725.6933 -7576.0076 293.9273 -9301.7008 -7576.0076 293.9273 98.3943 188.7059 30443.4082 98.3943 188.7059
ENERGY: 300000 2.6543 1.7450 0.7184 0.0000 -10625.5797 1414.7615 0.0000 0.0000 1784.4049 -7421.2955 303.9274 -9205.7005 -7539.0909 297.1210 37.9611 15.7101 30682.8668 -129.4192 -79.2583
ENERGY: 600000 2.0541 1.7630 1.2048 0.0000 -10729.4488 1438.9167 0.0000 0.0000 1742.4266 -7543.0836 296.7774 -9285.5102 -7511.0099 298.0877 -348.4792 -242.6708 30661.9842 -191.1607 -120.4707
ENERGY: 900000 1.0806 1.1538 1.9732 0.0000 -10700.5714 1471.4374 0.0000 0.0000 1781.0207 -7443.9057 303.3510 -9224.9264 -7508.2585 298.3184 172.8060 255.9964 30547.5517 -128.9067 -50.0391
ENERGY: 1200000 1.6354 2.0650 0.7410 0.0000 -10767.7525 1433.2775 0.0000 0.0000 1730.5102 -7599.5235 294.7478 -9330.0337 -7516.2351 298.2524 -285.4229 -139.8254 30292.9718 -84.9823 -6.3950
ENERGY: 1500000 0.5551 2.5833 1.2422 0.0000 -10648.2543 1419.1660 0.0000 0.0000 1796.2150 -7428.4928 305.9389 -9224.7077 -7512.9809 298.6853 19.0504 62.4501 30492.3991 -100.9444 -27.8133
TCL: Running FEP window  11: Lambda1 0.4999999999999996 Lambda2 0.4499999999999996 [dLambda -0.04999999999999999]
TCL: Setting parameter firsttimestep to 0
TCL: Setting parameter alchLambda to 0.4999999999999996
Info: NONBONDED TABLE R-SQUARED SPACING: 0.0625
Info: NONBONDED TABLE SIZE: 705 POINTS
TCL: Setting parameter alchLambda2 to 0.4499999999999996
Info: NONBONDED TABLE R-SQUARED SPACING: 0.0625
Info: NONBONDED TABLE SIZE: 705 POINTS
TCL: Running for 1500000 steps
ETITLE: TS BOND ANGLE DIHED IMPRP ELECT VDW BOUNDARY MISC KINETIC TOTAL TEMP POTENTIAL TOTALAVG TEMPAVG PRESSURE GPRESSURE VOLUME PRESSAVG GPRESSAVG
ENERGY: 0 0.5551 2.5833 1.2422 0.0000 -10647.7715 1419.1086 0.0000 0.0000 1795.3350 -7428.9474 305.7890 -9224.2824 -7428.9474 305.7890 -32.1284 59.5460 30492.3991 -32.1284 59.5460
ENERGY: 300000 0.4683 5.5968 2.9574 0.0000 -10656.9697 1437.4716 0.0000 0.0000 1792.7335 -7417.7422 305.3459 -9210.4757 -7453.7691 304.6518 -56.3175 26.4353 30681.4990 -407.1883 -322.8067
ENERGY: 600000 2.2554 4.4632 1.7840 0.0000 -10809.4259 1480.3012 0.0000 0.0000 1827.6113 -7493.0108 311.2865 -9320.6221 -7476.0247 303.8356 525.4150 570.3835 29951.8569 -135.5989 -65.1672
ENERGY: 900000 1.8774 3.8466 1.0786 0.0000 -10799.8906 1471.0646 0.0000 0.0000 1763.8017 -7558.2216 300.4181 -9322.0233 -7495.0170 302.2794 -19.9654 44.8105 30435.2344 -79.0772 -11.6429
ENERGY: 1200000 1.8407 2.1615 1.9166 0.0000 -10738.7769 1414.4999 0.0000 0.0000 1758.4294 -7559.9288 299.5031 -9318.3582 -7504.7213 302.0396 -433.6976 -371.3129 30434.6527 -65.2479 -0.5398
ENERGY: 1500000 0.9140 5.1950 1.8926 0.0000 -10635.4207 1379.0214 0.0000 0.0000 1750.1458 -7498.2519 298.0922 -9248.3977 -7496.2616 301.6781 -432.6248 -336.3847 30477.9308 -142.9261 -74.8653
TCL: Running FEP window  12: Lambda1 0.4499999999999996 Lambda2 0.39999999999999963 [dLambda -0.04999999999999999]
TCL: Setting parameter firsttimestep to 0
TCL: Setting parameter alchLambda to 0.4499999999999996
Info: NONBONDED TABLE R-SQUARED SPACING: 0.0625
Info: NONBONDED TABLE SIZE: 705 POINTS
TCL: Setting parameter alchLambda2 to 0.39999999999999963
Info: NONBONDED TABLE R-SQUARED SPACING: 0.0625
Info: NONBONDED TABLE SIZE: 705 POINTS
TCL: Running for 1500000 steps
ETITLE: TS BOND ANGLE DIHED IMPRP ELECT VDW BOUNDARY MISC KINETIC TOTAL TEMP POTENTIAL TOTALAVG TEMPAVG PRESSURE GPRESSURE VOLUME PRESSAVG GPRESSAVG
ENERGY: 0 0.9140 5.1950 1.8926 0.0000 -10635.4203 1379.2235 0.0000 0.0000 1749.2422 -7498.9530 297.9383 -9248.1952 -7498.9530 297.9383 -425.8537 -339.8442 30477.9308 -425.8537 -339.8442
ENERGY: 300000 0.0864 1.4457 0.8959 0.0000 -10744.6463 1486.6085 0.0000 0.0000 1751.8399 -7503.7700 298.3808 -9255.6099 -7514.2399 297.3311 521.0522 590.3365 30134.3638 181.3772 236.2882
ENERGY: 600000 2.0254 2.1290 1.7033 0.0000 -10810.3497 1479.7264 0.0000 0.0000 1753.2027 -7571.5629 298.6129 -9324.7657 -7537.5808 298.1293 55.2096 143.7858 30597.2967 91.9235 151.2462
ENERGY: 900000 2.2299 1.0655 2.2852 0.0000 -10599.0603 1405.6966 0.0000 0.0000 1768.7153 -7419.0678 301.2550 -9187.7831 -7509.4251 300.1598 -69.4257 18.1635 30437.1560 187.6317 261.0507
ENERGY: 1200000 0.7911 3.1751 1.5263 0.0000 -10748.4550 1452.4693 0.0000 0.0000 1795.9608 -7494.5324 305.8956 -9290.4932 -7500.0620 301.8672 -36.9874 -23.3776 30719.2242 163.9326 227.1965
ENERGY: 1500000 0.4523 2.9817 1.1587 0.0000 -10581.4205 1397.6130 0.0000 0.0000 1744.0703 -7435.1445 297.0574 -9179.2148 -7496.3814 302.1661 101.4290 167.9241 30181.6119 130.8472 195.7966
TCL: Running FEP window  13: Lambda1 0.39999999999999963 Lambda2 0.34999999999999964 [dLambda -0.04999999999999999]
TCL: Setting parameter firsttimestep to 0
TCL: Setting parameter alchLambda to 0.39999999999999963
Info: NONBONDED TABLE R-SQUARED SPACING: 0.0625
Info: NONBONDED TABLE SIZE: 705 POINTS
TCL: Setting parameter alchLambda2 to 0.34999999999999964
Info: NONBONDED TABLE R-SQUARED SPACING: 0.0625
Info: NONBONDED TABLE SIZE: 705 POINTS
TCL: Running for 1500000 steps
ETITLE: TS BOND ANGLE DIHED IMPRP ELECT VDW BOUNDARY MISC KINETIC TOTAL TEMP POTENTIAL TOTALAVG TEMPAVG PRESSURE GPRESSURE VOLUME PRESSAVG GPRESSAVG
ENERGY: 0 0.4523 2.9817 1.1587 0.0000 -10581.4198 1397.9507 0.0000 0.0000 1743.2014 -7435.6750 296.9094 -9178.8764 -7435.6750 296.9094 68.6120 166.5482 30181.6119 68.6120 166.5482
ENERGY: 300000 0.3824 2.3458 0.8024 0.0000 -10778.1557 1494.0284 0.0000 0.0000 1766.1145 -7514.4821 300.8121 -9280.5967 -7507.3302 296.7080 470.9777 511.0308 30257.6641 164.7837 223.2024
ENERGY: 600000 3.0950 2.6653 6.6419 0.0000 -10771.6621 1442.5472 0.0000 0.0000 1786.6503 -7530.0623 304.3098 -9316.7126 -7521.5973 298.3339 -141.1092 -36.2446 30452.4910 5.9409 62.5861
ENERGY: 900000 2.0860 2.6631 1.7835 0.0000 -10653.4192 1351.7972 0.0000 0.0000 1712.1042 -7582.9851 291.6128 -9295.0892 -7523.6282 297.5017 -934.9033 -924.7543 30801.6577 -79.3949 -24.5116
ENERGY: 1200000 1.1558 2.2025 1.8453 0.0000 -10789.7782 1508.6019 0.0000 0.0000 1751.5871 -7524.3854 298.3377 -9275.9726 -7516.3843 299.5490 618.8614 658.5032 30145.8055 -24.0646 28.8329
ENERGY: 1500000 3.3505 3.9041 2.1477 0.0000 -10631.4691 1327.1127 0.0000 0.0000 1796.8808 -7498.0733 306.0523 -9294.9541 -7509.1172 300.1768 -1037.5962 -998.2765 30392.0106 -112.1013 -63.4240
TCL: Running FEP window  14: Lambda1 0.34999999999999964 Lambda2 0.29999999999999966 [dLambda -0.04999999999999999]
TCL: Setting parameter firsttimestep to 0
TCL: Setting parameter alchLambda to 0.34999999999999964
Info: NONBONDED TABLE R-SQUARED SPACING: 0.0625
Info: NONBONDED TABLE SIZE: 705 POINTS
TCL: Setting parameter alchLambda2 to 0.29999999999999966
Info: NONBONDED TABLE R-SQUARED SPACING: 0.0625
Info: NONBONDED TABLE SIZE: 705 POINTS
TCL: Running for 1500000 steps
ETITLE: TS BOND ANGLE DIHED IMPRP ELECT VDW BOUNDARY MISC KINETIC TOTAL TEMP POTENTIAL TOTALAVG TEMPAVG PRESSURE GPRESSURE VOLUME PRESSAVG GPRESSAVG
ENERGY: 0 3.3505 3.9041 2.1477 0.0000 -10631.4674 1327.3309 0.0000 0.0000 1796.0148 -7498.7195 305.9048 -9294.7342 -7498.7195 305.9048 -1084.2472 -995.9177 30392.0106 -1084.2472 -995.9177
ENERGY: 300000 1.0927 1.3483 0.8649 0.0000 -10786.3544 1483.0342 0.0000 0.0000 1771.1995 -7528.8148 301.6782 -9300.0143 -7553.1358 302.4487 316.7761 441.3401 29965.6144 -1.8854 71.8877
ENERGY: 600000 3.0882 3.2395 1.1120 0.0000 -10724.6373 1415.7374 0.0000 0.0000 1732.3787 -7569.0815 295.0660 -9301.4602 -7550.7884 301.1424 -231.6904 -145.8370 30371.8240 -92.5259 4.8526
ENERGY: 900000 1.4501 1.3718 0.6419 0.0000 -10745.2796 1418.3466 0.0000 0.0000 1795.0385 -7528.4306 305.7385 -9323.4691 -7545.0508 300.8825 -405.0557 -299.5392 30240.3854 -36.3468 53.9953
ENERGY: 1200000 0.7888 3.0926 0.4901 0.0000 -10761.0148 1455.8129 0.0000 0.0000 1742.9666 -7557.8637 296.8694 -9300.8303 -7538.3738 300.0597 84.4672 157.2699 30068.6707 -174.8042 -85.2620
ENERGY: 1500000 1.6546 4.0112 0.3204 0.0000 -10761.2590 1448.2346 0.0000 0.0000 1756.5868 -7550.4515 299.1893 -9307.0383 -7540.9497 299.4506 -99.1525 -9.3002 30217.7790 -210.2039 -120.3112
TCL: Running FEP window  15: Lambda1 0.29999999999999966 Lambda2 0.24999999999999967 [dLambda -0.04999999999999999]
TCL: Setting parameter firsttimestep to 0
TCL: Setting parameter alchLambda to 0.29999999999999966
Info: NONBONDED TABLE R-SQUARED SPACING: 0.0625
Info: NONBONDED TABLE SIZE: 705 POINTS
TCL: Setting parameter alchLambda2 to 0.24999999999999967
Info: NONBONDED TABLE R-SQUARED SPACING: 0.0625
Info: NONBONDED TABLE SIZE: 705 POINTS
TCL: Running for 1500000 steps
ETITLE: TS BOND ANGLE DIHED IMPRP ELECT VDW BOUNDARY MISC KINETIC TOTAL TEMP POTENTIAL TOTALAVG TEMPAVG PRESSURE GPRESSURE VOLUME PRESSAVG GPRESSAVG
ENERGY: 0 1.6546 4.0112 0.3204 0.0000 -10761.2588 1448.5613 0.0000 0.0000 1755.7061 -7551.0052 299.0393 -9306.7113 -7551.0052 299.0393 -95.8877 -9.0439 30217.7790 -95.8877 -9.0439
ENERGY: 300000 2.3863 2.9096 2.3221 0.0000 -10720.7440 1462.2799 0.0000 0.0000 1742.2232 -7508.6228 296.7428 -9250.8460 -7505.9160 301.6361 345.4755 389.3323 30314.5999 233.9685 298.4368
ENERGY: 600000 1.8719 4.4718 1.9225 0.0000 -10615.3410 1357.3529 0.0000 0.0000 1707.3432 -7542.3787 290.8019 -9249.7219 -7495.3522 302.0351 -734.4102 -628.2433 30465.1325 40.9254 119.5365
ENERGY: 900000 1.7774 0.9236 2.2114 0.0000 -10648.4524 1426.9127 0.0000 0.0000 1703.2065 -7513.4208 290.0973 -9216.6273 -7494.8255 300.7065 -304.5743 -205.6089 30622.0398 -51.2385 33.3691
ENERGY: 1200000 1.9981 3.1648 0.9153 0.0000 -10673.8588 1392.9006 0.0000 0.0000 1817.9758 -7456.9044 309.6453 -9274.8801 -7496.1008 301.1768 -615.8898 -523.9916 30601.8613 -55.5110 27.7043
ENERGY: 1500000 2.9487 2.0516 0.8187 0.0000 -10580.5402 1344.0127 0.0000 0.0000 1759.3698 -7471.3386 299.6633 -9230.7084 -7494.7078 300.7697 -920.4457 -846.4691 30639.6248 -186.4163 -108.3165
TCL: Running FEP window  16: Lambda1 0.24999999999999967 Lambda2 0.19999999999999968 [dLambda -0.04999999999999999]
TCL: Setting parameter firsttimestep to 0
TCL: Setting parameter alchLambda to 0.24999999999999967
Info: NONBONDED TABLE R-SQUARED SPACING: 0.0625
Info: NONBONDED TABLE SIZE: 705 POINTS
TCL: Setting parameter alchLambda2 to 0.19999999999999968
Info: NONBONDED TABLE R-SQUARED SPACING: 0.0625
Info: NONBONDED TABLE SIZE: 705 POINTS
TCL: Running for 1500000 steps
ETITLE: TS BOND ANGLE DIHED IMPRP ELECT VDW BOUNDARY MISC KINETIC TOTAL TEMP POTENTIAL TOTALAVG TEMPAVG PRESSURE GPRESSURE VOLUME PRESSAVG GPRESSAVG
ENERGY: 0 2.9487 2.0516 0.8187 0.0000 -10580.5406 1344.2589 0.0000 0.0000 1758.4877 -7471.9749 299.5130 -9230.4627 -7471.9749 299.5130 -916.5627 -848.3113 30639.6248 -916.5627 -848.3113
ENERGY: 300000 2.1214 3.0303 0.9682 0.0000 -10764.6130 1438.1824 0.0000 0.0000 1797.7093 -7522.6014 306.1934 -9320.3107 -7516.5272 299.4348 -120.6714 -129.4158 30510.7793 -308.2815 -300.2144
ENERGY: 600000 0.4800 1.0746 1.7794 0.0000 -10640.8578 1444.8865 0.0000 0.0000 1751.3367 -7441.3007 298.2950 -9192.6374 -7486.1276 301.5925 411.5148 506.6483 29882.6351 2.1230 43.7699
ENERGY: 900000 1.8233 1.4718 4.2047 0.0000 -10716.0534 1448.4351 0.0000 0.0000 1776.6958 -7483.4227 302.6143 -9260.1185 -7492.7245 300.2781 -83.9060 -49.8010 30473.6447 -113.0417 -70.3081
ENERGY: 1200000 0.3983 2.5279 1.4858 0.0000 -10835.9696 1506.9555 0.0000 0.0000 1737.1451 -7587.4569 295.8779 -9324.6020 -7504.0206 300.5779 314.1173 368.2891 30139.1041 25.7886 78.7831
ENERGY: 1500000 2.1725 2.0647 0.9748 0.0000 -10565.5042 1333.9155 0.0000 0.0000 1766.7838 -7459.5928 300.9261 -9226.3766 -7496.9673 300.7914 -981.4491 -909.4213 31078.3632 -70.1448 -15.9416
TCL: Running FEP window  17: Lambda1 0.19999999999999968 Lambda2 0.1499999999999997 [dLambda -0.04999999999999999]
TCL: Setting parameter firsttimestep to 0
TCL: Setting parameter alchLambda to 0.19999999999999968
Info: NONBONDED TABLE R-SQUARED SPACING: 0.0625
Info: NONBONDED TABLE SIZE: 705 POINTS
TCL: Setting parameter alchLambda2 to 0.1499999999999997
Info: NONBONDED TABLE R-SQUARED SPACING: 0.0625
Info: NONBONDED TABLE SIZE: 705 POINTS
TCL: Running for 1500000 steps
ETITLE: TS BOND ANGLE DIHED IMPRP ELECT VDW BOUNDARY MISC KINETIC TOTAL TEMP POTENTIAL TOTALAVG TEMPAVG PRESSURE GPRESSURE VOLUME PRESSAVG GPRESSAVG
ENERGY: 0 2.1725 2.0647 0.9748 0.0000 -10565.5048 1334.1809 0.0000 0.0000 1765.9083 -7460.2035 300.7769 -9226.1119 -7460.2035 300.7769 -985.9305 -909.5420 31078.3632 -985.9305 -909.5420
ENERGY: 300000 1.6892 7.3736 3.1724 0.0000 -10840.9497 1494.5821 0.0000 0.0000 1798.4131 -7535.7193 306.3133 -9334.1323 -7478.4277 302.0208 316.7386 382.5781 30190.5495 -106.3803 -46.3772
ENERGY: 600000 1.2570 4.8836 1.8271 0.0000 -10662.0651 1426.3496 0.0000 0.0000 1782.1138 -7445.6340 303.5371 -9227.7479 -7479.8486 302.7021 -263.3317 -231.7341 30792.0490 229.7997 271.1702
ENERGY: 900000 1.5748 2.1655 2.8908 0.0000 -10765.5242 1475.5068 0.0000 0.0000 1771.3265 -7512.0598 301.6998 -9283.3863 -7486.1444 303.0695 415.2367 358.0998 30007.1592 219.2348 258.3614
ENERGY: 1200000 2.6578 1.9562 3.1245 0.0000 -10819.9505 1538.4135 0.0000 0.0000 1721.0802 -7552.7183 293.1416 -9273.7985 -7491.1145 302.9542 845.7713 920.2063 29938.3001 298.1037 346.6439
ENERGY: 1500000 1.7652 0.9780 2.0302 0.0000 -10671.6113 1462.6681 0.0000 0.0000 1741.7844 -7462.3854 296.6681 -9204.1698 -7486.6494 302.1155 461.1764 570.8051 30159.0155 239.1274 292.1569
TCL: Running FEP window  18: Lambda1 0.1499999999999997 Lambda2 0.09999999999999969 [dLambda -0.05 ]
TCL: Setting parameter firsttimestep to 0
TCL: Setting parameter alchLambda to 0.1499999999999997
Info: NONBONDED TABLE R-SQUARED SPACING: 0.0625
Info: NONBONDED TABLE SIZE: 705 POINTS
TCL: Setting parameter alchLambda2 to 0.09999999999999969
Info: NONBONDED TABLE R-SQUARED SPACING: 0.0625
Info: NONBONDED TABLE SIZE: 705 POINTS
TCL: Running for 1500000 steps
ETITLE: TS BOND ANGLE DIHED IMPRP ELECT VDW BOUNDARY MISC KINETIC TOTAL TEMP POTENTIAL TOTALAVG TEMPAVG PRESSURE GPRESSURE VOLUME PRESSAVG GPRESSAVG
ENERGY: 0 1.7652 0.9780 2.0302 0.0000 -10671.6115 1462.5673 0.0000 0.0000 1740.8937 -7463.3771 296.5164 -9204.2708 -7463.3771 296.5164 488.2959 567.1275 30159.0155 488.2959 567.1275
ENERGY: 300000 1.6092 2.6919 0.2880 0.0000 -10765.7569 1474.4663 0.0000 0.0000 1733.7158 -7552.9856 295.2938 -9286.7014 -7494.4169 301.9738 217.7572 255.3439 30210.5811 181.4085 245.3735
ENERGY: 600000 1.2227 5.1910 1.5950 0.0000 -10771.5279 1454.7801 0.0000 0.0000 1765.2078 -7543.5313 300.6576 -9308.7391 -7498.6632 303.3041 -99.2821 -27.8901 30371.7391 103.9147 162.6413
ENERGY: 900000 5.0902 1.2288 0.5101 0.0000 -10697.2314 1427.3457 0.0000 0.0000 1797.5106 -7465.5460 306.1596 -9263.0566 -7498.1837 302.3676 -430.2281 -385.8843 31049.2347 48.7650 98.2577
ENERGY: 1200000 1.8234 2.7941 1.0105 0.0000 -10722.5130 1473.8644 0.0000 0.0000 1773.1935 -7469.8271 302.0178 -9243.0207 -7505.3369 301.5679 284.5769 328.1366 30341.7333 -29.3229 23.8638
ENERGY: 1500000 5.1900 2.7491 2.5012 0.0000 -10572.7485 1377.8140 0.0000 0.0000 1802.3463 -7382.1479 306.9832 -9184.4942 -7501.5377 301.8216 -227.9961 -200.1606 30237.7946 65.3182 115.5584
TCL: Running FEP window  19: Lambda1 0.09999999999999969 Lambda2 0.049999999999999684 [dLambda -0.05 ]
TCL: Setting parameter firsttimestep to 0
TCL: Setting parameter alchLambda to 0.09999999999999969
Info: NONBONDED TABLE R-SQUARED SPACING: 0.0625
Info: NONBONDED TABLE SIZE: 705 POINTS
TCL: Setting parameter alchLambda2 to 0.049999999999999684
Info: NONBONDED TABLE R-SQUARED SPACING: 0.0625
Info: NONBONDED TABLE SIZE: 705 POINTS
TCL: Running for 1500000 steps
ETITLE: TS BOND ANGLE DIHED IMPRP ELECT VDW BOUNDARY MISC KINETIC TOTAL TEMP POTENTIAL TOTALAVG TEMPAVG PRESSURE GPRESSURE VOLUME PRESSAVG GPRESSAVG
ENERGY: 0 5.1900 2.7491 2.5012 0.0000 -10572.7491 1377.9197 0.0000 0.0000 1801.4646 -7382.9244 306.8330 -9184.3890 -7382.9244 306.8330 -285.7197 -203.3553 30237.7946 -285.7197 -203.3553
ENERGY: 300000 0.4822 2.6897 2.5212 0.0000 -10608.7955 1366.2599 0.0000 0.0000 1752.9473 -7483.8953 298.5694 -9236.8426 -7452.6180 300.5483 -611.7378 -540.9198 30624.9770 -132.4704 -86.0515
ENERGY: 600000 0.4154 2.2366 3.5044 0.0000 -10774.5918 1485.7049 0.0000 0.0000 1729.6528 -7553.0777 294.6018 -9282.7306 -7492.5204 298.8809 423.5639 490.3423 30107.9146 -185.0687 -138.0634
ENERGY: 900000 0.1688 2.6329 0.3377 0.0000 -10768.8746 1494.9114 0.0000 0.0000 1767.6948 -7503.1291 301.0812 -9270.8238 -7485.2911 299.9919 319.3719 371.6977 30447.9215 -183.5197 -142.0419
ENERGY: 1200000 2.7357 2.1166 2.3888 0.0000 -10820.9696 1508.7504 0.0000 0.0000 1750.3497 -7554.6284 298.1269 -9304.9780 -7500.3336 300.5129 536.5732 579.6417 30087.5307 -37.2096 11.6768
ENERGY: 1500000 0.8453 4.7291 1.5683 0.0000 -10733.9796 1443.4917 0.0000 0.0000 1803.8225 -7479.5228 307.2346 -9283.3453 -7501.9132 301.0591 -80.9782 5.8167 30307.5111 -105.6378 -58.1208
TCL: Running FEP window  20: Lambda1 0.049999999999999684 Lambda2 0.0    [dLambda -0.049999999999999684]
TCL: Setting parameter firsttimestep to 0
TCL: Setting parameter alchLambda to 0.049999999999999684
Info: NONBONDED TABLE R-SQUARED SPACING: 0.0625
Info: NONBONDED TABLE SIZE: 705 POINTS
TCL: Setting parameter alchLambda2 to 0.0
Info: NONBONDED TABLE R-SQUARED SPACING: 0.0625
Info: NONBONDED TABLE SIZE: 705 POINTS
TCL: Running for 1500000 steps
ETITLE: TS BOND ANGLE DIHED IMPRP ELECT VDW BOUNDARY MISC KINETIC TOTAL TEMP POTENTIAL TOTALAVG TEMPAVG PRESSURE GPRESSURE VOLUME PRESSAVG GPRESSAVG
ENERGY: 0 0.8453 4.7291 1.5683 0.0000 -10733.9792 1442.7393 0.0000 0.0000 1802.9434 -7481.1538 307.0849 -9284.0972 -7481.1538 307.0849 -70.4061 1.7472 30307.5111 -70.4061 1.7472
ENERGY: 300000 0.9018 1.6873 1.8716 0.0000 -10646.3239 1387.5813 0.0000 0.0000 1797.9100 -7456.3719 306.2276 -9254.2819 -7500.8720 299.9977 -467.4829 -387.3618 30619.4371 -173.1080 -135.0100
ENERGY: 600000 1.1180 3.3210 0.6537 0.0000 -10663.3805 1417.9677 0.0000 0.0000 1745.3739 -7494.9462 297.2794 -9240.3201 -7482.2533 300.6719 -221.1237 -175.7757 30407.6895 -112.7517 -61.5468
ENERGY: 900000 1.0632 5.6850 1.3693 0.0000 -10696.8614 1438.0373 0.0000 0.0000 1747.7373 -7502.9693 297.6820 -9250.7066 -7487.6889 299.9030 135.9105 232.7560 30001.7849 -225.0240 -156.8313
ENERGY: 1200000 0.9159 1.4778 0.3315 0.0000 -10875.4364 1569.6759 0.0000 0.0000 1726.8838 -7576.1517 294.1301 -9303.0355 -7488.3706 300.9208 991.2577 1061.9881 29927.7673 -170.8034 -107.0741
ENERGY: 1500000 0.7652 2.6890 1.4524 0.0000 -10729.1548 1451.3275 0.0000 0.0000 1763.5901 -7509.3306 300.3821 -9272.9207 -7481.1707 301.3980 489.5769 562.3442 29621.9527 -76.8166 -11.8468
TCL: Exiting due to exit command.
