Info: SIMULATION PARAMETERS:
Info: TIMESTEP               2
Info: NUMBER OF STEPS        0
Info: STEPS PER CYCLE        10
Info: PERIODIC CELL BASIS 1  31.7909 0 0
Info: PERIODIC CELL BASIS 2  0 29.711 0
Info: PERIODIC CELL BASIS 3  0 0 32.4047
Info: PERIODIC CELL CENTER   0 0 0
Info: WRAPPING WATERS AROUND PERIODIC BOUNDARIES ON OUTPUT.
Info: WRAPPING ALL CLUSTERS AROUND PERIODIC BOUNDARIES ON OUTPUT.
Info: FIRST LDB TIMESTEP     50
Info: LAST LDB TIMESTEP     -1
Info: HOM BACKGROUND SCALING 1
Info: PME BACKGROUND SCALING 1
Info: MIN ATOMS PER PATCH    40
Info: EMPTY PATCH LOAD       40 ATOMS
Info: VELOCITY FILE          mobley_4780078_equil.vel
Info: CENTER OF MASS MOVING INITIALLY? NO
Info: DIELECTRIC             1
Info: EXCLUDE                SCALED ONE-FOUR
Info: 1-4 ELECTROSTATICS SCALED BY 0.833333
Info: MODIFIED 1-4 VDW PARAMETERS WILL BE USED
Info: DCD FILENAME           mobley_4780078_prod.dcd
Info: DCD FREQUENCY          100000
Info: DCD FIRST STEP         100000
Info: DCD FILE WILL CONTAIN UNIT CELL DATA
Info: XST FILENAME           mobley_4780078_prod.xst
Info: XST FREQUENCY          100000
Info: NO VELOCITY DCD OUTPUT
Info: NO FORCE DCD OUTPUT
Info: OUTPUT FILENAME        mobley_4780078_prod
Info: BINARY OUTPUT FILES WILL BE USED
Info: RESTART FILENAME       mobley_4780078_prod.restart
Info: RESTART FREQUENCY      100000
Info: BINARY RESTART FILES WILL BE USED
Info: CUTOFF                 9
Info: PAIRLIST DISTANCE      11
Info: PAIRLIST SHRINK RATE   0.01
Info: PAIRLIST GROW RATE     0.01
Info: PAIRLIST TRIGGER       0.3
Info: PAIRLISTS PER CYCLE    2
Info: PAIRLISTS ENABLED
Info: MARGIN                 2
Info: HYDROGEN GROUP CUTOFF  2.5
Info: PATCH DIMENSION        15.5
Info: ENERGY OUTPUT STEPS    100000
Info: ENERGY EVALUATION STEPS    100000
Info: OUTPUT ENERGY PRECISION 4
Info: CROSSTERM ENERGY INCLUDED IN DIHEDRAL
Info: TIMING OUTPUT STEPS    1000000
Info: PRESSURE OUTPUT STEPS  100000
Info: ALCHEMICAL FEP ON
Info: FEP CURRENT LAMBDA VALUE     1
Info: FEP COMPARISON LAMBDA VALUE  0.95
Info: FEP INTRA-ALCHEMICAL NON-BONDED INTERACTIONS WILL BE RETAINED
Info: FEP INTRA-ALCHEMICAL BONDED INTERACTIONS WILL BE RETAINED
Info: FEP VDW SHIFTING COEFFICIENT 5
Info: FEP ELEC. ACTIVE FOR ANNIHILATED PARTICLES BETWEEN LAMBDA = 0 AND LAMBDA = 0.5
Info: FEP ELEC. ACTIVE FOR EXNIHILATED PARTICLES BETWEEN LAMBDA = 0.5 AND LAMBDA = 1
Info: FEP VDW ACTIVE FOR ANNIHILATED PARTICLES BETWEEN LAMBDA = 0 AND LAMBDA = 1
Info: FEP VDW ACTIVE FOR EXNIHILATED PARTICLES BETWEEN LAMBDA = 0 AND LAMBDA = 1
Info: FEP BOND ACTIVE FOR ANNIHILATED PARTICLES BETWEEN LAMBDA = 1 AND LAMBDA = 1
Info: FEP BOND ACTIVE FOR EXNIHILATED PARTICLES BETWEEN LAMBDA = 0 AND LAMBDA = 0
Info: LANGEVIN DYNAMICS ACTIVE
Info: LANGEVIN TEMPERATURE   300
Info: LANGEVIN USING BBK INTEGRATOR
Info: LANGEVIN DAMPING COEFFICIENT IS 1 INVERSE PS
Info: LANGEVIN DYNAMICS APPLIED TO HYDROGENS
Info: LANGEVIN PISTON PRESSURE CONTROL ACTIVE
Info:        TARGET PRESSURE IS 1.01325 BAR
Info:     OSCILLATION PERIOD IS 50 FS
Info:             DECAY TIME IS 25 FS
Info:     PISTON TEMPERATURE IS 300 K
Info:       PRESSURE CONTROL IS GROUP-BASED
Info:    INITIAL STRAIN RATE IS -0.000151051 -0.000151051 -0.000151051
Info:       CELL FLUCTUATION IS ISOTROPIC
Info: PARTICLE MESH EWALD (PME) ACTIVE
Info: PME TOLERANCE               1e-06
Info: PME EWALD COEFFICIENT       0.348832
Info: PME INTERPOLATION ORDER     4
Info: PME GRID DIMENSIONS         32 32 36
Info: PME MAXIMUM GRID SPACING    1
Info: PME CALCULATION WILL BE PERFORMED ON GPU
Info: FULL ELECTROSTATIC EVALUATION FREQUENCY      2
Info: USING VERLET I (r-RESPA) MTS SCHEME.
Info: C1 SPLITTING OF LONG RANGE ELECTROSTATICS
Info: PLACING ATOMS IN PATCHES BY HYDROGEN GROUPS
Info: RIGID BONDS TO HYDROGEN : ALL
Info:         ERROR TOLERANCE : 1e-08
Info:          MAX ITERATIONS : 100
Info: RIGID WATER USING SETTLE ALGORITHM
Info: RANDOM NUMBER SEED     1743623351
Info: USE HYDROGEN BONDS?    NO
Info: Using AMBER format force field!
Info: AMBER PARM FILE        mobley_4780078.prmtop
Info: COORDINATE PDB         mobley_4780078.pdb
Info: Exclusions will be read from PARM file!
Info: SCNB (VDW SCALING)     2
Info: USING ARITHMETIC MEAN TO COMBINE L-J SIGMA PARAMETERS
Info: BINARY COORDINATES     mobley_4780078_equil.coor
Info: SUMMARY OF PARAMETERS:
Info: 8 BONDS
Info: 7 ANGLES
Info:   7 HARMONIC
Info:   0 COSINE-BASED
Info: 4 DIHEDRAL
Info: 0 IMPROPER
Info: 0 CROSSTERM
Info: 0 VDW
Info: 28 VDW_PAIRS
Info: 0 NBTHOLE_PAIRS
Info: To read alchdata from file: mobley_4780078.pdb
Info: To read alchflag data from column: 5
Info: STRUCTURE SUMMARY:
Info: 2962 ATOMS
Info: 2962 BONDS
Info: 31 ANGLES
Info: 44 DIHEDRALS
Info: 0 IMPROPERS
Info: 0 CROSSTERMS
Info: 3028 EXCLUSIONS
Info: 2953 RIGID BONDS
Info: ALCH: 0 ATOMS TO DISAPPEAR IN FINAL STATE
Info: ALCH: 19 ATOMS TO APPEAR IN FINAL STATE
Info: 5933 DEGREES OF FREEDOM
Info: 990 HYDROGEN GROUPS
Info: 4 ATOMS IN LARGEST HYDROGEN GROUP
Info: 990 MIGRATION GROUPS
Info: 4 ATOMS IN LARGEST MIGRATION GROUP
Info: TOTAL MASS = 17795.9 amu
Info: TOTAL CHARGE = 2.23517e-08 e
Info: MASS DENSITY = 0.965494 g/cm^3
Info: ATOM DENSITY = 0.0967735 atoms/A^3
Info: ADDED 0 IMPLICIT EXCLUSIONS
Info: NONBONDED TABLE R-SQUARED SPACING: 0.0625
Info: NONBONDED TABLE SIZE: 705 POINTS
Info: REMOVING COM VELOCITY 0.312571 0.108427 0.0200265
Info: Use 3D box decompostion in PME FFT.
Info: Updated CUDA force table with 4096 elements.
Info: Updated CUDA LJ table with 7 x 7 elements.
Info: Found 21 unique exclusion lists needing 56 bytes
TCL: Running for 1500000 steps
ETITLE: TS BOND ANGLE DIHED IMPRP ELECT VDW BOUNDARY MISC KINETIC TOTAL TEMP POTENTIAL TOTALAVG TEMPAVG PRESSURE GPRESSURE VOLUME PRESSAVG GPRESSAVG
ENERGY: 0 1.7115 5.4912 3.3642 0.0000 -10660.3902 1397.3466 0.0000 0.0000 1779.7815 -7472.6952 301.9136 -9252.4767 -7472.6952 301.9136 -384.4650 -300.2859 30607.5542 -384.4650 -300.2859
ENERGY: 300000 3.3651 8.3890 2.7957 0.0000 -10719.2974 1408.1182 0.0000 0.0000 1770.5611 -7526.0683 300.3495 -9296.6294 -7487.3535 300.0246 -177.7684 -99.2545 30545.2430 -153.7047 -95.0667
ENERGY: 600000 3.2758 5.7923 2.6951 0.0000 -10864.6276 1495.0558 0.0000 0.0000 1789.4693 -7568.3393 303.5570 -9357.8086 -7499.3510 299.1924 224.3255 213.7729 30552.3378 -109.2527 -65.9439
ENERGY: 900000 0.8437 4.9217 4.0565 0.0000 -10619.9290 1363.2805 0.0000 0.0000 1808.1948 -7438.6317 306.7335 -9246.8264 -7504.5382 298.5642 -503.3637 -415.7868 30686.8206 -49.1767 -2.3815
ENERGY: 1200000 4.7805 6.2302 7.0568 0.0000 -10594.6270 1415.2228 0.0000 0.0000 1745.0066 -7416.3301 296.0146 -9161.3367 -7505.2869 298.0379 -191.3583 -144.9902 31042.4467 -55.1902 -6.4416
ENERGY: 1500000 5.3561 2.1813 3.7691 0.0000 -10734.7107 1426.9024 0.0000 0.0000 1776.7956 -7519.7063 301.4071 -9296.5018 -7492.2265 299.2640 -41.9740 29.8506 30390.6322 -97.3088 -45.7134
TCL: Running FEP window   2: Lambda1 0.95   Lambda2 0.8999999999999999 [dLambda -0.050000000000000044]
TCL: Setting parameter firsttimestep to 0
TCL: Setting parameter alchLambda to 0.95
Info: NONBONDED TABLE R-SQUARED SPACING: 0.0625
Info: NONBONDED TABLE SIZE: 705 POINTS
TCL: Setting parameter alchLambda2 to 0.8999999999999999
Info: NONBONDED TABLE R-SQUARED SPACING: 0.0625
Info: NONBONDED TABLE SIZE: 705 POINTS
TCL: Running for 1500000 steps
ETITLE: TS BOND ANGLE DIHED IMPRP ELECT VDW BOUNDARY MISC KINETIC TOTAL TEMP POTENTIAL TOTALAVG TEMPAVG PRESSURE GPRESSURE VOLUME PRESSAVG GPRESSAVG
ENERGY: 0 5.3561 2.1813 3.7691 0.0000 -10733.0551 1426.0715 0.0000 0.0000 1775.9598 -7519.7173 301.2653 -9295.6771 -7519.7173 301.2653 -94.0125 3.9618 30390.6322 -94.0125 3.9618
ENERGY: 300000 2.2075 6.1607 2.0133 0.0000 -10560.2685 1313.7802 0.0000 0.0000 1823.0923 -7413.0145 309.2607 -9236.1068 -7453.6314 302.6688 -751.2364 -729.4983 30593.5905 -91.3418 -24.3578
ENERGY: 600000 4.0598 5.0775 1.5971 0.0000 -10671.5351 1424.6764 0.0000 0.0000 1741.1666 -7494.9578 295.3632 -9236.1244 -7450.3177 301.9798 -176.9056 -86.5835 30695.9658 -154.9562 -73.2745
ENERGY: 900000 3.4844 4.3323 2.4152 0.0000 -10720.4681 1454.9421 0.0000 0.0000 1803.8576 -7451.4364 305.9978 -9255.2940 -7454.0889 302.7504 159.6439 249.3001 30577.7707 -126.0682 -45.7183
ENERGY: 1200000 2.5349 8.9927 3.7677 0.0000 -10753.6033 1406.8681 0.0000 0.0000 1800.4952 -7530.9448 305.4274 -9331.4400 -7470.5365 301.7628 -546.9296 -456.2062 30529.7472 -167.5315 -92.1424
ENERGY: 1500000 2.7674 10.3353 1.7443 0.0000 -10728.6784 1453.7837 0.0000 0.0000 1749.8704 -7510.1771 296.8397 -9260.0476 -7477.7546 301.7451 76.1903 118.6308 30714.4761 -206.7176 -137.6826
TCL: Running FEP window   3: Lambda1 0.8999999999999999 Lambda2 0.8499999999999999 [dLambda -0.050000000000000044]
TCL: Setting parameter firsttimestep to 0
TCL: Setting parameter alchLambda to 0.8999999999999999
Info: NONBONDED TABLE R-SQUARED SPACING: 0.0625
Info: NONBONDED TABLE SIZE: 705 POINTS
TCL: Setting parameter alchLambda2 to 0.8499999999999999
Info: NONBONDED TABLE R-SQUARED SPACING: 0.0625
Info: NONBONDED TABLE SIZE: 705 POINTS
TCL: Running for 1500000 steps
ETITLE: TS BOND ANGLE DIHED IMPRP ELECT VDW BOUNDARY MISC KINETIC TOTAL TEMP POTENTIAL TOTALAVG TEMPAVG PRESSURE GPRESSURE VOLUME PRESSAVG GPRESSAVG
ENERGY: 0 2.7674 10.3353 1.7443 0.0000 -10726.4038 1453.2155 0.0000 0.0000 1748.9529 -7509.3883 296.6840 -9258.3412 -7509.3883 296.6840 11.3358 105.3427 30714.4761 11.3358 105.3427
ENERGY: 300000 2.8953 8.5752 0.6095 0.0000 -10740.0137 1423.3847 0.0000 0.0000 1780.5109 -7524.0381 302.0374 -9304.5490 -7500.0205 300.0513 -340.4341 -299.3010 30603.6284 -17.0990 32.7200
ENERGY: 600000 3.2408 5.4958 3.5286 0.0000 -10693.1163 1396.3415 0.0000 0.0000 1783.7561 -7500.7534 302.5879 -9284.5096 -7517.8771 299.4143 -285.1543 -169.1250 30348.5079 -129.1589 -60.6732
ENERGY: 900000 2.2540 8.3725 2.0569 0.0000 -10800.0265 1494.0129 0.0000 0.0000 1751.6893 -7541.6409 297.1482 -9293.3302 -7521.9375 299.5191 277.7429 299.4846 30571.8095 -116.2178 -54.4306
ENERGY: 1200000 7.0130 5.8999 3.8986 0.0000 -10826.9681 1542.2926 0.0000 0.0000 1749.6238 -7518.2402 296.7978 -9267.8640 -7521.7935 299.2137 783.6120 857.5086 30507.3921 33.9556 100.1631
ENERGY: 1500000 6.2846 3.0642 2.5378 0.0000 -10694.1381 1371.6038 0.0000 0.0000 1805.4505 -7505.1972 306.2680 -9310.6477 -7520.8751 300.1775 -901.9516 -821.1717 30863.8564 11.7696 75.0514
TCL: Running FEP window   4: Lambda1 0.8499999999999999 Lambda2 0.7999999999999998 [dLambda -0.050000000000000044]
TCL: Setting parameter firsttimestep to 0
TCL: Setting parameter alchLambda to 0.8499999999999999
Info: NONBONDED TABLE R-SQUARED SPACING: 0.0625
Info: NONBONDED TABLE SIZE: 705 POINTS
TCL: Setting parameter alchLambda2 to 0.7999999999999998
Info: NONBONDED TABLE R-SQUARED SPACING: 0.0625
Info: NONBONDED TABLE SIZE: 705 POINTS
TCL: Running for 1500000 steps
ETITLE: TS BOND ANGLE DIHED IMPRP ELECT VDW BOUNDARY MISC KINETIC TOTAL TEMP POTENTIAL TOTALAVG TEMPAVG PRESSURE GPRESSURE VOLUME PRESSAVG GPRESSAVG
ENERGY: 0 6.2846 3.0642 2.5378 0.0000 -10693.2324 1371.7278 0.0000 0.0000 1804.5657 -7505.0524 306.1179 -9309.6181 -7505.0524 306.1179 -917.9858 -828.9662 30863.8564 -917.9858 -828.9662
ENERGY: 300000 2.6842 6.1321 6.7435 0.0000 -10457.2959 1302.6204 0.0000 0.0000 1752.2127 -7386.9030 297.2370 -9139.1157 -7485.3406 302.6155 -851.9976 -764.0442 30731.6127 -63.0432 -27.0657
ENERGY: 600000 5.2175 5.3123 3.0490 0.0000 -10730.2450 1415.6378 0.0000 0.0000 1815.8646 -7485.1637 308.0346 -9301.0283 -7494.4510 303.7377 -274.3231 -227.0560 30397.8677 -272.3102 -214.7914
ENERGY: 900000 2.6873 6.0135 3.1869 0.0000 -10817.7835 1490.3674 0.0000 0.0000 1761.4708 -7554.0576 298.8075 -9315.5284 -7507.8876 302.2821 275.8253 438.1688 30208.4127 -149.8526 -78.8406
ENERGY: 1200000 3.5506 6.1542 2.5716 0.0000 -10706.4354 1486.2300 0.0000 0.0000 1754.3060 -7453.6230 297.5921 -9207.9290 -7509.2921 301.5326 618.2723 659.6107 30318.4878 2.5587 76.1921
ENERGY: 1500000 7.0268 6.1953 3.4095 0.0000 -10584.5719 1379.5702 0.0000 0.0000 1774.8074 -7413.5627 301.0699 -9188.3702 -7505.1741 301.2941 -366.4917 -355.4190 30530.8030 -3.0848 61.6814
TCL: Running FEP window   5: Lambda1 0.7999999999999998 Lambda2 0.7499999999999998 [dLambda -0.050000000000000044]
TCL: Setting parameter firsttimestep to 0
TCL: Setting parameter alchLambda to 0.7999999999999998
Info: NONBONDED TABLE R-SQUARED SPACING: 0.0625
Info: NONBONDED TABLE SIZE: 705 POINTS
TCL: Setting parameter alchLambda2 to 0.7499999999999998
Info: NONBONDED TABLE R-SQUARED SPACING: 0.0625
Info: NONBONDED TABLE SIZE: 705 POINTS
TCL: Running for 1500000 steps
ETITLE: TS BOND ANGLE DIHED IMPRP ELECT VDW BOUNDARY MISC KINETIC TOTAL TEMP POTENTIAL TOTALAVG TEMPAVG PRESSURE GPRESSURE VOLUME PRESSAVG GPRESSAVG
ENERGY: 0 7.0268 6.1953 3.4095 0.0000 -10583.7437 1379.9132 0.0000 0.0000 1773.9128 -7413.2861 300.9181 -9187.1989 -7413.2861 300.9181 -435.5770 -358.2724 30530.8030 -435.5770 -358.2724
ENERGY: 300000 4.2794 4.7010 8.6038 0.0000 -10707.6427 1416.6431 0.0000 0.0000 1764.2961 -7509.1192 299.2868 -9273.4154 -7481.3395 301.8996 -479.7884 -367.1395 30743.4264 -140.7619 -63.9582
ENERGY: 600000 2.2642 6.8106 1.4730 0.0000 -10764.2993 1434.0144 0.0000 0.0000 1744.4416 -7575.2956 295.9187 -9319.7372 -7494.6282 300.7705 -315.4125 -268.1217 30715.6827 -21.4327 51.5750
ENERGY: 900000 3.7043 3.1210 2.6352 0.0000 -10763.7115 1452.1143 0.0000 0.0000 1752.6110 -7549.5258 297.3046 -9302.1367 -7503.8453 300.9068 60.4321 134.8691 30298.5071 -35.8518 42.2761
ENERGY: 1200000 1.7858 6.8036 6.0947 0.0000 -10682.1593 1401.1186 0.0000 0.0000 1802.8005 -7463.5560 305.8185 -9266.3566 -7504.8749 300.8028 -273.0945 -161.4069 30421.3248 -89.1808 -19.6342
ENERGY: 1500000 3.1631 9.9053 3.8895 0.0000 -10550.4350 1354.3299 0.0000 0.0000 1776.8718 -7402.2753 301.4200 -9179.1472 -7498.5188 302.1840 -383.0338 -311.2679 30465.5327 -77.2646 -15.6065
TCL: Running FEP window   6: Lambda1 0.7499999999999998 Lambda2 0.6999999999999997 [dLambda -0.050000000000000044]
TCL: Setting parameter firsttimestep to 0
TCL: Setting parameter alchLambda to 0.7499999999999998
Info: NONBONDED TABLE R-SQUARED SPACING: 0.0625
Info: NONBONDED TABLE SIZE: 705 POINTS
TCL: Setting parameter alchLambda2 to 0.6999999999999997
Info: NONBONDED TABLE R-SQUARED SPACING: 0.0625
Info: NONBONDED TABLE SIZE: 705 POINTS
TCL: Running for 1500000 steps
ETITLE: TS BOND ANGLE DIHED IMPRP ELECT VDW BOUNDARY MISC KINETIC TOTAL TEMP POTENTIAL TOTALAVG TEMPAVG PRESSURE GPRESSURE VOLUME PRESSAVG GPRESSAVG
ENERGY: 0 3.1631 9.9053 3.8895 0.0000 -10548.5047 1353.2092 0.0000 0.0000 1776.0149 -7402.3227 301.2747 -9178.3376 -7402.3227 301.2747 -426.0515 -327.1769 30465.5327 -426.0515 -327.1769
ENERGY: 300000 1.5273 5.5956 2.4535 0.0000 -10630.1529 1366.0337 0.0000 0.0000 1823.9519 -7430.5909 309.4065 -9254.5428 -7441.6495 304.6247 -402.8791 -292.0609 30472.4703 -370.5680 -310.3357
ENERGY: 600000 6.0301 8.6161 2.8296 0.0000 -10667.5469 1371.5126 0.0000 0.0000 1780.9173 -7497.6412 302.1063 -9278.5585 -7480.6835 301.0284 -890.3122 -837.2900 30919.0904 -488.3433 -408.1484
ENERGY: 900000 2.5325 6.1608 1.2977 0.0000 -10763.7584 1466.9854 0.0000 0.0000 1784.6807 -7502.1012 302.7447 -9286.7820 -7470.0215 302.1576 286.1313 367.5833 30317.1589 -448.3112 -375.9871
ENERGY: 1200000 1.6359 5.9275 1.5556 0.0000 -10782.9580 1470.7105 0.0000 0.0000 1737.8315 -7565.2970 294.7974 -9303.1284 -7487.0137 300.6472 95.2970 139.3108 30531.1841 -365.9151 -301.6492
ENERGY: 1500000 4.8915 7.2680 2.9545 0.0000 -10720.2849 1450.4772 0.0000 0.0000 1762.5600 -7492.1336 298.9923 -9254.6936 -7494.9962 299.9607 -23.6104 82.1265 30489.1235 -346.9071 -281.3457
TCL: Running FEP window   7: Lambda1 0.6999999999999997 Lambda2 0.6499999999999997 [dLambda -0.050000000000000044]
TCL: Setting parameter firsttimestep to 0
TCL: Setting parameter alchLambda to 0.6999999999999997
Info: NONBONDED TABLE R-SQUARED SPACING: 0.0625
Info: NONBONDED TABLE SIZE: 705 POINTS
TCL: Setting parameter alchLambda2 to 0.6499999999999997
Info: NONBONDED TABLE R-SQUARED SPACING: 0.0625
Info: NONBONDED TABLE SIZE: 705 POINTS
TCL: Running for 1500000 steps
ETITLE: TS BOND ANGLE DIHED IMPRP ELECT VDW BOUNDARY MISC KINETIC TOTAL TEMP POTENTIAL TOTALAVG TEMPAVG PRESSURE GPRESSURE VOLUME PRESSAVG GPRESSAVG
ENERGY: 0 4.8915 7.2680 2.9545 0.0000 -10719.9912 1449.5911 0.0000 0.0000 1761.6593 -7493.6267 298.8395 -9255.2860 -7493.6267 298.8395 -7.0077 62.1958 30489.1235 -7.0077 62.1958
ENERGY: 300000 5.5767 2.4026 4.5126 0.0000 -10728.5069 1437.0899 0.0000 0.0000 1835.1369 -7443.7881 311.3039 -9278.9250 -7485.9232 300.1993 -135.5189 -16.8126 30477.9464 15.9743 66.4404
ENERGY: 600000 4.7142 3.6474 1.7083 0.0000 -10634.6355 1412.7031 0.0000 0.0000 1739.9827 -7471.8798 295.1624 -9211.8626 -7487.2735 299.1915 37.0029 78.3152 30102.7664 5.6485 55.6901
ENERGY: 900000 4.4336 4.6127 2.6169 0.0000 -10751.1521 1430.5360 0.0000 0.0000 1769.6695 -7539.2833 300.1983 -9308.9528 -7512.1098 299.2545 -5.2012 91.2052 30468.3880 -13.2333 42.2085
ENERGY: 1200000 5.2874 8.9851 5.4999 0.0000 -10730.4243 1462.4857 0.0000 0.0000 1785.8434 -7462.3229 302.9419 -9248.1663 -7508.8296 300.2472 111.5876 162.8818 30638.0413 -91.4588 -33.1869
ENERGY: 1500000 7.4467 5.6793 1.4107 0.0000 -10749.3713 1435.5013 0.0000 0.0000 1744.1947 -7555.1386 295.8769 -9299.3332 -7498.9759 300.2657 -347.0907 -213.1739 30363.3494 -132.1418 -67.5261
TCL: Running FEP window   8: Lambda1 0.6499999999999997 Lambda2 0.5999999999999996 [dLambda -0.050000000000000044]
TCL: Setting parameter firsttimestep to 0
TCL: Setting parameter alchLambda to 0.6499999999999997
Info: NONBONDED TABLE R-SQUARED SPACING: 0.0625
Info: NONBONDED TABLE SIZE: 705 POINTS
TCL: Setting parameter alchLambda2 to 0.5999999999999996
Info: NONBONDED TABLE R-SQUARED SPACING: 0.0625
Info: NONBONDED TABLE SIZE: 705 POINTS
TCL: Running for 1500000 steps
ETITLE: TS BOND ANGLE DIHED IMPRP ELECT VDW BOUNDARY MISC KINETIC TOTAL TEMP POTENTIAL TOTALAVG TEMPAVG PRESSURE GPRESSURE VOLUME PRESSAVG GPRESSAVG
ENERGY: 0 7.4467 5.6793 1.4107 0.0000 -10748.5024 1436.0858 0.0000 0.0000 1743.2844 -7554.5954 295.7224 -9297.8799 -7554.5954 295.7224 -303.9851 -215.7671 30363.3494 -303.9851 -215.7671
ENERGY: 300000 1.5605 5.0732 3.2144 0.0000 -10847.1078 1540.0360 0.0000 0.0000 1780.8353 -7516.3884 302.0924 -9297.2236 -7506.8120 299.6526 828.2032 965.4484 29839.5767 320.8082 410.6273
ENERGY: 600000 5.1560 7.0977 2.3458 0.0000 -10807.9947 1501.0530 0.0000 0.0000 1729.8627 -7562.4795 293.4456 -9292.3422 -7506.4625 299.4728 210.3371 294.8077 30318.2439 322.6975 402.4432
ENERGY: 900000 2.9689 5.7405 3.3405 0.0000 -10732.0534 1462.4256 0.0000 0.0000 1756.3277 -7501.2503 297.9350 -9257.5780 -7484.7848 300.6130 67.5838 80.0559 30461.9930 232.5533 310.3862
ENERGY: 1200000 2.4789 6.0241 2.5991 0.0000 -10677.0086 1428.0000 0.0000 0.0000 1766.6826 -7471.2239 299.6916 -9237.9065 -7486.1268 300.4360 -81.6284 -45.8460 30685.1647 110.9697 186.9324
ENERGY: 1500000 2.7977 8.1055 3.1567 0.0000 -10775.4332 1454.8200 0.0000 0.0000 1782.6009 -7523.9525 302.3919 -9306.5534 -7491.8147 300.4043 -92.6217 21.9997 30599.3177 119.3546 197.9494
TCL: Running FEP window   9: Lambda1 0.5999999999999996 Lambda2 0.5499999999999996 [dLambda -0.050000000000000044]
TCL: Setting parameter firsttimestep to 0
TCL: Setting parameter alchLambda to 0.5999999999999996
Info: NONBONDED TABLE R-SQUARED SPACING: 0.0625
Info: NONBONDED TABLE SIZE: 705 POINTS
TCL: Setting parameter alchLambda2 to 0.5499999999999996
Info: NONBONDED TABLE R-SQUARED SPACING: 0.0625
Info: NONBONDED TABLE SIZE: 705 POINTS
TCL: Running for 1500000 steps
ETITLE: TS BOND ANGLE DIHED IMPRP ELECT VDW BOUNDARY MISC KINETIC TOTAL TEMP POTENTIAL TOTALAVG TEMPAVG PRESSURE GPRESSURE VOLUME PRESSAVG GPRESSAVG
ENERGY: 0 2.7977 8.1055 3.1567 0.0000 -10774.3714 1455.3595 0.0000 0.0000 1781.7105 -7523.2415 302.2409 -9304.9520 -7523.2415 302.2409 -56.4023 23.9939 30599.3177 -56.4023 23.9939
ENERGY: 300000 2.4382 4.1234 2.6544 0.0000 -10726.6063 1474.5311 0.0000 0.0000 1739.3839 -7503.4754 295.0608 -9242.8593 -7505.0434 299.6544 189.0526 228.3740 30715.5169 -63.2778 0.5414
ENERGY: 600000 6.2539 5.6346 1.8965 0.0000 -10740.7561 1427.2778 0.0000 0.0000 1791.6057 -7508.0877 303.9194 -9299.6934 -7499.5085 301.4801 -441.5885 -350.4073 30615.1848 -364.8326 -293.8827
ENERGY: 900000 3.2526 3.9904 5.3115 0.0000 -10712.3164 1394.5514 0.0000 0.0000 1774.1650 -7531.0455 300.9609 -9305.2105 -7499.0220 302.6280 -250.3552 -161.8274 29998.9798 -132.2096 -59.9172
ENERGY: 1200000 3.4860 5.9874 4.8900 0.0000 -10802.2838 1478.6842 0.0000 0.0000 1822.4580 -7486.7782 309.1531 -9309.2362 -7484.8304 303.1908 473.3887 549.3639 29913.8501 -162.3971 -87.0340
ENERGY: 1500000 2.2847 3.5509 2.9914 0.0000 -10762.1842 1414.2241 0.0000 0.0000 1770.4167 -7568.7165 300.3250 -9339.1332 -7489.1036 303.0300 -226.4227 -120.1690 30120.5378 -128.2357 -54.3308
TCL: Running FEP window  10: Lambda1 0.5499999999999996 Lambda2 0.4999999999999996 [dLambda -0.04999999999999999]
TCL: Setting parameter firsttimestep to 0
TCL: Setting parameter alchLambda to 0.5499999999999996
Info: NONBONDED TABLE R-SQUARED SPACING: 0.0625
Info: NONBONDED TABLE SIZE: 705 POINTS
TCL: Setting parameter alchLambda2 to 0.4999999999999996
Info: NONBONDED TABLE R-SQUARED SPACING: 0.0625
Info: NONBONDED TABLE SIZE: 705 POINTS
TCL: Running for 1500000 steps
ETITLE: TS BOND ANGLE DIHED IMPRP ELECT VDW BOUNDARY MISC KINETIC TOTAL TEMP POTENTIAL TOTALAVG TEMPAVG PRESSURE GPRESSURE VOLUME PRESSAVG GPRESSAVG
ENERGY: 0 2.2847 3.5509 2.9914 0.0000 -10761.9018 1414.3511 0.0000 0.0000 1769.5396 -7569.1841 300.1762 -9338.7237 -7569.1841 300.1762 -213.7534 -126.7948 30120.5378 -213.7534 -126.7948
ENERGY: 300000 2.8990 4.8924 3.8902 0.0000 -10601.5300 1372.1462 0.0000 0.0000 1794.0116 -7423.6907 304.3276 -9217.7022 -7491.2931 301.0893 -575.8998 -536.4862 30690.6743 -221.4547 -130.9767
ENERGY: 600000 3.0729 2.3184 3.2580 0.0000 -10628.3837 1399.5095 0.0000 0.0000 1739.8783 -7480.3467 295.1446 -9220.2250 -7510.1859 298.9528 -182.2049 -120.6265 30403.2922 -185.4284 -82.7286
ENERGY: 900000 3.9857 8.7951 3.0523 0.0000 -10772.2075 1475.8966 0.0000 0.0000 1814.8416 -7465.6362 307.8611 -9280.4778 -7517.5045 299.9083 68.6637 124.6150 30564.7407 -42.3738 38.9828
ENERGY: 1200000 2.7402 5.2275 4.2551 0.0000 -10695.4989 1413.5760 0.0000 0.0000 1691.4098 -7578.2903 286.9227 -9269.7002 -7500.7632 300.9270 -146.0857 -116.2371 30108.8672 -43.0471 25.3925
ENERGY: 1500000 2.7350 6.6908 3.8179 0.0000 -10646.7553 1396.6727 0.0000 0.0000 1751.8385 -7485.0004 297.1735 -9236.8389 -7508.0134 300.5101 -101.5392 -35.2755 30420.8013 -36.8029 34.8776
TCL: Running FEP window  11: Lambda1 0.4999999999999996 Lambda2 0.4499999999999996 [dLambda -0.04999999999999999]
TCL: Setting parameter firsttimestep to 0
TCL: Setting parameter alchLambda to 0.4999999999999996
Info: NONBONDED TABLE R-SQUARED SPACING: 0.0625
Info: NONBONDED TABLE SIZE: 705 POINTS
TCL: Setting parameter alchLambda2 to 0.4499999999999996
Info: NONBONDED TABLE R-SQUARED SPACING: 0.0625
Info: NONBONDED TABLE SIZE: 705 POINTS
TCL: Running for 1500000 steps
ETITLE: TS BOND ANGLE DIHED IMPRP ELECT VDW BOUNDARY MISC KINETIC TOTAL TEMP POTENTIAL TOTALAVG TEMPAVG PRESSURE GPRESSURE VOLUME PRESSAVG GPRESSAVG
ENERGY: 0 2.7350 6.6908 3.8179 0.0000 -10646.0607 1397.0241 0.0000 0.0000 1750.9720 -7484.8210 297.0265 -9235.7929 -7484.8210 297.0265 -116.5030 -36.3290 30420.8013 -116.5030 -36.3290
ENERGY: 300000 3.8835 7.0347 0.7322 0.0000 -10701.1507 1449.0426 0.0000 0.0000 1779.1869 -7461.2708 301.8128 -9240.4577 -7490.5631 298.4567 126.4289 195.0798 30509.5580 -79.6999 -2.6857
ENERGY: 600000 1.9177 3.6379 1.1533 0.0000 -10649.8140 1440.6256 0.0000 0.0000 1792.3864 -7410.0931 304.0519 -9202.4795 -7464.1194 299.8568 230.0773 279.0189 30551.8253 -88.9772 -48.9128
ENERGY: 900000 2.5549 4.3323 2.5279 0.0000 -10753.5905 1422.8003 0.0000 0.0000 1783.7702 -7537.6050 302.5903 -9321.3752 -7477.3691 299.2389 -364.4883 -323.8282 30436.4649 -58.3699 -24.6147
ENERGY: 1200000 4.1863 7.0700 2.8054 0.0000 -10750.3902 1539.9637 0.0000 0.0000 1801.8525 -7394.5124 305.6576 -9196.3648 -7470.4741 300.1388 638.1847 727.1955 30741.1874 106.4092 145.1272
ENERGY: 1500000 2.9120 4.2878 2.0699 0.0000 -10747.7846 1478.2814 0.0000 0.0000 1706.2254 -7554.0080 289.4359 -9260.2334 -7471.4747 299.5211 107.5517 166.0909 30463.7736 112.3405 155.2712
TCL: Running FEP window  12: Lambda1 0.4499999999999996 Lambda2 0.39999999999999963 [dLambda -0.04999999999999999]
TCL: Setting parameter firsttimestep to 0
TCL: Setting parameter alchLambda to 0.4499999999999996
Info: NONBONDED TABLE R-SQUARED SPACING: 0.0625
Info: NONBONDED TABLE SIZE: 705 POINTS
TCL: Setting parameter alchLambda2 to 0.39999999999999963
Info: NONBONDED TABLE R-SQUARED SPACING: 0.0625
Info: NONBONDED TABLE SIZE: 705 POINTS
TCL: Running for 1500000 steps
ETITLE: TS BOND ANGLE DIHED IMPRP ELECT VDW BOUNDARY MISC KINETIC TOTAL TEMP POTENTIAL TOTALAVG TEMPAVG PRESSURE GPRESSURE VOLUME PRESSAVG GPRESSAVG
ENERGY: 0 2.9120 4.2878 2.0699 0.0000 -10747.7824 1478.4426 0.0000 0.0000 1705.3312 -7554.7389 289.2842 -9260.0700 -7554.7389 289.2842 82.8827 161.3400 30463.7736 82.8827 161.3400
ENERGY: 300000 2.3181 7.2999 2.5448 0.0000 -10502.1442 1323.5918 0.0000 0.0000 1797.4838 -7368.9059 304.9166 -9166.3897 -7467.3688 298.3688 -896.7252 -814.6441 30932.8622 -379.8409 -309.2099
ENERGY: 600000 3.5870 5.7592 2.4114 0.0000 -10709.8993 1374.1554 0.0000 0.0000 1791.9743 -7532.0119 303.9820 -9323.9863 -7475.0881 301.8037 -694.0703 -638.6198 30376.2695 -244.8627 -168.1363
ENERGY: 900000 2.8646 6.0758 4.4295 0.0000 -10808.9619 1476.2603 0.0000 0.0000 1798.0401 -7521.2917 305.0109 -9319.3318 -7493.5331 300.9387 202.1782 258.4539 30616.5558 -121.5959 -46.2781
ENERGY: 1200000 3.0686 4.9785 3.5697 0.0000 -10607.3856 1380.0448 0.0000 0.0000 1733.2023 -7482.5216 294.0122 -9215.7239 -7487.1964 300.0863 -433.3035 -371.4068 30590.2395 -142.1965 -69.7439
ENERGY: 1500000 2.8102 5.8947 3.8433 0.0000 -10731.9258 1416.3301 0.0000 0.0000 1699.6024 -7603.4452 288.3124 -9303.0475 -7495.4036 299.8843 -449.6999 -364.2900 30791.4159 -117.1668 -44.4374
TCL: Running FEP window  13: Lambda1 0.39999999999999963 Lambda2 0.34999999999999964 [dLambda -0.04999999999999999]
TCL: Setting parameter firsttimestep to 0
TCL: Setting parameter alchLambda to 0.39999999999999963
Info: NONBONDED TABLE R-SQUARED SPACING: 0.0625
Info: NONBONDED TABLE SIZE: 705 POINTS
TCL: Setting parameter alchLambda2 to 0.34999999999999964
Info: NONBONDED TABLE R-SQUARED SPACING: 0.0625
Info: NONBONDED TABLE SIZE: 705 POINTS
TCL: Running for 1500000 steps
ETITLE: TS BOND ANGLE DIHED IMPRP ELECT VDW BOUNDARY MISC KINETIC TOTAL TEMP POTENTIAL TOTALAVG TEMPAVG PRESSURE GPRESSURE VOLUME PRESSAVG GPRESSAVG
ENERGY: 0 2.8102 5.8947 3.8433 0.0000 -10731.9247 1416.8170 0.0000 0.0000 1698.7100 -7603.8494 288.1611 -9302.5594 -7603.8494 288.1611 -444.1637 -368.3326 30791.4159 -444.1637 -368.3326
ENERGY: 300000 2.5975 10.2348 1.8007 0.0000 -10705.0366 1475.1977 0.0000 0.0000 1771.7758 -7443.4302 300.5556 -9215.2059 -7533.6432 294.8451 301.0014 411.7078 30527.8833 -74.4166 10.7093
ENERGY: 600000 1.5174 5.3416 6.0792 0.0000 -10708.2728 1420.3094 0.0000 0.0000 1732.1946 -7542.8306 293.8412 -9275.0251 -7507.9328 296.7408 -326.0225 -226.2268 30515.1461 -36.1380 36.0818
ENERGY: 900000 2.6315 6.7388 5.5234 0.0000 -10677.0322 1406.6561 0.0000 0.0000 1728.5059 -7526.9764 293.2155 -9255.4823 -7524.5257 296.4397 -704.6931 -618.2050 30888.9906 -81.6522 -8.2196
ENERGY: 1200000 1.8477 7.1490 4.2090 0.0000 -10555.8079 1424.3396 0.0000 0.0000 1788.0419 -7330.2206 303.3149 -9118.2625 -7510.5629 297.0290 171.3262 221.4500 30757.2348 -58.7531 9.8524
ENERGY: 1500000 0.9944 6.1443 4.6456 0.0000 -10841.3443 1493.6454 0.0000 0.0000 1786.7508 -7549.1637 303.0959 -9335.9145 -7511.2037 298.1474 545.9185 561.0348 29917.8319 17.8258 80.3354
TCL: Running FEP window  14: Lambda1 0.34999999999999964 Lambda2 0.29999999999999966 [dLambda -0.04999999999999999]
TCL: Setting parameter firsttimestep to 0
TCL: Setting parameter alchLambda to 0.34999999999999964
Info: NONBONDED TABLE R-SQUARED SPACING: 0.0625
Info: NONBONDED TABLE SIZE: 705 POINTS
TCL: Setting parameter alchLambda2 to 0.29999999999999966
Info: NONBONDED TABLE R-SQUARED SPACING: 0.0625
Info: NONBONDED TABLE SIZE: 705 POINTS
TCL: Running for 1500000 steps
ETITLE: TS BOND ANGLE DIHED IMPRP ELECT VDW BOUNDARY MISC KINETIC TOTAL TEMP POTENTIAL TOTALAVG TEMPAVG PRESSURE GPRESSURE VOLUME PRESSAVG GPRESSAVG
ENERGY: 0 0.9944 6.1443 4.6456 0.0000 -10841.3464 1493.9585 0.0000 0.0000 1785.8802 -7549.7234 302.9482 -9335.6035 -7549.7234 302.9482 464.6836 558.4701 29917.8319 464.6836 558.4701
ENERGY: 300000 2.2621 7.4098 1.4257 0.0000 -10811.4831 1452.9639 0.0000 0.0000 1716.0430 -7631.3786 291.1013 -9347.4216 -7541.7910 296.8548 -123.7168 -73.0349 30086.3135 -54.0891 1.1005
ENERGY: 600000 2.5647 7.5599 3.2472 0.0000 -10802.9536 1531.1208 0.0000 0.0000 1754.2942 -7504.1667 297.5901 -9258.4609 -7546.6090 297.5292 445.5334 510.8012 30712.2855 122.2654 176.9473
ENERGY: 900000 2.8099 8.2891 4.0971 0.0000 -10774.2797 1485.6683 0.0000 0.0000 1774.1364 -7499.2788 300.9560 -9273.4152 -7524.4964 298.8345 363.7908 328.3901 30486.2122 117.3514 160.6266
ENERGY: 1200000 1.0428 4.6295 5.2008 0.0000 -10883.5093 1523.6321 0.0000 0.0000 1766.6573 -7582.3470 299.6873 -9349.0043 -7517.7753 300.2217 547.1667 609.7232 29925.5688 137.6076 186.2398
ENERGY: 1500000 3.2413 4.0953 2.0822 0.0000 -10616.7948 1424.3093 0.0000 0.0000 1771.5455 -7411.5211 300.5165 -9183.0667 -7508.8370 300.6336 -129.5761 -60.4844 30752.7368 92.6367 144.7667
TCL: Running FEP window  15: Lambda1 0.29999999999999966 Lambda2 0.24999999999999967 [dLambda -0.04999999999999999]
TCL: Setting parameter firsttimestep to 0
TCL: Setting parameter alchLambda to 0.29999999999999966
Info: NONBONDED TABLE R-SQUARED SPACING: 0.0625
Info: NONBONDED TABLE SIZE: 705 POINTS
TCL: Setting parameter alchLambda2 to 0.24999999999999967
Info: NONBONDED TABLE R-SQUARED SPACING: 0.0625
Info: NONBONDED TABLE SIZE: 705 POINTS
TCL: Running for 1500000 steps
ETITLE: TS BOND ANGLE DIHED IMPRP ELECT VDW BOUNDARY MISC KINETIC TOTAL TEMP POTENTIAL TOTALAVG TEMPAVG PRESSURE GPRESSURE VOLUME PRESSAVG GPRESSAVG
ENERGY: 0 3.2413 4.0953 2.0822 0.0000 -10616.7946 1423.8100 0.0000 0.0000 1770.6880 -7412.8777 300.3711 -9183.5657 -7412.8777 300.3711 -158.1162 -67.1208 30752.7368 -158.1162 -67.1208
ENERGY: 300000 3.2543 5.9920 2.2334 0.0000 -10643.1261 1360.9190 0.0000 0.0000 1766.4198 -7504.3076 299.6470 -9270.7274 -7504.5995 299.2694 -880.9498 -797.8010 30682.4678 -214.5898 -139.4388
ENERGY: 600000 1.7385 7.9254 5.6210 0.0000 -10727.3080 1433.9557 0.0000 0.0000 1785.3161 -7492.7514 302.8525 -9278.0674 -7477.0369 300.7396 -249.6338 -232.3186 30565.7703 -152.1556 -111.1557
ENERGY: 900000 3.2587 3.9213 1.2811 0.0000 -10683.6720 1453.7601 0.0000 0.0000 1829.6823 -7391.7685 310.3786 -9221.4508 -7488.3360 300.8237 489.1569 494.3732 29956.6542 19.9155 67.9989
ENERGY: 1200000 3.1572 6.6242 4.3328 0.0000 -10701.8171 1424.3836 0.0000 0.0000 1728.1195 -7535.1997 293.1499 -9263.3193 -7494.7629 300.2264 -333.2090 -190.7716 30522.3437 20.7759 81.2309
ENERGY: 1500000 3.3188 8.0053 2.7768 0.0000 -10595.2539 1323.8285 0.0000 0.0000 1791.9652 -7465.3593 303.9804 -9257.3245 -7496.6536 300.0029 -854.1157 -761.7717 30417.4330 -115.1072 -48.8120
TCL: Running FEP window  16: Lambda1 0.24999999999999967 Lambda2 0.19999999999999968 [dLambda -0.04999999999999999]
TCL: Setting parameter firsttimestep to 0
TCL: Setting parameter alchLambda to 0.24999999999999967
Info: NONBONDED TABLE R-SQUARED SPACING: 0.0625
Info: NONBONDED TABLE SIZE: 705 POINTS
TCL: Setting parameter alchLambda2 to 0.19999999999999968
Info: NONBONDED TABLE R-SQUARED SPACING: 0.0625
Info: NONBONDED TABLE SIZE: 705 POINTS
TCL: Running for 1500000 steps
ETITLE: TS BOND ANGLE DIHED IMPRP ELECT VDW BOUNDARY MISC KINETIC TOTAL TEMP POTENTIAL TOTALAVG TEMPAVG PRESSURE GPRESSURE VOLUME PRESSAVG GPRESSAVG
ENERGY: 0 3.3188 8.0053 2.7768 0.0000 -10595.2538 1324.1454 0.0000 0.0000 1791.0891 -7465.9184 303.8318 -9257.0076 -7465.9184 303.8318 -851.5994 -763.9548 30417.4330 -851.5994 -763.9548
ENERGY: 300000 2.9652 5.6376 1.6615 0.0000 -10634.9417 1352.0687 0.0000 0.0000 1726.8656 -7545.7431 292.9372 -9272.6087 -7478.9603 301.7633 -925.7448 -815.2263 30501.3778 -521.1044 -445.0863
ENERGY: 600000 4.4145 4.5242 2.4840 0.0000 -10846.8983 1471.5124 0.0000 0.0000 1750.1757 -7613.7874 296.8915 -9363.9631 -7524.6146 299.4955 -80.9478 -27.1776 30298.3341 -235.3609 -166.8216
ENERGY: 900000 2.1842 6.6389 4.0559 0.0000 -10780.2611 1430.1994 0.0000 0.0000 1704.3137 -7632.8692 289.1116 -9337.1828 -7534.9822 298.3605 -336.7493 -267.8357 30120.1952 -220.1368 -162.6702
ENERGY: 1200000 2.7816 5.9108 4.9105 0.0000 -10696.7539 1396.3275 0.0000 0.0000 1780.9234 -7505.9001 302.1073 -9286.8234 -7527.9107 299.3620 -678.3387 -609.8900 30344.4053 -203.1069 -150.3508
ENERGY: 1500000 2.3987 3.5404 3.3287 0.0000 -10777.1878 1459.4309 0.0000 0.0000 1742.2813 -7566.2078 295.5523 -9308.4890 -7520.7863 299.1331 -127.8058 -63.6408 30557.9679 -233.7218 -180.7143
TCL: Running FEP window  17: Lambda1 0.19999999999999968 Lambda2 0.1499999999999997 [dLambda -0.04999999999999999]
TCL: Setting parameter firsttimestep to 0
TCL: Setting parameter alchLambda to 0.19999999999999968
Info: NONBONDED TABLE R-SQUARED SPACING: 0.0625
Info: NONBONDED TABLE SIZE: 705 POINTS
TCL: Setting parameter alchLambda2 to 0.1499999999999997
Info: NONBONDED TABLE R-SQUARED SPACING: 0.0625
Info: NONBONDED TABLE SIZE: 705 POINTS
TCL: Running for 1500000 steps
ETITLE: TS BOND ANGLE DIHED IMPRP ELECT VDW BOUNDARY MISC KINETIC TOTAL TEMP POTENTIAL TOTALAVG TEMPAVG PRESSURE GPRESSURE VOLUME PRESSAVG GPRESSAVG
ENERGY: 0 2.3987 3.5404 3.3287 0.0000 -10777.1877 1459.2512 0.0000 0.0000 1741.3927 -7567.2760 295.4015 -9308.6686 -7567.2760 295.4015 -142.8001 -69.1737 30557.9679 -142.8001 -69.1737
ENERGY: 300000 1.7275 7.5687 2.4732 0.0000 -10677.4512 1481.6419 0.0000 0.0000 1785.6627 -7398.3771 302.9113 -9184.0398 -7495.0924 301.4199 145.7517 205.8967 30925.2205 84.7692 143.5343
ENERGY: 600000 2.9921 4.3576 2.6207 0.0000 -10747.6379 1434.9957 0.0000 0.0000 1809.4387 -7493.2330 306.9445 -9302.6718 -7458.7628 304.7443 -294.0271 -221.6171 30544.4389 -11.5180 57.4596
ENERGY: 900000 7.9531 5.4785 2.2611 0.0000 -10724.7181 1484.1038 0.0000 0.0000 1826.5607 -7398.3610 309.8490 -9224.9217 -7454.0011 305.5948 347.3312 378.7645 30305.7273 -55.7316 -3.1162
ENERGY: 1200000 3.3567 6.7540 2.4499 0.0000 -10670.1089 1374.9561 0.0000 0.0000 1754.5142 -7528.0780 297.6274 -9282.5922 -7470.9320 304.3071 -620.5723 -566.4441 30520.6561 -196.8465 -139.3547
ENERGY: 1500000 3.5458 7.9659 1.4609 0.0000 -10790.9950 1521.6928 0.0000 0.0000 1755.2967 -7501.0330 297.7601 -9256.3297 -7470.3103 302.9165 625.1089 667.5594 30323.4650 -127.3450 -68.1571
TCL: Running FEP window  18: Lambda1 0.1499999999999997 Lambda2 0.09999999999999969 [dLambda -0.05 ]
TCL: Setting parameter firsttimestep to 0
TCL: Setting parameter alchLambda to 0.1499999999999997
Info: NONBONDED TABLE R-SQUARED SPACING: 0.0625
Info: NONBONDED TABLE SIZE: 705 POINTS
TCL: Setting parameter alchLambda2 to 0.09999999999999969
Info: NONBONDED TABLE R-SQUARED SPACING: 0.0625
Info: NONBONDED TABLE SIZE: 705 POINTS
TCL: Running for 1500000 steps
ETITLE: TS BOND ANGLE DIHED IMPRP ELECT VDW BOUNDARY MISC KINETIC TOTAL TEMP POTENTIAL TOTALAVG TEMPAVG PRESSURE GPRESSURE VOLUME PRESSAVG GPRESSAVG
ENERGY: 0 3.5458 7.9659 1.4609 0.0000 -10790.9938 1521.8250 0.0000 0.0000 1754.4485 -7501.7478 297.6163 -9256.1963 -7501.7478 297.6163 585.5424 663.4925 30323.4650 585.5424 663.4925
ENERGY: 300000 3.5379 9.5252 3.7100 0.0000 -10752.8716 1493.5338 0.0000 0.0000 1816.2842 -7426.2806 308.1058 -9242.5648 -7472.3425 301.3745 588.1725 617.2629 30262.6345 262.5096 286.7655
ENERGY: 600000 3.5860 4.9972 5.3503 0.0000 -10843.1234 1488.1115 0.0000 0.0000 1759.6015 -7581.4769 298.4904 -9341.0784 -7498.1788 299.7794 182.3424 151.7127 30279.2567 248.1511 264.8051
ENERGY: 900000 3.3756 9.7298 5.2457 0.0000 -10721.2168 1470.2999 0.0000 0.0000 1803.4888 -7429.0770 305.9352 -9232.5658 -7492.3185 301.3856 141.7186 241.3295 30537.6892 143.1933 176.8058
ENERGY: 1200000 4.3799 8.5176 1.4571 0.0000 -10804.4873 1474.7344 0.0000 0.0000 1735.1317 -7580.2665 294.3395 -9315.3983 -7511.4796 300.3675 -127.6029 -34.5163 30377.0664 59.7407 99.5296
ENERGY: 1500000 0.9489 3.9299 3.1821 0.0000 -10754.2383 1466.8670 0.0000 0.0000 1807.5396 -7471.7707 306.6224 -9279.3103 -7511.6452 300.4249 25.0494 118.1133 30670.9289 -33.0729 14.4599
TCL: Running FEP window  19: Lambda1 0.09999999999999969 Lambda2 0.049999999999999684 [dLambda -0.05 ]
TCL: Setting parameter firsttimestep to 0
TCL: Setting parameter alchLambda to 0.09999999999999969
Info: NONBONDED TABLE R-SQUARED SPACING: 0.0625
Info: NONBONDED TABLE SIZE: 705 POINTS
TCL: Setting parameter alchLambda2 to 0.049999999999999684
Info: NONBONDED TABLE R-SQUARED SPACING: 0.0625
Info: NONBONDED TABLE SIZE: 705 POINTS
TCL: Running for 1500000 steps
ETITLE: TS BOND ANGLE DIHED IMPRP ELECT VDW BOUNDARY MISC KINETIC TOTAL TEMP POTENTIAL TOTALAVG TEMPAVG PRESSURE GPRESSURE VOLUME PRESSAVG GPRESSAVG
ENERGY: 0 0.9489 3.9299 3.1821 0.0000 -10754.2396 1466.7970 0.0000 0.0000 1806.6772 -7472.7045 306.4761 -9279.3817 -7472.7045 306.4761 28.0172 113.0320 30670.9289 28.0172 113.0320
ENERGY: 300000 1.8575 5.9040 3.9479 0.0000 -10737.1158 1460.9983 0.0000 0.0000 1756.4865 -7507.9217 297.9620 -9264.4081 -7466.7615 301.7331 20.2169 70.2311 30514.2932 -172.6129 -79.2828
ENERGY: 600000 1.6020 7.0638 3.2139 0.0000 -10694.5815 1478.0482 0.0000 0.0000 1796.4009 -7408.2527 304.7329 -9204.6536 -7453.0434 304.2508 683.0783 643.3755 30343.5367 52.8933 114.0795
ENERGY: 900000 7.3412 6.2745 3.9290 0.0000 -10586.7524 1292.3175 0.0000 0.0000 1744.0963 -7532.7939 295.8602 -9276.8902 -7478.4139 301.5107 -1425.5238 -1388.0400 30227.1011 -243.9555 -186.1921
ENERGY: 1200000 4.7630 6.1823 2.4571 0.0000 -10834.3471 1461.2295 0.0000 0.0000 1772.5690 -7587.1463 300.6901 -9359.7153 -7486.0087 301.7503 -349.4391 -309.5348 30452.9728 -234.0427 -175.4555
ENERGY: 1500000 3.9669 9.7822 2.9547 0.0000 -10660.3700 1335.0742 0.0000 0.0000 1779.1614 -7529.4305 301.8084 -9308.5919 -7485.7204 302.4109 -979.1370 -931.0296 30193.8549 -256.3535 -202.7838
TCL: Running FEP window  20: Lambda1 0.049999999999999684 Lambda2 0.0    [dLambda -0.049999999999999684]
TCL: Setting parameter firsttimestep to 0
TCL: Setting parameter alchLambda to 0.049999999999999684
Info: NONBONDED TABLE R-SQUARED SPACING: 0.0625
Info: NONBONDED TABLE SIZE: 705 POINTS
TCL: Setting parameter alchLambda2 to 0.0
Info: NONBONDED TABLE R-SQUARED SPACING: 0.0625
Info: NONBONDED TABLE SIZE: 705 POINTS
TCL: Running for 1500000 steps
ETITLE: TS BOND ANGLE DIHED IMPRP ELECT VDW BOUNDARY MISC KINETIC TOTAL TEMP POTENTIAL TOTALAVG TEMPAVG PRESSURE GPRESSURE VOLUME PRESSAVG GPRESSAVG
ENERGY: 0 3.9669 9.7822 2.9547 0.0000 -10660.3708 1335.3867 0.0000 0.0000 1778.3121 -7529.9681 301.6644 -9308.2802 -7529.9681 301.6644 -1017.4110 -930.6495 30193.8549 -1017.4110 -930.6495
ENERGY: 300000 2.0820 5.6375 4.2051 0.0000 -10787.5475 1464.7870 0.0000 0.0000 1816.6199 -7494.2160 308.1627 -9310.8359 -7496.8856 301.3288 154.6264 219.9630 30184.4483 -516.8940 -460.2025
ENERGY: 600000 2.5891 7.7961 4.9460 0.0000 -10730.8537 1462.3902 0.0000 0.0000 1686.9438 -7566.1884 286.1651 -9253.1322 -7512.8787 300.5241 -164.0845 -1.5878 30634.9432 -254.7957 -197.6611
ENERGY: 900000 4.9484 4.8433 5.0446 0.0000 -10686.7208 1412.9197 0.0000 0.0000 1773.7425 -7485.2222 300.8892 -9258.9647 -7502.5275 301.2832 -364.2637 -228.4136 30172.6099 -260.0063 -189.0504
ENERGY: 1200000 3.6991 8.3167 4.8569 0.0000 -10790.6751 1495.0364 0.0000 0.0000 1785.2715 -7493.4946 302.8449 -9278.7660 -7500.1990 300.6279 113.5678 201.5611 30606.3316 -254.4320 -185.9732
ENERGY: 1500000 6.0362 5.4144 3.7283 0.0000 -10708.4479 1437.0152 0.0000 0.0000 1753.5596 -7502.6943 297.4655 -9256.2539 -7509.1461 300.9067 -323.1487 -278.1251 30459.2463 -171.9846 -106.8081
TCL: Exiting due to exit command.
