Info: SIMULATION PARAMETERS:
Info: TIMESTEP               2
Info: NUMBER OF STEPS        0
Info: STEPS PER CYCLE        10
Info: PERIODIC CELL BASIS 1  32.188 0 0
Info: PERIODIC CELL BASIS 2  0 31.1491 0
Info: PERIODIC CELL BASIS 3  0 0 30.1094
Info: PERIODIC CELL CENTER   0 0 0
Info: WRAPPING WATERS AROUND PERIODIC BOUNDARIES ON OUTPUT.
Info: WRAPPING ALL CLUSTERS AROUND PERIODIC BOUNDARIES ON OUTPUT.
Info: FIRST LDB TIMESTEP     50
Info: LAST LDB TIMESTEP     -1
Info: HOM BACKGROUND SCALING 1
Info: PME BACKGROUND SCALING 1
Info: MIN ATOMS PER PATCH    40
Info: EMPTY PATCH LOAD       40 ATOMS
Info: VELOCITY FILE          mobley_3727287_equil.vel
Info: CENTER OF MASS MOVING INITIALLY? NO
Info: DIELECTRIC             1
Info: EXCLUDE                SCALED ONE-FOUR
Info: 1-4 ELECTROSTATICS SCALED BY 0.833333
Info: MODIFIED 1-4 VDW PARAMETERS WILL BE USED
Info: DCD FILENAME           mobley_3727287_prod.dcd
Info: DCD FREQUENCY          100000
Info: DCD FIRST STEP         100000
Info: DCD FILE WILL CONTAIN UNIT CELL DATA
Info: XST FILENAME           mobley_3727287_prod.xst
Info: XST FREQUENCY          100000
Info: NO VELOCITY DCD OUTPUT
Info: NO FORCE DCD OUTPUT
Info: OUTPUT FILENAME        mobley_3727287_prod
Info: BINARY OUTPUT FILES WILL BE USED
Info: RESTART FILENAME       mobley_3727287_prod.restart
Info: RESTART FREQUENCY      100000
Info: BINARY RESTART FILES WILL BE USED
Info: CUTOFF                 9
Info: PAIRLIST DISTANCE      11
Info: PAIRLIST SHRINK RATE   0.01
Info: PAIRLIST GROW RATE     0.01
Info: PAIRLIST TRIGGER       0.3
Info: PAIRLISTS PER CYCLE    2
Info: PAIRLISTS ENABLED
Info: MARGIN                 2
Info: HYDROGEN GROUP CUTOFF  2.5
Info: PATCH DIMENSION        15.5
Info: ENERGY OUTPUT STEPS    100000
Info: ENERGY EVALUATION STEPS    100000
Info: OUTPUT ENERGY PRECISION 4
Info: CROSSTERM ENERGY INCLUDED IN DIHEDRAL
Info: TIMING OUTPUT STEPS    1000000
Info: PRESSURE OUTPUT STEPS  100000
Info: ALCHEMICAL FEP ON
Info: FEP CURRENT LAMBDA VALUE     0
Info: FEP COMPARISON LAMBDA VALUE  0.05
Info: FEP INTRA-ALCHEMICAL NON-BONDED INTERACTIONS WILL BE RETAINED
Info: FEP INTRA-ALCHEMICAL BONDED INTERACTIONS WILL BE RETAINED
Info: FEP VDW SHIFTING COEFFICIENT 5
Info: FEP ELEC. ACTIVE FOR ANNIHILATED PARTICLES BETWEEN LAMBDA = 0 AND LAMBDA = 0.5
Info: FEP ELEC. ACTIVE FOR EXNIHILATED PARTICLES BETWEEN LAMBDA = 0.5 AND LAMBDA = 1
Info: FEP VDW ACTIVE FOR ANNIHILATED PARTICLES BETWEEN LAMBDA = 0 AND LAMBDA = 1
Info: FEP VDW ACTIVE FOR EXNIHILATED PARTICLES BETWEEN LAMBDA = 0 AND LAMBDA = 1
Info: FEP BOND ACTIVE FOR ANNIHILATED PARTICLES BETWEEN LAMBDA = 1 AND LAMBDA = 1
Info: FEP BOND ACTIVE FOR EXNIHILATED PARTICLES BETWEEN LAMBDA = 0 AND LAMBDA = 0
Info: LANGEVIN DYNAMICS ACTIVE
Info: LANGEVIN TEMPERATURE   300
Info: LANGEVIN USING BBK INTEGRATOR
Info: LANGEVIN DAMPING COEFFICIENT IS 1 INVERSE PS
Info: LANGEVIN DYNAMICS APPLIED TO HYDROGENS
Info: LANGEVIN PISTON PRESSURE CONTROL ACTIVE
Info:        TARGET PRESSURE IS 1.01325 BAR
Info:     OSCILLATION PERIOD IS 50 FS
Info:             DECAY TIME IS 25 FS
Info:     PISTON TEMPERATURE IS 300 K
Info:       PRESSURE CONTROL IS GROUP-BASED
Info:    INITIAL STRAIN RATE IS 0.000403317 0.000403317 0.000403317
Info:       CELL FLUCTUATION IS ISOTROPIC
Info: PARTICLE MESH EWALD (PME) ACTIVE
Info: PME TOLERANCE               1e-06
Info: PME EWALD COEFFICIENT       0.348832
Info: PME INTERPOLATION ORDER     4
Info: PME GRID DIMENSIONS         36 32 32
Info: PME MAXIMUM GRID SPACING    1
Info: PME CALCULATION WILL BE PERFORMED ON GPU
Info: FULL ELECTROSTATIC EVALUATION FREQUENCY      2
Info: USING VERLET I (r-RESPA) MTS SCHEME.
Info: C1 SPLITTING OF LONG RANGE ELECTROSTATICS
Info: PLACING ATOMS IN PATCHES BY HYDROGEN GROUPS
Info: RIGID BONDS TO HYDROGEN : ALL
Info:         ERROR TOLERANCE : 1e-08
Info:          MAX ITERATIONS : 100
Info: RIGID WATER USING SETTLE ALGORITHM
Info: RANDOM NUMBER SEED     1743526047
Info: USE HYDROGEN BONDS?    NO
Info: Using AMBER format force field!
Info: AMBER PARM FILE        mobley_3727287.prmtop
Info: COORDINATE PDB         mobley_3727287.pdb
Info: Exclusions will be read from PARM file!
Info: SCNB (VDW SCALING)     2
Info: USING ARITHMETIC MEAN TO COMBINE L-J SIGMA PARAMETERS
Info: BINARY COORDINATES     mobley_3727287_equil.coor
Info: SUMMARY OF PARAMETERS:
Info: 8 BONDS
Info: 9 ANGLES
Info:   9 HARMONIC
Info:   0 COSINE-BASED
Info: 4 DIHEDRAL
Info: 0 IMPROPER
Info: 0 CROSSTERM
Info: 0 VDW
Info: 15 VDW_PAIRS
Info: 0 NBTHOLE_PAIRS
Info: To read alchdata from file: mobley_3727287.pdb
Info: To read alchflag data from column: 5
Info: STRUCTURE SUMMARY:
Info: 2949 ATOMS
Info: 2949 BONDS
Info: 18 ANGLES
Info: 30 DIHEDRALS
Info: 0 IMPROPERS
Info: 0 CROSSTERMS
Info: 2988 EXCLUSIONS
Info: 2941 RIGID BONDS
Info: ALCH: 0 ATOMS TO DISAPPEAR IN FINAL STATE
Info: ALCH: 12 ATOMS TO APPEAR IN FINAL STATE
Info: 5906 DEGREES OF FREEDOM
Info: 987 HYDROGEN GROUPS
Info: 3 ATOMS IN LARGEST HYDROGEN GROUP
Info: 987 MIGRATION GROUPS
Info: 3 ATOMS IN LARGEST MIGRATION GROUP
Info: TOTAL MASS = 17745.8 amu
Info: TOTAL CHARGE = 0 e
Info: MASS DENSITY = 0.976142 g/cm^3
Info: ATOM DENSITY = 0.0976863 atoms/A^3
Info: ADDED 0 IMPLICIT EXCLUSIONS
Info: NONBONDED TABLE R-SQUARED SPACING: 0.0625
Info: NONBONDED TABLE SIZE: 705 POINTS
Info: REDUCING NUMBER OF PATCHES TO IMPROVE LOAD BALANCE
Info: REMOVING COM VELOCITY 0.0345986 -0.0257891 0.0119624
Info: Use 3D box decompostion in PME FFT.
Info: Updated CUDA force table with 4096 elements.
Info: Updated CUDA LJ table with 5 x 5 elements.
Info: Found 15 unique exclusion lists needing 28 bytes
TCL: Running for 1500000 steps
ETITLE: TS BOND ANGLE DIHED IMPRP ELECT VDW BOUNDARY MISC KINETIC TOTAL TEMP POTENTIAL TOTALAVG TEMPAVG PRESSURE GPRESSURE VOLUME PRESSAVG GPRESSAVG
ENERGY: 0 2.1189 1.7067 2.5405 0.0000 -10636.8151 1429.3810 0.0000 0.0000 1814.7184 -7386.3496 309.2475 -9201.0680 -7386.3496 309.2475 -1.4619 85.8009 30188.4596 -1.4619 85.8009
ENERGY: 300000 1.3913 1.9034 3.2907 0.0000 -10703.0568 1425.1868 0.0000 0.0000 1766.2348 -7505.0499 300.9854 -9271.2847 -7468.6078 305.9656 -102.2959 -51.5767 30241.6083 -4.3905 50.7615
ENERGY: 600000 3.4945 2.7971 6.3046 0.0000 -10554.4004 1376.5133 0.0000 0.0000 1758.0385 -7407.2524 299.5886 -9165.2909 -7456.9774 303.9102 -197.2976 -67.9983 30219.3222 -4.6347 62.2973
ENERGY: 900000 5.4452 1.6360 1.1041 0.0000 -10567.1257 1411.4437 0.0000 0.0000 1779.0697 -7368.4270 303.1726 -9147.4967 -7458.5016 303.5805 -33.5422 25.1937 30591.1618 131.6433 199.1847
ENERGY: 1200000 4.0408 6.5461 4.4767 0.0000 -10766.8839 1439.7658 0.0000 0.0000 1801.1526 -7510.9020 306.9357 -9312.0546 -7468.2980 303.7003 -141.4183 -108.1588 30146.9107 109.3253 162.8130
ENERGY: 1500000 2.8682 2.4970 2.8717 0.0000 -10554.5575 1329.7483 0.0000 0.0000 1694.3222 -7522.2502 288.7307 -9216.5724 -7478.4056 302.6026 -843.6684 -759.2764 30118.1234 34.1385 90.1783
TCL: Running FEP window   2: Lambda1 0.05   Lambda2 0.1    [dLambda 0.05  ]
TCL: Setting parameter firsttimestep to 0
TCL: Setting parameter alchLambda to 0.05
Info: NONBONDED TABLE R-SQUARED SPACING: 0.0625
Info: NONBONDED TABLE SIZE: 705 POINTS
TCL: Setting parameter alchLambda2 to 0.1
Info: NONBONDED TABLE R-SQUARED SPACING: 0.0625
Info: NONBONDED TABLE SIZE: 705 POINTS
TCL: Running for 1500000 steps
ETITLE: TS BOND ANGLE DIHED IMPRP ELECT VDW BOUNDARY MISC KINETIC TOTAL TEMP POTENTIAL TOTALAVG TEMPAVG PRESSURE GPRESSURE VOLUME PRESSAVG GPRESSAVG
ENERGY: 0 2.8682 2.4970 2.8717 0.0000 -10554.5566 1334.0379 0.0000 0.0000 1693.4526 -7518.8293 288.5825 -9212.2819 -7518.8293 288.5825 -836.8125 -752.2895 30118.1234 -836.8125 -752.2895
ENERGY: 300000 3.0609 2.0092 1.2295 0.0000 -10667.6323 1358.4125 0.0000 0.0000 1787.0823 -7515.8378 304.5380 -9302.9202 -7505.3770 300.8804 -846.5172 -831.1165 30470.7181 -42.4355 4.0230
ENERGY: 600000 2.5780 5.5227 2.3416 0.0000 -10787.7733 1466.4172 0.0000 0.0000 1785.5730 -7525.3408 304.2808 -9310.9139 -7498.1713 301.6814 72.9486 116.8853 29903.0057 3.3379 52.5704
ENERGY: 900000 2.7971 1.5504 3.1567 0.0000 -10731.3142 1444.1436 0.0000 0.0000 1795.1023 -7484.5641 305.9047 -9279.6665 -7487.3383 301.5743 214.9192 303.0235 29827.9437 195.7286 244.9174
ENERGY: 1200000 3.2181 2.4097 4.7550 0.0000 -10690.8265 1488.9918 0.0000 0.0000 1804.8409 -7386.6111 307.5643 -9191.4519 -7474.9910 302.3358 206.6248 296.1212 30777.0394 173.9061 236.3725
ENERGY: 1500000 2.0705 2.8637 3.8927 0.0000 -10698.1481 1463.9263 0.0000 0.0000 1710.4401 -7514.9548 291.4774 -9225.3949 -7476.9202 301.1614 139.9980 228.8741 30221.9022 185.1325 242.0299
TCL: Running FEP window   3: Lambda1 0.1    Lambda2 0.15000000000000002 [dLambda 0.05000000000000002]
TCL: Setting parameter firsttimestep to 0
TCL: Setting parameter alchLambda to 0.1
Info: NONBONDED TABLE R-SQUARED SPACING: 0.0625
Info: NONBONDED TABLE SIZE: 705 POINTS
TCL: Setting parameter alchLambda2 to 0.15000000000000002
Info: NONBONDED TABLE R-SQUARED SPACING: 0.0625
Info: NONBONDED TABLE SIZE: 705 POINTS
TCL: Running for 1500000 steps
ETITLE: TS BOND ANGLE DIHED IMPRP ELECT VDW BOUNDARY MISC KINETIC TOTAL TEMP POTENTIAL TOTALAVG TEMPAVG PRESSURE GPRESSURE VOLUME PRESSAVG GPRESSAVG
ENERGY: 0 2.0705 2.8637 3.8927 0.0000 -10698.1466 1466.5863 0.0000 0.0000 1709.5722 -7513.1612 291.3295 -9222.7334 -7513.1612 291.3295 152.0275 240.0554 30221.9022 152.0275 240.0554
ENERGY: 300000 3.1422 2.6362 2.9707 0.0000 -10623.8057 1414.6266 0.0000 0.0000 1788.7321 -7411.6979 304.8191 -9200.4300 -7460.4590 299.4352 150.4173 200.2855 30087.7415 4.6855 84.7888
ENERGY: 600000 1.0567 1.8846 1.3262 0.0000 -10644.0950 1442.6894 0.0000 0.0000 1770.0444 -7427.0936 301.6346 -9197.1381 -7474.7001 297.3809 287.1232 318.1275 29883.3115 -78.3088 -13.6959
ENERGY: 900000 2.3606 2.6998 1.6348 0.0000 -10605.4656 1379.6549 0.0000 0.0000 1790.5671 -7428.5482 305.1319 -9219.1153 -7462.0544 298.8573 -480.2923 -455.7321 30431.7028 -130.5677 -70.7691
ENERGY: 1200000 0.9420 1.7020 1.2646 0.0000 -10782.6652 1489.3586 0.0000 0.0000 1769.2234 -7520.1747 301.4946 -9289.3981 -7476.8559 298.5650 80.0361 116.7540 30646.0640 -69.2323 -12.3424
ENERGY: 1500000 0.7531 2.6129 4.1889 0.0000 -10717.0490 1468.5909 0.0000 0.0000 1782.2215 -7458.6817 303.7097 -9240.9032 -7492.1631 298.0738 339.9738 363.0086 30036.0113 34.9837 90.0115
TCL: Running FEP window   4: Lambda1 0.15000000000000002 Lambda2 0.2    [dLambda 0.04999999999999999]
TCL: Setting parameter firsttimestep to 0
TCL: Setting parameter alchLambda to 0.15000000000000002
Info: NONBONDED TABLE R-SQUARED SPACING: 0.0625
Info: NONBONDED TABLE SIZE: 705 POINTS
TCL: Setting parameter alchLambda2 to 0.2
Info: NONBONDED TABLE R-SQUARED SPACING: 0.0625
Info: NONBONDED TABLE SIZE: 705 POINTS
TCL: Running for 1500000 steps
ETITLE: TS BOND ANGLE DIHED IMPRP ELECT VDW BOUNDARY MISC KINETIC TOTAL TEMP POTENTIAL TOTALAVG TEMPAVG PRESSURE GPRESSURE VOLUME PRESSAVG GPRESSAVG
ENERGY: 0 0.7531 2.6129 4.1889 0.0000 -10717.0508 1469.6740 0.0000 0.0000 1781.3441 -7458.4779 303.5602 -9239.8220 -7458.4779 303.5602 288.1344 368.6011 30036.0113 288.1344 368.6011
ENERGY: 300000 2.9458 3.2853 3.0708 0.0000 -10573.9133 1301.7793 0.0000 0.0000 1803.5848 -7459.2473 307.3502 -9262.8321 -7475.2653 302.5068 -1130.2092 -1059.0770 30527.0300 -301.6141 -233.2596
ENERGY: 600000 3.0166 2.4877 1.3223 0.0000 -10646.3252 1377.2292 0.0000 0.0000 1752.1212 -7510.1482 298.5803 -9262.2694 -7477.1173 301.6596 -493.5677 -391.7256 29999.3237 -397.1270 -334.5406
ENERGY: 900000 2.3047 4.9499 2.2927 0.0000 -10614.4037 1404.6262 0.0000 0.0000 1720.1405 -7480.0897 293.1304 -9200.2302 -7487.3564 300.8836 -424.7731 -324.6860 30557.7842 -317.0796 -246.0721
ENERGY: 1200000 1.8706 1.8954 1.7062 0.0000 -10862.0307 1487.8227 0.0000 0.0000 1752.6460 -7616.0898 298.6697 -9368.7358 -7493.4456 300.4250 -114.1023 -77.1567 30188.1064 -253.8380 -188.8878
ENERGY: 1500000 2.1335 4.0015 5.5075 0.0000 -10647.1081 1447.3757 0.0000 0.0000 1758.2121 -7429.8778 299.6182 -9188.0899 -7501.9989 299.5559 55.0598 103.6791 30407.8459 -188.1765 -124.5136
TCL: Running FEP window   5: Lambda1 0.2    Lambda2 0.25   [dLambda 0.04999999999999999]
TCL: Setting parameter firsttimestep to 0
TCL: Setting parameter alchLambda to 0.2
Info: NONBONDED TABLE R-SQUARED SPACING: 0.0625
Info: NONBONDED TABLE SIZE: 705 POINTS
TCL: Setting parameter alchLambda2 to 0.25
Info: NONBONDED TABLE R-SQUARED SPACING: 0.0625
Info: NONBONDED TABLE SIZE: 705 POINTS
TCL: Running for 1500000 steps
ETITLE: TS BOND ANGLE DIHED IMPRP ELECT VDW BOUNDARY MISC KINETIC TOTAL TEMP POTENTIAL TOTALAVG TEMPAVG PRESSURE GPRESSURE VOLUME PRESSAVG GPRESSAVG
ENERGY: 0 2.1335 4.0015 5.5075 0.0000 -10647.1080 1448.1898 0.0000 0.0000 1757.3711 -7429.9046 299.4749 -9187.2757 -7429.9046 299.4749 31.3746 110.9992 30407.8459 31.3746 110.9992
ENERGY: 300000 4.8344 4.4325 3.9915 0.0000 -10633.6212 1370.9002 0.0000 0.0000 1689.8341 -7559.6284 287.9659 -9249.4625 -7514.0502 296.2707 -508.8816 -417.8003 30173.6134 -258.6151 -181.5326
ENERGY: 600000 4.1065 2.5525 2.1377 0.0000 -10522.1287 1340.3501 0.0000 0.0000 1828.9158 -7344.0662 311.6669 -9172.9820 -7484.9030 302.6220 -580.8771 -562.2074 30555.9201 -470.5808 -414.5898
ENERGY: 900000 5.9557 3.1157 2.7516 0.0000 -10669.4439 1449.7008 0.0000 0.0000 1777.5473 -7430.3727 302.9131 -9207.9201 -7479.7167 302.3641 34.1353 163.1916 30301.3064 -259.5175 -185.7629
ENERGY: 1200000 2.3435 4.3856 4.1885 0.0000 -10646.0757 1409.7954 0.0000 0.0000 1713.9500 -7511.4126 292.0755 -9225.3627 -7486.9929 300.7492 -357.6777 -326.9515 30811.3630 -310.7678 -244.2703
ENERGY: 1500000 1.6949 2.3395 2.1802 0.0000 -10710.0594 1454.0544 0.0000 0.0000 1724.1057 -7525.6848 293.8061 -9249.7904 -7486.2167 300.6843 -180.5593 -49.1999 30480.1771 -313.5123 -242.6582
TCL: Running FEP window   6: Lambda1 0.25   Lambda2 0.3    [dLambda 0.04999999999999999]
TCL: Setting parameter firsttimestep to 0
TCL: Setting parameter alchLambda to 0.25
Info: NONBONDED TABLE R-SQUARED SPACING: 0.0625
Info: NONBONDED TABLE SIZE: 705 POINTS
TCL: Setting parameter alchLambda2 to 0.3
Info: NONBONDED TABLE R-SQUARED SPACING: 0.0625
Info: NONBONDED TABLE SIZE: 705 POINTS
TCL: Running for 1500000 steps
ETITLE: TS BOND ANGLE DIHED IMPRP ELECT VDW BOUNDARY MISC KINETIC TOTAL TEMP POTENTIAL TOTALAVG TEMPAVG PRESSURE GPRESSURE VOLUME PRESSAVG GPRESSAVG
ENERGY: 0 1.6949 2.3395 2.1802 0.0000 -10710.0603 1454.2028 0.0000 0.0000 1723.2380 -7526.4049 293.6583 -9249.6429 -7526.4049 293.6583 -137.3310 -45.8830 30480.1771 -137.3310 -45.8830
ENERGY: 300000 2.0010 1.9614 4.0207 0.0000 -10753.2952 1469.1593 0.0000 0.0000 1808.8026 -7467.3502 308.2394 -9276.1528 -7495.7182 305.2683 389.4224 418.1367 29917.0439 -133.0855 -64.7857
ENERGY: 600000 3.1978 2.4831 3.2421 0.0000 -10667.7377 1469.1815 0.0000 0.0000 1803.1682 -7386.4649 307.2792 -9189.6332 -7498.0332 302.4057 599.0298 632.7205 30014.4086 -22.1525 49.0675
ENERGY: 900000 1.0577 3.9056 1.0567 0.0000 -10729.3265 1466.1508 0.0000 0.0000 1756.5965 -7500.5593 299.3429 -9257.1557 -7506.3796 300.9327 -61.6508 -50.7956 30563.9097 -153.6327 -77.5603
ENERGY: 1200000 1.6183 5.0428 1.4937 0.0000 -10689.0755 1454.7067 0.0000 0.0000 1776.3962 -7449.8178 302.7170 -9226.2140 -7507.8358 300.3634 97.8158 174.9067 30457.3238 -161.6127 -88.1779
ENERGY: 1500000 2.7323 2.4628 6.1339 0.0000 -10771.0896 1495.1234 0.0000 0.0000 1801.6087 -7463.0285 307.0135 -9264.6373 -7502.8696 300.8904 393.3904 451.3106 29844.9808 -175.2619 -105.5939
TCL: Running FEP window   7: Lambda1 0.3    Lambda2 0.35   [dLambda 0.04999999999999999]
TCL: Setting parameter firsttimestep to 0
TCL: Setting parameter alchLambda to 0.3
Info: NONBONDED TABLE R-SQUARED SPACING: 0.0625
Info: NONBONDED TABLE SIZE: 705 POINTS
TCL: Setting parameter alchLambda2 to 0.35
Info: NONBONDED TABLE R-SQUARED SPACING: 0.0625
Info: NONBONDED TABLE SIZE: 705 POINTS
TCL: Running for 1500000 steps
ETITLE: TS BOND ANGLE DIHED IMPRP ELECT VDW BOUNDARY MISC KINETIC TOTAL TEMP POTENTIAL TOTALAVG TEMPAVG PRESSURE GPRESSURE VOLUME PRESSAVG GPRESSAVG
ENERGY: 0 2.7323 2.4628 6.1339 0.0000 -10771.0890 1495.3436 0.0000 0.0000 1800.7405 -7463.6760 306.8655 -9264.4165 -7463.6760 306.8655 375.4051 454.2814 29844.9808 375.4051 454.2814
ENERGY: 300000 4.2304 4.4178 7.4598 0.0000 -10505.5810 1296.4786 0.0000 0.0000 1769.5390 -7423.4554 301.5484 -9192.9943 -7469.5852 301.1628 -1223.3954 -1092.4062 30835.0238 -64.7565 21.0702
ENERGY: 600000 1.4193 2.6293 1.9638 0.0000 -10681.0700 1497.9940 0.0000 0.0000 1750.1315 -7426.9321 298.2412 -9177.0636 -7479.4014 298.2818 704.8209 747.1521 30252.3961 206.4179 285.5143
ENERGY: 900000 7.6289 4.1540 2.2347 0.0000 -10664.7638 1405.4200 0.0000 0.0000 1740.1526 -7505.1735 296.5407 -9245.3261 -7483.6271 299.4588 -413.1081 -349.2793 30270.1979 224.0703 297.6512
ENERGY: 1200000 4.9363 3.6844 2.7505 0.0000 -10614.5331 1371.3400 0.0000 0.0000 1766.4920 -7465.3300 301.0292 -9231.8220 -7486.1814 299.4093 -594.0964 -508.1166 30174.6637 43.2761 124.4683
ENERGY: 1500000 1.9354 2.6365 3.3449 0.0000 -10666.3591 1403.6063 0.0000 0.0000 1708.9944 -7545.8416 291.2310 -9254.8360 -7487.7609 299.2018 -61.0483 44.3990 29771.4271 2.7418 85.1348
TCL: Running FEP window   8: Lambda1 0.35   Lambda2 0.39999999999999997 [dLambda 0.04999999999999999]
TCL: Setting parameter firsttimestep to 0
TCL: Setting parameter alchLambda to 0.35
Info: NONBONDED TABLE R-SQUARED SPACING: 0.0625
Info: NONBONDED TABLE SIZE: 705 POINTS
TCL: Setting parameter alchLambda2 to 0.39999999999999997
Info: NONBONDED TABLE R-SQUARED SPACING: 0.0625
Info: NONBONDED TABLE SIZE: 705 POINTS
TCL: Running for 1500000 steps
ETITLE: TS BOND ANGLE DIHED IMPRP ELECT VDW BOUNDARY MISC KINETIC TOTAL TEMP POTENTIAL TOTALAVG TEMPAVG PRESSURE GPRESSURE VOLUME PRESSAVG GPRESSAVG
ENERGY: 0 1.9354 2.6365 3.3449 0.0000 -10666.3582 1404.4583 0.0000 0.0000 1708.1305 -7545.8525 291.0838 -9253.9830 -7545.8525 291.0838 -35.8678 53.9003 29771.4271 -35.8678 53.9003
ENERGY: 300000 1.0179 2.4547 1.9716 0.0000 -10527.6175 1344.3605 0.0000 0.0000 1834.9872 -7342.8256 312.7015 -9177.8128 -7471.7165 298.8278 -574.4138 -516.9817 30699.9165 -336.0584 -273.8149
ENERGY: 600000 0.9643 3.9050 2.3485 0.0000 -10732.2658 1455.6403 0.0000 0.0000 1762.8307 -7506.5770 300.4053 -9269.4077 -7484.6290 299.0518 199.7278 248.9200 30078.7870 -229.5115 -162.1099
ENERGY: 900000 2.5830 5.6680 4.4380 0.0000 -10916.7610 1618.8876 0.0000 0.0000 1775.8047 -7509.3797 302.6162 -9285.1844 -7475.9295 301.6129 1374.8207 1418.6420 29985.7817 -19.8636 48.9223
ENERGY: 1200000 5.0123 3.3286 2.9738 0.0000 -10671.8844 1429.7095 0.0000 0.0000 1716.1804 -7514.6799 292.4556 -9230.8603 -7486.7153 300.4124 -516.6526 -453.2650 30671.3965 -52.0743 19.1230
ENERGY: 1500000 3.7086 4.7644 1.3062 0.0000 -10669.4242 1404.6840 0.0000 0.0000 1814.9864 -7439.9746 309.2932 -9254.9610 -7491.6163 300.4470 -388.5287 -360.1987 30311.6682 -22.3587 47.7052
TCL: Running FEP window   9: Lambda1 0.39999999999999997 Lambda2 0.44999999999999996 [dLambda 0.04999999999999999]
TCL: Setting parameter firsttimestep to 0
TCL: Setting parameter alchLambda to 0.39999999999999997
Info: NONBONDED TABLE R-SQUARED SPACING: 0.0625
Info: NONBONDED TABLE SIZE: 705 POINTS
TCL: Setting parameter alchLambda2 to 0.44999999999999996
Info: NONBONDED TABLE R-SQUARED SPACING: 0.0625
Info: NONBONDED TABLE SIZE: 705 POINTS
TCL: Running for 1500000 steps
ETITLE: TS BOND ANGLE DIHED IMPRP ELECT VDW BOUNDARY MISC KINETIC TOTAL TEMP POTENTIAL TOTALAVG TEMPAVG PRESSURE GPRESSURE VOLUME PRESSAVG GPRESSAVG
ENERGY: 0 3.7086 4.7644 1.3062 0.0000 -10669.4238 1404.4057 0.0000 0.0000 1814.0861 -7441.1528 309.1397 -9255.2389 -7441.1528 309.1397 -432.3642 -357.6127 30311.6682 -432.3642 -357.6127
ENERGY: 300000 2.1843 2.2559 1.7840 0.0000 -10730.4164 1458.6729 0.0000 0.0000 1804.0727 -7461.4465 307.4333 -9265.5192 -7465.3841 306.2399 390.8092 411.7870 29766.4406 63.4802 109.7569
ENERGY: 600000 1.0335 3.8675 2.4947 0.0000 -10567.1096 1305.7930 0.0000 0.0000 1746.3905 -7507.5304 297.6037 -9253.9209 -7475.5855 303.3849 -1072.7754 -1024.0981 30567.0582 -330.6669 -288.0349
ENERGY: 900000 4.0128 2.1490 0.9968 0.0000 -10569.4756 1370.8908 0.0000 0.0000 1762.5014 -7428.9248 300.3492 -9191.4263 -7489.7295 301.1443 -630.8731 -564.7063 30588.3342 -348.3043 -300.4873
ENERGY: 1200000 0.9421 2.3217 1.1008 0.0000 -10669.6228 1439.9983 0.0000 0.0000 1801.0989 -7424.1609 306.9266 -9225.2598 -7499.3754 300.8628 -83.7907 -24.7294 30602.3144 -352.4220 -299.8562
ENERGY: 1500000 2.3010 3.4466 1.4348 0.0000 -10744.5325 1448.9122 0.0000 0.0000 1744.6256 -7543.8123 297.3029 -9288.4379 -7495.8596 300.3336 -287.3605 -213.3022 30621.7209 -271.3326 -212.8309
TCL: Running FEP window  10: Lambda1 0.44999999999999996 Lambda2 0.49999999999999994 [dLambda 0.04999999999999999]
TCL: Setting parameter firsttimestep to 0
TCL: Setting parameter alchLambda to 0.44999999999999996
Info: NONBONDED TABLE R-SQUARED SPACING: 0.0625
Info: NONBONDED TABLE SIZE: 705 POINTS
TCL: Setting parameter alchLambda2 to 0.49999999999999994
Info: NONBONDED TABLE R-SQUARED SPACING: 0.0625
Info: NONBONDED TABLE SIZE: 705 POINTS
TCL: Running for 1500000 steps
ETITLE: TS BOND ANGLE DIHED IMPRP ELECT VDW BOUNDARY MISC KINETIC TOTAL TEMP POTENTIAL TOTALAVG TEMPAVG PRESSURE GPRESSURE VOLUME PRESSAVG GPRESSAVG
ENERGY: 0 2.3010 3.4466 1.4348 0.0000 -10744.5332 1449.7744 0.0000 0.0000 1743.7446 -7543.8318 297.1528 -9287.5763 -7543.8318 297.1528 -271.8482 -202.6990 30621.7209 -271.8482 -202.6990
ENERGY: 300000 4.6439 1.9686 3.2112 0.0000 -10619.6624 1433.7936 0.0000 0.0000 1784.6252 -7391.4198 304.1193 -9176.0450 -7439.2953 300.6564 146.8167 243.2205 30575.2917 -71.2419 5.4477
ENERGY: 600000 2.8561 4.0701 3.4861 0.0000 -10687.8556 1438.3075 0.0000 0.0000 1761.0872 -7478.0487 300.1082 -9239.1358 -7423.6177 301.5652 -166.8302 -62.7989 30405.2694 -214.5607 -137.2857
ENERGY: 900000 0.9414 4.8248 3.6843 0.0000 -10734.3381 1458.9593 0.0000 0.0000 1746.3729 -7519.5554 297.6007 -9265.9283 -7444.0445 300.7829 12.6336 75.4691 30425.1620 -216.4419 -148.1446
ENERGY: 1200000 2.3884 4.2444 0.7867 0.0000 -10737.0536 1508.4515 0.0000 0.0000 1758.5887 -7462.5940 299.6824 -9221.1827 -7453.5195 300.9572 629.3007 665.6417 30456.0889 -209.2681 -141.1471
ENERGY: 1500000 1.6610 5.5185 2.2206 0.0000 -10790.4348 1487.6486 0.0000 0.0000 1836.4619 -7456.9242 312.9528 -9293.3861 -7458.8822 301.4585 451.6145 468.4473 30445.2033 -183.8832 -121.9428
TCL: Running FEP window  11: Lambda1 0.49999999999999994 Lambda2 0.5499999999999999 [dLambda 0.04999999999999999]
TCL: Setting parameter firsttimestep to 0
TCL: Setting parameter alchLambda to 0.49999999999999994
Info: NONBONDED TABLE R-SQUARED SPACING: 0.0625
Info: NONBONDED TABLE SIZE: 705 POINTS
TCL: Setting parameter alchLambda2 to 0.5499999999999999
Info: NONBONDED TABLE R-SQUARED SPACING: 0.0625
Info: NONBONDED TABLE SIZE: 705 POINTS
TCL: Running for 1500000 steps
ETITLE: TS BOND ANGLE DIHED IMPRP ELECT VDW BOUNDARY MISC KINETIC TOTAL TEMP POTENTIAL TOTALAVG TEMPAVG PRESSURE GPRESSURE VOLUME PRESSAVG GPRESSAVG
ENERGY: 0 1.6610 5.5185 2.2206 0.0000 -10790.4338 1487.5767 0.0000 0.0000 1835.5965 -7457.8605 312.8053 -9293.4571 -7457.8605 312.8053 390.5893 474.3652 30445.2033 390.5893 474.3652
ENERGY: 300000 3.5501 5.9740 2.4655 0.0000 -10652.4733 1340.8367 0.0000 0.0000 1717.6619 -7581.9850 292.7080 -9299.6469 -7461.7738 302.9897 -951.8348 -971.4919 30488.1048 -48.9215 -19.9246
ENERGY: 600000 1.6341 1.5631 1.9123 0.0000 -10574.3217 1488.4924 0.0000 0.0000 1705.2629 -7375.4568 290.5951 -9080.7197 -7449.3571 299.6433 513.3929 571.2076 31258.0838 -77.0113 -33.8156
ENERGY: 900000 2.9083 2.2060 1.6049 0.0000 -10664.7230 1349.0940 0.0000 0.0000 1759.5219 -7549.3881 299.8414 -9308.9099 -7456.1026 300.1674 -938.0832 -900.4517 30412.4814 -147.0019 -90.5578
ENERGY: 1200000 1.7108 3.4358 2.4619 0.0000 -10688.9069 1414.0493 0.0000 0.0000 1734.9003 -7532.3487 295.6456 -9267.2491 -7475.4841 299.2388 -219.6876 -130.8594 30452.0934 -198.6048 -135.0256
ENERGY: 1500000 2.8711 2.2265 4.0723 0.0000 -10796.4455 1529.1055 0.0000 0.0000 1768.2383 -7489.9317 301.3268 -9258.1701 -7468.7020 299.8964 464.4643 532.4997 30583.7726 -227.1056 -162.8689
TCL: Running FEP window  12: Lambda1 0.5499999999999999 Lambda2 0.6    [dLambda 0.050000000000000044]
TCL: Setting parameter firsttimestep to 0
TCL: Setting parameter alchLambda to 0.5499999999999999
Info: NONBONDED TABLE R-SQUARED SPACING: 0.0625
Info: NONBONDED TABLE SIZE: 705 POINTS
TCL: Setting parameter alchLambda2 to 0.6
Info: NONBONDED TABLE R-SQUARED SPACING: 0.0625
Info: NONBONDED TABLE SIZE: 705 POINTS
TCL: Running for 1500000 steps
ETITLE: TS BOND ANGLE DIHED IMPRP ELECT VDW BOUNDARY MISC KINETIC TOTAL TEMP POTENTIAL TOTALAVG TEMPAVG PRESSURE GPRESSURE VOLUME PRESSAVG GPRESSAVG
ENERGY: 0 2.8711 2.2265 4.0723 0.0000 -10796.5325 1528.7410 0.0000 0.0000 1767.3393 -7491.2823 301.1736 -9258.6216 -7491.2823 301.1736 450.4591 534.2766 30583.7726 450.4591 534.2766
ENERGY: 300000 2.6199 2.5276 3.6459 0.0000 -10654.5492 1444.4049 0.0000 0.0000 1804.6794 -7396.6715 307.5367 -9201.3509 -7463.1514 303.2043 11.2478 120.0200 30490.0499 19.4019 96.9998
ENERGY: 600000 4.3320 7.0700 2.8105 0.0000 -10723.3124 1497.5089 0.0000 0.0000 1738.8816 -7472.7094 296.3241 -9211.5910 -7486.7281 300.3552 799.6230 866.3922 30030.0991 137.5018 199.3363
ENERGY: 900000 3.0844 5.3858 1.5256 0.0000 -10846.2826 1475.0822 0.0000 0.0000 1752.3088 -7608.8958 298.6122 -9361.2046 -7496.0809 299.1010 -92.9695 34.1060 30290.6273 95.0639 154.6039
ENERGY: 1200000 2.4704 3.3301 4.0013 0.0000 -10777.5545 1448.5682 0.0000 0.0000 1744.9745 -7574.2100 297.3624 -9319.1845 -7500.6269 298.7770 -99.8269 -4.6816 30236.5870 22.1306 77.4634
ENERGY: 1500000 6.7883 1.8460 1.4213 0.0000 -10830.9458 1569.7227 0.0000 0.0000 1725.3471 -7525.8204 294.0177 -9251.1674 -7503.5068 297.7689 1265.0099 1353.8385 29870.2205 63.0221 120.2664
TCL: Running FEP window  13: Lambda1 0.6    Lambda2 0.65   [dLambda 0.050000000000000044]
TCL: Setting parameter firsttimestep to 0
TCL: Setting parameter alchLambda to 0.6
Info: NONBONDED TABLE R-SQUARED SPACING: 0.0625
Info: NONBONDED TABLE SIZE: 705 POINTS
TCL: Setting parameter alchLambda2 to 0.65
Info: NONBONDED TABLE R-SQUARED SPACING: 0.0625
Info: NONBONDED TABLE SIZE: 705 POINTS
TCL: Running for 1500000 steps
ETITLE: TS BOND ANGLE DIHED IMPRP ELECT VDW BOUNDARY MISC KINETIC TOTAL TEMP POTENTIAL TOTALAVG TEMPAVG PRESSURE GPRESSURE VOLUME PRESSAVG GPRESSAVG
ENERGY: 0 6.7884 1.8460 1.4213 0.0000 -10831.0375 1569.9375 0.0000 0.0000 1724.4785 -7526.5658 293.8696 -9251.0443 -7526.5658 293.8696 1276.3570 1364.1961 29870.2205 1276.3570 1364.1961
ENERGY: 300000 4.6676 3.0442 3.4380 0.0000 -10722.8507 1424.2648 0.0000 0.0000 1767.3476 -7520.0885 301.1750 -9287.4361 -7547.7231 296.4923 -7.5358 44.9157 30216.1365 73.1851 152.0078
ENERGY: 600000 4.5984 3.3277 5.5050 0.0000 -10723.7735 1449.2491 0.0000 0.0000 1745.2785 -7515.8148 297.4142 -9261.0932 -7539.6685 297.4213 -283.3383 -238.5737 30698.0604 40.1454 102.1247
ENERGY: 900000 2.9208 2.9144 1.2474 0.0000 -10687.2243 1378.6159 0.0000 0.0000 1760.7862 -7540.7395 300.0569 -9301.5258 -7519.5157 299.3654 -705.1119 -607.0625 30247.4248 -9.7511 51.2590
ENERGY: 1200000 3.7102 4.6976 2.1476 0.0000 -10667.1110 1427.8034 0.0000 0.0000 1747.5381 -7481.2141 297.7992 -9228.7522 -7511.3389 299.5015 -112.8985 -17.4301 30290.7431 5.5646 69.0741
ENERGY: 1500000 1.1350 1.1786 3.6605 0.0000 -10645.1659 1413.5477 0.0000 0.0000 1757.6449 -7467.9991 299.5216 -9225.6441 -7504.2267 299.4081 -173.8472 -122.1125 30591.2363 -94.8843 -35.1668
TCL: Running FEP window  14: Lambda1 0.65   Lambda2 0.7000000000000001 [dLambda 0.050000000000000044]
TCL: Setting parameter firsttimestep to 0
TCL: Setting parameter alchLambda to 0.65
Info: NONBONDED TABLE R-SQUARED SPACING: 0.0625
Info: NONBONDED TABLE SIZE: 705 POINTS
TCL: Setting parameter alchLambda2 to 0.7000000000000001
Info: NONBONDED TABLE R-SQUARED SPACING: 0.0625
Info: NONBONDED TABLE SIZE: 705 POINTS
TCL: Running for 1500000 steps
ETITLE: TS BOND ANGLE DIHED IMPRP ELECT VDW BOUNDARY MISC KINETIC TOTAL TEMP POTENTIAL TOTALAVG TEMPAVG PRESSURE GPRESSURE VOLUME PRESSAVG GPRESSAVG
ENERGY: 0 1.1350 1.1786 3.6605 0.0000 -10645.5364 1413.4486 0.0000 0.0000 1756.7324 -7469.3813 299.3660 -9226.1136 -7469.3813 299.3660 -206.2366 -117.6326 30591.2363 -206.2366 -117.6326
ENERGY: 300000 5.3135 3.4158 1.8290 0.0000 -10802.3836 1491.9302 0.0000 0.0000 1711.0296 -7588.8655 291.5778 -9299.8950 -7503.2238 295.8389 235.4373 257.4100 30133.7662 -58.3024 11.1504
ENERGY: 600000 1.3874 1.5758 1.9995 0.0000 -10813.2096 1520.2975 0.0000 0.0000 1746.0674 -7541.8820 297.5486 -9287.9494 -7494.9746 297.1782 389.3442 395.5463 30383.6432 7.3976 75.0659
ENERGY: 900000 1.1209 1.4182 1.5932 0.0000 -10756.1983 1429.7948 0.0000 0.0000 1802.6377 -7519.6334 307.1888 -9322.2712 -7483.7015 300.1346 -172.0738 -119.5973 30223.4102 -57.8488 8.9105
ENERGY: 1200000 1.4132 4.6617 3.3211 0.0000 -10883.2017 1552.1247 0.0000 0.0000 1771.4207 -7550.2604 301.8691 -9321.6811 -7480.7969 301.0106 667.3410 694.2673 30164.3720 -35.7191 29.0899
ENERGY: 1500000 2.1062 3.7562 1.3486 0.0000 -10811.3475 1452.8083 0.0000 0.0000 1774.3448 -7576.9833 302.3674 -9351.3281 -7491.6426 300.5484 -438.2131 -341.6295 30629.0475 -104.9440 -38.3722
TCL: Running FEP window  15: Lambda1 0.7000000000000001 Lambda2 0.7500000000000001 [dLambda 0.050000000000000044]
TCL: Setting parameter firsttimestep to 0
TCL: Setting parameter alchLambda to 0.7000000000000001
Info: NONBONDED TABLE R-SQUARED SPACING: 0.0625
Info: NONBONDED TABLE SIZE: 705 POINTS
TCL: Setting parameter alchLambda2 to 0.7500000000000001
Info: NONBONDED TABLE R-SQUARED SPACING: 0.0625
Info: NONBONDED TABLE SIZE: 705 POINTS
TCL: Running for 1500000 steps
ETITLE: TS BOND ANGLE DIHED IMPRP ELECT VDW BOUNDARY MISC KINETIC TOTAL TEMP POTENTIAL TOTALAVG TEMPAVG PRESSURE GPRESSURE VOLUME PRESSAVG GPRESSAVG
ENERGY: 0 2.1062 3.7562 1.3486 0.0000 -10812.4288 1452.9233 0.0000 0.0000 1773.4834 -7578.8111 302.2206 -9352.2945 -7578.8111 302.2206 -418.8662 -338.1411 30629.0475 -418.8662 -338.1411
ENERGY: 300000 4.0552 3.6530 5.2295 0.0000 -10655.6244 1346.3879 0.0000 0.0000 1788.3291 -7507.9699 304.7505 -9296.2989 -7507.8688 305.1251 -750.5259 -725.7154 29916.1272 -499.1322 -440.1283
ENERGY: 600000 1.1639 2.9634 4.3768 0.0000 -10782.7793 1446.9191 0.0000 0.0000 1786.0633 -7541.2928 304.3644 -9327.3562 -7500.2711 304.0479 -49.3199 -53.3147 30163.1402 -298.3484 -241.7472
ENERGY: 900000 3.6738 2.8973 2.0489 0.0000 -10708.1599 1433.6665 0.0000 0.0000 1828.7143 -7437.1591 311.6325 -9265.8735 -7490.2842 304.5968 -141.1397 -91.9411 30279.3075 -54.6792 5.6248
ENERGY: 1200000 0.5460 1.9787 1.4666 0.0000 -10743.8940 1446.5543 0.0000 0.0000 1828.8951 -7464.4532 311.6634 -9293.3484 -7479.2715 304.8080 229.5064 251.4078 30043.6513 -13.5147 39.9013
ENERGY: 1500000 2.0778 1.0856 2.6038 0.0000 -10765.8747 1509.1750 0.0000 0.0000 1752.5644 -7498.3681 298.6558 -9250.9325 -7485.6656 303.7584 463.2577 524.7896 30169.3349 15.4185 69.8072
TCL: Running FEP window  16: Lambda1 0.7500000000000001 Lambda2 0.8000000000000002 [dLambda 0.050000000000000044]
TCL: Setting parameter firsttimestep to 0
TCL: Setting parameter alchLambda to 0.7500000000000001
Info: NONBONDED TABLE R-SQUARED SPACING: 0.0625
Info: NONBONDED TABLE SIZE: 705 POINTS
TCL: Setting parameter alchLambda2 to 0.8000000000000002
Info: NONBONDED TABLE R-SQUARED SPACING: 0.0625
Info: NONBONDED TABLE SIZE: 705 POINTS
TCL: Running for 1500000 steps
ETITLE: TS BOND ANGLE DIHED IMPRP ELECT VDW BOUNDARY MISC KINETIC TOTAL TEMP POTENTIAL TOTALAVG TEMPAVG PRESSURE GPRESSURE VOLUME PRESSAVG GPRESSAVG
ENERGY: 0 2.0778 1.0856 2.6038 0.0000 -10767.2964 1511.3115 0.0000 0.0000 1751.6855 -7498.5322 298.5060 -9250.2177 -7498.5322 298.5060 476.7980 552.1751 30169.3349 476.7980 552.1751
ENERGY: 300000 2.7563 3.6103 2.4852 0.0000 -10749.5604 1474.5790 0.0000 0.0000 1705.7603 -7560.3694 290.6799 -9266.1297 -7480.5601 301.7821 40.7280 116.0472 30701.4049 117.4960 178.1466
ENERGY: 600000 2.2633 2.0979 2.3493 0.0000 -10752.0499 1464.6821 0.0000 0.0000 1722.9315 -7557.7258 293.6060 -9280.6573 -7492.6849 299.5804 97.0835 70.9332 30371.6327 -22.1010 33.8554
ENERGY: 900000 0.7210 1.5602 1.8547 0.0000 -10659.8463 1423.6627 0.0000 0.0000 1820.2110 -7411.8367 310.1835 -9232.0477 -7475.5025 301.2392 -115.9840 -12.0810 30526.8451 -55.4812 14.8534
ENERGY: 1200000 3.5038 4.9751 1.9518 0.0000 -10738.1741 1456.6963 0.0000 0.0000 1735.8900 -7535.1571 295.8143 -9271.0472 -7483.8481 300.7248 -23.5662 35.0602 30365.2470 -97.8451 -27.1883
ENERGY: 1500000 2.0487 1.9256 3.7118 0.0000 -10744.6446 1487.3156 0.0000 0.0000 1753.8430 -7495.7998 298.8737 -9249.6428 -7489.8134 299.9471 299.6361 346.1132 30481.8629 -40.6463 26.7995
TCL: Running FEP window  17: Lambda1 0.8000000000000002 Lambda2 0.8500000000000002 [dLambda 0.050000000000000044]
TCL: Setting parameter firsttimestep to 0
TCL: Setting parameter alchLambda to 0.8000000000000002
Info: NONBONDED TABLE R-SQUARED SPACING: 0.0625
Info: NONBONDED TABLE SIZE: 705 POINTS
TCL: Setting parameter alchLambda2 to 0.8500000000000002
Info: NONBONDED TABLE R-SQUARED SPACING: 0.0625
Info: NONBONDED TABLE SIZE: 705 POINTS
TCL: Running for 1500000 steps
ETITLE: TS BOND ANGLE DIHED IMPRP ELECT VDW BOUNDARY MISC KINETIC TOTAL TEMP POTENTIAL TOTALAVG TEMPAVG PRESSURE GPRESSURE VOLUME PRESSAVG GPRESSAVG
ENERGY: 0 2.0487 1.9256 3.7118 0.0000 -10745.5375 1488.3661 0.0000 0.0000 1752.9485 -7496.5367 298.7212 -9249.4853 -7496.5367 298.7212 282.1703 366.5836 30481.8629 282.1703 366.5836
ENERGY: 300000 1.4076 2.7299 3.3300 0.0000 -10786.1158 1455.8326 0.0000 0.0000 1756.0026 -7566.8131 299.2417 -9322.8157 -7540.8159 297.4742 192.6956 221.6082 30182.2890 65.2317 129.9941
ENERGY: 600000 1.8065 1.7022 1.2572 0.0000 -10669.2867 1399.2534 0.0000 0.0000 1753.2459 -7512.0215 298.7719 -9265.2673 -7524.7243 298.6925 -321.1540 -245.3864 30345.5245 -190.4456 -125.3259
ENERGY: 900000 1.3867 1.7227 1.0651 0.0000 -10707.2882 1472.7391 0.0000 0.0000 1743.8609 -7486.5137 297.1726 -9230.3746 -7494.3909 299.1550 255.7189 281.2026 30428.2292 -114.4678 -40.6890
ENERGY: 1200000 2.5415 4.7427 0.9158 0.0000 -10703.1580 1439.3049 0.0000 0.0000 1741.3860 -7514.2671 296.7509 -9255.6531 -7499.8249 298.7961 -151.0714 -19.5460 30276.8781 -195.9592 -124.8282
ENERGY: 1500000 3.5627 2.2899 5.0504 0.0000 -10627.9591 1441.7699 0.0000 0.0000 1727.2179 -7448.0683 294.3365 -9175.2863 -7494.6775 298.9935 41.0645 101.8906 30734.6262 -74.8047 -11.5982
TCL: Running FEP window  18: Lambda1 0.8500000000000002 Lambda2 0.9000000000000002 [dLambda 0.050000000000000044]
TCL: Setting parameter firsttimestep to 0
TCL: Setting parameter alchLambda to 0.8500000000000002
Info: NONBONDED TABLE R-SQUARED SPACING: 0.0625
Info: NONBONDED TABLE SIZE: 705 POINTS
TCL: Setting parameter alchLambda2 to 0.9000000000000002
Info: NONBONDED TABLE R-SQUARED SPACING: 0.0625
Info: NONBONDED TABLE SIZE: 705 POINTS
TCL: Running for 1500000 steps
ETITLE: TS BOND ANGLE DIHED IMPRP ELECT VDW BOUNDARY MISC KINETIC TOTAL TEMP POTENTIAL TOTALAVG TEMPAVG PRESSURE GPRESSURE VOLUME PRESSAVG GPRESSAVG
ENERGY: 0 3.5627 2.2899 5.0504 0.0000 -10629.5742 1441.8372 0.0000 0.0000 1726.3360 -7450.4980 294.1862 -9176.8340 -7450.4980 294.1862 23.4441 109.2409 30734.6262 23.4441 109.2409
ENERGY: 300000 2.7432 3.5716 3.3157 0.0000 -10667.9890 1438.1583 0.0000 0.0000 1727.1764 -7493.0237 294.3294 -9220.2002 -7490.5958 296.5665 -140.2217 -127.4943 30583.3355 -125.7231 -33.3262
ENERGY: 600000 2.4060 3.8929 1.0019 0.0000 -10548.6770 1435.1751 0.0000 0.0000 1787.5910 -7318.6100 304.6247 -9106.2011 -7462.1051 298.5867 519.6517 574.7700 30293.5475 -102.2371 -28.9352
ENERGY: 900000 2.2536 1.8881 3.0607 0.0000 -10734.3528 1438.6172 0.0000 0.0000 1736.5596 -7551.9736 295.9284 -9288.5332 -7463.9964 299.4003 -118.9987 -69.0087 29976.2669 28.7552 95.6161
ENERGY: 1200000 1.6584 3.6374 1.4943 0.0000 -10757.5910 1480.4011 0.0000 0.0000 1812.2785 -7458.1213 308.8317 -9270.3997 -7469.5591 300.4890 310.5807 377.0281 30361.5635 12.0578 80.4910
ENERGY: 1500000 1.6823 3.0780 1.6956 0.0000 -10682.0476 1375.5153 0.0000 0.0000 1767.1203 -7532.9560 301.1363 -9300.0763 -7475.9649 300.2573 -806.3404 -712.1711 30643.5363 -15.8669 55.1038
TCL: Running FEP window  19: Lambda1 0.9000000000000002 Lambda2 0.9500000000000003 [dLambda 0.050000000000000044]
TCL: Setting parameter firsttimestep to 0
TCL: Setting parameter alchLambda to 0.9000000000000002
Info: NONBONDED TABLE R-SQUARED SPACING: 0.0625
Info: NONBONDED TABLE SIZE: 705 POINTS
TCL: Setting parameter alchLambda2 to 0.9500000000000003
Info: NONBONDED TABLE R-SQUARED SPACING: 0.0625
Info: NONBONDED TABLE SIZE: 705 POINTS
TCL: Running for 1500000 steps
ETITLE: TS BOND ANGLE DIHED IMPRP ELECT VDW BOUNDARY MISC KINETIC TOTAL TEMP POTENTIAL TOTALAVG TEMPAVG PRESSURE GPRESSURE VOLUME PRESSAVG GPRESSAVG
ENERGY: 0 1.6823 3.0780 1.6956 0.0000 -10683.8504 1376.1292 0.0000 0.0000 1766.2725 -7534.9927 300.9918 -9301.2652 -7534.9927 300.9918 -784.7291 -700.3333 30643.5363 -784.7291 -700.3333
ENERGY: 300000 1.6374 2.2567 1.5573 0.0000 -10658.1310 1409.4273 0.0000 0.0000 1800.1746 -7443.0777 306.7691 -9243.2523 -7477.5519 304.9572 -141.4910 -29.2303 30515.8364 -360.1318 -275.5435
ENERGY: 600000 1.6767 2.0318 4.0773 0.0000 -10675.7168 1410.3141 0.0000 0.0000 1731.9538 -7525.6631 295.1435 -9257.6170 -7457.6994 303.5087 -422.1237 -340.3545 30710.8021 -299.7420 -222.6956
ENERGY: 900000 4.0592 2.8058 2.6906 0.0000 -10744.7460 1501.7906 0.0000 0.0000 1745.3125 -7488.0874 297.4200 -9233.3999 -7467.2332 301.9838 444.4477 441.5495 30750.8549 -193.9769 -121.2758
ENERGY: 1200000 4.1695 2.6648 2.6521 0.0000 -10821.3206 1491.6659 0.0000 0.0000 1757.5411 -7562.6272 299.5039 -9320.1683 -7474.8417 301.2420 196.6472 181.0774 30158.2862 -95.5957 -25.9843
ENERGY: 1500000 1.0566 3.4747 1.0789 0.0000 -10595.7945 1393.1985 0.0000 0.0000 1777.5901 -7419.3957 302.9204 -9196.9858 -7471.9045 301.7382 -174.2172 -111.0119 30658.3138 -64.2230 6.1345
TCL: Running FEP window  20: Lambda1 0.9500000000000003 Lambda2 1.0    [dLambda 0.04999999999999971]
TCL: Setting parameter firsttimestep to 0
TCL: Setting parameter alchLambda to 0.9500000000000003
Info: NONBONDED TABLE R-SQUARED SPACING: 0.0625
Info: NONBONDED TABLE SIZE: 705 POINTS
TCL: Setting parameter alchLambda2 to 1.0
Info: NONBONDED TABLE R-SQUARED SPACING: 0.0625
Info: NONBONDED TABLE SIZE: 705 POINTS
TCL: Running for 1500000 steps
ETITLE: TS BOND ANGLE DIHED IMPRP ELECT VDW BOUNDARY MISC KINETIC TOTAL TEMP POTENTIAL TOTALAVG TEMPAVG PRESSURE GPRESSURE VOLUME PRESSAVG GPRESSAVG
ENERGY: 0 1.0566 3.4747 1.0789 0.0000 -10597.8070 1395.1019 0.0000 0.0000 1776.7273 -7420.3677 302.7734 -9197.0950 -7420.3677 302.7734 -161.8410 -81.2188 30658.3138 -161.8410 -81.2188
ENERGY: 300000 2.1090 2.6420 1.1386 0.0000 -10648.4155 1395.4882 0.0000 0.0000 1733.1678 -7513.8700 295.3504 -9247.0378 -7499.2143 298.7791 -599.3384 -494.8012 30671.7791 -306.7691 -241.2248
ENERGY: 600000 1.4205 4.3619 3.6906 0.0000 -10741.1638 1451.4023 0.0000 0.0000 1763.4647 -7516.8239 300.5133 -9280.2886 -7511.7127 296.2934 96.9098 157.6537 30114.8374 -312.6715 -249.3190
ENERGY: 900000 5.7564 3.7308 3.8536 0.0000 -10724.3751 1464.0950 0.0000 0.0000 1738.9394 -7507.9999 296.3339 -9246.9393 -7511.9326 297.7381 350.4458 456.8170 30080.5918 -264.3315 -201.4978
ENERGY: 1200000 2.2446 3.2456 1.6910 0.0000 -10632.7382 1403.7966 0.0000 0.0000 1762.0922 -7459.6682 300.2794 -9221.7604 -7510.8747 297.6021 -435.8094 -346.3087 30746.9552 -292.2512 -228.2385
ENERGY: 1500000 1.0763 3.4481 5.0918 0.0000 -10746.7183 1475.5162 0.0000 0.0000 1801.2045 -7460.3813 306.9446 -9261.5858 -7509.6292 297.9080 696.1908 729.7490 30063.8632 -257.0647 -194.3902
TCL: Exiting due to exit command.
