Info: SIMULATION PARAMETERS:
Info: TIMESTEP               2
Info: NUMBER OF STEPS        0
Info: STEPS PER CYCLE        10
Info: PERIODIC CELL BASIS 1  30.758 0 0
Info: PERIODIC CELL BASIS 2  0 30.1197 0
Info: PERIODIC CELL BASIS 3  0 0 32.7
Info: PERIODIC CELL CENTER   0 0 0
Info: WRAPPING WATERS AROUND PERIODIC BOUNDARIES ON OUTPUT.
Info: WRAPPING ALL CLUSTERS AROUND PERIODIC BOUNDARIES ON OUTPUT.
Info: FIRST LDB TIMESTEP     50
Info: LAST LDB TIMESTEP     -1
Info: HOM BACKGROUND SCALING 1
Info: PME BACKGROUND SCALING 1
Info: MIN ATOMS PER PATCH    40
Info: EMPTY PATCH LOAD       40 ATOMS
Info: VELOCITY FILE          mobley_2725802_equil.vel
Info: CENTER OF MASS MOVING INITIALLY? NO
Info: DIELECTRIC             1
Info: EXCLUDE                SCALED ONE-FOUR
Info: 1-4 ELECTROSTATICS SCALED BY 0.833333
Info: MODIFIED 1-4 VDW PARAMETERS WILL BE USED
Info: DCD FILENAME           mobley_2725802_prod.dcd
Info: DCD FREQUENCY          100000
Info: DCD FIRST STEP         100000
Info: DCD FILE WILL CONTAIN UNIT CELL DATA
Info: XST FILENAME           mobley_2725802_prod.xst
Info: XST FREQUENCY          100000
Info: NO VELOCITY DCD OUTPUT
Info: NO FORCE DCD OUTPUT
Info: OUTPUT FILENAME        mobley_2725802_prod
Info: BINARY OUTPUT FILES WILL BE USED
Info: RESTART FILENAME       mobley_2725802_prod.restart
Info: RESTART FREQUENCY      100000
Info: BINARY RESTART FILES WILL BE USED
Info: CUTOFF                 9
Info: PAIRLIST DISTANCE      11
Info: PAIRLIST SHRINK RATE   0.01
Info: PAIRLIST GROW RATE     0.01
Info: PAIRLIST TRIGGER       0.3
Info: PAIRLISTS PER CYCLE    2
Info: PAIRLISTS ENABLED
Info: MARGIN                 2
Info: HYDROGEN GROUP CUTOFF  2.5
Info: PATCH DIMENSION        15.5
Info: ENERGY OUTPUT STEPS    100000
Info: ENERGY EVALUATION STEPS    100000
Info: OUTPUT ENERGY PRECISION 4
Info: CROSSTERM ENERGY INCLUDED IN DIHEDRAL
Info: TIMING OUTPUT STEPS    1000000
Info: PRESSURE OUTPUT STEPS  100000
Info: ALCHEMICAL FEP ON
Info: FEP CURRENT LAMBDA VALUE     0
Info: FEP COMPARISON LAMBDA VALUE  0.05
Info: FEP INTRA-ALCHEMICAL NON-BONDED INTERACTIONS WILL BE RETAINED
Info: FEP INTRA-ALCHEMICAL BONDED INTERACTIONS WILL BE RETAINED
Info: FEP VDW SHIFTING COEFFICIENT 5
Info: FEP ELEC. ACTIVE FOR ANNIHILATED PARTICLES BETWEEN LAMBDA = 0 AND LAMBDA = 0.5
Info: FEP ELEC. ACTIVE FOR EXNIHILATED PARTICLES BETWEEN LAMBDA = 0.5 AND LAMBDA = 1
Info: FEP VDW ACTIVE FOR ANNIHILATED PARTICLES BETWEEN LAMBDA = 0 AND LAMBDA = 1
Info: FEP VDW ACTIVE FOR EXNIHILATED PARTICLES BETWEEN LAMBDA = 0 AND LAMBDA = 1
Info: FEP BOND ACTIVE FOR ANNIHILATED PARTICLES BETWEEN LAMBDA = 1 AND LAMBDA = 1
Info: FEP BOND ACTIVE FOR EXNIHILATED PARTICLES BETWEEN LAMBDA = 0 AND LAMBDA = 0
Info: LANGEVIN DYNAMICS ACTIVE
Info: LANGEVIN TEMPERATURE   300
Info: LANGEVIN USING BBK INTEGRATOR
Info: LANGEVIN DAMPING COEFFICIENT IS 1 INVERSE PS
Info: LANGEVIN DYNAMICS APPLIED TO HYDROGENS
Info: LANGEVIN PISTON PRESSURE CONTROL ACTIVE
Info:        TARGET PRESSURE IS 1.01325 BAR
Info:     OSCILLATION PERIOD IS 50 FS
Info:             DECAY TIME IS 25 FS
Info:     PISTON TEMPERATURE IS 300 K
Info:       PRESSURE CONTROL IS GROUP-BASED
Info:    INITIAL STRAIN RATE IS 0.000664113 0.000664113 0.000664113
Info:       CELL FLUCTUATION IS ISOTROPIC
Info: PARTICLE MESH EWALD (PME) ACTIVE
Info: PME TOLERANCE               1e-06
Info: PME EWALD COEFFICIENT       0.348832
Info: PME INTERPOLATION ORDER     4
Info: PME GRID DIMENSIONS         32 32 36
Info: PME MAXIMUM GRID SPACING    1
Info: PME CALCULATION WILL BE PERFORMED ON GPU
Info: FULL ELECTROSTATIC EVALUATION FREQUENCY      2
Info: USING VERLET I (r-RESPA) MTS SCHEME.
Info: C1 SPLITTING OF LONG RANGE ELECTROSTATICS
Info: PLACING ATOMS IN PATCHES BY HYDROGEN GROUPS
Info: RIGID BONDS TO HYDROGEN : ALL
Info:         ERROR TOLERANCE : 1e-08
Info:          MAX ITERATIONS : 100
Info: RIGID WATER USING SETTLE ALGORITHM
Info: RANDOM NUMBER SEED     1743606175
Info: USE HYDROGEN BONDS?    NO
Info: Using AMBER format force field!
Info: AMBER PARM FILE        mobley_2725802.prmtop
Info: COORDINATE PDB         mobley_2725802.pdb
Info: Exclusions will be read from PARM file!
Info: SCNB (VDW SCALING)     2
Info: USING ARITHMETIC MEAN TO COMBINE L-J SIGMA PARAMETERS
Info: BINARY COORDINATES     mobley_2725802_equil.coor
Info: SUMMARY OF PARAMETERS:
Info: 9 BONDS
Info: 13 ANGLES
Info:   13 HARMONIC
Info:   0 COSINE-BASED
Info: 17 DIHEDRAL
Info: 0 IMPROPER
Info: 0 CROSSTERM
Info: 0 VDW
Info: 36 VDW_PAIRS
Info: 0 NBTHOLE_PAIRS
Info: To read alchdata from file: mobley_2725802.pdb
Info: To read alchflag data from column: 5
Info: STRUCTURE SUMMARY:
Info: 2947 ATOMS
Info: 2947 BONDS
Info: 36 ANGLES
Info: 67 DIHEDRALS
Info: 0 IMPROPERS
Info: 0 CROSSTERMS
Info: 3027 EXCLUSIONS
Info: 2939 RIGID BONDS
Info: ALCH: 0 ATOMS TO DISAPPEAR IN FINAL STATE
Info: ALCH: 19 ATOMS TO APPEAR IN FINAL STATE
Info: 5902 DEGREES OF FREEDOM
Info: 984 HYDROGEN GROUPS
Info: 4 ATOMS IN LARGEST HYDROGEN GROUP
Info: 984 MIGRATION GROUPS
Info: 4 ATOMS IN LARGEST MIGRATION GROUP
Info: TOTAL MASS = 17696.8 amu
Info: TOTAL CHARGE = -0.000100024 e
Info: MASS DENSITY = 0.970057 g/cm^3
Info: ATOM DENSITY = 0.0972801 atoms/A^3
Info: ADDED 0 IMPLICIT EXCLUSIONS
Info: NONBONDED TABLE R-SQUARED SPACING: 0.0625
Info: NONBONDED TABLE SIZE: 705 POINTS
Info: REMOVING COM VELOCITY -0.0624692 -0.135195 -0.0968535
Info: Use 3D box decompostion in PME FFT.
Info: Updated CUDA force table with 4096 elements.
Info: Updated CUDA LJ table with 8 x 8 elements.
Info: Found 22 unique exclusion lists needing 56 bytes
TCL: Running for 1500000 steps
ETITLE: TS BOND ANGLE DIHED IMPRP ELECT VDW BOUNDARY MISC KINETIC TOTAL TEMP POTENTIAL TOTALAVG TEMPAVG PRESSURE GPRESSURE VOLUME PRESSAVG GPRESSAVG
ENERGY: 0 1.6758 13.1216 10.8817 0.0000 -10514.6678 1318.2720 0.0000 0.0000 1784.8013 -7385.9155 304.3554 -9170.7168 -7385.9155 304.3554 -755.6789 -677.4687 30293.9682 -755.6789 -677.4687
ENERGY: 300000 2.2006 8.5537 14.8857 0.0000 -10745.1554 1428.0313 0.0000 0.0000 1845.9624 -7445.5217 314.7850 -9291.4840 -7451.7914 304.3318 -238.2620 -163.3515 30448.4156 -258.5685 -187.4317
ENERGY: 600000 1.0841 14.6522 15.0360 0.0000 -10701.9520 1430.3782 0.0000 0.0000 1714.1082 -7526.6932 292.3004 -9240.8014 -7448.3220 303.2418 -45.5195 8.3773 30250.2321 -52.7694 4.0415
ENERGY: 900000 1.7089 11.8435 14.8209 0.0000 -10579.4003 1399.1213 0.0000 0.0000 1708.8065 -7443.0991 291.3963 -9151.9057 -7447.6431 300.5666 -130.2277 -60.4844 30350.0766 -76.7989 -15.8146
ENERGY: 1200000 2.4964 10.1601 16.3383 0.0000 -10686.4300 1478.9805 0.0000 0.0000 1782.6850 -7395.7696 303.9945 -9178.4546 -7449.1578 300.4542 619.7358 724.3076 29668.0046 -18.8014 48.4192
ENERGY: 1500000 2.6162 9.1903 13.3241 0.0000 -10699.0874 1450.4527 0.0000 0.0000 1803.6048 -7419.8993 307.5619 -9223.5041 -7442.0303 301.0867 -144.2995 -120.3820 30296.1715 -26.1281 31.2936
TCL: Running FEP window   2: Lambda1 0.05   Lambda2 0.1    [dLambda 0.05  ]
TCL: Setting parameter firsttimestep to 0
TCL: Setting parameter alchLambda to 0.05
Info: NONBONDED TABLE R-SQUARED SPACING: 0.0625
Info: NONBONDED TABLE SIZE: 705 POINTS
TCL: Setting parameter alchLambda2 to 0.1
Info: NONBONDED TABLE R-SQUARED SPACING: 0.0625
Info: NONBONDED TABLE SIZE: 705 POINTS
TCL: Running for 1500000 steps
ETITLE: TS BOND ANGLE DIHED IMPRP ELECT VDW BOUNDARY MISC KINETIC TOTAL TEMP POTENTIAL TOTALAVG TEMPAVG PRESSURE GPRESSURE VOLUME PRESSAVG GPRESSAVG
ENERGY: 0 2.6162 9.1903 13.3241 0.0000 -10699.0871 1453.4670 0.0000 0.0000 1802.7728 -7417.7167 307.4200 -9220.4896 -7417.7167 307.4200 -204.6876 -116.5039 30296.1715 -204.6876 -116.5039
ENERGY: 300000 3.1431 11.7054 13.8084 0.0000 -10720.7127 1444.7450 0.0000 0.0000 1785.2751 -7462.0357 304.4362 -9247.3108 -7445.8564 304.8923 174.0299 240.7540 29810.1406 -119.8464 -49.8670
ENERGY: 600000 2.5489 12.6586 12.9556 0.0000 -10769.0884 1482.9058 0.0000 0.0000 1750.9866 -7507.0329 298.5891 -9258.0195 -7463.4910 304.0921 391.3530 407.6746 29977.6856 159.9560 220.4138
ENERGY: 900000 2.2402 9.5044 16.3567 0.0000 -10641.7147 1362.6467 0.0000 0.0000 1707.9254 -7543.0414 291.2461 -9250.9668 -7474.5259 302.5530 -813.3441 -749.6203 30141.5400 127.1851 196.5467
ENERGY: 1200000 2.1635 13.0441 12.2907 0.0000 -10591.2892 1357.1399 0.0000 0.0000 1798.7723 -7407.8787 306.7378 -9206.6509 -7475.2053 301.8842 -472.1832 -459.9671 30236.1023 -28.0619 38.6786
ENERGY: 1500000 1.4889 11.3805 13.0659 0.0000 -10682.7521 1400.5939 0.0000 0.0000 1692.6525 -7563.5704 288.6416 -9256.2229 -7473.0075 300.9305 -430.5017 -354.1448 29972.6706 -118.1748 -51.7016
TCL: Running FEP window   3: Lambda1 0.1    Lambda2 0.15000000000000002 [dLambda 0.05000000000000002]
TCL: Setting parameter firsttimestep to 0
TCL: Setting parameter alchLambda to 0.1
Info: NONBONDED TABLE R-SQUARED SPACING: 0.0625
Info: NONBONDED TABLE SIZE: 705 POINTS
TCL: Setting parameter alchLambda2 to 0.15000000000000002
Info: NONBONDED TABLE R-SQUARED SPACING: 0.0625
Info: NONBONDED TABLE SIZE: 705 POINTS
TCL: Running for 1500000 steps
ETITLE: TS BOND ANGLE DIHED IMPRP ELECT VDW BOUNDARY MISC KINETIC TOTAL TEMP POTENTIAL TOTALAVG TEMPAVG PRESSURE GPRESSURE VOLUME PRESSAVG GPRESSAVG
ENERGY: 0 1.4889 11.3805 13.0659 0.0000 -10682.7533 1403.0790 0.0000 0.0000 1691.7381 -7562.0009 288.4857 -9253.7390 -7562.0009 288.4857 -442.8198 -345.4952 29972.6706 -442.8198 -345.4952
ENERGY: 300000 1.4979 10.4530 13.0604 0.0000 -10653.1079 1398.3028 0.0000 0.0000 1752.9430 -7476.8508 298.9227 -9229.7938 -7480.3725 298.1979 -740.7199 -648.4676 30705.1894 -119.4389 -34.8887
ENERGY: 600000 2.7555 14.4917 11.3256 0.0000 -10693.4666 1443.2933 0.0000 0.0000 1789.4014 -7432.1990 305.1399 -9221.6005 -7488.4067 298.9959 -31.2882 18.2063 30666.4301 -281.3886 -205.4255
ENERGY: 900000 1.7504 17.0647 10.5931 0.0000 -10720.0347 1483.2018 0.0000 0.0000 1702.1851 -7505.2396 290.2672 -9207.4247 -7483.8940 297.5563 492.3762 552.4335 29766.2360 -136.7097 -63.8032
ENERGY: 1200000 5.0232 15.3783 14.6073 0.0000 -10669.6961 1433.5732 0.0000 0.0000 1696.0054 -7505.1087 289.2134 -9201.1141 -7486.1570 296.7911 244.2613 316.3192 29618.6338 -115.6778 -44.0724
ENERGY: 1500000 2.7070 14.8613 12.3024 0.0000 -10780.6758 1494.0986 0.0000 0.0000 1787.2108 -7469.4956 304.7663 -9256.7064 -7475.5902 298.1869 466.8214 554.3247 30101.4885 -75.8372 -7.4855
TCL: Running FEP window   4: Lambda1 0.15000000000000002 Lambda2 0.2    [dLambda 0.04999999999999999]
TCL: Setting parameter firsttimestep to 0
TCL: Setting parameter alchLambda to 0.15000000000000002
Info: NONBONDED TABLE R-SQUARED SPACING: 0.0625
Info: NONBONDED TABLE SIZE: 705 POINTS
TCL: Setting parameter alchLambda2 to 0.2
Info: NONBONDED TABLE R-SQUARED SPACING: 0.0625
Info: NONBONDED TABLE SIZE: 705 POINTS
TCL: Running for 1500000 steps
ETITLE: TS BOND ANGLE DIHED IMPRP ELECT VDW BOUNDARY MISC KINETIC TOTAL TEMP POTENTIAL TOTALAVG TEMPAVG PRESSURE GPRESSURE VOLUME PRESSAVG GPRESSAVG
ENERGY: 0 2.7070 14.8613 12.3024 0.0000 -10780.6756 1494.1177 0.0000 0.0000 1786.3449 -7470.3422 304.6187 -9256.6871 -7470.3422 304.6187 476.4702 558.1220 30101.4885 476.4702 558.1220
ENERGY: 300000 4.5906 14.3034 12.1226 0.0000 -10583.8343 1401.8664 0.0000 0.0000 1771.6551 -7379.2962 302.1137 -9150.9513 -7433.9559 304.2800 -624.6906 -529.8826 31036.3401 -105.3565 -35.4781
ENERGY: 600000 2.5845 13.1879 16.3571 0.0000 -10699.4971 1385.9951 0.0000 0.0000 1819.9431 -7461.4295 310.3480 -9281.3726 -7442.3211 305.0581 -637.7757 -554.9722 30081.2419 -250.2186 -198.2772
ENERGY: 900000 2.8470 14.0351 11.4980 0.0000 -10699.5817 1438.3999 0.0000 0.0000 1738.6234 -7494.1783 296.4809 -9232.8017 -7455.6388 302.8088 287.7886 380.1365 29704.1681 -9.3441 47.9104
ENERGY: 1200000 3.2461 12.1660 12.2571 0.0000 -10604.2222 1329.7400 0.0000 0.0000 1755.2185 -7491.5945 299.3108 -9246.8129 -7455.1732 302.4880 -796.7591 -770.0027 29944.0029 -33.3802 19.4311
ENERGY: 1500000 2.6262 11.4593 13.8295 0.0000 -10699.3727 1405.5608 0.0000 0.0000 1762.2244 -7503.6724 300.5055 -9265.8969 -7451.0117 302.4999 -20.0967 -89.1970 29926.5313 -82.3174 -39.3548
TCL: Running FEP window   5: Lambda1 0.2    Lambda2 0.25   [dLambda 0.04999999999999999]
TCL: Setting parameter firsttimestep to 0
TCL: Setting parameter alchLambda to 0.2
Info: NONBONDED TABLE R-SQUARED SPACING: 0.0625
Info: NONBONDED TABLE SIZE: 705 POINTS
TCL: Setting parameter alchLambda2 to 0.25
Info: NONBONDED TABLE R-SQUARED SPACING: 0.0625
Info: NONBONDED TABLE SIZE: 705 POINTS
TCL: Running for 1500000 steps
ETITLE: TS BOND ANGLE DIHED IMPRP ELECT VDW BOUNDARY MISC KINETIC TOTAL TEMP POTENTIAL TOTALAVG TEMPAVG PRESSURE GPRESSURE VOLUME PRESSAVG GPRESSAVG
ENERGY: 0 2.6262 11.4593 13.8296 0.0000 -10699.3717 1406.2727 0.0000 0.0000 1761.3452 -7503.8388 300.3556 -9265.1840 -7503.8388 300.3556 -163.2913 -83.8008 29926.5313 -163.2913 -83.8008
ENERGY: 300000 1.6480 9.8045 12.6192 0.0000 -10824.9964 1464.0642 0.0000 0.0000 1742.5077 -7594.3528 297.1433 -9336.8605 -7529.9038 295.7616 -130.0324 -75.3090 29875.7310 -48.3822 21.8750
ENERGY: 600000 1.8093 11.3725 12.7456 0.0000 -10765.5968 1469.5526 0.0000 0.0000 1779.5136 -7490.6032 303.4537 -9270.1168 -7489.8412 297.9893 145.6678 169.0516 30323.0416 60.7797 125.6072
ENERGY: 900000 1.8841 16.8664 13.9076 0.0000 -10728.3973 1441.6000 0.0000 0.0000 1721.2340 -7532.9052 293.5155 -9254.1392 -7495.2668 296.6217 -123.4002 -94.3766 30332.8279 10.9497 73.6258
ENERGY: 1200000 0.9493 11.1369 12.8846 0.0000 -10642.1608 1370.0333 0.0000 0.0000 1790.5622 -7456.5945 305.3378 -9247.1567 -7487.6850 297.8174 -515.4970 -451.6556 29998.3465 -40.7283 21.3331
ENERGY: 1500000 1.2754 11.3612 14.3575 0.0000 -10792.6833 1457.0042 0.0000 0.0000 1745.6186 -7563.0665 297.6738 -9308.6851 -7494.2074 297.8609 320.9602 366.5871 29828.7785 10.6438 70.8344
TCL: Running FEP window   6: Lambda1 0.25   Lambda2 0.3    [dLambda 0.04999999999999999]
TCL: Setting parameter firsttimestep to 0
TCL: Setting parameter alchLambda to 0.25
Info: NONBONDED TABLE R-SQUARED SPACING: 0.0625
Info: NONBONDED TABLE SIZE: 705 POINTS
TCL: Setting parameter alchLambda2 to 0.3
Info: NONBONDED TABLE R-SQUARED SPACING: 0.0625
Info: NONBONDED TABLE SIZE: 705 POINTS
TCL: Running for 1500000 steps
ETITLE: TS BOND ANGLE DIHED IMPRP ELECT VDW BOUNDARY MISC KINETIC TOTAL TEMP POTENTIAL TOTALAVG TEMPAVG PRESSURE GPRESSURE VOLUME PRESSAVG GPRESSAVG
ENERGY: 0 1.2754 11.3612 14.3575 0.0000 -10792.6841 1456.8033 0.0000 0.0000 1744.7389 -7564.1478 297.5237 -9308.8867 -7564.1478 297.5237 285.1870 368.2105 29828.7785 285.1870 368.2105
ENERGY: 300000 2.4822 11.4456 14.3834 0.0000 -10786.6353 1448.6301 0.0000 0.0000 1851.6160 -7458.0780 315.7491 -9309.6941 -7496.6725 304.1267 -163.2658 -83.3680 30228.8052 282.8328 369.7976
ENERGY: 600000 1.7777 12.6272 13.1471 0.0000 -10596.4246 1421.1048 0.0000 0.0000 1763.2474 -7384.5204 300.6799 -9147.7678 -7435.3999 303.5605 -241.7838 -147.1756 30927.2036 211.4604 297.1581
ENERGY: 900000 2.6640 19.6890 10.1385 0.0000 -10769.9229 1477.5264 0.0000 0.0000 1767.4003 -7492.5047 301.3881 -9259.9050 -7449.9450 301.7763 550.7484 613.9860 29465.5953 163.3841 243.2244
ENERGY: 1200000 2.5526 9.9586 13.1914 0.0000 -10738.9754 1471.9232 0.0000 0.0000 1798.0137 -7443.3359 306.6085 -9241.3497 -7467.1911 301.0934 147.3519 195.8233 30516.8718 9.9401 84.4672
ENERGY: 1500000 1.3723 11.6231 12.9944 0.0000 -10562.1956 1338.9177 0.0000 0.0000 1786.7559 -7410.5322 304.6887 -9197.2881 -7456.0841 301.4710 -690.5339 -628.3778 30609.4823 -65.4207 -1.9968
TCL: Running FEP window   7: Lambda1 0.3    Lambda2 0.35   [dLambda 0.04999999999999999]
TCL: Setting parameter firsttimestep to 0
TCL: Setting parameter alchLambda to 0.3
Info: NONBONDED TABLE R-SQUARED SPACING: 0.0625
Info: NONBONDED TABLE SIZE: 705 POINTS
TCL: Setting parameter alchLambda2 to 0.35
Info: NONBONDED TABLE R-SQUARED SPACING: 0.0625
Info: NONBONDED TABLE SIZE: 705 POINTS
TCL: Running for 1500000 steps
ETITLE: TS BOND ANGLE DIHED IMPRP ELECT VDW BOUNDARY MISC KINETIC TOTAL TEMP POTENTIAL TOTALAVG TEMPAVG PRESSURE GPRESSURE VOLUME PRESSAVG GPRESSAVG
ENERGY: 0 1.3723 11.6231 12.9944 0.0000 -10562.1953 1339.4595 0.0000 0.0000 1785.9036 -7410.8425 304.5434 -9196.7460 -7410.8425 304.5434 -697.7465 -620.4474 30609.4823 -697.7465 -620.4474
ENERGY: 300000 4.7248 8.1128 14.3813 0.0000 -10688.1183 1408.8213 0.0000 0.0000 1747.5858 -7504.4923 298.0092 -9252.0781 -7466.5068 301.6937 -309.7175 -238.8087 30090.6554 -108.9319 -27.9184
ENERGY: 600000 2.6445 10.9395 13.4108 0.0000 -10717.3372 1511.2388 0.0000 0.0000 1767.3099 -7411.7937 301.3727 -9179.1036 -7474.4278 300.7047 832.2516 882.1897 29975.6453 55.3998 129.5278
ENERGY: 900000 3.0217 14.5417 13.7132 0.0000 -10652.5944 1388.3419 0.0000 0.0000 1801.7797 -7431.1961 307.2507 -9232.9758 -7466.0001 301.6502 -404.1154 -288.7886 30065.8158 -41.8531 37.4350
ENERGY: 1200000 3.2977 9.9434 15.4648 0.0000 -10533.6982 1312.1907 0.0000 0.0000 1764.0623 -7428.7392 300.8189 -9192.8016 -7475.1873 300.8166 -715.0471 -584.0414 29749.9368 -35.1785 45.9196
ENERGY: 1500000 2.1183 11.0220 14.3023 0.0000 -10750.4604 1499.2312 0.0000 0.0000 1804.9973 -7418.7893 307.7994 -9223.7866 -7463.2364 301.3421 584.0929 676.3212 29891.0873 44.9627 118.8911
TCL: Running FEP window   8: Lambda1 0.35   Lambda2 0.39999999999999997 [dLambda 0.04999999999999999]
TCL: Setting parameter firsttimestep to 0
TCL: Setting parameter alchLambda to 0.35
Info: NONBONDED TABLE R-SQUARED SPACING: 0.0625
Info: NONBONDED TABLE SIZE: 705 POINTS
TCL: Setting parameter alchLambda2 to 0.39999999999999997
Info: NONBONDED TABLE R-SQUARED SPACING: 0.0625
Info: NONBONDED TABLE SIZE: 705 POINTS
TCL: Running for 1500000 steps
ETITLE: TS BOND ANGLE DIHED IMPRP ELECT VDW BOUNDARY MISC KINETIC TOTAL TEMP POTENTIAL TOTALAVG TEMPAVG PRESSURE GPRESSURE VOLUME PRESSAVG GPRESSAVG
ENERGY: 0 2.1183 11.0220 14.3023 0.0000 -10750.4600 1500.5566 0.0000 0.0000 1804.0966 -7418.3643 307.6458 -9222.4609 -7418.3643 307.6458 581.0310 688.6326 29891.0873 581.0310 688.6326
ENERGY: 300000 2.3273 15.2140 11.5561 0.0000 -10721.9547 1472.3601 0.0000 0.0000 1749.1135 -7471.3837 298.2697 -9220.4972 -7435.0430 303.5230 164.4453 222.6641 30211.5693 318.0166 391.8738
ENERGY: 600000 4.6844 9.9428 15.3647 0.0000 -10927.5680 1539.6747 0.0000 0.0000 1723.1887 -7634.7127 293.8489 -9357.9014 -7471.3609 301.5020 797.0958 808.5186 29506.2960 285.0689 357.1131
ENERGY: 900000 1.0614 15.3245 10.7439 0.0000 -10655.3297 1407.3954 0.0000 0.0000 1749.6515 -7471.1531 298.3615 -9220.8046 -7486.3838 300.9494 -3.3614 39.8674 29850.6698 140.8055 205.3065
ENERGY: 1200000 1.4625 11.7679 12.8119 0.0000 -10704.4856 1476.3637 0.0000 0.0000 1731.0000 -7471.0796 295.1809 -9202.0796 -7489.7625 299.5102 265.9321 373.1933 30327.4498 141.8447 210.6006
ENERGY: 1500000 1.8715 12.3297 13.1169 0.0000 -10669.9422 1380.0563 0.0000 0.0000 1787.8259 -7474.7418 304.8712 -9262.5677 -7478.3325 300.7544 -766.9010 -699.6473 30617.7883 121.4384 191.8761
TCL: Running FEP window   9: Lambda1 0.39999999999999997 Lambda2 0.44999999999999996 [dLambda 0.04999999999999999]
TCL: Setting parameter firsttimestep to 0
TCL: Setting parameter alchLambda to 0.39999999999999997
Info: NONBONDED TABLE R-SQUARED SPACING: 0.0625
Info: NONBONDED TABLE SIZE: 705 POINTS
TCL: Setting parameter alchLambda2 to 0.44999999999999996
Info: NONBONDED TABLE R-SQUARED SPACING: 0.0625
Info: NONBONDED TABLE SIZE: 705 POINTS
TCL: Running for 1500000 steps
ETITLE: TS BOND ANGLE DIHED IMPRP ELECT VDW BOUNDARY MISC KINETIC TOTAL TEMP POTENTIAL TOTALAVG TEMPAVG PRESSURE GPRESSURE VOLUME PRESSAVG GPRESSAVG
ENERGY: 0 1.8715 12.3297 13.1169 0.0000 -10669.9420 1379.6450 0.0000 0.0000 1786.9501 -7476.0287 304.7219 -9262.9788 -7476.0287 304.7219 -790.9828 -696.6004 30617.7883 -790.9828 -696.6004
ENERGY: 300000 1.7028 18.6127 12.8753 0.0000 -10801.9156 1484.2249 0.0000 0.0000 1775.5162 -7508.9836 302.7721 -9284.4998 -7497.2774 301.3885 373.5152 430.1533 30099.3455 -202.8885 -102.1982
ENERGY: 600000 3.0319 17.6569 11.8577 0.0000 -10715.4928 1504.9477 0.0000 0.0000 1766.7985 -7411.2001 301.2855 -9177.9985 -7463.9666 300.8244 363.3364 457.9336 30599.0079 -63.0201 16.5165
ENERGY: 900000 2.3460 9.7168 13.7277 0.0000 -10658.8173 1427.4804 0.0000 0.0000 1756.9044 -7448.6419 299.5983 -9205.5463 -7470.3330 299.6534 169.3257 283.2058 29870.8737 -39.0710 35.3956
ENERGY: 1200000 1.5751 16.4538 11.4777 0.0000 -10730.1242 1423.6449 0.0000 0.0000 1717.5413 -7559.4314 292.8858 -9276.9728 -7488.1083 299.0714 -387.7753 -338.0600 30426.6763 -75.3700 -5.1703
ENERGY: 1500000 1.3621 10.3847 14.9691 0.0000 -10702.5520 1463.7810 0.0000 0.0000 1788.7731 -7423.2819 305.0327 -9212.0550 -7487.4521 298.5500 399.7526 436.0139 30033.4568 -35.8544 32.7917
TCL: Running FEP window  10: Lambda1 0.44999999999999996 Lambda2 0.49999999999999994 [dLambda 0.04999999999999999]
TCL: Setting parameter firsttimestep to 0
TCL: Setting parameter alchLambda to 0.44999999999999996
Info: NONBONDED TABLE R-SQUARED SPACING: 0.0625
Info: NONBONDED TABLE SIZE: 705 POINTS
TCL: Setting parameter alchLambda2 to 0.49999999999999994
Info: NONBONDED TABLE R-SQUARED SPACING: 0.0625
Info: NONBONDED TABLE SIZE: 705 POINTS
TCL: Running for 1500000 steps
ETITLE: TS BOND ANGLE DIHED IMPRP ELECT VDW BOUNDARY MISC KINETIC TOTAL TEMP POTENTIAL TOTALAVG TEMPAVG PRESSURE GPRESSURE VOLUME PRESSAVG GPRESSAVG
ENERGY: 0 1.3621 10.3847 14.9691 0.0000 -10702.5535 1464.9152 0.0000 0.0000 1787.8844 -7423.0379 304.8812 -9210.9224 -7423.0379 304.8812 376.6085 450.2602 30033.4568 376.6085 450.2602
ENERGY: 300000 2.0773 15.5318 11.9645 0.0000 -10590.8490 1382.0696 0.0000 0.0000 1775.4611 -7403.7447 302.7627 -9179.2058 -7420.2412 301.2465 -429.9799 -403.4775 30633.6158 42.0181 107.2961
ENERGY: 600000 1.8517 14.0623 12.0640 0.0000 -10721.6424 1491.9798 0.0000 0.0000 1750.6761 -7451.0086 298.5362 -9201.6846 -7417.4627 301.5690 602.2137 636.1305 30193.2606 316.2074 375.0005
ENERGY: 900000 0.9566 9.6044 10.9026 0.0000 -10645.2091 1405.0527 0.0000 0.0000 1779.3175 -7439.3751 303.4203 -9218.6927 -7425.2522 301.3151 -341.3693 -228.1122 30384.9091 127.8104 190.2917
ENERGY: 1200000 2.1748 11.6651 12.4192 0.0000 -10686.6265 1400.9224 0.0000 0.0000 1783.1496 -7476.2955 304.0738 -9259.4451 -7433.0413 302.2191 -433.2761 -338.2865 30321.5516 36.4620 103.3381
ENERGY: 1500000 3.7718 9.5195 13.8615 0.0000 -10601.4778 1417.7431 0.0000 0.0000 1739.2849 -7417.2969 296.5937 -9156.5818 -7446.4476 300.6032 -105.5199 23.4241 30235.5314 29.3765 100.0418
TCL: Running FEP window  11: Lambda1 0.49999999999999994 Lambda2 0.5499999999999999 [dLambda 0.04999999999999999]
TCL: Setting parameter firsttimestep to 0
TCL: Setting parameter alchLambda to 0.49999999999999994
Info: NONBONDED TABLE R-SQUARED SPACING: 0.0625
Info: NONBONDED TABLE SIZE: 705 POINTS
TCL: Setting parameter alchLambda2 to 0.5499999999999999
Info: NONBONDED TABLE R-SQUARED SPACING: 0.0625
Info: NONBONDED TABLE SIZE: 705 POINTS
TCL: Running for 1500000 steps
ETITLE: TS BOND ANGLE DIHED IMPRP ELECT VDW BOUNDARY MISC KINETIC TOTAL TEMP POTENTIAL TOTALAVG TEMPAVG PRESSURE GPRESSURE VOLUME PRESSAVG GPRESSAVG
ENERGY: 0 3.7718 9.5195 13.8615 0.0000 -10601.4779 1418.9013 0.0000 0.0000 1738.4577 -7416.9662 296.4526 -9155.4238 -7416.9662 296.4526 -48.2796 36.5886 30235.5314 -48.2796 36.5886
ENERGY: 300000 2.1556 13.5427 10.5117 0.0000 -10740.8432 1402.1588 0.0000 0.0000 1773.8784 -7538.5961 302.4928 -9312.4745 -7473.5926 300.2415 -323.9235 -305.7621 30080.9488 -272.7872 -207.1443
ENERGY: 600000 3.7530 15.0954 14.3901 0.0000 -10736.5468 1473.7383 0.0000 0.0000 1742.7364 -7486.8336 297.1823 -9229.5699 -7510.4077 296.7092 437.8267 559.2628 30044.9170 -103.6205 -19.9932
ENERGY: 900000 3.5996 13.6710 12.0796 0.0000 -10773.7350 1464.7609 0.0000 0.0000 1762.5708 -7517.0529 300.5646 -9279.6238 -7500.9290 298.5112 191.1742 287.6324 30241.6013 -158.5974 -83.8494
ENERGY: 1200000 1.1022 9.1186 15.0461 0.0000 -10812.7326 1540.0877 0.0000 0.0000 1740.9051 -7506.4729 296.8700 -9247.3780 -7513.1121 298.4775 850.8802 909.8660 30074.9167 -49.5824 18.9738
ENERGY: 1500000 2.7108 10.0790 14.9739 0.0000 -10553.8161 1351.1484 0.0000 0.0000 1806.4555 -7368.4485 308.0480 -9174.9039 -7487.0527 299.8488 -593.2886 -500.3473 30422.6998 -69.7971 -9.0317
TCL: Running FEP window  12: Lambda1 0.5499999999999999 Lambda2 0.6    [dLambda 0.050000000000000044]
TCL: Setting parameter firsttimestep to 0
TCL: Setting parameter alchLambda to 0.5499999999999999
Info: NONBONDED TABLE R-SQUARED SPACING: 0.0625
Info: NONBONDED TABLE SIZE: 705 POINTS
TCL: Setting parameter alchLambda2 to 0.6
Info: NONBONDED TABLE R-SQUARED SPACING: 0.0625
Info: NONBONDED TABLE SIZE: 705 POINTS
TCL: Running for 1500000 steps
ETITLE: TS BOND ANGLE DIHED IMPRP ELECT VDW BOUNDARY MISC KINETIC TOTAL TEMP POTENTIAL TOTALAVG TEMPAVG PRESSURE GPRESSURE VOLUME PRESSAVG GPRESSAVG
ENERGY: 0 2.7108 10.0790 14.9739 0.0000 -10553.6948 1351.3896 0.0000 0.0000 1805.6182 -7368.9233 307.9053 -9174.5416 -7368.9233 307.9053 -577.2247 -487.2899 30422.6998 -577.2247 -487.2899
ENERGY: 300000 1.8910 14.7758 10.0554 0.0000 -10605.2499 1370.8447 0.0000 0.0000 1749.9131 -7457.7699 298.4061 -9207.6830 -7444.0339 303.9756 -46.3466 -26.2301 29747.0520 -106.4286 -29.7273
ENERGY: 600000 2.8012 13.2211 12.2373 0.0000 -10603.6777 1424.1268 0.0000 0.0000 1785.7961 -7365.4952 304.5251 -9151.2913 -7417.2114 303.0990 204.1230 240.1437 30343.0518 -51.0796 21.5321
ENERGY: 900000 3.1032 9.5396 15.1592 0.0000 -10621.1276 1394.0324 0.0000 0.0000 1724.1675 -7475.1258 294.0158 -9199.2933 -7444.7633 299.8331 -381.6523 -303.8039 30382.6975 -52.9994 17.0309
ENERGY: 1200000 2.8782 13.5117 12.9721 0.0000 -10729.0378 1456.3782 0.0000 0.0000 1789.9270 -7453.3705 305.2295 -9243.2975 -7447.7727 300.7564 371.2033 399.6432 29880.5572 -26.2441 33.6459
ENERGY: 1500000 1.3726 9.6964 15.2691 0.0000 -10651.3220 1404.6923 0.0000 0.0000 1731.3502 -7488.9415 295.2406 -9220.2917 -7447.3712 300.4697 -116.1132 -11.9420 29862.5200 -11.8382 52.4267
TCL: Running FEP window  13: Lambda1 0.6    Lambda2 0.65   [dLambda 0.050000000000000044]
TCL: Setting parameter firsttimestep to 0
TCL: Setting parameter alchLambda to 0.6
Info: NONBONDED TABLE R-SQUARED SPACING: 0.0625
Info: NONBONDED TABLE SIZE: 705 POINTS
TCL: Setting parameter alchLambda2 to 0.65
Info: NONBONDED TABLE R-SQUARED SPACING: 0.0625
Info: NONBONDED TABLE SIZE: 705 POINTS
TCL: Running for 1500000 steps
ETITLE: TS BOND ANGLE DIHED IMPRP ELECT VDW BOUNDARY MISC KINETIC TOTAL TEMP POTENTIAL TOTALAVG TEMPAVG PRESSURE GPRESSURE VOLUME PRESSAVG GPRESSAVG
ENERGY: 0 1.3726 9.6964 15.2691 0.0000 -10651.0625 1404.5914 0.0000 0.0000 1730.4850 -7489.6481 295.0931 -9220.1331 -7489.6481 295.0931 -98.4535 -4.7658 29862.5200 -98.4535 -4.7658
ENERGY: 300000 4.1900 12.4988 17.6878 0.0000 -10885.0393 1533.3544 0.0000 0.0000 1738.5389 -7578.7694 296.4665 -9317.3083 -7470.1147 302.1237 570.2529 542.1353 30136.7637 378.7353 412.2699
ENERGY: 600000 2.8181 19.3246 11.9095 0.0000 -10679.7480 1414.4438 0.0000 0.0000 1775.1571 -7456.0949 302.7108 -9231.2520 -7474.2804 299.7190 -287.7581 -253.0284 30702.7345 4.1137 43.5409
ENERGY: 900000 2.5373 18.0240 10.9398 0.0000 -10471.4872 1303.0909 0.0000 0.0000 1837.2670 -7299.6282 313.3022 -9136.8953 -7460.7689 300.7460 -1042.2667 -961.3079 30943.4014 -129.0944 -86.4726
ENERGY: 1200000 2.3034 14.7554 11.8650 0.0000 -10582.8492 1431.4680 0.0000 0.0000 1722.9756 -7399.4818 293.8125 -9122.4575 -7453.3691 299.7160 237.7721 269.9046 30311.0368 -173.4233 -130.8917
ENERGY: 1500000 4.2899 14.9121 11.8630 0.0000 -10602.9491 1348.8686 0.0000 0.0000 1768.7712 -7454.2443 301.6219 -9223.0155 -7459.8738 299.4806 -623.5246 -675.5516 30475.1090 -160.4922 -117.4444
TCL: Running FEP window  14: Lambda1 0.65   Lambda2 0.7000000000000001 [dLambda 0.050000000000000044]
TCL: Setting parameter firsttimestep to 0
TCL: Setting parameter alchLambda to 0.65
Info: NONBONDED TABLE R-SQUARED SPACING: 0.0625
Info: NONBONDED TABLE SIZE: 705 POINTS
TCL: Setting parameter alchLambda2 to 0.7000000000000001
Info: NONBONDED TABLE R-SQUARED SPACING: 0.0625
Info: NONBONDED TABLE SIZE: 705 POINTS
TCL: Running for 1500000 steps
ETITLE: TS BOND ANGLE DIHED IMPRP ELECT VDW BOUNDARY MISC KINETIC TOTAL TEMP POTENTIAL TOTALAVG TEMPAVG PRESSURE GPRESSURE VOLUME PRESSAVG GPRESSAVG
ENERGY: 0 4.2899 14.9121 11.8630 0.0000 -10603.1852 1348.5672 0.0000 0.0000 1767.9160 -7455.6370 301.4760 -9223.5531 -7455.6370 301.4760 -747.3830 -668.0864 30475.1090 -747.3830 -668.0864
ENERGY: 300000 2.1115 9.8848 17.4198 0.0000 -10685.5287 1483.3525 0.0000 0.0000 1820.7013 -7352.0587 310.4773 -9172.7600 -7406.5886 303.6344 505.7201 591.6605 30403.0179 -68.0091 5.2055
ENERGY: 600000 2.4451 7.2311 13.9322 0.0000 -10638.6852 1422.9904 0.0000 0.0000 1769.0234 -7423.0630 301.6649 -9192.0864 -7430.1386 301.3961 99.5776 158.0180 30473.3679 -40.3811 27.1703
ENERGY: 900000 3.3425 8.9796 14.0287 0.0000 -10642.1509 1408.0683 0.0000 0.0000 1785.1787 -7422.5530 304.4198 -9207.7317 -7440.1464 301.3817 -170.0696 -140.2678 30321.8156 -96.9308 -35.8727
ENERGY: 1200000 0.6408 15.4670 11.9393 0.0000 -10884.7969 1572.5157 0.0000 0.0000 1730.2405 -7553.9935 295.0514 -9284.2340 -7453.0825 300.6119 1238.0349 1304.7557 29661.3784 28.6718 87.2452
ENERGY: 1500000 2.6194 16.6648 13.4227 0.0000 -10653.6324 1372.9121 0.0000 0.0000 1743.8863 -7504.1270 297.3784 -9248.0133 -7457.3795 299.5518 -505.8983 -400.9512 30072.5987 7.8065 62.9831
TCL: Running FEP window  15: Lambda1 0.7000000000000001 Lambda2 0.7500000000000001 [dLambda 0.050000000000000044]
TCL: Setting parameter firsttimestep to 0
TCL: Setting parameter alchLambda to 0.7000000000000001
Info: NONBONDED TABLE R-SQUARED SPACING: 0.0625
Info: NONBONDED TABLE SIZE: 705 POINTS
TCL: Setting parameter alchLambda2 to 0.7500000000000001
Info: NONBONDED TABLE R-SQUARED SPACING: 0.0625
Info: NONBONDED TABLE SIZE: 705 POINTS
TCL: Running for 1500000 steps
ETITLE: TS BOND ANGLE DIHED IMPRP ELECT VDW BOUNDARY MISC KINETIC TOTAL TEMP POTENTIAL TOTALAVG TEMPAVG PRESSURE GPRESSURE VOLUME PRESSAVG GPRESSAVG
ENERGY: 0 2.6194 16.6648 13.4227 0.0000 -10654.1710 1372.5710 0.0000 0.0000 1742.9948 -7505.8983 297.2263 -9248.8930 -7505.8983 297.2263 -485.1662 -395.7040 30072.5987 -485.1662 -395.7040
ENERGY: 300000 1.1555 16.4065 10.6401 0.0000 -10576.4270 1341.9710 0.0000 0.0000 1731.5174 -7474.7367 295.2691 -9206.2540 -7493.8801 299.7630 -953.7296 -934.8807 30882.2958 -141.5709 -89.0199
ENERGY: 600000 2.4755 12.5420 13.9575 0.0000 -10680.4735 1454.8838 0.0000 0.0000 1766.4210 -7430.1938 301.2211 -9196.6148 -7481.7906 300.5280 57.1309 117.4878 30565.8625 -119.6877 -69.2864
ENERGY: 900000 2.3988 15.6247 12.2641 0.0000 -10653.9316 1435.7784 0.0000 0.0000 1765.5124 -7422.3532 301.0662 -9187.8656 -7468.6874 301.9544 12.3511 69.3408 30607.0821 -73.2655 -13.8868
ENERGY: 1200000 3.7475 11.1237 15.0862 0.0000 -10743.3092 1495.8865 0.0000 0.0000 1746.4334 -7471.0319 297.8127 -9217.4653 -7478.1523 300.4667 234.4572 313.7641 30249.3942 -20.1034 44.6182
ENERGY: 1500000 2.4791 10.6078 15.2601 0.0000 -10643.6585 1366.2697 0.0000 0.0000 1736.9746 -7512.0673 296.1997 -9249.0419 -7478.7964 300.6414 -648.5454 -592.7982 30503.3061 -144.3829 -81.4173
TCL: Running FEP window  16: Lambda1 0.7500000000000001 Lambda2 0.8000000000000002 [dLambda 0.050000000000000044]
TCL: Setting parameter firsttimestep to 0
TCL: Setting parameter alchLambda to 0.7500000000000001
Info: NONBONDED TABLE R-SQUARED SPACING: 0.0625
Info: NONBONDED TABLE SIZE: 705 POINTS
TCL: Setting parameter alchLambda2 to 0.8000000000000002
Info: NONBONDED TABLE R-SQUARED SPACING: 0.0625
Info: NONBONDED TABLE SIZE: 705 POINTS
TCL: Running for 1500000 steps
ETITLE: TS BOND ANGLE DIHED IMPRP ELECT VDW BOUNDARY MISC KINETIC TOTAL TEMP POTENTIAL TOTALAVG TEMPAVG PRESSURE GPRESSURE VOLUME PRESSAVG GPRESSAVG
ENERGY: 0 2.4791 10.6078 15.2601 0.0000 -10645.3448 1366.4951 0.0000 0.0000 1736.1040 -7514.3987 296.0513 -9250.5028 -7514.3987 296.0513 -680.6369 -585.7736 30503.3061 -680.6369 -585.7736
ENERGY: 300000 0.8085 12.2858 12.6138 0.0000 -10681.1840 1417.0522 0.0000 0.0000 1793.3743 -7445.0495 305.8173 -9238.4238 -7443.7541 302.6117 -255.4813 -216.7474 30747.2947 -366.5966 -313.1091
ENERGY: 600000 3.1956 12.8952 12.5710 0.0000 -10653.3889 1428.6310 0.0000 0.0000 1767.7582 -7428.3381 301.4491 -9196.0962 -7445.1987 302.9059 -108.0713 -35.8762 30619.2307 -457.9242 -412.6000
ENERGY: 900000 1.0604 12.3886 12.8186 0.0000 -10662.9094 1375.1085 0.0000 0.0000 1699.3581 -7562.1752 289.7851 -9261.5333 -7466.2695 301.3971 -755.9656 -650.3497 30568.3666 -317.1265 -262.0708
ENERGY: 1200000 1.9932 12.5475 13.1364 0.0000 -10443.5093 1361.8464 0.0000 0.0000 1720.1351 -7333.8507 293.3281 -9053.9858 -7465.9432 300.2415 -271.7442 -166.0760 30696.9851 -225.3997 -163.5631
ENERGY: 1500000 1.1919 13.0329 14.1059 0.0000 -10688.4592 1386.4166 0.0000 0.0000 1679.3832 -7594.3287 286.3789 -9273.7120 -7473.4204 299.8340 -504.4347 -446.0984 30171.0685 -276.9109 -217.3065
TCL: Running FEP window  17: Lambda1 0.8000000000000002 Lambda2 0.8500000000000002 [dLambda 0.050000000000000044]
TCL: Setting parameter firsttimestep to 0
TCL: Setting parameter alchLambda to 0.8000000000000002
Info: NONBONDED TABLE R-SQUARED SPACING: 0.0625
Info: NONBONDED TABLE SIZE: 705 POINTS
TCL: Setting parameter alchLambda2 to 0.8500000000000002
Info: NONBONDED TABLE R-SQUARED SPACING: 0.0625
Info: NONBONDED TABLE SIZE: 705 POINTS
TCL: Running for 1500000 steps
ETITLE: TS BOND ANGLE DIHED IMPRP ELECT VDW BOUNDARY MISC KINETIC TOTAL TEMP POTENTIAL TOTALAVG TEMPAVG PRESSURE GPRESSURE VOLUME PRESSAVG GPRESSAVG
ENERGY: 0 1.1919 13.0329 14.1059 0.0000 -10689.2217 1386.2822 0.0000 0.0000 1678.4927 -7596.1162 286.2270 -9274.6089 -7596.1162 286.2270 -531.7638 -436.1403 30171.0685 -531.7638 -436.1403
ENERGY: 300000 0.8142 13.7621 13.4598 0.0000 -10547.2542 1301.0570 0.0000 0.0000 1778.9156 -7439.2455 303.3518 -9218.1611 -7514.6964 296.9462 -904.8760 -804.9225 30364.6686 -187.6658 -115.6831
ENERGY: 600000 1.6048 15.3468 11.6963 0.0000 -10719.0581 1410.7264 0.0000 0.0000 1802.8703 -7476.8135 307.4367 -9279.6839 -7496.5799 299.3820 -188.3673 -153.6288 29958.4210 -180.0144 -111.6152
ENERGY: 900000 3.0283 10.2129 13.9750 0.0000 -10616.3211 1368.6729 0.0000 0.0000 1733.9383 -7486.4936 295.6820 -9220.4319 -7481.2931 299.8087 -554.7231 -501.6670 30243.4535 -286.3421 -222.8527
ENERGY: 1200000 3.5419 9.6642 11.8759 0.0000 -10726.2475 1463.4020 0.0000 0.0000 1779.5154 -7458.2481 303.4540 -9237.7635 -7486.4308 300.6731 380.3028 400.3482 30225.8240 -203.4497 -145.0868
ENERGY: 1500000 1.3672 11.0105 13.7393 0.0000 -10743.9131 1485.3892 0.0000 0.0000 1779.7310 -7452.6758 303.4908 -9232.4069 -7478.6728 300.5426 507.0746 572.8855 30010.8313 -142.5588 -85.2063
TCL: Running FEP window  18: Lambda1 0.8500000000000002 Lambda2 0.9000000000000002 [dLambda 0.050000000000000044]
TCL: Setting parameter firsttimestep to 0
TCL: Setting parameter alchLambda to 0.8500000000000002
Info: NONBONDED TABLE R-SQUARED SPACING: 0.0625
Info: NONBONDED TABLE SIZE: 705 POINTS
TCL: Setting parameter alchLambda2 to 0.9000000000000002
Info: NONBONDED TABLE R-SQUARED SPACING: 0.0625
Info: NONBONDED TABLE SIZE: 705 POINTS
TCL: Running for 1500000 steps
ETITLE: TS BOND ANGLE DIHED IMPRP ELECT VDW BOUNDARY MISC KINETIC TOTAL TEMP POTENTIAL TOTALAVG TEMPAVG PRESSURE GPRESSURE VOLUME PRESSAVG GPRESSAVG
ENERGY: 0 1.3672 11.0105 13.7393 0.0000 -10745.3149 1485.5149 0.0000 0.0000 1778.8895 -7454.7935 303.3473 -9233.6830 -7454.7935 303.3473 482.2050 581.4538 30010.8313 482.2050 581.4538
ENERGY: 300000 2.4359 12.1806 13.0315 0.0000 -10648.4328 1414.2502 0.0000 0.0000 1749.2112 -7457.3233 298.2864 -9206.5345 -7448.2640 301.2601 -38.2267 22.8836 30149.8937 194.3766 253.9541
ENERGY: 600000 2.5037 11.0702 13.9238 0.0000 -10769.1766 1448.3797 0.0000 0.0000 1745.3502 -7547.9490 297.6280 -9293.2992 -7482.3250 299.9811 -223.6819 -187.5554 30795.8645 188.2981 257.6490
ENERGY: 900000 3.4967 8.4355 13.9117 0.0000 -10698.5912 1450.5622 0.0000 0.0000 1769.3735 -7452.8116 301.7246 -9222.1852 -7481.3075 298.6554 467.7277 464.9955 30056.2705 83.4337 147.6705
ENERGY: 1200000 2.3161 10.9959 11.1064 0.0000 -10673.7272 1380.0686 0.0000 0.0000 1713.0512 -7556.1889 292.1202 -9269.2402 -7486.3982 298.3429 -353.6800 -385.3434 30028.8831 24.7996 78.0908
ENERGY: 1500000 1.7310 12.4360 12.1875 0.0000 -10580.3491 1409.7533 0.0000 0.0000 1758.5836 -7385.6577 299.8846 -9144.2413 -7482.0886 298.4433 237.9210 269.5492 30062.8150 22.9958 76.5178
TCL: Running FEP window  19: Lambda1 0.9000000000000002 Lambda2 0.9500000000000003 [dLambda 0.050000000000000044]
TCL: Setting parameter firsttimestep to 0
TCL: Setting parameter alchLambda to 0.9000000000000002
Info: NONBONDED TABLE R-SQUARED SPACING: 0.0625
Info: NONBONDED TABLE SIZE: 705 POINTS
TCL: Setting parameter alchLambda2 to 0.9500000000000003
Info: NONBONDED TABLE R-SQUARED SPACING: 0.0625
Info: NONBONDED TABLE SIZE: 705 POINTS
TCL: Running for 1500000 steps
ETITLE: TS BOND ANGLE DIHED IMPRP ELECT VDW BOUNDARY MISC KINETIC TOTAL TEMP POTENTIAL TOTALAVG TEMPAVG PRESSURE GPRESSURE VOLUME PRESSAVG GPRESSAVG
ENERGY: 0 1.7310 12.4360 12.1875 0.0000 -10582.1647 1410.3587 0.0000 0.0000 1757.7397 -7387.7118 299.7407 -9145.4515 -7387.7118 299.7407 200.8065 283.9489 30062.8150 200.8065 283.9489
ENERGY: 300000 2.3835 14.5227 12.6248 0.0000 -10699.1725 1445.7353 0.0000 0.0000 1741.3821 -7482.5241 296.9513 -9223.9062 -7473.6939 299.8639 197.1251 281.6634 30149.1407 -55.4604 28.7450
ENERGY: 600000 1.4806 15.2291 10.0842 0.0000 -10664.0657 1426.5799 0.0000 0.0000 1736.3782 -7474.3137 296.0980 -9210.6919 -7492.8704 297.8688 -205.4059 -131.1870 30760.5276 -41.1425 23.3277
ENERGY: 900000 3.9918 10.4189 12.9400 0.0000 -10677.3068 1372.7341 0.0000 0.0000 1743.7421 -7533.4799 297.3538 -9277.2220 -7482.4734 298.9513 -749.4825 -695.8796 30340.2848 -86.4173 -26.7462
ENERGY: 1200000 2.6127 17.9230 13.0157 0.0000 -10540.0730 1341.3994 0.0000 0.0000 1746.0340 -7419.0883 297.7446 -9165.1223 -7482.0035 298.4086 -963.9805 -812.0723 31011.4637 -140.9921 -77.2657
ENERGY: 1500000 2.9367 10.9912 13.4004 0.0000 -10733.2777 1425.2676 0.0000 0.0000 1724.7446 -7555.9372 294.1142 -9280.6818 -7481.5470 298.0972 96.4398 107.3456 29871.9859 -155.7655 -91.9279
TCL: Running FEP window  20: Lambda1 0.9500000000000003 Lambda2 1.0    [dLambda 0.04999999999999971]
TCL: Setting parameter firsttimestep to 0
TCL: Setting parameter alchLambda to 0.9500000000000003
Info: NONBONDED TABLE R-SQUARED SPACING: 0.0625
Info: NONBONDED TABLE SIZE: 705 POINTS
TCL: Setting parameter alchLambda2 to 1.0
Info: NONBONDED TABLE R-SQUARED SPACING: 0.0625
Info: NONBONDED TABLE SIZE: 705 POINTS
TCL: Running for 1500000 steps
ETITLE: TS BOND ANGLE DIHED IMPRP ELECT VDW BOUNDARY MISC KINETIC TOTAL TEMP POTENTIAL TOTALAVG TEMPAVG PRESSURE GPRESSURE VOLUME PRESSAVG GPRESSAVG
ENERGY: 0 2.9367 10.9912 13.4004 0.0000 -10734.8057 1425.3952 0.0000 0.0000 1723.8809 -7558.2013 293.9669 -9282.0822 -7558.2013 293.9669 55.2807 120.7125 29871.9859 55.2807 120.7125
ENERGY: 300000 4.7750 10.2554 14.0732 0.0000 -10640.8916 1373.1517 0.0000 0.0000 1782.3264 -7456.3100 303.9334 -9238.6363 -7505.7685 298.2378 -345.0044 -244.0164 30312.7778 -5.7601 67.4643
ENERGY: 600000 2.1153 11.2727 12.4360 0.0000 -10568.7709 1366.8922 0.0000 0.0000 1779.7907 -7396.2641 303.5010 -9176.0547 -7481.3593 299.3908 -377.7932 -289.5097 30583.5635 -51.8785 17.8133
ENERGY: 900000 3.6579 8.3281 14.2924 0.0000 -10736.2378 1457.0765 0.0000 0.0000 1831.9295 -7420.9534 312.3920 -9252.8829 -7469.7608 300.9331 255.2064 350.9933 30200.6738 -28.4209 40.0458
ENERGY: 1200000 1.2687 11.4139 11.8497 0.0000 -10757.8961 1485.4479 0.0000 0.0000 1742.1863 -7505.7296 297.0884 -9247.9158 -7490.0031 299.4163 294.1150 335.5814 30548.1842 -50.3177 14.3385
ENERGY: 1500000 3.7051 12.5166 12.0495 0.0000 -10741.3371 1492.4129 0.0000 0.0000 1818.9488 -7401.7042 310.1785 -9220.6531 -7485.2778 299.5213 346.7792 395.0188 30396.7210 78.1071 144.4453
TCL: Exiting due to exit command.
