Info: SIMULATION PARAMETERS:
Info: TIMESTEP               2
Info: NUMBER OF STEPS        0
Info: STEPS PER CYCLE        10
Info: PERIODIC CELL BASIS 1  31.0177 0 0
Info: PERIODIC CELL BASIS 2  0 31.3729 0
Info: PERIODIC CELL BASIS 3  0 0 31.466
Info: PERIODIC CELL CENTER   0 0 0
Info: WRAPPING WATERS AROUND PERIODIC BOUNDARIES ON OUTPUT.
Info: WRAPPING ALL CLUSTERS AROUND PERIODIC BOUNDARIES ON OUTPUT.
Info: FIRST LDB TIMESTEP     50
Info: LAST LDB TIMESTEP     -1
Info: HOM BACKGROUND SCALING 1
Info: PME BACKGROUND SCALING 1
Info: MIN ATOMS PER PATCH    40
Info: EMPTY PATCH LOAD       40 ATOMS
Info: VELOCITY FILE          mobley_2481002_equil.vel
Info: CENTER OF MASS MOVING INITIALLY? NO
Info: DIELECTRIC             1
Info: EXCLUDE                SCALED ONE-FOUR
Info: 1-4 ELECTROSTATICS SCALED BY 0.833333
Info: MODIFIED 1-4 VDW PARAMETERS WILL BE USED
Info: DCD FILENAME           mobley_2481002_prod.dcd
Info: DCD FREQUENCY          100000
Info: DCD FIRST STEP         100000
Info: DCD FILE WILL CONTAIN UNIT CELL DATA
Info: XST FILENAME           mobley_2481002_prod.xst
Info: XST FREQUENCY          100000
Info: NO VELOCITY DCD OUTPUT
Info: NO FORCE DCD OUTPUT
Info: OUTPUT FILENAME        mobley_2481002_prod
Info: BINARY OUTPUT FILES WILL BE USED
Info: RESTART FILENAME       mobley_2481002_prod.restart
Info: RESTART FREQUENCY      100000
Info: BINARY RESTART FILES WILL BE USED
Info: CUTOFF                 9
Info: PAIRLIST DISTANCE      11
Info: PAIRLIST SHRINK RATE   0.01
Info: PAIRLIST GROW RATE     0.01
Info: PAIRLIST TRIGGER       0.3
Info: PAIRLISTS PER CYCLE    2
Info: PAIRLISTS ENABLED
Info: MARGIN                 2
Info: HYDROGEN GROUP CUTOFF  2.5
Info: PATCH DIMENSION        15.5
Info: ENERGY OUTPUT STEPS    100000
Info: ENERGY EVALUATION STEPS    100000
Info: OUTPUT ENERGY PRECISION 4
Info: CROSSTERM ENERGY INCLUDED IN DIHEDRAL
Info: TIMING OUTPUT STEPS    1000000
Info: PRESSURE OUTPUT STEPS  100000
Info: ALCHEMICAL FEP ON
Info: FEP CURRENT LAMBDA VALUE     1
Info: FEP COMPARISON LAMBDA VALUE  0.95
Info: FEP INTRA-ALCHEMICAL NON-BONDED INTERACTIONS WILL BE RETAINED
Info: FEP INTRA-ALCHEMICAL BONDED INTERACTIONS WILL BE RETAINED
Info: FEP VDW SHIFTING COEFFICIENT 5
Info: FEP ELEC. ACTIVE FOR ANNIHILATED PARTICLES BETWEEN LAMBDA = 0 AND LAMBDA = 0.5
Info: FEP ELEC. ACTIVE FOR EXNIHILATED PARTICLES BETWEEN LAMBDA = 0.5 AND LAMBDA = 1
Info: FEP VDW ACTIVE FOR ANNIHILATED PARTICLES BETWEEN LAMBDA = 0 AND LAMBDA = 1
Info: FEP VDW ACTIVE FOR EXNIHILATED PARTICLES BETWEEN LAMBDA = 0 AND LAMBDA = 1
Info: FEP BOND ACTIVE FOR ANNIHILATED PARTICLES BETWEEN LAMBDA = 1 AND LAMBDA = 1
Info: FEP BOND ACTIVE FOR EXNIHILATED PARTICLES BETWEEN LAMBDA = 0 AND LAMBDA = 0
Info: LANGEVIN DYNAMICS ACTIVE
Info: LANGEVIN TEMPERATURE   300
Info: LANGEVIN USING BBK INTEGRATOR
Info: LANGEVIN DAMPING COEFFICIENT IS 1 INVERSE PS
Info: LANGEVIN DYNAMICS APPLIED TO HYDROGENS
Info: LANGEVIN PISTON PRESSURE CONTROL ACTIVE
Info:        TARGET PRESSURE IS 1.01325 BAR
Info:     OSCILLATION PERIOD IS 50 FS
Info:             DECAY TIME IS 25 FS
Info:     PISTON TEMPERATURE IS 300 K
Info:       PRESSURE CONTROL IS GROUP-BASED
Info:    INITIAL STRAIN RATE IS -0.000238454 -0.000238454 -0.000238454
Info:       CELL FLUCTUATION IS ISOTROPIC
Info: PARTICLE MESH EWALD (PME) ACTIVE
Info: PME TOLERANCE               1e-06
Info: PME EWALD COEFFICIENT       0.348832
Info: PME INTERPOLATION ORDER     4
Info: PME GRID DIMENSIONS         32 32 32
Info: PME MAXIMUM GRID SPACING    1
Info: PME CALCULATION WILL BE PERFORMED ON GPU
Info: FULL ELECTROSTATIC EVALUATION FREQUENCY      2
Info: USING VERLET I (r-RESPA) MTS SCHEME.
Info: C1 SPLITTING OF LONG RANGE ELECTROSTATICS
Info: PLACING ATOMS IN PATCHES BY HYDROGEN GROUPS
Info: RIGID BONDS TO HYDROGEN : ALL
Info:         ERROR TOLERANCE : 1e-08
Info:          MAX ITERATIONS : 100
Info: RIGID WATER USING SETTLE ALGORITHM
Info: RANDOM NUMBER SEED     1743495557
Info: USE HYDROGEN BONDS?    NO
Info: Using AMBER format force field!
Info: AMBER PARM FILE        mobley_2481002.prmtop
Info: COORDINATE PDB         mobley_2481002.pdb
Info: Exclusions will be read from PARM file!
Info: SCNB (VDW SCALING)     2
Info: USING ARITHMETIC MEAN TO COMBINE L-J SIGMA PARAMETERS
Info: BINARY COORDINATES     mobley_2481002_equil.coor
Info: SUMMARY OF PARAMETERS:
Info: 5 BONDS
Info: 4 ANGLES
Info:   4 HARMONIC
Info:   0 COSINE-BASED
Info: 1 DIHEDRAL
Info: 0 IMPROPER
Info: 0 CROSSTERM
Info: 0 VDW
Info: 21 VDW_PAIRS
Info: 0 NBTHOLE_PAIRS
Info: To read alchdata from file: mobley_2481002.pdb
Info: To read alchflag data from column: 5
Info: STRUCTURE SUMMARY:
Info: 2929 ATOMS
Info: 2928 BONDS
Info: 9 ANGLES
Info: 6 DIHEDRALS
Info: 0 IMPROPERS
Info: 0 CROSSTERMS
Info: 2943 EXCLUSIONS
Info: 2922 RIGID BONDS
Info: ALCH: 0 ATOMS TO DISAPPEAR IN FINAL STATE
Info: ALCH: 7 ATOMS TO APPEAR IN FINAL STATE
Info: 5865 DEGREES OF FREEDOM
Info: 981 HYDROGEN GROUPS
Info: 3 ATOMS IN LARGEST HYDROGEN GROUP
Info: 981 MIGRATION GROUPS
Info: 3 ATOMS IN LARGEST MIGRATION GROUP
Info: TOTAL MASS = 17712 amu
Info: TOTAL CHARGE = 1.11759e-08 e
Info: MASS DENSITY = 0.960552 g/cm^3
Info: ATOM DENSITY = 0.0956565 atoms/A^3
Info: ADDED 0 IMPLICIT EXCLUSIONS
Info: NONBONDED TABLE R-SQUARED SPACING: 0.0625
Info: NONBONDED TABLE SIZE: 705 POINTS
Info: REDUCING NUMBER OF PATCHES TO IMPROVE LOAD BALANCE
Info: REMOVING COM VELOCITY -0.050679 -0.0581654 -0.0174256
Info: Use 3D box decompostion in PME FFT.
Info: Updated CUDA force table with 4096 elements.
Info: Updated CUDA LJ table with 6 x 6 elements.
Info: Found 10 unique exclusion lists needing 12 bytes
TCL: Running for 1500000 steps
ETITLE: TS BOND ANGLE DIHED IMPRP ELECT VDW BOUNDARY MISC KINETIC TOTAL TEMP POTENTIAL TOTALAVG TEMPAVG PRESSURE GPRESSURE VOLUME PRESSAVG GPRESSAVG
ENERGY: 0 2.4340 2.0049 0.0000 0.0000 -10622.2152 1434.4162 0.0000 0.0000 1792.8745 -7390.4856 307.6609 -9183.3601 -7390.4856 307.6609 146.0185 224.8034 30619.9830 146.0185 224.8034
ENERGY: 300000 2.8435 0.8717 0.0000 0.0000 -10573.4824 1443.5881 0.0000 0.0000 1726.6831 -7399.4959 296.3023 -9126.1790 -7417.0227 301.4630 309.8617 380.8816 30446.2667 183.1972 245.8575
ENERGY: 600000 1.0766 2.0696 0.0000 0.0000 -10751.0029 1501.1602 0.0000 0.0000 1688.0708 -7558.6256 289.6763 -9246.6965 -7444.0588 299.9717 607.6490 649.6281 30091.3449 305.8975 368.6036
ENERGY: 900000 3.8812 3.4200 0.0000 0.0000 -10756.9405 1549.8239 0.0000 0.0000 1809.6933 -7390.1220 310.5470 -9199.8153 -7444.5001 300.7066 1078.3025 1122.3488 30118.8080 333.1655 388.7580
ENERGY: 1200000 1.3707 2.7668 0.0000 0.0000 -10724.8013 1467.4049 0.0000 0.0000 1796.9121 -7456.3468 308.3537 -9253.2589 -7446.1915 301.6184 -290.3666 -252.6173 31194.1570 277.1910 335.4233
ENERGY: 1500000 3.6270 3.3598 0.0000 0.0000 -10636.5257 1457.0155 0.0000 0.0000 1766.0091 -7406.5144 303.0507 -9172.5236 -7443.4312 301.2639 610.0173 717.8736 29798.2612 340.6926 404.2510
TCL: Running FEP window   2: Lambda1 0.95   Lambda2 0.8999999999999999 [dLambda -0.050000000000000044]
TCL: Setting parameter firsttimestep to 0
TCL: Setting parameter alchLambda to 0.95
Info: NONBONDED TABLE R-SQUARED SPACING: 0.0625
Info: NONBONDED TABLE SIZE: 705 POINTS
TCL: Setting parameter alchLambda2 to 0.8999999999999999
Info: NONBONDED TABLE R-SQUARED SPACING: 0.0625
Info: NONBONDED TABLE SIZE: 705 POINTS
TCL: Running for 1500000 steps
ETITLE: TS BOND ANGLE DIHED IMPRP ELECT VDW BOUNDARY MISC KINETIC TOTAL TEMP POTENTIAL TOTALAVG TEMPAVG PRESSURE GPRESSURE VOLUME PRESSAVG GPRESSAVG
ENERGY: 0 3.6270 3.3598 0.0000 0.0000 -10636.3360 1456.6360 0.0000 0.0000 1765.1135 -7407.5998 302.8970 -9172.7133 -7407.5998 302.8970 623.0822 701.8203 29798.2612 623.0822 701.8203
ENERGY: 300000 3.6286 3.7970 0.0000 0.0000 -10687.0693 1486.7273 0.0000 0.0000 1741.0087 -7451.9075 298.7606 -9192.9163 -7463.6266 299.0165 413.2145 412.2915 30480.0202 41.0998 104.3533
ENERGY: 600000 2.8599 1.7317 0.0000 0.0000 -10615.4075 1414.3147 0.0000 0.0000 1731.2654 -7465.2358 297.0886 -9196.5012 -7454.3317 298.2580 -151.2113 -95.6451 30352.2064 -111.1030 -63.0768
ENERGY: 900000 0.8363 2.6438 0.0000 0.0000 -10678.2127 1451.2204 0.0000 0.0000 1800.4989 -7423.0133 308.9692 -9223.5122 -7448.1988 298.9175 344.3145 407.2022 29830.1699 -84.4899 -39.5729
ENERGY: 1200000 0.7302 6.5845 0.0000 0.0000 -10630.6675 1423.3486 0.0000 0.0000 1762.4430 -7437.5611 302.4388 -9200.0041 -7461.9910 299.2894 -350.0306 -230.2446 30619.5099 -28.1201 33.1450
ENERGY: 1500000 5.3941 0.8133 0.0000 0.0000 -10629.1584 1419.0886 0.0000 0.0000 1787.5986 -7416.2639 306.7555 -9203.8625 -7461.1010 299.5116 -214.8611 -153.4857 30351.3458 -74.5548 -11.9768
TCL: Running FEP window   3: Lambda1 0.8999999999999999 Lambda2 0.8499999999999999 [dLambda -0.050000000000000044]
TCL: Setting parameter firsttimestep to 0
TCL: Setting parameter alchLambda to 0.8999999999999999
Info: NONBONDED TABLE R-SQUARED SPACING: 0.0625
Info: NONBONDED TABLE SIZE: 705 POINTS
TCL: Setting parameter alchLambda2 to 0.8499999999999999
Info: NONBONDED TABLE R-SQUARED SPACING: 0.0625
Info: NONBONDED TABLE SIZE: 705 POINTS
TCL: Running for 1500000 steps
ETITLE: TS BOND ANGLE DIHED IMPRP ELECT VDW BOUNDARY MISC KINETIC TOTAL TEMP POTENTIAL TOTALAVG TEMPAVG PRESSURE GPRESSURE VOLUME PRESSAVG GPRESSAVG
ENERGY: 0 5.3941 0.8133 0.0000 0.0000 -10629.0704 1419.6773 0.0000 0.0000 1786.7208 -7416.4650 306.6049 -9203.1858 -7416.4650 306.6049 -239.3522 -154.8320 30351.3458 -239.3522 -154.8320
ENERGY: 300000 3.9292 1.9326 0.0000 0.0000 -10425.7686 1333.1246 0.0000 0.0000 1783.5855 -7303.1967 306.0669 -9086.7822 -7396.9968 301.5944 -553.3312 -507.0808 30491.5266 -384.2435 -311.3371
ENERGY: 600000 1.5630 2.8457 0.0000 0.0000 -10574.7265 1358.5495 0.0000 0.0000 1765.6134 -7446.1549 302.9828 -9211.7683 -7407.2898 301.6685 -549.9552 -487.9925 30310.2479 -500.4061 -433.1019
ENERGY: 900000 1.3350 1.8647 0.0000 0.0000 -10551.7819 1376.1307 0.0000 0.0000 1762.7400 -7409.7115 302.4897 -9172.4516 -7416.9291 301.4508 -382.7678 -367.8157 30581.6497 -449.8934 -394.6874
ENERGY: 1200000 5.3527 1.1919 0.0000 0.0000 -10705.6896 1426.1620 0.0000 0.0000 1765.2616 -7507.7213 302.9224 -9272.9830 -7424.2704 302.3260 -473.8419 -394.7038 30358.1513 -469.3162 -412.9125
ENERGY: 1500000 0.3725 3.0765 0.0000 0.0000 -10511.2882 1383.2020 0.0000 0.0000 1712.3771 -7412.2601 293.8474 -9124.6372 -7415.3877 301.5901 -211.6428 -114.0811 30494.1892 -461.1022 -399.2207
TCL: Running FEP window   4: Lambda1 0.8499999999999999 Lambda2 0.7999999999999998 [dLambda -0.050000000000000044]
TCL: Setting parameter firsttimestep to 0
TCL: Setting parameter alchLambda to 0.8499999999999999
Info: NONBONDED TABLE R-SQUARED SPACING: 0.0625
Info: NONBONDED TABLE SIZE: 705 POINTS
TCL: Setting parameter alchLambda2 to 0.7999999999999998
Info: NONBONDED TABLE R-SQUARED SPACING: 0.0625
Info: NONBONDED TABLE SIZE: 705 POINTS
TCL: Running for 1500000 steps
ETITLE: TS BOND ANGLE DIHED IMPRP ELECT VDW BOUNDARY MISC KINETIC TOTAL TEMP POTENTIAL TOTALAVG TEMPAVG PRESSURE GPRESSURE VOLUME PRESSAVG GPRESSAVG
ENERGY: 0 0.3725 3.0765 0.0000 0.0000 -10511.1571 1383.4204 0.0000 0.0000 1711.5151 -7412.7726 293.6994 -9124.2877 -7412.7726 293.6994 -199.3332 -118.1933 30494.1892 -199.3332 -118.1933
ENERGY: 300000 2.1446 2.0375 0.0000 0.0000 -10727.3897 1504.8090 0.0000 0.0000 1736.6643 -7481.7342 298.0151 -9218.3985 -7456.6552 302.0347 261.7095 366.1686 30447.9067 -112.4440 -28.3266
ENERGY: 600000 4.2129 3.8991 0.0000 0.0000 -10496.1655 1369.3352 0.0000 0.0000 1760.5788 -7358.1396 302.1189 -9118.7184 -7431.2481 301.9094 -49.0868 -36.6385 30025.6722 105.3574 173.6192
ENERGY: 900000 1.3096 1.5788 0.0000 0.0000 -10587.1974 1429.0504 0.0000 0.0000 1738.0069 -7417.2517 298.2455 -9155.2586 -7434.9739 300.7238 -142.1268 -51.2432 30595.4482 7.9269 82.0007
ENERGY: 1200000 1.9131 2.2713 0.0000 0.0000 -10635.2175 1444.9960 0.0000 0.0000 1731.7878 -7454.2492 297.1783 -9186.0370 -7435.8861 300.0689 277.1103 316.7367 30116.3040 44.4665 115.6470
ENERGY: 1500000 3.5504 0.9147 0.0000 0.0000 -10617.4990 1414.4584 0.0000 0.0000 1809.0306 -7389.5449 310.4333 -9198.5755 -7435.8025 300.9691 82.6204 146.8617 30081.6426 -16.1523 53.7627
TCL: Running FEP window   5: Lambda1 0.7999999999999998 Lambda2 0.7499999999999998 [dLambda -0.050000000000000044]
TCL: Setting parameter firsttimestep to 0
TCL: Setting parameter alchLambda to 0.7999999999999998
Info: NONBONDED TABLE R-SQUARED SPACING: 0.0625
Info: NONBONDED TABLE SIZE: 705 POINTS
TCL: Setting parameter alchLambda2 to 0.7499999999999998
Info: NONBONDED TABLE R-SQUARED SPACING: 0.0625
Info: NONBONDED TABLE SIZE: 705 POINTS
TCL: Running for 1500000 steps
ETITLE: TS BOND ANGLE DIHED IMPRP ELECT VDW BOUNDARY MISC KINETIC TOTAL TEMP POTENTIAL TOTALAVG TEMPAVG PRESSURE GPRESSURE VOLUME PRESSAVG GPRESSAVG
ENERGY: 0 3.5504 0.9147 0.0000 0.0000 -10617.5044 1414.7636 0.0000 0.0000 1808.1862 -7390.0894 310.2884 -9198.2757 -7390.0894 310.2884 65.3050 142.3371 30081.6426 65.3050 142.3371
ENERGY: 300000 1.3670 1.5993 0.0000 0.0000 -10621.5634 1423.1355 0.0000 0.0000 1719.8367 -7475.6248 295.1274 -9195.4616 -7424.6705 302.1734 -16.5614 23.6680 29984.5637 75.0694 119.4606
ENERGY: 600000 2.4989 2.2256 0.0000 0.0000 -10635.3195 1467.0053 0.0000 0.0000 1803.4588 -7360.1309 309.4771 -9163.5897 -7413.7128 302.1568 564.8578 639.8708 29965.1749 31.7792 100.4511
ENERGY: 900000 1.0363 2.3248 0.0000 0.0000 -10716.7560 1475.9111 0.0000 0.0000 1702.9775 -7534.5063 292.2344 -9237.4838 -7425.3146 300.3180 439.9414 501.2569 30246.1333 -2.8373 61.2389
ENERGY: 1200000 3.5306 0.9353 0.0000 0.0000 -10712.1621 1502.7183 0.0000 0.0000 1713.7527 -7491.2251 294.0834 -9204.9778 -7427.0867 299.7267 499.4855 618.6118 30136.3192 75.9991 145.7527
ENERGY: 1500000 2.1234 2.4884 0.0000 0.0000 -10518.6198 1391.1792 0.0000 0.0000 1778.8623 -7343.9665 305.2563 -9122.8288 -7423.5103 299.7455 20.0647 44.8734 30387.4073 91.7140 155.8813
TCL: Running FEP window   6: Lambda1 0.7499999999999998 Lambda2 0.6999999999999997 [dLambda -0.050000000000000044]
TCL: Setting parameter firsttimestep to 0
TCL: Setting parameter alchLambda to 0.7499999999999998
Info: NONBONDED TABLE R-SQUARED SPACING: 0.0625
Info: NONBONDED TABLE SIZE: 705 POINTS
TCL: Setting parameter alchLambda2 to 0.6999999999999997
Info: NONBONDED TABLE R-SQUARED SPACING: 0.0625
Info: NONBONDED TABLE SIZE: 705 POINTS
TCL: Running for 1500000 steps
ETITLE: TS BOND ANGLE DIHED IMPRP ELECT VDW BOUNDARY MISC KINETIC TOTAL TEMP POTENTIAL TOTALAVG TEMPAVG PRESSURE GPRESSURE VOLUME PRESSAVG GPRESSAVG
ENERGY: 0 2.1234 2.4884 0.0000 0.0000 -10518.5402 1391.8164 0.0000 0.0000 1777.9817 -7344.1303 305.1052 -9122.1120 -7344.1303 305.1052 -24.6920 43.9433 30387.4073 -24.6920 43.9433
ENERGY: 300000 1.9271 2.4439 0.0000 0.0000 -10553.2702 1463.7478 0.0000 0.0000 1770.6066 -7314.5448 303.8396 -9085.1513 -7385.2971 305.0015 528.7344 555.5987 30414.0788 24.1469 82.9870
ENERGY: 600000 2.1954 2.1699 0.0000 0.0000 -10623.3600 1417.7853 0.0000 0.0000 1827.9926 -7373.2168 313.6872 -9201.2094 -7412.6810 304.6354 164.0706 268.1430 30276.0614 32.8869 95.6248
ENERGY: 900000 3.5884 2.0764 0.0000 0.0000 -10672.9189 1416.4925 0.0000 0.0000 1802.9955 -7447.7661 309.3977 -9250.7616 -7423.9478 303.1902 -264.8693 -205.8100 30338.3122 -24.7473 47.3374
ENERGY: 1200000 4.6083 2.3180 0.0000 0.0000 -10660.3238 1467.0550 0.0000 0.0000 1734.4138 -7451.9287 297.6289 -9186.3425 -7427.2508 302.0402 282.5802 288.3204 30222.6371 28.5459 94.4139
ENERGY: 1500000 1.5217 3.2724 0.0000 0.0000 -10572.5128 1381.7595 0.0000 0.0000 1730.7621 -7455.1971 297.0023 -9185.9592 -7434.0731 300.6100 -454.2072 -475.9091 30804.4991 -99.6299 -43.4109
TCL: Running FEP window   7: Lambda1 0.6999999999999997 Lambda2 0.6499999999999997 [dLambda -0.050000000000000044]
TCL: Setting parameter firsttimestep to 0
TCL: Setting parameter alchLambda to 0.6999999999999997
Info: NONBONDED TABLE R-SQUARED SPACING: 0.0625
Info: NONBONDED TABLE SIZE: 705 POINTS
TCL: Setting parameter alchLambda2 to 0.6499999999999997
Info: NONBONDED TABLE R-SQUARED SPACING: 0.0625
Info: NONBONDED TABLE SIZE: 705 POINTS
TCL: Running for 1500000 steps
ETITLE: TS BOND ANGLE DIHED IMPRP ELECT VDW BOUNDARY MISC KINETIC TOTAL TEMP POTENTIAL TOTALAVG TEMPAVG PRESSURE GPRESSURE VOLUME PRESSAVG GPRESSAVG
ENERGY: 0 1.5217 3.2724 0.0000 0.0000 -10572.4428 1381.4313 0.0000 0.0000 1729.8550 -7456.3623 296.8466 -9186.2174 -7456.3623 296.8466 -573.9453 -486.7110 30804.4991 -573.9453 -486.7110
ENERGY: 300000 0.9411 1.4085 0.0000 0.0000 -10693.8520 1493.7778 0.0000 0.0000 1725.4566 -7472.2680 296.0918 -9197.7246 -7482.4748 299.1570 292.4148 358.8678 30584.7041 -211.9057 -157.9898
ENERGY: 600000 0.8382 2.6977 0.0000 0.0000 -10476.7860 1299.8821 0.0000 0.0000 1729.7993 -7443.5686 296.8370 -9173.3679 -7465.5950 299.9330 -825.0579 -764.6974 30115.4317 -184.6432 -128.3623
ENERGY: 900000 1.6953 3.4462 0.0000 0.0000 -10545.4753 1364.8545 0.0000 0.0000 1748.3150 -7427.1644 300.0144 -9175.4793 -7452.9949 301.3433 -636.5863 -558.2187 30392.3674 -145.5511 -94.8412
ENERGY: 1200000 0.5395 9.2163 0.0000 0.0000 -10641.6698 1414.5486 0.0000 0.0000 1721.4818 -7495.8836 295.4097 -9217.3654 -7449.3469 301.0025 -434.6733 -364.1106 30595.4695 -137.3449 -79.1685
ENERGY: 1500000 0.5716 2.5880 0.0000 0.0000 -10716.6350 1449.7729 0.0000 0.0000 1784.9135 -7478.7891 306.2947 -9263.7026 -7450.4704 302.2862 -129.2280 -54.4781 30441.9168 -125.3519 -64.5419
TCL: Running FEP window   8: Lambda1 0.6499999999999997 Lambda2 0.5999999999999996 [dLambda -0.050000000000000044]
TCL: Setting parameter firsttimestep to 0
TCL: Setting parameter alchLambda to 0.6499999999999997
Info: NONBONDED TABLE R-SQUARED SPACING: 0.0625
Info: NONBONDED TABLE SIZE: 705 POINTS
TCL: Setting parameter alchLambda2 to 0.5999999999999996
Info: NONBONDED TABLE R-SQUARED SPACING: 0.0625
Info: NONBONDED TABLE SIZE: 705 POINTS
TCL: Running for 1500000 steps
ETITLE: TS BOND ANGLE DIHED IMPRP ELECT VDW BOUNDARY MISC KINETIC TOTAL TEMP POTENTIAL TOTALAVG TEMPAVG PRESSURE GPRESSURE VOLUME PRESSAVG GPRESSAVG
ENERGY: 0 0.5716 2.5880 0.0000 0.0000 -10716.6725 1450.0353 0.0000 0.0000 1784.0374 -7479.4403 306.1444 -9263.4777 -7479.4403 306.1444 -142.8774 -61.0789 30441.9168 -142.8774 -61.0789
ENERGY: 300000 1.2244 2.4070 0.0000 0.0000 -10667.1493 1451.2005 0.0000 0.0000 1729.7902 -7482.5271 296.8355 -9212.3173 -7505.8041 300.1326 298.2436 318.3028 29875.3839 -80.8001 -31.4175
ENERGY: 600000 0.7532 2.2075 0.0000 0.0000 -10494.7244 1361.9827 0.0000 0.0000 1672.7878 -7456.9932 287.0537 -9129.7810 -7465.5568 299.2586 -421.4630 -352.8807 30401.5182 -223.4592 -161.6810
ENERGY: 900000 1.3598 1.2206 0.0000 0.0000 -10612.9463 1480.6835 0.0000 0.0000 1757.9227 -7371.7597 301.6631 -9129.6824 -7454.7178 298.3421 600.0481 602.8102 30371.6253 -98.8653 -41.4870
ENERGY: 1200000 5.5208 3.1537 0.0000 0.0000 -10496.6132 1330.8681 0.0000 0.0000 1709.6606 -7447.4099 293.3812 -9157.0705 -7456.1866 297.7507 -1068.2013 -1000.8736 30623.8287 -284.6241 -220.7643
ENERGY: 1500000 1.6994 1.1255 0.0000 0.0000 -10627.0821 1432.0392 0.0000 0.0000 1789.3186 -7402.8993 307.0507 -9192.2180 -7447.5574 298.7096 -264.6879 -163.9433 30654.1403 -271.6903 -202.9047
TCL: Running FEP window   9: Lambda1 0.5999999999999996 Lambda2 0.5499999999999996 [dLambda -0.050000000000000044]
TCL: Setting parameter firsttimestep to 0
TCL: Setting parameter alchLambda to 0.5999999999999996
Info: NONBONDED TABLE R-SQUARED SPACING: 0.0625
Info: NONBONDED TABLE SIZE: 705 POINTS
TCL: Setting parameter alchLambda2 to 0.5499999999999996
Info: NONBONDED TABLE R-SQUARED SPACING: 0.0625
Info: NONBONDED TABLE SIZE: 705 POINTS
TCL: Running for 1500000 steps
ETITLE: TS BOND ANGLE DIHED IMPRP ELECT VDW BOUNDARY MISC KINETIC TOTAL TEMP POTENTIAL TOTALAVG TEMPAVG PRESSURE GPRESSURE VOLUME PRESSAVG GPRESSAVG
ENERGY: 0 1.6994 1.1255 0.0000 0.0000 -10626.9818 1432.2943 0.0000 0.0000 1788.4862 -7403.3764 306.9078 -9191.8626 -7403.3764 306.9078 -226.5689 -162.5996 30654.1403 -226.5689 -162.5996
ENERGY: 300000 2.4302 3.1605 0.0000 0.0000 -10754.9197 1586.2941 0.0000 0.0000 1768.4122 -7394.6226 303.4631 -9163.0348 -7402.0857 301.3993 1414.6032 1485.6756 29906.7135 -40.0832 20.9793
ENERGY: 600000 3.6088 2.5011 0.0000 0.0000 -10689.6468 1481.7565 0.0000 0.0000 1733.1023 -7468.6782 297.4038 -9201.7805 -7401.1232 301.1563 539.2732 596.2836 30361.1016 133.6828 207.4505
ENERGY: 900000 1.0111 2.8980 0.0000 0.0000 -10541.4941 1383.4329 0.0000 0.0000 1748.1533 -7405.9987 299.9866 -9154.1521 -7400.2381 301.5724 -295.1218 -194.1554 30286.6699 121.5911 193.5477
ENERGY: 1200000 1.7282 1.0322 0.0000 0.0000 -10802.8587 1514.1009 0.0000 0.0000 1719.4516 -7566.5458 295.0613 -9285.9974 -7412.4440 300.8945 261.8724 316.9135 30161.5717 78.5172 149.1712
ENERGY: 1500000 2.3826 2.4660 0.0000 0.0000 -10608.0154 1391.8386 0.0000 0.0000 1714.4287 -7496.8996 294.1994 -9211.3283 -7418.7501 300.1261 -594.8710 -526.5886 30434.4167 -77.1471 -5.1903
TCL: Running FEP window  10: Lambda1 0.5499999999999996 Lambda2 0.4999999999999996 [dLambda -0.04999999999999999]
TCL: Setting parameter firsttimestep to 0
TCL: Setting parameter alchLambda to 0.5499999999999996
Info: NONBONDED TABLE R-SQUARED SPACING: 0.0625
Info: NONBONDED TABLE SIZE: 705 POINTS
TCL: Setting parameter alchLambda2 to 0.4999999999999996
Info: NONBONDED TABLE R-SQUARED SPACING: 0.0625
Info: NONBONDED TABLE SIZE: 705 POINTS
TCL: Running for 1500000 steps
ETITLE: TS BOND ANGLE DIHED IMPRP ELECT VDW BOUNDARY MISC KINETIC TOTAL TEMP POTENTIAL TOTALAVG TEMPAVG PRESSURE GPRESSURE VOLUME PRESSAVG GPRESSAVG
ENERGY: 0 2.3826 2.4660 0.0000 0.0000 -10607.9643 1392.4007 0.0000 0.0000 1713.5505 -7497.1645 294.0487 -9210.7150 -7497.1645 294.0487 -601.8031 -526.7718 30434.4167 -601.8031 -526.7718
ENERGY: 300000 2.1785 1.3401 0.0000 0.0000 -10689.4930 1445.2421 0.0000 0.0000 1806.9202 -7433.8120 310.0711 -9240.7323 -7430.3737 304.8390 97.9131 159.1238 29998.1458 -285.1177 -235.0180
ENERGY: 600000 1.8077 0.9686 0.0000 0.0000 -10582.2420 1453.4787 0.0000 0.0000 1708.4571 -7417.5299 293.1747 -9125.9870 -7428.1013 302.4628 150.5663 277.7275 30441.7795 -54.8047 20.3226
ENERGY: 900000 1.7044 2.3698 0.0000 0.0000 -10501.3991 1369.8432 0.0000 0.0000 1721.2662 -7406.2154 295.3727 -9127.4817 -7435.6427 300.9963 -548.1067 -517.5743 30867.9097 -150.7415 -88.1388
ENERGY: 1200000 4.2098 4.6351 0.0000 0.0000 -10567.1947 1369.1005 0.0000 0.0000 1795.3610 -7393.8883 308.0876 -9189.2493 -7432.3207 302.2595 -544.8923 -468.9307 30637.5253 -96.6757 -39.7497
ENERGY: 1500000 1.2769 1.5281 0.0000 0.0000 -10680.1087 1434.4835 0.0000 0.0000 1714.3131 -7528.5072 294.1796 -9242.8202 -7446.6498 301.3104 -420.0856 -320.2015 30651.6728 -139.8760 -76.3565
TCL: Running FEP window  11: Lambda1 0.4999999999999996 Lambda2 0.4499999999999996 [dLambda -0.04999999999999999]
TCL: Setting parameter firsttimestep to 0
TCL: Setting parameter alchLambda to 0.4999999999999996
Info: NONBONDED TABLE R-SQUARED SPACING: 0.0625
Info: NONBONDED TABLE SIZE: 705 POINTS
TCL: Setting parameter alchLambda2 to 0.4499999999999996
Info: NONBONDED TABLE R-SQUARED SPACING: 0.0625
Info: NONBONDED TABLE SIZE: 705 POINTS
TCL: Running for 1500000 steps
ETITLE: TS BOND ANGLE DIHED IMPRP ELECT VDW BOUNDARY MISC KINETIC TOTAL TEMP POTENTIAL TOTALAVG TEMPAVG PRESSURE GPRESSURE VOLUME PRESSAVG GPRESSAVG
ENERGY: 0 1.2769 1.5281 0.0000 0.0000 -10679.9797 1434.9096 0.0000 0.0000 1713.4648 -7528.8003 294.0340 -9242.2651 -7528.8003 294.0340 -413.8472 -323.2438 30651.6728 -413.8472 -323.2438
ENERGY: 300000 1.2347 2.1377 0.0000 0.0000 -10670.7899 1450.8208 0.0000 0.0000 1743.6002 -7472.9965 299.2053 -9216.5967 -7453.2726 301.8671 323.9636 344.7103 29719.6491 -34.2984 30.2186
ENERGY: 600000 1.9268 1.6698 0.0000 0.0000 -10646.1906 1367.3977 0.0000 0.0000 1778.0487 -7497.1476 305.1167 -9275.1964 -7468.2107 300.2349 -823.8104 -685.0989 29852.2934 -138.6880 -58.0107
ENERGY: 900000 3.1607 0.8387 0.0000 0.0000 -10732.7151 1444.7890 0.0000 0.0000 1767.4909 -7516.4358 303.3050 -9283.9268 -7469.4390 299.9688 -109.3752 -50.6858 29705.9827 -56.5048 9.5161
ENERGY: 1200000 1.9330 2.7421 0.0000 0.0000 -10592.2635 1396.8320 0.0000 0.0000 1790.4780 -7400.2784 307.2496 -9190.7564 -7469.4656 299.9705 -352.9597 -310.8134 30591.0353 -102.6574 -32.6575
ENERGY: 1500000 0.5540 1.8872 0.0000 0.0000 -10555.5302 1389.1299 0.0000 0.0000 1692.6613 -7471.2978 290.4641 -9163.9591 -7467.4241 299.8187 -352.4698 -274.4218 30568.3599 -131.6353 -65.0719
TCL: Running FEP window  12: Lambda1 0.4499999999999996 Lambda2 0.39999999999999963 [dLambda -0.04999999999999999]
TCL: Setting parameter firsttimestep to 0
TCL: Setting parameter alchLambda to 0.4499999999999996
Info: NONBONDED TABLE R-SQUARED SPACING: 0.0625
Info: NONBONDED TABLE SIZE: 705 POINTS
TCL: Setting parameter alchLambda2 to 0.39999999999999963
Info: NONBONDED TABLE R-SQUARED SPACING: 0.0625
Info: NONBONDED TABLE SIZE: 705 POINTS
TCL: Running for 1500000 steps
ETITLE: TS BOND ANGLE DIHED IMPRP ELECT VDW BOUNDARY MISC KINETIC TOTAL TEMP POTENTIAL TOTALAVG TEMPAVG PRESSURE GPRESSURE VOLUME PRESSAVG GPRESSAVG
ENERGY: 0 0.5540 1.8872 0.0000 0.0000 -10555.5314 1388.8196 0.0000 0.0000 1691.8096 -7472.4610 290.3179 -9164.2706 -7472.4610 290.3179 -368.1246 -280.2031 30568.3599 -368.1246 -280.2031
ENERGY: 300000 1.1608 1.9660 0.0000 0.0000 -10604.4817 1367.4456 0.0000 0.0000 1777.1136 -7456.7956 304.9563 -9233.9092 -7477.4375 299.4614 -562.1062 -481.2394 30129.3001 -315.1557 -249.4203
ENERGY: 600000 2.0679 1.3433 0.0000 0.0000 -10606.6743 1425.1838 0.0000 0.0000 1754.5829 -7423.4963 301.0900 -9178.0792 -7467.0264 299.0536 239.8747 278.3262 29790.2176 -104.1403 -56.4361
ENERGY: 900000 1.5321 1.3451 0.0000 0.0000 -10596.9079 1399.7534 0.0000 0.0000 1740.7404 -7453.5370 298.7145 -9194.2773 -7467.9883 298.3486 -38.8812 -35.2953 30023.3425 -84.2459 -32.9239
ENERGY: 1200000 2.1048 1.0594 0.0000 0.0000 -10700.4071 1495.0689 0.0000 0.0000 1728.1219 -7474.0521 296.5492 -9202.1740 -7471.6102 298.6273 391.0898 491.3245 30007.6999 27.1685 85.5893
ENERGY: 1500000 1.8899 2.3250 0.0000 0.0000 -10696.6419 1454.3021 0.0000 0.0000 1751.1840 -7486.9409 300.5067 -9238.1249 -7464.2409 299.2409 182.3233 203.9324 30283.7454 14.5346 70.2107
TCL: Running FEP window  13: Lambda1 0.39999999999999963 Lambda2 0.34999999999999964 [dLambda -0.04999999999999999]
TCL: Setting parameter firsttimestep to 0
TCL: Setting parameter alchLambda to 0.39999999999999963
Info: NONBONDED TABLE R-SQUARED SPACING: 0.0625
Info: NONBONDED TABLE SIZE: 705 POINTS
TCL: Setting parameter alchLambda2 to 0.34999999999999964
Info: NONBONDED TABLE R-SQUARED SPACING: 0.0625
Info: NONBONDED TABLE SIZE: 705 POINTS
TCL: Running for 1500000 steps
ETITLE: TS BOND ANGLE DIHED IMPRP ELECT VDW BOUNDARY MISC KINETIC TOTAL TEMP POTENTIAL TOTALAVG TEMPAVG PRESSURE GPRESSURE VOLUME PRESSAVG GPRESSAVG
ENERGY: 0 1.8899 2.3250 0.0000 0.0000 -10696.6428 1454.5083 0.0000 0.0000 1750.2724 -7487.6472 300.3503 -9237.9196 -7487.6472 300.3503 123.8840 199.7751 30283.7454 123.8840 199.7751
ENERGY: 300000 1.1398 2.6525 0.0000 0.0000 -10690.5915 1431.4215 0.0000 0.0000 1762.7188 -7492.6590 302.4861 -9255.3777 -7496.3491 300.2673 45.9665 90.8713 29976.3189 88.5807 116.8725
ENERGY: 600000 1.5354 1.4979 0.0000 0.0000 -10616.4332 1406.5652 0.0000 0.0000 1777.5379 -7429.2969 305.0291 -9206.8347 -7469.7661 301.1914 -115.6206 -90.0080 30076.1823 138.9386 184.0132
ENERGY: 900000 0.1758 1.3398 0.0000 0.0000 -10665.3580 1443.4098 0.0000 0.0000 1782.2123 -7438.2204 305.8312 -9220.4327 -7466.0037 300.7796 85.4358 134.6774 30203.9072 80.2713 123.6202
ENERGY: 1200000 1.9955 0.8946 0.0000 0.0000 -10703.9772 1428.7770 0.0000 0.0000 1788.2596 -7484.0504 306.8689 -9272.3100 -7465.2783 301.4232 -307.4027 -301.2222 30199.6524 14.7042 58.5174
ENERGY: 1500000 1.4146 5.5173 0.0000 0.0000 -10666.6109 1494.9600 0.0000 0.0000 1768.4292 -7396.2897 303.4660 -9164.7190 -7459.4726 301.4151 604.9287 594.0151 30159.8371 51.3164 88.8408
TCL: Running FEP window  14: Lambda1 0.34999999999999964 Lambda2 0.29999999999999966 [dLambda -0.04999999999999999]
TCL: Setting parameter firsttimestep to 0
TCL: Setting parameter alchLambda to 0.34999999999999964
Info: NONBONDED TABLE R-SQUARED SPACING: 0.0625
Info: NONBONDED TABLE SIZE: 705 POINTS
TCL: Setting parameter alchLambda2 to 0.29999999999999966
Info: NONBONDED TABLE R-SQUARED SPACING: 0.0625
Info: NONBONDED TABLE SIZE: 705 POINTS
TCL: Running for 1500000 steps
ETITLE: TS BOND ANGLE DIHED IMPRP ELECT VDW BOUNDARY MISC KINETIC TOTAL TEMP POTENTIAL TOTALAVG TEMPAVG PRESSURE GPRESSURE VOLUME PRESSAVG GPRESSAVG
ENERGY: 0 1.4146 5.5173 0.0000 0.0000 -10666.6121 1495.1022 0.0000 0.0000 1767.5576 -7397.0203 303.3164 -9164.5779 -7397.0203 303.3164 506.3054 592.9461 30159.8371 506.3054 592.9461
ENERGY: 300000 4.4120 1.3308 0.0000 0.0000 -10667.2941 1433.2679 0.0000 0.0000 1736.5200 -7491.7633 297.9903 -9228.2833 -7472.6849 298.1265 219.2886 254.7768 29842.6987 -36.2627 24.8405
ENERGY: 600000 2.7938 1.6198 0.0000 0.0000 -10613.3308 1413.8297 0.0000 0.0000 1748.6675 -7446.4199 300.0749 -9195.0874 -7453.1698 299.8112 -444.9284 -415.9753 30603.8918 -71.6234 -30.2887
ENERGY: 900000 0.1457 1.5292 0.0000 0.0000 -10644.8196 1446.4721 0.0000 0.0000 1776.6537 -7420.0189 304.8774 -9196.6726 -7465.2958 299.5199 108.3877 126.6448 30268.7577 73.1571 116.0986
ENERGY: 1200000 4.5764 3.3316 0.0000 0.0000 -10612.3959 1402.4954 0.0000 0.0000 1774.0776 -7427.9150 304.4353 -9201.9926 -7456.3721 300.7175 -525.1316 -411.9452 30243.7316 9.4793 58.3418
ENERGY: 1500000 3.0234 3.3116 0.0000 0.0000 -10592.6135 1392.4537 0.0000 0.0000 1735.6258 -7458.1990 297.8369 -9193.8248 -7453.7431 300.9335 -143.3079 -16.2994 29948.2965 48.6688 105.6055
TCL: Running FEP window  15: Lambda1 0.29999999999999966 Lambda2 0.24999999999999967 [dLambda -0.04999999999999999]
TCL: Setting parameter firsttimestep to 0
TCL: Setting parameter alchLambda to 0.29999999999999966
Info: NONBONDED TABLE R-SQUARED SPACING: 0.0625
Info: NONBONDED TABLE SIZE: 705 POINTS
TCL: Setting parameter alchLambda2 to 0.24999999999999967
Info: NONBONDED TABLE R-SQUARED SPACING: 0.0625
Info: NONBONDED TABLE SIZE: 705 POINTS
TCL: Running for 1500000 steps
ETITLE: TS BOND ANGLE DIHED IMPRP ELECT VDW BOUNDARY MISC KINETIC TOTAL TEMP POTENTIAL TOTALAVG TEMPAVG PRESSURE GPRESSURE VOLUME PRESSAVG GPRESSAVG
ENERGY: 0 3.0234 3.3116 0.0000 0.0000 -10592.6133 1392.3718 0.0000 0.0000 1734.7624 -7459.1441 297.6887 -9193.9065 -7459.1441 297.6887 -107.5457 -22.3295 29948.2965 -107.5457 -22.3295
ENERGY: 300000 1.1697 3.2004 0.0000 0.0000 -10674.4940 1439.7072 0.0000 0.0000 1706.1999 -7524.2170 292.7873 -9230.4169 -7499.4265 298.0782 -100.8793 -18.6096 30007.2377 144.6029 224.6250
ENERGY: 600000 1.1379 2.5436 0.0000 0.0000 -10683.9584 1503.3427 0.0000 0.0000 1776.0757 -7400.8584 304.7782 -9176.9341 -7464.7382 300.8813 282.5081 320.5523 30863.7992 329.6457 395.2132
ENERGY: 900000 2.0270 1.0403 0.0000 0.0000 -10516.9853 1379.1513 0.0000 0.0000 1693.5651 -7441.2017 290.6192 -9134.7668 -7467.4078 299.4780 -326.7015 -270.6569 30541.2695 220.7994 287.0952
ENERGY: 1200000 2.8694 2.8864 0.0000 0.0000 -10545.3986 1429.1799 0.0000 0.0000 1777.2173 -7333.2456 304.9741 -9110.4629 -7464.4399 300.5509 129.8457 186.5519 30485.9300 102.9001 176.6511
ENERGY: 1500000 2.1757 2.4635 0.0000 0.0000 -10659.5904 1512.6322 0.0000 0.0000 1730.3152 -7412.0039 296.9256 -9142.3191 -7452.0327 300.2978 740.8530 779.9123 30048.4437 83.4106 150.4172
TCL: Running FEP window  16: Lambda1 0.24999999999999967 Lambda2 0.19999999999999968 [dLambda -0.04999999999999999]
TCL: Setting parameter firsttimestep to 0
TCL: Setting parameter alchLambda to 0.24999999999999967
Info: NONBONDED TABLE R-SQUARED SPACING: 0.0625
Info: NONBONDED TABLE SIZE: 705 POINTS
TCL: Setting parameter alchLambda2 to 0.19999999999999968
Info: NONBONDED TABLE R-SQUARED SPACING: 0.0625
Info: NONBONDED TABLE SIZE: 705 POINTS
TCL: Running for 1500000 steps
ETITLE: TS BOND ANGLE DIHED IMPRP ELECT VDW BOUNDARY MISC KINETIC TOTAL TEMP POTENTIAL TOTALAVG TEMPAVG PRESSURE GPRESSURE VOLUME PRESSAVG GPRESSAVG
ENERGY: 0 2.1757 2.4635 0.0000 0.0000 -10659.5911 1513.1538 0.0000 0.0000 1729.4593 -7412.3387 296.7787 -9141.7981 -7412.3387 296.7787 689.5013 779.7847 30048.4437 689.5013 779.7847
ENERGY: 300000 1.3995 1.2521 0.0000 0.0000 -10644.0861 1433.1276 0.0000 0.0000 1753.2566 -7455.0503 300.8624 -9208.3069 -7430.9726 299.0426 -91.9378 -16.4774 30028.4810 -247.6874 -152.6283
ENERGY: 600000 1.5610 1.9277 0.0000 0.0000 -10612.5770 1397.0297 0.0000 0.0000 1725.2626 -7486.7961 296.0585 -9212.0586 -7431.6774 300.5334 -212.6249 -118.1934 30076.3821 -42.3063 51.6805
ENERGY: 900000 2.4926 6.1662 0.0000 0.0000 -10697.2068 1459.4271 0.0000 0.0000 1778.5680 -7450.5531 305.2058 -9229.1210 -7427.0556 302.7321 339.8376 417.3382 29886.4179 -24.4823 60.9984
ENERGY: 1200000 0.8028 2.3046 0.0000 0.0000 -10737.3364 1517.0413 0.0000 0.0000 1665.1721 -7552.0158 285.7469 -9217.1878 -7442.9932 299.7855 825.7542 810.3009 29928.7588 -73.5609 -1.7705
ENERGY: 1500000 3.5430 1.6699 0.0000 0.0000 -10601.7958 1411.6780 0.0000 0.0000 1763.3036 -7421.6013 302.5864 -9184.9049 -7434.5923 300.1470 -22.4060 44.6475 29964.5933 -27.6566 40.5202
TCL: Running FEP window  17: Lambda1 0.19999999999999968 Lambda2 0.1499999999999997 [dLambda -0.04999999999999999]
TCL: Setting parameter firsttimestep to 0
TCL: Setting parameter alchLambda to 0.19999999999999968
Info: NONBONDED TABLE R-SQUARED SPACING: 0.0625
Info: NONBONDED TABLE SIZE: 705 POINTS
TCL: Setting parameter alchLambda2 to 0.1499999999999997
Info: NONBONDED TABLE R-SQUARED SPACING: 0.0625
Info: NONBONDED TABLE SIZE: 705 POINTS
TCL: Running for 1500000 steps
ETITLE: TS BOND ANGLE DIHED IMPRP ELECT VDW BOUNDARY MISC KINETIC TOTAL TEMP POTENTIAL TOTALAVG TEMPAVG PRESSURE GPRESSURE VOLUME PRESSAVG GPRESSAVG
ENERGY: 0 3.5430 1.6699 0.0000 0.0000 -10601.7958 1412.0542 0.0000 0.0000 1762.4505 -7422.0782 302.4400 -9184.5287 -7422.0782 302.4400 -25.9238 46.1109 29964.5933 -25.9238 46.1109
ENERGY: 300000 6.5073 1.8585 0.0000 0.0000 -10600.3026 1419.9761 0.0000 0.0000 1718.9731 -7452.9876 294.9792 -9171.9607 -7445.5235 298.2013 -308.5767 -188.6012 30265.5509 55.9094 128.9028
ENERGY: 600000 0.5707 2.7268 0.0000 0.0000 -10621.7090 1419.7341 0.0000 0.0000 1747.5024 -7451.1750 299.8749 -9198.6774 -7450.4999 297.7648 -19.6553 77.4745 29976.8828 -15.4005 43.4344
ENERGY: 900000 0.3695 2.3373 0.0000 0.0000 -10650.5188 1440.9224 0.0000 0.0000 1766.6135 -7440.2761 303.1544 -9206.8896 -7444.0015 299.6911 85.1617 171.1265 30248.6539 -100.2782 -27.0542
ENERGY: 1200000 2.4455 2.8076 0.0000 0.0000 -10532.2854 1438.3272 0.0000 0.0000 1743.4926 -7345.2125 299.1868 -9088.7051 -7440.6906 299.7011 190.4254 211.6687 30376.7789 -153.3819 -87.1195
ENERGY: 1500000 1.2012 0.7930 0.0000 0.0000 -10650.4540 1399.5675 0.0000 0.0000 1789.1557 -7459.7366 307.0227 -9248.8923 -7440.6152 300.1049 -449.7537 -307.2695 29797.6847 -179.8071 -105.9199
TCL: Running FEP window  18: Lambda1 0.1499999999999997 Lambda2 0.09999999999999969 [dLambda -0.05 ]
TCL: Setting parameter firsttimestep to 0
TCL: Setting parameter alchLambda to 0.1499999999999997
Info: NONBONDED TABLE R-SQUARED SPACING: 0.0625
Info: NONBONDED TABLE SIZE: 705 POINTS
TCL: Setting parameter alchLambda2 to 0.09999999999999969
Info: NONBONDED TABLE R-SQUARED SPACING: 0.0625
Info: NONBONDED TABLE SIZE: 705 POINTS
TCL: Running for 1500000 steps
ETITLE: TS BOND ANGLE DIHED IMPRP ELECT VDW BOUNDARY MISC KINETIC TOTAL TEMP POTENTIAL TOTALAVG TEMPAVG PRESSURE GPRESSURE VOLUME PRESSAVG GPRESSAVG
ENERGY: 0 1.2012 0.7930 0.0000 0.0000 -10650.4533 1399.1449 0.0000 0.0000 1788.2981 -7461.0161 306.8755 -9249.3142 -7461.0161 306.8755 -409.7985 -310.4886 29797.6847 -409.7985 -310.4886
ENERGY: 300000 3.3635 1.6009 0.0000 0.0000 -10635.9643 1422.0028 0.0000 0.0000 1764.3394 -7444.6578 302.7642 -9208.9972 -7438.9988 304.2654 -379.0728 -320.9682 30251.9943 -168.4952 -109.0273
ENERGY: 600000 2.7497 2.9101 0.0000 0.0000 -10668.9729 1436.9689 0.0000 0.0000 1757.5746 -7468.7695 301.6033 -9226.3441 -7456.9393 302.4290 214.7374 220.3424 29572.0462 -54.9210 2.8435
ENERGY: 900000 4.4133 3.6211 0.0000 0.0000 -10490.3173 1356.5990 0.0000 0.0000 1728.9239 -7396.7600 296.6868 -9125.6839 -7449.5933 302.7941 -332.7167 -307.9279 30063.6852 -115.4797 -50.1849
ENERGY: 1200000 1.5394 2.8748 0.0000 0.0000 -10632.1613 1428.3491 0.0000 0.0000 1753.7176 -7445.6805 300.9415 -9199.3981 -7449.2808 302.1708 -60.0050 -42.3157 30065.6620 -38.7272 16.2939
ENERGY: 1500000 2.5592 2.1456 0.0000 0.0000 -10681.2326 1431.5601 0.0000 0.0000 1685.0198 -7559.9478 289.1528 -9244.9676 -7452.3476 301.3303 -276.0850 -247.0891 30021.0333 -55.6316 1.3104
TCL: Running FEP window  19: Lambda1 0.09999999999999969 Lambda2 0.049999999999999684 [dLambda -0.05 ]
TCL: Setting parameter firsttimestep to 0
TCL: Setting parameter alchLambda to 0.09999999999999969
Info: NONBONDED TABLE R-SQUARED SPACING: 0.0625
Info: NONBONDED TABLE SIZE: 705 POINTS
TCL: Setting parameter alchLambda2 to 0.049999999999999684
Info: NONBONDED TABLE R-SQUARED SPACING: 0.0625
Info: NONBONDED TABLE SIZE: 705 POINTS
TCL: Running for 1500000 steps
ETITLE: TS BOND ANGLE DIHED IMPRP ELECT VDW BOUNDARY MISC KINETIC TOTAL TEMP POTENTIAL TOTALAVG TEMPAVG PRESSURE GPRESSURE VOLUME PRESSAVG GPRESSAVG
ENERGY: 0 2.5592 2.1456 0.0000 0.0000 -10681.2316 1431.1931 0.0000 0.0000 1684.1202 -7561.2135 288.9984 -9245.3337 -7561.2135 288.9984 -324.9896 -253.8290 30021.0333 -324.9896 -253.8290
ENERGY: 300000 1.8388 2.6442 0.0000 0.0000 -10593.6962 1393.7750 0.0000 0.0000 1791.3004 -7404.1378 307.3907 -9195.4381 -7483.8320 295.7553 -170.0166 -138.2875 29834.1081 38.7718 116.4846
ENERGY: 600000 2.1050 2.2206 0.0000 0.0000 -10730.7546 1477.3292 0.0000 0.0000 1729.6531 -7519.4467 296.8120 -9249.0998 -7476.5621 298.1802 185.3039 240.8533 29885.6826 -77.9531 -10.7071
ENERGY: 900000 3.2049 2.4336 0.0000 0.0000 -10473.1795 1384.1000 0.0000 0.0000 1771.5889 -7311.8522 304.0082 -9083.4410 -7445.9430 298.2692 -263.6554 -270.5310 30566.3504 -114.8121 -63.1674
ENERGY: 1200000 1.8992 2.5534 0.0000 0.0000 -10682.4736 1502.2503 0.0000 0.0000 1748.0806 -7427.6901 299.9741 -9175.7707 -7433.9509 299.4767 428.0573 487.6092 30447.9368 -38.0675 5.1894
ENERGY: 1500000 0.6581 1.7360 0.0000 0.0000 -10568.4248 1344.8010 0.0000 0.0000 1789.5624 -7431.6672 307.0925 -9221.2297 -7439.1898 300.1906 -937.2676 -858.9153 30238.6701 -73.4101 -27.5346
TCL: Running FEP window  20: Lambda1 0.049999999999999684 Lambda2 0.0    [dLambda -0.049999999999999684]
TCL: Setting parameter firsttimestep to 0
TCL: Setting parameter alchLambda to 0.049999999999999684
Info: NONBONDED TABLE R-SQUARED SPACING: 0.0625
Info: NONBONDED TABLE SIZE: 705 POINTS
TCL: Setting parameter alchLambda2 to 0.0
Info: NONBONDED TABLE R-SQUARED SPACING: 0.0625
Info: NONBONDED TABLE SIZE: 705 POINTS
TCL: Running for 1500000 steps
ETITLE: TS BOND ANGLE DIHED IMPRP ELECT VDW BOUNDARY MISC KINETIC TOTAL TEMP POTENTIAL TOTALAVG TEMPAVG PRESSURE GPRESSURE VOLUME PRESSAVG GPRESSAVG
ENERGY: 0 0.6581 1.7360 0.0000 0.0000 -10568.4236 1344.7684 0.0000 0.0000 1788.6914 -7432.5696 306.9430 -9221.2611 -7432.5696 306.9430 -945.8144 -861.5510 30238.6701 -945.8144 -861.5510
ENERGY: 300000 0.8713 2.4958 0.0000 0.0000 -10675.4231 1491.5104 0.0000 0.0000 1813.2820 -7367.2635 311.1628 -9180.5456 -7439.4565 303.7034 615.6386 619.2033 30076.1108 -125.0353 -71.8545
ENERGY: 600000 1.6854 1.3802 0.0000 0.0000 -10692.5285 1474.7470 0.0000 0.0000 1796.1161 -7418.5998 308.2171 -9214.7159 -7429.3206 304.1898 418.9082 426.7488 30038.5562 -118.8006 -68.5877
ENERGY: 900000 1.3729 2.9601 0.0000 0.0000 -10551.2666 1434.6484 0.0000 0.0000 1747.4557 -7364.8295 299.8669 -9112.2851 -7434.8496 301.7989 158.3105 240.6779 30393.1913 -49.0314 11.2617
ENERGY: 1200000 0.8402 2.6581 0.0000 0.0000 -10618.9986 1439.1248 0.0000 0.0000 1760.9573 -7415.4182 302.1838 -9176.3755 -7446.4854 301.0592 265.9723 313.2684 29646.3972 -15.3044 46.0744
ENERGY: 1500000 1.2483 2.4989 0.0000 0.0000 -10744.6443 1554.9774 0.0000 0.0000 1739.0518 -7446.8679 298.4248 -9185.9197 -7439.9488 301.2505 1021.1133 1095.9063 29896.5643 55.1916 123.5213
TCL: Exiting due to exit command.
