Info: SIMULATION PARAMETERS:
Info: TIMESTEP               2
Info: NUMBER OF STEPS        0
Info: STEPS PER CYCLE        10
Info: PERIODIC CELL BASIS 1  31.6967 0 0
Info: PERIODIC CELL BASIS 2  0 31.1738 0
Info: PERIODIC CELL BASIS 3  0 0 30.7714
Info: PERIODIC CELL CENTER   0 0 0
Info: WRAPPING WATERS AROUND PERIODIC BOUNDARIES ON OUTPUT.
Info: WRAPPING ALL CLUSTERS AROUND PERIODIC BOUNDARIES ON OUTPUT.
Info: FIRST LDB TIMESTEP     50
Info: LAST LDB TIMESTEP     -1
Info: HOM BACKGROUND SCALING 1
Info: PME BACKGROUND SCALING 1
Info: MIN ATOMS PER PATCH    40
Info: EMPTY PATCH LOAD       40 ATOMS
Info: VELOCITY FILE          mobley_4850657_equil.vel
Info: CENTER OF MASS MOVING INITIALLY? NO
Info: DIELECTRIC             1
Info: EXCLUDE                SCALED ONE-FOUR
Info: 1-4 ELECTROSTATICS SCALED BY 0.833333
Info: MODIFIED 1-4 VDW PARAMETERS WILL BE USED
Info: DCD FILENAME           mobley_4850657_prod.dcd
Info: DCD FREQUENCY          100000
Info: DCD FIRST STEP         100000
Info: DCD FILE WILL CONTAIN UNIT CELL DATA
Info: XST FILENAME           mobley_4850657_prod.xst
Info: XST FREQUENCY          100000
Info: NO VELOCITY DCD OUTPUT
Info: NO FORCE DCD OUTPUT
Info: OUTPUT FILENAME        mobley_4850657_prod
Info: BINARY OUTPUT FILES WILL BE USED
Info: RESTART FILENAME       mobley_4850657_prod.restart
Info: RESTART FREQUENCY      100000
Info: BINARY RESTART FILES WILL BE USED
Info: CUTOFF                 9
Info: PAIRLIST DISTANCE      11
Info: PAIRLIST SHRINK RATE   0.01
Info: PAIRLIST GROW RATE     0.01
Info: PAIRLIST TRIGGER       0.3
Info: PAIRLISTS PER CYCLE    2
Info: PAIRLISTS ENABLED
Info: MARGIN                 2
Info: HYDROGEN GROUP CUTOFF  2.5
Info: PATCH DIMENSION        15.5
Info: ENERGY OUTPUT STEPS    100000
Info: ENERGY EVALUATION STEPS    100000
Info: OUTPUT ENERGY PRECISION 4
Info: CROSSTERM ENERGY INCLUDED IN DIHEDRAL
Info: TIMING OUTPUT STEPS    1000000
Info: PRESSURE OUTPUT STEPS  100000
Info: ALCHEMICAL FEP ON
Info: FEP CURRENT LAMBDA VALUE     0
Info: FEP COMPARISON LAMBDA VALUE  0.05
Info: FEP INTRA-ALCHEMICAL NON-BONDED INTERACTIONS WILL BE RETAINED
Info: FEP INTRA-ALCHEMICAL BONDED INTERACTIONS WILL BE RETAINED
Info: FEP VDW SHIFTING COEFFICIENT 5
Info: FEP ELEC. ACTIVE FOR ANNIHILATED PARTICLES BETWEEN LAMBDA = 0 AND LAMBDA = 0.5
Info: FEP ELEC. ACTIVE FOR EXNIHILATED PARTICLES BETWEEN LAMBDA = 0.5 AND LAMBDA = 1
Info: FEP VDW ACTIVE FOR ANNIHILATED PARTICLES BETWEEN LAMBDA = 0 AND LAMBDA = 1
Info: FEP VDW ACTIVE FOR EXNIHILATED PARTICLES BETWEEN LAMBDA = 0 AND LAMBDA = 1
Info: FEP BOND ACTIVE FOR ANNIHILATED PARTICLES BETWEEN LAMBDA = 1 AND LAMBDA = 1
Info: FEP BOND ACTIVE FOR EXNIHILATED PARTICLES BETWEEN LAMBDA = 0 AND LAMBDA = 0
Info: LANGEVIN DYNAMICS ACTIVE
Info: LANGEVIN TEMPERATURE   300
Info: LANGEVIN USING BBK INTEGRATOR
Info: LANGEVIN DAMPING COEFFICIENT IS 1 INVERSE PS
Info: LANGEVIN DYNAMICS APPLIED TO HYDROGENS
Info: LANGEVIN PISTON PRESSURE CONTROL ACTIVE
Info:        TARGET PRESSURE IS 1.01325 BAR
Info:     OSCILLATION PERIOD IS 50 FS
Info:             DECAY TIME IS 25 FS
Info:     PISTON TEMPERATURE IS 300 K
Info:       PRESSURE CONTROL IS GROUP-BASED
Info:    INITIAL STRAIN RATE IS 0.000499872 0.000499872 0.000499872
Info:       CELL FLUCTUATION IS ISOTROPIC
Info: PARTICLE MESH EWALD (PME) ACTIVE
Info: PME TOLERANCE               1e-06
Info: PME EWALD COEFFICIENT       0.348832
Info: PME INTERPOLATION ORDER     4
Info: PME GRID DIMENSIONS         32 32 32
Info: PME MAXIMUM GRID SPACING    1
Info: PME CALCULATION WILL BE PERFORMED ON GPU
Info: FULL ELECTROSTATIC EVALUATION FREQUENCY      2
Info: USING VERLET I (r-RESPA) MTS SCHEME.
Info: C1 SPLITTING OF LONG RANGE ELECTROSTATICS
Info: PLACING ATOMS IN PATCHES BY HYDROGEN GROUPS
Info: RIGID BONDS TO HYDROGEN : ALL
Info:         ERROR TOLERANCE : 1e-08
Info:          MAX ITERATIONS : 100
Info: RIGID WATER USING SETTLE ALGORITHM
Info: RANDOM NUMBER SEED     1743489651
Info: USE HYDROGEN BONDS?    NO
Info: Using AMBER format force field!
Info: AMBER PARM FILE        mobley_4850657.prmtop
Info: COORDINATE PDB         mobley_4850657.pdb
Info: Exclusions will be read from PARM file!
Info: SCNB (VDW SCALING)     2
Info: USING ARITHMETIC MEAN TO COMBINE L-J SIGMA PARAMETERS
Info: BINARY COORDINATES     mobley_4850657_equil.coor
Info: SUMMARY OF PARAMETERS:
Info: 6 BONDS
Info: 6 ANGLES
Info:   6 HARMONIC
Info:   0 COSINE-BASED
Info: 1 DIHEDRAL
Info: 0 IMPROPER
Info: 0 CROSSTERM
Info: 0 VDW
Info: 28 VDW_PAIRS
Info: 0 NBTHOLE_PAIRS
Info: To read alchdata from file: mobley_4850657.pdb
Info: To read alchflag data from column: 5
Info: STRUCTURE SUMMARY:
Info: 2957 ATOMS
Info: 2956 BONDS
Info: 12 ANGLES
Info: 9 DIHEDRALS
Info: 0 IMPROPERS
Info: 0 CROSSTERMS
Info: 2977 EXCLUSIONS
Info: 2952 RIGID BONDS
Info: ALCH: 0 ATOMS TO DISAPPEAR IN FINAL STATE
Info: ALCH: 8 ATOMS TO APPEAR IN FINAL STATE
Info: 5919 DEGREES OF FREEDOM
Info: 988 HYDROGEN GROUPS
Info: 4 ATOMS IN LARGEST HYDROGEN GROUP
Info: 988 MIGRATION GROUPS
Info: 4 ATOMS IN LARGEST MIGRATION GROUP
Info: TOTAL MASS = 17824.3 amu
Info: TOTAL CHARGE = 9.9957e-05 e
Info: MASS DENSITY = 0.973464 g/cm^3
Info: ATOM DENSITY = 0.0972524 atoms/A^3
Info: ADDED 0 IMPLICIT EXCLUSIONS
Info: NONBONDED TABLE R-SQUARED SPACING: 0.0625
Info: NONBONDED TABLE SIZE: 705 POINTS
Info: REDUCING NUMBER OF PATCHES TO IMPROVE LOAD BALANCE
Info: REMOVING COM VELOCITY 0.00281363 0.14813 0.014794
Info: Use 3D box decompostion in PME FFT.
Info: Updated CUDA force table with 4096 elements.
Info: Updated CUDA LJ table with 7 x 7 elements.
Info: Found 11 unique exclusion lists needing 16 bytes
TCL: Running for 1500000 steps
ETITLE: TS BOND ANGLE DIHED IMPRP ELECT VDW BOUNDARY MISC KINETIC TOTAL TEMP POTENTIAL TOTALAVG TEMPAVG PRESSURE GPRESSURE VOLUME PRESSAVG GPRESSAVG
ENERGY: 0 1.3798 2.9499 0.5011 0.0000 -10696.3520 1352.7100 0.0000 0.0000 1766.9710 -7571.8402 300.4495 -9338.8111 -7571.8402 300.4495 -813.5590 -731.5846 30405.4214 -813.5590 -731.5846
ENERGY: 300000 0.7030 5.6765 0.1850 0.0000 -10845.0179 1523.3567 0.0000 0.0000 1736.2473 -7578.8494 295.2253 -9315.0967 -7588.8130 300.3688 927.9895 915.8291 30148.9153 -28.1268 7.1500
ENERGY: 600000 0.4953 5.8130 1.5152 0.0000 -10771.6496 1382.8137 0.0000 0.0000 1804.6170 -7576.3954 306.8507 -9381.0124 -7592.4182 301.0039 -603.2754 -506.6396 30273.3657 -2.8191 54.1391
ENERGY: 900000 1.0040 3.7515 0.1559 0.0000 -10921.7036 1549.0062 0.0000 0.0000 1762.3588 -7605.4272 299.6652 -9367.7860 -7594.8024 300.3028 691.7577 681.8403 30033.9376 11.7979 66.0477
ENERGY: 1200000 2.2854 2.7590 0.1995 0.0000 -10830.0829 1488.6032 0.0000 0.0000 1743.7196 -7592.5162 296.4959 -9336.2358 -7601.9945 299.5200 197.1784 241.8885 30454.2046 -147.4848 -91.5671
ENERGY: 1500000 1.7502 4.4867 0.2599 0.0000 -10731.0789 1407.1648 0.0000 0.0000 1741.7907 -7575.6265 296.1679 -9317.4172 -7600.1239 299.5199 -112.8642 -41.4941 30277.5278 -104.9885 -44.3802
TCL: Running FEP window   2: Lambda1 0.05   Lambda2 0.1    [dLambda 0.05  ]
TCL: Setting parameter firsttimestep to 0
TCL: Setting parameter alchLambda to 0.05
Info: NONBONDED TABLE R-SQUARED SPACING: 0.0625
Info: NONBONDED TABLE SIZE: 705 POINTS
TCL: Setting parameter alchLambda2 to 0.1
Info: NONBONDED TABLE R-SQUARED SPACING: 0.0625
Info: NONBONDED TABLE SIZE: 705 POINTS
TCL: Running for 1500000 steps
ETITLE: TS BOND ANGLE DIHED IMPRP ELECT VDW BOUNDARY MISC KINETIC TOTAL TEMP POTENTIAL TOTALAVG TEMPAVG PRESSURE GPRESSURE VOLUME PRESSAVG GPRESSAVG
ENERGY: 0 1.7502 4.4867 0.2599 0.0000 -10731.0786 1408.7581 0.0000 0.0000 1740.9261 -7574.8976 296.0209 -9315.8237 -7574.8976 296.0209 -105.6827 -35.6318 30277.5278 -105.6827 -35.6318
ENERGY: 300000 0.9567 1.8435 0.0822 0.0000 -10795.1281 1464.4731 0.0000 0.0000 1765.2570 -7562.5155 300.1581 -9327.7725 -7534.0758 300.2702 133.0241 168.3097 30385.7838 -156.2189 -94.4802
ENERGY: 600000 0.2024 1.4747 0.0964 0.0000 -10673.1344 1405.3034 0.0000 0.0000 1780.3744 -7485.6831 302.7286 -9266.0575 -7533.7116 299.5778 -147.5615 -64.9250 30363.6543 -289.0388 -228.4821
ENERGY: 900000 1.8847 3.2139 0.7527 0.0000 -10992.3207 1610.8597 0.0000 0.0000 1746.3499 -7629.2598 296.9431 -9375.6097 -7545.8578 300.4533 1017.9070 1075.6031 30636.2936 -8.6557 50.5569
ENERGY: 1200000 0.6386 5.9617 0.1054 0.0000 -10859.8098 1518.8840 0.0000 0.0000 1736.6301 -7597.5899 295.2904 -9334.2200 -7558.2206 300.1806 333.6741 478.7487 30519.9743 70.7509 138.9870
ENERGY: 1500000 0.7880 5.2939 0.0744 0.0000 -10808.7310 1491.6594 0.0000 0.0000 1710.7434 -7600.1719 290.8887 -9310.9154 -7560.2902 299.6279 566.9792 642.5638 30137.0338 100.8154 167.4456
TCL: Running FEP window   3: Lambda1 0.1    Lambda2 0.15000000000000002 [dLambda 0.05000000000000002]
TCL: Setting parameter firsttimestep to 0
TCL: Setting parameter alchLambda to 0.1
Info: NONBONDED TABLE R-SQUARED SPACING: 0.0625
Info: NONBONDED TABLE SIZE: 705 POINTS
TCL: Setting parameter alchLambda2 to 0.15000000000000002
Info: NONBONDED TABLE R-SQUARED SPACING: 0.0625
Info: NONBONDED TABLE SIZE: 705 POINTS
TCL: Running for 1500000 steps
ETITLE: TS BOND ANGLE DIHED IMPRP ELECT VDW BOUNDARY MISC KINETIC TOTAL TEMP POTENTIAL TOTALAVG TEMPAVG PRESSURE GPRESSURE VOLUME PRESSAVG GPRESSAVG
ENERGY: 0 0.7880 5.2939 0.0744 0.0000 -10808.7308 1492.3760 0.0000 0.0000 1709.8823 -7600.3162 290.7423 -9310.1985 -7600.3162 290.7423 574.5459 646.7693 30137.0338 574.5459 646.7693
ENERGY: 300000 0.2975 9.8721 1.1142 0.0000 -10741.2420 1393.7578 0.0000 0.0000 1774.4407 -7561.7597 301.7196 -9336.2004 -7582.4649 301.0499 -386.0038 -351.0419 30383.0178 255.2572 303.6455
ENERGY: 600000 1.1165 1.6959 0.1016 0.0000 -10730.4073 1394.6516 0.0000 0.0000 1714.6849 -7618.1567 291.5589 -9332.8416 -7595.3383 299.3479 -250.7685 -229.4883 29931.6410 35.1120 80.7680
ENERGY: 900000 0.8504 1.7146 0.2355 0.0000 -10925.5890 1533.3262 0.0000 0.0000 1808.1850 -7581.2772 307.4574 -9389.4623 -7594.2555 298.9787 342.5628 428.5768 30527.1963 140.6401 191.7650
ENERGY: 1200000 0.9880 1.6159 0.1839 0.0000 -10777.1615 1453.6689 0.0000 0.0000 1735.5040 -7585.2008 295.0990 -9320.7048 -7587.0343 299.3551 -229.4242 -178.4605 30721.5160 99.9514 148.3730
ENERGY: 1500000 0.3980 4.8461 0.4112 0.0000 -10801.5544 1420.1541 0.0000 0.0000 1762.2638 -7613.4812 299.6491 -9375.7450 -7585.7298 299.0924 -362.0493 -213.0928 30194.2988 6.4358 68.8346
TCL: Running FEP window   4: Lambda1 0.15000000000000002 Lambda2 0.2    [dLambda 0.04999999999999999]
TCL: Setting parameter firsttimestep to 0
TCL: Setting parameter alchLambda to 0.15000000000000002
Info: NONBONDED TABLE R-SQUARED SPACING: 0.0625
Info: NONBONDED TABLE SIZE: 705 POINTS
TCL: Setting parameter alchLambda2 to 0.2
Info: NONBONDED TABLE R-SQUARED SPACING: 0.0625
Info: NONBONDED TABLE SIZE: 705 POINTS
TCL: Running for 1500000 steps
ETITLE: TS BOND ANGLE DIHED IMPRP ELECT VDW BOUNDARY MISC KINETIC TOTAL TEMP POTENTIAL TOTALAVG TEMPAVG PRESSURE GPRESSURE VOLUME PRESSAVG GPRESSAVG
ENERGY: 0 0.3980 4.8461 0.4112 0.0000 -10801.5546 1421.4513 0.0000 0.0000 1761.3501 -7613.0979 299.4937 -9374.4480 -7613.0979 299.4937 -301.0673 -206.1960 30194.2988 -301.0673 -206.1960
ENERGY: 300000 0.9944 1.4568 0.4663 0.0000 -10770.2506 1481.1537 0.0000 0.0000 1759.9443 -7526.2350 299.2547 -9286.1793 -7561.8994 299.7907 347.0005 391.8899 30310.1011 -303.4081 -225.4387
ENERGY: 600000 0.8382 2.6936 0.0785 0.0000 -10875.0061 1495.6647 0.0000 0.0000 1709.3192 -7666.4118 290.6466 -9375.7310 -7576.5272 299.8378 444.2535 529.6436 29810.9025 -32.0380 47.0017
ENERGY: 900000 1.4524 5.9060 0.2029 0.0000 -10688.9339 1387.0307 0.0000 0.0000 1792.0001 -7502.3418 304.7053 -9294.3419 -7570.3869 300.9012 -326.5466 -308.2055 30537.1108 7.1094 82.0801
ENERGY: 1200000 0.3824 2.9022 0.1693 0.0000 -10844.4842 1510.6206 0.0000 0.0000 1715.0068 -7615.4029 291.6137 -9330.4097 -7578.6983 299.4138 354.9769 407.0194 30512.0163 -6.4853 64.1466
ENERGY: 1500000 0.0469 3.1331 0.1628 0.0000 -10902.7444 1524.1438 0.0000 0.0000 1775.2944 -7599.9635 301.8648 -9375.2579 -7584.2609 299.6463 463.9139 425.2547 30165.8349 126.3435 185.8961
TCL: Running FEP window   5: Lambda1 0.2    Lambda2 0.25   [dLambda 0.04999999999999999]
TCL: Setting parameter firsttimestep to 0
TCL: Setting parameter alchLambda to 0.2
Info: NONBONDED TABLE R-SQUARED SPACING: 0.0625
Info: NONBONDED TABLE SIZE: 705 POINTS
TCL: Setting parameter alchLambda2 to 0.25
Info: NONBONDED TABLE R-SQUARED SPACING: 0.0625
Info: NONBONDED TABLE SIZE: 705 POINTS
TCL: Running for 1500000 steps
ETITLE: TS BOND ANGLE DIHED IMPRP ELECT VDW BOUNDARY MISC KINETIC TOTAL TEMP POTENTIAL TOTALAVG TEMPAVG PRESSURE GPRESSURE VOLUME PRESSAVG GPRESSAVG
ENERGY: 0 0.0469 3.1331 0.1628 0.0000 -10902.7444 1523.8636 0.0000 0.0000 1774.4383 -7601.0998 301.7192 -9375.5381 -7601.0998 301.7192 362.8314 429.8856 30165.8349 362.8314 429.8856
ENERGY: 300000 0.5021 2.1480 0.2387 0.0000 -10781.7074 1424.3805 0.0000 0.0000 1712.7377 -7641.7004 291.2278 -9354.4381 -7590.1556 298.7108 -321.2016 -244.6645 30463.5398 -163.4617 -92.6308
ENERGY: 600000 1.6142 3.9239 0.6440 0.0000 -11002.6143 1504.5198 0.0000 0.0000 1810.1070 -7681.8054 307.7842 -9491.9124 -7625.2636 299.0808 -139.7199 -74.0653 30726.0938 -135.8729 -73.1989
ENERGY: 900000 1.4157 4.4193 0.0946 0.0000 -10712.5739 1376.7890 0.0000 0.0000 1715.7239 -7614.1314 291.7356 -9329.8553 -7608.7400 297.8350 -644.6483 -602.5042 30761.4453 -104.6696 -51.8046
ENERGY: 1200000 0.5654 2.7669 0.0709 0.0000 -10751.3043 1418.2742 0.0000 0.0000 1775.2801 -7554.3466 301.8623 -9329.6268 -7597.8227 298.2165 -260.2495 -213.4397 30496.7524 -108.9952 -56.9580
ENERGY: 1500000 0.4300 1.5027 0.0526 0.0000 -10958.3782 1522.9500 0.0000 0.0000 1730.6167 -7702.8262 294.2679 -9433.4429 -7595.3196 298.7557 129.5136 151.3388 30555.2842 -160.8062 -107.6788
TCL: Running FEP window   6: Lambda1 0.25   Lambda2 0.3    [dLambda 0.04999999999999999]
TCL: Setting parameter firsttimestep to 0
TCL: Setting parameter alchLambda to 0.25
Info: NONBONDED TABLE R-SQUARED SPACING: 0.0625
Info: NONBONDED TABLE SIZE: 705 POINTS
TCL: Setting parameter alchLambda2 to 0.3
Info: NONBONDED TABLE R-SQUARED SPACING: 0.0625
Info: NONBONDED TABLE SIZE: 705 POINTS
TCL: Running for 1500000 steps
ETITLE: TS BOND ANGLE DIHED IMPRP ELECT VDW BOUNDARY MISC KINETIC TOTAL TEMP POTENTIAL TOTALAVG TEMPAVG PRESSURE GPRESSURE VOLUME PRESSAVG GPRESSAVG
ENERGY: 0 0.4300 1.5027 0.0526 0.0000 -10958.3768 1522.5099 0.0000 0.0000 1729.7298 -7704.1519 294.1171 -9433.8817 -7704.1519 294.1171 70.0131 152.3803 30555.2842 70.0131 152.3803
ENERGY: 300000 1.9324 2.8806 0.2731 0.0000 -10960.8545 1536.6415 0.0000 0.0000 1767.1238 -7652.0032 300.4755 -9419.1269 -7648.8638 299.7135 359.3204 417.1248 30584.3543 162.0941 245.5215
ENERGY: 600000 1.7444 2.5594 0.2131 0.0000 -10822.0735 1493.2888 0.0000 0.0000 1763.0623 -7561.2055 299.7849 -9324.2678 -7601.4350 300.4340 246.9548 260.1491 30588.8589 225.6077 299.5355
ENERGY: 900000 2.5543 2.2756 0.1810 0.0000 -10731.2620 1376.2228 0.0000 0.0000 1791.1707 -7558.8576 304.5643 -9350.0284 -7586.7267 300.1838 -508.4203 -420.0320 30397.3699 150.8936 229.8232
ENERGY: 1200000 2.1554 3.1686 1.8508 0.0000 -10777.2627 1433.7106 0.0000 0.0000 1786.2445 -7550.1327 303.7267 -9336.3772 -7578.3680 300.7717 -2.4083 73.9098 30551.2375 76.1781 158.5442
ENERGY: 1500000 2.9588 5.2187 0.2924 0.0000 -10744.6213 1445.2032 0.0000 0.0000 1740.8383 -7550.1099 296.0060 -9290.9482 -7571.2477 300.9931 239.7980 333.8492 30256.7493 93.7663 177.3018
TCL: Running FEP window   7: Lambda1 0.3    Lambda2 0.35   [dLambda 0.04999999999999999]
TCL: Setting parameter firsttimestep to 0
TCL: Setting parameter alchLambda to 0.3
Info: NONBONDED TABLE R-SQUARED SPACING: 0.0625
Info: NONBONDED TABLE SIZE: 705 POINTS
TCL: Setting parameter alchLambda2 to 0.35
Info: NONBONDED TABLE R-SQUARED SPACING: 0.0625
Info: NONBONDED TABLE SIZE: 705 POINTS
TCL: Running for 1500000 steps
ETITLE: TS BOND ANGLE DIHED IMPRP ELECT VDW BOUNDARY MISC KINETIC TOTAL TEMP POTENTIAL TOTALAVG TEMPAVG PRESSURE GPRESSURE VOLUME PRESSAVG GPRESSAVG
ENERGY: 0 2.9588 5.2187 0.2924 0.0000 -10744.6221 1445.8302 0.0000 0.0000 1739.9502 -7550.3718 295.8550 -9290.3220 -7550.3718 295.8550 254.8047 339.1876 30256.7493 254.8047 339.1876
ENERGY: 300000 1.2778 5.6532 0.6477 0.0000 -10687.0330 1373.7345 0.0000 0.0000 1720.5619 -7585.1580 292.5582 -9305.7199 -7591.5147 295.0815 -449.4451 -392.7868 30280.2326 -15.7322 34.6988
ENERGY: 600000 2.2032 4.8605 0.7508 0.0000 -10583.5958 1355.8964 0.0000 0.0000 1754.4394 -7465.4456 298.3187 -9219.8849 -7570.4630 297.1327 -294.2520 -201.9925 30384.7282 48.7985 116.4541
ENERGY: 900000 0.2540 3.2740 0.8385 0.0000 -10742.3624 1451.7437 0.0000 0.0000 1797.3834 -7488.8687 305.6207 -9286.2521 -7563.6381 298.4456 180.0779 281.0307 30324.9667 53.7852 131.1911
ENERGY: 1200000 2.7248 4.9467 0.0661 0.0000 -10872.9313 1441.1776 0.0000 0.0000 1836.1798 -7587.8362 312.2175 -9424.0161 -7573.2830 299.1744 -193.2501 -114.4795 30327.9289 28.0453 103.0523
ENERGY: 1500000 1.8754 5.6860 1.0906 0.0000 -10747.8545 1428.9350 0.0000 0.0000 1758.1033 -7552.1643 298.9416 -9310.2675 -7569.7371 299.4278 -351.2421 -224.3670 30668.7628 8.9015 85.0318
TCL: Running FEP window   8: Lambda1 0.35   Lambda2 0.39999999999999997 [dLambda 0.04999999999999999]
TCL: Setting parameter firsttimestep to 0
TCL: Setting parameter alchLambda to 0.35
Info: NONBONDED TABLE R-SQUARED SPACING: 0.0625
Info: NONBONDED TABLE SIZE: 705 POINTS
TCL: Setting parameter alchLambda2 to 0.39999999999999997
Info: NONBONDED TABLE R-SQUARED SPACING: 0.0625
Info: NONBONDED TABLE SIZE: 705 POINTS
TCL: Running for 1500000 steps
ETITLE: TS BOND ANGLE DIHED IMPRP ELECT VDW BOUNDARY MISC KINETIC TOTAL TEMP POTENTIAL TOTALAVG TEMPAVG PRESSURE GPRESSURE VOLUME PRESSAVG GPRESSAVG
ENERGY: 0 1.8754 5.6860 1.0906 0.0000 -10747.8542 1429.3439 0.0000 0.0000 1757.2337 -7552.6247 298.7938 -9309.8583 -7552.6247 298.7938 -290.7427 -217.9133 30668.7628 -290.7427 -217.9133
ENERGY: 300000 3.3085 5.8841 0.4910 0.0000 -10768.2298 1473.4546 0.0000 0.0000 1834.5312 -7450.5604 311.9372 -9285.0916 -7532.3789 302.3695 273.5852 404.1308 30631.9818 -116.1897 -42.4189
ENERGY: 600000 0.9401 5.0591 0.5356 0.0000 -10874.2722 1521.3031 0.0000 0.0000 1768.6609 -7577.7735 300.7368 -9346.4343 -7545.3596 300.7438 452.3439 544.5866 30474.5887 -201.1933 -135.0405
ENERGY: 900000 0.7920 2.1311 0.7343 0.0000 -10844.9910 1479.5977 0.0000 0.0000 1731.8416 -7629.8942 294.4762 -9361.7359 -7553.6029 300.9734 66.8596 128.2454 30507.0934 -167.6676 -100.3494
ENERGY: 1200000 1.0704 3.0740 0.5654 0.0000 -10854.9243 1461.9856 0.0000 0.0000 1738.7952 -7649.4336 295.6586 -9388.2288 -7573.5372 299.7479 81.2138 130.1262 30243.9523 -137.1399 -67.9635
ENERGY: 1500000 2.1655 2.9827 0.1554 0.0000 -10683.8472 1393.6904 0.0000 0.0000 1713.8283 -7571.0250 291.4133 -9284.8533 -7568.6764 299.4661 -122.8190 -72.7449 30277.1613 -164.2759 -93.1660
TCL: Running FEP window   9: Lambda1 0.39999999999999997 Lambda2 0.44999999999999996 [dLambda 0.04999999999999999]
TCL: Setting parameter firsttimestep to 0
TCL: Setting parameter alchLambda to 0.39999999999999997
Info: NONBONDED TABLE R-SQUARED SPACING: 0.0625
Info: NONBONDED TABLE SIZE: 705 POINTS
TCL: Setting parameter alchLambda2 to 0.44999999999999996
Info: NONBONDED TABLE R-SQUARED SPACING: 0.0625
Info: NONBONDED TABLE SIZE: 705 POINTS
TCL: Running for 1500000 steps
ETITLE: TS BOND ANGLE DIHED IMPRP ELECT VDW BOUNDARY MISC KINETIC TOTAL TEMP POTENTIAL TOTALAVG TEMPAVG PRESSURE GPRESSURE VOLUME PRESSAVG GPRESSAVG
ENERGY: 0 2.1655 2.9827 0.1554 0.0000 -10683.8477 1393.7680 0.0000 0.0000 1712.9710 -7571.8052 291.2675 -9284.7762 -7571.8052 291.2675 -146.3948 -67.2123 30277.1613 -146.3948 -67.2123
ENERGY: 300000 0.5388 1.9241 0.0319 0.0000 -10974.5640 1553.1404 0.0000 0.0000 1839.5004 -7579.4285 312.7821 -9418.9288 -7581.5895 300.6157 738.8161 819.4879 30175.3930 203.0086 277.5962
ENERGY: 600000 1.5884 3.7328 0.3583 0.0000 -10736.7846 1457.5046 0.0000 0.0000 1820.5485 -7453.0520 309.5596 -9273.6006 -7554.2348 302.3885 136.2934 162.2903 30625.8616 183.7994 239.6471
ENERGY: 900000 0.7280 4.7381 2.2934 0.0000 -10890.5451 1499.3836 0.0000 0.0000 1716.2947 -7667.1073 291.8327 -9383.4020 -7571.4175 299.6792 94.5446 192.0164 30366.6557 31.7845 90.5039
ENERGY: 1200000 1.4446 4.6792 0.2973 0.0000 -10824.1333 1413.5893 0.0000 0.0000 1771.4437 -7632.6792 301.2100 -9404.1229 -7572.7032 299.9006 -376.0408 -386.4226 30346.9284 -23.1042 29.0744
ENERGY: 1500000 2.4943 5.5406 0.3262 0.0000 -10792.3434 1513.8269 0.0000 0.0000 1740.0172 -7530.1382 295.8664 -9270.1554 -7580.1722 299.3190 648.3470 707.3538 30343.0572 93.1689 152.2943
TCL: Running FEP window  10: Lambda1 0.44999999999999996 Lambda2 0.49999999999999994 [dLambda 0.04999999999999999]
TCL: Setting parameter firsttimestep to 0
TCL: Setting parameter alchLambda to 0.44999999999999996
Info: NONBONDED TABLE R-SQUARED SPACING: 0.0625
Info: NONBONDED TABLE SIZE: 705 POINTS
TCL: Setting parameter alchLambda2 to 0.49999999999999994
Info: NONBONDED TABLE R-SQUARED SPACING: 0.0625
Info: NONBONDED TABLE SIZE: 705 POINTS
TCL: Running for 1500000 steps
ETITLE: TS BOND ANGLE DIHED IMPRP ELECT VDW BOUNDARY MISC KINETIC TOTAL TEMP POTENTIAL TOTALAVG TEMPAVG PRESSURE GPRESSURE VOLUME PRESSAVG GPRESSAVG
ENERGY: 0 2.4943 5.5406 0.3262 0.0000 -10792.3431 1513.5922 0.0000 0.0000 1739.1529 -7531.2369 295.7194 -9270.3899 -7531.2369 295.7194 624.0349 707.2751 30343.0572 624.0349 707.2751
ENERGY: 300000 1.2861 7.0673 0.1562 0.0000 -10801.8763 1416.7480 0.0000 0.0000 1772.3541 -7604.2645 301.3648 -9376.6186 -7566.9252 300.3148 -479.3082 -418.1506 30893.9278 -29.2186 47.9967
ENERGY: 600000 0.7234 2.6631 0.0998 0.0000 -10799.1208 1498.9229 0.0000 0.0000 1779.5697 -7517.1419 302.5917 -9296.7116 -7555.6370 300.0933 578.0885 658.3259 30248.2312 57.6313 135.1882
ENERGY: 900000 1.8004 7.3723 0.0406 0.0000 -10720.4992 1347.7404 0.0000 0.0000 1708.5038 -7655.0416 290.5079 -9363.5455 -7560.4526 300.3246 -700.9039 -616.0697 30106.8875 67.3389 137.4650
ENERGY: 1200000 1.4619 2.2125 0.1276 0.0000 -10896.0548 1508.5599 0.0000 0.0000 1767.5748 -7616.1181 300.5521 -9383.6928 -7573.1057 299.9629 321.9115 388.3714 30585.6100 -32.6330 42.3647
ENERGY: 1500000 1.8708 5.1948 0.1129 0.0000 -10780.8056 1428.7462 0.0000 0.0000 1723.4545 -7621.4263 293.0501 -9344.8808 -7573.6271 299.3236 -166.8629 -114.1544 30568.7086 -55.2975 17.5676
TCL: Running FEP window  11: Lambda1 0.49999999999999994 Lambda2 0.5499999999999999 [dLambda 0.04999999999999999]
TCL: Setting parameter firsttimestep to 0
TCL: Setting parameter alchLambda to 0.49999999999999994
Info: NONBONDED TABLE R-SQUARED SPACING: 0.0625
Info: NONBONDED TABLE SIZE: 705 POINTS
TCL: Setting parameter alchLambda2 to 0.5499999999999999
Info: NONBONDED TABLE R-SQUARED SPACING: 0.0625
Info: NONBONDED TABLE SIZE: 705 POINTS
TCL: Running for 1500000 steps
ETITLE: TS BOND ANGLE DIHED IMPRP ELECT VDW BOUNDARY MISC KINETIC TOTAL TEMP POTENTIAL TOTALAVG TEMPAVG PRESSURE GPRESSURE VOLUME PRESSAVG GPRESSAVG
ENERGY: 0 1.8708 5.1948 0.1129 0.0000 -10780.8053 1428.4042 0.0000 0.0000 1722.6146 -7622.6079 292.9073 -9345.2225 -7622.6079 292.9073 -205.0633 -112.3176 30568.7086 -205.0633 -112.3176
ENERGY: 300000 1.6922 5.5830 0.2214 0.0000 -10658.8454 1361.0015 0.0000 0.0000 1799.4616 -7490.8857 305.9741 -9290.3473 -7547.0563 298.2448 -434.6008 -391.4276 30589.9734 -221.0694 -150.4885
ENERGY: 600000 2.1812 2.2210 0.2907 0.0000 -10919.1768 1510.8464 0.0000 0.0000 1843.5152 -7560.1223 313.4648 -9403.6375 -7548.6574 300.7401 272.9518 332.1627 30677.9111 68.8834 134.5820
ENERGY: 900000 1.3091 3.0340 0.3160 0.0000 -10750.7672 1418.3935 0.0000 0.0000 1771.5749 -7556.1397 301.2323 -9327.7146 -7545.1041 302.1000 -70.9880 -30.1912 30318.7805 -60.5325 0.3013
ENERGY: 1200000 0.4113 5.1000 0.3280 0.0000 -10888.3582 1501.6499 0.0000 0.0000 1775.4797 -7605.3894 301.8963 -9380.8690 -7548.0965 301.8425 213.6184 289.1189 30498.1611 -154.5236 -90.7277
ENERGY: 1500000 1.2755 5.1920 0.0948 0.0000 -11078.8345 1567.0056 0.0000 0.0000 1779.5444 -7725.7223 302.5874 -9505.2667 -7566.1277 301.5085 984.2542 1045.4058 29464.3234 -67.8092 -7.5999
TCL: Running FEP window  12: Lambda1 0.5499999999999999 Lambda2 0.6    [dLambda 0.050000000000000044]
TCL: Setting parameter firsttimestep to 0
TCL: Setting parameter alchLambda to 0.5499999999999999
Info: NONBONDED TABLE R-SQUARED SPACING: 0.0625
Info: NONBONDED TABLE SIZE: 705 POINTS
TCL: Setting parameter alchLambda2 to 0.6
Info: NONBONDED TABLE R-SQUARED SPACING: 0.0625
Info: NONBONDED TABLE SIZE: 705 POINTS
TCL: Running for 1500000 steps
ETITLE: TS BOND ANGLE DIHED IMPRP ELECT VDW BOUNDARY MISC KINETIC TOTAL TEMP POTENTIAL TOTALAVG TEMPAVG PRESSURE GPRESSURE VOLUME PRESSAVG GPRESSAVG
ENERGY: 0 1.2755 5.1920 0.0948 0.0000 -11078.9983 1567.4444 0.0000 0.0000 1778.6509 -7726.3408 302.4355 -9504.9917 -7726.3408 302.4355 979.3436 1058.6760 29464.3234 979.3436 1058.6760
ENERGY: 300000 2.6488 2.2607 0.6859 0.0000 -10855.4459 1503.4957 0.0000 0.0000 1768.9557 -7577.3992 300.7870 -9346.3549 -7580.2866 300.9111 240.3989 333.9897 30700.3319 643.0550 713.8071
ENERGY: 600000 4.6221 3.9953 0.0512 0.0000 -10735.8021 1384.9240 0.0000 0.0000 1809.6966 -7532.5129 307.7144 -9342.2095 -7572.7341 300.6413 -267.3215 -134.6743 30196.4299 175.6807 255.7850
ENERGY: 900000 0.8550 3.5222 1.1573 0.0000 -10720.2831 1383.4904 0.0000 0.0000 1785.4215 -7545.8367 303.5867 -9331.2583 -7557.1258 300.0601 -332.9184 -255.1097 30584.2392 30.8898 104.1150
ENERGY: 1200000 0.2589 3.7569 0.0892 0.0000 -10607.0825 1347.0101 0.0000 0.0000 1786.0856 -7469.8819 303.6997 -9255.9675 -7546.3402 300.8412 -681.2635 -623.6582 31030.9370 -66.9475 3.0448
ENERGY: 1500000 0.9496 3.7342 0.1707 0.0000 -10871.2325 1519.3599 0.0000 0.0000 1781.6070 -7565.4111 302.9381 -9347.0181 -7552.9150 300.6410 746.9501 767.6222 29959.3029 -17.0456 48.5351
TCL: Running FEP window  13: Lambda1 0.6    Lambda2 0.65   [dLambda 0.050000000000000044]
TCL: Setting parameter firsttimestep to 0
TCL: Setting parameter alchLambda to 0.6
Info: NONBONDED TABLE R-SQUARED SPACING: 0.0625
Info: NONBONDED TABLE SIZE: 705 POINTS
TCL: Setting parameter alchLambda2 to 0.65
Info: NONBONDED TABLE R-SQUARED SPACING: 0.0625
Info: NONBONDED TABLE SIZE: 705 POINTS
TCL: Running for 1500000 steps
ETITLE: TS BOND ANGLE DIHED IMPRP ELECT VDW BOUNDARY MISC KINETIC TOTAL TEMP POTENTIAL TOTALAVG TEMPAVG PRESSURE GPRESSURE VOLUME PRESSAVG GPRESSAVG
ENERGY: 0 0.9496 3.7342 0.1707 0.0000 -10871.4282 1518.8622 0.0000 0.0000 1780.7470 -7566.9645 302.7919 -9347.7115 -7566.9645 302.7919 685.0704 769.6835 29959.3029 685.0704 769.6835
ENERGY: 300000 1.5443 2.5763 0.0601 0.0000 -10815.3075 1420.7890 0.0000 0.0000 1764.8564 -7625.4814 300.0899 -9390.3378 -7576.4379 300.8937 -114.9969 -79.2115 29948.9162 242.8532 294.5470
ENERGY: 600000 0.6683 2.1198 0.0919 0.0000 -10806.2935 1357.9974 0.0000 0.0000 1725.7636 -7719.6524 293.4427 -9445.4160 -7614.7128 298.7709 -1062.3168 -1006.0149 30447.4763 24.6716 82.1413
ENERGY: 900000 1.9355 1.6438 0.0547 0.0000 -10718.8940 1413.7950 0.0000 0.0000 1771.7672 -7529.6978 301.2650 -9301.4650 -7571.3568 301.4947 -141.9424 -137.5971 30527.3067 -19.1585 28.8651
ENERGY: 1200000 1.3239 5.0260 0.0993 0.0000 -10729.6702 1413.6339 0.0000 0.0000 1770.4068 -7539.1803 301.0337 -9309.5871 -7562.2122 300.7866 -85.2643 23.5544 30282.3392 -38.2545 14.7593
ENERGY: 1500000 0.2487 5.3877 0.4232 0.0000 -10778.6667 1390.1407 0.0000 0.0000 1757.1958 -7625.2705 298.7873 -9382.4663 -7566.7168 300.3977 -540.3094 -552.1498 30707.6379 -55.2034 -0.9459
TCL: Running FEP window  14: Lambda1 0.65   Lambda2 0.7000000000000001 [dLambda 0.050000000000000044]
TCL: Setting parameter firsttimestep to 0
TCL: Setting parameter alchLambda to 0.65
Info: NONBONDED TABLE R-SQUARED SPACING: 0.0625
Info: NONBONDED TABLE SIZE: 705 POINTS
TCL: Setting parameter alchLambda2 to 0.7000000000000001
Info: NONBONDED TABLE R-SQUARED SPACING: 0.0625
Info: NONBONDED TABLE SIZE: 705 POINTS
TCL: Running for 1500000 steps
ETITLE: TS BOND ANGLE DIHED IMPRP ELECT VDW BOUNDARY MISC KINETIC TOTAL TEMP POTENTIAL TOTALAVG TEMPAVG PRESSURE GPRESSURE VOLUME PRESSAVG GPRESSAVG
ENERGY: 0 0.2487 5.3877 0.4232 0.0000 -10778.4353 1391.0984 0.0000 0.0000 1756.2991 -7624.9781 298.6349 -9381.2773 -7624.9781 298.6349 -611.9425 -536.3013 30707.6379 -611.9425 -536.3013
ENERGY: 300000 3.7127 3.7749 0.1069 0.0000 -10984.9686 1597.3436 0.0000 0.0000 1723.2877 -7656.7429 293.0217 -9380.0306 -7550.2874 302.1993 1145.2073 1194.3104 30170.3866 443.5283 516.3769
ENERGY: 600000 0.8439 4.8849 0.1031 0.0000 -10689.8273 1377.8139 0.0000 0.0000 1795.5519 -7510.6296 305.3093 -9306.1815 -7565.6325 301.8682 -188.5413 -23.3050 30119.3966 146.6830 220.9149
ENERGY: 900000 0.4725 5.5785 0.2592 0.0000 -10713.2511 1392.7207 0.0000 0.0000 1733.0120 -7581.2083 294.6752 -9314.2203 -7577.1205 300.1029 -401.9494 -334.8983 30424.6213 59.8831 128.3490
ENERGY: 1200000 1.4079 2.4462 0.2531 0.0000 -10767.3935 1382.6866 0.0000 0.0000 1812.3378 -7568.2618 308.1635 -9380.5997 -7577.2044 300.9141 -274.8736 -221.2597 30131.6918 -14.7351 53.7042
ENERGY: 1500000 2.0393 4.5357 0.1266 0.0000 -10834.6524 1435.3428 0.0000 0.0000 1736.8346 -7655.7735 295.3252 -9392.6081 -7579.7625 300.0784 -284.2709 -211.9967 30687.6824 -15.9826 46.9817
TCL: Running FEP window  15: Lambda1 0.7000000000000001 Lambda2 0.7500000000000001 [dLambda 0.050000000000000044]
TCL: Setting parameter firsttimestep to 0
TCL: Setting parameter alchLambda to 0.7000000000000001
Info: NONBONDED TABLE R-SQUARED SPACING: 0.0625
Info: NONBONDED TABLE SIZE: 705 POINTS
TCL: Setting parameter alchLambda2 to 0.7500000000000001
Info: NONBONDED TABLE R-SQUARED SPACING: 0.0625
Info: NONBONDED TABLE SIZE: 705 POINTS
TCL: Running for 1500000 steps
ETITLE: TS BOND ANGLE DIHED IMPRP ELECT VDW BOUNDARY MISC KINETIC TOTAL TEMP POTENTIAL TOTALAVG TEMPAVG PRESSURE GPRESSURE VOLUME PRESSAVG GPRESSAVG
ENERGY: 0 2.0393 4.5357 0.1266 0.0000 -10834.9831 1435.2542 0.0000 0.0000 1735.9437 -7657.0837 295.1737 -9393.0273 -7657.0837 295.1737 -294.1430 -207.4941 30687.6824 -294.1430 -207.4941
ENERGY: 300000 1.2526 4.5329 1.1517 0.0000 -10819.4816 1451.7517 0.0000 0.0000 1848.1392 -7512.6535 314.2510 -9360.7927 -7573.2293 303.1801 -263.0411 -204.0729 30930.0150 -95.9837 -22.9687
ENERGY: 600000 1.6025 2.7199 0.1914 0.0000 -10924.1020 1490.3494 0.0000 0.0000 1770.9380 -7658.3007 301.1240 -9429.2386 -7585.0936 302.2943 -52.7785 7.5907 30875.2979 -59.0503 5.4489
ENERGY: 900000 0.6569 1.6788 0.0522 0.0000 -10749.2381 1445.2923 0.0000 0.0000 1759.9769 -7541.5811 299.2602 -9301.5579 -7580.1405 301.2654 192.2901 250.9563 30327.2281 -84.9156 -27.1535
ENERGY: 1200000 3.4319 1.6276 0.8935 0.0000 -10819.9892 1452.7312 0.0000 0.0000 1774.4184 -7586.8866 301.7158 -9361.3050 -7583.2617 300.9715 -195.8724 -144.3611 30577.0998 -180.0312 -117.6099
ENERGY: 1500000 3.8245 2.8859 0.4654 0.0000 -10688.2414 1398.6325 0.0000 0.0000 1766.8136 -7515.6196 300.4227 -9282.4331 -7584.0317 300.5816 -171.5576 -50.1467 30717.4417 -133.4764 -71.3059
TCL: Running FEP window  16: Lambda1 0.7500000000000001 Lambda2 0.8000000000000002 [dLambda 0.050000000000000044]
TCL: Setting parameter firsttimestep to 0
TCL: Setting parameter alchLambda to 0.7500000000000001
Info: NONBONDED TABLE R-SQUARED SPACING: 0.0625
Info: NONBONDED TABLE SIZE: 705 POINTS
TCL: Setting parameter alchLambda2 to 0.8000000000000002
Info: NONBONDED TABLE R-SQUARED SPACING: 0.0625
Info: NONBONDED TABLE SIZE: 705 POINTS
TCL: Running for 1500000 steps
ETITLE: TS BOND ANGLE DIHED IMPRP ELECT VDW BOUNDARY MISC KINETIC TOTAL TEMP POTENTIAL TOTALAVG TEMPAVG PRESSURE GPRESSURE VOLUME PRESSAVG GPRESSAVG
ENERGY: 0 3.8245 2.8859 0.4654 0.0000 -10688.9914 1398.1680 0.0000 0.0000 1765.9117 -7517.7359 300.2694 -9283.6477 -7517.7359 300.2694 -128.7812 -48.6513 30717.4417 -128.7812 -48.6513
ENERGY: 300000 2.8077 4.2568 0.2123 0.0000 -10822.8372 1434.5471 0.0000 0.0000 1734.8540 -7646.1592 294.9884 -9381.0132 -7595.4283 296.1782 110.2937 179.2791 30149.4019 -400.7831 -326.2612
ENERGY: 600000 1.0313 4.1997 0.0517 0.0000 -10736.9214 1371.3822 0.0000 0.0000 1691.6882 -7668.5682 287.6487 -9360.2565 -7559.8478 298.2082 -514.2041 -417.4534 30375.2730 -435.4416 -352.1671
ENERGY: 900000 1.5253 3.1714 0.1722 0.0000 -10809.6418 1488.0492 0.0000 0.0000 1729.5085 -7587.2153 294.0795 -9316.7237 -7560.8719 299.8051 499.9894 613.9339 30504.5954 -416.7385 -334.6180
ENERGY: 1200000 0.7432 2.8977 0.0795 0.0000 -10778.5326 1449.2202 0.0000 0.0000 1762.9709 -7562.6210 299.7693 -9325.5919 -7566.1369 298.9340 142.7823 212.8512 30300.9077 -311.0128 -226.4185
ENERGY: 1500000 0.7842 1.8663 0.0429 0.0000 -10856.3533 1526.9558 0.0000 0.0000 1833.6566 -7493.0476 311.7885 -9326.7042 -7568.9462 299.5869 691.7404 725.6358 30234.2872 -202.7991 -122.9314
TCL: Running FEP window  17: Lambda1 0.8000000000000002 Lambda2 0.8500000000000002 [dLambda 0.050000000000000044]
TCL: Setting parameter firsttimestep to 0
TCL: Setting parameter alchLambda to 0.8000000000000002
Info: NONBONDED TABLE R-SQUARED SPACING: 0.0625
Info: NONBONDED TABLE SIZE: 705 POINTS
TCL: Setting parameter alchLambda2 to 0.8500000000000002
Info: NONBONDED TABLE R-SQUARED SPACING: 0.0625
Info: NONBONDED TABLE SIZE: 705 POINTS
TCL: Running for 1500000 steps
ETITLE: TS BOND ANGLE DIHED IMPRP ELECT VDW BOUNDARY MISC KINETIC TOTAL TEMP POTENTIAL TOTALAVG TEMPAVG PRESSURE GPRESSURE VOLUME PRESSAVG GPRESSAVG
ENERGY: 0 0.7842 1.8663 0.0429 0.0000 -10858.3560 1529.0012 0.0000 0.0000 1832.7710 -7493.8905 311.6379 -9326.6614 -7493.8905 311.6379 642.1967 745.9754 30234.2872 642.1967 745.9754
ENERGY: 300000 1.3261 4.9473 0.1876 0.0000 -10994.3098 1576.3953 0.0000 0.0000 1768.5987 -7642.8547 300.7263 -9411.4534 -7592.9822 301.5860 811.7703 846.4108 30307.0926 368.4895 431.4929
ENERGY: 600000 0.7340 4.5522 0.1216 0.0000 -10755.3707 1353.6104 0.0000 0.0000 1781.2890 -7615.0636 302.8841 -9396.3525 -7593.6178 303.3322 -745.1921 -756.2798 30594.3575 -1.4018 48.1626
ENERGY: 900000 0.5414 4.9384 0.2078 0.0000 -10813.5388 1482.3725 0.0000 0.0000 1761.3341 -7564.1444 299.4910 -9325.4785 -7594.9458 302.5854 271.1257 355.8250 30501.2494 -90.5980 -46.1850
ENERGY: 1200000 0.2285 2.1740 0.2606 0.0000 -10728.9129 1388.4830 0.0000 0.0000 1720.1686 -7617.5983 292.4914 -9337.7669 -7584.6669 302.5252 -319.9133 -250.0585 30242.1444 -135.8808 -84.7293
ENERGY: 1500000 1.9812 2.2055 0.0876 0.0000 -10681.1814 1389.7121 0.0000 0.0000 1779.3378 -7507.8572 302.5523 -9287.1950 -7584.8426 302.1303 -320.3457 -259.0214 30856.9962 -178.0225 -123.9149
TCL: Running FEP window  18: Lambda1 0.8500000000000002 Lambda2 0.9000000000000002 [dLambda 0.050000000000000044]
TCL: Setting parameter firsttimestep to 0
TCL: Setting parameter alchLambda to 0.8500000000000002
Info: NONBONDED TABLE R-SQUARED SPACING: 0.0625
Info: NONBONDED TABLE SIZE: 705 POINTS
TCL: Setting parameter alchLambda2 to 0.9000000000000002
Info: NONBONDED TABLE R-SQUARED SPACING: 0.0625
Info: NONBONDED TABLE SIZE: 705 POINTS
TCL: Running for 1500000 steps
ETITLE: TS BOND ANGLE DIHED IMPRP ELECT VDW BOUNDARY MISC KINETIC TOTAL TEMP POTENTIAL TOTALAVG TEMPAVG PRESSURE GPRESSURE VOLUME PRESSAVG GPRESSAVG
ENERGY: 0 1.9812 2.2055 0.0876 0.0000 -10682.1098 1390.8674 0.0000 0.0000 1778.4586 -7508.5095 302.4028 -9286.9681 -7508.5095 302.4028 -310.7377 -235.9104 30856.9962 -310.7377 -235.9104
ENERGY: 300000 0.4876 1.9544 0.0578 0.0000 -10790.1013 1461.3526 0.0000 0.0000 1782.9850 -7543.2639 303.1725 -9326.2489 -7515.4229 302.7085 41.9590 115.4887 30628.7319 -124.7574 -78.9663
ENERGY: 600000 0.5187 4.5648 1.8535 0.0000 -10907.9230 1516.3354 0.0000 0.0000 1790.7579 -7593.8927 304.4941 -9384.6505 -7554.1507 301.5038 459.1858 565.7767 30345.7509 36.4984 107.1541
ENERGY: 900000 1.1865 2.3700 0.4476 0.0000 -10855.1216 1466.8912 0.0000 0.0000 1832.7348 -7551.4915 311.6317 -9384.2263 -7559.5358 302.3538 114.0020 166.9905 30590.1478 -57.1163 17.4258
ENERGY: 1200000 1.2011 2.1992 0.0884 0.0000 -10796.8103 1472.6026 0.0000 0.0000 1759.1938 -7561.5252 299.1271 -9320.7190 -7571.6869 301.7837 211.8366 329.8887 30467.5327 -6.8936 72.9641
ENERGY: 1500000 1.0172 2.0594 1.1856 0.0000 -10821.2723 1439.6935 0.0000 0.0000 1725.0994 -7652.2173 293.3298 -9377.3167 -7592.8037 300.2266 -256.4024 -198.8974 30668.4906 -42.4177 33.9037
TCL: Running FEP window  19: Lambda1 0.9000000000000002 Lambda2 0.9500000000000003 [dLambda 0.050000000000000044]
TCL: Setting parameter firsttimestep to 0
TCL: Setting parameter alchLambda to 0.9000000000000002
Info: NONBONDED TABLE R-SQUARED SPACING: 0.0625
Info: NONBONDED TABLE SIZE: 705 POINTS
TCL: Setting parameter alchLambda2 to 0.9500000000000003
Info: NONBONDED TABLE R-SQUARED SPACING: 0.0625
Info: NONBONDED TABLE SIZE: 705 POINTS
TCL: Running for 1500000 steps
ETITLE: TS BOND ANGLE DIHED IMPRP ELECT VDW BOUNDARY MISC KINETIC TOTAL TEMP POTENTIAL TOTALAVG TEMPAVG PRESSURE GPRESSURE VOLUME PRESSAVG GPRESSAVG
ENERGY: 0 1.0172 2.0594 1.1856 0.0000 -10822.8037 1441.8300 0.0000 0.0000 1724.2137 -7652.4978 293.1792 -9376.7115 -7652.4978 293.1792 -253.7059 -165.8767 30668.4906 -253.7059 -165.8767
ENERGY: 300000 0.3209 3.9355 0.3575 0.0000 -10654.7803 1373.5551 0.0000 0.0000 1817.4082 -7459.2032 309.0256 -9276.6114 -7538.1560 303.3077 -322.8707 -291.0187 30490.3340 -231.7202 -175.1098
ENERGY: 600000 0.6754 3.4025 0.2871 0.0000 -10765.0615 1458.0516 0.0000 0.0000 1759.8309 -7542.8140 299.2354 -9302.6449 -7557.8715 300.6090 145.2312 212.5610 30534.3866 -36.8261 1.4611
ENERGY: 900000 1.3937 4.0737 0.2744 0.0000 -10928.7609 1477.8282 0.0000 0.0000 1744.1820 -7701.0088 296.5745 -9445.1908 -7581.1696 300.8045 -195.4833 -83.6180 30596.7937 -124.7598 -73.6135
ENERGY: 1200000 0.5626 3.0505 0.1395 0.0000 -10756.0744 1409.2205 0.0000 0.0000 1720.9402 -7622.1612 292.6226 -9343.1014 -7577.3517 300.9982 -159.9941 -88.9003 30144.8987 -64.6586 -11.0885
ENERGY: 1500000 2.2160 2.0816 0.1935 0.0000 -10839.7861 1481.0042 0.0000 0.0000 1756.8268 -7597.4641 298.7246 -9354.2909 -7578.0842 300.5195 113.4924 219.3089 30697.0818 -160.4586 -104.9966
TCL: Running FEP window  20: Lambda1 0.9500000000000003 Lambda2 1.0    [dLambda 0.04999999999999971]
TCL: Setting parameter firsttimestep to 0
TCL: Setting parameter alchLambda to 0.9500000000000003
Info: NONBONDED TABLE R-SQUARED SPACING: 0.0625
Info: NONBONDED TABLE SIZE: 705 POINTS
TCL: Setting parameter alchLambda2 to 1.0
Info: NONBONDED TABLE R-SQUARED SPACING: 0.0625
Info: NONBONDED TABLE SIZE: 705 POINTS
TCL: Running for 1500000 steps
ETITLE: TS BOND ANGLE DIHED IMPRP ELECT VDW BOUNDARY MISC KINETIC TOTAL TEMP POTENTIAL TOTALAVG TEMPAVG PRESSURE GPRESSURE VOLUME PRESSAVG GPRESSAVG
ENERGY: 0 2.2160 2.0816 0.1935 0.0000 -10841.8512 1481.4834 0.0000 0.0000 1755.9738 -7599.9029 298.5796 -9355.8767 -7599.9029 298.5796 149.7299 227.6004 30697.0818 149.7299 227.6004
ENERGY: 300000 1.2576 3.3445 0.1435 0.0000 -10790.4318 1472.2127 0.0000 0.0000 1739.9323 -7573.5412 295.8519 -9313.4735 -7612.4057 302.2949 162.1286 212.3158 30629.3190 291.1818 339.1177
ENERGY: 600000 0.6137 4.0995 1.1684 0.0000 -10801.9949 1466.5401 0.0000 0.0000 1777.4236 -7552.1496 302.2268 -9329.5732 -7582.9164 302.3512 130.5374 204.6625 30632.7849 277.4021 317.6620
ENERGY: 900000 1.4837 2.6793 0.3615 0.0000 -10912.0129 1444.3929 0.0000 0.0000 1705.3653 -7757.7303 289.9743 -9463.0956 -7598.4727 301.0971 -96.5202 -3.8154 29825.1534 164.0019 221.1370
ENERGY: 1200000 2.4513 1.5331 0.1371 0.0000 -10656.7811 1381.9756 0.0000 0.0000 1811.9119 -7458.7720 308.0911 -9270.6839 -7587.3379 300.3556 -55.3429 -18.9956 30540.1634 90.4296 140.6630
ENERGY: 1500000 0.7888 1.7978 0.0881 0.0000 -10654.0470 1313.1992 0.0000 0.0000 1729.5389 -7608.6342 294.0847 -9338.1730 -7593.1520 299.7511 -1068.0540 -943.1971 30480.2742 -26.9543 27.3653
TCL: Exiting due to exit command.
