Info: SIMULATION PARAMETERS:
Info: TIMESTEP               2
Info: NUMBER OF STEPS        0
Info: STEPS PER CYCLE        10
Info: PERIODIC CELL BASIS 1  30.7637 0 0
Info: PERIODIC CELL BASIS 2  0 32.1926 0
Info: PERIODIC CELL BASIS 3  0 0 30.7356
Info: PERIODIC CELL CENTER   0 0 0
Info: WRAPPING WATERS AROUND PERIODIC BOUNDARIES ON OUTPUT.
Info: WRAPPING ALL CLUSTERS AROUND PERIODIC BOUNDARIES ON OUTPUT.
Info: FIRST LDB TIMESTEP     50
Info: LAST LDB TIMESTEP     -1
Info: HOM BACKGROUND SCALING 1
Info: PME BACKGROUND SCALING 1
Info: MIN ATOMS PER PATCH    40
Info: EMPTY PATCH LOAD       40 ATOMS
Info: VELOCITY FILE          mobley_7690440_equil.vel
Info: CENTER OF MASS MOVING INITIALLY? NO
Info: DIELECTRIC             1
Info: EXCLUDE                SCALED ONE-FOUR
Info: 1-4 ELECTROSTATICS SCALED BY 0.833333
Info: MODIFIED 1-4 VDW PARAMETERS WILL BE USED
Info: DCD FILENAME           mobley_7690440_prod.dcd
Info: DCD FREQUENCY          100000
Info: DCD FIRST STEP         100000
Info: DCD FILE WILL CONTAIN UNIT CELL DATA
Info: XST FILENAME           mobley_7690440_prod.xst
Info: XST FREQUENCY          100000
Info: NO VELOCITY DCD OUTPUT
Info: NO FORCE DCD OUTPUT
Info: OUTPUT FILENAME        mobley_7690440_prod
Info: BINARY OUTPUT FILES WILL BE USED
Info: RESTART FILENAME       mobley_7690440_prod.restart
Info: RESTART FREQUENCY      100000
Info: BINARY RESTART FILES WILL BE USED
Info: CUTOFF                 9
Info: PAIRLIST DISTANCE      11
Info: PAIRLIST SHRINK RATE   0.01
Info: PAIRLIST GROW RATE     0.01
Info: PAIRLIST TRIGGER       0.3
Info: PAIRLISTS PER CYCLE    2
Info: PAIRLISTS ENABLED
Info: MARGIN                 2
Info: HYDROGEN GROUP CUTOFF  2.5
Info: PATCH DIMENSION        15.5
Info: ENERGY OUTPUT STEPS    100000
Info: ENERGY EVALUATION STEPS    100000
Info: OUTPUT ENERGY PRECISION 4
Info: CROSSTERM ENERGY INCLUDED IN DIHEDRAL
Info: TIMING OUTPUT STEPS    1000000
Info: PRESSURE OUTPUT STEPS  100000
Info: ALCHEMICAL FEP ON
Info: FEP CURRENT LAMBDA VALUE     1
Info: FEP COMPARISON LAMBDA VALUE  0.95
Info: FEP INTRA-ALCHEMICAL NON-BONDED INTERACTIONS WILL BE RETAINED
Info: FEP INTRA-ALCHEMICAL BONDED INTERACTIONS WILL BE RETAINED
Info: FEP VDW SHIFTING COEFFICIENT 5
Info: FEP ELEC. ACTIVE FOR ANNIHILATED PARTICLES BETWEEN LAMBDA = 0 AND LAMBDA = 0.5
Info: FEP ELEC. ACTIVE FOR EXNIHILATED PARTICLES BETWEEN LAMBDA = 0.5 AND LAMBDA = 1
Info: FEP VDW ACTIVE FOR ANNIHILATED PARTICLES BETWEEN LAMBDA = 0 AND LAMBDA = 1
Info: FEP VDW ACTIVE FOR EXNIHILATED PARTICLES BETWEEN LAMBDA = 0 AND LAMBDA = 1
Info: FEP BOND ACTIVE FOR ANNIHILATED PARTICLES BETWEEN LAMBDA = 1 AND LAMBDA = 1
Info: FEP BOND ACTIVE FOR EXNIHILATED PARTICLES BETWEEN LAMBDA = 0 AND LAMBDA = 0
Info: LANGEVIN DYNAMICS ACTIVE
Info: LANGEVIN TEMPERATURE   300
Info: LANGEVIN USING BBK INTEGRATOR
Info: LANGEVIN DAMPING COEFFICIENT IS 1 INVERSE PS
Info: LANGEVIN DYNAMICS APPLIED TO HYDROGENS
Info: LANGEVIN PISTON PRESSURE CONTROL ACTIVE
Info:        TARGET PRESSURE IS 1.01325 BAR
Info:     OSCILLATION PERIOD IS 50 FS
Info:             DECAY TIME IS 25 FS
Info:     PISTON TEMPERATURE IS 300 K
Info:       PRESSURE CONTROL IS GROUP-BASED
Info:    INITIAL STRAIN RATE IS -7.94494e-05 -7.94494e-05 -7.94494e-05
Info:       CELL FLUCTUATION IS ISOTROPIC
Info: PARTICLE MESH EWALD (PME) ACTIVE
Info: PME TOLERANCE               1e-06
Info: PME EWALD COEFFICIENT       0.348832
Info: PME INTERPOLATION ORDER     4
Info: PME GRID DIMENSIONS         32 36 32
Info: PME MAXIMUM GRID SPACING    1
Info: PME CALCULATION WILL BE PERFORMED ON GPU
Info: FULL ELECTROSTATIC EVALUATION FREQUENCY      2
Info: USING VERLET I (r-RESPA) MTS SCHEME.
Info: C1 SPLITTING OF LONG RANGE ELECTROSTATICS
Info: PLACING ATOMS IN PATCHES BY HYDROGEN GROUPS
Info: RIGID BONDS TO HYDROGEN : ALL
Info:         ERROR TOLERANCE : 1e-08
Info:          MAX ITERATIONS : 100
Info: RIGID WATER USING SETTLE ALGORITHM
Info: RANDOM NUMBER SEED     1743678314
Info: USE HYDROGEN BONDS?    NO
Info: Using AMBER format force field!
Info: AMBER PARM FILE        mobley_7690440.prmtop
Info: COORDINATE PDB         mobley_7690440.pdb
Info: Exclusions will be read from PARM file!
Info: SCNB (VDW SCALING)     2
Info: USING ARITHMETIC MEAN TO COMBINE L-J SIGMA PARAMETERS
Info: BINARY COORDINATES     mobley_7690440_equil.coor
Info: SUMMARY OF PARAMETERS:
Info: 5 BONDS
Info: 3 ANGLES
Info:   3 HARMONIC
Info:   0 COSINE-BASED
Info: 3 DIHEDRAL
Info: 0 IMPROPER
Info: 0 CROSSTERM
Info: 0 VDW
Info: 15 VDW_PAIRS
Info: 0 NBTHOLE_PAIRS
Info: To read alchdata from file: mobley_7690440.pdb
Info: To read alchflag data from column: 5
Info: STRUCTURE SUMMARY:
Info: 2923 ATOMS
Info: 2922 BONDS
Info: 14 ANGLES
Info: 8 DIHEDRALS
Info: 0 IMPROPERS
Info: 0 CROSSTERMS
Info: 2943 EXCLUSIONS
Info: 2919 RIGID BONDS
Info: ALCH: 0 ATOMS TO DISAPPEAR IN FINAL STATE
Info: ALCH: 10 ATOMS TO APPEAR IN FINAL STATE
Info: 5850 DEGREES OF FREEDOM
Info: 975 HYDROGEN GROUPS
Info: 4 ATOMS IN LARGEST HYDROGEN GROUP
Info: 975 MIGRATION GROUPS
Info: 4 ATOMS IN LARGEST MIGRATION GROUP
Info: TOTAL MASS = 17587.7 amu
Info: TOTAL CHARGE = 0.000100009 e
Info: MASS DENSITY = 0.959475 g/cm^3
Info: ATOM DENSITY = 0.096027 atoms/A^3
Info: ADDED 0 IMPLICIT EXCLUSIONS
Info: NONBONDED TABLE R-SQUARED SPACING: 0.0625
Info: NONBONDED TABLE SIZE: 705 POINTS
Info: REMOVING COM VELOCITY 0.0419539 0.189084 0.081656
Info: Use 3D box decompostion in PME FFT.
Info: Updated CUDA force table with 4096 elements.
Info: Updated CUDA LJ table with 5 x 5 elements.
Info: Found 13 unique exclusion lists needing 20 bytes
TCL: Running for 1500000 steps
ETITLE: TS BOND ANGLE DIHED IMPRP ELECT VDW BOUNDARY MISC KINETIC TOTAL TEMP POTENTIAL TOTALAVG TEMPAVG PRESSURE GPRESSURE VOLUME PRESSAVG GPRESSAVG
ENERGY: 0 1.5085 5.2643 0.8857 0.0000 -10665.0030 1445.0243 0.0000 0.0000 1797.3866 -7414.9336 309.2260 -9212.3202 -7414.9336 309.2260 -289.5010 -200.5730 30439.3495 -289.5010 -200.5730
ENERGY: 300000 0.0530 2.2634 0.5450 0.0000 -10665.0393 1422.8285 0.0000 0.0000 1769.3809 -7469.9685 304.4079 -9239.3494 -7430.1024 299.0284 -399.2987 -314.7299 30559.8600 -140.4727 -73.8135
ENERGY: 600000 1.6458 3.7930 0.5471 0.0000 -10545.7965 1353.0582 0.0000 0.0000 1767.6371 -7419.1153 304.1078 -9186.7524 -7423.3521 301.2330 -751.4012 -627.2217 30273.6794 -341.5284 -250.9937
ENERGY: 900000 1.1743 2.8881 0.7140 0.0000 -10659.4055 1488.5992 0.0000 0.0000 1752.7647 -7413.2653 301.5492 -9166.0299 -7431.9217 300.5314 449.3100 504.8785 30417.9097 -159.9533 -81.2538
ENERGY: 1200000 0.3808 3.4017 0.5852 0.0000 -10639.9774 1376.2923 0.0000 0.0000 1795.7733 -7463.5442 308.9485 -9259.3175 -7431.2303 301.9001 -376.4126 -316.1033 30048.8822 -149.0058 -74.2384
ENERGY: 1500000 1.1637 3.6619 2.0881 0.0000 -10578.3663 1397.7504 0.0000 0.0000 1713.7617 -7459.9404 294.8390 -9173.7021 -7428.1089 301.9796 -291.1897 -171.0144 30228.6228 -167.9112 -89.6974
TCL: Running FEP window   2: Lambda1 0.95   Lambda2 0.8999999999999999 [dLambda -0.050000000000000044]
TCL: Setting parameter firsttimestep to 0
TCL: Setting parameter alchLambda to 0.95
Info: NONBONDED TABLE R-SQUARED SPACING: 0.0625
Info: NONBONDED TABLE SIZE: 705 POINTS
TCL: Setting parameter alchLambda2 to 0.8999999999999999
Info: NONBONDED TABLE R-SQUARED SPACING: 0.0625
Info: NONBONDED TABLE SIZE: 705 POINTS
TCL: Running for 1500000 steps
ETITLE: TS BOND ANGLE DIHED IMPRP ELECT VDW BOUNDARY MISC KINETIC TOTAL TEMP POTENTIAL TOTALAVG TEMPAVG PRESSURE GPRESSURE VOLUME PRESSAVG GPRESSAVG
ENERGY: 0 1.1637 3.6619 2.0881 0.0000 -10577.8634 1398.1489 0.0000 0.0000 1712.8837 -7459.9170 294.6880 -9172.8007 -7459.9170 294.6880 -268.5102 -175.7899 30228.6228 -268.5102 -175.7899
ENERGY: 300000 0.6765 9.3310 2.3598 0.0000 -10694.7175 1446.4533 0.0000 0.0000 1660.8430 -7575.0540 285.7348 -9235.8970 -7457.2146 298.2324 -61.9514 -6.0548 30050.7614 -155.4452 -83.6965
ENERGY: 600000 0.0099 4.7658 1.2858 0.0000 -10694.7592 1484.5373 0.0000 0.0000 1784.1744 -7419.9860 306.9529 -9204.1604 -7438.3708 300.2302 719.9450 786.5842 29753.8237 -107.2865 -51.3643
ENERGY: 900000 0.7157 3.4009 1.2963 0.0000 -10510.6696 1361.0090 0.0000 0.0000 1701.1846 -7443.0631 292.6752 -9144.2477 -7421.5756 301.1629 -620.5421 -541.6398 30546.7850 -35.7101 26.5466
ENERGY: 1200000 0.4146 1.3870 2.4103 0.0000 -10590.0668 1424.8227 0.0000 0.0000 1794.7629 -7366.2692 308.7746 -9161.0321 -7426.3185 301.7073 222.0173 276.4157 29992.1680 -44.2994 13.2822
ENERGY: 1500000 0.4655 4.1621 2.7426 0.0000 -10662.4351 1442.9822 0.0000 0.0000 1752.8736 -7459.2092 301.5679 -9212.0828 -7428.3781 301.4663 25.7776 91.3197 30039.8643 -67.3907 -8.1153
TCL: Running FEP window   3: Lambda1 0.8999999999999999 Lambda2 0.8499999999999999 [dLambda -0.050000000000000044]
TCL: Setting parameter firsttimestep to 0
TCL: Setting parameter alchLambda to 0.8999999999999999
Info: NONBONDED TABLE R-SQUARED SPACING: 0.0625
Info: NONBONDED TABLE SIZE: 705 POINTS
TCL: Setting parameter alchLambda2 to 0.8499999999999999
Info: NONBONDED TABLE R-SQUARED SPACING: 0.0625
Info: NONBONDED TABLE SIZE: 705 POINTS
TCL: Running for 1500000 steps
ETITLE: TS BOND ANGLE DIHED IMPRP ELECT VDW BOUNDARY MISC KINETIC TOTAL TEMP POTENTIAL TOTALAVG TEMPAVG PRESSURE GPRESSURE VOLUME PRESSAVG GPRESSAVG
ENERGY: 0 0.4655 4.1621 2.7426 0.0000 -10661.8969 1443.0933 0.0000 0.0000 1751.9474 -7459.4860 301.4086 -9211.4334 -7459.4860 301.4086 1.2231 83.4999 30039.8643 1.2231 83.4999
ENERGY: 300000 1.8725 5.6548 0.9530 0.0000 -10565.9208 1405.9022 0.0000 0.0000 1805.6569 -7345.8814 310.6488 -9151.5383 -7424.2867 303.7372 -299.0954 -176.0267 30493.8044 16.4679 104.5102
ENERGY: 600000 0.7413 3.6576 2.6187 0.0000 -10600.5254 1396.9542 0.0000 0.0000 1712.7123 -7483.8413 294.6585 -9196.5536 -7399.2981 303.0614 -140.6447 -62.7814 29773.4310 76.8869 155.7041
ENERGY: 900000 2.7565 5.3265 1.3263 0.0000 -10669.1111 1436.7396 0.0000 0.0000 1840.4512 -7382.5110 316.6349 -9222.9622 -7402.2572 304.8082 87.7497 160.7981 30279.1981 20.8609 94.8776
ENERGY: 1200000 0.6309 4.0636 2.2659 0.0000 -10467.2433 1363.7336 0.0000 0.0000 1732.6223 -7363.9269 298.0838 -9096.5493 -7386.4909 304.4302 -303.7812 -137.6571 30336.9338 -15.5926 54.5076
ENERGY: 1500000 0.3450 4.2045 2.1132 0.0000 -10668.2134 1488.1756 0.0000 0.0000 1707.4640 -7465.9110 293.7556 -9173.3751 -7394.7112 303.1962 486.2737 531.7954 30108.3886 10.3886 76.1327
TCL: Running FEP window   4: Lambda1 0.8499999999999999 Lambda2 0.7999999999999998 [dLambda -0.050000000000000044]
TCL: Setting parameter firsttimestep to 0
TCL: Setting parameter alchLambda to 0.8499999999999999
Info: NONBONDED TABLE R-SQUARED SPACING: 0.0625
Info: NONBONDED TABLE SIZE: 705 POINTS
TCL: Setting parameter alchLambda2 to 0.7999999999999998
Info: NONBONDED TABLE R-SQUARED SPACING: 0.0625
Info: NONBONDED TABLE SIZE: 705 POINTS
TCL: Running for 1500000 steps
ETITLE: TS BOND ANGLE DIHED IMPRP ELECT VDW BOUNDARY MISC KINETIC TOTAL TEMP POTENTIAL TOTALAVG TEMPAVG PRESSURE GPRESSURE VOLUME PRESSAVG GPRESSAVG
ENERGY: 0 0.3450 4.2045 2.1132 0.0000 -10668.2370 1488.5099 0.0000 0.0000 1706.5889 -7466.4755 293.6050 -9173.0644 -7466.4755 293.6050 456.0704 526.8484 30108.3886 456.0704 526.8484
ENERGY: 300000 0.5443 3.0651 2.0999 0.0000 -10640.2715 1447.5797 0.0000 0.0000 1740.9383 -7446.0442 299.5145 -9186.9825 -7474.4504 296.4470 233.4686 249.7567 29907.1871 156.3711 207.2167
ENERGY: 600000 1.8905 3.4009 0.8590 0.0000 -10578.7209 1420.4684 0.0000 0.0000 1672.7511 -7479.3511 287.7835 -9152.1021 -7478.2449 295.5745 108.8877 174.4906 29971.9614 33.7087 83.1361
ENERGY: 900000 0.5703 3.2461 0.8997 0.0000 -10747.8362 1481.9085 0.0000 0.0000 1764.1491 -7497.0626 303.5078 -9261.2117 -7467.5735 297.9376 209.7046 345.1598 29801.3694 46.4449 108.7548
ENERGY: 1200000 3.3623 2.8436 2.9009 0.0000 -10537.7118 1382.2345 0.0000 0.0000 1787.9755 -7358.3950 307.6069 -9146.3705 -7457.5103 299.2552 -306.4935 -271.7838 30485.2467 -32.3037 31.5490
ENERGY: 1500000 0.8365 2.8990 2.5491 0.0000 -10572.9185 1415.4560 0.0000 0.0000 1757.3671 -7393.8109 302.3410 -9151.1780 -7455.9717 299.7865 -222.4248 -158.4226 30386.1466 -106.8755 -39.4096
TCL: Running FEP window   5: Lambda1 0.7999999999999998 Lambda2 0.7499999999999998 [dLambda -0.050000000000000044]
TCL: Setting parameter firsttimestep to 0
TCL: Setting parameter alchLambda to 0.7999999999999998
Info: NONBONDED TABLE R-SQUARED SPACING: 0.0625
Info: NONBONDED TABLE SIZE: 705 POINTS
TCL: Setting parameter alchLambda2 to 0.7499999999999998
Info: NONBONDED TABLE R-SQUARED SPACING: 0.0625
Info: NONBONDED TABLE SIZE: 705 POINTS
TCL: Running for 1500000 steps
ETITLE: TS BOND ANGLE DIHED IMPRP ELECT VDW BOUNDARY MISC KINETIC TOTAL TEMP POTENTIAL TOTALAVG TEMPAVG PRESSURE GPRESSURE VOLUME PRESSAVG GPRESSAVG
ENERGY: 0 0.8365 2.8990 2.5491 0.0000 -10572.6412 1415.6620 0.0000 0.0000 1756.5342 -7394.1605 302.1977 -9150.6947 -7394.1605 302.1977 -254.5584 -164.6419 30386.1466 -254.5584 -164.6419
ENERGY: 300000 0.3284 2.7980 1.0648 0.0000 -10505.9196 1352.3905 0.0000 0.0000 1717.2441 -7432.0939 295.4381 -9149.3379 -7412.6330 297.5115 -573.7564 -478.2551 30436.4753 -621.1185 -534.5655
ENERGY: 600000 0.9842 3.6887 1.0649 0.0000 -10671.2814 1482.7001 0.0000 0.0000 1751.1666 -7431.6768 301.2742 -9182.8434 -7439.0392 298.2224 667.9122 714.0149 29687.5370 -206.7393 -131.9406
ENERGY: 900000 1.0332 2.0958 0.8235 0.0000 -10606.4934 1461.2020 0.0000 0.0000 1736.7187 -7404.6202 298.7886 -9141.3389 -7441.3776 297.5783 387.0703 452.1426 30238.4019 -191.6227 -121.2667
ENERGY: 1200000 1.3073 1.7178 0.6951 0.0000 -10449.1057 1354.2924 0.0000 0.0000 1806.6961 -7284.3970 310.8276 -9091.0931 -7437.9634 298.7827 -242.3926 -247.8829 30337.2826 -213.6131 -148.9406
ENERGY: 1500000 1.3435 6.9588 1.6582 0.0000 -10625.4992 1391.9055 0.0000 0.0000 1752.0296 -7471.6036 301.4227 -9223.6332 -7438.3991 298.5866 -422.6927 -426.4447 30234.4532 -213.9462 -158.2680
TCL: Running FEP window   6: Lambda1 0.7499999999999998 Lambda2 0.6999999999999997 [dLambda -0.050000000000000044]
TCL: Setting parameter firsttimestep to 0
TCL: Setting parameter alchLambda to 0.7499999999999998
Info: NONBONDED TABLE R-SQUARED SPACING: 0.0625
Info: NONBONDED TABLE SIZE: 705 POINTS
TCL: Setting parameter alchLambda2 to 0.6999999999999997
Info: NONBONDED TABLE R-SQUARED SPACING: 0.0625
Info: NONBONDED TABLE SIZE: 705 POINTS
TCL: Running for 1500000 steps
ETITLE: TS BOND ANGLE DIHED IMPRP ELECT VDW BOUNDARY MISC KINETIC TOTAL TEMP POTENTIAL TOTALAVG TEMPAVG PRESSURE GPRESSURE VOLUME PRESSAVG GPRESSAVG
ENERGY: 0 1.3435 6.9588 1.6582 0.0000 -10624.9988 1392.2246 0.0000 0.0000 1751.1574 -7471.6563 301.2726 -9222.8137 -7471.6563 301.2726 -503.4115 -427.2456 30234.4532 -503.4115 -427.2456
ENERGY: 300000 2.1936 4.9514 1.6602 0.0000 -10686.8350 1483.9747 0.0000 0.0000 1727.0526 -7467.0025 297.1256 -9194.0551 -7458.7084 297.4443 678.1111 750.9658 29750.9116 -13.1959 59.6633
ENERGY: 600000 1.4831 3.9565 3.2732 0.0000 -10521.9408 1383.0204 0.0000 0.0000 1708.6027 -7421.6049 293.9515 -9130.2076 -7458.7859 297.2030 -466.8447 -408.4892 30766.2385 -249.1009 -192.8371
ENERGY: 900000 1.2755 2.6734 1.1314 0.0000 -10556.5433 1462.8578 0.0000 0.0000 1767.4518 -7321.1534 304.0760 -9088.6052 -7452.7519 297.9419 598.9243 679.3268 30232.5684 -72.2179 -10.9486
ENERGY: 1200000 1.4628 2.0162 1.7776 0.0000 -10560.2936 1400.0310 0.0000 0.0000 1745.4326 -7409.5733 300.2877 -9155.0059 -7448.9626 298.2765 -318.8321 -282.5646 30217.1555 21.7972 82.4082
ENERGY: 1500000 1.0267 3.1659 1.2295 0.0000 -10590.7927 1412.3860 0.0000 0.0000 1688.2752 -7484.7094 290.4543 -9172.9847 -7458.1127 298.2794 -176.2785 -192.4442 30322.7505 66.5261 120.5117
TCL: Running FEP window   7: Lambda1 0.6999999999999997 Lambda2 0.6499999999999997 [dLambda -0.050000000000000044]
TCL: Setting parameter firsttimestep to 0
TCL: Setting parameter alchLambda to 0.6999999999999997
Info: NONBONDED TABLE R-SQUARED SPACING: 0.0625
Info: NONBONDED TABLE SIZE: 705 POINTS
TCL: Setting parameter alchLambda2 to 0.6499999999999997
Info: NONBONDED TABLE R-SQUARED SPACING: 0.0625
Info: NONBONDED TABLE SIZE: 705 POINTS
TCL: Running for 1500000 steps
ETITLE: TS BOND ANGLE DIHED IMPRP ELECT VDW BOUNDARY MISC KINETIC TOTAL TEMP POTENTIAL TOTALAVG TEMPAVG PRESSURE GPRESSURE VOLUME PRESSAVG GPRESSAVG
ENERGY: 0 1.0267 3.1659 1.2295 0.0000 -10590.6495 1412.1842 0.0000 0.0000 1687.4653 -7485.5779 290.3149 -9173.0432 -7485.5779 290.3149 -280.9234 -199.6761 30322.7505 -280.9234 -199.6761
ENERGY: 300000 0.8008 5.1174 1.2423 0.0000 -10363.8199 1319.1192 0.0000 0.0000 1738.3505 -7299.1897 299.0693 -9037.5402 -7418.2389 297.9555 -760.5502 -665.8588 30918.0858 -297.6050 -216.0832
ENERGY: 600000 0.9046 4.3974 0.9346 0.0000 -10671.2860 1477.5152 0.0000 0.0000 1776.5918 -7410.9424 305.6484 -9187.5342 -7413.2771 301.1714 323.5132 457.5416 30059.2293 -116.9220 -39.8648
ENERGY: 900000 0.8614 3.8636 0.8218 0.0000 -10560.9193 1393.3475 0.0000 0.0000 1778.5655 -7383.4596 305.9880 -9162.0251 -7424.6584 300.6424 -208.2395 -192.0246 30157.2787 -207.9535 -136.2694
ENERGY: 1200000 0.7156 2.0143 1.6054 0.0000 -10541.7008 1389.1324 0.0000 0.0000 1694.5208 -7453.7123 291.5288 -9148.2330 -7424.5687 300.0184 -251.8608 -173.8950 30035.2209 -218.1155 -146.0383
ENERGY: 1500000 1.0619 6.2263 0.7074 0.0000 -10604.9461 1421.8415 0.0000 0.0000 1763.4498 -7411.6593 303.3875 -9175.1091 -7428.9521 300.6554 -75.6824 -46.3416 30150.7935 -173.0880 -102.3490
TCL: Running FEP window   8: Lambda1 0.6499999999999997 Lambda2 0.5999999999999996 [dLambda -0.050000000000000044]
TCL: Setting parameter firsttimestep to 0
TCL: Setting parameter alchLambda to 0.6499999999999997
Info: NONBONDED TABLE R-SQUARED SPACING: 0.0625
Info: NONBONDED TABLE SIZE: 705 POINTS
TCL: Setting parameter alchLambda2 to 0.5999999999999996
Info: NONBONDED TABLE R-SQUARED SPACING: 0.0625
Info: NONBONDED TABLE SIZE: 705 POINTS
TCL: Running for 1500000 steps
ETITLE: TS BOND ANGLE DIHED IMPRP ELECT VDW BOUNDARY MISC KINETIC TOTAL TEMP POTENTIAL TOTALAVG TEMPAVG PRESSURE GPRESSURE VOLUME PRESSAVG GPRESSAVG
ENERGY: 0 1.0619 6.2263 0.7074 0.0000 -10604.4860 1421.0982 0.0000 0.0000 1762.5881 -7412.8042 303.2392 -9175.3923 -7412.8042 303.2392 -144.5246 -58.6909 30150.7935 -144.5246 -58.6909
ENERGY: 300000 0.1237 1.4378 4.4664 0.0000 -10569.1326 1415.3720 0.0000 0.0000 1716.3735 -7431.3592 295.2884 -9147.7327 -7416.0364 299.7463 195.6419 189.4950 30010.4848 -29.7669 30.4005
ENERGY: 600000 0.2826 4.2016 0.9854 0.0000 -10520.4460 1321.4561 0.0000 0.0000 1739.8978 -7453.6225 299.3355 -9193.5203 -7432.5034 299.4056 -716.8066 -660.8707 29917.9681 -223.9421 -169.4067
ENERGY: 900000 0.5392 2.9881 1.4480 0.0000 -10441.9838 1361.9143 0.0000 0.0000 1777.9829 -7297.1113 305.8878 -9075.0942 -7423.6595 300.1733 -257.5264 -224.9819 30417.7105 -211.7730 -167.2775
ENERGY: 1200000 1.9421 3.8385 5.4036 0.0000 -10602.0101 1411.5572 0.0000 0.0000 1757.4539 -7421.8148 302.3559 -9179.2687 -7422.1687 300.3135 -111.9554 -32.8666 30126.9551 -200.7085 -148.3294
ENERGY: 1500000 0.1477 3.2306 1.7990 0.0000 -10628.0675 1424.8576 0.0000 0.0000 1716.2714 -7481.7612 295.2708 -9198.0326 -7430.4287 300.6877 -37.1744 -30.8010 30005.1402 -101.6457 -48.4794
TCL: Running FEP window   9: Lambda1 0.5999999999999996 Lambda2 0.5499999999999996 [dLambda -0.050000000000000044]
TCL: Setting parameter firsttimestep to 0
TCL: Setting parameter alchLambda to 0.5999999999999996
Info: NONBONDED TABLE R-SQUARED SPACING: 0.0625
Info: NONBONDED TABLE SIZE: 705 POINTS
TCL: Setting parameter alchLambda2 to 0.5499999999999996
Info: NONBONDED TABLE R-SQUARED SPACING: 0.0625
Info: NONBONDED TABLE SIZE: 705 POINTS
TCL: Running for 1500000 steps
ETITLE: TS BOND ANGLE DIHED IMPRP ELECT VDW BOUNDARY MISC KINETIC TOTAL TEMP POTENTIAL TOTALAVG TEMPAVG PRESSURE GPRESSURE VOLUME PRESSAVG GPRESSAVG
ENERGY: 0 0.1477 3.2306 1.7990 0.0000 -10627.8452 1424.9399 0.0000 0.0000 1715.4360 -7482.2920 295.1271 -9197.7280 -7482.2920 295.1271 -116.3288 -35.1108 30005.1402 -116.3288 -35.1108
ENERGY: 300000 0.9043 1.6617 1.3689 0.0000 -10718.8251 1481.1543 0.0000 0.0000 1759.8009 -7473.9350 302.7597 -9233.7359 -7469.2640 296.5811 188.6731 292.1517 30201.8287 178.8970 274.5392
ENERGY: 600000 1.1597 3.6033 3.4069 0.0000 -10620.3636 1434.4457 0.0000 0.0000 1757.8016 -7419.9464 302.4157 -9177.7480 -7440.9636 298.2671 -13.5603 17.7498 30525.5712 156.1071 233.2913
ENERGY: 900000 0.6139 2.7526 0.9207 0.0000 -10547.0569 1397.1924 0.0000 0.0000 1770.5024 -7375.0749 304.6008 -9145.5773 -7428.3492 299.8642 -150.7176 -111.8463 30398.7178 21.3236 101.4809
ENERGY: 1200000 0.1776 1.7698 1.5352 0.0000 -10673.7980 1433.3472 0.0000 0.0000 1734.8129 -7502.1553 298.4607 -9236.9682 -7437.6393 300.1164 -239.7462 -137.9956 30058.2232 -11.1962 67.3403
ENERGY: 1500000 1.1607 1.3821 0.5743 0.0000 -10510.4983 1330.5664 0.0000 0.0000 1772.0552 -7404.7596 304.8679 -9176.8148 -7435.1311 300.8276 -536.3358 -501.4925 29826.2909 -87.8843 -16.0357
TCL: Running FEP window  10: Lambda1 0.5499999999999996 Lambda2 0.4999999999999996 [dLambda -0.04999999999999999]
TCL: Setting parameter firsttimestep to 0
TCL: Setting parameter alchLambda to 0.5499999999999996
Info: NONBONDED TABLE R-SQUARED SPACING: 0.0625
Info: NONBONDED TABLE SIZE: 705 POINTS
TCL: Setting parameter alchLambda2 to 0.4999999999999996
Info: NONBONDED TABLE R-SQUARED SPACING: 0.0625
Info: NONBONDED TABLE SIZE: 705 POINTS
TCL: Running for 1500000 steps
ETITLE: TS BOND ANGLE DIHED IMPRP ELECT VDW BOUNDARY MISC KINETIC TOTAL TEMP POTENTIAL TOTALAVG TEMPAVG PRESSURE GPRESSURE VOLUME PRESSAVG GPRESSAVG
ENERGY: 0 1.1607 1.3821 0.5743 0.0000 -10510.1392 1330.6955 0.0000 0.0000 1771.1591 -7405.1675 304.7138 -9176.3266 -7405.1675 304.7138 -582.0261 -504.3636 29826.2909 -582.0261 -504.3636
ENERGY: 300000 0.9065 1.5435 2.1528 0.0000 -10606.7015 1407.0514 0.0000 0.0000 1742.9486 -7452.0988 299.8604 -9195.0474 -7436.4840 299.0529 -182.0416 -95.1812 29824.1059 -211.6521 -132.6024
ENERGY: 600000 0.2922 3.1350 1.8956 0.0000 -10458.7674 1305.0106 0.0000 0.0000 1788.9635 -7359.4706 307.7769 -9148.4341 -7426.3411 299.1284 -867.4685 -890.8967 30343.5319 33.6669 94.3799
ENERGY: 900000 0.3574 4.7970 1.3333 0.0000 -10760.0271 1526.8713 0.0000 0.0000 1751.3082 -7475.3598 301.2986 -9226.6680 -7434.5361 299.7075 847.0050 920.8710 29760.6219 121.9505 188.6934
ENERGY: 1200000 0.2283 2.5082 0.7399 0.0000 -10582.2017 1391.9181 0.0000 0.0000 1743.8726 -7442.9345 300.0194 -9186.8071 -7434.5503 299.7906 -240.1866 -262.1158 30142.3668 38.7040 90.9520
ENERGY: 1500000 0.7079 3.8122 1.3688 0.0000 -10623.6688 1449.8303 0.0000 0.0000 1749.6407 -7418.3089 301.0117 -9167.9497 -7424.9835 300.5020 155.5706 165.3712 30344.2179 -37.7798 7.9973
TCL: Running FEP window  11: Lambda1 0.4999999999999996 Lambda2 0.4499999999999996 [dLambda -0.04999999999999999]
TCL: Setting parameter firsttimestep to 0
TCL: Setting parameter alchLambda to 0.4999999999999996
Info: NONBONDED TABLE R-SQUARED SPACING: 0.0625
Info: NONBONDED TABLE SIZE: 705 POINTS
TCL: Setting parameter alchLambda2 to 0.4499999999999996
Info: NONBONDED TABLE R-SQUARED SPACING: 0.0625
Info: NONBONDED TABLE SIZE: 705 POINTS
TCL: Running for 1500000 steps
ETITLE: TS BOND ANGLE DIHED IMPRP ELECT VDW BOUNDARY MISC KINETIC TOTAL TEMP POTENTIAL TOTALAVG TEMPAVG PRESSURE GPRESSURE VOLUME PRESSAVG GPRESSAVG
ENERGY: 0 0.7079 3.8122 1.3688 0.0000 -10623.2037 1449.3092 0.0000 0.0000 1748.7705 -7419.2351 300.8620 -9168.0056 -7419.2351 300.8620 82.9261 155.4823 30344.2179 82.9261 155.4823
ENERGY: 300000 0.8298 3.1455 0.7526 0.0000 -10494.2431 1329.8343 0.0000 0.0000 1755.9386 -7403.7424 302.0952 -9159.6809 -7440.0646 298.8460 -542.6256 -429.8309 29971.8748 -22.0452 51.4575
ENERGY: 600000 0.3344 5.9854 3.1940 0.0000 -10509.0026 1354.1284 0.0000 0.0000 1753.1104 -7392.2500 301.6086 -9145.3604 -7456.8542 298.1783 -501.7626 -479.2174 30104.9690 -90.6352 -35.4516
ENERGY: 900000 0.0535 5.1787 0.7308 0.0000 -10641.6433 1458.6038 0.0000 0.0000 1781.7456 -7395.3309 306.5351 -9177.0765 -7459.1599 299.8767 426.5474 398.3828 29856.4455 -70.8503 -32.6605
ENERGY: 1200000 2.3996 3.1815 1.4470 0.0000 -10580.5269 1374.1581 0.0000 0.0000 1764.3868 -7434.9539 303.5487 -9199.3407 -7455.4471 300.8014 -349.8109 -288.5317 30176.5849 -167.2352 -122.5666
ENERGY: 1500000 2.9013 2.8014 1.2609 0.0000 -10636.0519 1416.1577 0.0000 0.0000 1788.9884 -7423.9422 307.7812 -9212.9306 -7444.9749 301.3607 -433.4998 -391.6302 30311.3455 -158.7441 -115.1537
TCL: Running FEP window  12: Lambda1 0.4499999999999996 Lambda2 0.39999999999999963 [dLambda -0.04999999999999999]
TCL: Setting parameter firsttimestep to 0
TCL: Setting parameter alchLambda to 0.4499999999999996
Info: NONBONDED TABLE R-SQUARED SPACING: 0.0625
Info: NONBONDED TABLE SIZE: 705 POINTS
TCL: Setting parameter alchLambda2 to 0.39999999999999963
Info: NONBONDED TABLE R-SQUARED SPACING: 0.0625
Info: NONBONDED TABLE SIZE: 705 POINTS
TCL: Running for 1500000 steps
ETITLE: TS BOND ANGLE DIHED IMPRP ELECT VDW BOUNDARY MISC KINETIC TOTAL TEMP POTENTIAL TOTALAVG TEMPAVG PRESSURE GPRESSURE VOLUME PRESSAVG GPRESSAVG
ENERGY: 0 2.9013 2.8014 1.2609 0.0000 -10636.0516 1416.5428 0.0000 0.0000 1788.0992 -7424.4460 307.6282 -9212.5452 -7424.4460 307.6282 -479.7150 -392.5749 30311.3455 -479.7150 -392.5749
ENERGY: 300000 0.9769 4.4135 0.7864 0.0000 -10669.8889 1441.6917 0.0000 0.0000 1720.4062 -7501.6142 295.9821 -9222.0204 -7447.3464 301.2898 188.5340 241.6698 29565.6340 -617.9488 -567.1929
ENERGY: 600000 0.1807 3.8664 1.8045 0.0000 -10635.0824 1494.7451 0.0000 0.0000 1671.8211 -7462.6646 287.6235 -9134.4857 -7448.4558 299.3748 590.9857 590.4601 30020.2929 -214.5680 -169.8671
ENERGY: 900000 0.5183 6.3219 0.7855 0.0000 -10666.2304 1424.7888 0.0000 0.0000 1811.5178 -7422.2982 311.6572 -9233.8159 -7449.6868 300.0529 -293.8491 -210.6484 29971.2364 -257.3755 -218.2712
ENERGY: 1200000 0.1258 6.0134 0.9363 0.0000 -10514.3921 1363.1357 0.0000 0.0000 1732.9049 -7411.2760 298.1325 -9144.1809 -7449.4498 298.8962 -303.5430 -284.4687 29964.6911 -310.1011 -266.6208
ENERGY: 1500000 1.2808 2.5165 1.0740 0.0000 -10684.7027 1502.1486 0.0000 0.0000 1706.3566 -7471.3262 293.5650 -9177.6828 -7452.6205 299.6279 610.7473 657.2141 30130.1441 -250.8530 -207.7181
TCL: Running FEP window  13: Lambda1 0.39999999999999963 Lambda2 0.34999999999999964 [dLambda -0.04999999999999999]
TCL: Setting parameter firsttimestep to 0
TCL: Setting parameter alchLambda to 0.39999999999999963
Info: NONBONDED TABLE R-SQUARED SPACING: 0.0625
Info: NONBONDED TABLE SIZE: 705 POINTS
TCL: Setting parameter alchLambda2 to 0.34999999999999964
Info: NONBONDED TABLE R-SQUARED SPACING: 0.0625
Info: NONBONDED TABLE SIZE: 705 POINTS
TCL: Running for 1500000 steps
ETITLE: TS BOND ANGLE DIHED IMPRP ELECT VDW BOUNDARY MISC KINETIC TOTAL TEMP POTENTIAL TOTALAVG TEMPAVG PRESSURE GPRESSURE VOLUME PRESSAVG GPRESSAVG
ENERGY: 0 1.2808 2.5165 1.0740 0.0000 -10684.7035 1502.4069 0.0000 0.0000 1705.4418 -7471.9834 293.4076 -9177.4252 -7471.9834 293.4076 566.4981 655.2230 30130.1441 566.4981 655.2230
ENERGY: 300000 4.1840 4.2273 1.2904 0.0000 -10645.4257 1427.7040 0.0000 0.0000 1775.1371 -7432.8829 305.3982 -9208.0200 -7447.1199 300.2453 -423.1778 -359.5251 30556.0228 -60.8873 2.4369
ENERGY: 600000 0.8167 3.9183 2.5820 0.0000 -10635.0348 1464.8979 0.0000 0.0000 1781.8834 -7380.9365 306.5588 -9162.8199 -7421.5130 301.9582 545.2710 595.2640 29816.8187 102.2280 159.3844
ENERGY: 900000 1.3652 2.8781 2.3653 0.0000 -10700.9541 1436.9037 0.0000 0.0000 1761.4188 -7496.0230 303.0380 -9257.4418 -7432.0272 301.5314 -160.8308 -45.6884 30029.6314 24.6901 81.6559
ENERGY: 1200000 0.8595 8.2994 1.1092 0.0000 -10407.8429 1314.2679 0.0000 0.0000 1741.0131 -7342.2938 299.5274 -9083.3069 -7419.4314 300.9085 -789.0102 -751.5727 30375.8278 -42.5795 6.0415
ENERGY: 1500000 0.5988 3.5138 2.6031 0.0000 -10543.6077 1385.2350 0.0000 0.0000 1756.4645 -7395.1925 302.1857 -9151.6570 -7423.0477 301.2751 -516.0708 -504.7867 30602.4584 -57.4432 -2.2289
TCL: Running FEP window  14: Lambda1 0.34999999999999964 Lambda2 0.29999999999999966 [dLambda -0.04999999999999999]
TCL: Setting parameter firsttimestep to 0
TCL: Setting parameter alchLambda to 0.34999999999999964
Info: NONBONDED TABLE R-SQUARED SPACING: 0.0625
Info: NONBONDED TABLE SIZE: 705 POINTS
TCL: Setting parameter alchLambda2 to 0.29999999999999966
Info: NONBONDED TABLE R-SQUARED SPACING: 0.0625
Info: NONBONDED TABLE SIZE: 705 POINTS
TCL: Running for 1500000 steps
ETITLE: TS BOND ANGLE DIHED IMPRP ELECT VDW BOUNDARY MISC KINETIC TOTAL TEMP POTENTIAL TOTALAVG TEMPAVG PRESSURE GPRESSURE VOLUME PRESSAVG GPRESSAVG
ENERGY: 0 0.5989 3.5138 2.6031 0.0000 -10543.6066 1385.2416 0.0000 0.0000 1755.5580 -7396.0913 302.0297 -9151.6493 -7396.0913 302.0297 -590.1602 -508.3522 30602.4584 -590.1602 -508.3522
ENERGY: 300000 0.4918 2.8698 1.0742 0.0000 -10556.7656 1387.5266 0.0000 0.0000 1765.4808 -7399.3225 303.7369 -9164.8033 -7445.3530 299.4247 -453.3703 -351.9960 30424.8432 -394.5582 -326.8463
ENERGY: 600000 0.5039 3.6707 1.1131 0.0000 -10853.1530 1522.8863 0.0000 0.0000 1679.9997 -7644.9793 289.0305 -9324.9790 -7495.1780 297.2304 475.7684 567.5234 29730.1468 -143.7878 -78.1736
ENERGY: 900000 0.4450 4.7227 3.0298 0.0000 -10465.1439 1345.2805 0.0000 0.0000 1755.3636 -7356.3023 301.9963 -9111.6658 -7468.8262 298.4809 -625.7481 -590.5534 30450.6400 -187.9414 -126.4168
ENERGY: 1200000 0.3162 3.2260 1.4847 0.0000 -10576.7242 1385.0205 0.0000 0.0000 1759.9660 -7426.7106 302.7881 -9186.6767 -7465.7581 298.3495 -604.7424 -520.0187 30323.2922 -135.1039 -72.0117
ENERGY: 1500000 0.7883 5.2294 1.0483 0.0000 -10551.6438 1415.5605 0.0000 0.0000 1716.8731 -7412.1442 295.3743 -9129.0173 -7454.9280 298.8498 -46.5002 -12.0112 30179.3272 -122.1693 -64.3566
TCL: Running FEP window  15: Lambda1 0.29999999999999966 Lambda2 0.24999999999999967 [dLambda -0.04999999999999999]
TCL: Setting parameter firsttimestep to 0
TCL: Setting parameter alchLambda to 0.29999999999999966
Info: NONBONDED TABLE R-SQUARED SPACING: 0.0625
Info: NONBONDED TABLE SIZE: 705 POINTS
TCL: Setting parameter alchLambda2 to 0.24999999999999967
Info: NONBONDED TABLE R-SQUARED SPACING: 0.0625
Info: NONBONDED TABLE SIZE: 705 POINTS
TCL: Running for 1500000 steps
ETITLE: TS BOND ANGLE DIHED IMPRP ELECT VDW BOUNDARY MISC KINETIC TOTAL TEMP POTENTIAL TOTALAVG TEMPAVG PRESSURE GPRESSURE VOLUME PRESSAVG GPRESSAVG
ENERGY: 0 0.7883 5.2294 1.0483 0.0000 -10551.6422 1415.8048 0.0000 0.0000 1716.0246 -7412.7468 295.2283 -9128.7714 -7412.7468 295.2283 -89.2581 -11.1285 30179.3272 -89.2581 -11.1285
ENERGY: 300000 1.3728 3.3368 1.7726 0.0000 -10714.6191 1481.7692 0.0000 0.0000 1665.6297 -7560.7381 286.5583 -9226.3678 -7454.5710 298.1111 137.7157 227.1809 29865.2198 125.6466 202.2855
ENERGY: 600000 0.8565 4.5665 3.0078 0.0000 -10575.6882 1422.6965 0.0000 0.0000 1792.5961 -7351.9648 308.4019 -9144.5610 -7441.0005 299.2340 105.1670 179.7258 30218.4419 33.9960 101.0810
ENERGY: 900000 1.7883 2.3438 2.4632 0.0000 -10689.2948 1461.9507 0.0000 0.0000 1719.6846 -7501.0642 295.8580 -9220.7488 -7431.0740 299.4529 35.1272 101.8059 30118.1455 33.6783 99.3586
ENERGY: 1200000 0.7758 2.6157 1.4688 0.0000 -10385.3584 1283.6239 0.0000 0.0000 1717.4251 -7379.4492 295.4693 -9096.8743 -7423.9988 299.9972 -981.6850 -905.7527 30013.1438 -99.2318 -35.9334
ENERGY: 1500000 0.2773 2.5766 0.8603 0.0000 -10525.1645 1357.1540 0.0000 0.0000 1772.6594 -7391.6368 304.9719 -9164.2962 -7422.6322 300.2097 -628.5326 -575.8053 30256.7371 -180.7605 -116.5000
TCL: Running FEP window  16: Lambda1 0.24999999999999967 Lambda2 0.19999999999999968 [dLambda -0.04999999999999999]
TCL: Setting parameter firsttimestep to 0
TCL: Setting parameter alchLambda to 0.24999999999999967
Info: NONBONDED TABLE R-SQUARED SPACING: 0.0625
Info: NONBONDED TABLE SIZE: 705 POINTS
TCL: Setting parameter alchLambda2 to 0.19999999999999968
Info: NONBONDED TABLE R-SQUARED SPACING: 0.0625
Info: NONBONDED TABLE SIZE: 705 POINTS
TCL: Running for 1500000 steps
ETITLE: TS BOND ANGLE DIHED IMPRP ELECT VDW BOUNDARY MISC KINETIC TOTAL TEMP POTENTIAL TOTALAVG TEMPAVG PRESSURE GPRESSURE VOLUME PRESSAVG GPRESSAVG
ENERGY: 0 0.2773 2.5766 0.8603 0.0000 -10525.1661 1357.1567 0.0000 0.0000 1771.8034 -7392.4918 304.8246 -9164.2952 -7392.4918 304.8246 -669.7188 -578.4505 30256.7371 -669.7188 -578.4505
ENERGY: 300000 0.4317 2.6241 0.7922 0.0000 -10514.9709 1336.8643 0.0000 0.0000 1733.7300 -7440.5285 298.2744 -9174.2585 -7428.6579 302.2761 -890.4611 -852.7659 30696.7730 -461.6969 -413.3739
ENERGY: 600000 1.6183 1.7370 2.1721 0.0000 -10659.2228 1447.0586 0.0000 0.0000 1764.4357 -7442.2011 303.5571 -9206.6367 -7429.6109 301.3032 -139.3488 -137.2258 30534.7516 -160.3169 -120.7814
ENERGY: 900000 1.5011 3.8211 2.3283 0.0000 -10553.7445 1361.7903 0.0000 0.0000 1761.1783 -7423.1254 302.9967 -9184.3037 -7418.9737 301.4380 -426.3639 -447.2503 30091.6042 -83.6772 -43.5805
ENERGY: 1200000 0.8975 3.5257 1.3334 0.0000 -10662.1312 1442.2370 0.0000 0.0000 1684.1959 -7529.9417 289.7525 -9214.1376 -7428.6858 300.0364 -222.2769 -217.9832 30426.7779 4.8293 45.9588
ENERGY: 1500000 1.5865 5.1094 1.0390 0.0000 -10468.8581 1340.8793 0.0000 0.0000 1738.8224 -7381.4215 299.1505 -9120.2439 -7430.0001 299.3810 -555.3497 -497.3623 30127.7281 -31.5343 8.5082
TCL: Running FEP window  17: Lambda1 0.19999999999999968 Lambda2 0.1499999999999997 [dLambda -0.04999999999999999]
TCL: Setting parameter firsttimestep to 0
TCL: Setting parameter alchLambda to 0.19999999999999968
Info: NONBONDED TABLE R-SQUARED SPACING: 0.0625
Info: NONBONDED TABLE SIZE: 705 POINTS
TCL: Setting parameter alchLambda2 to 0.1499999999999997
Info: NONBONDED TABLE R-SQUARED SPACING: 0.0625
Info: NONBONDED TABLE SIZE: 705 POINTS
TCL: Running for 1500000 steps
ETITLE: TS BOND ANGLE DIHED IMPRP ELECT VDW BOUNDARY MISC KINETIC TOTAL TEMP POTENTIAL TOTALAVG TEMPAVG PRESSURE GPRESSURE VOLUME PRESSAVG GPRESSAVG
ENERGY: 0 1.5865 5.1094 1.0390 0.0000 -10468.8559 1340.9688 0.0000 0.0000 1737.9368 -7382.2154 298.9982 -9120.1522 -7382.2154 298.9982 -575.4922 -499.2580 30127.7281 -575.4922 -499.2580
ENERGY: 300000 0.5379 2.5751 2.8739 0.0000 -10475.5203 1334.0295 0.0000 0.0000 1737.3620 -7398.1420 298.8993 -9135.5040 -7415.5094 300.9038 -751.6672 -638.9441 30298.3144 -800.5711 -733.6013
ENERGY: 600000 0.8648 2.3850 0.7954 0.0000 -10540.4862 1394.5940 0.0000 0.0000 1719.2644 -7422.5827 295.7857 -9141.8470 -7400.6630 300.0410 -77.2710 -6.6810 29559.8504 -426.1525 -357.0364
ENERGY: 900000 0.6954 5.2328 0.6622 0.0000 -10579.7265 1391.5650 0.0000 0.0000 1795.1897 -7386.3814 308.8481 -9181.5711 -7419.7483 299.9430 -277.0910 -275.3833 30032.6014 -380.2284 -318.9800
ENERGY: 1200000 1.6667 5.7824 1.5540 0.0000 -10588.5372 1440.6720 0.0000 0.0000 1786.7186 -7352.1435 307.3907 -9138.8621 -7420.9369 299.4027 224.3051 346.8292 29787.5489 -349.7482 -282.1336
ENERGY: 1500000 0.1326 2.7249 0.8211 0.0000 -10504.0469 1378.6718 0.0000 0.0000 1740.8856 -7380.8109 299.5055 -9121.6965 -7419.6095 299.2525 -73.8558 -5.5271 29670.4506 -258.3316 -185.7025
TCL: Running FEP window  18: Lambda1 0.1499999999999997 Lambda2 0.09999999999999969 [dLambda -0.05 ]
TCL: Setting parameter firsttimestep to 0
TCL: Setting parameter alchLambda to 0.1499999999999997
Info: NONBONDED TABLE R-SQUARED SPACING: 0.0625
Info: NONBONDED TABLE SIZE: 705 POINTS
TCL: Setting parameter alchLambda2 to 0.09999999999999969
Info: NONBONDED TABLE R-SQUARED SPACING: 0.0625
Info: NONBONDED TABLE SIZE: 705 POINTS
TCL: Running for 1500000 steps
ETITLE: TS BOND ANGLE DIHED IMPRP ELECT VDW BOUNDARY MISC KINETIC TOTAL TEMP POTENTIAL TOTALAVG TEMPAVG PRESSURE GPRESSURE VOLUME PRESSAVG GPRESSAVG
ENERGY: 0 0.1326 2.7249 0.8211 0.0000 -10504.0462 1378.0471 0.0000 0.0000 1740.0197 -7382.3008 299.3565 -9122.3205 -7382.3008 299.3565 -72.1134 -13.8131 29670.4506 -72.1134 -13.8131
ENERGY: 300000 1.1542 3.7146 0.6201 0.0000 -10690.3664 1471.3586 0.0000 0.0000 1714.4005 -7499.1186 294.9489 -9213.5191 -7433.7793 297.5577 72.2511 133.9096 30165.1996 -44.5623 26.5178
ENERGY: 600000 0.4076 5.4615 2.9363 0.0000 -10540.4718 1374.1437 0.0000 0.0000 1760.4570 -7397.0657 302.8726 -9157.5227 -7430.4122 298.0558 -283.2748 -231.5328 30099.2160 -247.4521 -174.5249
ENERGY: 900000 1.5518 3.2236 1.2678 0.0000 -10676.7111 1461.6795 0.0000 0.0000 1725.2512 -7483.7373 296.8157 -9208.9885 -7427.8017 298.4935 393.4846 399.5194 29488.5028 -147.5225 -83.9720
ENERGY: 1200000 0.8256 2.6432 3.0172 0.0000 -10612.8750 1466.2334 0.0000 0.0000 1745.5531 -7394.6025 300.3085 -9140.1556 -7426.4033 298.7840 236.0912 249.8873 30502.1924 -158.9704 -97.5182
ENERGY: 1500000 0.4606 3.3329 1.2122 0.0000 -10686.0347 1505.8546 0.0000 0.0000 1775.0164 -7400.1580 305.3774 -9175.1744 -7432.6879 299.1081 777.9807 778.2439 30031.7103 -89.1820 -28.9266
TCL: Running FEP window  19: Lambda1 0.09999999999999969 Lambda2 0.049999999999999684 [dLambda -0.05 ]
TCL: Setting parameter firsttimestep to 0
TCL: Setting parameter alchLambda to 0.09999999999999969
Info: NONBONDED TABLE R-SQUARED SPACING: 0.0625
Info: NONBONDED TABLE SIZE: 705 POINTS
TCL: Setting parameter alchLambda2 to 0.049999999999999684
Info: NONBONDED TABLE R-SQUARED SPACING: 0.0625
Info: NONBONDED TABLE SIZE: 705 POINTS
TCL: Running for 1500000 steps
ETITLE: TS BOND ANGLE DIHED IMPRP ELECT VDW BOUNDARY MISC KINETIC TOTAL TEMP POTENTIAL TOTALAVG TEMPAVG PRESSURE GPRESSURE VOLUME PRESSAVG GPRESSAVG
ENERGY: 0 0.4606 3.3329 1.2122 0.0000 -10686.0346 1505.9392 0.0000 0.0000 1774.1639 -7400.9258 305.2307 -9175.0897 -7400.9258 305.2307 700.5009 772.9088 30031.7103 700.5009 772.9088
ENERGY: 300000 0.9917 3.2024 0.8372 0.0000 -10657.3790 1474.0326 0.0000 0.0000 1681.1152 -7497.1999 289.2224 -9178.3151 -7457.6220 293.7716 464.4920 547.4320 29952.0696 -143.4481 -77.5353
ENERGY: 600000 0.9946 5.0238 1.2364 0.0000 -10576.7555 1386.3425 0.0000 0.0000 1747.9351 -7435.2232 300.7183 -9183.1584 -7457.4033 294.7032 -286.8111 -230.7461 30040.0549 50.3301 98.7467
ENERGY: 900000 4.4682 3.0571 1.8515 0.0000 -10522.4536 1391.4199 0.0000 0.0000 1792.0052 -7329.6517 308.3002 -9121.6569 -7430.0892 298.1262 -365.6618 -382.8226 30541.0860 -46.3920 -4.3128
ENERGY: 1200000 0.6836 4.2154 1.1970 0.0000 -10742.0116 1499.2406 0.0000 0.0000 1716.1163 -7520.5588 295.2441 -9236.6751 -7437.8781 297.9902 481.6210 515.4114 29331.6177 -15.9810 26.3777
ENERGY: 1500000 0.5127 3.5205 1.9984 0.0000 -10573.8681 1426.4205 0.0000 0.0000 1787.6029 -7353.8132 307.5428 -9141.4161 -7424.7479 299.6879 41.9699 56.6093 30273.1002 -65.5019 -25.1265
TCL: Running FEP window  20: Lambda1 0.049999999999999684 Lambda2 0.0    [dLambda -0.049999999999999684]
TCL: Setting parameter firsttimestep to 0
TCL: Setting parameter alchLambda to 0.049999999999999684
Info: NONBONDED TABLE R-SQUARED SPACING: 0.0625
Info: NONBONDED TABLE SIZE: 705 POINTS
TCL: Setting parameter alchLambda2 to 0.0
Info: NONBONDED TABLE R-SQUARED SPACING: 0.0625
Info: NONBONDED TABLE SIZE: 705 POINTS
TCL: Running for 1500000 steps
ETITLE: TS BOND ANGLE DIHED IMPRP ELECT VDW BOUNDARY MISC KINETIC TOTAL TEMP POTENTIAL TOTALAVG TEMPAVG PRESSURE GPRESSURE VOLUME PRESSAVG GPRESSAVG
ENERGY: 0 0.5127 3.5205 1.9984 0.0000 -10573.8682 1426.0373 0.0000 0.0000 1786.7281 -7355.0713 307.3923 -9141.7994 -7355.0713 307.3923 -27.2361 54.8621 30273.1002 -27.2361 54.8621
ENERGY: 300000 0.4250 4.0028 2.1175 0.0000 -10681.3491 1464.5864 0.0000 0.0000 1758.1391 -7452.0783 302.4738 -9210.2174 -7438.9878 302.9058 44.3982 146.7685 30068.6251 -95.9520 1.2889
ENERGY: 600000 2.1613 2.3623 1.2285 0.0000 -10724.3615 1500.8055 0.0000 0.0000 1766.8518 -7450.9520 303.9727 -9217.8038 -7436.1687 301.3916 720.2574 774.4435 29492.0793 64.0729 142.4229
ENERGY: 900000 0.0473 3.1263 1.5277 0.0000 -10653.0367 1418.5405 0.0000 0.0000 1729.6545 -7500.1404 297.5732 -9229.7949 -7446.2293 300.2214 -63.8036 -117.4281 29696.8951 99.7621 161.6354
ENERGY: 1200000 0.2292 4.1124 1.4974 0.0000 -10780.8368 1536.9071 0.0000 0.0000 1753.7519 -7484.3388 301.7190 -9238.0907 -7463.1805 299.1853 588.3545 650.6810 29913.3926 20.2256 81.0001
ENERGY: 1500000 0.5863 4.1468 2.6143 0.0000 -10577.1581 1413.4794 0.0000 0.0000 1751.3766 -7404.9547 301.3104 -9156.3313 -7449.9547 299.8496 -31.5665 47.6720 29932.5986 61.0065 122.7450
TCL: Exiting due to exit command.
