Info: SIMULATION PARAMETERS:
Info: TIMESTEP               2
Info: NUMBER OF STEPS        0
Info: STEPS PER CYCLE        10
Info: PERIODIC CELL BASIS 1  31.3497 0 0
Info: PERIODIC CELL BASIS 2  0 31.3276 0
Info: PERIODIC CELL BASIS 3  0 0 31.6036
Info: PERIODIC CELL CENTER   0 0 0
Info: WRAPPING WATERS AROUND PERIODIC BOUNDARIES ON OUTPUT.
Info: WRAPPING ALL CLUSTERS AROUND PERIODIC BOUNDARIES ON OUTPUT.
Info: FIRST LDB TIMESTEP     50
Info: LAST LDB TIMESTEP     -1
Info: HOM BACKGROUND SCALING 1
Info: PME BACKGROUND SCALING 1
Info: MIN ATOMS PER PATCH    40
Info: EMPTY PATCH LOAD       40 ATOMS
Info: VELOCITY FILE          mobley_1896013_equil.vel
Info: CENTER OF MASS MOVING INITIALLY? NO
Info: DIELECTRIC             1
Info: EXCLUDE                SCALED ONE-FOUR
Info: 1-4 ELECTROSTATICS SCALED BY 0.833333
Info: MODIFIED 1-4 VDW PARAMETERS WILL BE USED
Info: DCD FILENAME           mobley_1896013_prod.dcd
Info: DCD FREQUENCY          100000
Info: DCD FIRST STEP         100000
Info: DCD FILE WILL CONTAIN UNIT CELL DATA
Info: XST FILENAME           mobley_1896013_prod.xst
Info: XST FREQUENCY          100000
Info: NO VELOCITY DCD OUTPUT
Info: NO FORCE DCD OUTPUT
Info: OUTPUT FILENAME        mobley_1896013_prod
Info: BINARY OUTPUT FILES WILL BE USED
Info: RESTART FILENAME       mobley_1896013_prod.restart
Info: RESTART FREQUENCY      100000
Info: BINARY RESTART FILES WILL BE USED
Info: CUTOFF                 9
Info: PAIRLIST DISTANCE      11
Info: PAIRLIST SHRINK RATE   0.01
Info: PAIRLIST GROW RATE     0.01
Info: PAIRLIST TRIGGER       0.3
Info: PAIRLISTS PER CYCLE    2
Info: PAIRLISTS ENABLED
Info: MARGIN                 2
Info: HYDROGEN GROUP CUTOFF  2.5
Info: PATCH DIMENSION        15.5
Info: ENERGY OUTPUT STEPS    100000
Info: ENERGY EVALUATION STEPS    100000
Info: OUTPUT ENERGY PRECISION 4
Info: CROSSTERM ENERGY INCLUDED IN DIHEDRAL
Info: TIMING OUTPUT STEPS    1000000
Info: PRESSURE OUTPUT STEPS  100000
Info: ALCHEMICAL FEP ON
Info: FEP CURRENT LAMBDA VALUE     1
Info: FEP COMPARISON LAMBDA VALUE  0.95
Info: FEP INTRA-ALCHEMICAL NON-BONDED INTERACTIONS WILL BE RETAINED
Info: FEP INTRA-ALCHEMICAL BONDED INTERACTIONS WILL BE RETAINED
Info: FEP VDW SHIFTING COEFFICIENT 5
Info: FEP ELEC. ACTIVE FOR ANNIHILATED PARTICLES BETWEEN LAMBDA = 0 AND LAMBDA = 0.5
Info: FEP ELEC. ACTIVE FOR EXNIHILATED PARTICLES BETWEEN LAMBDA = 0.5 AND LAMBDA = 1
Info: FEP VDW ACTIVE FOR ANNIHILATED PARTICLES BETWEEN LAMBDA = 0 AND LAMBDA = 1
Info: FEP VDW ACTIVE FOR EXNIHILATED PARTICLES BETWEEN LAMBDA = 0 AND LAMBDA = 1
Info: FEP BOND ACTIVE FOR ANNIHILATED PARTICLES BETWEEN LAMBDA = 1 AND LAMBDA = 1
Info: FEP BOND ACTIVE FOR EXNIHILATED PARTICLES BETWEEN LAMBDA = 0 AND LAMBDA = 0
Info: LANGEVIN DYNAMICS ACTIVE
Info: LANGEVIN TEMPERATURE   300
Info: LANGEVIN USING BBK INTEGRATOR
Info: LANGEVIN DAMPING COEFFICIENT IS 1 INVERSE PS
Info: LANGEVIN DYNAMICS APPLIED TO HYDROGENS
Info: LANGEVIN PISTON PRESSURE CONTROL ACTIVE
Info:        TARGET PRESSURE IS 1.01325 BAR
Info:     OSCILLATION PERIOD IS 50 FS
Info:             DECAY TIME IS 25 FS
Info:     PISTON TEMPERATURE IS 300 K
Info:       PRESSURE CONTROL IS GROUP-BASED
Info:    INITIAL STRAIN RATE IS 0.000369257 0.000369257 0.000369257
Info:       CELL FLUCTUATION IS ISOTROPIC
Info: PARTICLE MESH EWALD (PME) ACTIVE
Info: PME TOLERANCE               1e-06
Info: PME EWALD COEFFICIENT       0.348832
Info: PME INTERPOLATION ORDER     4
Info: PME GRID DIMENSIONS         32 32 32
Info: PME MAXIMUM GRID SPACING    1
Info: PME CALCULATION WILL BE PERFORMED ON GPU
Info: FULL ELECTROSTATIC EVALUATION FREQUENCY      2
Info: USING VERLET I (r-RESPA) MTS SCHEME.
Info: C1 SPLITTING OF LONG RANGE ELECTROSTATICS
Info: PLACING ATOMS IN PATCHES BY HYDROGEN GROUPS
Info: RIGID BONDS TO HYDROGEN : ALL
Info:         ERROR TOLERANCE : 1e-08
Info:          MAX ITERATIONS : 100
Info: RIGID WATER USING SETTLE ALGORITHM
Info: RANDOM NUMBER SEED     1743632428
Info: USE HYDROGEN BONDS?    NO
Info: Using AMBER format force field!
Info: AMBER PARM FILE        mobley_1896013.prmtop
Info: COORDINATE PDB         mobley_1896013.pdb
Info: Exclusions will be read from PARM file!
Info: SCNB (VDW SCALING)     2
Info: USING ARITHMETIC MEAN TO COMBINE L-J SIGMA PARAMETERS
Info: BINARY COORDINATES     mobley_1896013_equil.coor
Info: SUMMARY OF PARAMETERS:
Info: 8 BONDS
Info: 13 ANGLES
Info:   13 HARMONIC
Info:   0 COSINE-BASED
Info: 13 DIHEDRAL
Info: 0 IMPROPER
Info: 0 CROSSTERM
Info: 0 VDW
Info: 28 VDW_PAIRS
Info: 0 NBTHOLE_PAIRS
Info: To read alchdata from file: mobley_1896013.pdb
Info: To read alchflag data from column: 5
Info: STRUCTURE SUMMARY:
Info: 2990 ATOMS
Info: 2990 BONDS
Info: 35 ANGLES
Info: 81 DIHEDRALS
Info: 0 IMPROPERS
Info: 0 CROSSTERMS
Info: 3076 EXCLUSIONS
Info: 2980 RIGID BONDS
Info: ALCH: 0 ATOMS TO DISAPPEAR IN FINAL STATE
Info: ALCH: 20 ATOMS TO APPEAR IN FINAL STATE
Info: 5990 DEGREES OF FREEDOM
Info: 1000 HYDROGEN GROUPS
Info: 3 ATOMS IN LARGEST HYDROGEN GROUP
Info: 1000 MIGRATION GROUPS
Info: 3 ATOMS IN LARGEST MIGRATION GROUP
Info: TOTAL MASS = 17986 amu
Info: TOTAL CHARGE = -9.9957e-05 e
Info: MASS DENSITY = 0.962269 g/cm^3
Info: ATOM DENSITY = 0.0963329 atoms/A^3
Info: ADDED 0 IMPLICIT EXCLUSIONS
Info: NONBONDED TABLE R-SQUARED SPACING: 0.0625
Info: NONBONDED TABLE SIZE: 705 POINTS
Info: REDUCING NUMBER OF PATCHES TO IMPROVE LOAD BALANCE
Info: REMOVING COM VELOCITY -0.104324 -0.212177 -0.143779
Info: Use 3D box decompostion in PME FFT.
Info: Updated CUDA force table with 4096 elements.
Info: Updated CUDA LJ table with 7 x 7 elements.
Info: Found 23 unique exclusion lists needing 64 bytes
TCL: Running for 1500000 steps
ETITLE: TS BOND ANGLE DIHED IMPRP ELECT VDW BOUNDARY MISC KINETIC TOTAL TEMP POTENTIAL TOTALAVG TEMPAVG PRESSURE GPRESSURE VOLUME PRESSAVG GPRESSAVG
ENERGY: 0 2.4046 8.0875 13.8383 0.0000 -10837.3629 1446.5227 0.0000 0.0000 1753.7625 -7612.7472 294.6689 -9366.5098 -7612.7472 294.6689 -263.3388 -179.2643 31038.2148 -263.3388 -179.2643
ENERGY: 300000 2.2227 9.1461 14.1379 0.0000 -10822.0091 1461.5808 0.0000 0.0000 1803.5297 -7531.3919 303.0309 -9334.9216 -7554.5727 298.8222 100.5750 122.4563 30689.4301 27.5936 82.9084
ENERGY: 600000 4.4089 7.1238 14.1004 0.0000 -10866.7758 1487.5925 0.0000 0.0000 1784.9720 -7568.5782 299.9128 -9353.5503 -7554.7576 299.9022 442.9750 509.1975 30574.5146 206.2390 273.0101
ENERGY: 900000 3.0220 11.6197 13.4470 0.0000 -10818.9507 1431.0066 0.0000 0.0000 1782.0333 -7577.8219 299.4190 -9359.8552 -7556.5319 299.4250 -337.0579 -272.9239 30852.5684 -64.9892 3.7293
ENERGY: 1200000 2.4628 10.0324 14.3181 0.0000 -10821.4590 1495.9962 0.0000 0.0000 1765.5068 -7533.1427 296.6422 -9298.6495 -7551.5958 299.1939 470.8107 485.6874 30741.2774 9.2752 66.9483
ENERGY: 1500000 2.2547 8.8864 14.5458 0.0000 -10783.4953 1423.9794 0.0000 0.0000 1702.2806 -7631.5484 286.0189 -9333.8289 -7557.3995 297.2977 -299.1075 -281.4289 30849.5256 -16.4845 38.3984
TCL: Running FEP window   2: Lambda1 0.95   Lambda2 0.8999999999999999 [dLambda -0.050000000000000044]
TCL: Setting parameter firsttimestep to 0
TCL: Setting parameter alchLambda to 0.95
Info: NONBONDED TABLE R-SQUARED SPACING: 0.0625
Info: NONBONDED TABLE SIZE: 705 POINTS
TCL: Setting parameter alchLambda2 to 0.8999999999999999
Info: NONBONDED TABLE R-SQUARED SPACING: 0.0625
Info: NONBONDED TABLE SIZE: 705 POINTS
TCL: Running for 1500000 steps
ETITLE: TS BOND ANGLE DIHED IMPRP ELECT VDW BOUNDARY MISC KINETIC TOTAL TEMP POTENTIAL TOTALAVG TEMPAVG PRESSURE GPRESSURE VOLUME PRESSAVG GPRESSAVG
ENERGY: 0 2.2547 8.8864 14.5458 0.0000 -10776.7038 1419.9514 0.0000 0.0000 1701.3992 -7629.6663 285.8708 -9331.0655 -7629.6663 285.8708 -411.2225 -324.5065 30849.5256 -411.2225 -324.5065
ENERGY: 300000 4.0140 14.3925 14.3154 0.0000 -10785.2120 1417.6819 0.0000 0.0000 1801.0087 -7533.7996 302.6073 -9334.8083 -7582.1251 298.0286 -430.8739 -320.0287 30565.9087 -199.9609 -140.0700
ENERGY: 600000 2.5848 9.2637 13.4911 0.0000 -10603.0349 1278.4937 0.0000 0.0000 1761.9512 -7537.2505 296.0448 -9299.2017 -7567.4424 298.7035 -1539.7000 -1447.8566 31350.5872 -397.3889 -340.8260
ENERGY: 900000 2.7886 14.5663 12.6132 0.0000 -10807.3623 1460.9636 0.0000 0.0000 1831.7870 -7484.6436 307.7787 -9316.4306 -7553.0735 300.2732 214.7905 255.0807 30584.8964 -371.9901 -314.6941
ENERGY: 1200000 2.7920 9.6686 14.6961 0.0000 -10605.6360 1383.3329 0.0000 0.0000 1759.4060 -7435.7404 295.6172 -9195.1464 -7539.6106 299.7823 -447.2566 -370.0345 31630.5903 -262.5458 -208.6625
ENERGY: 1500000 1.7183 12.0015 13.1642 0.0000 -10751.1124 1432.5119 0.0000 0.0000 1817.7227 -7473.9938 305.4156 -9291.7166 -7536.0300 299.5279 49.2097 150.3134 30581.7764 -216.6855 -157.9600
TCL: Running FEP window   3: Lambda1 0.8999999999999999 Lambda2 0.8499999999999999 [dLambda -0.050000000000000044]
TCL: Setting parameter firsttimestep to 0
TCL: Setting parameter alchLambda to 0.8999999999999999
Info: NONBONDED TABLE R-SQUARED SPACING: 0.0625
Info: NONBONDED TABLE SIZE: 705 POINTS
TCL: Setting parameter alchLambda2 to 0.8499999999999999
Info: NONBONDED TABLE R-SQUARED SPACING: 0.0625
Info: NONBONDED TABLE SIZE: 705 POINTS
TCL: Running for 1500000 steps
ETITLE: TS BOND ANGLE DIHED IMPRP ELECT VDW BOUNDARY MISC KINETIC TOTAL TEMP POTENTIAL TOTALAVG TEMPAVG PRESSURE GPRESSURE VOLUME PRESSAVG GPRESSAVG
ENERGY: 0 1.7183 12.0015 13.1642 0.0000 -10747.3094 1430.5298 0.0000 0.0000 1816.8058 -7473.0898 305.2615 -9289.8956 -7473.0898 305.2615 32.4000 123.3111 30581.7764 32.4000 123.3111
ENERGY: 300000 5.5877 11.4035 13.8350 0.0000 -10866.3797 1488.5736 0.0000 0.0000 1812.4103 -7534.5697 304.5230 -9346.9799 -7507.1630 303.6359 186.8379 281.6841 30811.2526 368.7877 437.4469
ENERGY: 600000 2.4720 7.3614 12.8261 0.0000 -10813.7977 1420.7492 0.0000 0.0000 1762.6511 -7607.7379 296.1624 -9370.3890 -7520.6762 303.2072 -475.5461 -424.3126 30571.9321 149.1276 215.7383
ENERGY: 900000 3.6819 6.6369 14.1072 0.0000 -10870.0894 1488.2078 0.0000 0.0000 1778.4258 -7579.0298 298.8129 -9357.4556 -7526.2859 303.0092 70.3261 80.9934 31393.3945 99.5913 157.8301
ENERGY: 1200000 1.2817 11.5156 14.6002 0.0000 -10737.6043 1418.5001 0.0000 0.0000 1744.3165 -7547.3903 293.0818 -9291.7068 -7520.3454 302.6887 -135.4511 -102.4933 30775.4863 49.5960 114.2848
ENERGY: 1500000 1.5771 8.9294 13.5963 0.0000 -10839.0235 1511.9447 0.0000 0.0000 1844.6396 -7458.3364 309.9382 -9302.9760 -7525.7386 302.0366 296.1919 399.3339 31220.2143 16.8986 82.6214
TCL: Running FEP window   4: Lambda1 0.8499999999999999 Lambda2 0.7999999999999998 [dLambda -0.050000000000000044]
TCL: Setting parameter firsttimestep to 0
TCL: Setting parameter alchLambda to 0.8499999999999999
Info: NONBONDED TABLE R-SQUARED SPACING: 0.0625
Info: NONBONDED TABLE SIZE: 705 POINTS
TCL: Setting parameter alchLambda2 to 0.7999999999999998
Info: NONBONDED TABLE R-SQUARED SPACING: 0.0625
Info: NONBONDED TABLE SIZE: 705 POINTS
TCL: Running for 1500000 steps
ETITLE: TS BOND ANGLE DIHED IMPRP ELECT VDW BOUNDARY MISC KINETIC TOTAL TEMP POTENTIAL TOTALAVG TEMPAVG PRESSURE GPRESSURE VOLUME PRESSAVG GPRESSAVG
ENERGY: 0 1.5771 8.9294 13.5963 0.0000 -10835.5446 1510.2717 0.0000 0.0000 1843.7432 -7457.4269 309.7876 -9301.1701 -7457.4269 309.7876 296.7361 377.3278 31220.2143 296.7361 377.3278
ENERGY: 300000 4.2470 8.2731 12.8121 0.0000 -10804.0769 1448.2863 0.0000 0.0000 1840.3166 -7490.1418 309.2118 -9330.4585 -7527.6956 303.3331 57.3345 111.5627 30784.7268 36.0580 114.3393
ENERGY: 600000 3.5057 8.4492 12.7180 0.0000 -10847.0916 1526.4678 0.0000 0.0000 1853.9293 -7442.0216 311.4991 -9295.9509 -7515.8362 303.0311 731.9764 859.4922 30557.9950 160.2098 261.3626
ENERGY: 900000 3.5714 8.1213 13.3976 0.0000 -10735.8951 1382.7647 0.0000 0.0000 1775.7744 -7552.2655 298.3674 -9328.0399 -7522.3806 302.4820 -757.8534 -696.9595 31028.7646 89.7095 182.3381
ENERGY: 1200000 2.3959 7.5645 12.8526 0.0000 -10844.1304 1477.0658 0.0000 0.0000 1755.6423 -7588.6093 294.9848 -9344.2516 -7536.8320 301.3827 194.4967 249.9199 30399.9455 -21.7448 65.9496
ENERGY: 1500000 1.9475 13.9553 14.2463 0.0000 -10761.7159 1403.2633 0.0000 0.0000 1714.4230 -7613.8806 288.0591 -9328.3036 -7536.6220 300.9835 -507.1084 -464.1000 30993.2044 27.8479 107.3158
TCL: Running FEP window   5: Lambda1 0.7999999999999998 Lambda2 0.7499999999999998 [dLambda -0.050000000000000044]
TCL: Setting parameter firsttimestep to 0
TCL: Setting parameter alchLambda to 0.7999999999999998
Info: NONBONDED TABLE R-SQUARED SPACING: 0.0625
Info: NONBONDED TABLE SIZE: 705 POINTS
TCL: Setting parameter alchLambda2 to 0.7499999999999998
Info: NONBONDED TABLE R-SQUARED SPACING: 0.0625
Info: NONBONDED TABLE SIZE: 705 POINTS
TCL: Running for 1500000 steps
ETITLE: TS BOND ANGLE DIHED IMPRP ELECT VDW BOUNDARY MISC KINETIC TOTAL TEMP POTENTIAL TOTALAVG TEMPAVG PRESSURE GPRESSURE VOLUME PRESSAVG GPRESSAVG
ENERGY: 0 1.9475 13.9553 14.2463 0.0000 -10758.5865 1401.8734 0.0000 0.0000 1713.5178 -7613.0462 287.9070 -9326.5640 -7613.0462 287.9070 -584.2861 -489.8263 30993.2044 -584.2861 -489.8263
ENERGY: 300000 3.0105 8.0662 12.8264 0.0000 -10847.8280 1540.4625 0.0000 0.0000 1843.6361 -7439.8264 309.7696 -9283.4625 -7532.5203 300.8470 634.1910 677.5203 30999.2247 48.2614 79.1911
ENERGY: 600000 2.0761 7.6807 13.1008 0.0000 -10730.9327 1450.1064 0.0000 0.0000 1755.8155 -7502.1532 295.0139 -9257.9687 -7531.1923 302.0319 -9.3239 93.8622 31081.9921 -42.7150 -0.2713
ENERGY: 900000 3.1217 7.1335 12.5313 0.0000 -10993.8301 1556.0846 0.0000 0.0000 1804.5768 -7610.3823 303.2068 -9414.9591 -7532.1324 302.7369 904.5644 965.4349 29823.9337 3.0463 42.4999
ENERGY: 1200000 2.8129 10.5585 13.9809 0.0000 -10853.6956 1488.9295 0.0000 0.0000 1832.9289 -7504.4849 307.9706 -9337.4138 -7542.7936 302.2815 641.5844 623.2498 30202.3675 116.8336 163.4685
ENERGY: 1500000 4.0683 9.9904 12.2051 0.0000 -10839.0609 1446.6715 0.0000 0.0000 1798.8136 -7567.3120 302.2385 -9366.1257 -7555.0186 301.7195 -183.6930 -149.7774 31121.3459 96.8213 149.1854
TCL: Running FEP window   6: Lambda1 0.7499999999999998 Lambda2 0.6999999999999997 [dLambda -0.050000000000000044]
TCL: Setting parameter firsttimestep to 0
TCL: Setting parameter alchLambda to 0.7499999999999998
Info: NONBONDED TABLE R-SQUARED SPACING: 0.0625
Info: NONBONDED TABLE SIZE: 705 POINTS
TCL: Setting parameter alchLambda2 to 0.6999999999999997
Info: NONBONDED TABLE R-SQUARED SPACING: 0.0625
Info: NONBONDED TABLE SIZE: 705 POINTS
TCL: Running for 1500000 steps
ETITLE: TS BOND ANGLE DIHED IMPRP ELECT VDW BOUNDARY MISC KINETIC TOTAL TEMP POTENTIAL TOTALAVG TEMPAVG PRESSURE GPRESSURE VOLUME PRESSAVG GPRESSAVG
ENERGY: 0 4.0683 9.9904 12.2051 0.0000 -10835.7432 1445.8272 0.0000 0.0000 1797.8859 -7565.7664 302.0826 -9363.6523 -7565.7664 302.0826 -248.1170 -160.8486 31121.3459 -248.1170 -160.8486
ENERGY: 300000 4.7984 10.9328 14.0980 0.0000 -10848.0346 1500.6701 0.0000 0.0000 1824.6117 -7492.9237 306.5731 -9317.5353 -7539.9666 301.4080 453.8149 484.7206 30671.1014 172.3811 241.7067
ENERGY: 600000 7.1624 9.8386 15.4683 0.0000 -10856.1931 1498.7262 0.0000 0.0000 1830.5672 -7494.4304 307.5737 -9324.9976 -7548.3064 302.4569 505.2453 619.9149 30579.4630 244.1418 315.9781
ENERGY: 900000 2.6504 10.0220 12.3392 0.0000 -10863.5063 1500.3017 0.0000 0.0000 1822.6883 -7515.5047 306.2499 -9338.1930 -7538.7175 302.1704 386.4972 411.9934 30668.2342 255.9263 318.2755
ENERGY: 1200000 4.0673 9.3482 13.3474 0.0000 -10802.3587 1454.4688 0.0000 0.0000 1741.3145 -7579.8124 292.5774 -9321.1269 -7537.7884 301.4393 -26.4175 64.7105 30721.2263 86.4509 149.0932
ENERGY: 1500000 2.7888 12.9515 14.6960 0.0000 -10753.0380 1449.5437 0.0000 0.0000 1743.1331 -7529.9249 292.8830 -9273.0580 -7543.7067 300.7245 17.7255 68.7004 30945.5145 102.8431 169.3106
TCL: Running FEP window   7: Lambda1 0.6999999999999997 Lambda2 0.6499999999999997 [dLambda -0.050000000000000044]
TCL: Setting parameter firsttimestep to 0
TCL: Setting parameter alchLambda to 0.6999999999999997
Info: NONBONDED TABLE R-SQUARED SPACING: 0.0625
Info: NONBONDED TABLE SIZE: 705 POINTS
TCL: Setting parameter alchLambda2 to 0.6499999999999997
Info: NONBONDED TABLE R-SQUARED SPACING: 0.0625
Info: NONBONDED TABLE SIZE: 705 POINTS
TCL: Running for 1500000 steps
ETITLE: TS BOND ANGLE DIHED IMPRP ELECT VDW BOUNDARY MISC KINETIC TOTAL TEMP POTENTIAL TOTALAVG TEMPAVG PRESSURE GPRESSURE VOLUME PRESSAVG GPRESSAVG
ENERGY: 0 2.7888 12.9515 14.6960 0.0000 -10749.6402 1449.0488 0.0000 0.0000 1742.2398 -7527.9153 292.7329 -9270.1551 -7527.9153 292.7329 -21.0847 63.4497 30945.5145 -21.0847 63.4497
ENERGY: 300000 1.1234 8.4059 14.0446 0.0000 -10820.9157 1452.0855 0.0000 0.0000 1805.8261 -7539.4302 303.4167 -9345.2563 -7528.1927 301.8045 -64.7911 -23.2014 30711.0382 218.0600 281.6290
ENERGY: 600000 3.3439 11.0802 13.1627 0.0000 -10769.7724 1406.4155 0.0000 0.0000 1813.5261 -7522.2440 304.7105 -9335.7700 -7533.5791 301.2348 -241.0243 -251.7491 30633.7773 -52.7268 28.8974
ENERGY: 900000 1.6119 9.6006 13.7625 0.0000 -10878.9562 1473.1784 0.0000 0.0000 1749.6607 -7631.1421 293.9797 -9380.8028 -7563.9075 297.8299 0.8930 74.6550 30544.6150 24.5816 92.4342
ENERGY: 1200000 3.0566 8.4777 14.5741 0.0000 -10899.5589 1517.2225 0.0000 0.0000 1731.5799 -7624.6480 290.9418 -9356.2279 -7556.3976 298.0026 392.4899 423.7185 30532.3119 -27.0816 39.8048
ENERGY: 1500000 4.7290 13.9115 14.0277 0.0000 -10954.4423 1550.3867 0.0000 0.0000 1749.4119 -7621.9755 293.9379 -9371.3874 -7555.0816 297.8249 517.4680 609.4785 30683.6253 23.4620 91.5708
TCL: Running FEP window   8: Lambda1 0.6499999999999997 Lambda2 0.5999999999999996 [dLambda -0.050000000000000044]
TCL: Setting parameter firsttimestep to 0
TCL: Setting parameter alchLambda to 0.6499999999999997
Info: NONBONDED TABLE R-SQUARED SPACING: 0.0625
Info: NONBONDED TABLE SIZE: 705 POINTS
TCL: Setting parameter alchLambda2 to 0.5999999999999996
Info: NONBONDED TABLE R-SQUARED SPACING: 0.0625
Info: NONBONDED TABLE SIZE: 705 POINTS
TCL: Running for 1500000 steps
ETITLE: TS BOND ANGLE DIHED IMPRP ELECT VDW BOUNDARY MISC KINETIC TOTAL TEMP POTENTIAL TOTALAVG TEMPAVG PRESSURE GPRESSURE VOLUME PRESSAVG GPRESSAVG
ENERGY: 0 4.7290 13.9115 14.0277 0.0000 -10951.5992 1549.9135 0.0000 0.0000 1748.4885 -7620.5290 293.7828 -9369.0176 -7620.5290 293.7828 517.5310 606.6111 30683.6253 517.5310 606.6111
ENERGY: 300000 4.4380 7.5704 13.0389 0.0000 -10833.6090 1524.8789 0.0000 0.0000 1821.0146 -7462.6682 305.9687 -9283.6828 -7531.1926 299.4115 829.0102 877.3463 30146.2479 78.5393 151.5328
ENERGY: 600000 3.2008 8.9610 13.3764 0.0000 -10809.2941 1472.8115 0.0000 0.0000 1736.7337 -7574.2106 291.8077 -9310.9443 -7546.3053 297.4676 114.8775 180.6886 30669.6332 77.0641 141.0181
ENERGY: 900000 5.5433 8.5981 13.4351 0.0000 -10800.6023 1437.6554 0.0000 0.0000 1778.0268 -7557.3436 298.7458 -9335.3704 -7539.0885 299.0552 -67.6088 -63.3645 31097.6728 60.8943 110.9612
ENERGY: 1200000 3.6611 13.8382 14.6105 0.0000 -10825.4000 1465.2129 0.0000 0.0000 1773.7875 -7554.2897 298.0335 -9328.0772 -7535.2559 299.1692 -28.1710 72.6531 30458.0442 34.0678 90.5994
ENERGY: 1500000 5.4205 8.7946 13.6415 0.0000 -10854.0870 1466.6711 0.0000 0.0000 1786.9425 -7572.6169 300.2439 -9359.5594 -7531.6511 299.7621 184.1837 229.8028 29846.5997 21.9926 79.7551
TCL: Running FEP window   9: Lambda1 0.5999999999999996 Lambda2 0.5499999999999996 [dLambda -0.050000000000000044]
TCL: Setting parameter firsttimestep to 0
TCL: Setting parameter alchLambda to 0.5999999999999996
Info: NONBONDED TABLE R-SQUARED SPACING: 0.0625
Info: NONBONDED TABLE SIZE: 705 POINTS
TCL: Setting parameter alchLambda2 to 0.5499999999999996
Info: NONBONDED TABLE R-SQUARED SPACING: 0.0625
Info: NONBONDED TABLE SIZE: 705 POINTS
TCL: Running for 1500000 steps
ETITLE: TS BOND ANGLE DIHED IMPRP ELECT VDW BOUNDARY MISC KINETIC TOTAL TEMP POTENTIAL TOTALAVG TEMPAVG PRESSURE GPRESSURE VOLUME PRESSAVG GPRESSAVG
ENERGY: 0 5.4205 8.7946 13.6415 0.0000 -10851.8137 1466.3962 0.0000 0.0000 1786.0538 -7571.5072 300.0945 -9357.5610 -7571.5072 300.0945 157.1958 228.3931 29846.5997 157.1958 228.3931
ENERGY: 300000 2.8314 8.5289 14.8655 0.0000 -10731.3958 1450.2619 0.0000 0.0000 1817.3948 -7437.5133 305.3605 -9254.9081 -7487.4818 302.0531 141.3759 240.8077 30914.9637 -6.1481 47.6032
ENERGY: 600000 1.9293 7.8649 14.8640 0.0000 -10749.9545 1453.2797 0.0000 0.0000 1760.0939 -7511.9226 295.7327 -9272.0165 -7509.6521 298.7621 207.6860 263.3790 30669.8076 68.1107 127.4277
ENERGY: 900000 2.0664 7.6085 15.4263 0.0000 -10885.7759 1467.1516 0.0000 0.0000 1789.6421 -7603.8810 300.6974 -9393.5231 -7526.1669 299.4218 2.0763 -24.0639 30527.8458 -47.1919 3.6413
ENERGY: 1200000 4.5019 6.9929 14.1302 0.0000 -10471.1856 1232.8855 0.0000 0.0000 1802.8046 -7409.8705 302.9090 -9212.6750 -7516.0770 300.7547 -1540.6909 -1483.9010 31075.6309 -94.9247 -48.9239
ENERGY: 1500000 2.4982 5.5050 14.3294 0.0000 -10717.3852 1394.7939 0.0000 0.0000 1762.5172 -7537.7415 296.1399 -9300.2587 -7519.1530 300.1001 -249.1244 -200.0508 30439.9349 -139.0075 -101.2506
TCL: Running FEP window  10: Lambda1 0.5499999999999996 Lambda2 0.4999999999999996 [dLambda -0.04999999999999999]
TCL: Setting parameter firsttimestep to 0
TCL: Setting parameter alchLambda to 0.5499999999999996
Info: NONBONDED TABLE R-SQUARED SPACING: 0.0625
Info: NONBONDED TABLE SIZE: 705 POINTS
TCL: Setting parameter alchLambda2 to 0.4999999999999996
Info: NONBONDED TABLE R-SQUARED SPACING: 0.0625
Info: NONBONDED TABLE SIZE: 705 POINTS
TCL: Running for 1500000 steps
ETITLE: TS BOND ANGLE DIHED IMPRP ELECT VDW BOUNDARY MISC KINETIC TOTAL TEMP POTENTIAL TOTALAVG TEMPAVG PRESSURE GPRESSURE VOLUME PRESSAVG GPRESSAVG
ENERGY: 0 2.4982 5.5050 14.3294 0.0000 -10715.6855 1395.0628 0.0000 0.0000 1761.6304 -7536.6597 295.9909 -9298.2902 -7536.6597 295.9909 -271.5769 -201.5022 30439.9349 -271.5769 -201.5022
ENERGY: 300000 2.9151 12.4104 14.4010 0.0000 -10823.9593 1498.3982 0.0000 0.0000 1796.3720 -7499.4626 301.8282 -9295.8346 -7523.0688 297.0375 280.2809 346.2330 30674.1049 25.7127 87.0859
ENERGY: 600000 3.7871 9.5690 14.5932 0.0000 -10680.2131 1427.8743 0.0000 0.0000 1800.0658 -7424.3237 302.4488 -9224.3895 -7500.6677 301.0513 -147.9321 -99.3188 31227.5740 -38.4594 21.1039
ENERGY: 900000 3.8103 8.7482 14.1197 0.0000 -10676.9976 1346.9468 0.0000 0.0000 1841.7176 -7461.6550 309.4472 -9303.3725 -7500.8754 302.4739 -810.7644 -768.6313 31036.7626 -19.3963 36.3450
ENERGY: 1200000 2.3249 11.7118 13.9336 0.0000 -10774.4754 1416.9022 0.0000 0.0000 1798.7358 -7530.8670 302.2254 -9329.6028 -7508.7167 302.5963 -478.5522 -397.9097 30743.9033 -36.2184 24.2203
ENERGY: 1500000 1.2609 6.2962 13.4992 0.0000 -10841.3783 1461.9730 0.0000 0.0000 1712.5502 -7645.7988 287.7444 -9358.3489 -7514.3817 301.9222 93.5987 132.4886 30412.6582 -8.4927 52.8334
TCL: Running FEP window  11: Lambda1 0.4999999999999996 Lambda2 0.4499999999999996 [dLambda -0.04999999999999999]
TCL: Setting parameter firsttimestep to 0
TCL: Setting parameter alchLambda to 0.4999999999999996
Info: NONBONDED TABLE R-SQUARED SPACING: 0.0625
Info: NONBONDED TABLE SIZE: 705 POINTS
TCL: Setting parameter alchLambda2 to 0.4499999999999996
Info: NONBONDED TABLE R-SQUARED SPACING: 0.0625
Info: NONBONDED TABLE SIZE: 705 POINTS
TCL: Running for 1500000 steps
ETITLE: TS BOND ANGLE DIHED IMPRP ELECT VDW BOUNDARY MISC KINETIC TOTAL TEMP POTENTIAL TOTALAVG TEMPAVG PRESSURE GPRESSURE VOLUME PRESSAVG GPRESSAVG
ENERGY: 0 1.2609 6.2962 13.4992 0.0000 -10841.0107 1462.4382 0.0000 0.0000 1711.7233 -7645.7929 287.6055 -9357.5162 -7645.7929 287.6055 40.6511 129.3446 30412.6582 40.6511 129.3446
ENERGY: 300000 3.8352 9.1307 13.7539 0.0000 -10552.4619 1291.2883 0.0000 0.0000 1837.2647 -7397.1891 308.6991 -9234.4538 -7505.7288 299.6169 -1018.1864 -961.9176 30776.4806 -355.7196 -286.9954
ENERGY: 600000 5.8712 8.7900 13.2582 0.0000 -10901.0417 1530.2211 0.0000 0.0000 1772.2569 -7570.6443 297.7764 -9342.9011 -7523.7383 299.2130 582.9093 685.7922 30252.6306 -32.4360 47.5820
ENERGY: 900000 2.6240 12.1335 16.6703 0.0000 -10981.7996 1525.7988 0.0000 0.0000 1794.0245 -7630.5485 301.4338 -9424.5730 -7548.5470 299.1210 179.5619 292.6955 30854.7902 24.8387 104.4042
ENERGY: 1200000 4.1597 12.1193 14.7148 0.0000 -10811.6039 1445.5695 0.0000 0.0000 1735.0076 -7600.0329 291.5177 -9335.0405 -7549.7769 298.9011 -381.9519 -282.8629 30909.6717 -50.8965 26.9476
ENERGY: 1500000 2.7490 9.9209 14.2331 0.0000 -11000.7211 1585.0389 0.0000 0.0000 1790.7872 -7597.9920 300.8899 -9388.7792 -7554.1032 299.1048 996.3708 1043.8723 30293.5979 56.6953 129.9555
TCL: Running FEP window  12: Lambda1 0.4499999999999996 Lambda2 0.39999999999999963 [dLambda -0.04999999999999999]
TCL: Setting parameter firsttimestep to 0
TCL: Setting parameter alchLambda to 0.4499999999999996
Info: NONBONDED TABLE R-SQUARED SPACING: 0.0625
Info: NONBONDED TABLE SIZE: 705 POINTS
TCL: Setting parameter alchLambda2 to 0.39999999999999963
Info: NONBONDED TABLE R-SQUARED SPACING: 0.0625
Info: NONBONDED TABLE SIZE: 705 POINTS
TCL: Running for 1500000 steps
ETITLE: TS BOND ANGLE DIHED IMPRP ELECT VDW BOUNDARY MISC KINETIC TOTAL TEMP POTENTIAL TOTALAVG TEMPAVG PRESSURE GPRESSURE VOLUME PRESSAVG GPRESSAVG
ENERGY: 0 2.7490 9.9209 14.2331 0.0000 -11000.7209 1585.3333 0.0000 0.0000 1789.8843 -7598.6003 300.7381 -9388.4846 -7598.6003 300.7381 955.6968 1037.4278 30293.5979 955.6968 1037.4278
ENERGY: 300000 4.1243 13.2825 14.5885 0.0000 -10605.0464 1339.5129 0.0000 0.0000 1765.8091 -7467.7291 296.6930 -9233.5382 -7518.9022 300.0458 -859.3996 -843.9088 31209.5182 16.4282 70.5495
ENERGY: 600000 4.2316 7.4476 15.1778 0.0000 -10930.6739 1525.9877 0.0000 0.0000 1819.4459 -7558.3832 305.7051 -9377.8292 -7536.5380 301.1597 248.6297 348.9042 30559.7252 119.4239 178.8715
ENERGY: 900000 1.6049 13.6500 14.9441 0.0000 -10746.9654 1451.0903 0.0000 0.0000 1765.8478 -7499.8282 296.6995 -9265.6760 -7524.2351 299.4371 81.5399 115.1917 30561.8518 23.0366 74.2470
ENERGY: 1200000 2.4029 8.8026 14.0135 0.0000 -10716.7920 1401.9629 0.0000 0.0000 1790.4824 -7499.1277 300.8386 -9289.6101 -7516.9067 299.5731 -708.2822 -615.8570 30925.9486 -76.8617 -17.9822
ENERGY: 1500000 3.7261 10.6864 14.5288 0.0000 -10723.4012 1407.0964 0.0000 0.0000 1750.1413 -7537.2223 294.0605 -9287.3636 -7522.8670 299.1509 -386.3935 -355.3756 30694.6652 -97.4599 -48.1297
TCL: Running FEP window  13: Lambda1 0.39999999999999963 Lambda2 0.34999999999999964 [dLambda -0.04999999999999999]
TCL: Setting parameter firsttimestep to 0
TCL: Setting parameter alchLambda to 0.39999999999999963
Info: NONBONDED TABLE R-SQUARED SPACING: 0.0625
Info: NONBONDED TABLE SIZE: 705 POINTS
TCL: Setting parameter alchLambda2 to 0.34999999999999964
Info: NONBONDED TABLE R-SQUARED SPACING: 0.0625
Info: NONBONDED TABLE SIZE: 705 POINTS
TCL: Running for 1500000 steps
ETITLE: TS BOND ANGLE DIHED IMPRP ELECT VDW BOUNDARY MISC KINETIC TOTAL TEMP POTENTIAL TOTALAVG TEMPAVG PRESSURE GPRESSURE VOLUME PRESSAVG GPRESSAVG
ENERGY: 0 3.7261 10.6864 14.5288 0.0000 -10723.4022 1407.7510 0.0000 0.0000 1749.2299 -7537.4800 293.9074 -9286.7099 -7537.4800 293.9074 -447.6137 -356.0288 30694.6652 -447.6137 -356.0288
ENERGY: 300000 1.4899 11.1851 13.0046 0.0000 -10774.0179 1387.0072 0.0000 0.0000 1771.3121 -7590.0190 297.6176 -9361.3311 -7596.0791 297.7944 -501.9229 -502.6883 30820.9817 -142.1006 -111.2712
ENERGY: 600000 1.6331 11.0211 16.1053 0.0000 -10743.2769 1416.4211 0.0000 0.0000 1769.5466 -7528.5496 297.3210 -9298.0962 -7561.0652 298.3154 -224.5019 -159.4707 30477.3362 -114.8577 -78.7252
ENERGY: 900000 5.1987 7.8411 13.5578 0.0000 -10710.6267 1356.9511 0.0000 0.0000 1810.4883 -7516.5897 304.2000 -9327.0779 -7554.7286 298.8375 -910.6069 -917.8149 31094.9540 -81.8622 -55.2394
ENERGY: 1200000 2.2814 10.6597 15.0132 0.0000 -10944.2647 1506.1857 0.0000 0.0000 1775.9848 -7634.1399 298.4027 -9410.1248 -7558.5425 298.3365 66.6772 191.7688 30593.8918 -18.6866 17.1433
ENERGY: 1500000 2.8025 6.4776 15.4271 0.0000 -10865.1811 1570.4408 0.0000 0.0000 1807.2666 -7462.7665 303.6587 -9270.0331 -7552.3044 298.8903 1142.2584 1199.4272 30375.8599 142.3434 181.5629
TCL: Running FEP window  14: Lambda1 0.34999999999999964 Lambda2 0.29999999999999966 [dLambda -0.04999999999999999]
TCL: Setting parameter firsttimestep to 0
TCL: Setting parameter alchLambda to 0.34999999999999964
Info: NONBONDED TABLE R-SQUARED SPACING: 0.0625
Info: NONBONDED TABLE SIZE: 705 POINTS
TCL: Setting parameter alchLambda2 to 0.29999999999999966
Info: NONBONDED TABLE R-SQUARED SPACING: 0.0625
Info: NONBONDED TABLE SIZE: 705 POINTS
TCL: Running for 1500000 steps
ETITLE: TS BOND ANGLE DIHED IMPRP ELECT VDW BOUNDARY MISC KINETIC TOTAL TEMP POTENTIAL TOTALAVG TEMPAVG PRESSURE GPRESSURE VOLUME PRESSAVG GPRESSAVG
ENERGY: 0 2.8025 6.4777 15.4271 0.0000 -10865.1812 1570.5628 0.0000 0.0000 1806.3903 -7463.5209 303.5115 -9269.9112 -7463.5209 303.5115 1108.4761 1192.1967 30375.8599 1108.4761 1192.1967
ENERGY: 300000 3.0480 17.6823 16.8159 0.0000 -10905.0992 1539.2274 0.0000 0.0000 1808.4389 -7519.8867 303.8557 -9328.3257 -7550.2357 299.2694 721.0434 828.8286 30275.6739 478.3096 555.8865
ENERGY: 600000 7.2944 8.0472 16.4024 0.0000 -10803.2850 1478.0653 0.0000 0.0000 1782.5641 -7510.9117 299.5082 -9293.4757 -7549.4940 298.0024 -89.2039 -65.3188 30914.7220 202.6326 276.5273
ENERGY: 900000 5.1716 12.2618 14.6590 0.0000 -10816.4407 1465.7274 0.0000 0.0000 1843.3937 -7475.2271 309.7288 -9318.6208 -7532.4244 299.6490 -19.3311 -10.5478 30772.4859 62.8308 131.5623
ENERGY: 1200000 2.3353 8.3026 13.7965 0.0000 -10839.4849 1493.5738 0.0000 0.0000 1799.8013 -7521.6755 302.4044 -9321.4767 -7539.7913 298.7189 70.1702 128.5145 30907.8368 14.9013 82.1810
ENERGY: 1500000 1.5136 11.6753 14.7552 0.0000 -10843.9711 1470.6296 0.0000 0.0000 1740.9330 -7604.4644 292.5133 -9345.3974 -7538.4409 298.9892 -45.0384 102.2772 30568.0355 -24.7792 42.3231
TCL: Running FEP window  15: Lambda1 0.29999999999999966 Lambda2 0.24999999999999967 [dLambda -0.04999999999999999]
TCL: Setting parameter firsttimestep to 0
TCL: Setting parameter alchLambda to 0.29999999999999966
Info: NONBONDED TABLE R-SQUARED SPACING: 0.0625
Info: NONBONDED TABLE SIZE: 705 POINTS
TCL: Setting parameter alchLambda2 to 0.24999999999999967
Info: NONBONDED TABLE R-SQUARED SPACING: 0.0625
Info: NONBONDED TABLE SIZE: 705 POINTS
TCL: Running for 1500000 steps
ETITLE: TS BOND ANGLE DIHED IMPRP ELECT VDW BOUNDARY MISC KINETIC TOTAL TEMP POTENTIAL TOTALAVG TEMPAVG PRESSURE GPRESSURE VOLUME PRESSAVG GPRESSAVG
ENERGY: 0 1.5136 11.6753 14.7552 0.0000 -10843.9717 1471.2124 0.0000 0.0000 1740.0749 -7604.7402 292.3691 -9344.8151 -7604.7402 292.3691 11.7028 97.2210 30568.0355 11.7028 97.2210
ENERGY: 300000 1.8178 12.6050 15.1948 0.0000 -10773.9810 1425.8415 0.0000 0.0000 1846.5129 -7472.0089 310.2529 -9318.5219 -7536.7815 300.3382 -96.0502 -12.0611 30375.1017 -41.8350 8.6787
ENERGY: 600000 2.9969 9.3795 14.8988 0.0000 -10884.8771 1612.2610 0.0000 0.0000 1799.0206 -7446.3201 302.2732 -9245.3407 -7510.2296 302.0985 1169.4245 1285.2133 30975.4485 97.6821 156.3399
ENERGY: 900000 2.8648 10.7080 14.2022 0.0000 -10700.0169 1364.1314 0.0000 0.0000 1702.6033 -7605.5072 286.0731 -9308.1105 -7503.7978 301.2683 -742.3382 -676.7853 30763.4171 41.8248 89.0555
ENERGY: 1200000 3.4024 20.7668 15.3034 0.0000 -10832.8573 1460.0123 0.0000 0.0000 1815.9754 -7517.3971 305.1220 -9333.3725 -7511.8262 301.0124 -70.1064 11.9557 30648.3923 -5.0059 51.9894
ENERGY: 1500000 4.0446 7.8689 15.2867 0.0000 -10832.7717 1507.2674 0.0000 0.0000 1797.9766 -7500.3275 302.0978 -9298.3041 -7520.4879 301.5209 495.8906 494.0190 30456.0021 -3.3058 47.3817
TCL: Running FEP window  16: Lambda1 0.24999999999999967 Lambda2 0.19999999999999968 [dLambda -0.04999999999999999]
TCL: Setting parameter firsttimestep to 0
TCL: Setting parameter alchLambda to 0.24999999999999967
Info: NONBONDED TABLE R-SQUARED SPACING: 0.0625
Info: NONBONDED TABLE SIZE: 705 POINTS
TCL: Setting parameter alchLambda2 to 0.19999999999999968
Info: NONBONDED TABLE R-SQUARED SPACING: 0.0625
Info: NONBONDED TABLE SIZE: 705 POINTS
TCL: Running for 1500000 steps
ETITLE: TS BOND ANGLE DIHED IMPRP ELECT VDW BOUNDARY MISC KINETIC TOTAL TEMP POTENTIAL TOTALAVG TEMPAVG PRESSURE GPRESSURE VOLUME PRESSAVG GPRESSAVG
ENERGY: 0 4.0446 7.8689 15.2867 0.0000 -10832.7719 1507.5313 0.0000 0.0000 1797.0925 -7500.9480 301.9493 -9298.0405 -7500.9480 301.9493 416.1816 488.6749 30456.0021 416.1816 488.6749
ENERGY: 300000 3.4690 7.8191 15.5178 0.0000 -10560.2601 1324.7853 0.0000 0.0000 1754.3296 -7454.3394 294.7642 -9208.6689 -7480.6759 301.3207 -789.0693 -735.6021 30831.2911 -78.5084 -6.3370
ENERGY: 600000 2.6697 12.2302 15.9988 0.0000 -10653.0939 1380.3766 0.0000 0.0000 1826.6860 -7415.1326 306.9216 -9241.8186 -7500.6582 300.5071 -454.9534 -440.2070 30857.9178 38.5678 97.7648
ENERGY: 900000 3.0017 10.5628 14.8617 0.0000 -10724.2600 1433.9729 0.0000 0.0000 1781.4654 -7480.3955 299.3236 -9261.8609 -7501.2541 300.9248 -6.6718 12.2316 30762.8479 -28.7420 23.7169
ENERGY: 1200000 1.5063 11.8173 15.7368 0.0000 -10677.8869 1353.0073 0.0000 0.0000 1826.1628 -7469.6563 306.8337 -9295.8191 -7504.2373 301.3831 -848.4718 -781.9802 30991.4999 -31.6903 22.9742
ENERGY: 1500000 8.3454 10.4156 14.6061 0.0000 -10704.7314 1397.3218 0.0000 0.0000 1767.4696 -7506.5729 296.9720 -9274.0425 -7498.9733 300.8054 -654.4147 -605.6183 30793.7347 -88.9675 -39.6462
TCL: Running FEP window  17: Lambda1 0.19999999999999968 Lambda2 0.1499999999999997 [dLambda -0.04999999999999999]
TCL: Setting parameter firsttimestep to 0
TCL: Setting parameter alchLambda to 0.19999999999999968
Info: NONBONDED TABLE R-SQUARED SPACING: 0.0625
Info: NONBONDED TABLE SIZE: 705 POINTS
TCL: Setting parameter alchLambda2 to 0.1499999999999997
Info: NONBONDED TABLE R-SQUARED SPACING: 0.0625
Info: NONBONDED TABLE SIZE: 705 POINTS
TCL: Running for 1500000 steps
ETITLE: TS BOND ANGLE DIHED IMPRP ELECT VDW BOUNDARY MISC KINETIC TOTAL TEMP POTENTIAL TOTALAVG TEMPAVG PRESSURE GPRESSURE VOLUME PRESSAVG GPRESSAVG
ENERGY: 0 8.3454 10.4156 14.6061 0.0000 -10704.7307 1396.3102 0.0000 0.0000 1766.5777 -7508.4757 296.8221 -9275.0534 -7508.4757 296.8221 -698.1006 -614.5714 30793.7347 -698.1006 -614.5714
ENERGY: 300000 4.7158 9.6029 14.6873 0.0000 -10829.9052 1472.0095 0.0000 0.0000 1778.9080 -7549.9816 298.8939 -9328.8897 -7485.7259 299.5901 38.4426 90.5941 30445.9555 101.1182 169.9051
ENERGY: 600000 2.4944 10.6407 14.0646 0.0000 -10833.9214 1499.4467 0.0000 0.0000 1810.4586 -7496.8165 304.1951 -9307.2751 -7499.8575 299.9025 280.0120 382.3385 30714.0524 45.5678 111.1113
ENERGY: 900000 5.3053 11.1304 15.5110 0.0000 -10780.6457 1441.3049 0.0000 0.0000 1772.5745 -7534.8196 297.8297 -9307.3942 -7512.7849 299.5671 -234.9642 -144.0612 30682.8016 1.7502 66.6445
ENERGY: 1200000 3.4141 10.4424 15.4474 0.0000 -10918.6594 1523.1057 0.0000 0.0000 1800.7371 -7565.5127 302.5616 -9366.2498 -7515.3811 299.7753 578.4752 662.8429 30281.4124 37.0591 103.4953
ENERGY: 1500000 3.4616 8.6062 16.1004 0.0000 -10744.3096 1410.8300 0.0000 0.0000 1798.8405 -7506.4708 302.2430 -9305.3113 -7511.8478 300.0320 -472.1903 -389.3387 30845.7741 -1.1881 59.7869
TCL: Running FEP window  18: Lambda1 0.1499999999999997 Lambda2 0.09999999999999969 [dLambda -0.05 ]
TCL: Setting parameter firsttimestep to 0
TCL: Setting parameter alchLambda to 0.1499999999999997
Info: NONBONDED TABLE R-SQUARED SPACING: 0.0625
Info: NONBONDED TABLE SIZE: 705 POINTS
TCL: Setting parameter alchLambda2 to 0.09999999999999969
Info: NONBONDED TABLE R-SQUARED SPACING: 0.0625
Info: NONBONDED TABLE SIZE: 705 POINTS
TCL: Running for 1500000 steps
ETITLE: TS BOND ANGLE DIHED IMPRP ELECT VDW BOUNDARY MISC KINETIC TOTAL TEMP POTENTIAL TOTALAVG TEMPAVG PRESSURE GPRESSURE VOLUME PRESSAVG GPRESSAVG
ENERGY: 0 3.4616 8.6062 16.1004 0.0000 -10744.3102 1411.4442 0.0000 0.0000 1797.9829 -7506.7148 302.0989 -9304.6977 -7506.7148 302.0989 -473.1329 -387.2788 30845.7741 -473.1329 -387.2788
ENERGY: 300000 3.4707 10.7140 14.4957 0.0000 -10798.8711 1452.3251 0.0000 0.0000 1758.4963 -7559.3693 295.4643 -9317.8656 -7515.8376 299.8678 -235.7321 -168.7054 30747.9264 -457.5817 -396.9168
ENERGY: 600000 4.0971 9.2356 14.9268 0.0000 -10733.8175 1449.7485 0.0000 0.0000 1733.2824 -7522.5271 291.2278 -9255.8095 -7530.2914 298.5167 -219.9411 -186.3260 30923.3782 -360.4996 -298.8415
ENERGY: 900000 4.6920 11.7161 16.0288 0.0000 -10964.5552 1563.5018 0.0000 0.0000 1808.3203 -7560.2964 303.8358 -9368.6166 -7529.6398 299.9742 655.0251 676.2969 30646.6856 -318.5072 -259.2126
ENERGY: 1200000 2.0436 12.3878 15.0325 0.0000 -10788.0238 1446.2437 0.0000 0.0000 1818.8275 -7493.4886 305.6012 -9312.3161 -7533.6591 299.8989 106.9522 109.0073 30369.8728 -271.3976 -217.7043
ENERGY: 1500000 5.8169 6.4786 15.0061 0.0000 -10850.1702 1507.0504 0.0000 0.0000 1816.7862 -7499.0320 305.2582 -9315.8182 -7532.2230 300.1072 363.3522 464.4407 30523.1904 -218.5948 -162.9113
TCL: Running FEP window  19: Lambda1 0.09999999999999969 Lambda2 0.049999999999999684 [dLambda -0.05 ]
TCL: Setting parameter firsttimestep to 0
TCL: Setting parameter alchLambda to 0.09999999999999969
Info: NONBONDED TABLE R-SQUARED SPACING: 0.0625
Info: NONBONDED TABLE SIZE: 705 POINTS
TCL: Setting parameter alchLambda2 to 0.049999999999999684
Info: NONBONDED TABLE R-SQUARED SPACING: 0.0625
Info: NONBONDED TABLE SIZE: 705 POINTS
TCL: Running for 1500000 steps
ETITLE: TS BOND ANGLE DIHED IMPRP ELECT VDW BOUNDARY MISC KINETIC TOTAL TEMP POTENTIAL TOTALAVG TEMPAVG PRESSURE GPRESSURE VOLUME PRESSAVG GPRESSAVG
ENERGY: 0 5.8169 6.4786 15.0061 0.0000 -10850.1700 1507.3311 0.0000 0.0000 1815.9061 -7499.6312 305.1104 -9315.5373 -7499.6312 305.1104 388.6047 463.2670 30523.1904 388.6047 463.2670
ENERGY: 300000 2.1126 9.8920 13.4560 0.0000 -10754.8195 1387.2773 0.0000 0.0000 1781.8964 -7560.1851 299.3960 -9342.0815 -7554.5027 300.5802 -644.1990 -645.5416 30649.4112 -252.2008 -193.0337
ENERGY: 600000 2.1252 10.4219 14.8950 0.0000 -10848.7163 1428.6267 0.0000 0.0000 1845.9304 -7546.7172 310.1551 -9392.6476 -7554.1554 301.1352 -406.0597 -356.9998 30568.7686 -120.7230 -71.3868
ENERGY: 900000 4.2457 14.5197 14.4380 0.0000 -10847.9315 1531.6746 0.0000 0.0000 1833.3315 -7449.7221 308.0382 -9283.0536 -7546.1950 300.7388 508.6464 550.6526 30626.3640 -64.6671 -22.0884
ENERGY: 1200000 3.0986 13.9966 14.8671 0.0000 -10744.1458 1417.0077 0.0000 0.0000 1816.3434 -7478.8325 305.1838 -9295.1759 -7540.2387 301.1122 -213.2236 -137.0304 30605.9094 -54.4464 -9.2418
ENERGY: 1500000 9.1432 7.2418 15.3233 0.0000 -10834.5343 1477.5658 0.0000 0.0000 1851.6123 -7473.6479 311.1097 -9325.2602 -7532.1122 301.7347 -166.1211 -113.6030 30838.0116 -116.4410 -64.7617
TCL: Running FEP window  20: Lambda1 0.049999999999999684 Lambda2 0.0    [dLambda -0.049999999999999684]
TCL: Setting parameter firsttimestep to 0
TCL: Setting parameter alchLambda to 0.049999999999999684
Info: NONBONDED TABLE R-SQUARED SPACING: 0.0625
Info: NONBONDED TABLE SIZE: 705 POINTS
TCL: Setting parameter alchLambda2 to 0.0
Info: NONBONDED TABLE R-SQUARED SPACING: 0.0625
Info: NONBONDED TABLE SIZE: 705 POINTS
TCL: Running for 1500000 steps
ETITLE: TS BOND ANGLE DIHED IMPRP ELECT VDW BOUNDARY MISC KINETIC TOTAL TEMP POTENTIAL TOTALAVG TEMPAVG PRESSURE GPRESSURE VOLUME PRESSAVG GPRESSAVG
ENERGY: 0 9.1432 7.2418 15.3233 0.0000 -10834.5346 1478.2545 0.0000 0.0000 1850.7386 -7473.8332 310.9630 -9324.5718 -7473.8332 310.9630 -200.8986 -115.0422 30838.0116 -200.8986 -115.0422
ENERGY: 300000 3.3754 14.1368 16.6329 0.0000 -10679.3134 1371.7967 0.0000 0.0000 1818.8989 -7454.4728 305.6132 -9273.3717 -7516.4881 302.5893 -878.0173 -826.2477 31204.7119 -771.9390 -704.0467
ENERGY: 600000 2.9372 14.1838 15.8925 0.0000 -10846.2152 1500.8447 0.0000 0.0000 1858.3431 -7454.0139 312.2407 -9312.3570 -7504.9493 302.5375 209.7776 254.3484 30665.8478 -387.3920 -331.9164
ENERGY: 900000 1.0787 7.7385 16.6182 0.0000 -10848.1569 1476.0208 0.0000 0.0000 1804.2383 -7542.4622 303.1499 -9346.7006 -7527.1621 301.0113 -26.7768 55.4766 30395.3697 -297.6316 -232.5794
ENERGY: 1200000 1.9715 9.6050 15.4827 0.0000 -10765.0733 1424.5974 0.0000 0.0000 1778.4810 -7534.9358 298.8221 -9313.4167 -7523.3775 300.7818 -315.1635 -213.8679 30622.3672 -246.7951 -182.7073
ENERGY: 1500000 2.2601 13.5723 16.2616 0.0000 -10813.8298 1458.2804 0.0000 0.0000 1812.0885 -7511.3669 304.4689 -9323.4554 -7526.6662 300.8627 -6.0565 56.3184 30680.7333 -250.5436 -190.6275
TCL: Exiting due to exit command.
