Info: SIMULATION PARAMETERS:
Info: TIMESTEP               2
Info: NUMBER OF STEPS        0
Info: STEPS PER CYCLE        10
Info: PERIODIC CELL BASIS 1  31.0278 0 0
Info: PERIODIC CELL BASIS 2  0 30.3839 0
Info: PERIODIC CELL BASIS 3  0 0 32.1036
Info: PERIODIC CELL CENTER   0 0 0
Info: WRAPPING WATERS AROUND PERIODIC BOUNDARIES ON OUTPUT.
Info: WRAPPING ALL CLUSTERS AROUND PERIODIC BOUNDARIES ON OUTPUT.
Info: FIRST LDB TIMESTEP     50
Info: LAST LDB TIMESTEP     -1
Info: HOM BACKGROUND SCALING 1
Info: PME BACKGROUND SCALING 1
Info: MIN ATOMS PER PATCH    40
Info: EMPTY PATCH LOAD       40 ATOMS
Info: VELOCITY FILE          mobley_303222_equil.vel
Info: CENTER OF MASS MOVING INITIALLY? NO
Info: DIELECTRIC             1
Info: EXCLUDE                SCALED ONE-FOUR
Info: 1-4 ELECTROSTATICS SCALED BY 0.833333
Info: MODIFIED 1-4 VDW PARAMETERS WILL BE USED
Info: DCD FILENAME           mobley_303222_prod.dcd
Info: DCD FREQUENCY          100000
Info: DCD FIRST STEP         100000
Info: DCD FILE WILL CONTAIN UNIT CELL DATA
Info: XST FILENAME           mobley_303222_prod.xst
Info: XST FREQUENCY          100000
Info: NO VELOCITY DCD OUTPUT
Info: NO FORCE DCD OUTPUT
Info: OUTPUT FILENAME        mobley_303222_prod
Info: BINARY OUTPUT FILES WILL BE USED
Info: RESTART FILENAME       mobley_303222_prod.restart
Info: RESTART FREQUENCY      100000
Info: BINARY RESTART FILES WILL BE USED
Info: CUTOFF                 9
Info: PAIRLIST DISTANCE      11
Info: PAIRLIST SHRINK RATE   0.01
Info: PAIRLIST GROW RATE     0.01
Info: PAIRLIST TRIGGER       0.3
Info: PAIRLISTS PER CYCLE    2
Info: PAIRLISTS ENABLED
Info: MARGIN                 2
Info: HYDROGEN GROUP CUTOFF  2.5
Info: PATCH DIMENSION        15.5
Info: ENERGY OUTPUT STEPS    100000
Info: ENERGY EVALUATION STEPS    100000
Info: OUTPUT ENERGY PRECISION 4
Info: CROSSTERM ENERGY INCLUDED IN DIHEDRAL
Info: TIMING OUTPUT STEPS    1000000
Info: PRESSURE OUTPUT STEPS  100000
Info: ALCHEMICAL FEP ON
Info: FEP CURRENT LAMBDA VALUE     1
Info: FEP COMPARISON LAMBDA VALUE  0.95
Info: FEP INTRA-ALCHEMICAL NON-BONDED INTERACTIONS WILL BE RETAINED
Info: FEP INTRA-ALCHEMICAL BONDED INTERACTIONS WILL BE RETAINED
Info: FEP VDW SHIFTING COEFFICIENT 5
Info: FEP ELEC. ACTIVE FOR ANNIHILATED PARTICLES BETWEEN LAMBDA = 0 AND LAMBDA = 0.5
Info: FEP ELEC. ACTIVE FOR EXNIHILATED PARTICLES BETWEEN LAMBDA = 0.5 AND LAMBDA = 1
Info: FEP VDW ACTIVE FOR ANNIHILATED PARTICLES BETWEEN LAMBDA = 0 AND LAMBDA = 1
Info: FEP VDW ACTIVE FOR EXNIHILATED PARTICLES BETWEEN LAMBDA = 0 AND LAMBDA = 1
Info: FEP BOND ACTIVE FOR ANNIHILATED PARTICLES BETWEEN LAMBDA = 1 AND LAMBDA = 1
Info: FEP BOND ACTIVE FOR EXNIHILATED PARTICLES BETWEEN LAMBDA = 0 AND LAMBDA = 0
Info: LANGEVIN DYNAMICS ACTIVE
Info: LANGEVIN TEMPERATURE   300
Info: LANGEVIN USING BBK INTEGRATOR
Info: LANGEVIN DAMPING COEFFICIENT IS 1 INVERSE PS
Info: LANGEVIN DYNAMICS APPLIED TO HYDROGENS
Info: LANGEVIN PISTON PRESSURE CONTROL ACTIVE
Info:        TARGET PRESSURE IS 1.01325 BAR
Info:     OSCILLATION PERIOD IS 50 FS
Info:             DECAY TIME IS 25 FS
Info:     PISTON TEMPERATURE IS 300 K
Info:       PRESSURE CONTROL IS GROUP-BASED
Info:    INITIAL STRAIN RATE IS 0.000314464 0.000314464 0.000314464
Info:       CELL FLUCTUATION IS ISOTROPIC
Info: PARTICLE MESH EWALD (PME) ACTIVE
Info: PME TOLERANCE               1e-06
Info: PME EWALD COEFFICIENT       0.348832
Info: PME INTERPOLATION ORDER     4
Info: PME GRID DIMENSIONS         32 32 36
Info: PME MAXIMUM GRID SPACING    1
Info: PME CALCULATION WILL BE PERFORMED ON GPU
Info: FULL ELECTROSTATIC EVALUATION FREQUENCY      2
Info: USING VERLET I (r-RESPA) MTS SCHEME.
Info: C1 SPLITTING OF LONG RANGE ELECTROSTATICS
Info: PLACING ATOMS IN PATCHES BY HYDROGEN GROUPS
Info: RIGID BONDS TO HYDROGEN : ALL
Info:         ERROR TOLERANCE : 1e-08
Info:          MAX ITERATIONS : 100
Info: RIGID WATER USING SETTLE ALGORITHM
Info: RANDOM NUMBER SEED     1743514135
Info: USE HYDROGEN BONDS?    NO
Info: Using AMBER format force field!
Info: AMBER PARM FILE        mobley_303222.prmtop
Info: COORDINATE PDB         mobley_303222.pdb
Info: Exclusions will be read from PARM file!
Info: SCNB (VDW SCALING)     2
Info: USING ARITHMETIC MEAN TO COMBINE L-J SIGMA PARAMETERS
Info: BINARY COORDINATES     mobley_303222_equil.coor
Info: SUMMARY OF PARAMETERS:
Info: 6 BONDS
Info: 6 ANGLES
Info:   6 HARMONIC
Info:   0 COSINE-BASED
Info: 5 DIHEDRAL
Info: 0 IMPROPER
Info: 0 CROSSTERM
Info: 0 VDW
Info: 21 VDW_PAIRS
Info: 0 NBTHOLE_PAIRS
Info: To read alchdata from file: mobley_303222.pdb
Info: To read alchflag data from column: 5
Info: STRUCTURE SUMMARY:
Info: 2934 ATOMS
Info: 2933 BONDS
Info: 12 ANGLES
Info: 18 DIHEDRALS
Info: 0 IMPROPERS
Info: 0 CROSSTERMS
Info: 2955 EXCLUSIONS
Info: 2931 RIGID BONDS
Info: ALCH: 0 ATOMS TO DISAPPEAR IN FINAL STATE
Info: ALCH: 9 ATOMS TO APPEAR IN FINAL STATE
Info: 5871 DEGREES OF FREEDOM
Info: 978 HYDROGEN GROUPS
Info: 4 ATOMS IN LARGEST HYDROGEN GROUP
Info: 978 MIGRATION GROUPS
Info: 4 ATOMS IN LARGEST MIGRATION GROUP
Info: TOTAL MASS = 17607.7 amu
Info: TOTAL CHARGE = -9.99942e-05 e
Info: MASS DENSITY = 0.966079 g/cm^3
Info: ATOM DENSITY = 0.0969419 atoms/A^3
Info: ADDED 0 IMPLICIT EXCLUSIONS
Info: NONBONDED TABLE R-SQUARED SPACING: 0.0625
Info: NONBONDED TABLE SIZE: 705 POINTS
Info: REMOVING COM VELOCITY 0.0422607 -0.263084 -0.0654655
Info: Use 3D box decompostion in PME FFT.
Info: Updated CUDA force table with 4096 elements.
Info: Updated CUDA LJ table with 6 x 6 elements.
Info: Found 12 unique exclusion lists needing 16 bytes
TCL: Running for 1500000 steps
ETITLE: TS BOND ANGLE DIHED IMPRP ELECT VDW BOUNDARY MISC KINETIC TOTAL TEMP POTENTIAL TOTALAVG TEMPAVG PRESSURE GPRESSURE VOLUME PRESSAVG GPRESSAVG
ENERGY: 0 0.5103 2.3743 5.4442 0.0000 -10659.3341 1455.8905 0.0000 0.0000 1767.9379 -7427.1769 303.0717 -9195.1148 -7427.1769 303.0717 140.6899 224.6528 30265.5647 140.6899 224.6528
ENERGY: 300000 0.0151 1.8877 4.7167 0.0000 -10755.5348 1471.9525 0.0000 0.0000 1737.1638 -7539.7990 297.7962 -9276.9628 -7459.7567 303.1806 123.7224 167.9454 30077.1012 -275.3056 -193.5590
ENERGY: 600000 1.0043 5.2191 4.3840 0.0000 -10606.7162 1446.7613 0.0000 0.0000 1708.5843 -7440.7632 292.8969 -9149.3475 -7442.8445 301.2593 144.2805 275.5658 30436.0333 -258.2685 -170.1372
ENERGY: 900000 0.3326 3.3212 4.8857 0.0000 -10543.8443 1381.0156 0.0000 0.0000 1742.3121 -7411.9771 298.6787 -9154.2891 -7443.5117 302.2564 -136.8925 -82.7759 30348.5382 -84.0441 -4.7923
ENERGY: 1200000 0.6424 2.4830 4.4459 0.0000 -10665.6525 1435.6789 0.0000 0.0000 1783.3396 -7439.0627 305.7119 -9222.4023 -7449.8473 302.0732 37.2421 161.1958 30137.9986 -41.9406 38.6535
ENERGY: 1500000 0.2087 1.6342 4.1754 0.0000 -10718.2366 1430.0534 0.0000 0.0000 1766.4033 -7515.7615 302.8086 -9282.1648 -7445.0851 301.8495 -58.7520 17.7643 29786.1599 -63.0204 9.1501
TCL: Running FEP window   2: Lambda1 0.95   Lambda2 0.8999999999999999 [dLambda -0.050000000000000044]
TCL: Setting parameter firsttimestep to 0
TCL: Setting parameter alchLambda to 0.95
Info: NONBONDED TABLE R-SQUARED SPACING: 0.0625
Info: NONBONDED TABLE SIZE: 705 POINTS
TCL: Setting parameter alchLambda2 to 0.8999999999999999
Info: NONBONDED TABLE R-SQUARED SPACING: 0.0625
Info: NONBONDED TABLE SIZE: 705 POINTS
TCL: Running for 1500000 steps
ETITLE: TS BOND ANGLE DIHED IMPRP ELECT VDW BOUNDARY MISC KINETIC TOTAL TEMP POTENTIAL TOTALAVG TEMPAVG PRESSURE GPRESSURE VOLUME PRESSAVG GPRESSAVG
ENERGY: 0 0.2087 1.6342 4.1754 0.0000 -10718.2232 1430.2832 0.0000 0.0000 1765.5051 -7516.4165 302.6546 -9281.9216 -7516.4165 302.6546 -68.6108 13.9305 29786.1599 -68.6108 13.9305
ENERGY: 300000 0.2353 2.9376 3.8537 0.0000 -10529.7907 1363.2019 0.0000 0.0000 1752.7050 -7406.8571 300.4603 -9159.5622 -7428.3350 306.3347 -446.8622 -385.2877 30477.9084 -159.8596 -83.6364
ENERGY: 600000 0.7206 2.8114 4.2029 0.0000 -10728.6220 1492.7236 0.0000 0.0000 1774.6482 -7453.5152 304.2220 -9228.1634 -7428.9950 305.0039 351.1470 462.7774 30300.3045 51.1569 110.2270
ENERGY: 900000 0.1659 3.5123 3.5972 0.0000 -10640.0002 1475.8363 0.0000 0.0000 1739.1983 -7417.6902 298.1449 -9156.8885 -7440.0606 302.3772 340.7093 380.8250 30579.6514 179.6601 242.5684
ENERGY: 1200000 0.1850 1.4403 4.1643 0.0000 -10581.0733 1413.3787 0.0000 0.0000 1740.9125 -7420.9925 298.4388 -9161.9051 -7428.7416 302.4588 -126.1144 -58.4563 30472.3202 140.5471 203.0457
ENERGY: 1500000 0.2454 3.4528 4.8694 0.0000 -10541.6166 1338.9840 0.0000 0.0000 1744.4529 -7449.6122 299.0457 -9194.0651 -7423.8967 302.3863 -835.8874 -766.7777 30551.2201 64.5354 121.7730
TCL: Running FEP window   3: Lambda1 0.8999999999999999 Lambda2 0.8499999999999999 [dLambda -0.050000000000000044]
TCL: Setting parameter firsttimestep to 0
TCL: Setting parameter alchLambda to 0.8999999999999999
Info: NONBONDED TABLE R-SQUARED SPACING: 0.0625
Info: NONBONDED TABLE SIZE: 705 POINTS
TCL: Setting parameter alchLambda2 to 0.8499999999999999
Info: NONBONDED TABLE R-SQUARED SPACING: 0.0625
Info: NONBONDED TABLE SIZE: 705 POINTS
TCL: Running for 1500000 steps
ETITLE: TS BOND ANGLE DIHED IMPRP ELECT VDW BOUNDARY MISC KINETIC TOTAL TEMP POTENTIAL TOTALAVG TEMPAVG PRESSURE GPRESSURE VOLUME PRESSAVG GPRESSAVG
ENERGY: 0 0.2454 3.4528 4.8694 0.0000 -10541.5131 1339.0933 0.0000 0.0000 1743.5638 -7450.2883 298.8933 -9193.8521 -7450.2883 298.8933 -860.2037 -771.1729 30551.2201 -860.2037 -771.1729
ENERGY: 300000 0.3259 5.0449 4.2623 0.0000 -10721.8640 1452.4689 0.0000 0.0000 1776.4010 -7483.3611 304.5224 -9259.7621 -7474.7966 300.2739 -43.5720 -8.3601 30316.1555 -103.4161 -24.6350
ENERGY: 600000 0.5414 3.2918 4.9709 0.0000 -10585.9071 1420.2268 0.0000 0.0000 1818.7123 -7338.1640 311.7757 -9156.8763 -7455.7259 300.2813 -73.8875 -75.3978 30636.7366 -96.1801 -28.0606
ENERGY: 900000 0.4488 1.4326 3.9126 0.0000 -10856.6288 1555.0443 0.0000 0.0000 1725.8538 -7569.9368 295.8573 -9295.7906 -7461.2237 300.0462 604.0485 720.5513 30234.0099 68.6614 132.6794
ENERGY: 1200000 0.0916 2.8057 3.6655 0.0000 -10697.8839 1445.4789 0.0000 0.0000 1751.8667 -7493.9755 300.3166 -9245.8422 -7463.6322 300.6228 174.9617 215.1477 29827.0764 70.7541 124.9334
ENERGY: 1500000 2.9451 2.5791 6.0581 0.0000 -10616.8307 1422.1720 0.0000 0.0000 1792.8061 -7390.2703 307.3347 -9183.0764 -7454.6257 301.2950 -6.2264 9.0617 30333.3288 100.4639 153.8238
TCL: Running FEP window   4: Lambda1 0.8499999999999999 Lambda2 0.7999999999999998 [dLambda -0.050000000000000044]
TCL: Setting parameter firsttimestep to 0
TCL: Setting parameter alchLambda to 0.8499999999999999
Info: NONBONDED TABLE R-SQUARED SPACING: 0.0625
Info: NONBONDED TABLE SIZE: 705 POINTS
TCL: Setting parameter alchLambda2 to 0.7999999999999998
Info: NONBONDED TABLE R-SQUARED SPACING: 0.0625
Info: NONBONDED TABLE SIZE: 705 POINTS
TCL: Running for 1500000 steps
ETITLE: TS BOND ANGLE DIHED IMPRP ELECT VDW BOUNDARY MISC KINETIC TOTAL TEMP POTENTIAL TOTALAVG TEMPAVG PRESSURE GPRESSURE VOLUME PRESSAVG GPRESSAVG
ENERGY: 0 2.9451 2.5791 6.0581 0.0000 -10616.7885 1422.5557 0.0000 0.0000 1791.9100 -7390.7405 307.1811 -9182.6505 -7390.7405 307.1811 -62.6788 8.7432 30333.3288 -62.6788 8.7432
ENERGY: 300000 0.0119 1.8377 3.4934 0.0000 -10780.2850 1492.9224 0.0000 0.0000 1733.2199 -7548.7997 297.1201 -9282.0196 -7505.6775 295.8147 527.4549 507.3903 29783.2210 -72.3317 -34.5293
ENERGY: 600000 0.0382 1.8516 6.1808 0.0000 -10537.4529 1395.0205 0.0000 0.0000 1787.9649 -7346.3968 306.5048 -9134.3618 -7460.6563 298.5888 -220.4937 -215.0123 30571.3724 -137.0550 -97.3410
ENERGY: 900000 0.1214 1.3668 5.8096 0.0000 -10698.0193 1436.3908 0.0000 0.0000 1790.9844 -7463.3463 307.0224 -9254.3307 -7458.4251 300.4900 -7.8955 59.0751 30049.0489 28.2332 75.1692
ENERGY: 1200000 0.4915 2.7296 6.7584 0.0000 -10646.5155 1396.0757 0.0000 0.0000 1781.5479 -7458.9125 305.4048 -9240.4604 -7456.3780 301.1022 -227.3649 -160.8224 29936.3109 -14.9233 43.5516
ENERGY: 1500000 0.3170 0.7681 4.7873 0.0000 -10664.4612 1418.2604 0.0000 0.0000 1768.9036 -7471.4247 303.2372 -9240.3283 -7463.3337 301.0251 -487.7298 -442.8791 30787.9091 -37.6874 15.2757
TCL: Running FEP window   5: Lambda1 0.7999999999999998 Lambda2 0.7499999999999998 [dLambda -0.050000000000000044]
TCL: Setting parameter firsttimestep to 0
TCL: Setting parameter alchLambda to 0.7999999999999998
Info: NONBONDED TABLE R-SQUARED SPACING: 0.0625
Info: NONBONDED TABLE SIZE: 705 POINTS
TCL: Setting parameter alchLambda2 to 0.7499999999999998
Info: NONBONDED TABLE R-SQUARED SPACING: 0.0625
Info: NONBONDED TABLE SIZE: 705 POINTS
TCL: Running for 1500000 steps
ETITLE: TS BOND ANGLE DIHED IMPRP ELECT VDW BOUNDARY MISC KINETIC TOTAL TEMP POTENTIAL TOTALAVG TEMPAVG PRESSURE GPRESSURE VOLUME PRESSAVG GPRESSAVG
ENERGY: 0 0.3170 0.7681 4.7873 0.0000 -10664.4396 1418.4604 0.0000 0.0000 1768.0899 -7472.0169 303.0977 -9240.1068 -7472.0169 303.0977 -529.0248 -444.9478 30787.9091 -529.0248 -444.9478
ENERGY: 300000 0.6104 3.1197 3.7602 0.0000 -10620.1135 1389.1738 0.0000 0.0000 1712.8652 -7510.5842 293.6307 -9223.4494 -7508.1930 295.9637 -709.0229 -597.1188 30571.7159 -374.2346 -298.4684
ENERGY: 600000 0.5262 2.3063 4.8697 0.0000 -10646.3939 1470.8592 0.0000 0.0000 1754.2839 -7413.5485 300.7310 -9167.8324 -7485.1704 297.6475 332.9009 402.9988 30317.6641 -69.7269 -11.1273
ENERGY: 900000 0.0491 2.9831 5.1776 0.0000 -10702.7657 1506.6253 0.0000 0.0000 1743.5934 -7444.3372 298.8983 -9187.9306 -7482.4953 296.1172 705.5701 730.6893 30158.0565 71.4193 132.0413
ENERGY: 1200000 1.1258 0.9974 3.6699 0.0000 -10610.9707 1388.7931 0.0000 0.0000 1763.6003 -7452.7842 302.3281 -9216.3845 -7474.3994 296.8650 -452.6765 -416.7600 30374.1428 22.9783 79.9052
ENERGY: 1500000 0.4061 3.7401 4.3234 0.0000 -10576.1263 1401.7800 0.0000 0.0000 1737.7346 -7428.1421 297.8940 -9165.8766 -7470.4483 296.6756 -197.6268 -141.0717 30449.8416 67.6490 128.4455
TCL: Running FEP window   6: Lambda1 0.7499999999999998 Lambda2 0.6999999999999997 [dLambda -0.050000000000000044]
TCL: Setting parameter firsttimestep to 0
TCL: Setting parameter alchLambda to 0.7499999999999998
Info: NONBONDED TABLE R-SQUARED SPACING: 0.0625
Info: NONBONDED TABLE SIZE: 705 POINTS
TCL: Setting parameter alchLambda2 to 0.6999999999999997
Info: NONBONDED TABLE R-SQUARED SPACING: 0.0625
Info: NONBONDED TABLE SIZE: 705 POINTS
TCL: Running for 1500000 steps
ETITLE: TS BOND ANGLE DIHED IMPRP ELECT VDW BOUNDARY MISC KINETIC TOTAL TEMP POTENTIAL TOTALAVG TEMPAVG PRESSURE GPRESSURE VOLUME PRESSAVG GPRESSAVG
ENERGY: 0 0.4061 3.7401 4.3234 0.0000 -10576.1639 1402.0549 0.0000 0.0000 1736.8888 -7428.7506 297.7490 -9165.6395 -7428.7506 297.7490 -232.2756 -142.5353 30449.8416 -232.2756 -142.5353
ENERGY: 300000 1.3400 4.5097 4.8321 0.0000 -10738.8000 1438.4709 0.0000 0.0000 1731.2418 -7558.4055 296.7810 -9289.6473 -7469.3844 299.9155 -319.3506 -324.7541 30700.6369 -186.3350 -106.5525
ENERGY: 600000 0.0930 2.6667 4.3166 0.0000 -10736.4760 1538.5559 0.0000 0.0000 1770.4100 -7420.4338 303.4954 -9190.8438 -7447.6274 301.4334 876.3600 962.3745 30088.9580 -220.1042 -136.4611
ENERGY: 900000 0.6732 1.9823 4.5707 0.0000 -10604.8904 1368.7635 0.0000 0.0000 1744.4491 -7484.4516 299.0450 -9228.9007 -7451.9792 301.7830 -620.9506 -478.9310 30247.6085 -184.3313 -93.4742
ENERGY: 1200000 0.0330 3.5383 3.7607 0.0000 -10620.8733 1398.1919 0.0000 0.0000 1750.9114 -7464.4380 300.1529 -9215.3494 -7451.2931 301.3199 -217.9234 -218.1165 30340.6635 -198.0018 -112.9888
ENERGY: 1500000 2.1509 3.3142 6.7910 0.0000 -10843.2167 1572.7432 0.0000 0.0000 1768.5048 -7489.7126 303.1688 -9258.2174 -7460.5787 300.8386 1102.4747 1156.8326 29914.1192 -75.8375 7.2351
TCL: Running FEP window   7: Lambda1 0.6999999999999997 Lambda2 0.6499999999999997 [dLambda -0.050000000000000044]
TCL: Setting parameter firsttimestep to 0
TCL: Setting parameter alchLambda to 0.6999999999999997
Info: NONBONDED TABLE R-SQUARED SPACING: 0.0625
Info: NONBONDED TABLE SIZE: 705 POINTS
TCL: Setting parameter alchLambda2 to 0.6499999999999997
Info: NONBONDED TABLE R-SQUARED SPACING: 0.0625
Info: NONBONDED TABLE SIZE: 705 POINTS
TCL: Running for 1500000 steps
ETITLE: TS BOND ANGLE DIHED IMPRP ELECT VDW BOUNDARY MISC KINETIC TOTAL TEMP POTENTIAL TOTALAVG TEMPAVG PRESSURE GPRESSURE VOLUME PRESSAVG GPRESSAVG
ENERGY: 0 2.1509 3.3142 6.7910 0.0000 -10842.8381 1571.8038 0.0000 0.0000 1767.6590 -7491.1192 303.0238 -9258.7782 -7491.1192 303.0238 1058.9094 1136.7816 29914.1192 1058.9094 1136.7816
ENERGY: 300000 0.0217 3.2248 5.3941 0.0000 -10630.6908 1395.0236 0.0000 0.0000 1765.5792 -7461.4474 302.6673 -9227.0267 -7437.0441 303.6848 -397.6640 -296.6769 30332.3919 234.8947 318.7226
ENERGY: 600000 1.0535 9.2613 7.9877 0.0000 -10660.1846 1441.1954 0.0000 0.0000 1687.9343 -7512.7523 289.3569 -9200.6866 -7481.0730 300.4132 -11.5138 -6.7560 30451.2801 33.6458 90.2234
ENERGY: 900000 0.4245 3.1725 4.2987 0.0000 -10531.7322 1347.5442 0.0000 0.0000 1708.7684 -7467.5240 292.9284 -9176.2923 -7477.7652 300.1823 -563.5732 -468.6854 30196.5160 -8.1360 48.7759
ENERGY: 1200000 0.1781 2.9000 4.2926 0.0000 -10621.6949 1407.8660 0.0000 0.0000 1717.0811 -7489.3770 294.3534 -9206.4581 -7469.5340 300.7564 -409.9052 -412.7985 30409.1640 -78.7171 -27.6022
ENERGY: 1500000 0.0914 1.8917 4.7065 0.0000 -10621.8607 1428.3416 0.0000 0.0000 1755.6211 -7431.2082 300.9602 -9186.8294 -7463.6746 300.6675 -172.0109 -145.0537 30697.9045 40.9908 90.6253
TCL: Running FEP window   8: Lambda1 0.6499999999999997 Lambda2 0.5999999999999996 [dLambda -0.050000000000000044]
TCL: Setting parameter firsttimestep to 0
TCL: Setting parameter alchLambda to 0.6499999999999997
Info: NONBONDED TABLE R-SQUARED SPACING: 0.0625
Info: NONBONDED TABLE SIZE: 705 POINTS
TCL: Setting parameter alchLambda2 to 0.5999999999999996
Info: NONBONDED TABLE R-SQUARED SPACING: 0.0625
Info: NONBONDED TABLE SIZE: 705 POINTS
TCL: Running for 1500000 steps
ETITLE: TS BOND ANGLE DIHED IMPRP ELECT VDW BOUNDARY MISC KINETIC TOTAL TEMP POTENTIAL TOTALAVG TEMPAVG PRESSURE GPRESSURE VOLUME PRESSAVG GPRESSAVG
ENERGY: 0 0.0914 1.8917 4.7065 0.0000 -10621.7208 1428.6375 0.0000 0.0000 1754.6985 -7431.6951 300.8021 -9186.3937 -7431.6951 300.8021 -228.4063 -148.0910 30697.9045 -228.4063 -148.0910
ENERGY: 300000 0.4759 3.5459 4.6347 0.0000 -10518.5597 1383.4265 0.0000 0.0000 1808.0341 -7318.4427 309.9452 -9126.4768 -7396.4631 301.2127 -159.4378 -21.4217 30191.9974 -150.5953 -71.0531
ENERGY: 600000 0.3840 1.9857 6.8170 0.0000 -10560.8157 1380.8288 0.0000 0.0000 1813.9179 -7356.8822 310.9539 -9170.8002 -7411.1424 300.0357 -207.0542 -236.7612 30264.5130 -221.4834 -154.0840
ENERGY: 900000 0.3086 0.9602 4.9410 0.0000 -10686.7437 1484.9507 0.0000 0.0000 1651.1926 -7544.3905 283.0584 -9195.5831 -7426.0457 298.4826 151.3909 281.0782 30222.8766 -113.9180 -45.6985
ENERGY: 1200000 0.7853 4.5107 5.6265 0.0000 -10583.2547 1435.9180 0.0000 0.0000 1769.2573 -7367.1568 303.2978 -9136.4141 -7413.5493 299.7973 197.9111 196.5907 30523.0564 -194.8731 -132.1736
ENERGY: 1500000 0.3640 1.3223 4.8403 0.0000 -10717.6110 1518.2471 0.0000 0.0000 1782.4782 -7410.3592 305.5642 -9192.8374 -7416.5406 300.6778 806.5109 889.7490 29881.4049 -161.7482 -102.5783
TCL: Running FEP window   9: Lambda1 0.5999999999999996 Lambda2 0.5499999999999996 [dLambda -0.050000000000000044]
TCL: Setting parameter firsttimestep to 0
TCL: Setting parameter alchLambda to 0.5999999999999996
Info: NONBONDED TABLE R-SQUARED SPACING: 0.0625
Info: NONBONDED TABLE SIZE: 705 POINTS
TCL: Setting parameter alchLambda2 to 0.5499999999999996
Info: NONBONDED TABLE R-SQUARED SPACING: 0.0625
Info: NONBONDED TABLE SIZE: 705 POINTS
TCL: Running for 1500000 steps
ETITLE: TS BOND ANGLE DIHED IMPRP ELECT VDW BOUNDARY MISC KINETIC TOTAL TEMP POTENTIAL TOTALAVG TEMPAVG PRESSURE GPRESSURE VOLUME PRESSAVG GPRESSAVG
ENERGY: 0 0.3640 1.3223 4.8403 0.0000 -10717.5112 1518.4164 0.0000 0.0000 1781.6322 -7410.9359 305.4192 -9192.5681 -7410.9359 305.4192 809.1622 891.7286 29881.4049 809.1622 891.7286
ENERGY: 300000 0.5335 4.2473 4.2235 0.0000 -10653.3363 1438.4554 0.0000 0.0000 1710.7416 -7495.1350 293.2667 -9205.8766 -7437.0693 300.3056 -64.9239 -0.7142 30397.6260 180.6082 256.4418
ENERGY: 600000 0.3790 4.8269 3.6954 0.0000 -10728.4991 1490.9370 0.0000 0.0000 1707.5171 -7521.1436 292.7139 -9228.6608 -7450.5959 299.8186 380.0874 403.9809 30111.8816 105.5536 165.5096
ENERGY: 900000 1.1278 3.4620 4.2042 0.0000 -10599.4597 1402.4004 0.0000 0.0000 1749.4852 -7438.7801 299.9084 -9188.2653 -7451.9977 299.1787 -81.0526 -38.5714 29977.7529 8.9984 63.5675
ENERGY: 1200000 1.5141 1.3391 3.7485 0.0000 -10583.3062 1444.5395 0.0000 0.0000 1731.5805 -7400.5845 296.8390 -9132.1650 -7436.6017 299.8300 179.4333 208.5656 30514.2351 -30.5952 21.1212
ENERGY: 1500000 0.4865 2.6206 6.2731 0.0000 -10751.6983 1448.1771 0.0000 0.0000 1717.2370 -7576.9040 294.3802 -9294.1410 -7445.2987 298.6142 -178.2237 -96.6671 30267.9062 -30.4786 24.7885
TCL: Running FEP window  10: Lambda1 0.5499999999999996 Lambda2 0.4999999999999996 [dLambda -0.04999999999999999]
TCL: Setting parameter firsttimestep to 0
TCL: Setting parameter alchLambda to 0.5499999999999996
Info: NONBONDED TABLE R-SQUARED SPACING: 0.0625
Info: NONBONDED TABLE SIZE: 705 POINTS
TCL: Setting parameter alchLambda2 to 0.4999999999999996
Info: NONBONDED TABLE R-SQUARED SPACING: 0.0625
Info: NONBONDED TABLE SIZE: 705 POINTS
TCL: Running for 1500000 steps
ETITLE: TS BOND ANGLE DIHED IMPRP ELECT VDW BOUNDARY MISC KINETIC TOTAL TEMP POTENTIAL TOTALAVG TEMPAVG PRESSURE GPRESSURE VOLUME PRESSAVG GPRESSAVG
ENERGY: 0 0.4865 2.6206 6.2731 0.0000 -10751.5757 1448.1842 0.0000 0.0000 1716.3262 -7577.6851 294.2240 -9294.0113 -7577.6851 294.2240 -167.5745 -99.5161 30267.9062 -167.5745 -99.5161
ENERGY: 300000 0.4896 2.1817 4.5998 0.0000 -10860.3950 1513.9029 0.0000 0.0000 1793.1734 -7546.0476 307.3977 -9339.2210 -7522.5356 301.3985 364.6463 401.5710 29845.7519 32.9234 85.7809
ENERGY: 600000 0.1792 3.0420 4.2305 0.0000 -10584.9469 1363.3190 0.0000 0.0000 1748.3239 -7465.8524 299.7093 -9214.1763 -7503.0677 300.8495 -466.1504 -441.7701 29987.7354 -177.8801 -131.3947
ENERGY: 900000 0.0996 2.9648 4.1646 0.0000 -10733.5264 1482.1673 0.0000 0.0000 1680.2895 -7563.8406 288.0464 -9244.1301 -7496.9488 298.7771 372.5368 453.5273 29761.0842 22.8379 71.9173
ENERGY: 1200000 0.2310 3.3048 4.9064 0.0000 -10669.4611 1472.2700 0.0000 0.0000 1780.2956 -7408.4533 305.1901 -9188.7489 -7475.6588 299.8562 472.9609 544.8519 29974.8499 41.9999 94.8897
ENERGY: 1500000 0.2567 3.5610 3.7552 0.0000 -10769.2713 1489.4692 0.0000 0.0000 1779.3032 -7492.9261 305.0200 -9272.2292 -7473.7650 299.7776 380.0771 468.7708 29802.1736 16.5196 73.4026
TCL: Running FEP window  11: Lambda1 0.4999999999999996 Lambda2 0.4499999999999996 [dLambda -0.04999999999999999]
TCL: Setting parameter firsttimestep to 0
TCL: Setting parameter alchLambda to 0.4999999999999996
Info: NONBONDED TABLE R-SQUARED SPACING: 0.0625
Info: NONBONDED TABLE SIZE: 705 POINTS
TCL: Setting parameter alchLambda2 to 0.4499999999999996
Info: NONBONDED TABLE R-SQUARED SPACING: 0.0625
Info: NONBONDED TABLE SIZE: 705 POINTS
TCL: Running for 1500000 steps
ETITLE: TS BOND ANGLE DIHED IMPRP ELECT VDW BOUNDARY MISC KINETIC TOTAL TEMP POTENTIAL TOTALAVG TEMPAVG PRESSURE GPRESSURE VOLUME PRESSAVG GPRESSAVG
ENERGY: 0 0.2567 3.5610 3.7552 0.0000 -10769.3415 1489.7838 0.0000 0.0000 1778.4527 -7493.5322 304.8742 -9271.9849 -7493.5322 304.8742 377.4316 466.3608 29802.1736 377.4316 466.3608
ENERGY: 300000 0.2797 1.9361 4.0507 0.0000 -10642.6804 1420.0361 0.0000 0.0000 1753.8272 -7462.5505 300.6527 -9216.3777 -7487.8383 303.8971 -230.0922 -168.0688 30227.5589 239.8788 306.5124
ENERGY: 600000 0.7253 1.6367 4.1100 0.0000 -10458.4172 1337.2796 0.0000 0.0000 1748.1329 -7366.5328 299.6765 -9114.6656 -7450.4278 303.0133 -837.0176 -707.5125 30806.5161 175.3596 250.9208
ENERGY: 900000 0.8605 3.6903 4.0939 0.0000 -10533.4188 1352.3522 0.0000 0.0000 1787.8667 -7384.5552 306.4880 -9172.4220 -7441.9523 302.1580 -626.2564 -562.4540 30398.2118 24.6960 98.0128
ENERGY: 1200000 1.1071 2.7352 5.5598 0.0000 -10733.8610 1497.8345 0.0000 0.0000 1744.8832 -7481.7412 299.1195 -9226.6244 -7447.8946 300.9708 498.2326 567.7473 30163.9695 -2.3913 74.7001
ENERGY: 1500000 0.4155 2.5803 4.4674 0.0000 -10643.4942 1474.9990 0.0000 0.0000 1779.9187 -7381.1133 305.1255 -9161.0320 -7453.6235 301.0851 435.9672 467.7884 30176.6442 -3.0109 65.7934
TCL: Running FEP window  12: Lambda1 0.4499999999999996 Lambda2 0.39999999999999963 [dLambda -0.04999999999999999]
TCL: Setting parameter firsttimestep to 0
TCL: Setting parameter alchLambda to 0.4499999999999996
Info: NONBONDED TABLE R-SQUARED SPACING: 0.0625
Info: NONBONDED TABLE SIZE: 705 POINTS
TCL: Setting parameter alchLambda2 to 0.39999999999999963
Info: NONBONDED TABLE R-SQUARED SPACING: 0.0625
Info: NONBONDED TABLE SIZE: 705 POINTS
TCL: Running for 1500000 steps
ETITLE: TS BOND ANGLE DIHED IMPRP ELECT VDW BOUNDARY MISC KINETIC TOTAL TEMP POTENTIAL TOTALAVG TEMPAVG PRESSURE GPRESSURE VOLUME PRESSAVG GPRESSAVG
ENERGY: 0 0.4155 2.5803 4.4674 0.0000 -10643.4937 1475.2684 0.0000 0.0000 1779.0546 -7381.7075 304.9774 -9160.7621 -7381.7075 304.9774 386.3136 468.0797 30176.6442 386.3136 468.0797
ENERGY: 300000 0.1735 1.1803 4.1413 0.0000 -10791.0569 1540.5978 0.0000 0.0000 1791.8030 -7453.1609 307.1628 -9244.9640 -7447.9543 299.0258 742.1539 778.9985 30112.0395 127.1274 182.2760
ENERGY: 600000 1.3579 4.3634 4.2329 0.0000 -10687.0305 1381.9694 0.0000 0.0000 1793.9614 -7501.1455 307.5328 -9295.1069 -7443.8581 301.8234 -833.8714 -739.4916 30302.3847 -110.5047 -50.6901
ENERGY: 900000 1.1373 3.2585 5.0263 0.0000 -10516.8403 1284.9505 0.0000 0.0000 1779.5049 -7442.9627 305.0545 -9222.4676 -7439.6072 302.1389 -1158.8063 -998.7059 30096.3453 -241.5079 -172.1070
ENERGY: 1200000 0.2321 2.2572 4.1857 0.0000 -10695.5973 1477.7599 0.0000 0.0000 1771.6192 -7439.5431 303.7027 -9211.1623 -7443.2595 301.7393 352.3890 432.4949 30046.4445 -237.6106 -178.8517
ENERGY: 1500000 0.0265 4.3418 4.9845 0.0000 -10477.1890 1325.7198 0.0000 0.0000 1798.2379 -7343.8785 308.2659 -9142.1163 -7446.3922 301.7635 -537.9050 -435.0889 29994.3737 -270.8515 -209.7073
TCL: Running FEP window  13: Lambda1 0.39999999999999963 Lambda2 0.34999999999999964 [dLambda -0.04999999999999999]
TCL: Setting parameter firsttimestep to 0
TCL: Setting parameter alchLambda to 0.39999999999999963
Info: NONBONDED TABLE R-SQUARED SPACING: 0.0625
Info: NONBONDED TABLE SIZE: 705 POINTS
TCL: Setting parameter alchLambda2 to 0.34999999999999964
Info: NONBONDED TABLE R-SQUARED SPACING: 0.0625
Info: NONBONDED TABLE SIZE: 705 POINTS
TCL: Running for 1500000 steps
ETITLE: TS BOND ANGLE DIHED IMPRP ELECT VDW BOUNDARY MISC KINETIC TOTAL TEMP POTENTIAL TOTALAVG TEMPAVG PRESSURE GPRESSURE VOLUME PRESSAVG GPRESSAVG
ENERGY: 0 0.0265 4.3418 4.9845 0.0000 -10477.1898 1325.9791 0.0000 0.0000 1797.3630 -7344.4949 308.1159 -9141.8579 -7344.4949 308.1159 -523.3931 -436.3680 29994.3737 -523.3931 -436.3680
ENERGY: 300000 0.7924 6.3869 7.3799 0.0000 -10677.0888 1474.0945 0.0000 0.0000 1716.1217 -7472.3134 294.1890 -9188.4351 -7402.8634 300.5105 192.6926 308.7977 30228.4017 -149.6685 -58.4738
ENERGY: 600000 0.0610 1.8170 4.1711 0.0000 -10630.2641 1412.2759 0.0000 0.0000 1782.3302 -7429.6089 305.5389 -9211.9391 -7422.4680 301.7253 -328.0245 -300.7337 30540.2220 -146.1662 -70.7531
ENERGY: 900000 0.6841 2.3535 5.0124 0.0000 -10637.2770 1403.6385 0.0000 0.0000 1780.1106 -7445.4779 305.1584 -9225.5885 -7418.6291 301.8724 -295.2974 -281.5720 30100.4486 -241.8627 -169.1790
ENERGY: 1200000 0.4094 2.2953 5.6848 0.0000 -10797.5129 1502.6575 0.0000 0.0000 1712.4780 -7573.9880 293.5643 -9286.4660 -7436.7016 301.1751 507.9650 583.1353 29483.5895 -199.5003 -121.2905
ENERGY: 1500000 0.1640 2.9129 4.6970 0.0000 -10708.7581 1471.5868 0.0000 0.0000 1734.4184 -7494.9791 297.3255 -9229.3975 -7435.8084 301.3846 -29.0862 75.4243 30333.7806 -153.3486 -78.6647
TCL: Running FEP window  14: Lambda1 0.34999999999999964 Lambda2 0.29999999999999966 [dLambda -0.04999999999999999]
TCL: Setting parameter firsttimestep to 0
TCL: Setting parameter alchLambda to 0.34999999999999964
Info: NONBONDED TABLE R-SQUARED SPACING: 0.0625
Info: NONBONDED TABLE SIZE: 705 POINTS
TCL: Setting parameter alchLambda2 to 0.29999999999999966
Info: NONBONDED TABLE R-SQUARED SPACING: 0.0625
Info: NONBONDED TABLE SIZE: 705 POINTS
TCL: Running for 1500000 steps
ETITLE: TS BOND ANGLE DIHED IMPRP ELECT VDW BOUNDARY MISC KINETIC TOTAL TEMP POTENTIAL TOTALAVG TEMPAVG PRESSURE GPRESSURE VOLUME PRESSAVG GPRESSAVG
ENERGY: 0 0.1640 2.9129 4.6970 0.0000 -10708.7578 1471.5126 0.0000 0.0000 1733.5337 -7495.9377 297.1739 -9229.4714 -7495.9377 297.1739 -14.0840 73.5314 30333.7806 -14.0840 73.5314
ENERGY: 300000 0.9313 3.3309 4.2124 0.0000 -10716.3563 1467.9648 0.0000 0.0000 1754.7119 -7485.2049 300.8044 -9239.9169 -7475.1272 298.9261 -107.6860 -18.2282 30516.3040 -16.8594 55.3550
ENERGY: 600000 0.3096 2.6117 4.7579 0.0000 -10647.4206 1366.5856 0.0000 0.0000 1730.7305 -7542.4253 296.6933 -9273.1558 -7483.5232 299.6990 -578.4188 -557.7037 29915.6500 111.3662 185.8968
ENERGY: 900000 0.0196 1.8993 4.9832 0.0000 -10726.5552 1454.5180 0.0000 0.0000 1744.7546 -7520.3804 299.0974 -9265.1350 -7484.8071 299.2295 -73.0817 41.7138 30172.5804 34.6261 109.2938
ENERGY: 1200000 0.0669 2.6002 4.4904 0.0000 -10665.4195 1371.5042 0.0000 0.0000 1777.9239 -7508.8339 304.7835 -9286.7578 -7479.8465 300.0584 -780.5553 -762.4859 30247.2576 -129.9230 -55.3953
ENERGY: 1500000 0.2998 4.6286 4.3466 0.0000 -10861.0661 1565.3508 0.0000 0.0000 1726.1015 -7560.3387 295.8998 -9286.4402 -7489.1236 299.6375 878.0463 899.2267 29965.1571 -67.7681 2.3165
TCL: Running FEP window  15: Lambda1 0.29999999999999966 Lambda2 0.24999999999999967 [dLambda -0.04999999999999999]
TCL: Setting parameter firsttimestep to 0
TCL: Setting parameter alchLambda to 0.29999999999999966
Info: NONBONDED TABLE R-SQUARED SPACING: 0.0625
Info: NONBONDED TABLE SIZE: 705 POINTS
TCL: Setting parameter alchLambda2 to 0.24999999999999967
Info: NONBONDED TABLE R-SQUARED SPACING: 0.0625
Info: NONBONDED TABLE SIZE: 705 POINTS
TCL: Running for 1500000 steps
ETITLE: TS BOND ANGLE DIHED IMPRP ELECT VDW BOUNDARY MISC KINETIC TOTAL TEMP POTENTIAL TOTALAVG TEMPAVG PRESSURE GPRESSURE VOLUME PRESSAVG GPRESSAVG
ENERGY: 0 0.2998 4.6286 4.3466 0.0000 -10861.0663 1565.2672 0.0000 0.0000 1725.2049 -7561.3192 295.7461 -9286.5242 -7561.3192 295.7461 811.8523 895.1034 29965.1571 811.8523 895.1034
ENERGY: 300000 0.5142 2.0179 4.3948 0.0000 -10581.6124 1452.6369 0.0000 0.0000 1728.3838 -7393.6649 296.2910 -9122.0486 -7462.5706 299.5544 428.8061 417.4326 30485.0713 497.2251 524.8365
ENERGY: 600000 1.1082 1.3134 4.7773 0.0000 -10658.7620 1378.4600 0.0000 0.0000 1731.7614 -7541.3417 296.8700 -9273.1032 -7492.0477 298.2466 -567.0959 -505.2655 29854.5506 180.8242 225.9144
ENERGY: 900000 2.5600 0.4649 3.9158 0.0000 -10662.7550 1407.5003 0.0000 0.0000 1755.2631 -7493.0508 300.8988 -9248.3139 -7472.7807 300.0101 -353.2169 -345.1296 29974.7383 150.3420 197.1254
ENERGY: 1200000 2.0810 3.5667 6.2074 0.0000 -10515.8665 1360.6157 0.0000 0.0000 1752.5601 -7390.8356 300.4355 -9143.3957 -7463.7977 300.3247 -487.7989 -466.2792 30250.2550 -2.8637 45.7231
ENERGY: 1500000 0.0056 2.3668 4.3698 0.0000 -10551.4247 1369.8068 0.0000 0.0000 1810.2254 -7364.6503 310.3209 -9174.8758 -7450.2395 301.4388 -398.6883 -384.5944 30307.3241 41.5529 87.9143
TCL: Running FEP window  16: Lambda1 0.24999999999999967 Lambda2 0.19999999999999968 [dLambda -0.04999999999999999]
TCL: Setting parameter firsttimestep to 0
TCL: Setting parameter alchLambda to 0.24999999999999967
Info: NONBONDED TABLE R-SQUARED SPACING: 0.0625
Info: NONBONDED TABLE SIZE: 705 POINTS
TCL: Setting parameter alchLambda2 to 0.19999999999999968
Info: NONBONDED TABLE R-SQUARED SPACING: 0.0625
Info: NONBONDED TABLE SIZE: 705 POINTS
TCL: Running for 1500000 steps
ETITLE: TS BOND ANGLE DIHED IMPRP ELECT VDW BOUNDARY MISC KINETIC TOTAL TEMP POTENTIAL TOTALAVG TEMPAVG PRESSURE GPRESSURE VOLUME PRESSAVG GPRESSAVG
ENERGY: 0 0.0056 2.3668 4.3698 0.0000 -10551.4257 1369.6961 0.0000 0.0000 1809.3446 -7365.6427 310.1699 -9174.9874 -7365.6427 310.1699 -472.4592 -390.0258 30307.3241 -472.4592 -390.0258
ENERGY: 300000 1.4104 2.7551 4.0054 0.0000 -10593.3781 1380.0927 0.0000 0.0000 1702.0235 -7503.0910 291.7722 -9205.1145 -7416.2378 303.5909 -514.0699 -455.1212 30238.6460 -190.8412 -114.7127
ENERGY: 600000 0.2373 1.6611 5.2970 0.0000 -10703.7085 1495.6354 0.0000 0.0000 1748.6841 -7452.1934 299.7710 -9200.8776 -7427.5962 302.4961 531.6815 536.0659 30306.6187 -12.3855 38.4429
ENERGY: 900000 0.6296 2.7093 4.1669 0.0000 -10653.1206 1428.2197 0.0000 0.0000 1745.5245 -7471.8706 299.2294 -9217.3951 -7445.1124 301.2983 -202.9020 -151.8492 30278.1559 -59.6461 -6.5622
ENERGY: 1200000 0.3681 4.0983 5.8136 0.0000 -10665.1659 1472.8520 0.0000 0.0000 1826.3083 -7355.7255 313.0779 -9182.0338 -7450.6547 302.4304 307.3468 329.5871 30461.3720 -66.0869 -7.4374
ENERGY: 1500000 0.4501 2.4100 5.5457 0.0000 -10692.8576 1482.6955 0.0000 0.0000 1748.7887 -7452.9676 299.7890 -9201.7563 -7450.3592 302.0962 209.3881 290.6081 30368.4192 -44.6928 11.4233
TCL: Running FEP window  17: Lambda1 0.19999999999999968 Lambda2 0.1499999999999997 [dLambda -0.04999999999999999]
TCL: Setting parameter firsttimestep to 0
TCL: Setting parameter alchLambda to 0.19999999999999968
Info: NONBONDED TABLE R-SQUARED SPACING: 0.0625
Info: NONBONDED TABLE SIZE: 705 POINTS
TCL: Setting parameter alchLambda2 to 0.1499999999999997
Info: NONBONDED TABLE R-SQUARED SPACING: 0.0625
Info: NONBONDED TABLE SIZE: 705 POINTS
TCL: Running for 1500000 steps
ETITLE: TS BOND ANGLE DIHED IMPRP ELECT VDW BOUNDARY MISC KINETIC TOTAL TEMP POTENTIAL TOTALAVG TEMPAVG PRESSURE GPRESSURE VOLUME PRESSAVG GPRESSAVG
ENERGY: 0 0.4501 2.4100 5.5457 0.0000 -10692.8575 1482.7354 0.0000 0.0000 1747.9178 -7453.7984 299.6397 -9201.7163 -7453.7984 299.6397 211.0392 290.6999 30368.4192 211.0392 290.6999
ENERGY: 300000 1.5703 4.8530 3.5803 0.0000 -10535.7310 1361.2317 0.0000 0.0000 1747.4865 -7417.0092 299.5657 -9164.4957 -7443.1757 301.5774 -461.4155 -361.2914 30024.2084 -251.0224 -183.3508
ENERGY: 600000 1.3437 3.4264 4.5013 0.0000 -10787.3864 1572.7920 0.0000 0.0000 1762.9259 -7442.3972 302.2125 -9205.3231 -7447.4922 300.6734 762.4536 820.0804 30459.5521 53.9985 114.8157
ENERGY: 900000 4.6234 1.4554 4.0344 0.0000 -10545.2653 1398.5811 0.0000 0.0000 1720.5089 -7416.0622 294.9410 -9136.5711 -7433.1430 300.9561 -383.9003 -316.8615 30236.4131 -10.3550 63.0928
ENERGY: 1200000 0.1794 3.9876 4.3429 0.0000 -10758.0380 1513.9289 0.0000 0.0000 1762.3610 -7473.2382 302.1156 -9235.5992 -7428.0838 302.5439 572.3891 645.2723 29827.5152 33.5504 97.8639
ENERGY: 1500000 1.1008 1.9736 4.1811 0.0000 -10804.0696 1522.0720 0.0000 0.0000 1783.0488 -7491.6934 305.6621 -9274.7421 -7435.5361 302.2884 588.9440 606.2842 29935.8281 48.1964 111.3181
TCL: Running FEP window  18: Lambda1 0.1499999999999997 Lambda2 0.09999999999999969 [dLambda -0.05 ]
TCL: Setting parameter firsttimestep to 0
TCL: Setting parameter alchLambda to 0.1499999999999997
Info: NONBONDED TABLE R-SQUARED SPACING: 0.0625
Info: NONBONDED TABLE SIZE: 705 POINTS
TCL: Setting parameter alchLambda2 to 0.09999999999999969
Info: NONBONDED TABLE R-SQUARED SPACING: 0.0625
Info: NONBONDED TABLE SIZE: 705 POINTS
TCL: Running for 1500000 steps
ETITLE: TS BOND ANGLE DIHED IMPRP ELECT VDW BOUNDARY MISC KINETIC TOTAL TEMP POTENTIAL TOTALAVG TEMPAVG PRESSURE GPRESSURE VOLUME PRESSAVG GPRESSAVG
ENERGY: 0 1.1008 1.9736 4.1811 0.0000 -10804.0692 1522.1120 0.0000 0.0000 1782.1930 -7492.5088 305.5153 -9274.7017 -7492.5088 305.5153 524.7174 607.4985 29935.8281 524.7174 607.4985
ENERGY: 300000 1.4065 2.3384 4.0783 0.0000 -10629.7751 1393.6005 0.0000 0.0000 1690.9183 -7537.4331 289.8684 -9228.3514 -7480.1987 296.4720 -259.2529 -151.2641 29706.2641 180.7487 234.8047
ENERGY: 600000 0.0435 2.8750 3.9331 0.0000 -10598.5152 1455.5622 0.0000 0.0000 1782.4746 -7353.6268 305.5636 -9136.1014 -7464.2529 299.7533 181.9515 191.8243 30653.6397 156.1446 204.1505
ENERGY: 900000 0.6265 5.8843 4.8155 0.0000 -10406.6290 1318.6840 0.0000 0.0000 1754.9797 -7321.6388 300.8503 -9076.6186 -7440.7956 300.3065 -722.3579 -753.5511 30673.5641 21.6699 65.5795
ENERGY: 1200000 0.7709 2.0989 4.2509 0.0000 -10621.1751 1372.4364 0.0000 0.0000 1700.3009 -7541.3170 291.4769 -9241.6180 -7443.4600 299.7642 -614.0504 -622.9884 30065.8686 57.2730 89.6997
ENERGY: 1500000 0.7193 4.2256 6.3424 0.0000 -10568.1295 1394.4220 0.0000 0.0000 1741.7329 -7420.6873 298.5794 -9162.4202 -7447.2724 299.8771 -153.0607 -89.0261 30007.4812 87.1241 124.2511
TCL: Running FEP window  19: Lambda1 0.09999999999999969 Lambda2 0.049999999999999684 [dLambda -0.05 ]
TCL: Setting parameter firsttimestep to 0
TCL: Setting parameter alchLambda to 0.09999999999999969
Info: NONBONDED TABLE R-SQUARED SPACING: 0.0625
Info: NONBONDED TABLE SIZE: 705 POINTS
TCL: Setting parameter alchLambda2 to 0.049999999999999684
Info: NONBONDED TABLE R-SQUARED SPACING: 0.0625
Info: NONBONDED TABLE SIZE: 705 POINTS
TCL: Running for 1500000 steps
ETITLE: TS BOND ANGLE DIHED IMPRP ELECT VDW BOUNDARY MISC KINETIC TOTAL TEMP POTENTIAL TOTALAVG TEMPAVG PRESSURE GPRESSURE VOLUME PRESSAVG GPRESSAVG
ENERGY: 0 0.7193 4.2256 6.3424 0.0000 -10568.1293 1394.5939 0.0000 0.0000 1740.8956 -7421.3525 298.4359 -9162.2481 -7421.3525 298.4359 -152.1315 -91.1400 30007.4812 -152.1315 -91.1400
ENERGY: 300000 1.6629 2.6129 5.1954 0.0000 -10761.2167 1440.8942 0.0000 0.0000 1763.0024 -7547.8489 302.2256 -9310.8512 -7439.1060 299.7549 -336.6472 -349.6371 30514.3302 -149.6222 -110.8011
ENERGY: 600000 0.9737 1.5395 6.0045 0.0000 -10736.8448 1519.0843 0.0000 0.0000 1795.7045 -7413.5384 307.8316 -9209.2429 -7430.8451 303.4515 723.3594 691.1649 30079.9143 66.0833 103.0468
ENERGY: 900000 0.2176 3.4081 4.4183 0.0000 -10703.9053 1477.0247 0.0000 0.0000 1711.0964 -7507.7402 293.3275 -9218.8365 -7457.1230 301.3294 287.5025 357.3110 29791.0885 29.3266 79.6222
ENERGY: 1200000 0.0001 2.0582 4.9912 0.0000 -10741.0405 1542.8051 0.0000 0.0000 1734.7226 -7456.4633 297.3777 -9191.1858 -7449.5179 300.8353 948.8690 982.4857 29870.0270 -16.0027 35.9949
ENERGY: 1500000 0.0698 3.0852 5.1443 0.0000 -10672.4777 1474.3832 0.0000 0.0000 1743.2119 -7446.5833 298.8329 -9189.7952 -7453.2235 300.1117 294.6486 402.5102 30182.0433 20.7813 77.2233
TCL: Running FEP window  20: Lambda1 0.049999999999999684 Lambda2 0.0    [dLambda -0.049999999999999684]
TCL: Setting parameter firsttimestep to 0
TCL: Setting parameter alchLambda to 0.049999999999999684
Info: NONBONDED TABLE R-SQUARED SPACING: 0.0625
Info: NONBONDED TABLE SIZE: 705 POINTS
TCL: Setting parameter alchLambda2 to 0.0
Info: NONBONDED TABLE R-SQUARED SPACING: 0.0625
Info: NONBONDED TABLE SIZE: 705 POINTS
TCL: Running for 1500000 steps
ETITLE: TS BOND ANGLE DIHED IMPRP ELECT VDW BOUNDARY MISC KINETIC TOTAL TEMP POTENTIAL TOTALAVG TEMPAVG PRESSURE GPRESSURE VOLUME PRESSAVG GPRESSAVG
ENERGY: 0 0.0698 3.0852 5.1443 0.0000 -10672.4783 1474.1935 0.0000 0.0000 1742.3948 -7447.5907 298.6929 -9189.9855 -7447.5907 298.6929 294.3741 397.3769 30182.0433 294.3741 397.3769
ENERGY: 300000 0.6965 3.0168 4.8519 0.0000 -10583.3576 1360.2739 0.0000 0.0000 1759.9695 -7454.5489 301.7057 -9214.5185 -7450.3544 299.4694 -437.1316 -336.1399 29880.1352 -75.3161 8.5125
ENERGY: 600000 0.0447 4.8179 6.6972 0.0000 -10694.8763 1461.1716 0.0000 0.0000 1709.2882 -7512.8567 293.0175 -9222.1449 -7443.7287 298.1319 124.7599 190.2757 30040.5099 -212.4794 -124.9353
ENERGY: 900000 0.0825 1.6006 4.4605 0.0000 -10532.1314 1332.3382 0.0000 0.0000 1773.5369 -7420.1126 304.0315 -9193.6495 -7452.0813 299.7702 -883.2468 -768.3819 30275.4661 -214.5058 -133.4365
ENERGY: 1200000 0.1170 2.7720 3.8769 0.0000 -10721.1415 1467.7855 0.0000 0.0000 1742.7982 -7503.7918 298.7620 -9246.5900 -7456.8709 298.8545 339.0966 351.5305 29754.2187 -138.9642 -76.1397
ENERGY: 1500000 0.7404 1.4191 4.1399 0.0000 -10739.6473 1413.1273 0.0000 0.0000 1747.5747 -7572.6459 299.5809 -9320.2206 -7466.9720 299.1828 -279.2424 -211.9284 29630.8025 -84.5125 -20.7238
TCL: Exiting due to exit command.
