Info: SIMULATION PARAMETERS:
Info: TIMESTEP               2
Info: NUMBER OF STEPS        0
Info: STEPS PER CYCLE        10
Info: PERIODIC CELL BASIS 1  31.1071 0 0
Info: PERIODIC CELL BASIS 2  0 31.4634 0
Info: PERIODIC CELL BASIS 3  0 0 31.7406
Info: PERIODIC CELL CENTER   0 0 0
Info: WRAPPING WATERS AROUND PERIODIC BOUNDARIES ON OUTPUT.
Info: WRAPPING ALL CLUSTERS AROUND PERIODIC BOUNDARIES ON OUTPUT.
Info: FIRST LDB TIMESTEP     50
Info: LAST LDB TIMESTEP     -1
Info: HOM BACKGROUND SCALING 1
Info: PME BACKGROUND SCALING 1
Info: MIN ATOMS PER PATCH    40
Info: EMPTY PATCH LOAD       40 ATOMS
Info: VELOCITY FILE          mobley_8685905_equil.vel
Info: CENTER OF MASS MOVING INITIALLY? NO
Info: DIELECTRIC             1
Info: EXCLUDE                SCALED ONE-FOUR
Info: 1-4 ELECTROSTATICS SCALED BY 0.833333
Info: MODIFIED 1-4 VDW PARAMETERS WILL BE USED
Info: DCD FILENAME           mobley_8685905_prod.dcd
Info: DCD FREQUENCY          100000
Info: DCD FIRST STEP         100000
Info: DCD FILE WILL CONTAIN UNIT CELL DATA
Info: XST FILENAME           mobley_8685905_prod.xst
Info: XST FREQUENCY          100000
Info: NO VELOCITY DCD OUTPUT
Info: NO FORCE DCD OUTPUT
Info: OUTPUT FILENAME        mobley_8685905_prod
Info: BINARY OUTPUT FILES WILL BE USED
Info: RESTART FILENAME       mobley_8685905_prod.restart
Info: RESTART FREQUENCY      100000
Info: BINARY RESTART FILES WILL BE USED
Info: CUTOFF                 9
Info: PAIRLIST DISTANCE      11
Info: PAIRLIST SHRINK RATE   0.01
Info: PAIRLIST GROW RATE     0.01
Info: PAIRLIST TRIGGER       0.3
Info: PAIRLISTS PER CYCLE    2
Info: PAIRLISTS ENABLED
Info: MARGIN                 2
Info: HYDROGEN GROUP CUTOFF  2.5
Info: PATCH DIMENSION        15.5
Info: ENERGY OUTPUT STEPS    100000
Info: ENERGY EVALUATION STEPS    100000
Info: OUTPUT ENERGY PRECISION 4
Info: CROSSTERM ENERGY INCLUDED IN DIHEDRAL
Info: TIMING OUTPUT STEPS    1000000
Info: PRESSURE OUTPUT STEPS  100000
Info: ALCHEMICAL FEP ON
Info: FEP CURRENT LAMBDA VALUE     1
Info: FEP COMPARISON LAMBDA VALUE  0.95
Info: FEP INTRA-ALCHEMICAL NON-BONDED INTERACTIONS WILL BE RETAINED
Info: FEP INTRA-ALCHEMICAL BONDED INTERACTIONS WILL BE RETAINED
Info: FEP VDW SHIFTING COEFFICIENT 5
Info: FEP ELEC. ACTIVE FOR ANNIHILATED PARTICLES BETWEEN LAMBDA = 0 AND LAMBDA = 0.5
Info: FEP ELEC. ACTIVE FOR EXNIHILATED PARTICLES BETWEEN LAMBDA = 0.5 AND LAMBDA = 1
Info: FEP VDW ACTIVE FOR ANNIHILATED PARTICLES BETWEEN LAMBDA = 0 AND LAMBDA = 1
Info: FEP VDW ACTIVE FOR EXNIHILATED PARTICLES BETWEEN LAMBDA = 0 AND LAMBDA = 1
Info: FEP BOND ACTIVE FOR ANNIHILATED PARTICLES BETWEEN LAMBDA = 1 AND LAMBDA = 1
Info: FEP BOND ACTIVE FOR EXNIHILATED PARTICLES BETWEEN LAMBDA = 0 AND LAMBDA = 0
Info: LANGEVIN DYNAMICS ACTIVE
Info: LANGEVIN TEMPERATURE   300
Info: LANGEVIN USING BBK INTEGRATOR
Info: LANGEVIN DAMPING COEFFICIENT IS 1 INVERSE PS
Info: LANGEVIN DYNAMICS APPLIED TO HYDROGENS
Info: LANGEVIN PISTON PRESSURE CONTROL ACTIVE
Info:        TARGET PRESSURE IS 1.01325 BAR
Info:     OSCILLATION PERIOD IS 50 FS
Info:             DECAY TIME IS 25 FS
Info:     PISTON TEMPERATURE IS 300 K
Info:       PRESSURE CONTROL IS GROUP-BASED
Info:    INITIAL STRAIN RATE IS 0.000406221 0.000406221 0.000406221
Info:       CELL FLUCTUATION IS ISOTROPIC
Info: PARTICLE MESH EWALD (PME) ACTIVE
Info: PME TOLERANCE               1e-06
Info: PME EWALD COEFFICIENT       0.348832
Info: PME INTERPOLATION ORDER     4
Info: PME GRID DIMENSIONS         32 32 32
Info: PME MAXIMUM GRID SPACING    1
Info: PME CALCULATION WILL BE PERFORMED ON GPU
Info: FULL ELECTROSTATIC EVALUATION FREQUENCY      2
Info: USING VERLET I (r-RESPA) MTS SCHEME.
Info: C1 SPLITTING OF LONG RANGE ELECTROSTATICS
Info: PLACING ATOMS IN PATCHES BY HYDROGEN GROUPS
Info: RIGID BONDS TO HYDROGEN : ALL
Info:         ERROR TOLERANCE : 1e-08
Info:          MAX ITERATIONS : 100
Info: RIGID WATER USING SETTLE ALGORITHM
Info: RANDOM NUMBER SEED     1743508685
Info: USE HYDROGEN BONDS?    NO
Info: Using AMBER format force field!
Info: AMBER PARM FILE        mobley_8685905.prmtop
Info: COORDINATE PDB         mobley_8685905.pdb
Info: Exclusions will be read from PARM file!
Info: SCNB (VDW SCALING)     2
Info: USING ARITHMETIC MEAN TO COMBINE L-J SIGMA PARAMETERS
Info: BINARY COORDINATES     mobley_8685905_equil.coor
Info: SUMMARY OF PARAMETERS:
Info: 6 BONDS
Info: 7 ANGLES
Info:   7 HARMONIC
Info:   0 COSINE-BASED
Info: 3 DIHEDRAL
Info: 0 IMPROPER
Info: 0 CROSSTERM
Info: 0 VDW
Info: 21 VDW_PAIRS
Info: 0 NBTHOLE_PAIRS
Info: To read alchdata from file: mobley_8685905.pdb
Info: To read alchflag data from column: 5
Info: STRUCTURE SUMMARY:
Info: 2996 ATOMS
Info: 2995 BONDS
Info: 12 ANGLES
Info: 12 DIHEDRALS
Info: 0 IMPROPERS
Info: 0 CROSSTERMS
Info: 3016 EXCLUSIONS
Info: 2989 RIGID BONDS
Info: ALCH: 0 ATOMS TO DISAPPEAR IN FINAL STATE
Info: ALCH: 8 ATOMS TO APPEAR IN FINAL STATE
Info: 5999 DEGREES OF FREEDOM
Info: 1003 HYDROGEN GROUPS
Info: 3 ATOMS IN LARGEST HYDROGEN GROUP
Info: 1003 MIGRATION GROUPS
Info: 3 ATOMS IN LARGEST MIGRATION GROUP
Info: TOTAL MASS = 18124.9 amu
Info: TOTAL CHARGE = -4.47035e-08 e
Info: MASS DENSITY = 0.968843 g/cm^3
Info: ATOM DENSITY = 0.0964409 atoms/A^3
Info: ADDED 0 IMPLICIT EXCLUSIONS
Info: NONBONDED TABLE R-SQUARED SPACING: 0.0625
Info: NONBONDED TABLE SIZE: 705 POINTS
Info: REDUCING NUMBER OF PATCHES TO IMPROVE LOAD BALANCE
Info: REMOVING COM VELOCITY -0.11675 -0.0253357 0.0288261
Info: Use 3D box decompostion in PME FFT.
Info: Updated CUDA force table with 4096 elements.
Info: Updated CUDA LJ table with 6 x 6 elements.
Info: Found 11 unique exclusion lists needing 16 bytes
TCL: Running for 1500000 steps
ETITLE: TS BOND ANGLE DIHED IMPRP ELECT VDW BOUNDARY MISC KINETIC TOTAL TEMP POTENTIAL TOTALAVG TEMPAVG PRESSURE GPRESSURE VOLUME PRESSAVG GPRESSAVG
ENERGY: 0 0.4572 1.6739 4.3280 0.0000 -10827.1505 1429.2331 0.0000 0.0000 1783.5725 -7607.8858 299.2280 -9391.4583 -7607.8858 299.2280 -307.4773 -219.8876 31065.6686 -307.4773 -219.8876
ENERGY: 300000 2.1280 3.8741 3.6410 0.0000 -10847.5144 1477.1726 0.0000 0.0000 1831.3481 -7529.3507 307.2433 -9360.6988 -7589.9907 299.7362 318.3424 307.2155 30978.6048 -207.1851 -144.8228
ENERGY: 600000 1.6089 3.2408 3.7716 0.0000 -10962.8558 1528.8525 0.0000 0.0000 1771.8273 -7653.5546 297.2576 -9425.3819 -7600.4645 300.8237 614.8442 631.9672 30614.5173 -74.7112 -17.0573
ENERGY: 900000 1.4591 3.2145 3.8557 0.0000 -10904.9389 1455.2609 0.0000 0.0000 1790.8750 -7650.2739 300.4532 -9441.1488 -7597.5487 300.4595 -219.8797 -183.4519 31214.8259 30.9103 85.4400
ENERGY: 1200000 2.5863 3.9744 3.7492 0.0000 -10909.5942 1433.7496 0.0000 0.0000 1803.9871 -7661.5476 302.6530 -9465.5348 -7591.2271 300.6236 -180.3775 -75.4118 30240.7164 -90.8635 -31.2622
ENERGY: 1500000 6.7115 2.5461 3.7821 0.0000 -10806.7830 1452.0658 0.0000 0.0000 1804.5863 -7537.0913 302.7535 -9341.6776 -7586.2531 300.8668 -15.2469 128.1810 30798.5228 -52.2533 17.0002
TCL: Running FEP window   2: Lambda1 0.95   Lambda2 0.8999999999999999 [dLambda -0.050000000000000044]
TCL: Setting parameter firsttimestep to 0
TCL: Setting parameter alchLambda to 0.95
Info: NONBONDED TABLE R-SQUARED SPACING: 0.0625
Info: NONBONDED TABLE SIZE: 705 POINTS
TCL: Setting parameter alchLambda2 to 0.8999999999999999
Info: NONBONDED TABLE R-SQUARED SPACING: 0.0625
Info: NONBONDED TABLE SIZE: 705 POINTS
TCL: Running for 1500000 steps
ETITLE: TS BOND ANGLE DIHED IMPRP ELECT VDW BOUNDARY MISC KINETIC TOTAL TEMP POTENTIAL TOTALAVG TEMPAVG PRESSURE GPRESSURE VOLUME PRESSAVG GPRESSAVG
ENERGY: 0 6.7115 2.5461 3.7821 0.0000 -10806.4402 1452.3532 0.0000 0.0000 1803.7170 -7537.3304 302.6077 -9341.0474 -7537.3304 302.6077 29.1756 123.0836 30798.5228 29.1756 123.0836
ENERGY: 300000 0.9662 3.2257 3.9621 0.0000 -10940.0154 1513.6066 0.0000 0.0000 1739.6597 -7678.5952 291.8608 -9418.2549 -7603.0664 300.7922 800.7593 888.1852 30069.0479 269.2174 322.3283
ENERGY: 600000 1.8067 5.0552 3.6561 0.0000 -10851.2445 1401.9479 0.0000 0.0000 1851.9546 -7586.8239 310.7004 -9438.7786 -7594.1698 301.8642 -452.6312 -367.8149 30768.5297 33.8832 87.3142
ENERGY: 900000 3.7865 1.9563 3.7335 0.0000 -10860.6003 1433.2768 0.0000 0.0000 1762.6228 -7655.2245 295.7133 -9417.8473 -7604.9416 301.1988 -468.1239 -430.3508 31139.6506 -78.7005 -28.3505
ENERGY: 1200000 0.4406 4.5647 3.6069 0.0000 -10860.4924 1500.3963 0.0000 0.0000 1830.3756 -7521.1082 307.0801 -9351.4839 -7614.7613 301.5901 350.0889 396.7009 30798.8103 -34.3467 14.3766
ENERGY: 1500000 1.7722 1.9056 3.6386 0.0000 -10923.7336 1499.1427 0.0000 0.0000 1811.8078 -7605.4668 303.9650 -9417.2746 -7608.4396 302.1258 39.6301 102.2834 31237.4064 -50.1393 4.3800
TCL: Running FEP window   3: Lambda1 0.8999999999999999 Lambda2 0.8499999999999999 [dLambda -0.050000000000000044]
TCL: Setting parameter firsttimestep to 0
TCL: Setting parameter alchLambda to 0.8999999999999999
Info: NONBONDED TABLE R-SQUARED SPACING: 0.0625
Info: NONBONDED TABLE SIZE: 705 POINTS
TCL: Setting parameter alchLambda2 to 0.8499999999999999
Info: NONBONDED TABLE R-SQUARED SPACING: 0.0625
Info: NONBONDED TABLE SIZE: 705 POINTS
TCL: Running for 1500000 steps
ETITLE: TS BOND ANGLE DIHED IMPRP ELECT VDW BOUNDARY MISC KINETIC TOTAL TEMP POTENTIAL TOTALAVG TEMPAVG PRESSURE GPRESSURE VOLUME PRESSAVG GPRESSAVG
ENERGY: 0 1.7722 1.9056 3.6386 0.0000 -10923.6136 1499.4677 0.0000 0.0000 1810.8852 -7605.9443 303.8103 -9416.8295 -7605.9443 303.8103 9.0337 101.7095 31237.4064 9.0337 101.7095
ENERGY: 300000 1.7113 0.7576 3.5906 0.0000 -10856.9117 1466.1749 0.0000 0.0000 1787.7818 -7596.8956 299.9342 -9384.6773 -7602.3406 301.6547 -49.1739 14.1435 31187.3259 -108.3061 -45.3448
ENERGY: 600000 1.3114 2.4870 3.9294 0.0000 -10729.7336 1424.4027 0.0000 0.0000 1758.6989 -7538.9043 295.0550 -9297.6031 -7575.1525 301.6517 -36.4761 -3.4731 31296.1028 -158.0435 -105.6940
ENERGY: 900000 1.7595 2.2841 3.7252 0.0000 -10850.8415 1486.5614 0.0000 0.0000 1788.4844 -7568.0269 300.0521 -9356.5113 -7574.2266 301.5826 433.5393 430.9099 30820.8800 -133.0360 -83.9125
ENERGY: 1200000 1.6623 3.1054 3.7604 0.0000 -10808.0055 1447.4002 0.0000 0.0000 1755.2674 -7596.8097 294.4793 -9352.0771 -7588.5463 301.0253 269.3062 273.1127 30625.4213 -61.6177 -15.8005
ENERGY: 1500000 2.7015 3.8141 3.5215 0.0000 -10847.3936 1509.0912 0.0000 0.0000 1817.9057 -7510.3596 304.9881 -9328.2653 -7592.9890 301.3085 710.9750 721.6318 30749.0491 -12.8289 32.8641
TCL: Running FEP window   4: Lambda1 0.8499999999999999 Lambda2 0.7999999999999998 [dLambda -0.050000000000000044]
TCL: Setting parameter firsttimestep to 0
TCL: Setting parameter alchLambda to 0.8499999999999999
Info: NONBONDED TABLE R-SQUARED SPACING: 0.0625
Info: NONBONDED TABLE SIZE: 705 POINTS
TCL: Setting parameter alchLambda2 to 0.7999999999999998
Info: NONBONDED TABLE R-SQUARED SPACING: 0.0625
Info: NONBONDED TABLE SIZE: 705 POINTS
TCL: Running for 1500000 steps
ETITLE: TS BOND ANGLE DIHED IMPRP ELECT VDW BOUNDARY MISC KINETIC TOTAL TEMP POTENTIAL TOTALAVG TEMPAVG PRESSURE GPRESSURE VOLUME PRESSAVG GPRESSAVG
ENERGY: 0 2.7015 3.8141 3.5215 0.0000 -10846.9618 1509.3016 0.0000 0.0000 1816.9860 -7510.6370 304.8338 -9327.6230 -7510.6370 304.8338 624.8471 714.1623 30749.0491 624.8471 714.1623
ENERGY: 300000 1.2821 6.5727 3.9122 0.0000 -10737.0742 1351.0896 0.0000 0.0000 1795.5611 -7578.6565 301.2394 -9374.2176 -7547.1783 305.6241 -951.7659 -930.8360 31630.0438 -133.6079 -43.0585
ENERGY: 600000 2.0111 3.7457 4.2013 0.0000 -10816.8609 1392.9091 0.0000 0.0000 1824.3007 -7589.6929 306.0610 -9413.9936 -7556.6607 303.3610 -740.6100 -654.9551 31119.0479 -126.1826 -56.3868
ENERGY: 900000 3.6926 2.5850 3.6522 0.0000 -10933.9973 1446.0669 0.0000 0.0000 1754.3093 -7723.6912 294.3186 -9478.0006 -7587.7133 301.6403 -690.3251 -577.7737 31252.6578 -259.3672 -182.0336
ENERGY: 1200000 4.4789 3.6811 3.5243 0.0000 -10798.8455 1451.8140 0.0000 0.0000 1755.1169 -7580.2302 294.4541 -9335.3471 -7598.7024 299.9602 57.6112 73.5805 31121.1924 -294.8178 -228.7382
ENERGY: 1500000 0.8727 5.2835 3.5398 0.0000 -10802.1760 1411.0764 0.0000 0.0000 1751.4839 -7629.9196 293.8446 -9381.4035 -7600.3059 299.8529 -349.4158 -342.2126 31074.1062 -246.3706 -188.9581
TCL: Running FEP window   5: Lambda1 0.7999999999999998 Lambda2 0.7499999999999998 [dLambda -0.050000000000000044]
TCL: Setting parameter firsttimestep to 0
TCL: Setting parameter alchLambda to 0.7999999999999998
Info: NONBONDED TABLE R-SQUARED SPACING: 0.0625
Info: NONBONDED TABLE SIZE: 705 POINTS
TCL: Setting parameter alchLambda2 to 0.7499999999999998
Info: NONBONDED TABLE R-SQUARED SPACING: 0.0625
Info: NONBONDED TABLE SIZE: 705 POINTS
TCL: Running for 1500000 steps
ETITLE: TS BOND ANGLE DIHED IMPRP ELECT VDW BOUNDARY MISC KINETIC TOTAL TEMP POTENTIAL TOTALAVG TEMPAVG PRESSURE GPRESSURE VOLUME PRESSAVG GPRESSAVG
ENERGY: 0 0.8727 5.2835 3.5398 0.0000 -10801.8328 1411.1037 0.0000 0.0000 1750.6162 -7630.4168 293.6990 -9381.0330 -7630.4168 293.6990 -436.0749 -349.0726 31074.1062 -436.0749 -349.0726
ENERGY: 300000 2.9726 1.9784 3.8045 0.0000 -10793.8608 1398.8545 0.0000 0.0000 1788.2509 -7597.9999 300.0129 -9386.2508 -7592.8472 299.1873 -418.9775 -400.7629 31100.1448 -336.8162 -274.2861
ENERGY: 600000 2.1707 4.7579 4.0029 0.0000 -10873.2995 1382.0549 0.0000 0.0000 1798.5163 -7681.7968 301.7352 -9480.3131 -7604.3399 300.2414 -1179.8013 -1101.8529 31362.2433 -360.9782 -285.7962
ENERGY: 900000 1.6573 3.0889 3.7110 0.0000 -10687.7743 1326.9470 0.0000 0.0000 1797.0265 -7555.3435 301.4852 -9352.3700 -7611.7592 298.6980 -883.4552 -803.4018 31178.0886 -344.8391 -269.8213
ENERGY: 1200000 4.4617 1.4797 3.6917 0.0000 -10811.5680 1395.9403 0.0000 0.0000 1739.2620 -7666.7326 291.7941 -9405.9946 -7623.1306 297.9631 -1069.3166 -961.0294 31550.4358 -316.7195 -234.0063
ENERGY: 1500000 5.9512 4.2067 3.6600 0.0000 -10796.5727 1435.7073 0.0000 0.0000 1756.2436 -7590.8039 294.6431 -9347.0475 -7626.0362 297.3278 -393.3029 -289.4353 31426.1760 -317.6367 -235.3276
TCL: Running FEP window   6: Lambda1 0.7499999999999998 Lambda2 0.6999999999999997 [dLambda -0.050000000000000044]
TCL: Setting parameter firsttimestep to 0
TCL: Setting parameter alchLambda to 0.7499999999999998
Info: NONBONDED TABLE R-SQUARED SPACING: 0.0625
Info: NONBONDED TABLE SIZE: 705 POINTS
TCL: Setting parameter alchLambda2 to 0.6999999999999997
Info: NONBONDED TABLE R-SQUARED SPACING: 0.0625
Info: NONBONDED TABLE SIZE: 705 POINTS
TCL: Running for 1500000 steps
ETITLE: TS BOND ANGLE DIHED IMPRP ELECT VDW BOUNDARY MISC KINETIC TOTAL TEMP POTENTIAL TOTALAVG TEMPAVG PRESSURE GPRESSURE VOLUME PRESSAVG GPRESSAVG
ENERGY: 0 5.9512 4.2067 3.6600 0.0000 -10796.0935 1435.8473 0.0000 0.0000 1755.3933 -7591.0351 294.5004 -9346.4284 -7591.0351 294.5004 -387.8274 -297.7244 31426.1760 -387.8274 -297.7244
ENERGY: 300000 2.1310 3.9879 3.8775 0.0000 -10962.7982 1503.8447 0.0000 0.0000 1800.5127 -7648.4445 302.0701 -9448.9572 -7613.4228 298.3470 545.9691 524.9970 30361.3102 -545.2653 -497.0801
ENERGY: 600000 0.5919 4.5403 3.5443 0.0000 -10794.9524 1426.2253 0.0000 0.0000 1822.7339 -7537.3167 305.7981 -9360.0506 -7595.3757 301.1032 -289.3326 -180.7475 31179.8454 -359.2949 -292.6051
ENERGY: 900000 1.2035 2.7321 3.5620 0.0000 -10905.5921 1475.0062 0.0000 0.0000 1782.7412 -7640.3471 299.0886 -9423.0883 -7607.4898 301.1082 259.4525 327.5028 30407.1056 -363.8913 -297.5930
ENERGY: 1200000 1.4584 4.1578 4.6548 0.0000 -10792.7153 1408.3219 0.0000 0.0000 1795.5446 -7578.5777 301.2366 -9374.1223 -7605.3829 300.8250 -129.4500 -86.5388 30637.1623 -214.5110 -150.0050
ENERGY: 1500000 1.6151 2.6386 3.7975 0.0000 -10964.0549 1551.5605 0.0000 0.0000 1780.3388 -7624.1045 298.6855 -9404.4433 -7598.5071 300.5546 653.5316 736.7726 30523.8762 -159.7191 -95.2575
TCL: Running FEP window   7: Lambda1 0.6999999999999997 Lambda2 0.6499999999999997 [dLambda -0.050000000000000044]
TCL: Setting parameter firsttimestep to 0
TCL: Setting parameter alchLambda to 0.6999999999999997
Info: NONBONDED TABLE R-SQUARED SPACING: 0.0625
Info: NONBONDED TABLE SIZE: 705 POINTS
TCL: Setting parameter alchLambda2 to 0.6499999999999997
Info: NONBONDED TABLE R-SQUARED SPACING: 0.0625
Info: NONBONDED TABLE SIZE: 705 POINTS
TCL: Running for 1500000 steps
ETITLE: TS BOND ANGLE DIHED IMPRP ELECT VDW BOUNDARY MISC KINETIC TOTAL TEMP POTENTIAL TOTALAVG TEMPAVG PRESSURE GPRESSURE VOLUME PRESSAVG GPRESSAVG
ENERGY: 0 1.6151 2.6386 3.7975 0.0000 -10963.8601 1551.4236 0.0000 0.0000 1779.4948 -7624.8906 298.5439 -9404.3854 -7624.8906 298.5439 651.8958 727.5848 30523.8762 651.8958 727.5848
ENERGY: 300000 1.1600 3.5291 4.0061 0.0000 -11065.7514 1564.8232 0.0000 0.0000 1778.5095 -7713.7235 298.3786 -9492.2329 -7644.8988 297.7676 476.6996 484.2836 30799.1313 227.7341 281.6698
ENERGY: 600000 3.4851 2.1899 3.7527 0.0000 -10876.7400 1474.4184 0.0000 0.0000 1780.7630 -7612.1310 298.7567 -9392.8940 -7645.5876 298.7292 1.2823 65.5644 31092.7293 74.7000 123.9623
ENERGY: 900000 1.6432 3.4320 3.7866 0.0000 -10923.1880 1482.9592 0.0000 0.0000 1827.7884 -7603.5786 306.6461 -9431.3670 -7642.9453 298.7495 438.3743 452.8246 30652.8025 67.5432 116.1133
ENERGY: 1200000 1.2869 5.4294 3.8625 0.0000 -11039.7988 1517.3162 0.0000 0.0000 1790.8628 -7721.0410 300.4511 -9511.9038 -7647.8964 298.4665 296.8527 388.7755 30319.9697 82.6268 131.0412
ENERGY: 1500000 1.9594 3.3728 3.4806 0.0000 -10850.0500 1484.8563 0.0000 0.0000 1776.5727 -7579.8082 298.0537 -9356.3809 -7642.7686 298.9568 317.6290 326.9127 30926.6420 120.9973 161.8741
TCL: Running FEP window   8: Lambda1 0.6499999999999997 Lambda2 0.5999999999999996 [dLambda -0.050000000000000044]
TCL: Setting parameter firsttimestep to 0
TCL: Setting parameter alchLambda to 0.6499999999999997
Info: NONBONDED TABLE R-SQUARED SPACING: 0.0625
Info: NONBONDED TABLE SIZE: 705 POINTS
TCL: Setting parameter alchLambda2 to 0.5999999999999996
Info: NONBONDED TABLE R-SQUARED SPACING: 0.0625
Info: NONBONDED TABLE SIZE: 705 POINTS
TCL: Running for 1500000 steps
ETITLE: TS BOND ANGLE DIHED IMPRP ELECT VDW BOUNDARY MISC KINETIC TOTAL TEMP POTENTIAL TOTALAVG TEMPAVG PRESSURE GPRESSURE VOLUME PRESSAVG GPRESSAVG
ENERGY: 0 1.9594 3.3728 3.4806 0.0000 -10850.0110 1484.7789 0.0000 0.0000 1775.7050 -7580.7144 297.9081 -9356.4193 -7580.7144 297.9081 248.5942 319.4027 30926.6420 248.5942 319.4027
ENERGY: 300000 1.9256 2.8453 3.8741 0.0000 -10944.7706 1547.5520 0.0000 0.0000 1748.7801 -7639.7935 293.3910 -9388.5736 -7599.5612 298.3254 575.5172 652.1145 30655.3891 -137.6719 -76.6309
ENERGY: 600000 1.2341 2.1298 3.7087 0.0000 -10777.1780 1422.3866 0.0000 0.0000 1819.1648 -7528.5540 305.1993 -9347.7188 -7609.9966 300.1605 -166.3891 -98.5964 30940.7723 -183.3208 -107.1931
ENERGY: 900000 3.9371 3.6308 3.5783 0.0000 -10884.4365 1503.8939 0.0000 0.0000 1800.5949 -7568.8015 302.0839 -9369.3965 -7603.9404 300.6094 327.3740 428.9355 30867.1716 -80.8648 -13.3585
ENERGY: 1200000 2.3798 4.8185 3.9615 0.0000 -10746.7862 1370.0742 0.0000 0.0000 1770.1011 -7595.4511 296.9680 -9365.5523 -7605.3055 300.3185 -707.3357 -607.5328 31030.7673 -79.4279 -11.5204
ENERGY: 1500000 1.3085 3.1721 3.5885 0.0000 -10840.5111 1415.0267 0.0000 0.0000 1779.8305 -7637.5848 298.6003 -9417.4153 -7608.4108 299.9024 -495.6275 -418.4852 30808.1273 -111.8497 -46.1196
TCL: Running FEP window   9: Lambda1 0.5999999999999996 Lambda2 0.5499999999999996 [dLambda -0.050000000000000044]
TCL: Setting parameter firsttimestep to 0
TCL: Setting parameter alchLambda to 0.5999999999999996
Info: NONBONDED TABLE R-SQUARED SPACING: 0.0625
Info: NONBONDED TABLE SIZE: 705 POINTS
TCL: Setting parameter alchLambda2 to 0.5499999999999996
Info: NONBONDED TABLE R-SQUARED SPACING: 0.0625
Info: NONBONDED TABLE SIZE: 705 POINTS
TCL: Running for 1500000 steps
ETITLE: TS BOND ANGLE DIHED IMPRP ELECT VDW BOUNDARY MISC KINETIC TOTAL TEMP POTENTIAL TOTALAVG TEMPAVG PRESSURE GPRESSURE VOLUME PRESSAVG GPRESSAVG
ENERGY: 0 1.3085 3.1721 3.5885 0.0000 -10840.3879 1415.2166 0.0000 0.0000 1778.9268 -7638.1754 298.4486 -9417.1022 -7638.1754 298.4486 -496.0728 -421.1858 30808.1273 -496.0728 -421.1858
ENERGY: 300000 2.4841 4.7282 3.6479 0.0000 -10787.7326 1431.6906 0.0000 0.0000 1809.7788 -7535.4030 303.6246 -9345.1818 -7571.1123 305.3072 -144.5445 -73.1610 30959.3672 -219.8767 -153.3359
ENERGY: 600000 2.6562 4.5873 4.0049 0.0000 -10593.0212 1301.5894 0.0000 0.0000 1769.2715 -7510.9119 296.8288 -9280.1834 -7572.5860 303.6590 -1091.0972 -1051.2433 31375.9304 -243.4685 -185.7698
ENERGY: 900000 4.4387 3.5591 3.6188 0.0000 -10890.7070 1454.8970 0.0000 0.0000 1756.0114 -7668.1821 294.6041 -9424.1935 -7604.4581 301.6417 -258.4391 -166.0860 30984.6666 -214.1205 -143.4729
ENERGY: 1200000 0.3711 4.4222 3.7087 0.0000 -10765.5433 1378.5681 0.0000 0.0000 1765.4476 -7613.0255 296.1872 -9378.4731 -7592.1871 301.7351 -646.0443 -561.7671 30953.7718 -256.5620 -186.8262
ENERGY: 1500000 0.3483 3.4221 3.6213 0.0000 -10681.0590 1311.3382 0.0000 0.0000 1765.4239 -7596.9052 296.1833 -9362.3292 -7587.3515 301.1333 -1349.0081 -1267.2297 31579.9322 -179.0960 -113.1335
TCL: Running FEP window  10: Lambda1 0.5499999999999996 Lambda2 0.4999999999999996 [dLambda -0.04999999999999999]
TCL: Setting parameter firsttimestep to 0
TCL: Setting parameter alchLambda to 0.5499999999999996
Info: NONBONDED TABLE R-SQUARED SPACING: 0.0625
Info: NONBONDED TABLE SIZE: 705 POINTS
TCL: Setting parameter alchLambda2 to 0.4999999999999996
Info: NONBONDED TABLE R-SQUARED SPACING: 0.0625
Info: NONBONDED TABLE SIZE: 705 POINTS
TCL: Running for 1500000 steps
ETITLE: TS BOND ANGLE DIHED IMPRP ELECT VDW BOUNDARY MISC KINETIC TOTAL TEMP POTENTIAL TOTALAVG TEMPAVG PRESSURE GPRESSURE VOLUME PRESSAVG GPRESSAVG
ENERGY: 0 0.3483 3.4221 3.6213 0.0000 -10680.6373 1311.2493 0.0000 0.0000 1764.5942 -7597.4021 296.0441 -9361.9963 -7597.4021 296.0441 -1338.9801 -1271.2815 31579.9322 -1338.9801 -1271.2815
ENERGY: 300000 2.3728 2.4311 3.6316 0.0000 -10757.1170 1469.5584 0.0000 0.0000 1818.8335 -7460.2896 305.1437 -9279.1231 -7555.2430 302.3794 174.8137 316.9231 31135.1071 -78.9907 -8.3372
ENERGY: 600000 1.4646 4.0888 4.0418 0.0000 -10765.3089 1419.7706 0.0000 0.0000 1853.4720 -7482.4713 310.9550 -9335.9433 -7559.4187 301.6297 -184.2641 -130.6028 31091.0680 -258.6282 -186.8621
ENERGY: 900000 1.7703 5.0696 3.8167 0.0000 -10864.2042 1444.8861 0.0000 0.0000 1790.7678 -7617.8936 300.4352 -9408.6614 -7577.1609 301.8837 -585.4058 -538.1688 31413.7706 -252.4370 -180.2686
ENERGY: 1200000 1.9769 3.1788 3.8314 0.0000 -11051.6437 1526.1152 0.0000 0.0000 1733.9796 -7782.5618 290.9079 -9516.5414 -7605.2608 301.2038 167.0756 222.9613 30827.0272 -166.2524 -92.2862
ENERGY: 1500000 1.5084 2.9657 3.6910 0.0000 -10872.6427 1489.8673 0.0000 0.0000 1778.5592 -7596.0511 298.3870 -9374.6103 -7607.2413 300.8002 381.7007 556.3155 30551.2883 -119.7075 -46.8065
TCL: Running FEP window  11: Lambda1 0.4999999999999996 Lambda2 0.4499999999999996 [dLambda -0.04999999999999999]
TCL: Setting parameter firsttimestep to 0
TCL: Setting parameter alchLambda to 0.4999999999999996
Info: NONBONDED TABLE R-SQUARED SPACING: 0.0625
Info: NONBONDED TABLE SIZE: 705 POINTS
TCL: Setting parameter alchLambda2 to 0.4499999999999996
Info: NONBONDED TABLE R-SQUARED SPACING: 0.0625
Info: NONBONDED TABLE SIZE: 705 POINTS
TCL: Running for 1500000 steps
ETITLE: TS BOND ANGLE DIHED IMPRP ELECT VDW BOUNDARY MISC KINETIC TOTAL TEMP POTENTIAL TOTALAVG TEMPAVG PRESSURE GPRESSURE VOLUME PRESSAVG GPRESSAVG
ENERGY: 0 1.5084 2.9657 3.6910 0.0000 -10872.6826 1490.0021 0.0000 0.0000 1777.6618 -7596.8535 298.2364 -9374.5153 -7596.8535 298.2364 461.6911 550.8025 30551.2883 461.6911 550.8025
ENERGY: 300000 1.9684 2.7278 4.2128 0.0000 -11019.0481 1544.9058 0.0000 0.0000 1734.4568 -7730.7764 290.9879 -9465.2331 -7637.6481 298.1965 426.4666 557.5771 30469.7042 163.1022 231.8172
ENERGY: 600000 2.2708 4.7939 3.6104 0.0000 -10720.3754 1406.5564 0.0000 0.0000 1777.2181 -7525.9259 298.1620 -9303.1440 -7626.7029 298.7066 -246.3420 -192.0766 31079.1123 -10.4126 57.7535
ENERGY: 900000 2.1732 4.0580 3.7159 0.0000 -10897.5649 1438.4970 0.0000 0.0000 1838.7584 -7610.3624 308.4865 -9449.1208 -7622.1719 300.2456 -409.8505 -313.6711 30954.2870 -4.0779 66.6179
ENERGY: 1200000 1.3659 3.2900 3.9310 0.0000 -10870.5486 1475.3646 0.0000 0.0000 1802.5646 -7584.0326 302.4143 -9386.5972 -7619.2517 300.4251 -178.8936 -74.8550 31325.7521 -11.7851 58.8864
ENERGY: 1500000 2.6682 1.9135 3.5783 0.0000 -10864.7560 1434.7915 0.0000 0.0000 1734.8113 -7686.9933 291.0474 -9421.8045 -7612.9798 300.5054 -135.3717 -134.0703 30608.3208 -15.5054 48.2045
TCL: Running FEP window  12: Lambda1 0.4499999999999996 Lambda2 0.39999999999999963 [dLambda -0.04999999999999999]
TCL: Setting parameter firsttimestep to 0
TCL: Setting parameter alchLambda to 0.4499999999999996
Info: NONBONDED TABLE R-SQUARED SPACING: 0.0625
Info: NONBONDED TABLE SIZE: 705 POINTS
TCL: Setting parameter alchLambda2 to 0.39999999999999963
Info: NONBONDED TABLE R-SQUARED SPACING: 0.0625
Info: NONBONDED TABLE SIZE: 705 POINTS
TCL: Running for 1500000 steps
ETITLE: TS BOND ANGLE DIHED IMPRP ELECT VDW BOUNDARY MISC KINETIC TOTAL TEMP POTENTIAL TOTALAVG TEMPAVG PRESSURE GPRESSURE VOLUME PRESSAVG GPRESSAVG
ENERGY: 0 2.6682 1.9135 3.5783 0.0000 -10864.7560 1435.1440 0.0000 0.0000 1733.8830 -7687.5691 290.8917 -9421.4521 -7687.5691 290.8917 -193.7185 -133.8406 30608.3208 -193.7185 -133.8406
ENERGY: 300000 2.3230 4.0490 3.4465 0.0000 -10810.0276 1374.3301 0.0000 0.0000 1798.4520 -7627.4270 301.7244 -9425.8790 -7626.3287 298.2150 -625.7549 -582.5978 30663.5145 -267.1809 -202.0137
ENERGY: 600000 3.9759 2.1629 4.0291 0.0000 -10799.8849 1381.2738 0.0000 0.0000 1787.9439 -7620.4994 299.9614 -9408.4432 -7621.8345 298.6017 -824.2945 -766.3454 31032.0576 -285.9771 -215.8374
ENERGY: 900000 2.0609 4.3380 4.0530 0.0000 -11024.0347 1532.6165 0.0000 0.0000 1775.8334 -7705.1328 297.9297 -9480.9662 -7628.6049 297.6940 467.4337 530.1866 30593.5953 -224.0444 -152.2473
ENERGY: 1200000 3.8802 2.8279 3.6291 0.0000 -10802.7661 1388.7981 0.0000 0.0000 1775.0164 -7628.6144 297.7926 -9403.6308 -7626.6796 297.6979 -670.0944 -597.0268 30800.1512 -205.2375 -128.0281
ENERGY: 1500000 1.4889 1.8445 3.6957 0.0000 -10909.4420 1467.1536 0.0000 0.0000 1735.5820 -7699.6774 291.1767 -9435.2593 -7627.2556 297.9668 -291.1442 -239.6986 31018.8842 -206.7401 -131.2281
TCL: Running FEP window  13: Lambda1 0.39999999999999963 Lambda2 0.34999999999999964 [dLambda -0.04999999999999999]
TCL: Setting parameter firsttimestep to 0
TCL: Setting parameter alchLambda to 0.39999999999999963
Info: NONBONDED TABLE R-SQUARED SPACING: 0.0625
Info: NONBONDED TABLE SIZE: 705 POINTS
TCL: Setting parameter alchLambda2 to 0.34999999999999964
Info: NONBONDED TABLE R-SQUARED SPACING: 0.0625
Info: NONBONDED TABLE SIZE: 705 POINTS
TCL: Running for 1500000 steps
ETITLE: TS BOND ANGLE DIHED IMPRP ELECT VDW BOUNDARY MISC KINETIC TOTAL TEMP POTENTIAL TOTALAVG TEMPAVG PRESSURE GPRESSURE VOLUME PRESSAVG GPRESSAVG
ENERGY: 0 1.4889 1.8445 3.6957 0.0000 -10909.4425 1467.5251 0.0000 0.0000 1734.7578 -7700.1305 291.0385 -9434.8883 -7700.1305 291.0385 -311.1236 -243.0170 31018.8842 -311.1236 -243.0170
ENERGY: 300000 0.6262 3.6236 3.5576 0.0000 -10957.5353 1467.7650 0.0000 0.0000 1794.5780 -7687.3848 301.0744 -9481.9628 -7668.1615 295.1237 -196.3757 -93.5254 30849.3398 -258.7217 -193.6699
ENERGY: 600000 3.8556 3.7125 3.5431 0.0000 -10820.1832 1405.5796 0.0000 0.0000 1791.2328 -7612.2596 300.5132 -9403.4924 -7628.0930 299.4499 -471.1869 -401.8557 30785.3895 -188.9576 -126.2098
ENERGY: 900000 4.2068 3.7910 3.9422 0.0000 -10678.5018 1378.2046 0.0000 0.0000 1767.2775 -7521.0797 296.4943 -9288.3572 -7623.5760 299.3389 -831.6497 -705.5929 31409.8931 -252.6051 -189.4190
ENERGY: 1200000 1.2933 2.6628 3.6992 0.0000 -10782.3626 1367.2217 0.0000 0.0000 1816.5539 -7590.9317 304.7613 -9407.4856 -7617.3436 300.4866 -859.6469 -774.0125 30934.8850 -332.6721 -271.1895
ENERGY: 1500000 3.2177 3.1113 3.9196 0.0000 -10960.0716 1537.2014 0.0000 0.0000 1752.0866 -7660.5351 293.9457 -9412.6217 -7622.6209 299.8675 384.5924 467.4365 30688.2182 -251.6323 -192.1038
TCL: Running FEP window  14: Lambda1 0.34999999999999964 Lambda2 0.29999999999999966 [dLambda -0.04999999999999999]
TCL: Setting parameter firsttimestep to 0
TCL: Setting parameter alchLambda to 0.34999999999999964
Info: NONBONDED TABLE R-SQUARED SPACING: 0.0625
Info: NONBONDED TABLE SIZE: 705 POINTS
TCL: Setting parameter alchLambda2 to 0.29999999999999966
Info: NONBONDED TABLE R-SQUARED SPACING: 0.0625
Info: NONBONDED TABLE SIZE: 705 POINTS
TCL: Running for 1500000 steps
ETITLE: TS BOND ANGLE DIHED IMPRP ELECT VDW BOUNDARY MISC KINETIC TOTAL TEMP POTENTIAL TOTALAVG TEMPAVG PRESSURE GPRESSURE VOLUME PRESSAVG GPRESSAVG
ENERGY: 0 3.2176 3.1113 3.9196 0.0000 -10960.0711 1537.4322 0.0000 0.0000 1751.2161 -7661.1743 293.7996 -9412.3903 -7661.1743 293.7996 396.6863 465.9405 30688.2182 396.6863 465.9405
ENERGY: 300000 1.5241 2.1676 3.6487 0.0000 -10704.9603 1385.0585 0.0000 0.0000 1760.0400 -7552.5214 295.2800 -9312.5614 -7636.2816 293.4192 -50.5579 -22.3938 30555.9527 -99.2464 -31.8960
ENERGY: 600000 1.6335 5.9395 4.1939 0.0000 -10802.8481 1425.0568 0.0000 0.0000 1761.4086 -7604.6158 295.5096 -9366.0244 -7604.9063 297.2193 30.3076 65.4167 30395.4811 -42.6450 16.5708
ENERGY: 900000 2.8107 2.5585 3.5571 0.0000 -10713.0321 1366.6141 0.0000 0.0000 1766.8814 -7570.6102 296.4278 -9337.4916 -7603.4547 298.5592 -709.9148 -659.4447 31238.8293 -87.8679 -25.7374
ENERGY: 1200000 0.0827 4.1956 3.9433 0.0000 -10846.9431 1463.9721 0.0000 0.0000 1783.8061 -7590.9432 299.2672 -9374.7493 -7616.5222 297.9599 63.8936 47.0612 31059.2930 -82.0310 -21.1946
ENERGY: 1500000 2.8217 2.6483 3.8937 0.0000 -10969.4582 1458.9210 0.0000 0.0000 1800.6664 -7700.5071 302.0959 -9501.1735 -7621.3581 298.3797 -233.0809 -152.5613 30514.3249 -105.9623 -42.1353
TCL: Running FEP window  15: Lambda1 0.29999999999999966 Lambda2 0.24999999999999967 [dLambda -0.04999999999999999]
TCL: Setting parameter firsttimestep to 0
TCL: Setting parameter alchLambda to 0.29999999999999966
Info: NONBONDED TABLE R-SQUARED SPACING: 0.0625
Info: NONBONDED TABLE SIZE: 705 POINTS
TCL: Setting parameter alchLambda2 to 0.24999999999999967
Info: NONBONDED TABLE R-SQUARED SPACING: 0.0625
Info: NONBONDED TABLE SIZE: 705 POINTS
TCL: Running for 1500000 steps
ETITLE: TS BOND ANGLE DIHED IMPRP ELECT VDW BOUNDARY MISC KINETIC TOTAL TEMP POTENTIAL TOTALAVG TEMPAVG PRESSURE GPRESSURE VOLUME PRESSAVG GPRESSAVG
ENERGY: 0 2.8217 2.6483 3.8937 0.0000 -10969.4581 1459.3744 0.0000 0.0000 1799.7962 -7700.9239 301.9499 -9500.7200 -7700.9239 301.9499 -230.5702 -153.4395 30514.3249 -230.5702 -153.4395
ENERGY: 300000 0.7782 2.5396 3.7772 0.0000 -10663.6080 1390.0836 0.0000 0.0000 1747.9635 -7518.4658 293.2540 -9266.4293 -7643.6249 296.0563 -366.0569 -378.1848 31207.0771 -147.1756 -89.4161
ENERGY: 600000 1.8621 3.5189 3.7816 0.0000 -10751.6595 1396.7890 0.0000 0.0000 1775.5080 -7570.1999 297.8751 -9345.7079 -7632.1266 296.5414 -566.6521 -472.0826 30981.2442 25.7810 86.0937
ENERGY: 900000 1.6703 6.2957 3.6124 0.0000 -10902.8534 1535.8676 0.0000 0.0000 1833.2039 -7522.2035 307.5546 -9355.4074 -7625.5617 297.3564 566.0428 645.2662 30726.5439 12.0381 65.6916
ENERGY: 1200000 1.5123 3.7190 3.8154 0.0000 -10840.6647 1454.4879 0.0000 0.0000 1773.0420 -7604.0881 297.4613 -9377.1301 -7623.9483 297.7756 -120.2723 -33.8899 30928.5201 -63.3310 -12.3164
ENERGY: 1500000 1.1370 1.6838 3.7024 0.0000 -10852.0893 1470.6419 0.0000 0.0000 1788.9065 -7586.0178 300.1229 -9374.9242 -7613.9131 298.2216 129.2598 214.5849 30891.5189 -129.8158 -76.1758
TCL: Running FEP window  16: Lambda1 0.24999999999999967 Lambda2 0.19999999999999968 [dLambda -0.04999999999999999]
TCL: Setting parameter firsttimestep to 0
TCL: Setting parameter alchLambda to 0.24999999999999967
Info: NONBONDED TABLE R-SQUARED SPACING: 0.0625
Info: NONBONDED TABLE SIZE: 705 POINTS
TCL: Setting parameter alchLambda2 to 0.19999999999999968
Info: NONBONDED TABLE R-SQUARED SPACING: 0.0625
Info: NONBONDED TABLE SIZE: 705 POINTS
TCL: Running for 1500000 steps
ETITLE: TS BOND ANGLE DIHED IMPRP ELECT VDW BOUNDARY MISC KINETIC TOTAL TEMP POTENTIAL TOTALAVG TEMPAVG PRESSURE GPRESSURE VOLUME PRESSAVG GPRESSAVG
ENERGY: 0 1.1369 1.6838 3.7024 0.0000 -10852.0907 1470.9724 0.0000 0.0000 1788.0008 -7586.5943 299.9710 -9374.5951 -7586.5943 299.9710 131.9902 214.8240 30891.5189 131.9902 214.8240
ENERGY: 300000 1.2709 2.9555 3.5460 0.0000 -10852.8111 1446.4452 0.0000 0.0000 1817.1144 -7581.4791 304.8553 -9398.5935 -7593.1077 301.7201 145.8107 203.6569 30451.2832 -76.1448 -36.1858
ENERGY: 600000 1.1181 2.6355 3.5374 0.0000 -11034.6066 1517.7225 0.0000 0.0000 1795.8465 -7713.7466 301.2872 -9509.5930 -7641.5128 299.3196 204.3858 280.0033 30478.4063 -72.1659 -18.8863
ENERGY: 900000 0.7531 3.3642 3.7406 0.0000 -10751.9883 1350.4652 0.0000 0.0000 1764.7364 -7628.9287 296.0679 -9393.6652 -7626.6748 298.5107 -972.8227 -921.2068 31175.5516 -267.6378 -210.1070
ENERGY: 1200000 0.6879 2.5805 3.6370 0.0000 -10910.5639 1551.1060 0.0000 0.0000 1795.5022 -7557.0504 301.2295 -9352.5526 -7619.6565 298.5445 598.9496 673.6108 31173.5725 -154.3185 -93.9058
ENERGY: 1500000 2.5129 2.3974 3.6254 0.0000 -10905.7663 1456.3657 0.0000 0.0000 1808.8209 -7632.0440 303.4639 -9440.8649 -7614.1557 299.3252 -270.6483 -154.2692 30942.5893 -141.6104 -83.1943
TCL: Running FEP window  17: Lambda1 0.19999999999999968 Lambda2 0.1499999999999997 [dLambda -0.04999999999999999]
TCL: Setting parameter firsttimestep to 0
TCL: Setting parameter alchLambda to 0.19999999999999968
Info: NONBONDED TABLE R-SQUARED SPACING: 0.0625
Info: NONBONDED TABLE SIZE: 705 POINTS
TCL: Setting parameter alchLambda2 to 0.1499999999999997
Info: NONBONDED TABLE R-SQUARED SPACING: 0.0625
Info: NONBONDED TABLE SIZE: 705 POINTS
TCL: Running for 1500000 steps
ETITLE: TS BOND ANGLE DIHED IMPRP ELECT VDW BOUNDARY MISC KINETIC TOTAL TEMP POTENTIAL TOTALAVG TEMPAVG PRESSURE GPRESSURE VOLUME PRESSAVG GPRESSAVG
ENERGY: 0 2.5129 2.3974 3.6254 0.0000 -10905.7684 1456.6731 0.0000 0.0000 1807.9488 -7632.6108 303.3176 -9440.5596 -7632.6108 303.3176 -234.2823 -153.4990 30942.5893 -234.2823 -153.4990
ENERGY: 300000 1.2082 2.4253 3.7023 0.0000 -10928.1666 1483.9683 0.0000 0.0000 1818.4129 -7618.4496 305.0732 -9436.8625 -7632.8220 300.2690 56.8397 59.5063 30699.0272 -27.4165 50.0096
ENERGY: 600000 0.4970 4.5941 3.7882 0.0000 -10797.4415 1455.1940 0.0000 0.0000 1841.8761 -7491.4922 309.0096 -9333.3682 -7614.9843 300.7679 153.2468 183.2964 30886.3045 -80.8236 -25.8732
ENERGY: 900000 3.2681 3.7837 3.5761 0.0000 -10791.1508 1448.1374 0.0000 0.0000 1830.6830 -7501.7024 307.1317 -9332.3855 -7592.0838 302.2892 164.0125 257.7460 30669.6140 -108.1931 -54.7875
ENERGY: 1200000 2.7647 2.5489 4.0171 0.0000 -10823.0356 1440.9963 0.0000 0.0000 1805.0640 -7567.6446 302.8336 -9372.7086 -7595.9375 301.8089 -318.6223 -220.2133 30856.8464 -141.6354 -80.5024
ENERGY: 1500000 0.6245 1.6641 4.0635 0.0000 -10836.8327 1468.2501 0.0000 0.0000 1798.2520 -7563.9784 301.6908 -9362.2304 -7597.4835 301.1073 -186.8874 -62.5222 31117.3379 -208.6414 -145.5479
TCL: Running FEP window  18: Lambda1 0.1499999999999997 Lambda2 0.09999999999999969 [dLambda -0.05 ]
TCL: Setting parameter firsttimestep to 0
TCL: Setting parameter alchLambda to 0.1499999999999997
Info: NONBONDED TABLE R-SQUARED SPACING: 0.0625
Info: NONBONDED TABLE SIZE: 705 POINTS
TCL: Setting parameter alchLambda2 to 0.09999999999999969
Info: NONBONDED TABLE R-SQUARED SPACING: 0.0625
Info: NONBONDED TABLE SIZE: 705 POINTS
TCL: Running for 1500000 steps
ETITLE: TS BOND ANGLE DIHED IMPRP ELECT VDW BOUNDARY MISC KINETIC TOTAL TEMP POTENTIAL TOTALAVG TEMPAVG PRESSURE GPRESSURE VOLUME PRESSAVG GPRESSAVG
ENERGY: 0 0.6245 1.6641 4.0635 0.0000 -10836.8333 1468.2322 0.0000 0.0000 1797.3492 -7564.8997 301.5393 -9362.2489 -7564.8997 301.5393 -148.7710 -64.1186 31117.3379 -148.7710 -64.1186
ENERGY: 300000 1.4953 3.2836 4.0196 0.0000 -10922.4071 1500.5483 0.0000 0.0000 1777.5443 -7635.5160 298.2167 -9413.0603 -7602.7476 301.2097 220.3019 272.8692 30849.4674 -108.0911 -28.3422
ENERGY: 600000 1.8805 1.3048 3.5468 0.0000 -10893.1249 1454.5473 0.0000 0.0000 1759.5374 -7672.3082 295.1957 -9431.8456 -7588.0284 301.6675 -209.2164 -161.1105 30750.9224 -145.3482 -82.5943
ENERGY: 900000 1.0242 4.0584 3.6705 0.0000 -10787.9655 1382.6422 0.0000 0.0000 1755.9508 -7640.6193 294.5940 -9396.5701 -7592.7568 301.0928 -703.2604 -655.2440 31170.2890 -122.4265 -70.5732
ENERGY: 1200000 2.1471 2.6692 3.7642 0.0000 -10776.7254 1421.5739 0.0000 0.0000 1793.0856 -7553.4853 300.8240 -9346.5709 -7583.3634 302.1902 -54.2973 -44.8793 30819.5421 -115.2667 -69.1911
ENERGY: 1500000 3.0020 2.0444 3.6662 0.0000 -10910.8082 1508.8006 0.0000 0.0000 1752.4884 -7640.8066 294.0131 -9393.2950 -7589.2021 302.0962 249.4808 330.6741 30483.8225 -115.4782 -57.9837
TCL: Running FEP window  19: Lambda1 0.09999999999999969 Lambda2 0.049999999999999684 [dLambda -0.05 ]
TCL: Setting parameter firsttimestep to 0
TCL: Setting parameter alchLambda to 0.09999999999999969
Info: NONBONDED TABLE R-SQUARED SPACING: 0.0625
Info: NONBONDED TABLE SIZE: 705 POINTS
TCL: Setting parameter alchLambda2 to 0.049999999999999684
Info: NONBONDED TABLE R-SQUARED SPACING: 0.0625
Info: NONBONDED TABLE SIZE: 705 POINTS
TCL: Running for 1500000 steps
ETITLE: TS BOND ANGLE DIHED IMPRP ELECT VDW BOUNDARY MISC KINETIC TOTAL TEMP POTENTIAL TOTALAVG TEMPAVG PRESSURE GPRESSURE VOLUME PRESSAVG GPRESSAVG
ENERGY: 0 3.0020 2.0444 3.6662 0.0000 -10910.8082 1508.7182 0.0000 0.0000 1751.6132 -7641.7642 293.8663 -9393.3774 -7641.7642 293.8663 239.1688 329.7978 30483.8225 239.1688 329.7978
ENERGY: 300000 1.2108 2.9076 3.7035 0.0000 -10871.7748 1449.0780 0.0000 0.0000 1831.0464 -7583.8285 307.1927 -9414.8749 -7611.4249 299.6726 -310.7832 -247.1129 31172.0756 -128.1556 -62.0079
ENERGY: 600000 3.9077 3.4359 3.6238 0.0000 -10999.1761 1552.6360 0.0000 0.0000 1793.9098 -7641.6628 300.9623 -9435.5726 -7611.7534 300.2842 758.2897 768.6404 30454.0221 127.3944 182.8852
ENERGY: 900000 1.2574 4.4388 3.7193 0.0000 -10935.4586 1517.9546 0.0000 0.0000 1798.0809 -7610.0076 301.6621 -9408.0885 -7609.6727 299.9324 109.8833 168.0541 31256.0145 28.9686 86.0072
ENERGY: 1200000 1.9378 2.9379 3.6298 0.0000 -10977.0060 1546.9783 0.0000 0.0000 1737.1463 -7684.3760 291.4392 -9421.5223 -7614.0613 299.8067 556.4627 608.6537 30442.9648 105.4827 166.3158
ENERGY: 1500000 0.8386 1.9780 3.6871 0.0000 -10705.8184 1344.2510 0.0000 0.0000 1841.8816 -7513.1820 309.0105 -9355.0636 -7601.5999 301.0550 -888.4239 -844.5130 30836.8001 26.8398 92.0854
TCL: Running FEP window  20: Lambda1 0.049999999999999684 Lambda2 0.0    [dLambda -0.049999999999999684]
TCL: Setting parameter firsttimestep to 0
TCL: Setting parameter alchLambda to 0.049999999999999684
Info: NONBONDED TABLE R-SQUARED SPACING: 0.0625
Info: NONBONDED TABLE SIZE: 705 POINTS
TCL: Setting parameter alchLambda2 to 0.0
Info: NONBONDED TABLE R-SQUARED SPACING: 0.0625
Info: NONBONDED TABLE SIZE: 705 POINTS
TCL: Running for 1500000 steps
ETITLE: TS BOND ANGLE DIHED IMPRP ELECT VDW BOUNDARY MISC KINETIC TOTAL TEMP POTENTIAL TOTALAVG TEMPAVG PRESSURE GPRESSURE VOLUME PRESSAVG GPRESSAVG
ENERGY: 0 0.8386 1.9780 3.6871 0.0000 -10705.8203 1343.0867 0.0000 0.0000 1840.9985 -7515.2313 308.8623 -9356.2299 -7515.2313 308.8623 -927.2977 -848.5285 30836.8001 -927.2977 -848.5285
ENERGY: 300000 0.8397 4.7969 3.6284 0.0000 -10900.0094 1499.1580 0.0000 0.0000 1811.2134 -7580.3730 303.8653 -9391.5865 -7584.6860 303.5291 199.4564 297.5960 31007.3784 -125.0943 -67.6137
ENERGY: 600000 3.7646 3.3285 3.5802 0.0000 -10784.6594 1352.6100 0.0000 0.0000 1784.7761 -7636.6000 299.4300 -9421.3761 -7624.0676 300.9847 -928.4075 -884.3890 30596.7134 -59.2577 2.9275
ENERGY: 900000 1.4200 3.4080 4.0713 0.0000 -10826.8031 1443.6330 0.0000 0.0000 1828.2497 -7546.0211 306.7235 -9374.2708 -7612.5736 301.0680 50.7352 162.0941 30443.4827 -104.5476 -37.7460
ENERGY: 1200000 2.1331 4.1883 3.6675 0.0000 -10809.2093 1395.0350 0.0000 0.0000 1799.0350 -7605.1503 301.8222 -9404.1853 -7603.1639 302.6383 -546.8401 -470.3082 30839.6932 -172.2662 -104.7563
ENERGY: 1500000 2.0054 7.1290 3.6870 0.0000 -10901.9023 1496.5350 0.0000 0.0000 1828.6477 -7563.8982 306.7903 -9392.5459 -7601.0246 302.4129 310.3211 356.6710 30719.1910 -73.9250 -13.2246
TCL: Exiting due to exit command.
