Info: SIMULATION PARAMETERS:
Info: TIMESTEP               2
Info: NUMBER OF STEPS        0
Info: STEPS PER CYCLE        10
Info: PERIODIC CELL BASIS 1  31.2014 0 0
Info: PERIODIC CELL BASIS 2  0 30.9428 0
Info: PERIODIC CELL BASIS 3  0 0 31.9773
Info: PERIODIC CELL CENTER   0 0 0
Info: WRAPPING WATERS AROUND PERIODIC BOUNDARIES ON OUTPUT.
Info: WRAPPING ALL CLUSTERS AROUND PERIODIC BOUNDARIES ON OUTPUT.
Info: FIRST LDB TIMESTEP     50
Info: LAST LDB TIMESTEP     -1
Info: HOM BACKGROUND SCALING 1
Info: PME BACKGROUND SCALING 1
Info: MIN ATOMS PER PATCH    40
Info: EMPTY PATCH LOAD       40 ATOMS
Info: VELOCITY FILE          mobley_3982371_equil.vel
Info: CENTER OF MASS MOVING INITIALLY? NO
Info: DIELECTRIC             1
Info: EXCLUDE                SCALED ONE-FOUR
Info: 1-4 ELECTROSTATICS SCALED BY 0.833333
Info: MODIFIED 1-4 VDW PARAMETERS WILL BE USED
Info: DCD FILENAME           mobley_3982371_prod.dcd
Info: DCD FREQUENCY          100000
Info: DCD FIRST STEP         100000
Info: DCD FILE WILL CONTAIN UNIT CELL DATA
Info: XST FILENAME           mobley_3982371_prod.xst
Info: XST FREQUENCY          100000
Info: NO VELOCITY DCD OUTPUT
Info: NO FORCE DCD OUTPUT
Info: OUTPUT FILENAME        mobley_3982371_prod
Info: BINARY OUTPUT FILES WILL BE USED
Info: RESTART FILENAME       mobley_3982371_prod.restart
Info: RESTART FREQUENCY      100000
Info: BINARY RESTART FILES WILL BE USED
Info: CUTOFF                 9
Info: PAIRLIST DISTANCE      11
Info: PAIRLIST SHRINK RATE   0.01
Info: PAIRLIST GROW RATE     0.01
Info: PAIRLIST TRIGGER       0.3
Info: PAIRLISTS PER CYCLE    2
Info: PAIRLISTS ENABLED
Info: MARGIN                 2
Info: HYDROGEN GROUP CUTOFF  2.5
Info: PATCH DIMENSION        15.5
Info: ENERGY OUTPUT STEPS    100000
Info: ENERGY EVALUATION STEPS    100000
Info: OUTPUT ENERGY PRECISION 4
Info: CROSSTERM ENERGY INCLUDED IN DIHEDRAL
Info: TIMING OUTPUT STEPS    1000000
Info: PRESSURE OUTPUT STEPS  100000
Info: ALCHEMICAL FEP ON
Info: FEP CURRENT LAMBDA VALUE     0
Info: FEP COMPARISON LAMBDA VALUE  0.05
Info: FEP INTRA-ALCHEMICAL NON-BONDED INTERACTIONS WILL BE RETAINED
Info: FEP INTRA-ALCHEMICAL BONDED INTERACTIONS WILL BE RETAINED
Info: FEP VDW SHIFTING COEFFICIENT 5
Info: FEP ELEC. ACTIVE FOR ANNIHILATED PARTICLES BETWEEN LAMBDA = 0 AND LAMBDA = 0.5
Info: FEP ELEC. ACTIVE FOR EXNIHILATED PARTICLES BETWEEN LAMBDA = 0.5 AND LAMBDA = 1
Info: FEP VDW ACTIVE FOR ANNIHILATED PARTICLES BETWEEN LAMBDA = 0 AND LAMBDA = 1
Info: FEP VDW ACTIVE FOR EXNIHILATED PARTICLES BETWEEN LAMBDA = 0 AND LAMBDA = 1
Info: FEP BOND ACTIVE FOR ANNIHILATED PARTICLES BETWEEN LAMBDA = 1 AND LAMBDA = 1
Info: FEP BOND ACTIVE FOR EXNIHILATED PARTICLES BETWEEN LAMBDA = 0 AND LAMBDA = 0
Info: LANGEVIN DYNAMICS ACTIVE
Info: LANGEVIN TEMPERATURE   300
Info: LANGEVIN USING BBK INTEGRATOR
Info: LANGEVIN DAMPING COEFFICIENT IS 1 INVERSE PS
Info: LANGEVIN DYNAMICS APPLIED TO HYDROGENS
Info: LANGEVIN PISTON PRESSURE CONTROL ACTIVE
Info:        TARGET PRESSURE IS 1.01325 BAR
Info:     OSCILLATION PERIOD IS 50 FS
Info:             DECAY TIME IS 25 FS
Info:     PISTON TEMPERATURE IS 300 K
Info:       PRESSURE CONTROL IS GROUP-BASED
Info:    INITIAL STRAIN RATE IS -1.76531e-05 -1.76531e-05 -1.76531e-05
Info:       CELL FLUCTUATION IS ISOTROPIC
Info: PARTICLE MESH EWALD (PME) ACTIVE
Info: PME TOLERANCE               1e-06
Info: PME EWALD COEFFICIENT       0.348832
Info: PME INTERPOLATION ORDER     4
Info: PME GRID DIMENSIONS         32 32 32
Info: PME MAXIMUM GRID SPACING    1
Info: PME CALCULATION WILL BE PERFORMED ON GPU
Info: FULL ELECTROSTATIC EVALUATION FREQUENCY      2
Info: USING VERLET I (r-RESPA) MTS SCHEME.
Info: C1 SPLITTING OF LONG RANGE ELECTROSTATICS
Info: PLACING ATOMS IN PATCHES BY HYDROGEN GROUPS
Info: RIGID BONDS TO HYDROGEN : ALL
Info:         ERROR TOLERANCE : 1e-08
Info:          MAX ITERATIONS : 100
Info: RIGID WATER USING SETTLE ALGORITHM
Info: RANDOM NUMBER SEED     1743514764
Info: USE HYDROGEN BONDS?    NO
Info: Using AMBER format force field!
Info: AMBER PARM FILE        mobley_3982371.prmtop
Info: COORDINATE PDB         mobley_3982371.pdb
Info: Exclusions will be read from PARM file!
Info: SCNB (VDW SCALING)     2
Info: USING ARITHMETIC MEAN TO COMBINE L-J SIGMA PARAMETERS
Info: BINARY COORDINATES     mobley_3982371_equil.coor
Info: SUMMARY OF PARAMETERS:
Info: 8 BONDS
Info: 8 ANGLES
Info:   8 HARMONIC
Info:   0 COSINE-BASED
Info: 10 DIHEDRAL
Info: 0 IMPROPER
Info: 0 CROSSTERM
Info: 0 VDW
Info: 36 VDW_PAIRS
Info: 0 NBTHOLE_PAIRS
Info: To read alchdata from file: mobley_3982371.pdb
Info: To read alchflag data from column: 5
Info: STRUCTURE SUMMARY:
Info: 2951 ATOMS
Info: 2950 BONDS
Info: 16 ANGLES
Info: 21 DIHEDRALS
Info: 0 IMPROPERS
Info: 0 CROSSTERMS
Info: 2977 EXCLUSIONS
Info: 2946 RIGID BONDS
Info: ALCH: 0 ATOMS TO DISAPPEAR IN FINAL STATE
Info: ALCH: 11 ATOMS TO APPEAR IN FINAL STATE
Info: 5907 DEGREES OF FREEDOM
Info: 985 HYDROGEN GROUPS
Info: 4 ATOMS IN LARGEST HYDROGEN GROUP
Info: 985 MIGRATION GROUPS
Info: 4 ATOMS IN LARGEST MIGRATION GROUP
Info: TOTAL MASS = 17729.8 amu
Info: TOTAL CHARGE = 0.000199992 e
Info: MASS DENSITY = 0.953643 g/cm^3
Info: ATOM DENSITY = 0.0955857 atoms/A^3
Info: ADDED 0 IMPLICIT EXCLUSIONS
Info: NONBONDED TABLE R-SQUARED SPACING: 0.0625
Info: NONBONDED TABLE SIZE: 705 POINTS
Info: REMOVING COM VELOCITY -0.016442 -0.345926 0.0274839
Info: Use 3D box decompostion in PME FFT.
Info: Updated CUDA force table with 4096 elements.
Info: Updated CUDA LJ table with 8 x 8 elements.
Info: Found 11 unique exclusion lists needing 16 bytes
TCL: Running for 1500000 steps
ETITLE: TS BOND ANGLE DIHED IMPRP ELECT VDW BOUNDARY MISC KINETIC TOTAL TEMP POTENTIAL TOTALAVG TEMPAVG PRESSURE GPRESSURE VOLUME PRESSAVG GPRESSAVG
ENERGY: 0 1.3702 3.3303 4.3860 0.0000 -10695.3084 1420.9458 0.0000 0.0000 1781.8332 -7483.4428 303.5921 -9265.2760 -7483.4428 303.5921 -286.4044 -213.9063 30872.8180 -286.4044 -213.9063
ENERGY: 300000 1.7598 7.9269 3.5359 0.0000 -10724.9171 1428.9860 0.0000 0.0000 1779.4779 -7503.2306 303.1908 -9282.7085 -7487.6692 302.7093 -47.0778 10.9795 30200.8652 -242.1728 -180.9100
ENERGY: 600000 1.6380 3.1641 2.9793 0.0000 -10794.5825 1468.4423 0.0000 0.0000 1752.5796 -7565.7792 298.6078 -9318.3589 -7501.5949 302.7822 49.1865 120.8698 30394.8818 -180.1742 -124.7351
ENERGY: 900000 2.7747 5.0115 2.8034 0.0000 -10854.9570 1488.8165 0.0000 0.0000 1732.8331 -7622.7178 295.2434 -9355.5509 -7517.2240 300.7759 212.2858 248.1729 29854.0473 -65.0577 -17.4036
ENERGY: 1200000 2.8878 3.0661 4.1895 0.0000 -10647.6802 1375.2107 0.0000 0.0000 1805.0614 -7457.2647 307.5498 -9262.3261 -7512.3750 301.6569 -533.5967 -433.6101 30424.6297 -33.8868 21.3885
ENERGY: 1500000 0.4900 2.8773 2.9286 0.0000 -10847.8899 1425.9676 0.0000 0.0000 1813.8398 -7601.7866 309.0454 -9415.6263 -7513.3869 302.1633 -426.4716 -409.7423 30140.3787 24.3441 73.1852
TCL: Running FEP window   2: Lambda1 0.05   Lambda2 0.1    [dLambda 0.05  ]
TCL: Setting parameter firsttimestep to 0
TCL: Setting parameter alchLambda to 0.05
Info: NONBONDED TABLE R-SQUARED SPACING: 0.0625
Info: NONBONDED TABLE SIZE: 705 POINTS
TCL: Setting parameter alchLambda2 to 0.1
Info: NONBONDED TABLE R-SQUARED SPACING: 0.0625
Info: NONBONDED TABLE SIZE: 705 POINTS
TCL: Running for 1500000 steps
ETITLE: TS BOND ANGLE DIHED IMPRP ELECT VDW BOUNDARY MISC KINETIC TOTAL TEMP POTENTIAL TOTALAVG TEMPAVG PRESSURE GPRESSURE VOLUME PRESSAVG GPRESSAVG
ENERGY: 0 0.4900 2.8773 2.9286 0.0000 -10847.8908 1426.4329 0.0000 0.0000 1812.9773 -7602.1846 308.8985 -9415.1619 -7602.1846 308.8985 -490.0322 -404.6862 30140.3787 -490.0322 -404.6862
ENERGY: 300000 1.2972 5.7726 2.9735 0.0000 -10629.1440 1337.5031 0.0000 0.0000 1773.3653 -7508.2322 302.1493 -9281.5975 -7552.0225 300.6436 -1008.4792 -953.2080 30671.9117 -150.0321 -71.2861
ENERGY: 600000 1.8487 5.7366 3.8385 0.0000 -10512.6362 1317.2797 0.0000 0.0000 1729.9829 -7453.9498 294.7577 -9183.9327 -7533.6689 299.7290 -676.1465 -656.1646 30291.8611 -205.3133 -132.1096
ENERGY: 900000 0.5162 4.4249 3.6800 0.0000 -10856.9265 1544.8774 0.0000 0.0000 1774.8717 -7528.5563 302.4060 -9303.4280 -7530.3825 300.0958 794.0548 824.4288 30149.0272 12.8569 79.4089
ENERGY: 1200000 3.1538 3.5724 3.0443 0.0000 -10719.0575 1496.8881 0.0000 0.0000 1790.1948 -7422.2039 305.0168 -9212.3988 -7517.7925 299.8895 914.7513 1022.4005 29587.9630 47.0136 113.9000
ENERGY: 1500000 0.5746 2.9428 2.7890 0.0000 -10663.0735 1414.3628 0.0000 0.0000 1761.0621 -7481.3422 300.0531 -9242.4043 -7515.2314 300.1644 -16.8216 58.0909 30020.3894 29.3828 91.0986
TCL: Running FEP window   3: Lambda1 0.1    Lambda2 0.15000000000000002 [dLambda 0.05000000000000002]
TCL: Setting parameter firsttimestep to 0
TCL: Setting parameter alchLambda to 0.1
Info: NONBONDED TABLE R-SQUARED SPACING: 0.0625
Info: NONBONDED TABLE SIZE: 705 POINTS
TCL: Setting parameter alchLambda2 to 0.15000000000000002
Info: NONBONDED TABLE R-SQUARED SPACING: 0.0625
Info: NONBONDED TABLE SIZE: 705 POINTS
TCL: Running for 1500000 steps
ETITLE: TS BOND ANGLE DIHED IMPRP ELECT VDW BOUNDARY MISC KINETIC TOTAL TEMP POTENTIAL TOTALAVG TEMPAVG PRESSURE GPRESSURE VOLUME PRESSAVG GPRESSAVG
ENERGY: 0 0.5746 2.9428 2.7890 0.0000 -10663.0738 1416.1291 0.0000 0.0000 1760.1912 -7480.4471 299.9047 -9240.6384 -7480.4471 299.9047 -14.1132 66.2487 30020.3894 -14.1132 66.2487
ENERGY: 300000 2.0220 4.9798 4.1838 0.0000 -10770.5786 1448.3783 0.0000 0.0000 1729.1130 -7581.9017 294.6095 -9311.0147 -7528.1056 297.0308 -238.2329 -200.4262 30358.5864 -36.4427 41.0157
ENERGY: 600000 1.1975 1.8119 3.1212 0.0000 -10570.5264 1389.8477 0.0000 0.0000 1763.5247 -7411.0234 300.4727 -9174.5481 -7504.6002 298.4042 -224.5963 -178.4522 30769.6399 60.6451 129.7887
ENERGY: 900000 0.1453 2.5995 2.9993 0.0000 -10877.6054 1498.0489 0.0000 0.0000 1708.0935 -7665.7188 291.0282 -9373.8123 -7525.6100 297.6426 56.6468 181.2762 29881.3575 101.0496 170.5377
ENERGY: 1200000 0.5512 4.5255 4.3585 0.0000 -10762.2321 1472.4090 0.0000 0.0000 1840.8899 -7439.4980 313.6543 -9280.3879 -7509.6929 299.5433 342.2943 412.7211 30072.6639 195.0605 260.0711
ENERGY: 1500000 0.2468 3.7734 3.3769 0.0000 -10734.3970 1448.5717 0.0000 0.0000 1822.3982 -7456.0300 310.5036 -9278.4281 -7502.9540 300.6485 163.7414 274.6508 29974.7454 169.8955 238.3837
TCL: Running FEP window   4: Lambda1 0.15000000000000002 Lambda2 0.2    [dLambda 0.04999999999999999]
TCL: Setting parameter firsttimestep to 0
TCL: Setting parameter alchLambda to 0.15000000000000002
Info: NONBONDED TABLE R-SQUARED SPACING: 0.0625
Info: NONBONDED TABLE SIZE: 705 POINTS
TCL: Setting parameter alchLambda2 to 0.2
Info: NONBONDED TABLE R-SQUARED SPACING: 0.0625
Info: NONBONDED TABLE SIZE: 705 POINTS
TCL: Running for 1500000 steps
ETITLE: TS BOND ANGLE DIHED IMPRP ELECT VDW BOUNDARY MISC KINETIC TOTAL TEMP POTENTIAL TOTALAVG TEMPAVG PRESSURE GPRESSURE VOLUME PRESSAVG GPRESSAVG
ENERGY: 0 0.2468 3.7734 3.3769 0.0000 -10734.3964 1448.4716 0.0000 0.0000 1821.5111 -7457.0167 310.3525 -9278.5278 -7457.0167 310.3525 195.7620 278.4682 29974.7454 195.7620 278.4682
ENERGY: 300000 0.4304 4.7107 2.7906 0.0000 -10682.8611 1440.9018 0.0000 0.0000 1842.6633 -7391.3644 313.9564 -9234.0277 -7513.0280 303.9572 89.6085 122.7741 30299.6356 -139.9209 -85.5372
ENERGY: 600000 0.6867 4.1222 4.1234 0.0000 -10606.5675 1464.5448 0.0000 0.0000 1742.8043 -7390.2861 296.9423 -9133.0904 -7515.7421 300.0171 386.3361 433.2724 30659.8877 68.7219 121.0991
ENERGY: 900000 0.5002 4.2630 2.8511 0.0000 -10555.2983 1300.6463 0.0000 0.0000 1756.3213 -7490.7164 299.2453 -9247.0377 -7497.4054 300.4691 -968.4159 -888.5435 30377.2985 -193.4115 -132.9435
ENERGY: 1200000 1.8889 3.5032 3.9822 0.0000 -10553.7670 1348.7218 0.0000 0.0000 1748.9528 -7446.7181 297.9899 -9195.6709 -7495.0524 301.1152 -596.9433 -447.0603 30199.5665 -192.0832 -118.3807
ENERGY: 1500000 2.2282 5.5049 5.1366 0.0000 -10723.0949 1398.0352 0.0000 0.0000 1748.0061 -7564.1840 297.8286 -9312.1901 -7503.7264 300.3470 -478.2301 -393.3482 30044.2335 -127.8224 -51.0128
TCL: Running FEP window   5: Lambda1 0.2    Lambda2 0.25   [dLambda 0.04999999999999999]
TCL: Setting parameter firsttimestep to 0
TCL: Setting parameter alchLambda to 0.2
Info: NONBONDED TABLE R-SQUARED SPACING: 0.0625
Info: NONBONDED TABLE SIZE: 705 POINTS
TCL: Setting parameter alchLambda2 to 0.25
Info: NONBONDED TABLE R-SQUARED SPACING: 0.0625
Info: NONBONDED TABLE SIZE: 705 POINTS
TCL: Running for 1500000 steps
ETITLE: TS BOND ANGLE DIHED IMPRP ELECT VDW BOUNDARY MISC KINETIC TOTAL TEMP POTENTIAL TOTALAVG TEMPAVG PRESSURE GPRESSURE VOLUME PRESSAVG GPRESSAVG
ENERGY: 0 2.2282 5.5049 5.1366 0.0000 -10723.0947 1399.0293 0.0000 0.0000 1747.1368 -7564.0589 297.6805 -9311.1957 -7564.0589 297.6805 -479.3725 -386.8048 30044.2335 -479.3725 -386.8048
ENERGY: 300000 1.8766 6.3551 2.6009 0.0000 -10734.1678 1438.4008 0.0000 0.0000 1755.4894 -7529.4449 299.1036 -9284.9344 -7540.9470 301.8851 -314.4531 -254.9785 30865.2806 -115.6376 -53.0354
ENERGY: 600000 0.8923 2.3037 3.9063 0.0000 -10670.1299 1380.2630 0.0000 0.0000 1776.1097 -7506.6548 302.6169 -9282.7645 -7524.3555 303.2050 -600.5009 -511.3863 30891.8973 -53.7494 3.3974
ENERGY: 900000 0.7282 2.1871 3.2022 0.0000 -10682.2573 1422.3409 0.0000 0.0000 1725.1901 -7528.6088 293.9411 -9253.7990 -7536.5545 300.3511 -425.5580 -355.3124 30886.1684 -133.1642 -75.7023
ENERGY: 1200000 0.3654 5.9373 4.1660 0.0000 -10770.3212 1444.2235 0.0000 0.0000 1756.7778 -7558.8511 299.3231 -9315.6289 -7538.0461 299.8408 -147.5768 -122.2863 30537.2027 -109.9253 -53.4969
ENERGY: 1500000 0.4114 8.2011 2.7990 0.0000 -10700.2263 1380.5583 0.0000 0.0000 1742.9851 -7565.2714 296.9731 -9308.2565 -7534.3205 299.8582 -410.3237 -395.5010 30016.0373 -132.2066 -79.1041
TCL: Running FEP window   6: Lambda1 0.25   Lambda2 0.3    [dLambda 0.04999999999999999]
TCL: Setting parameter firsttimestep to 0
TCL: Setting parameter alchLambda to 0.25
Info: NONBONDED TABLE R-SQUARED SPACING: 0.0625
Info: NONBONDED TABLE SIZE: 705 POINTS
TCL: Setting parameter alchLambda2 to 0.3
Info: NONBONDED TABLE R-SQUARED SPACING: 0.0625
Info: NONBONDED TABLE SIZE: 705 POINTS
TCL: Running for 1500000 steps
ETITLE: TS BOND ANGLE DIHED IMPRP ELECT VDW BOUNDARY MISC KINETIC TOTAL TEMP POTENTIAL TOTALAVG TEMPAVG PRESSURE GPRESSURE VOLUME PRESSAVG GPRESSAVG
ENERGY: 0 0.4114 8.2011 2.7990 0.0000 -10700.2278 1380.2803 0.0000 0.0000 1742.0856 -7566.4504 296.8198 -9308.5360 -7566.4504 296.8198 -489.4896 -396.1224 30016.0373 -489.4896 -396.1224
ENERGY: 300000 1.2387 2.9297 3.1966 0.0000 -10649.3098 1381.1379 0.0000 0.0000 1751.5906 -7509.2163 298.4393 -9260.8069 -7509.0537 299.7726 -724.1699 -692.2052 31139.3847 -354.9798 -285.6669
ENERGY: 600000 1.2200 7.3068 3.2739 0.0000 -10629.6395 1373.2550 0.0000 0.0000 1811.4218 -7433.1620 308.6335 -9244.5838 -7506.6762 301.1845 -374.1001 -365.8692 30161.9741 -270.0218 -211.1157
ENERGY: 900000 0.4096 2.4530 2.7529 0.0000 -10653.9726 1350.6793 0.0000 0.0000 1810.3571 -7487.3206 308.4521 -9297.6778 -7506.7945 301.6547 -821.5289 -730.2083 30509.6874 -307.5918 -242.1063
ENERGY: 1200000 0.6121 3.1536 5.4470 0.0000 -10885.6982 1592.2469 0.0000 0.0000 1831.2266 -7453.0119 312.0078 -9284.2385 -7508.9539 302.5536 1121.3096 1179.2231 30250.0893 -81.1902 -24.3061
ENERGY: 1500000 1.4661 2.1075 3.8248 0.0000 -10772.6699 1510.0809 0.0000 0.0000 1832.2059 -7422.9847 312.1747 -9255.1907 -7502.8201 302.7317 491.3735 560.7930 30560.9253 -69.8587 -15.2060
TCL: Running FEP window   7: Lambda1 0.3    Lambda2 0.35   [dLambda 0.04999999999999999]
TCL: Setting parameter firsttimestep to 0
TCL: Setting parameter alchLambda to 0.3
Info: NONBONDED TABLE R-SQUARED SPACING: 0.0625
Info: NONBONDED TABLE SIZE: 705 POINTS
TCL: Setting parameter alchLambda2 to 0.35
Info: NONBONDED TABLE R-SQUARED SPACING: 0.0625
Info: NONBONDED TABLE SIZE: 705 POINTS
TCL: Running for 1500000 steps
ETITLE: TS BOND ANGLE DIHED IMPRP ELECT VDW BOUNDARY MISC KINETIC TOTAL TEMP POTENTIAL TOTALAVG TEMPAVG PRESSURE GPRESSURE VOLUME PRESSAVG GPRESSAVG
ENERGY: 0 1.4661 2.1075 3.8248 0.0000 -10772.6698 1510.3789 0.0000 0.0000 1831.3115 -7423.5809 312.0223 -9254.8924 -7423.5809 312.0223 488.2331 565.1730 30560.9253 488.2331 565.1730
ENERGY: 300000 1.5443 2.9882 3.3082 0.0000 -10557.2082 1388.5830 0.0000 0.0000 1749.0806 -7411.7039 298.0117 -9160.7845 -7480.9649 301.0441 -324.0362 -234.2403 30717.8053 -324.2435 -245.3189
ENERGY: 600000 1.6079 6.5908 2.6517 0.0000 -10906.0083 1491.0700 0.0000 0.0000 1763.9972 -7640.0907 300.5532 -9404.0879 -7499.1880 301.0402 89.2811 73.5710 30155.8314 -191.4330 -124.0730
ENERGY: 900000 0.5300 6.4539 3.0805 0.0000 -10690.7796 1401.5694 0.0000 0.0000 1788.4010 -7490.7447 304.7111 -9279.1457 -7518.3245 300.8122 -160.8448 -44.3128 29959.2113 -147.0724 -77.9558
ENERGY: 1200000 0.8249 1.9422 3.4298 0.0000 -10757.0754 1497.6482 0.0000 0.0000 1773.7218 -7479.5085 302.2101 -9253.2303 -7523.2420 300.1275 733.7476 790.4401 29722.6751 34.4742 96.0588
ENERGY: 1500000 0.5490 3.8558 2.9108 0.0000 -10589.6350 1308.7362 0.0000 0.0000 1735.0831 -7538.5001 295.6267 -9273.5832 -7527.2801 299.8589 -1206.5984 -1179.4099 30780.1574 -94.3880 -40.1537
TCL: Running FEP window   8: Lambda1 0.35   Lambda2 0.39999999999999997 [dLambda 0.04999999999999999]
TCL: Setting parameter firsttimestep to 0
TCL: Setting parameter alchLambda to 0.35
Info: NONBONDED TABLE R-SQUARED SPACING: 0.0625
Info: NONBONDED TABLE SIZE: 705 POINTS
TCL: Setting parameter alchLambda2 to 0.39999999999999997
Info: NONBONDED TABLE R-SQUARED SPACING: 0.0625
Info: NONBONDED TABLE SIZE: 705 POINTS
TCL: Running for 1500000 steps
ETITLE: TS BOND ANGLE DIHED IMPRP ELECT VDW BOUNDARY MISC KINETIC TOTAL TEMP POTENTIAL TOTALAVG TEMPAVG PRESSURE GPRESSURE VOLUME PRESSAVG GPRESSAVG
ENERGY: 0 0.5490 3.8558 2.9108 0.0000 -10589.6348 1308.9192 0.0000 0.0000 1734.1920 -7539.2080 295.4749 -9273.4000 -7539.2080 295.4749 -1254.3023 -1175.6114 30780.1574 -1254.3023 -1175.6114
ENERGY: 300000 0.8850 2.5995 3.3863 0.0000 -10816.5738 1442.4337 0.0000 0.0000 1759.9117 -7607.3577 299.8571 -9367.2694 -7554.2288 299.8431 -324.8000 -304.9800 30174.0026 -611.8722 -566.4159
ENERGY: 600000 2.3829 4.8139 3.5504 0.0000 -10743.6277 1400.4110 0.0000 0.0000 1745.7086 -7586.7610 297.4371 -9332.4696 -7553.3057 300.0233 -495.1511 -370.2823 30429.1993 -384.6812 -325.7283
ENERGY: 900000 0.5911 3.5151 2.8011 0.0000 -10676.2491 1441.2135 0.0000 0.0000 1746.3787 -7481.7497 297.5513 -9228.1283 -7545.5378 300.4299 -8.1194 36.1736 30602.5334 -349.1021 -290.4097
ENERGY: 1200000 0.9398 4.5623 3.1593 0.0000 -10765.7303 1480.4986 0.0000 0.0000 1800.5782 -7475.9921 306.7859 -9276.5702 -7539.8704 300.6929 453.4886 451.0900 30429.1731 -262.1115 -206.1041
ENERGY: 1500000 4.2975 4.5830 5.7241 0.0000 -10591.8224 1362.7486 0.0000 0.0000 1735.7183 -7478.7508 295.7350 -9214.4691 -7534.3957 300.9950 -766.1330 -690.6027 30970.1091 -275.2447 -216.8455
TCL: Running FEP window   9: Lambda1 0.39999999999999997 Lambda2 0.44999999999999996 [dLambda 0.04999999999999999]
TCL: Setting parameter firsttimestep to 0
TCL: Setting parameter alchLambda to 0.39999999999999997
Info: NONBONDED TABLE R-SQUARED SPACING: 0.0625
Info: NONBONDED TABLE SIZE: 705 POINTS
TCL: Setting parameter alchLambda2 to 0.44999999999999996
Info: NONBONDED TABLE R-SQUARED SPACING: 0.0625
Info: NONBONDED TABLE SIZE: 705 POINTS
TCL: Running for 1500000 steps
ETITLE: TS BOND ANGLE DIHED IMPRP ELECT VDW BOUNDARY MISC KINETIC TOTAL TEMP POTENTIAL TOTALAVG TEMPAVG PRESSURE GPRESSURE VOLUME PRESSAVG GPRESSAVG
ENERGY: 0 4.2975 4.5830 5.7241 0.0000 -10591.8221 1363.5937 0.0000 0.0000 1734.8526 -7478.7712 295.5874 -9213.6237 -7478.7712 295.5874 -756.9723 -680.0017 30970.1091 -756.9723 -680.0017
ENERGY: 300000 0.9516 2.2437 2.8493 0.0000 -10853.6311 1493.2104 0.0000 0.0000 1772.0073 -7582.3687 301.9179 -9354.3760 -7551.1164 298.5389 320.2531 447.8365 30015.6011 -132.2463 -54.3530
ENERGY: 600000 1.4205 2.5503 2.8743 0.0000 -10695.1905 1389.8518 0.0000 0.0000 1844.5398 -7453.9538 314.2762 -9298.4936 -7549.1368 299.7390 -270.7707 -250.5793 30438.1043 -234.6284 -177.2847
ENERGY: 900000 0.9099 2.9520 2.5964 0.0000 -10709.4141 1389.4364 0.0000 0.0000 1816.1730 -7497.3463 309.4430 -9313.5193 -7540.7789 301.0528 -589.8678 -573.2204 30657.9297 -279.3626 -229.8362
ENERGY: 1200000 0.2436 4.0098 3.5383 0.0000 -10695.1484 1428.0137 0.0000 0.0000 1772.0443 -7487.2987 301.9242 -9259.3430 -7546.4366 300.0311 -284.9585 -240.1445 30777.4791 -293.3223 -245.5223
ENERGY: 1500000 0.2156 7.3891 2.6706 0.0000 -10719.3905 1483.6749 0.0000 0.0000 1782.3797 -7443.0607 303.6852 -9225.4404 -7531.7341 300.6550 343.7995 407.5413 30566.3721 -227.0408 -181.2322
TCL: Running FEP window  10: Lambda1 0.44999999999999996 Lambda2 0.49999999999999994 [dLambda 0.04999999999999999]
TCL: Setting parameter firsttimestep to 0
TCL: Setting parameter alchLambda to 0.44999999999999996
Info: NONBONDED TABLE R-SQUARED SPACING: 0.0625
Info: NONBONDED TABLE SIZE: 705 POINTS
TCL: Setting parameter alchLambda2 to 0.49999999999999994
Info: NONBONDED TABLE R-SQUARED SPACING: 0.0625
Info: NONBONDED TABLE SIZE: 705 POINTS
TCL: Running for 1500000 steps
ETITLE: TS BOND ANGLE DIHED IMPRP ELECT VDW BOUNDARY MISC KINETIC TOTAL TEMP POTENTIAL TOTALAVG TEMPAVG PRESSURE GPRESSURE VOLUME PRESSAVG GPRESSAVG
ENERGY: 0 0.2156 7.3891 2.6706 0.0000 -10719.3913 1484.7146 0.0000 0.0000 1781.5056 -7442.8958 303.5363 -9224.4014 -7442.8958 303.5363 346.0064 421.6816 30566.3721 346.0064 421.6816
ENERGY: 300000 0.3962 4.3910 3.2203 0.0000 -10663.8574 1358.6592 0.0000 0.0000 1712.9147 -7584.2762 291.8496 -9297.1909 -7477.9756 300.6112 -881.4992 -815.0905 30533.2048 -18.4720 52.9074
ENERGY: 600000 4.1785 2.3941 2.6294 0.0000 -10688.8543 1434.5642 0.0000 0.0000 1779.9559 -7465.1322 303.2722 -9245.0881 -7502.9170 301.1536 35.9828 134.4169 30403.2548 104.6178 180.2249
ENERGY: 900000 1.2333 1.4694 3.1946 0.0000 -10791.5162 1456.0735 0.0000 0.0000 1796.3669 -7533.1785 306.0684 -9329.5454 -7507.4827 301.4712 131.7129 176.2528 30281.9387 166.1189 243.9027
ENERGY: 1200000 0.4628 4.5795 3.6992 0.0000 -10741.6594 1454.9038 0.0000 0.0000 1767.2480 -7510.7660 301.1070 -9278.0141 -7505.7745 301.4286 155.2484 223.7660 30063.2279 181.3318 254.8623
ENERGY: 1500000 2.4516 6.5702 3.8329 0.0000 -10828.6384 1483.0911 0.0000 0.0000 1763.9451 -7568.7475 300.5443 -9332.6926 -7509.1176 301.4390 -132.0364 -71.2904 30637.1494 66.2880 130.7424
TCL: Running FEP window  11: Lambda1 0.49999999999999994 Lambda2 0.5499999999999999 [dLambda 0.04999999999999999]
TCL: Setting parameter firsttimestep to 0
TCL: Setting parameter alchLambda to 0.49999999999999994
Info: NONBONDED TABLE R-SQUARED SPACING: 0.0625
Info: NONBONDED TABLE SIZE: 705 POINTS
TCL: Setting parameter alchLambda2 to 0.5499999999999999
Info: NONBONDED TABLE R-SQUARED SPACING: 0.0625
Info: NONBONDED TABLE SIZE: 705 POINTS
TCL: Running for 1500000 steps
ETITLE: TS BOND ANGLE DIHED IMPRP ELECT VDW BOUNDARY MISC KINETIC TOTAL TEMP POTENTIAL TOTALAVG TEMPAVG PRESSURE GPRESSURE VOLUME PRESSAVG GPRESSAVG
ENERGY: 0 2.4516 6.5702 3.8329 0.0000 -10828.6400 1482.9230 0.0000 0.0000 1763.0381 -7569.8241 300.3898 -9332.8623 -7569.8241 300.3898 -153.0569 -69.8245 30637.1494 -153.0569 -69.8245
ENERGY: 300000 1.1942 2.8187 3.1328 0.0000 -10815.3949 1509.0065 0.0000 0.0000 1822.8332 -7476.4095 310.5778 -9299.2427 -7501.1184 303.6507 357.5921 428.4567 30525.7542 189.3093 255.7121
ENERGY: 600000 0.4018 4.2330 2.9714 0.0000 -10796.1388 1413.0385 0.0000 0.0000 1810.4766 -7565.0175 308.4724 -9375.4941 -7534.0427 303.6477 -107.8003 -59.4811 29720.2342 164.8457 231.9915
ENERGY: 900000 0.2572 2.5250 3.4416 0.0000 -10587.6433 1334.7957 0.0000 0.0000 1725.5975 -7521.0263 294.0105 -9246.6238 -7539.4266 300.9794 -703.5047 -595.9675 30351.3835 39.0070 102.8017
ENERGY: 1200000 0.3674 6.0799 3.3253 0.0000 -10674.7874 1400.3378 0.0000 0.0000 1812.3532 -7452.3238 308.7921 -9264.6769 -7513.6603 302.5737 -512.4301 -470.5621 30998.7113 -3.5455 57.5817
ENERGY: 1500000 0.9502 1.2425 2.7708 0.0000 -10921.1523 1560.4041 0.0000 0.0000 1715.9186 -7639.8662 292.3614 -9355.7848 -7520.0301 302.0978 1065.9040 1104.7419 29658.6383 96.3378 154.5780
TCL: Running FEP window  12: Lambda1 0.5499999999999999 Lambda2 0.6    [dLambda 0.050000000000000044]
TCL: Setting parameter firsttimestep to 0
TCL: Setting parameter alchLambda to 0.5499999999999999
Info: NONBONDED TABLE R-SQUARED SPACING: 0.0625
Info: NONBONDED TABLE SIZE: 705 POINTS
TCL: Setting parameter alchLambda2 to 0.6
Info: NONBONDED TABLE R-SQUARED SPACING: 0.0625
Info: NONBONDED TABLE SIZE: 705 POINTS
TCL: Running for 1500000 steps
ETITLE: TS BOND ANGLE DIHED IMPRP ELECT VDW BOUNDARY MISC KINETIC TOTAL TEMP POTENTIAL TOTALAVG TEMPAVG PRESSURE GPRESSURE VOLUME PRESSAVG GPRESSAVG
ENERGY: 0 0.9502 1.2425 2.7708 0.0000 -10920.8344 1560.8530 0.0000 0.0000 1715.0333 -7639.9846 292.2106 -9355.0179 -7639.9846 292.2106 1025.4643 1116.3613 29658.6383 1025.4643 1116.3613
ENERGY: 300000 0.0236 5.9924 2.4532 0.0000 -10627.1105 1398.4974 0.0000 0.0000 1789.5170 -7430.6268 304.9013 -9220.1439 -7526.2791 297.8268 -226.2974 -151.2265 30537.2873 42.9451 117.2777
ENERGY: 600000 0.5559 2.1900 3.9372 0.0000 -10850.4412 1510.5208 0.0000 0.0000 1790.7204 -7542.5169 305.1063 -9333.2373 -7514.5232 300.2914 333.9648 389.7023 30353.4465 137.6774 202.8790
ENERGY: 900000 1.1368 6.0082 3.8721 0.0000 -10529.2937 1335.1833 0.0000 0.0000 1788.2302 -7394.8631 304.6820 -9183.0933 -7496.5725 300.2169 -642.0266 -585.2226 30703.7564 66.2038 125.8984
ENERGY: 1200000 2.1304 4.9887 3.9483 0.0000 -10685.4760 1390.3975 0.0000 0.0000 1743.7195 -7540.2917 297.0982 -9284.0112 -7506.7197 299.5737 -422.0065 -340.7023 30126.4837 -21.2377 38.6618
ENERGY: 1500000 1.8136 5.3869 3.0992 0.0000 -10712.7885 1399.5935 0.0000 0.0000 1814.2565 -7488.6388 309.1164 -9302.8953 -7505.5247 300.3194 -573.6343 -512.5912 30759.5682 -43.5856 16.1961
TCL: Running FEP window  13: Lambda1 0.6    Lambda2 0.65   [dLambda 0.050000000000000044]
TCL: Setting parameter firsttimestep to 0
TCL: Setting parameter alchLambda to 0.6
Info: NONBONDED TABLE R-SQUARED SPACING: 0.0625
Info: NONBONDED TABLE SIZE: 705 POINTS
TCL: Setting parameter alchLambda2 to 0.65
Info: NONBONDED TABLE R-SQUARED SPACING: 0.0625
Info: NONBONDED TABLE SIZE: 705 POINTS
TCL: Running for 1500000 steps
ETITLE: TS BOND ANGLE DIHED IMPRP ELECT VDW BOUNDARY MISC KINETIC TOTAL TEMP POTENTIAL TOTALAVG TEMPAVG PRESSURE GPRESSURE VOLUME PRESSAVG GPRESSAVG
ENERGY: 0 1.8136 5.3869 3.0992 0.0000 -10713.8125 1400.8406 0.0000 0.0000 1813.4127 -7489.2595 308.9727 -9302.6722 -7489.2595 308.9727 -582.7992 -496.0017 30759.5682 -582.7992 -496.0017
ENERGY: 300000 2.4281 5.2566 2.8228 0.0000 -10775.0681 1442.9353 0.0000 0.0000 1749.9237 -7571.7016 298.1553 -9321.6253 -7564.3056 301.9123 -110.7044 -22.3600 30353.2125 -296.0030 -240.1658
ENERGY: 600000 3.3021 4.0181 3.3446 0.0000 -10742.1055 1444.1696 0.0000 0.0000 1740.0958 -7547.1753 296.4808 -9287.2712 -7559.1096 299.9339 -454.5175 -338.5959 30965.8015 -254.2653 -192.5962
ENERGY: 900000 3.6263 2.1051 3.1468 0.0000 -10746.0862 1487.3931 0.0000 0.0000 1755.1706 -7494.6443 299.0493 -9249.8149 -7546.1928 300.1345 234.7936 343.7856 30579.9936 -235.1593 -172.8723
ENERGY: 1200000 0.4872 3.3512 2.7479 0.0000 -10704.7647 1416.2704 0.0000 0.0000 1722.6519 -7559.2560 293.5087 -9281.9079 -7535.7814 299.5563 -245.5514 -141.5107 30461.0958 -212.4876 -152.0983
ENERGY: 1500000 1.5231 6.6691 3.4941 0.0000 -10713.8687 1424.1037 0.0000 0.0000 1727.2247 -7550.8540 294.2878 -9278.0787 -7537.3262 299.4943 -390.3078 -318.3623 30778.9548 -190.2036 -125.9265
TCL: Running FEP window  14: Lambda1 0.65   Lambda2 0.7000000000000001 [dLambda 0.050000000000000044]
TCL: Setting parameter firsttimestep to 0
TCL: Setting parameter alchLambda to 0.65
Info: NONBONDED TABLE R-SQUARED SPACING: 0.0625
Info: NONBONDED TABLE SIZE: 705 POINTS
TCL: Setting parameter alchLambda2 to 0.7000000000000001
Info: NONBONDED TABLE R-SQUARED SPACING: 0.0625
Info: NONBONDED TABLE SIZE: 705 POINTS
TCL: Running for 1500000 steps
ETITLE: TS BOND ANGLE DIHED IMPRP ELECT VDW BOUNDARY MISC KINETIC TOTAL TEMP POTENTIAL TOTALAVG TEMPAVG PRESSURE GPRESSURE VOLUME PRESSAVG GPRESSAVG
ENERGY: 0 1.5231 6.6691 3.4941 0.0000 -10714.2833 1423.9694 0.0000 0.0000 1726.3679 -7552.2596 294.1418 -9278.6275 -7552.2596 294.1418 -384.8140 -314.4882 30778.9548 -384.8140 -314.4882
ENERGY: 300000 0.5542 3.6474 4.4610 0.0000 -10639.8098 1417.6069 0.0000 0.0000 1788.3958 -7425.1445 304.7102 -9213.5403 -7504.1079 300.0832 -45.6863 39.0182 30779.8554 -26.6732 42.1424
ENERGY: 600000 0.8600 4.4454 3.0196 0.0000 -10652.0815 1387.9129 0.0000 0.0000 1745.8153 -7510.0283 297.4553 -9255.8436 -7510.3630 300.2058 -156.3535 -117.6953 30241.5052 -247.6492 -171.6867
ENERGY: 900000 3.0399 4.5910 3.0948 0.0000 -10808.4416 1498.3375 0.0000 0.0000 1806.0693 -7493.3091 307.7215 -9299.3784 -7509.1173 301.0102 593.1857 650.8463 30175.7113 -118.9938 -39.9549
ENERGY: 1200000 0.2401 5.2615 3.2380 0.0000 -10874.2089 1478.6483 0.0000 0.0000 1790.3396 -7596.4814 305.0414 -9386.8211 -7523.2149 300.0847 119.0652 225.8949 29928.4958 -116.0236 -40.8843
ENERGY: 1500000 0.5962 3.2072 2.6795 0.0000 -10939.3013 1555.9896 0.0000 0.0000 1731.1550 -7645.6738 294.9574 -9376.8288 -7517.7906 300.7336 753.5843 790.2824 30074.2864 -65.4484 1.9191
TCL: Running FEP window  15: Lambda1 0.7000000000000001 Lambda2 0.7500000000000001 [dLambda 0.050000000000000044]
TCL: Setting parameter firsttimestep to 0
TCL: Setting parameter alchLambda to 0.7000000000000001
Info: NONBONDED TABLE R-SQUARED SPACING: 0.0625
Info: NONBONDED TABLE SIZE: 705 POINTS
TCL: Setting parameter alchLambda2 to 0.7500000000000001
Info: NONBONDED TABLE R-SQUARED SPACING: 0.0625
Info: NONBONDED TABLE SIZE: 705 POINTS
TCL: Running for 1500000 steps
ETITLE: TS BOND ANGLE DIHED IMPRP ELECT VDW BOUNDARY MISC KINETIC TOTAL TEMP POTENTIAL TOTALAVG TEMPAVG PRESSURE GPRESSURE VOLUME PRESSAVG GPRESSAVG
ENERGY: 0 0.5962 3.2072 2.6795 0.0000 -10940.7687 1557.0472 0.0000 0.0000 1730.3090 -7646.9296 294.8133 -9377.2386 -7646.9296 294.8133 736.4213 805.8542 30074.2864 736.4213 805.8542
ENERGY: 300000 1.6544 2.4065 2.9307 0.0000 -10585.6568 1334.5514 0.0000 0.0000 1737.1765 -7506.9374 295.9834 -9244.1139 -7543.5909 297.7503 -751.4779 -700.1633 30490.2668 -137.9566 -68.8557
ENERGY: 600000 0.4004 1.5734 2.8022 0.0000 -10729.1399 1446.4659 0.0000 0.0000 1729.7400 -7548.1579 294.7164 -9277.8979 -7544.1309 298.4828 73.1167 155.3974 30225.6242 -66.5945 17.1361
ENERGY: 900000 1.9768 8.0794 3.1112 0.0000 -10641.4214 1378.0671 0.0000 0.0000 1788.6831 -7461.5038 304.7592 -9250.1870 -7529.8655 298.8655 -723.6508 -626.6359 30926.0387 -102.5570 -28.0733
ENERGY: 1200000 1.6901 3.3357 3.0643 0.0000 -10565.0327 1326.7290 0.0000 0.0000 1778.4255 -7451.7881 303.0115 -9230.2136 -7522.3491 300.7574 -805.1476 -773.9534 30554.9181 -60.7796 10.2308
ENERGY: 1500000 4.8025 5.1578 3.2819 0.0000 -10706.8890 1422.6530 0.0000 0.0000 1719.5952 -7551.3987 292.9879 -9270.9939 -7530.9766 299.3842 -233.1164 -164.8945 30241.8013 -80.2749 -9.4862
TCL: Running FEP window  16: Lambda1 0.7500000000000001 Lambda2 0.8000000000000002 [dLambda 0.050000000000000044]
TCL: Setting parameter firsttimestep to 0
TCL: Setting parameter alchLambda to 0.7500000000000001
Info: NONBONDED TABLE R-SQUARED SPACING: 0.0625
Info: NONBONDED TABLE SIZE: 705 POINTS
TCL: Setting parameter alchLambda2 to 0.8000000000000002
Info: NONBONDED TABLE R-SQUARED SPACING: 0.0625
Info: NONBONDED TABLE SIZE: 705 POINTS
TCL: Running for 1500000 steps
ETITLE: TS BOND ANGLE DIHED IMPRP ELECT VDW BOUNDARY MISC KINETIC TOTAL TEMP POTENTIAL TOTALAVG TEMPAVG PRESSURE GPRESSURE VOLUME PRESSAVG GPRESSAVG
ENERGY: 0 4.8025 5.1578 3.2819 0.0000 -10707.4069 1423.0533 0.0000 0.0000 1718.7414 -7552.3700 292.8424 -9271.1115 -7552.3700 292.8424 -230.9534 -156.5003 30241.8013 -230.9534 -156.5003
ENERGY: 300000 1.6118 2.3336 4.4746 0.0000 -10693.1465 1465.7345 0.0000 0.0000 1734.7769 -7484.2151 295.5745 -9218.9920 -7526.4374 296.7975 532.0924 629.5548 29980.9308 -135.5075 -40.1395
ENERGY: 600000 1.0856 4.9427 4.2050 0.0000 -10719.0904 1447.2715 0.0000 0.0000 1759.3672 -7502.2184 299.7643 -9261.5856 -7513.0216 297.9475 4.7448 35.8346 30704.5761 76.4271 146.6435
ENERGY: 900000 0.4054 4.9182 3.1957 0.0000 -10826.3375 1489.2732 0.0000 0.0000 1745.4634 -7583.0815 297.3953 -9328.5449 -7521.3030 298.8503 442.3744 479.0158 30017.3627 50.7241 109.6877
ENERGY: 1200000 0.5977 7.6425 3.2761 0.0000 -10839.0425 1468.4900 0.0000 0.0000 1751.6758 -7607.3604 298.4538 -9359.0362 -7513.9066 300.1900 -87.6024 -13.6422 30067.9157 -4.4126 61.7249
ENERGY: 1500000 1.4422 2.3193 2.6883 0.0000 -10662.8974 1346.6785 0.0000 0.0000 1800.5376 -7509.2314 306.7790 -9309.7691 -7499.8152 301.1363 -830.2420 -712.0261 30355.8201 -56.4300 12.8079
TCL: Running FEP window  17: Lambda1 0.8000000000000002 Lambda2 0.8500000000000002 [dLambda 0.050000000000000044]
TCL: Setting parameter firsttimestep to 0
TCL: Setting parameter alchLambda to 0.8000000000000002
Info: NONBONDED TABLE R-SQUARED SPACING: 0.0625
Info: NONBONDED TABLE SIZE: 705 POINTS
TCL: Setting parameter alchLambda2 to 0.8500000000000002
Info: NONBONDED TABLE R-SQUARED SPACING: 0.0625
Info: NONBONDED TABLE SIZE: 705 POINTS
TCL: Running for 1500000 steps
ETITLE: TS BOND ANGLE DIHED IMPRP ELECT VDW BOUNDARY MISC KINETIC TOTAL TEMP POTENTIAL TOTALAVG TEMPAVG PRESSURE GPRESSURE VOLUME PRESSAVG GPRESSAVG
ENERGY: 0 1.4422 2.3193 2.6883 0.0000 -10664.2909 1346.4886 0.0000 0.0000 1799.6088 -7511.7437 306.6207 -9311.3525 -7511.7437 306.6207 -787.4722 -710.0653 30355.8201 -787.4722 -710.0653
ENERGY: 300000 1.2412 2.1598 5.3836 0.0000 -10618.9728 1353.6277 0.0000 0.0000 1762.1180 -7494.4426 300.2330 -9256.5605 -7487.4285 300.2074 -1039.6830 -993.2377 31068.9059 -670.0400 -593.6861
ENERGY: 600000 0.3686 4.2375 3.2528 0.0000 -10726.7844 1455.5520 0.0000 0.0000 1747.7196 -7515.6540 297.7798 -9263.3736 -7496.0690 302.2743 155.2797 206.1677 30441.4283 -364.2493 -293.3339
ENERGY: 900000 0.3830 2.8138 2.8976 0.0000 -10722.9093 1410.5262 0.0000 0.0000 1742.4767 -7563.8120 296.8865 -9306.2887 -7503.6013 301.5857 -405.6028 -341.4596 30637.2833 -275.3485 -203.1644
ENERGY: 1200000 0.3886 4.0559 2.8954 0.0000 -10854.5793 1451.8351 0.0000 0.0000 1775.2799 -7620.1243 302.4755 -9395.4043 -7514.7067 301.3992 -15.0081 32.7742 29910.8588 -259.4394 -192.3671
ENERGY: 1500000 1.1182 1.7865 3.0466 0.0000 -10819.4037 1531.5264 0.0000 0.0000 1758.2489 -7523.6771 299.5738 -9281.9260 -7520.4631 300.8468 1033.5511 1106.9974 29773.4914 -241.2918 -174.0816
TCL: Running FEP window  18: Lambda1 0.8500000000000002 Lambda2 0.9000000000000002 [dLambda 0.050000000000000044]
TCL: Setting parameter firsttimestep to 0
TCL: Setting parameter alchLambda to 0.8500000000000002
Info: NONBONDED TABLE R-SQUARED SPACING: 0.0625
Info: NONBONDED TABLE SIZE: 705 POINTS
TCL: Setting parameter alchLambda2 to 0.9000000000000002
Info: NONBONDED TABLE R-SQUARED SPACING: 0.0625
Info: NONBONDED TABLE SIZE: 705 POINTS
TCL: Running for 1500000 steps
ETITLE: TS BOND ANGLE DIHED IMPRP ELECT VDW BOUNDARY MISC KINETIC TOTAL TEMP POTENTIAL TOTALAVG TEMPAVG PRESSURE GPRESSURE VOLUME PRESSAVG GPRESSAVG
ENERGY: 0 1.1182 1.7865 3.0466 0.0000 -10821.0183 1532.0373 0.0000 0.0000 1757.3800 -7525.6496 299.4257 -9283.0296 -7525.6496 299.4257 1028.2297 1119.3542 29773.4914 1028.2297 1119.3542
ENERGY: 300000 2.3027 5.6999 4.9827 0.0000 -10700.9135 1421.2834 0.0000 0.0000 1776.4032 -7490.2416 302.6669 -9266.6448 -7533.7442 299.9320 -60.4152 -11.5266 30304.6887 -85.7199 -18.5395
ENERGY: 600000 3.2705 4.5100 3.1072 0.0000 -10699.3608 1440.8632 0.0000 0.0000 1711.5835 -7536.0264 291.6228 -9247.6099 -7539.1436 298.2788 107.0181 81.1036 30668.2883 -42.3061 16.7380
ENERGY: 900000 1.9116 3.4672 3.2984 0.0000 -10659.7333 1440.0028 0.0000 0.0000 1715.7497 -7495.3036 292.3327 -9211.0532 -7540.3641 297.9223 -19.0263 99.9625 30834.5210 1.9753 66.1472
ENERGY: 1200000 0.6911 5.2910 3.7928 0.0000 -10700.2131 1379.9177 0.0000 0.0000 1767.0977 -7543.4228 301.0814 -9310.5205 -7539.7821 299.8084 -520.5257 -483.0951 30454.9292 -91.9800 -21.7278
ENERGY: 1500000 1.6352 5.6641 2.4282 0.0000 -10591.1325 1362.0370 0.0000 0.0000 1791.3672 -7428.0008 305.2165 -9219.3680 -7528.5530 299.7096 -308.7632 -213.4647 30120.3394 -142.5940 -65.3488
TCL: Running FEP window  19: Lambda1 0.9000000000000002 Lambda2 0.9500000000000003 [dLambda 0.050000000000000044]
TCL: Setting parameter firsttimestep to 0
TCL: Setting parameter alchLambda to 0.9000000000000002
Info: NONBONDED TABLE R-SQUARED SPACING: 0.0625
Info: NONBONDED TABLE SIZE: 705 POINTS
TCL: Setting parameter alchLambda2 to 0.9500000000000003
Info: NONBONDED TABLE R-SQUARED SPACING: 0.0625
Info: NONBONDED TABLE SIZE: 705 POINTS
TCL: Running for 1500000 steps
ETITLE: TS BOND ANGLE DIHED IMPRP ELECT VDW BOUNDARY MISC KINETIC TOTAL TEMP POTENTIAL TOTALAVG TEMPAVG PRESSURE GPRESSURE VOLUME PRESSAVG GPRESSAVG
ENERGY: 0 1.6352 5.6641 2.4282 0.0000 -10591.9963 1362.0255 0.0000 0.0000 1790.4832 -7429.7600 305.0659 -9220.2432 -7429.7600 305.0659 -285.9706 -209.5819 30120.3394 -285.9706 -209.5819
ENERGY: 300000 0.7398 3.7689 3.2765 0.0000 -10775.5014 1418.7244 0.0000 0.0000 1713.7018 -7635.2901 291.9837 -9348.9919 -7547.6341 297.1250 -542.9678 -483.9249 30483.5053 -217.5434 -145.5580
ENERGY: 600000 3.1418 3.6633 2.6592 0.0000 -10770.6111 1442.0110 0.0000 0.0000 1802.2857 -7516.8501 307.0768 -9319.1358 -7522.1470 300.4791 19.0804 50.3579 30136.5459 -171.8110 -116.8655
ENERGY: 900000 0.6606 3.0205 3.8066 0.0000 -10796.1319 1461.6331 0.0000 0.0000 1730.8003 -7596.2108 294.8970 -9327.0111 -7504.7553 300.7128 15.0249 126.1762 30330.6623 -162.6459 -105.4800
ENERGY: 1200000 0.5935 4.4947 4.0979 0.0000 -10775.2219 1451.9051 0.0000 0.0000 1836.3841 -7477.7465 312.8866 -9314.1306 -7507.6339 301.1146 304.0419 443.5047 29900.9941 -129.2600 -67.4709
ENERGY: 1500000 1.3168 3.3161 3.6704 0.0000 -10704.4735 1457.2915 0.0000 0.0000 1670.9964 -7567.8823 284.7075 -9238.8786 -7511.0633 299.8026 190.2960 280.2408 30310.3264 -43.7052 19.7478
TCL: Running FEP window  20: Lambda1 0.9500000000000003 Lambda2 1.0    [dLambda 0.04999999999999971]
TCL: Setting parameter firsttimestep to 0
TCL: Setting parameter alchLambda to 0.9500000000000003
Info: NONBONDED TABLE R-SQUARED SPACING: 0.0625
Info: NONBONDED TABLE SIZE: 705 POINTS
TCL: Setting parameter alchLambda2 to 1.0
Info: NONBONDED TABLE R-SQUARED SPACING: 0.0625
Info: NONBONDED TABLE SIZE: 705 POINTS
TCL: Running for 1500000 steps
ETITLE: TS BOND ANGLE DIHED IMPRP ELECT VDW BOUNDARY MISC KINETIC TOTAL TEMP POTENTIAL TOTALAVG TEMPAVG PRESSURE GPRESSURE VOLUME PRESSAVG GPRESSAVG
ENERGY: 0 1.3168 3.3161 3.6704 0.0000 -10705.8464 1457.3391 0.0000 0.0000 1670.1796 -7570.0243 284.5684 -9240.2039 -7570.0243 284.5684 200.1608 289.3332 30310.3264 200.1608 289.3332
ENERGY: 300000 0.9350 3.7796 4.7616 0.0000 -10826.8292 1490.6732 0.0000 0.0000 1727.3151 -7599.3647 294.3032 -9326.6797 -7544.0643 295.4746 423.5853 454.0866 30303.8513 225.9311 279.2921
ENERGY: 600000 1.4982 3.4185 3.0594 0.0000 -10670.5509 1433.4546 0.0000 0.0000 1737.8421 -7491.2781 296.0968 -9229.1202 -7540.6080 296.3361 -100.0006 -0.2531 30694.9657 111.5852 180.4893
ENERGY: 900000 3.1653 9.4652 3.3775 0.0000 -10729.5252 1445.8289 0.0000 0.0000 1815.0492 -7452.6391 309.2515 -9267.6883 -7529.9738 298.1837 -3.3691 133.8085 30444.1875 11.9342 93.9060
ENERGY: 1200000 2.5339 3.1834 4.5933 0.0000 -10754.1848 1526.9474 0.0000 0.0000 1743.7382 -7473.1888 297.1014 -9216.9269 -7527.6456 298.3289 783.6765 894.0608 30743.7119 150.1185 222.3730
ENERGY: 1500000 1.2593 6.6744 3.3189 0.0000 -10711.3602 1466.0164 0.0000 0.0000 1768.1533 -7465.9379 301.2613 -9234.0912 -7521.1889 299.3817 348.7773 384.9886 30664.9238 130.8858 208.1693
TCL: Exiting due to exit command.
