Info: SIMULATION PARAMETERS:
Info: TIMESTEP               2
Info: NUMBER OF STEPS        0
Info: STEPS PER CYCLE        10
Info: PERIODIC CELL BASIS 1  31.3778 0 0
Info: PERIODIC CELL BASIS 2  0 30.1948 0
Info: PERIODIC CELL BASIS 3  0 0 32.9353
Info: PERIODIC CELL CENTER   0 0 0
Info: WRAPPING WATERS AROUND PERIODIC BOUNDARIES ON OUTPUT.
Info: WRAPPING ALL CLUSTERS AROUND PERIODIC BOUNDARIES ON OUTPUT.
Info: FIRST LDB TIMESTEP     50
Info: LAST LDB TIMESTEP     -1
Info: HOM BACKGROUND SCALING 1
Info: PME BACKGROUND SCALING 1
Info: MIN ATOMS PER PATCH    40
Info: EMPTY PATCH LOAD       40 ATOMS
Info: VELOCITY FILE          mobley_3775790_equil.vel
Info: CENTER OF MASS MOVING INITIALLY? NO
Info: DIELECTRIC             1
Info: EXCLUDE                SCALED ONE-FOUR
Info: 1-4 ELECTROSTATICS SCALED BY 0.833333
Info: MODIFIED 1-4 VDW PARAMETERS WILL BE USED
Info: DCD FILENAME           mobley_3775790_prod.dcd
Info: DCD FREQUENCY          100000
Info: DCD FIRST STEP         100000
Info: DCD FILE WILL CONTAIN UNIT CELL DATA
Info: XST FILENAME           mobley_3775790_prod.xst
Info: XST FREQUENCY          100000
Info: NO VELOCITY DCD OUTPUT
Info: NO FORCE DCD OUTPUT
Info: OUTPUT FILENAME        mobley_3775790_prod
Info: BINARY OUTPUT FILES WILL BE USED
Info: RESTART FILENAME       mobley_3775790_prod.restart
Info: RESTART FREQUENCY      100000
Info: BINARY RESTART FILES WILL BE USED
Info: CUTOFF                 9
Info: PAIRLIST DISTANCE      11
Info: PAIRLIST SHRINK RATE   0.01
Info: PAIRLIST GROW RATE     0.01
Info: PAIRLIST TRIGGER       0.3
Info: PAIRLISTS PER CYCLE    2
Info: PAIRLISTS ENABLED
Info: MARGIN                 2
Info: HYDROGEN GROUP CUTOFF  2.5
Info: PATCH DIMENSION        15.5
Info: ENERGY OUTPUT STEPS    100000
Info: ENERGY EVALUATION STEPS    100000
Info: OUTPUT ENERGY PRECISION 4
Info: CROSSTERM ENERGY INCLUDED IN DIHEDRAL
Info: TIMING OUTPUT STEPS    1000000
Info: PRESSURE OUTPUT STEPS  100000
Info: ALCHEMICAL FEP ON
Info: FEP CURRENT LAMBDA VALUE     0
Info: FEP COMPARISON LAMBDA VALUE  0.05
Info: FEP INTRA-ALCHEMICAL NON-BONDED INTERACTIONS WILL BE RETAINED
Info: FEP INTRA-ALCHEMICAL BONDED INTERACTIONS WILL BE RETAINED
Info: FEP VDW SHIFTING COEFFICIENT 5
Info: FEP ELEC. ACTIVE FOR ANNIHILATED PARTICLES BETWEEN LAMBDA = 0 AND LAMBDA = 0.5
Info: FEP ELEC. ACTIVE FOR EXNIHILATED PARTICLES BETWEEN LAMBDA = 0.5 AND LAMBDA = 1
Info: FEP VDW ACTIVE FOR ANNIHILATED PARTICLES BETWEEN LAMBDA = 0 AND LAMBDA = 1
Info: FEP VDW ACTIVE FOR EXNIHILATED PARTICLES BETWEEN LAMBDA = 0 AND LAMBDA = 1
Info: FEP BOND ACTIVE FOR ANNIHILATED PARTICLES BETWEEN LAMBDA = 1 AND LAMBDA = 1
Info: FEP BOND ACTIVE FOR EXNIHILATED PARTICLES BETWEEN LAMBDA = 0 AND LAMBDA = 0
Info: LANGEVIN DYNAMICS ACTIVE
Info: LANGEVIN TEMPERATURE   300
Info: LANGEVIN USING BBK INTEGRATOR
Info: LANGEVIN DAMPING COEFFICIENT IS 1 INVERSE PS
Info: LANGEVIN DYNAMICS APPLIED TO HYDROGENS
Info: LANGEVIN PISTON PRESSURE CONTROL ACTIVE
Info:        TARGET PRESSURE IS 1.01325 BAR
Info:     OSCILLATION PERIOD IS 50 FS
Info:             DECAY TIME IS 25 FS
Info:     PISTON TEMPERATURE IS 300 K
Info:       PRESSURE CONTROL IS GROUP-BASED
Info:    INITIAL STRAIN RATE IS -0.000865819 -0.000865819 -0.000865819
Info:       CELL FLUCTUATION IS ISOTROPIC
Info: PARTICLE MESH EWALD (PME) ACTIVE
Info: PME TOLERANCE               1e-06
Info: PME EWALD COEFFICIENT       0.348832
Info: PME INTERPOLATION ORDER     4
Info: PME GRID DIMENSIONS         32 32 36
Info: PME MAXIMUM GRID SPACING    1
Info: PME CALCULATION WILL BE PERFORMED ON GPU
Info: FULL ELECTROSTATIC EVALUATION FREQUENCY      2
Info: USING VERLET I (r-RESPA) MTS SCHEME.
Info: C1 SPLITTING OF LONG RANGE ELECTROSTATICS
Info: PLACING ATOMS IN PATCHES BY HYDROGEN GROUPS
Info: RIGID BONDS TO HYDROGEN : ALL
Info:         ERROR TOLERANCE : 1e-08
Info:          MAX ITERATIONS : 100
Info: RIGID WATER USING SETTLE ALGORITHM
Info: RANDOM NUMBER SEED     1743547168
Info: USE HYDROGEN BONDS?    NO
Info: Using AMBER format force field!
Info: AMBER PARM FILE        mobley_3775790.prmtop
Info: COORDINATE PDB         mobley_3775790.pdb
Info: Exclusions will be read from PARM file!
Info: SCNB (VDW SCALING)     2
Info: USING ARITHMETIC MEAN TO COMBINE L-J SIGMA PARAMETERS
Info: BINARY COORDINATES     mobley_3775790_equil.coor
Info: SUMMARY OF PARAMETERS:
Info: 9 BONDS
Info: 10 ANGLES
Info:   10 HARMONIC
Info:   0 COSINE-BASED
Info: 4 DIHEDRAL
Info: 0 IMPROPER
Info: 0 CROSSTERM
Info: 0 VDW
Info: 36 VDW_PAIRS
Info: 0 NBTHOLE_PAIRS
Info: To read alchdata from file: mobley_3775790.pdb
Info: To read alchflag data from column: 5
Info: STRUCTURE SUMMARY:
Info: 2998 ATOMS
Info: 2998 BONDS
Info: 21 ANGLES
Info: 31 DIHEDRALS
Info: 0 IMPROPERS
Info: 0 CROSSTERMS
Info: 3040 EXCLUSIONS
Info: 2992 RIGID BONDS
Info: ALCH: 0 ATOMS TO DISAPPEAR IN FINAL STATE
Info: ALCH: 13 ATOMS TO APPEAR IN FINAL STATE
Info: 6002 DEGREES OF FREEDOM
Info: 1001 HYDROGEN GROUPS
Info: 4 ATOMS IN LARGEST HYDROGEN GROUP
Info: 1001 MIGRATION GROUPS
Info: 4 ATOMS IN LARGEST MIGRATION GROUP
Info: TOTAL MASS = 18007 amu
Info: TOTAL CHARGE = -1.49012e-08 e
Info: MASS DENSITY = 0.958264 g/cm^3
Info: ATOM DENSITY = 0.0960761 atoms/A^3
Info: ADDED 0 IMPLICIT EXCLUSIONS
Info: NONBONDED TABLE R-SQUARED SPACING: 0.0625
Info: NONBONDED TABLE SIZE: 705 POINTS
Info: REMOVING COM VELOCITY -0.0746651 -0.0840198 0.202353
Info: Use 3D box decompostion in PME FFT.
Info: Updated CUDA force table with 4096 elements.
Info: Updated CUDA LJ table with 8 x 8 elements.
Info: Found 14 unique exclusion lists needing 28 bytes
TCL: Running for 1500000 steps
ETITLE: TS BOND ANGLE DIHED IMPRP ELECT VDW BOUNDARY MISC KINETIC TOTAL TEMP POTENTIAL TOTALAVG TEMPAVG PRESSURE GPRESSURE VOLUME PRESSAVG GPRESSAVG
ENERGY: 0 3.9105 6.4012 3.1686 0.0000 -10906.8349 1451.6182 0.0000 0.0000 1770.7037 -7671.0327 296.9206 -9441.7364 -7671.0327 296.9206 -359.9825 -261.5083 31204.4190 -359.9825 -261.5083
ENERGY: 300000 1.8388 4.4849 1.3191 0.0000 -10963.7693 1550.2917 0.0000 0.0000 1797.8163 -7608.0186 301.4669 -9405.8348 -7645.1280 298.5545 581.6510 712.0249 30604.4389 -82.3304 2.0782
ENERGY: 600000 2.9840 6.8060 1.3448 0.0000 -10863.9825 1412.2084 0.0000 0.0000 1786.9931 -7653.6463 299.6521 -9440.6393 -7636.0708 298.7365 -249.9399 -193.6642 30450.3021 -48.9014 24.8221
ENERGY: 900000 1.4541 10.1415 3.9842 0.0000 -10883.5738 1495.0874 0.0000 0.0000 1779.0452 -7593.8614 298.3193 -9372.9066 -7627.8460 298.7549 476.9282 577.0292 30573.4817 -25.3635 48.7995
ENERGY: 1200000 0.9571 5.6280 1.2551 0.0000 -10922.9744 1523.2342 0.0000 0.0000 1798.0478 -7593.8523 301.5058 -9391.9001 -7614.9460 299.6854 350.0824 497.9078 30814.4383 53.1865 132.8369
ENERGY: 1500000 0.8240 6.4336 1.5744 0.0000 -10808.6799 1417.0468 0.0000 0.0000 1870.9964 -7511.8046 313.7382 -9382.8011 -7614.5621 300.3930 -301.4790 -305.0588 30969.2039 -10.1850 58.6059
TCL: Running FEP window   2: Lambda1 0.05   Lambda2 0.1    [dLambda 0.05  ]
TCL: Setting parameter firsttimestep to 0
TCL: Setting parameter alchLambda to 0.05
Info: NONBONDED TABLE R-SQUARED SPACING: 0.0625
Info: NONBONDED TABLE SIZE: 705 POINTS
TCL: Setting parameter alchLambda2 to 0.1
Info: NONBONDED TABLE R-SQUARED SPACING: 0.0625
Info: NONBONDED TABLE SIZE: 705 POINTS
TCL: Running for 1500000 steps
ETITLE: TS BOND ANGLE DIHED IMPRP ELECT VDW BOUNDARY MISC KINETIC TOTAL TEMP POTENTIAL TOTALAVG TEMPAVG PRESSURE GPRESSURE VOLUME PRESSAVG GPRESSAVG
ENERGY: 0 0.8240 6.4336 1.5744 0.0000 -10808.6796 1417.9066 0.0000 0.0000 1870.0810 -7511.8601 313.5847 -9381.9410 -7511.8601 313.5847 -385.7952 -299.0154 30969.2039 -385.7952 -299.0154
ENERGY: 300000 2.5939 6.6173 2.1286 0.0000 -10836.0509 1438.5441 0.0000 0.0000 1813.7295 -7572.4375 304.1354 -9386.1670 -7569.6455 304.7787 -276.9361 -248.4636 30934.1386 -422.4575 -355.2217
ENERGY: 600000 0.4581 6.2361 4.3699 0.0000 -10820.0183 1433.6290 0.0000 0.0000 1801.9398 -7573.3853 302.1584 -9375.3251 -7586.3240 304.0008 70.8825 68.9949 30597.6795 -125.6092 -69.8877
ENERGY: 900000 0.9140 8.0136 2.1157 0.0000 -10984.3291 1548.3362 0.0000 0.0000 1832.0639 -7592.8857 307.2098 -9424.9496 -7596.4613 302.2254 431.8718 475.8129 30767.4380 -65.9566 -8.2824
ENERGY: 1200000 2.5420 7.0212 3.5943 0.0000 -10963.6976 1475.9723 0.0000 0.0000 1797.6997 -7676.8681 301.4474 -9474.5678 -7596.7001 302.1958 -23.3866 123.7465 30289.0463 -28.9643 34.2696
ENERGY: 1500000 3.0632 6.5185 2.8902 0.0000 -10924.7258 1531.2511 0.0000 0.0000 1806.2582 -7574.7445 302.8825 -9381.0027 -7585.7523 302.4721 567.4577 598.3105 30784.6842 -28.1949 32.3773
TCL: Running FEP window   3: Lambda1 0.1    Lambda2 0.15000000000000002 [dLambda 0.05000000000000002]
TCL: Setting parameter firsttimestep to 0
TCL: Setting parameter alchLambda to 0.1
Info: NONBONDED TABLE R-SQUARED SPACING: 0.0625
Info: NONBONDED TABLE SIZE: 705 POINTS
TCL: Setting parameter alchLambda2 to 0.15000000000000002
Info: NONBONDED TABLE R-SQUARED SPACING: 0.0625
Info: NONBONDED TABLE SIZE: 705 POINTS
TCL: Running for 1500000 steps
ETITLE: TS BOND ANGLE DIHED IMPRP ELECT VDW BOUNDARY MISC KINETIC TOTAL TEMP POTENTIAL TOTALAVG TEMPAVG PRESSURE GPRESSURE VOLUME PRESSAVG GPRESSAVG
ENERGY: 0 3.0632 6.5185 2.8902 0.0000 -10924.7258 1533.5495 0.0000 0.0000 1805.3273 -7573.3771 302.7264 -9378.7043 -7573.3771 302.7264 523.5624 604.9200 30784.6842 523.5624 604.9200
ENERGY: 300000 4.6470 4.3811 3.6149 0.0000 -10859.5771 1406.0158 0.0000 0.0000 1781.0946 -7659.8237 298.6630 -9440.9183 -7636.6884 298.4998 -493.1971 -420.5281 30694.1011 206.7681 263.9738
ENERGY: 600000 1.5945 6.3992 1.9741 0.0000 -10857.7240 1414.0900 0.0000 0.0000 1808.6209 -7625.0455 303.2787 -9433.6664 -7638.0641 298.9644 -259.4026 -182.5304 30783.4078 63.5601 120.9577
ENERGY: 900000 1.4330 6.8939 2.0670 0.0000 -10772.1917 1398.4995 0.0000 0.0000 1810.2559 -7553.0424 303.5529 -9363.2983 -7630.6163 298.3012 -364.3859 -284.4212 30881.4690 49.8780 113.6893
ENERGY: 1200000 6.0300 5.2248 2.4997 0.0000 -10874.5969 1530.4396 0.0000 0.0000 1794.1799 -7536.2228 300.8572 -9330.4027 -7616.1400 298.7894 424.1108 475.1821 30785.4334 10.2761 68.9959
ENERGY: 1500000 1.9444 4.1848 3.6669 0.0000 -10984.9095 1487.1412 0.0000 0.0000 1805.0228 -7682.9494 302.6754 -9487.9722 -7621.1412 298.5784 -106.7649 -39.9281 30520.2431 -26.5755 35.8425
TCL: Running FEP window   4: Lambda1 0.15000000000000002 Lambda2 0.2    [dLambda 0.04999999999999999]
TCL: Setting parameter firsttimestep to 0
TCL: Setting parameter alchLambda to 0.15000000000000002
Info: NONBONDED TABLE R-SQUARED SPACING: 0.0625
Info: NONBONDED TABLE SIZE: 705 POINTS
TCL: Setting parameter alchLambda2 to 0.2
Info: NONBONDED TABLE R-SQUARED SPACING: 0.0625
Info: NONBONDED TABLE SIZE: 705 POINTS
TCL: Running for 1500000 steps
ETITLE: TS BOND ANGLE DIHED IMPRP ELECT VDW BOUNDARY MISC KINETIC TOTAL TEMP POTENTIAL TOTALAVG TEMPAVG PRESSURE GPRESSURE VOLUME PRESSAVG GPRESSAVG
ENERGY: 0 1.9444 4.1848 3.6669 0.0000 -10984.9094 1488.4633 0.0000 0.0000 1804.1408 -7682.5093 302.5275 -9486.6501 -7682.5093 302.5275 -130.7764 -35.7043 30520.2431 -130.7764 -35.7043
ENERGY: 300000 3.9878 4.1345 1.8805 0.0000 -10916.5519 1502.4083 0.0000 0.0000 1795.3620 -7608.7788 301.0554 -9404.1408 -7625.0024 301.2038 383.4083 491.7065 30595.7027 -24.1722 72.9268
ENERGY: 600000 2.4163 4.6633 0.8598 0.0000 -10929.1567 1471.9340 0.0000 0.0000 1718.6595 -7730.6238 288.1935 -9449.2832 -7650.3752 296.8707 -109.2403 -82.5701 30468.3447 -159.9390 -82.7822
ENERGY: 900000 1.1657 6.8193 1.7447 0.0000 -10899.5585 1446.3277 0.0000 0.0000 1808.9359 -7634.5653 303.3315 -9443.5011 -7644.2329 297.2708 -427.2709 -340.3802 30747.5542 -111.4216 -38.0396
ENERGY: 1200000 2.2425 8.2275 2.5652 0.0000 -10958.0725 1482.7679 0.0000 0.0000 1759.0083 -7703.2611 294.9594 -9462.2694 -7640.9680 297.1385 241.1835 311.0715 30346.3380 -53.6506 18.5763
ENERGY: 1500000 1.6108 7.0628 2.0335 0.0000 -10803.5164 1378.2516 0.0000 0.0000 1744.0914 -7670.4662 292.4581 -9414.5576 -7635.1463 297.8065 -863.9068 -806.1189 31127.9307 -50.0437 21.0331
TCL: Running FEP window   5: Lambda1 0.2    Lambda2 0.25   [dLambda 0.04999999999999999]
TCL: Setting parameter firsttimestep to 0
TCL: Setting parameter alchLambda to 0.2
Info: NONBONDED TABLE R-SQUARED SPACING: 0.0625
Info: NONBONDED TABLE SIZE: 705 POINTS
TCL: Setting parameter alchLambda2 to 0.25
Info: NONBONDED TABLE R-SQUARED SPACING: 0.0625
Info: NONBONDED TABLE SIZE: 705 POINTS
TCL: Running for 1500000 steps
ETITLE: TS BOND ANGLE DIHED IMPRP ELECT VDW BOUNDARY MISC KINETIC TOTAL TEMP POTENTIAL TOTALAVG TEMPAVG PRESSURE GPRESSURE VOLUME PRESSAVG GPRESSAVG
ENERGY: 0 1.6109 7.0629 2.0335 0.0000 -10803.5147 1380.1841 0.0000 0.0000 1743.1963 -7669.4271 292.3080 -9412.6233 -7669.4271 292.3080 -886.4471 -794.2936 31127.9307 -886.4471 -794.2936
ENERGY: 300000 1.7454 6.2795 0.6901 0.0000 -10871.8615 1463.1503 0.0000 0.0000 1774.7594 -7625.2367 297.6007 -9399.9961 -7617.6256 300.7125 -7.1407 27.0834 30738.4319 -433.6736 -332.4562
ENERGY: 600000 1.9073 6.6502 4.0481 0.0000 -10738.1757 1418.9724 0.0000 0.0000 1750.1745 -7556.4233 293.4781 -9306.5978 -7608.2772 300.6327 -17.5803 25.1622 30820.3089 -362.5033 -283.7045
ENERGY: 900000 0.8932 4.3091 3.6629 0.0000 -10901.9566 1439.6321 0.0000 0.0000 1724.2932 -7729.1660 289.1382 -9453.4592 -7611.6204 300.1466 -200.3142 -155.8076 30444.2677 -171.2490 -89.0902
ENERGY: 1200000 1.5618 6.3490 2.5548 0.0000 -10874.5679 1523.8346 0.0000 0.0000 1743.1797 -7597.0879 292.3052 -9340.2676 -7607.7490 300.4815 540.2367 665.6235 30793.4571 -132.9201 -47.5542
ENERGY: 1500000 1.4749 5.1699 1.3188 0.0000 -11032.2784 1521.6739 0.0000 0.0000 1819.0172 -7683.6236 305.0220 -9502.6408 -7618.5762 299.9392 345.1023 429.9940 30228.3058 -144.7947 -65.5157
TCL: Running FEP window   6: Lambda1 0.25   Lambda2 0.3    [dLambda 0.04999999999999999]
TCL: Setting parameter firsttimestep to 0
TCL: Setting parameter alchLambda to 0.25
Info: NONBONDED TABLE R-SQUARED SPACING: 0.0625
Info: NONBONDED TABLE SIZE: 705 POINTS
TCL: Setting parameter alchLambda2 to 0.3
Info: NONBONDED TABLE R-SQUARED SPACING: 0.0625
Info: NONBONDED TABLE SIZE: 705 POINTS
TCL: Running for 1500000 steps
ETITLE: TS BOND ANGLE DIHED IMPRP ELECT VDW BOUNDARY MISC KINETIC TOTAL TEMP POTENTIAL TOTALAVG TEMPAVG PRESSURE GPRESSURE VOLUME PRESSAVG GPRESSAVG
ENERGY: 0 1.4749 5.1699 1.3188 0.0000 -11032.2784 1521.8920 0.0000 0.0000 1818.1375 -7684.2852 304.8745 -9502.4228 -7684.2852 304.8745 350.6294 433.8032 30228.3058 350.6294 433.8032
ENERGY: 300000 1.3910 5.7827 3.9714 0.0000 -10869.8496 1438.7932 0.0000 0.0000 1758.8394 -7661.0718 294.9311 -9419.9112 -7633.3499 302.0925 -298.0259 -225.5684 30616.6658 -9.9223 60.3815
ENERGY: 600000 5.0772 5.4658 1.8027 0.0000 -10914.0286 1449.7115 0.0000 0.0000 1813.4808 -7638.4906 304.0937 -9451.9714 -7614.7236 303.0458 -505.1490 -464.0107 31227.3121 -40.2495 24.2179
ENERGY: 900000 1.9458 4.4534 3.9308 0.0000 -10797.8362 1388.0915 0.0000 0.0000 1715.9939 -7683.4208 287.7465 -9399.4147 -7618.7332 301.5011 -601.8724 -573.6864 30851.0757 -216.5265 -163.4122
ENERGY: 1200000 1.1277 6.6672 5.9512 0.0000 -10789.0794 1416.9421 0.0000 0.0000 1838.6444 -7519.7468 308.3132 -9358.3912 -7611.4459 301.7419 -275.9915 -259.9968 31310.3013 -125.0743 -69.1456
ENERGY: 1500000 3.4825 8.2928 3.6990 0.0000 -10867.2714 1455.3288 0.0000 0.0000 1773.9205 -7622.5477 297.4600 -9396.4683 -7607.7206 301.9132 -30.1784 89.0054 30732.6624 -84.0009 -22.0732
TCL: Running FEP window   7: Lambda1 0.3    Lambda2 0.35   [dLambda 0.04999999999999999]
TCL: Setting parameter firsttimestep to 0
TCL: Setting parameter alchLambda to 0.3
Info: NONBONDED TABLE R-SQUARED SPACING: 0.0625
Info: NONBONDED TABLE SIZE: 705 POINTS
TCL: Setting parameter alchLambda2 to 0.35
Info: NONBONDED TABLE R-SQUARED SPACING: 0.0625
Info: NONBONDED TABLE SIZE: 705 POINTS
TCL: Running for 1500000 steps
ETITLE: TS BOND ANGLE DIHED IMPRP ELECT VDW BOUNDARY MISC KINETIC TOTAL TEMP POTENTIAL TOTALAVG TEMPAVG PRESSURE GPRESSURE VOLUME PRESSAVG GPRESSAVG
ENERGY: 0 3.4825 8.2928 3.6990 0.0000 -10867.2720 1456.0307 0.0000 0.0000 1773.0637 -7622.7032 297.3163 -9395.7670 -7622.7032 297.3163 14.7715 99.7556 30732.6624 14.7715 99.7556
ENERGY: 300000 0.6105 3.9436 2.6777 0.0000 -10836.0246 1404.0852 0.0000 0.0000 1755.8578 -7668.8498 294.4311 -9424.7076 -7634.0451 293.6751 -558.1806 -503.9152 30911.9075 -606.5672 -548.4524
ENERGY: 600000 1.1045 7.1509 3.1655 0.0000 -11049.5579 1597.1591 0.0000 0.0000 1769.8012 -7671.1767 296.7692 -9440.9779 -7631.6221 296.0204 1005.7651 1047.0761 30512.1882 -289.8585 -239.3164
ENERGY: 900000 1.3998 10.1182 5.9127 0.0000 -10950.1863 1444.6119 0.0000 0.0000 1736.2869 -7751.8568 291.1494 -9488.1436 -7650.1094 296.5523 -486.6872 -379.0529 30665.8248 -234.5072 -166.0295
ENERGY: 1200000 3.4522 5.3824 3.2232 0.0000 -10803.4806 1399.3081 0.0000 0.0000 1735.6016 -7656.5131 291.0345 -9392.1147 -7653.8137 296.0424 -292.7241 -158.5452 30636.6183 -121.6697 -50.2111
ENERGY: 1500000 1.1572 5.6879 3.6180 0.0000 -10836.2879 1481.7979 0.0000 0.0000 1783.8683 -7560.1586 299.1281 -9344.0269 -7648.0506 296.2273 322.6208 476.0165 30557.5728 -125.5736 -40.5031
TCL: Running FEP window   8: Lambda1 0.35   Lambda2 0.39999999999999997 [dLambda 0.04999999999999999]
TCL: Setting parameter firsttimestep to 0
TCL: Setting parameter alchLambda to 0.35
Info: NONBONDED TABLE R-SQUARED SPACING: 0.0625
Info: NONBONDED TABLE SIZE: 705 POINTS
TCL: Setting parameter alchLambda2 to 0.39999999999999997
Info: NONBONDED TABLE R-SQUARED SPACING: 0.0625
Info: NONBONDED TABLE SIZE: 705 POINTS
TCL: Running for 1500000 steps
ETITLE: TS BOND ANGLE DIHED IMPRP ELECT VDW BOUNDARY MISC KINETIC TOTAL TEMP POTENTIAL TOTALAVG TEMPAVG PRESSURE GPRESSURE VOLUME PRESSAVG GPRESSAVG
ENERGY: 0 1.1572 5.6879 3.6180 0.0000 -10836.2890 1481.5836 0.0000 0.0000 1782.9435 -7561.2988 298.9730 -9344.2423 -7561.2988 298.9730 398.7664 478.0314 30557.5728 398.7664 478.0314
ENERGY: 300000 1.5594 5.4614 4.6505 0.0000 -10702.9829 1371.9497 0.0000 0.0000 1807.0295 -7512.3324 303.0119 -9319.3619 -7566.5029 300.7420 -563.6627 -522.9216 30852.6005 -299.0030 -217.3015
ENERGY: 600000 1.8931 7.0649 4.0017 0.0000 -10995.7655 1617.8819 0.0000 0.0000 1772.4922 -7592.4317 297.2205 -9364.9239 -7583.7496 298.6730 1465.0131 1526.0048 30164.5884 168.8079 237.8114
ENERGY: 900000 1.3027 4.9618 3.3957 0.0000 -10816.2631 1457.0670 0.0000 0.0000 1801.9815 -7547.5544 302.1654 -9349.5359 -7570.2904 299.9705 -131.8475 -90.2946 31422.4139 -46.6355 24.0477
ENERGY: 1200000 1.7100 8.4611 1.0903 0.0000 -10899.5476 1489.3005 0.0000 0.0000 1758.6531 -7640.3325 294.8999 -9398.9856 -7580.7828 299.0335 97.8622 178.6978 30518.3171 -56.9375 15.2621
ENERGY: 1500000 2.8120 6.9803 0.9990 0.0000 -10885.1038 1419.8703 0.0000 0.0000 1765.9230 -7688.5193 296.1189 -9454.4423 -7579.9934 299.4002 -476.0484 -438.4729 30729.3350 -77.9406 -8.0708
TCL: Running FEP window   9: Lambda1 0.39999999999999997 Lambda2 0.44999999999999996 [dLambda 0.04999999999999999]
TCL: Setting parameter firsttimestep to 0
TCL: Setting parameter alchLambda to 0.39999999999999997
Info: NONBONDED TABLE R-SQUARED SPACING: 0.0625
Info: NONBONDED TABLE SIZE: 705 POINTS
TCL: Setting parameter alchLambda2 to 0.44999999999999996
Info: NONBONDED TABLE R-SQUARED SPACING: 0.0625
Info: NONBONDED TABLE SIZE: 705 POINTS
TCL: Running for 1500000 steps
ETITLE: TS BOND ANGLE DIHED IMPRP ELECT VDW BOUNDARY MISC KINETIC TOTAL TEMP POTENTIAL TOTALAVG TEMPAVG PRESSURE GPRESSURE VOLUME PRESSAVG GPRESSAVG
ENERGY: 0 2.8120 6.9803 0.9990 0.0000 -10885.1055 1420.0148 0.0000 0.0000 1765.0250 -7689.2745 295.9683 -9454.2995 -7689.2745 295.9683 -518.8068 -434.1143 30729.3350 -518.8068 -434.1143
ENERGY: 300000 4.0254 7.3171 8.4271 0.0000 -10933.0051 1524.4795 0.0000 0.0000 1774.1364 -7614.6196 297.4962 -9388.7560 -7627.3370 297.6991 322.0204 409.4242 30923.4490 -102.2069 -45.4487
ENERGY: 600000 1.6519 5.3045 1.1747 0.0000 -11013.6059 1519.4228 0.0000 0.0000 1850.9042 -7635.1479 310.3690 -9486.0521 -7617.7777 300.8459 485.6524 555.6974 30063.2896 -106.6733 -47.2498
ENERGY: 900000 3.0361 4.5323 0.5163 0.0000 -10886.4525 1422.0530 0.0000 0.0000 1758.1645 -7698.1505 294.8179 -9456.3149 -7620.1591 300.0187 -330.7515 -211.4359 30437.0886 -110.0202 -53.7230
ENERGY: 1200000 1.9989 6.7379 1.3331 0.0000 -10851.8451 1411.4570 0.0000 0.0000 1791.5400 -7638.7782 300.4145 -9430.3181 -7618.2884 300.2451 -409.1142 -315.8256 30371.5273 -134.1690 -78.9846
ENERGY: 1500000 1.5756 7.6704 2.4070 0.0000 -10836.3397 1491.7351 0.0000 0.0000 1770.4638 -7562.4877 296.8803 -9332.9516 -7619.3692 300.3953 142.5358 187.1852 31418.5826 -147.4438 -88.7604
TCL: Running FEP window  10: Lambda1 0.44999999999999996 Lambda2 0.49999999999999994 [dLambda 0.04999999999999999]
TCL: Setting parameter firsttimestep to 0
TCL: Setting parameter alchLambda to 0.44999999999999996
Info: NONBONDED TABLE R-SQUARED SPACING: 0.0625
Info: NONBONDED TABLE SIZE: 705 POINTS
TCL: Setting parameter alchLambda2 to 0.49999999999999994
Info: NONBONDED TABLE R-SQUARED SPACING: 0.0625
Info: NONBONDED TABLE SIZE: 705 POINTS
TCL: Running for 1500000 steps
ETITLE: TS BOND ANGLE DIHED IMPRP ELECT VDW BOUNDARY MISC KINETIC TOTAL TEMP POTENTIAL TOTALAVG TEMPAVG PRESSURE GPRESSURE VOLUME PRESSAVG GPRESSAVG
ENERGY: 0 1.5756 7.6704 2.4070 0.0000 -10836.3400 1491.5340 0.0000 0.0000 1769.5661 -7563.5869 296.7298 -9333.1530 -7563.5869 296.7298 125.4390 190.8741 31418.5826 125.4390 190.8741
ENERGY: 300000 1.3035 6.3180 3.1260 0.0000 -10856.1351 1425.0049 0.0000 0.0000 1760.7052 -7659.6776 295.2440 -9420.3828 -7606.5882 298.2799 -346.4389 -378.7593 30872.6074 181.9600 211.9812
ENERGY: 600000 2.5784 4.5176 0.5450 0.0000 -10769.5447 1347.0549 0.0000 0.0000 1789.8606 -7624.9883 300.1329 -9414.8489 -7630.0774 297.6712 -1117.6828 -1132.3111 31101.0278 -199.7346 -156.2888
ENERGY: 900000 0.4554 7.4967 1.7028 0.0000 -10842.4148 1449.6175 0.0000 0.0000 1759.0987 -7624.0436 294.9746 -9383.1424 -7615.4901 297.8742 -57.0274 9.4127 30645.9010 -170.9804 -113.3742
ENERGY: 1200000 2.3219 6.7365 2.8626 0.0000 -10725.3035 1367.4190 0.0000 0.0000 1807.7725 -7538.1909 303.1365 -9345.9634 -7598.5448 299.6045 -468.3059 -373.6570 30928.1961 -181.4894 -124.0573
ENERGY: 1500000 0.6494 6.0409 4.8721 0.0000 -10909.3503 1481.9292 0.0000 0.0000 1773.9745 -7641.8842 297.4690 -9415.8586 -7602.4504 299.9468 38.8768 11.6714 30919.3077 -147.7880 -92.7091
TCL: Running FEP window  11: Lambda1 0.49999999999999994 Lambda2 0.5499999999999999 [dLambda 0.04999999999999999]
TCL: Setting parameter firsttimestep to 0
TCL: Setting parameter alchLambda to 0.49999999999999994
Info: NONBONDED TABLE R-SQUARED SPACING: 0.0625
Info: NONBONDED TABLE SIZE: 705 POINTS
TCL: Setting parameter alchLambda2 to 0.5499999999999999
Info: NONBONDED TABLE R-SQUARED SPACING: 0.0625
Info: NONBONDED TABLE SIZE: 705 POINTS
TCL: Running for 1500000 steps
ETITLE: TS BOND ANGLE DIHED IMPRP ELECT VDW BOUNDARY MISC KINETIC TOTAL TEMP POTENTIAL TOTALAVG TEMPAVG PRESSURE GPRESSURE VOLUME PRESSAVG GPRESSAVG
ENERGY: 0 0.6494 6.0409 4.8721 0.0000 -10909.3489 1484.3476 0.0000 0.0000 1773.0895 -7640.3494 297.3206 -9413.4388 -7640.3494 297.3206 -37.0769 34.6967 30919.3077 -37.0769 34.6967
ENERGY: 300000 3.6794 4.7991 2.1436 0.0000 -10773.8021 1411.9374 0.0000 0.0000 1802.0776 -7549.1650 302.1815 -9351.2426 -7606.5104 298.3133 -284.4313 -257.6661 31146.2237 197.9754 244.0127
ENERGY: 600000 3.1795 5.2984 2.3203 0.0000 -10996.0862 1514.2863 0.0000 0.0000 1872.7884 -7598.2133 314.0386 -9471.0017 -7592.7291 301.6352 388.3528 451.5796 30674.0022 -2.6018 53.9568
ENERGY: 900000 1.1871 9.9852 2.6538 0.0000 -10937.6163 1528.7168 0.0000 0.0000 1784.0606 -7611.0128 299.1603 -9395.0734 -7604.3699 301.2269 124.4401 153.1699 31458.9853 -46.7548 16.2811
ENERGY: 1200000 1.3808 8.9298 3.5081 0.0000 -10801.1600 1466.4879 0.0000 0.0000 1858.1507 -7462.7027 311.5841 -9320.8534 -7597.4977 300.8827 279.5552 342.5125 30801.4644 -15.5533 43.1879
ENERGY: 1500000 2.2002 4.5711 4.1875 0.0000 -10786.2098 1496.7692 0.0000 0.0000 1761.6723 -7516.8094 295.4061 -9278.4817 -7595.0271 300.0816 647.5342 756.4991 30883.8425 -3.1035 59.9568
TCL: Running FEP window  12: Lambda1 0.5499999999999999 Lambda2 0.6    [dLambda 0.050000000000000044]
TCL: Setting parameter firsttimestep to 0
TCL: Setting parameter alchLambda to 0.5499999999999999
Info: NONBONDED TABLE R-SQUARED SPACING: 0.0625
Info: NONBONDED TABLE SIZE: 705 POINTS
TCL: Setting parameter alchLambda2 to 0.6
Info: NONBONDED TABLE R-SQUARED SPACING: 0.0625
Info: NONBONDED TABLE SIZE: 705 POINTS
TCL: Running for 1500000 steps
ETITLE: TS BOND ANGLE DIHED IMPRP ELECT VDW BOUNDARY MISC KINETIC TOTAL TEMP POTENTIAL TOTALAVG TEMPAVG PRESSURE GPRESSURE VOLUME PRESSAVG GPRESSAVG
ENERGY: 0 2.2002 4.5711 4.1875 0.0000 -10786.0617 1496.7151 0.0000 0.0000 1760.7885 -7517.5993 295.2579 -9278.3878 -7517.5993 295.2579 676.7141 757.6958 30883.8425 676.7141 757.6958
ENERGY: 300000 2.1445 5.5606 1.5230 0.0000 -10930.0342 1500.3342 0.0000 0.0000 1773.7660 -7646.7058 297.4341 -9420.4718 -7617.2964 295.9209 253.8709 319.0348 30704.9547 452.3458 524.6387
ENERGY: 600000 3.2242 6.1407 2.9267 0.0000 -10867.3811 1486.4153 0.0000 0.0000 1760.4668 -7608.2074 295.2040 -9368.6742 -7629.3248 296.0627 347.2865 469.3701 30238.8111 197.5938 268.9573
ENERGY: 900000 2.3458 3.9597 3.5432 0.0000 -10905.2318 1492.0797 0.0000 0.0000 1810.6147 -7592.6886 303.6131 -9403.3034 -7602.0182 297.6317 -20.5415 80.4588 31104.2974 74.6871 163.6587
ENERGY: 1200000 2.7317 4.0047 2.4850 0.0000 -10806.6449 1464.5113 0.0000 0.0000 1751.1869 -7581.7253 293.6479 -9332.9123 -7593.0323 298.2647 250.4156 302.5661 30770.9443 112.3668 195.4204
ENERGY: 1500000 2.4812 4.7572 1.7753 0.0000 -10839.8415 1504.4945 0.0000 0.0000 1750.7552 -7575.5780 293.5755 -9326.3332 -7595.3239 298.8611 619.9771 673.7511 30756.9671 154.6101 233.4309
TCL: Running FEP window  13: Lambda1 0.6    Lambda2 0.65   [dLambda 0.050000000000000044]
TCL: Setting parameter firsttimestep to 0
TCL: Setting parameter alchLambda to 0.6
Info: NONBONDED TABLE R-SQUARED SPACING: 0.0625
Info: NONBONDED TABLE SIZE: 705 POINTS
TCL: Setting parameter alchLambda2 to 0.65
Info: NONBONDED TABLE R-SQUARED SPACING: 0.0625
Info: NONBONDED TABLE SIZE: 705 POINTS
TCL: Running for 1500000 steps
ETITLE: TS BOND ANGLE DIHED IMPRP ELECT VDW BOUNDARY MISC KINETIC TOTAL TEMP POTENTIAL TOTALAVG TEMPAVG PRESSURE GPRESSURE VOLUME PRESSAVG GPRESSAVG
ENERGY: 0 2.4812 4.7572 1.7753 0.0000 -10840.0014 1504.4386 0.0000 0.0000 1749.8796 -7576.6694 293.4287 -9326.5490 -7576.6694 293.4287 603.9076 679.6445 30756.9671 603.9076 679.6445
ENERGY: 300000 3.0969 4.6010 2.5283 0.0000 -10928.9324 1468.9426 0.0000 0.0000 1780.5616 -7669.2020 298.5736 -9449.7636 -7587.3427 300.0240 -377.5131 -332.6481 31165.3019 -54.3627 14.7679
ENERGY: 600000 0.8834 7.0297 1.2466 0.0000 -10825.2718 1452.8030 0.0000 0.0000 1763.2339 -7600.0752 295.6680 -9363.3091 -7602.1431 298.8246 -190.6277 -107.4326 31034.5379 -258.8637 -200.3653
ENERGY: 900000 2.5888 9.6706 2.4165 0.0000 -10885.9747 1494.1692 0.0000 0.0000 1761.8168 -7615.3130 295.4304 -9377.1297 -7612.0380 298.0602 191.1370 273.9516 30939.8767 -91.2129 -34.9910
ENERGY: 1200000 0.4255 7.8618 1.9851 0.0000 -11013.3356 1550.1803 0.0000 0.0000 1800.8337 -7652.0492 301.9729 -9452.8829 -7606.6442 299.1189 757.0278 815.3737 30474.8330 16.9241 76.7107
ENERGY: 1500000 2.3851 8.7816 3.5074 0.0000 -10806.8324 1445.8419 0.0000 0.0000 1785.5386 -7560.7777 299.4082 -9346.3164 -7595.5931 300.0031 -165.5430 -68.3952 31165.3889 3.3253 68.6545
TCL: Running FEP window  14: Lambda1 0.65   Lambda2 0.7000000000000001 [dLambda 0.050000000000000044]
TCL: Setting parameter firsttimestep to 0
TCL: Setting parameter alchLambda to 0.65
Info: NONBONDED TABLE R-SQUARED SPACING: 0.0625
Info: NONBONDED TABLE SIZE: 705 POINTS
TCL: Setting parameter alchLambda2 to 0.7000000000000001
Info: NONBONDED TABLE R-SQUARED SPACING: 0.0625
Info: NONBONDED TABLE SIZE: 705 POINTS
TCL: Running for 1500000 steps
ETITLE: TS BOND ANGLE DIHED IMPRP ELECT VDW BOUNDARY MISC KINETIC TOTAL TEMP POTENTIAL TOTALAVG TEMPAVG PRESSURE GPRESSURE VOLUME PRESSAVG GPRESSAVG
ENERGY: 0 2.3851 8.7816 3.5074 0.0000 -10806.6860 1445.8714 0.0000 0.0000 1784.6315 -7561.5088 299.2561 -9346.1404 -7561.5088 299.2561 -150.1635 -59.6367 31165.3889 -150.1635 -59.6367
ENERGY: 300000 2.2440 6.0325 1.7822 0.0000 -10886.0107 1450.0658 0.0000 0.0000 1757.2076 -7668.6785 294.6575 -9425.8861 -7607.1794 299.0141 -199.9786 -94.6297 30892.1977 -142.4164 -65.2779
ENERGY: 600000 2.8611 7.7813 1.8050 0.0000 -10930.1985 1472.8607 0.0000 0.0000 1790.6662 -7654.2242 300.2680 -9444.8904 -7602.1128 298.7759 36.8856 61.6704 30747.8666 -132.3735 -76.2961
ENERGY: 900000 1.9024 5.9400 2.0527 0.0000 -10863.1093 1455.1202 0.0000 0.0000 1796.5220 -7601.5721 301.2499 -9398.0941 -7589.8414 301.1220 28.9612 107.2958 30703.4624 -85.6952 -29.5424
ENERGY: 1200000 2.3893 6.1529 1.8966 0.0000 -10773.0347 1460.3090 0.0000 0.0000 1750.8795 -7551.4074 293.5963 -9302.2869 -7589.9296 300.5715 284.1505 399.1492 30751.3833 -58.1524 1.8354
ENERGY: 1500000 0.9389 6.4806 3.0370 0.0000 -10829.0772 1488.9321 0.0000 0.0000 1797.8929 -7531.7958 301.4798 -9329.6887 -7596.3605 300.3550 503.8852 556.9367 30777.8671 -9.7957 53.2882
TCL: Running FEP window  15: Lambda1 0.7000000000000001 Lambda2 0.7500000000000001 [dLambda 0.050000000000000044]
TCL: Setting parameter firsttimestep to 0
TCL: Setting parameter alchLambda to 0.7000000000000001
Info: NONBONDED TABLE R-SQUARED SPACING: 0.0625
Info: NONBONDED TABLE SIZE: 705 POINTS
TCL: Setting parameter alchLambda2 to 0.7500000000000001
Info: NONBONDED TABLE R-SQUARED SPACING: 0.0625
Info: NONBONDED TABLE SIZE: 705 POINTS
TCL: Running for 1500000 steps
ETITLE: TS BOND ANGLE DIHED IMPRP ELECT VDW BOUNDARY MISC KINETIC TOTAL TEMP POTENTIAL TOTALAVG TEMPAVG PRESSURE GPRESSURE VOLUME PRESSAVG GPRESSAVG
ENERGY: 0 0.9389 6.4806 3.0370 0.0000 -10830.1108 1489.3757 0.0000 0.0000 1797.0273 -7533.2512 301.3346 -9330.2785 -7533.2512 301.3346 469.0769 564.8044 30777.8671 469.0769 564.8044
ENERGY: 300000 1.1465 6.4771 1.1266 0.0000 -10777.5979 1453.2115 0.0000 0.0000 1765.1288 -7550.5074 295.9857 -9315.6362 -7583.7131 297.0158 -40.0968 55.6105 31141.5896 30.1927 97.7723
ENERGY: 600000 0.8331 5.3187 1.7879 0.0000 -10811.0865 1360.9112 0.0000 0.0000 1840.9137 -7601.3218 308.6937 -9442.2355 -7586.3459 300.2652 -557.4533 -487.5679 30492.4164 -30.7150 17.9304
ENERGY: 900000 1.3260 6.1026 2.9712 0.0000 -10888.1063 1490.3025 0.0000 0.0000 1868.5644 -7518.8395 313.3304 -9387.4040 -7578.2087 301.8309 476.4761 545.8026 30674.0087 88.1744 150.6892
ENERGY: 1200000 1.2397 7.1875 1.4097 0.0000 -11015.5651 1529.8272 0.0000 0.0000 1801.2667 -7674.6343 302.0455 -9475.9010 -7600.4460 301.4529 463.7153 533.8904 30396.6089 -35.2337 34.9061
ENERGY: 1500000 0.6605 5.7379 1.4797 0.0000 -10963.7612 1537.1154 0.0000 0.0000 1861.2998 -7557.4678 312.1122 -9418.7676 -7599.9565 301.2138 450.4957 526.8889 30854.2580 33.4702 101.5698
TCL: Running FEP window  16: Lambda1 0.7500000000000001 Lambda2 0.8000000000000002 [dLambda 0.050000000000000044]
TCL: Setting parameter firsttimestep to 0
TCL: Setting parameter alchLambda to 0.7500000000000001
Info: NONBONDED TABLE R-SQUARED SPACING: 0.0625
Info: NONBONDED TABLE SIZE: 705 POINTS
TCL: Setting parameter alchLambda2 to 0.8000000000000002
Info: NONBONDED TABLE R-SQUARED SPACING: 0.0625
Info: NONBONDED TABLE SIZE: 705 POINTS
TCL: Running for 1500000 steps
ETITLE: TS BOND ANGLE DIHED IMPRP ELECT VDW BOUNDARY MISC KINETIC TOTAL TEMP POTENTIAL TOTALAVG TEMPAVG PRESSURE GPRESSURE VOLUME PRESSAVG GPRESSAVG
ENERGY: 0 0.6605 5.7379 1.4797 0.0000 -10964.9854 1537.4496 0.0000 0.0000 1860.4011 -7559.2566 311.9615 -9419.6576 -7559.2566 311.9615 456.6544 534.6697 30854.2580 456.6544 534.6697
ENERGY: 300000 1.3045 4.2046 0.6279 0.0000 -10929.4607 1497.4259 0.0000 0.0000 1807.1944 -7618.7034 303.0395 -9425.8978 -7618.6705 303.6336 184.7078 272.2856 30854.9584 43.0751 108.0072
ENERGY: 600000 1.6571 6.7205 0.9206 0.0000 -10945.3500 1472.0691 0.0000 0.0000 1753.5777 -7710.4051 294.0488 -9463.9827 -7627.1203 301.6995 -117.8481 23.0684 30749.5519 -68.0752 12.1701
ENERGY: 900000 0.7080 8.5083 2.3842 0.0000 -10847.0854 1440.3088 0.0000 0.0000 1822.9449 -7572.2312 305.6806 -9395.1761 -7614.6456 302.1122 -283.3316 -254.0572 30950.8480 -49.4362 33.5429
ENERGY: 1200000 0.8799 6.3864 0.7458 0.0000 -10802.3176 1411.1925 0.0000 0.0000 1801.5920 -7581.5209 302.1001 -9383.1129 -7609.7376 302.1291 -381.2506 -316.9616 31075.2906 -9.4775 61.1544
ENERGY: 1500000 1.4117 6.1586 0.8109 0.0000 -10878.9106 1529.0631 0.0000 0.0000 1801.0183 -7540.4479 302.0039 -9341.4662 -7609.3935 301.4725 633.0741 716.6582 30845.1809 -7.3611 68.2930
TCL: Running FEP window  17: Lambda1 0.8000000000000002 Lambda2 0.8500000000000002 [dLambda 0.050000000000000044]
TCL: Setting parameter firsttimestep to 0
TCL: Setting parameter alchLambda to 0.8000000000000002
Info: NONBONDED TABLE R-SQUARED SPACING: 0.0625
Info: NONBONDED TABLE SIZE: 705 POINTS
TCL: Setting parameter alchLambda2 to 0.8500000000000002
Info: NONBONDED TABLE R-SQUARED SPACING: 0.0625
Info: NONBONDED TABLE SIZE: 705 POINTS
TCL: Running for 1500000 steps
ETITLE: TS BOND ANGLE DIHED IMPRP ELECT VDW BOUNDARY MISC KINETIC TOTAL TEMP POTENTIAL TOTALAVG TEMPAVG PRESSURE GPRESSURE VOLUME PRESSAVG GPRESSAVG
ENERGY: 0 1.4117 6.1586 0.8109 0.0000 -10879.4113 1528.8962 0.0000 0.0000 1800.1249 -7542.0089 301.8541 -9342.1338 -7542.0089 301.8541 635.6719 723.0857 30845.1809 635.6719 723.0857
ENERGY: 300000 3.0898 8.3616 2.0054 0.0000 -10776.4721 1360.8303 0.0000 0.0000 1759.2459 -7642.9391 294.9993 -9402.1850 -7618.7730 299.7467 -835.2454 -795.0127 31048.8275 -106.9914 -35.4852
ENERGY: 600000 0.7665 4.5940 1.7557 0.0000 -10958.7740 1484.9731 0.0000 0.0000 1789.6673 -7677.0174 300.1005 -9466.6847 -7624.4646 299.5113 -133.6403 -69.7203 31247.5499 -24.1869 24.5112
ENERGY: 900000 1.2034 5.7755 1.4177 0.0000 -10943.6436 1517.8624 0.0000 0.0000 1756.2121 -7661.1725 294.4905 -9417.3846 -7626.3806 299.2758 644.4861 622.5740 30574.8709 20.7042 61.4126
ENERGY: 1200000 1.3668 4.3176 4.0533 0.0000 -10786.2944 1343.0358 0.0000 0.0000 1771.7315 -7661.7894 297.0929 -9433.5209 -7629.2857 298.8503 -761.4515 -658.4702 30525.6407 -71.1428 -27.8197
ENERGY: 1500000 0.9703 6.2833 3.3861 0.0000 -10911.3784 1471.1847 0.0000 0.0000 1778.2124 -7651.3417 298.1797 -9429.5541 -7629.7920 298.9829 55.2866 185.6151 30661.6988 -27.8328 18.8539
TCL: Running FEP window  18: Lambda1 0.8500000000000002 Lambda2 0.9000000000000002 [dLambda 0.050000000000000044]
TCL: Setting parameter firsttimestep to 0
TCL: Setting parameter alchLambda to 0.8500000000000002
Info: NONBONDED TABLE R-SQUARED SPACING: 0.0625
Info: NONBONDED TABLE SIZE: 705 POINTS
TCL: Setting parameter alchLambda2 to 0.9000000000000002
Info: NONBONDED TABLE R-SQUARED SPACING: 0.0625
Info: NONBONDED TABLE SIZE: 705 POINTS
TCL: Running for 1500000 steps
ETITLE: TS BOND ANGLE DIHED IMPRP ELECT VDW BOUNDARY MISC KINETIC TOTAL TEMP POTENTIAL TOTALAVG TEMPAVG PRESSURE GPRESSURE VOLUME PRESSAVG GPRESSAVG
ENERGY: 0 0.9703 6.2833 3.3861 0.0000 -10912.0677 1471.7397 0.0000 0.0000 1777.3405 -7652.3479 298.0335 -9429.6884 -7652.3479 298.0335 99.8053 201.1475 30661.6988 99.8053 201.1475
ENERGY: 300000 3.1418 5.1103 4.4826 0.0000 -10915.6129 1474.9541 0.0000 0.0000 1792.8335 -7635.0906 300.6314 -9427.9241 -7650.3589 299.2710 322.5758 388.1562 30573.1553 -123.4496 -42.1841
ENERGY: 600000 0.9316 6.4847 3.1772 0.0000 -10820.9379 1393.2192 0.0000 0.0000 1809.7797 -7607.3455 303.4730 -9417.1251 -7627.1615 300.7796 -597.3573 -550.2478 31172.2499 -158.0466 -93.9581
ENERGY: 900000 3.3752 5.1548 3.3170 0.0000 -10832.8205 1462.8609 0.0000 0.0000 1777.9108 -7580.2018 298.1291 -9358.1126 -7617.6673 299.5650 122.8063 171.0869 30904.1735 -159.8310 -104.9678
ENERGY: 1200000 2.4059 8.4688 1.2962 0.0000 -10867.9274 1435.2157 0.0000 0.0000 1817.4925 -7603.0483 304.7664 -9420.5408 -7619.8242 299.4180 59.4068 98.8124 30226.7754 -104.4970 -49.8446
ENERGY: 1500000 1.1832 5.7354 3.0673 0.0000 -10872.3824 1437.6133 0.0000 0.0000 1741.4832 -7683.3000 292.0207 -9424.7832 -7621.4949 300.0315 -170.8814 -85.9573 30633.2901 -113.0168 -58.9199
TCL: Running FEP window  19: Lambda1 0.9000000000000002 Lambda2 0.9500000000000003 [dLambda 0.050000000000000044]
TCL: Setting parameter firsttimestep to 0
TCL: Setting parameter alchLambda to 0.9000000000000002
Info: NONBONDED TABLE R-SQUARED SPACING: 0.0625
Info: NONBONDED TABLE SIZE: 705 POINTS
TCL: Setting parameter alchLambda2 to 0.9500000000000003
Info: NONBONDED TABLE R-SQUARED SPACING: 0.0625
Info: NONBONDED TABLE SIZE: 705 POINTS
TCL: Running for 1500000 steps
ETITLE: TS BOND ANGLE DIHED IMPRP ELECT VDW BOUNDARY MISC KINETIC TOTAL TEMP POTENTIAL TOTALAVG TEMPAVG PRESSURE GPRESSURE VOLUME PRESSAVG GPRESSAVG
ENERGY: 0 1.1832 5.7354 3.0673 0.0000 -10872.6884 1437.2070 0.0000 0.0000 1740.5708 -7684.9247 291.8677 -9425.4954 -7684.9247 291.8677 -178.2583 -79.6906 30633.2901 -178.2583 -79.6906
ENERGY: 300000 0.6957 5.2770 2.0918 0.0000 -10906.2459 1451.5749 0.0000 0.0000 1824.3342 -7622.2724 305.9136 -9446.6066 -7628.0915 298.6083 -162.8926 -96.6995 30838.2089 -131.7321 -72.9138
ENERGY: 600000 3.0262 6.6039 0.9537 0.0000 -10860.9243 1463.5175 0.0000 0.0000 1771.9240 -7614.8989 297.1252 -9386.8229 -7608.6290 300.2765 -74.6191 1.0738 31165.8278 -11.5181 27.7979
ENERGY: 900000 3.9446 5.5752 1.2683 0.0000 -11107.9008 1627.2690 0.0000 0.0000 1811.8676 -7657.9761 303.8231 -9469.8437 -7606.4413 302.1057 1076.0526 1194.8450 30710.2260 76.5607 136.4795
ENERGY: 1200000 4.6890 3.9821 3.2628 0.0000 -10962.3803 1480.3921 0.0000 0.0000 1801.4074 -7668.6470 302.0691 -9470.0544 -7613.9082 302.4982 -1.7766 29.5249 30376.0551 136.6060 192.8521
ENERGY: 1500000 1.9445 8.2853 1.4721 0.0000 -10801.0862 1428.4994 0.0000 0.0000 1785.0256 -7575.8591 299.3221 -9360.8848 -7616.9489 301.2432 -201.9393 -90.8607 30787.1406 50.1485 108.3317
TCL: Running FEP window  20: Lambda1 0.9500000000000003 Lambda2 1.0    [dLambda 0.04999999999999971]
TCL: Setting parameter firsttimestep to 0
TCL: Setting parameter alchLambda to 0.9500000000000003
Info: NONBONDED TABLE R-SQUARED SPACING: 0.0625
Info: NONBONDED TABLE SIZE: 705 POINTS
TCL: Setting parameter alchLambda2 to 1.0
Info: NONBONDED TABLE R-SQUARED SPACING: 0.0625
Info: NONBONDED TABLE SIZE: 705 POINTS
TCL: Running for 1500000 steps
ETITLE: TS BOND ANGLE DIHED IMPRP ELECT VDW BOUNDARY MISC KINETIC TOTAL TEMP POTENTIAL TOTALAVG TEMPAVG PRESSURE GPRESSURE VOLUME PRESSAVG GPRESSAVG
ENERGY: 0 1.9445 8.2853 1.4721 0.0000 -10801.9568 1428.7986 0.0000 0.0000 1784.1636 -7577.2927 299.1776 -9361.4563 -7577.2927 299.1776 -161.2425 -77.1193 30787.1406 -161.2425 -77.1193
ENERGY: 300000 1.0783 9.5633 0.6289 0.0000 -11002.6291 1555.3040 0.0000 0.0000 1786.6890 -7649.3656 299.6011 -9436.0545 -7609.7889 297.7396 651.2109 643.0353 30762.9183 -35.8756 45.3113
ENERGY: 600000 3.0414 11.0325 2.0491 0.0000 -10876.0082 1471.9910 0.0000 0.0000 1813.2937 -7574.6005 304.0623 -9387.8942 -7613.8735 299.8937 31.8749 54.6197 31178.3032 -13.6315 59.3494
ENERGY: 900000 1.1154 6.3514 1.9910 0.0000 -10851.4448 1438.8242 0.0000 0.0000 1829.2777 -7573.8851 306.7426 -9403.1628 -7612.6158 300.8614 72.7194 118.2328 30659.2875 -147.8486 -79.2304
ENERGY: 1200000 4.0635 4.9592 0.6808 0.0000 -10811.5774 1409.0768 0.0000 0.0000 1837.8477 -7554.9495 308.1796 -9392.7971 -7609.5746 302.1268 -368.2519 -299.7105 30759.8582 -138.2209 -69.4427
ENERGY: 1500000 1.0035 7.2591 2.0273 0.0000 -10804.5333 1406.1874 0.0000 0.0000 1823.0553 -7565.0007 305.6992 -9388.0560 -7601.6119 303.0127 -511.7976 -402.1166 30978.6710 -162.9704 -93.2887
TCL: Exiting due to exit command.
