Info: SIMULATION PARAMETERS:
Info: TIMESTEP               2
Info: NUMBER OF STEPS        0
Info: STEPS PER CYCLE        10
Info: PERIODIC CELL BASIS 1  32.188 0 0
Info: PERIODIC CELL BASIS 2  0 31.1491 0
Info: PERIODIC CELL BASIS 3  0 0 30.1094
Info: PERIODIC CELL CENTER   0 0 0
Info: WRAPPING WATERS AROUND PERIODIC BOUNDARIES ON OUTPUT.
Info: WRAPPING ALL CLUSTERS AROUND PERIODIC BOUNDARIES ON OUTPUT.
Info: FIRST LDB TIMESTEP     50
Info: LAST LDB TIMESTEP     -1
Info: HOM BACKGROUND SCALING 1
Info: PME BACKGROUND SCALING 1
Info: MIN ATOMS PER PATCH    40
Info: EMPTY PATCH LOAD       40 ATOMS
Info: VELOCITY FILE          mobley_3727287_equil.vel
Info: CENTER OF MASS MOVING INITIALLY? NO
Info: DIELECTRIC             1
Info: EXCLUDE                SCALED ONE-FOUR
Info: 1-4 ELECTROSTATICS SCALED BY 0.833333
Info: MODIFIED 1-4 VDW PARAMETERS WILL BE USED
Info: DCD FILENAME           mobley_3727287_prod.dcd
Info: DCD FREQUENCY          100000
Info: DCD FIRST STEP         100000
Info: DCD FILE WILL CONTAIN UNIT CELL DATA
Info: XST FILENAME           mobley_3727287_prod.xst
Info: XST FREQUENCY          100000
Info: NO VELOCITY DCD OUTPUT
Info: NO FORCE DCD OUTPUT
Info: OUTPUT FILENAME        mobley_3727287_prod
Info: BINARY OUTPUT FILES WILL BE USED
Info: RESTART FILENAME       mobley_3727287_prod.restart
Info: RESTART FREQUENCY      100000
Info: BINARY RESTART FILES WILL BE USED
Info: CUTOFF                 9
Info: PAIRLIST DISTANCE      11
Info: PAIRLIST SHRINK RATE   0.01
Info: PAIRLIST GROW RATE     0.01
Info: PAIRLIST TRIGGER       0.3
Info: PAIRLISTS PER CYCLE    2
Info: PAIRLISTS ENABLED
Info: MARGIN                 2
Info: HYDROGEN GROUP CUTOFF  2.5
Info: PATCH DIMENSION        15.5
Info: ENERGY OUTPUT STEPS    100000
Info: ENERGY EVALUATION STEPS    100000
Info: OUTPUT ENERGY PRECISION 4
Info: CROSSTERM ENERGY INCLUDED IN DIHEDRAL
Info: TIMING OUTPUT STEPS    1000000
Info: PRESSURE OUTPUT STEPS  100000
Info: ALCHEMICAL FEP ON
Info: FEP CURRENT LAMBDA VALUE     1
Info: FEP COMPARISON LAMBDA VALUE  0.95
Info: FEP INTRA-ALCHEMICAL NON-BONDED INTERACTIONS WILL BE RETAINED
Info: FEP INTRA-ALCHEMICAL BONDED INTERACTIONS WILL BE RETAINED
Info: FEP VDW SHIFTING COEFFICIENT 5
Info: FEP ELEC. ACTIVE FOR ANNIHILATED PARTICLES BETWEEN LAMBDA = 0 AND LAMBDA = 0.5
Info: FEP ELEC. ACTIVE FOR EXNIHILATED PARTICLES BETWEEN LAMBDA = 0.5 AND LAMBDA = 1
Info: FEP VDW ACTIVE FOR ANNIHILATED PARTICLES BETWEEN LAMBDA = 0 AND LAMBDA = 1
Info: FEP VDW ACTIVE FOR EXNIHILATED PARTICLES BETWEEN LAMBDA = 0 AND LAMBDA = 1
Info: FEP BOND ACTIVE FOR ANNIHILATED PARTICLES BETWEEN LAMBDA = 1 AND LAMBDA = 1
Info: FEP BOND ACTIVE FOR EXNIHILATED PARTICLES BETWEEN LAMBDA = 0 AND LAMBDA = 0
Info: LANGEVIN DYNAMICS ACTIVE
Info: LANGEVIN TEMPERATURE   300
Info: LANGEVIN USING BBK INTEGRATOR
Info: LANGEVIN DAMPING COEFFICIENT IS 1 INVERSE PS
Info: LANGEVIN DYNAMICS APPLIED TO HYDROGENS
Info: LANGEVIN PISTON PRESSURE CONTROL ACTIVE
Info:        TARGET PRESSURE IS 1.01325 BAR
Info:     OSCILLATION PERIOD IS 50 FS
Info:             DECAY TIME IS 25 FS
Info:     PISTON TEMPERATURE IS 300 K
Info:       PRESSURE CONTROL IS GROUP-BASED
Info:    INITIAL STRAIN RATE IS 0.000403317 0.000403317 0.000403317
Info:       CELL FLUCTUATION IS ISOTROPIC
Info: PARTICLE MESH EWALD (PME) ACTIVE
Info: PME TOLERANCE               1e-06
Info: PME EWALD COEFFICIENT       0.348832
Info: PME INTERPOLATION ORDER     4
Info: PME GRID DIMENSIONS         36 32 32
Info: PME MAXIMUM GRID SPACING    1
Info: PME CALCULATION WILL BE PERFORMED ON GPU
Info: FULL ELECTROSTATIC EVALUATION FREQUENCY      2
Info: USING VERLET I (r-RESPA) MTS SCHEME.
Info: C1 SPLITTING OF LONG RANGE ELECTROSTATICS
Info: PLACING ATOMS IN PATCHES BY HYDROGEN GROUPS
Info: RIGID BONDS TO HYDROGEN : ALL
Info:         ERROR TOLERANCE : 1e-08
Info:          MAX ITERATIONS : 100
Info: RIGID WATER USING SETTLE ALGORITHM
Info: RANDOM NUMBER SEED     1743541973
Info: USE HYDROGEN BONDS?    NO
Info: Using AMBER format force field!
Info: AMBER PARM FILE        mobley_3727287.prmtop
Info: COORDINATE PDB         mobley_3727287.pdb
Info: Exclusions will be read from PARM file!
Info: SCNB (VDW SCALING)     2
Info: USING ARITHMETIC MEAN TO COMBINE L-J SIGMA PARAMETERS
Info: BINARY COORDINATES     mobley_3727287_equil.coor
Info: SUMMARY OF PARAMETERS:
Info: 8 BONDS
Info: 9 ANGLES
Info:   9 HARMONIC
Info:   0 COSINE-BASED
Info: 4 DIHEDRAL
Info: 0 IMPROPER
Info: 0 CROSSTERM
Info: 0 VDW
Info: 15 VDW_PAIRS
Info: 0 NBTHOLE_PAIRS
Info: To read alchdata from file: mobley_3727287.pdb
Info: To read alchflag data from column: 5
Info: STRUCTURE SUMMARY:
Info: 2949 ATOMS
Info: 2949 BONDS
Info: 18 ANGLES
Info: 30 DIHEDRALS
Info: 0 IMPROPERS
Info: 0 CROSSTERMS
Info: 2988 EXCLUSIONS
Info: 2941 RIGID BONDS
Info: ALCH: 0 ATOMS TO DISAPPEAR IN FINAL STATE
Info: ALCH: 12 ATOMS TO APPEAR IN FINAL STATE
Info: 5906 DEGREES OF FREEDOM
Info: 987 HYDROGEN GROUPS
Info: 3 ATOMS IN LARGEST HYDROGEN GROUP
Info: 987 MIGRATION GROUPS
Info: 3 ATOMS IN LARGEST MIGRATION GROUP
Info: TOTAL MASS = 17745.8 amu
Info: TOTAL CHARGE = 0 e
Info: MASS DENSITY = 0.976142 g/cm^3
Info: ATOM DENSITY = 0.0976863 atoms/A^3
Info: ADDED 0 IMPLICIT EXCLUSIONS
Info: NONBONDED TABLE R-SQUARED SPACING: 0.0625
Info: NONBONDED TABLE SIZE: 705 POINTS
Info: REDUCING NUMBER OF PATCHES TO IMPROVE LOAD BALANCE
Info: REMOVING COM VELOCITY 0.0345986 -0.0257891 0.0119624
Info: Use 3D box decompostion in PME FFT.
Info: Updated CUDA force table with 4096 elements.
Info: Updated CUDA LJ table with 5 x 5 elements.
Info: Found 15 unique exclusion lists needing 28 bytes
TCL: Running for 1500000 steps
ETITLE: TS BOND ANGLE DIHED IMPRP ELECT VDW BOUNDARY MISC KINETIC TOTAL TEMP POTENTIAL TOTALAVG TEMPAVG PRESSURE GPRESSURE VOLUME PRESSAVG GPRESSAVG
ENERGY: 0 2.1189 1.7067 2.5405 0.0000 -10654.2398 1421.7731 0.0000 0.0000 1814.7184 -7411.3821 309.2475 -9226.1005 -7411.3821 309.2475 2.6989 89.8375 30188.4596 2.6989 89.8375
ENERGY: 300000 4.5951 4.6227 3.6132 0.0000 -10702.3495 1463.5088 0.0000 0.0000 1749.5169 -7476.4929 298.1365 -9226.0098 -7480.4036 302.2476 371.8935 437.9907 30215.1897 128.9700 185.8724
ENERGY: 600000 2.8170 6.1956 2.7150 0.0000 -10709.3898 1414.2711 0.0000 0.0000 1732.3009 -7551.0902 295.2027 -9283.3910 -7489.5369 300.7744 -93.9504 -18.8332 30551.7045 88.1522 148.4401
ENERGY: 900000 3.1201 3.9316 2.3423 0.0000 -10797.9135 1517.8036 0.0000 0.0000 1771.8452 -7498.8707 301.9414 -9270.7159 -7485.7385 301.1352 532.6118 533.9735 30424.6856 100.2815 155.8931
ENERGY: 1200000 2.6717 3.9173 1.4810 0.0000 -10725.9789 1488.2345 0.0000 0.0000 1741.2437 -7488.4307 296.7266 -9229.6744 -7491.3834 301.0506 614.4120 665.5816 30153.0829 112.5468 172.2539
ENERGY: 1500000 3.9242 2.8747 2.8003 0.0000 -10672.6317 1427.6999 0.0000 0.0000 1756.4770 -7478.8555 299.3225 -9235.3325 -7492.3709 300.0686 -223.7924 -122.7973 30688.7072 90.8638 154.5968
TCL: Running FEP window   2: Lambda1 0.95   Lambda2 0.8999999999999999 [dLambda -0.050000000000000044]
TCL: Setting parameter firsttimestep to 0
TCL: Setting parameter alchLambda to 0.95
Info: NONBONDED TABLE R-SQUARED SPACING: 0.0625
Info: NONBONDED TABLE SIZE: 705 POINTS
TCL: Setting parameter alchLambda2 to 0.8999999999999999
Info: NONBONDED TABLE R-SQUARED SPACING: 0.0625
Info: NONBONDED TABLE SIZE: 705 POINTS
TCL: Running for 1500000 steps
ETITLE: TS BOND ANGLE DIHED IMPRP ELECT VDW BOUNDARY MISC KINETIC TOTAL TEMP POTENTIAL TOTALAVG TEMPAVG PRESSURE GPRESSURE VOLUME PRESSAVG GPRESSAVG
ENERGY: 0 3.9242 2.8747 2.8003 0.0000 -10670.9436 1426.6359 0.0000 0.0000 1755.5993 -7479.1091 299.1730 -9234.7084 -7479.1091 299.1730 -222.6848 -148.5520 30688.7072 -222.6848 -148.5520
ENERGY: 300000 4.0600 2.6326 2.9077 0.0000 -10704.4299 1424.6147 0.0000 0.0000 1728.3894 -7541.8254 294.5361 -9270.2148 -7511.7266 299.1061 -383.2585 -321.0207 30461.2035 -171.4231 -93.7257
ENERGY: 600000 2.4160 2.9553 2.1858 0.0000 -10721.6235 1445.6863 0.0000 0.0000 1742.7144 -7525.6658 296.9772 -9268.3801 -7507.3499 298.5166 4.6131 88.7369 30323.0452 13.9669 84.0391
ENERGY: 900000 1.8467 3.8946 0.9413 0.0000 -10691.1227 1419.9914 0.0000 0.0000 1746.7504 -7517.6984 297.6650 -9264.4487 -7504.5377 298.9796 -234.4873 -190.4446 30504.4704 -99.3383 -33.1467
ENERGY: 1200000 1.4772 3.3189 2.7300 0.0000 -10697.2753 1401.2736 0.0000 0.0000 1731.3336 -7557.1419 295.0378 -9288.4755 -7508.5923 299.1961 -359.6865 -277.1562 30418.2510 26.3889 94.1589
ENERGY: 1500000 2.2586 2.8111 2.9794 0.0000 -10823.6430 1502.1967 0.0000 0.0000 1726.5060 -7586.8911 294.2152 -9313.3971 -7510.9886 299.9687 178.8485 297.3326 30257.5891 1.1004 72.8055
TCL: Running FEP window   3: Lambda1 0.8999999999999999 Lambda2 0.8499999999999999 [dLambda -0.050000000000000044]
TCL: Setting parameter firsttimestep to 0
TCL: Setting parameter alchLambda to 0.8999999999999999
Info: NONBONDED TABLE R-SQUARED SPACING: 0.0625
Info: NONBONDED TABLE SIZE: 705 POINTS
TCL: Setting parameter alchLambda2 to 0.8499999999999999
Info: NONBONDED TABLE R-SQUARED SPACING: 0.0625
Info: NONBONDED TABLE SIZE: 705 POINTS
TCL: Running for 1500000 steps
ETITLE: TS BOND ANGLE DIHED IMPRP ELECT VDW BOUNDARY MISC KINETIC TOTAL TEMP POTENTIAL TOTALAVG TEMPAVG PRESSURE GPRESSURE VOLUME PRESSAVG GPRESSAVG
ENERGY: 0 2.2586 2.8111 2.9794 0.0000 -10821.5082 1501.6939 0.0000 0.0000 1725.6416 -7586.1236 294.0678 -9311.7651 -7586.1236 294.0678 198.6850 287.2148 30257.5891 198.6850 287.2148
ENERGY: 300000 1.6067 3.8505 2.6245 0.0000 -10636.1640 1364.4496 0.0000 0.0000 1790.1628 -7473.4698 305.0630 -9263.6326 -7521.2181 295.0718 -787.8976 -726.8024 30577.8742 -326.7066 -269.3031
ENERGY: 600000 1.4212 1.6457 1.5693 0.0000 -10700.2307 1429.8164 0.0000 0.0000 1762.3402 -7503.4379 300.3217 -9265.7781 -7521.0833 296.7725 -74.2309 -17.8476 30595.9341 -239.4868 -192.8921
ENERGY: 900000 2.7132 2.9532 3.8401 0.0000 -10636.7336 1421.2469 0.0000 0.0000 1801.6596 -7404.3205 307.0221 -9205.9802 -7507.8932 297.9267 89.8591 144.6698 30176.5869 -160.3914 -103.1473
ENERGY: 1200000 2.5640 3.8736 3.0184 0.0000 -10735.2442 1476.6933 0.0000 0.0000 1767.6030 -7481.4918 301.2185 -9249.0947 -7500.9534 298.2391 221.1014 315.7494 30371.4098 -232.1871 -162.8013
ENERGY: 1500000 2.4478 3.4771 2.8005 0.0000 -10581.3463 1340.3963 0.0000 0.0000 1740.0318 -7492.1928 296.5201 -9232.2246 -7506.9879 298.2873 -804.2632 -710.2840 30595.1792 -262.5261 -190.1536
TCL: Running FEP window   4: Lambda1 0.8499999999999999 Lambda2 0.7999999999999998 [dLambda -0.050000000000000044]
TCL: Setting parameter firsttimestep to 0
TCL: Setting parameter alchLambda to 0.8499999999999999
Info: NONBONDED TABLE R-SQUARED SPACING: 0.0625
Info: NONBONDED TABLE SIZE: 705 POINTS
TCL: Setting parameter alchLambda2 to 0.7999999999999998
Info: NONBONDED TABLE R-SQUARED SPACING: 0.0625
Info: NONBONDED TABLE SIZE: 705 POINTS
TCL: Running for 1500000 steps
ETITLE: TS BOND ANGLE DIHED IMPRP ELECT VDW BOUNDARY MISC KINETIC TOTAL TEMP POTENTIAL TOTALAVG TEMPAVG PRESSURE GPRESSURE VOLUME PRESSAVG GPRESSAVG
ENERGY: 0 2.4478 3.4771 2.8005 0.0000 -10579.3504 1338.9490 0.0000 0.0000 1739.0873 -7492.5886 296.3591 -9231.6759 -7492.5886 296.3591 -818.7754 -729.6188 30595.1792 -818.7754 -729.6188
ENERGY: 300000 2.4925 3.1629 4.0188 0.0000 -10758.1432 1413.0976 0.0000 0.0000 1712.9107 -7622.4607 291.8984 -9335.3714 -7528.2136 298.8411 -574.5019 -501.0189 30238.9351 -324.7351 -271.0934
ENERGY: 600000 1.6972 4.1208 2.1984 0.0000 -10641.1480 1392.8403 0.0000 0.0000 1729.6417 -7510.6497 294.7495 -9240.2913 -7528.1357 298.6954 -545.2363 -490.1314 30908.8839 -334.0730 -267.5773
ENERGY: 900000 1.6633 2.8217 3.9525 0.0000 -10548.5411 1324.0000 0.0000 0.0000 1744.3691 -7471.7345 297.2592 -9216.1036 -7522.0494 298.5556 -902.5629 -829.0298 30742.0442 -336.1809 -269.1884
ENERGY: 1200000 2.0594 4.9796 2.6793 0.0000 -10590.1649 1389.0747 0.0000 0.0000 1720.2118 -7471.1601 293.1426 -9191.3719 -7511.6872 298.6543 -595.1557 -505.3926 31111.2423 -314.9559 -242.5370
ENERGY: 1500000 4.4362 1.5697 2.2035 0.0000 -10725.0960 1451.5220 0.0000 0.0000 1787.8085 -7477.5561 304.6618 -9265.3646 -7512.7657 299.0153 157.4146 267.5247 30192.5307 -284.7393 -212.2582
TCL: Running FEP window   5: Lambda1 0.7999999999999998 Lambda2 0.7499999999999998 [dLambda -0.050000000000000044]
TCL: Setting parameter firsttimestep to 0
TCL: Setting parameter alchLambda to 0.7999999999999998
Info: NONBONDED TABLE R-SQUARED SPACING: 0.0625
Info: NONBONDED TABLE SIZE: 705 POINTS
TCL: Setting parameter alchLambda2 to 0.7499999999999998
Info: NONBONDED TABLE R-SQUARED SPACING: 0.0625
Info: NONBONDED TABLE SIZE: 705 POINTS
TCL: Running for 1500000 steps
ETITLE: TS BOND ANGLE DIHED IMPRP ELECT VDW BOUNDARY MISC KINETIC TOTAL TEMP POTENTIAL TOTALAVG TEMPAVG PRESSURE GPRESSURE VOLUME PRESSAVG GPRESSAVG
ENERGY: 0 4.4362 1.5697 2.2035 0.0000 -10722.6059 1451.0064 0.0000 0.0000 1786.8801 -7476.5100 304.5035 -9263.3901 -7476.5100 304.5035 177.0522 259.8569 30192.5307 177.0522 259.8569
ENERGY: 300000 3.1188 2.9199 2.2207 0.0000 -10797.2642 1468.2176 0.0000 0.0000 1739.5148 -7581.2724 296.4320 -9320.7872 -7526.6989 299.7243 -74.7570 -7.3899 30448.4318 -130.6287 -59.8850
ENERGY: 600000 3.5533 2.5723 1.7526 0.0000 -10658.7097 1428.2135 0.0000 0.0000 1748.6872 -7473.9308 297.9951 -9222.6180 -7528.9959 299.4122 -99.2509 12.6546 30534.6401 -190.3952 -113.0950
ENERGY: 900000 2.2799 4.6527 3.4008 0.0000 -10827.0792 1511.3007 0.0000 0.0000 1775.5528 -7529.8923 302.5733 -9305.4451 -7513.9160 300.0829 672.3200 693.3286 30091.6191 -44.5946 26.2948
ENERGY: 1200000 4.7840 3.0122 1.0989 0.0000 -10776.3709 1471.8916 0.0000 0.0000 1795.9283 -7499.6559 306.0455 -9295.5842 -7505.6818 300.8407 296.0447 370.9992 30235.8023 -32.8489 40.6407
ENERGY: 1500000 0.8976 8.9066 2.3040 0.0000 -10672.0220 1408.6368 0.0000 0.0000 1729.8236 -7521.4533 294.7805 -9251.2769 -7500.3523 299.7481 -328.0255 -240.7498 30471.3612 -44.3901 31.2528
TCL: Running FEP window   6: Lambda1 0.7499999999999998 Lambda2 0.6999999999999997 [dLambda -0.050000000000000044]
TCL: Setting parameter firsttimestep to 0
TCL: Setting parameter alchLambda to 0.7499999999999998
Info: NONBONDED TABLE R-SQUARED SPACING: 0.0625
Info: NONBONDED TABLE SIZE: 705 POINTS
TCL: Setting parameter alchLambda2 to 0.6999999999999997
Info: NONBONDED TABLE R-SQUARED SPACING: 0.0625
Info: NONBONDED TABLE SIZE: 705 POINTS
TCL: Running for 1500000 steps
ETITLE: TS BOND ANGLE DIHED IMPRP ELECT VDW BOUNDARY MISC KINETIC TOTAL TEMP POTENTIAL TOTALAVG TEMPAVG PRESSURE GPRESSURE VOLUME PRESSAVG GPRESSAVG
ENERGY: 0 0.8976 8.9066 2.3040 0.0000 -10671.2651 1408.2401 0.0000 0.0000 1728.9342 -7521.9825 294.6289 -9250.9167 -7521.9825 294.6289 -346.7178 -253.0819 30471.3612 -346.7178 -253.0819
ENERGY: 300000 2.2204 3.6424 2.1773 0.0000 -10888.2520 1491.0093 0.0000 0.0000 1706.1928 -7683.0099 290.7536 -9389.2026 -7563.1286 299.0156 94.7213 143.1853 30096.0107 -61.8487 -2.6401
ENERGY: 600000 1.1705 4.4415 1.8033 0.0000 -10668.1138 1424.9622 0.0000 0.0000 1761.5379 -7474.1984 300.1850 -9235.7364 -7498.0349 301.1341 -161.4410 -105.3552 30623.8837 -239.1089 -182.4583
ENERGY: 900000 4.3530 1.8005 1.9877 0.0000 -10648.3145 1358.3180 0.0000 0.0000 1729.0829 -7552.7725 294.6543 -9281.8554 -7496.6890 299.8716 -611.9190 -527.0464 30243.3798 -315.1124 -253.1392
ENERGY: 1200000 1.9684 2.4537 4.2121 0.0000 -10799.5132 1522.4363 0.0000 0.0000 1832.3887 -7436.0540 312.2587 -9268.4427 -7500.1855 299.7136 842.4343 941.2302 30086.5972 -255.7807 -191.3600
ENERGY: 1500000 4.5240 7.0931 6.8673 0.0000 -10780.8399 1465.4483 0.0000 0.0000 1793.8613 -7503.0459 305.6932 -9296.9072 -7498.7123 299.6277 202.3940 253.0871 30096.0689 -224.2618 -158.6704
TCL: Running FEP window   7: Lambda1 0.6999999999999997 Lambda2 0.6499999999999997 [dLambda -0.050000000000000044]
TCL: Setting parameter firsttimestep to 0
TCL: Setting parameter alchLambda to 0.6999999999999997
Info: NONBONDED TABLE R-SQUARED SPACING: 0.0625
Info: NONBONDED TABLE SIZE: 705 POINTS
TCL: Setting parameter alchLambda2 to 0.6499999999999997
Info: NONBONDED TABLE R-SQUARED SPACING: 0.0625
Info: NONBONDED TABLE SIZE: 705 POINTS
TCL: Running for 1500000 steps
ETITLE: TS BOND ANGLE DIHED IMPRP ELECT VDW BOUNDARY MISC KINETIC TOTAL TEMP POTENTIAL TOTALAVG TEMPAVG PRESSURE GPRESSURE VOLUME PRESSAVG GPRESSAVG
ENERGY: 0 4.5240 7.0931 6.8673 0.0000 -10780.2122 1465.6399 0.0000 0.0000 1792.9549 -7503.1330 305.5388 -9296.0879 -7503.1330 305.5388 162.2823 246.5626 30096.0689 162.2823 246.5626
ENERGY: 300000 2.3087 1.6127 0.9048 0.0000 -10688.3394 1416.6931 0.0000 0.0000 1734.1458 -7532.6744 295.5171 -9266.8202 -7464.1798 300.8759 -136.7418 -110.0057 30234.8186 246.5692 293.1834
ENERGY: 600000 3.9362 6.3508 3.2079 0.0000 -10767.6900 1466.3722 0.0000 0.0000 1777.4696 -7510.3534 302.8999 -9287.8230 -7482.2657 301.4530 7.0647 48.1654 30431.9897 326.5533 377.4738
ENERGY: 900000 4.7914 2.2566 2.7939 0.0000 -10375.5830 1223.5377 0.0000 0.0000 1760.3481 -7381.8553 299.9822 -9142.2033 -7471.3267 301.5392 -1458.8913 -1414.0978 30869.2806 -31.4368 15.8358
ENERGY: 1200000 3.8081 3.5415 4.3388 0.0000 -10589.7015 1351.1821 0.0000 0.0000 1735.3664 -7491.4646 295.7251 -9226.8310 -7480.4297 300.3154 -890.9077 -798.5040 30744.7637 -83.1479 -31.6826
ENERGY: 1500000 4.0571 2.3822 4.5931 0.0000 -10541.5833 1362.0191 0.0000 0.0000 1768.5312 -7400.0005 301.3767 -9168.5317 -7478.8758 299.9518 -455.5360 -426.7358 30399.8730 -117.5836 -65.6713
TCL: Running FEP window   8: Lambda1 0.6499999999999997 Lambda2 0.5999999999999996 [dLambda -0.050000000000000044]
TCL: Setting parameter firsttimestep to 0
TCL: Setting parameter alchLambda to 0.6499999999999997
Info: NONBONDED TABLE R-SQUARED SPACING: 0.0625
Info: NONBONDED TABLE SIZE: 705 POINTS
TCL: Setting parameter alchLambda2 to 0.5999999999999996
Info: NONBONDED TABLE R-SQUARED SPACING: 0.0625
Info: NONBONDED TABLE SIZE: 705 POINTS
TCL: Running for 1500000 steps
ETITLE: TS BOND ANGLE DIHED IMPRP ELECT VDW BOUNDARY MISC KINETIC TOTAL TEMP POTENTIAL TOTALAVG TEMPAVG PRESSURE GPRESSURE VOLUME PRESSAVG GPRESSAVG
ENERGY: 0 4.0571 2.3822 4.5931 0.0000 -10540.6380 1361.6137 0.0000 0.0000 1767.6329 -7400.3589 301.2236 -9167.9918 -7400.3589 301.2236 -521.2178 -434.6962 30399.8730 -521.2178 -434.6962
ENERGY: 300000 1.1655 2.6601 3.5099 0.0000 -10732.6930 1450.3877 0.0000 0.0000 1754.4007 -7520.5691 298.9687 -9274.9697 -7499.3396 296.9211 13.7189 20.5481 30520.7771 -370.3034 -300.9510
ENERGY: 600000 1.8324 1.6933 2.7613 0.0000 -10548.5418 1387.7049 0.0000 0.0000 1739.0505 -7415.4993 296.3529 -9154.5498 -7490.0868 297.3696 -479.6228 -392.8507 30792.9607 -337.0279 -265.9057
ENERGY: 900000 3.2072 2.3639 6.1818 0.0000 -10722.6996 1499.3666 0.0000 0.0000 1785.4594 -7426.1207 304.2614 -9211.5801 -7486.1277 298.8304 514.9759 615.5750 30168.6164 -160.7409 -82.8883
ENERGY: 1200000 0.8438 2.8801 0.5383 0.0000 -10687.5356 1424.6538 0.0000 0.0000 1767.3256 -7491.2939 301.1712 -9258.6195 -7491.5712 299.7319 162.4629 231.8881 29922.6578 -52.8791 22.6037
ENERGY: 1500000 1.4993 2.8450 6.8380 0.0000 -10780.5487 1470.4821 0.0000 0.0000 1766.3123 -7532.5719 300.9986 -9298.8843 -7489.8148 300.6977 208.7690 251.6088 30139.7846 -8.7128 56.5553
TCL: Running FEP window   9: Lambda1 0.5999999999999996 Lambda2 0.5499999999999996 [dLambda -0.050000000000000044]
TCL: Setting parameter firsttimestep to 0
TCL: Setting parameter alchLambda to 0.5999999999999996
Info: NONBONDED TABLE R-SQUARED SPACING: 0.0625
Info: NONBONDED TABLE SIZE: 705 POINTS
TCL: Setting parameter alchLambda2 to 0.5499999999999996
Info: NONBONDED TABLE R-SQUARED SPACING: 0.0625
Info: NONBONDED TABLE SIZE: 705 POINTS
TCL: Running for 1500000 steps
ETITLE: TS BOND ANGLE DIHED IMPRP ELECT VDW BOUNDARY MISC KINETIC TOTAL TEMP POTENTIAL TOTALAVG TEMPAVG PRESSURE GPRESSURE VOLUME PRESSAVG GPRESSAVG
ENERGY: 0 1.4993 2.8450 6.8380 0.0000 -10780.1525 1471.1073 0.0000 0.0000 1765.4819 -7532.3811 300.8571 -9297.8629 -7532.3811 300.8571 177.7387 254.0098 30139.7846 177.7387 254.0098
ENERGY: 300000 1.6576 2.3627 1.7595 0.0000 -10740.9467 1414.7830 0.0000 0.0000 1771.4771 -7548.9068 301.8787 -9320.3839 -7486.8428 303.7532 -283.7259 -290.2865 30122.7460 -177.7040 -119.3735
ENERGY: 600000 2.8525 3.0708 1.4908 0.0000 -10604.7805 1381.4277 0.0000 0.0000 1805.3755 -7410.5630 307.6554 -9215.9385 -7452.0867 305.0917 -405.1583 -319.5758 30162.6840 -191.1774 -120.2672
ENERGY: 900000 1.4327 3.6689 2.6215 0.0000 -10705.0306 1453.1822 0.0000 0.0000 1748.1821 -7495.9432 297.9090 -9244.1253 -7459.4440 304.4948 242.9079 311.8356 30112.0224 31.6210 96.1841
ENERGY: 1200000 1.2139 2.7703 4.4369 0.0000 -10703.9996 1435.3516 0.0000 0.0000 1805.9087 -7454.3182 307.7462 -9260.2269 -7464.4980 304.1301 226.6687 339.9807 30049.5141 -14.7138 53.0894
ENERGY: 1500000 4.8700 2.6083 1.1152 0.0000 -10644.4567 1408.8701 0.0000 0.0000 1748.5581 -7478.4349 297.9731 -9226.9931 -7465.6441 303.0782 -230.2186 -180.8426 30785.9415 -72.3176 -7.6774
TCL: Running FEP window  10: Lambda1 0.5499999999999996 Lambda2 0.4999999999999996 [dLambda -0.04999999999999999]
TCL: Setting parameter firsttimestep to 0
TCL: Setting parameter alchLambda to 0.5499999999999996
Info: NONBONDED TABLE R-SQUARED SPACING: 0.0625
Info: NONBONDED TABLE SIZE: 705 POINTS
TCL: Setting parameter alchLambda2 to 0.4999999999999996
Info: NONBONDED TABLE R-SQUARED SPACING: 0.0625
Info: NONBONDED TABLE SIZE: 705 POINTS
TCL: Running for 1500000 steps
ETITLE: TS BOND ANGLE DIHED IMPRP ELECT VDW BOUNDARY MISC KINETIC TOTAL TEMP POTENTIAL TOTALAVG TEMPAVG PRESSURE GPRESSURE VOLUME PRESSAVG GPRESSAVG
ENERGY: 0 4.8700 2.6083 1.1152 0.0000 -10642.8495 1408.3499 0.0000 0.0000 1747.6551 -7478.2510 297.8192 -9225.9061 -7478.2510 297.8192 -266.0227 -188.2992 30785.9415 -266.0227 -188.2992
ENERGY: 300000 2.5820 5.3062 1.2337 0.0000 -10839.7271 1515.1807 0.0000 0.0000 1765.8396 -7549.5849 300.9180 -9315.4245 -7512.9526 300.1494 194.6733 141.1506 30480.2583 -221.9220 -187.7779
ENERGY: 600000 3.1319 2.9074 2.9701 0.0000 -10633.7769 1368.0344 0.0000 0.0000 1759.2649 -7497.4682 299.7976 -9256.7330 -7499.3936 300.7644 -652.0113 -549.4840 30793.4231 -223.4007 -166.9793
ENERGY: 900000 0.9990 3.2968 2.9436 0.0000 -10786.7368 1534.4150 0.0000 0.0000 1772.7903 -7472.2921 302.1025 -9245.0824 -7494.2700 301.4229 880.3281 907.8625 29880.6934 -20.3116 25.7239
ENERGY: 1200000 2.0306 4.0073 6.0607 0.0000 -10650.8941 1426.8769 0.0000 0.0000 1742.8192 -7469.0995 296.9951 -9211.9187 -7491.8442 301.6331 77.7381 140.1494 30110.0193 54.8408 104.0080
ENERGY: 1500000 1.0677 2.5382 2.2153 0.0000 -10655.5630 1454.4395 0.0000 0.0000 1758.6132 -7436.6891 299.6866 -9195.3023 -7484.5128 301.4644 413.9212 511.0377 30159.6837 47.8040 97.2565
TCL: Running FEP window  11: Lambda1 0.4999999999999996 Lambda2 0.4499999999999996 [dLambda -0.04999999999999999]
TCL: Setting parameter firsttimestep to 0
TCL: Setting parameter alchLambda to 0.4999999999999996
Info: NONBONDED TABLE R-SQUARED SPACING: 0.0625
Info: NONBONDED TABLE SIZE: 705 POINTS
TCL: Setting parameter alchLambda2 to 0.4499999999999996
Info: NONBONDED TABLE R-SQUARED SPACING: 0.0625
Info: NONBONDED TABLE SIZE: 705 POINTS
TCL: Running for 1500000 steps
ETITLE: TS BOND ANGLE DIHED IMPRP ELECT VDW BOUNDARY MISC KINETIC TOTAL TEMP POTENTIAL TOTALAVG TEMPAVG PRESSURE GPRESSURE VOLUME PRESSAVG GPRESSAVG
ENERGY: 0 1.0677 2.5382 2.2153 0.0000 -10654.6348 1454.4616 0.0000 0.0000 1757.7094 -7436.6426 299.5326 -9194.3521 -7436.6426 299.5326 426.8335 507.1796 30159.6837 426.8335 507.1796
ENERGY: 300000 3.0887 4.3576 5.6496 0.0000 -10714.8376 1455.1942 0.0000 0.0000 1762.3232 -7484.2243 300.3188 -9246.5475 -7493.4933 298.8447 -125.1533 -47.2125 30763.0246 315.1048 383.0789
ENERGY: 600000 4.8927 1.7829 1.0643 0.0000 -10792.5837 1449.1775 0.0000 0.0000 1769.8244 -7565.8418 301.5971 -9335.6662 -7506.5831 298.4946 -367.9145 -330.7800 30528.8130 -0.8321 78.3876
ENERGY: 900000 4.5328 3.2714 4.6614 0.0000 -10796.0165 1505.2178 0.0000 0.0000 1762.0704 -7516.2627 300.2757 -9278.3331 -7510.3715 298.4274 379.6854 505.3096 30075.3558 70.2964 149.8755
ENERGY: 1200000 3.2878 2.0904 3.8265 0.0000 -10571.6464 1417.2940 0.0000 0.0000 1815.8852 -7329.2625 309.4463 -9145.1477 -7492.9683 300.0539 -1.1140 64.5183 30988.5298 28.3670 111.3255
ENERGY: 1500000 1.5686 0.8480 3.8355 0.0000 -10758.0705 1518.1662 0.0000 0.0000 1746.4346 -7487.2176 297.6112 -9233.6522 -7488.4914 300.7403 665.8463 776.6922 30363.7352 44.5083 128.7014
TCL: Running FEP window  12: Lambda1 0.4499999999999996 Lambda2 0.39999999999999963 [dLambda -0.04999999999999999]
TCL: Setting parameter firsttimestep to 0
TCL: Setting parameter alchLambda to 0.4499999999999996
Info: NONBONDED TABLE R-SQUARED SPACING: 0.0625
Info: NONBONDED TABLE SIZE: 705 POINTS
TCL: Setting parameter alchLambda2 to 0.39999999999999963
Info: NONBONDED TABLE R-SQUARED SPACING: 0.0625
Info: NONBONDED TABLE SIZE: 705 POINTS
TCL: Running for 1500000 steps
ETITLE: TS BOND ANGLE DIHED IMPRP ELECT VDW BOUNDARY MISC KINETIC TOTAL TEMP POTENTIAL TOTALAVG TEMPAVG PRESSURE GPRESSURE VOLUME PRESSAVG GPRESSAVG
ENERGY: 0 1.5685 0.8480 3.8355 0.0000 -10758.0698 1518.0459 0.0000 0.0000 1745.5677 -7488.2041 297.4635 -9233.7717 -7488.2041 297.4635 690.4196 768.0463 30363.7352 690.4196 768.0463
ENERGY: 300000 0.6700 1.5817 3.5914 0.0000 -10691.3327 1425.9654 0.0000 0.0000 1747.9324 -7511.5918 297.8664 -9259.5242 -7497.1625 299.6671 93.3071 70.6210 30361.1261 165.3098 209.3272
ENERGY: 600000 2.1296 3.3548 2.5360 0.0000 -10794.2014 1498.7473 0.0000 0.0000 1756.8997 -7530.5341 299.3946 -9287.4337 -7500.1221 299.0841 372.6959 432.2171 30406.7074 196.5469 256.1643
ENERGY: 900000 2.6297 2.8921 1.7770 0.0000 -10724.3916 1405.4055 0.0000 0.0000 1745.7447 -7565.9426 297.4936 -9311.6872 -7515.6371 298.5719 -405.3120 -377.0624 30271.5044 19.4697 76.8253
ENERGY: 1200000 3.3066 5.1590 2.3882 0.0000 -10596.3981 1350.8969 0.0000 0.0000 1784.8464 -7449.8011 304.1570 -9234.6475 -7504.2895 299.0290 -950.2503 -930.4698 30614.4925 -51.1040 -1.3775
ENERGY: 1500000 4.1499 2.6755 4.5622 0.0000 -10671.9394 1433.8290 0.0000 0.0000 1804.7115 -7422.0112 307.5422 -9226.7228 -7505.0781 299.1338 -223.6929 -123.5604 30250.9992 -2.5695 50.1784
TCL: Running FEP window  13: Lambda1 0.39999999999999963 Lambda2 0.34999999999999964 [dLambda -0.04999999999999999]
TCL: Setting parameter firsttimestep to 0
TCL: Setting parameter alchLambda to 0.39999999999999963
Info: NONBONDED TABLE R-SQUARED SPACING: 0.0625
Info: NONBONDED TABLE SIZE: 705 POINTS
TCL: Setting parameter alchLambda2 to 0.34999999999999964
Info: NONBONDED TABLE R-SQUARED SPACING: 0.0625
Info: NONBONDED TABLE SIZE: 705 POINTS
TCL: Running for 1500000 steps
ETITLE: TS BOND ANGLE DIHED IMPRP ELECT VDW BOUNDARY MISC KINETIC TOTAL TEMP POTENTIAL TOTALAVG TEMPAVG PRESSURE GPRESSURE VOLUME PRESSAVG GPRESSAVG
ENERGY: 0 4.1499 2.6755 4.5622 0.0000 -10671.9392 1434.1329 0.0000 0.0000 1803.8543 -7422.5643 307.3961 -9226.4186 -7422.5643 307.3961 -207.9993 -124.5118 30250.9992 -207.9993 -124.5118
ENERGY: 300000 3.6258 3.2626 2.4031 0.0000 -10609.8229 1374.9152 0.0000 0.0000 1773.4232 -7452.1930 302.2103 -9225.6163 -7445.2361 300.8183 -161.2775 -158.5378 29836.1566 -501.7971 -428.0847
ENERGY: 600000 0.3178 3.2127 1.9303 0.0000 -10735.4819 1381.9631 0.0000 0.0000 1739.8248 -7608.2332 296.4848 -9348.0580 -7467.7548 300.7429 -741.5357 -630.0975 30262.6166 -257.7545 -185.6418
ENERGY: 900000 4.1431 1.4710 2.2029 0.0000 -10654.3130 1452.9222 0.0000 0.0000 1726.8850 -7466.6887 294.2797 -9193.5736 -7464.8909 299.5131 -72.0223 25.7072 31183.9386 -225.3486 -151.2437
ENERGY: 1200000 0.6441 3.3158 4.5135 0.0000 -10717.4292 1450.6870 0.0000 0.0000 1817.4099 -7440.8588 309.7062 -9258.2687 -7459.4569 301.4727 97.0184 58.8664 30591.5961 -244.1146 -183.7129
ENERGY: 1500000 2.4446 4.1400 6.0632 0.0000 -10669.6078 1439.1445 0.0000 0.0000 1777.4388 -7440.3767 302.8946 -9217.8155 -7466.0553 301.6728 -58.8011 33.7303 30511.2305 -185.5233 -121.4194
TCL: Running FEP window  14: Lambda1 0.34999999999999964 Lambda2 0.29999999999999966 [dLambda -0.04999999999999999]
TCL: Setting parameter firsttimestep to 0
TCL: Setting parameter alchLambda to 0.34999999999999964
Info: NONBONDED TABLE R-SQUARED SPACING: 0.0625
Info: NONBONDED TABLE SIZE: 705 POINTS
TCL: Setting parameter alchLambda2 to 0.29999999999999966
Info: NONBONDED TABLE R-SQUARED SPACING: 0.0625
Info: NONBONDED TABLE SIZE: 705 POINTS
TCL: Running for 1500000 steps
ETITLE: TS BOND ANGLE DIHED IMPRP ELECT VDW BOUNDARY MISC KINETIC TOTAL TEMP POTENTIAL TOTALAVG TEMPAVG PRESSURE GPRESSURE VOLUME PRESSAVG GPRESSAVG
ENERGY: 0 2.4446 4.1400 6.0632 0.0000 -10669.6090 1439.6104 0.0000 0.0000 1776.5331 -7440.8176 302.7403 -9217.3507 -7440.8176 302.7403 -58.6792 33.1941 30511.2305 -58.6792 33.1941
ENERGY: 300000 3.1262 3.6921 3.3944 0.0000 -10653.0264 1406.5606 0.0000 0.0000 1762.5487 -7473.7043 300.3572 -9236.2531 -7487.9150 299.9579 -460.3460 -316.7553 30249.8280 -99.7030 -25.2491
ENERGY: 600000 2.1744 3.3931 2.4319 0.0000 -10871.1413 1615.8652 0.0000 0.0000 1759.3302 -7487.9465 299.8087 -9247.2767 -7495.2950 299.5030 1341.1894 1470.7474 29971.1862 48.0842 136.6922
ENERGY: 900000 3.9803 3.1990 1.3217 0.0000 -10615.6897 1387.0893 0.0000 0.0000 1783.3188 -7436.7805 303.8967 -9220.0994 -7497.4557 298.6320 -540.0979 -442.9620 30391.7103 -46.6103 36.7123
ENERGY: 1200000 0.9581 3.1702 1.7722 0.0000 -10692.6674 1453.3091 0.0000 0.0000 1648.7604 -7584.6973 280.9665 -9233.4576 -7492.8754 297.6516 184.9377 304.5697 30004.8715 76.2357 159.3050
ENERGY: 1500000 1.8523 4.2115 5.4218 0.0000 -10713.3347 1470.0124 0.0000 0.0000 1766.5744 -7465.2623 301.0432 -9231.8367 -7492.5896 298.2708 221.8438 270.6867 30384.2937 49.4014 134.1264
TCL: Running FEP window  15: Lambda1 0.29999999999999966 Lambda2 0.24999999999999967 [dLambda -0.04999999999999999]
TCL: Setting parameter firsttimestep to 0
TCL: Setting parameter alchLambda to 0.29999999999999966
Info: NONBONDED TABLE R-SQUARED SPACING: 0.0625
Info: NONBONDED TABLE SIZE: 705 POINTS
TCL: Setting parameter alchLambda2 to 0.24999999999999967
Info: NONBONDED TABLE R-SQUARED SPACING: 0.0625
Info: NONBONDED TABLE SIZE: 705 POINTS
TCL: Running for 1500000 steps
ETITLE: TS BOND ANGLE DIHED IMPRP ELECT VDW BOUNDARY MISC KINETIC TOTAL TEMP POTENTIAL TOTALAVG TEMPAVG PRESSURE GPRESSURE VOLUME PRESSAVG GPRESSAVG
ENERGY: 0 1.8523 4.2115 5.4218 0.0000 -10713.3356 1470.3347 0.0000 0.0000 1765.6960 -7465.8193 300.8935 -9231.5153 -7465.8193 300.8935 176.1935 267.5576 30384.2937 176.1935 267.5576
ENERGY: 300000 1.8308 3.3366 1.2597 0.0000 -10799.7215 1505.4995 0.0000 0.0000 1721.8266 -7565.9683 293.4177 -9287.7949 -7489.7096 296.9975 283.2086 326.6770 30348.3999 192.4764 277.5390
ENERGY: 600000 1.2800 2.6006 3.0568 0.0000 -10646.4212 1415.1886 0.0000 0.0000 1803.3634 -7420.9318 307.3125 -9224.2953 -7477.1087 299.0886 -300.4071 -247.0443 30752.2599 255.1809 334.8585
ENERGY: 900000 1.8611 4.6125 3.2550 0.0000 -10611.2587 1386.8452 0.0000 0.0000 1805.0645 -7409.6203 307.6024 -9214.6849 -7468.2949 299.6980 -703.5141 -605.4272 30591.3653 -82.6754 1.0585
ENERGY: 1200000 0.6564 2.4344 3.0807 0.0000 -10795.2216 1547.4716 0.0000 0.0000 1742.2714 -7499.3071 296.9017 -9241.5785 -7467.4339 299.4736 931.3371 935.4587 30247.3017 -32.9106 43.6811
ENERGY: 1500000 3.1331 3.5487 2.8485 0.0000 -10682.0918 1483.5354 0.0000 0.0000 1741.8747 -7447.1514 296.8341 -9189.0261 -7465.5119 300.0853 243.2362 296.9161 30594.2119 5.6833 76.2968
TCL: Running FEP window  16: Lambda1 0.24999999999999967 Lambda2 0.19999999999999968 [dLambda -0.04999999999999999]
TCL: Setting parameter firsttimestep to 0
TCL: Setting parameter alchLambda to 0.24999999999999967
Info: NONBONDED TABLE R-SQUARED SPACING: 0.0625
Info: NONBONDED TABLE SIZE: 705 POINTS
TCL: Setting parameter alchLambda2 to 0.19999999999999968
Info: NONBONDED TABLE R-SQUARED SPACING: 0.0625
Info: NONBONDED TABLE SIZE: 705 POINTS
TCL: Running for 1500000 steps
ETITLE: TS BOND ANGLE DIHED IMPRP ELECT VDW BOUNDARY MISC KINETIC TOTAL TEMP POTENTIAL TOTALAVG TEMPAVG PRESSURE GPRESSURE VOLUME PRESSAVG GPRESSAVG
ENERGY: 0 3.1331 3.5487 2.8485 0.0000 -10682.0934 1483.9510 0.0000 0.0000 1740.9903 -7447.6217 296.6834 -9188.6120 -7447.6217 296.6834 209.2275 293.9521 30594.2119 209.2275 293.9521
ENERGY: 300000 4.4818 7.0131 2.5702 0.0000 -10722.1224 1513.4580 0.0000 0.0000 1765.4960 -7429.1032 300.8595 -9194.5992 -7476.8152 299.9187 620.9353 726.8401 30478.1116 -148.2852 -79.8429
ENERGY: 600000 2.2432 2.8162 3.0108 0.0000 -10628.3531 1403.5714 0.0000 0.0000 1786.2603 -7430.4512 304.3979 -9216.7115 -7491.0822 298.7145 -36.3320 -19.6751 30018.7650 -310.2214 -250.4678
ENERGY: 900000 0.3329 4.6352 2.4517 0.0000 -10719.8860 1473.6442 0.0000 0.0000 1791.2720 -7447.5500 305.2520 -9238.8220 -7495.7731 300.1398 412.1414 537.2855 29758.2844 -166.2896 -96.9087
ENERGY: 1200000 4.5619 1.9502 1.9325 0.0000 -10658.6321 1395.5487 0.0000 0.0000 1758.4534 -7496.1855 299.6593 -9254.6389 -7498.6568 299.8973 -472.3118 -425.3751 30439.5451 -141.9084 -71.9383
ENERGY: 1500000 2.4622 4.9154 3.5968 0.0000 -10629.6566 1440.8333 0.0000 0.0000 1768.7775 -7409.0713 301.4187 -9177.8488 -7492.6813 299.3174 48.1008 120.0046 30442.0032 -120.3460 -50.1678
TCL: Running FEP window  17: Lambda1 0.19999999999999968 Lambda2 0.1499999999999997 [dLambda -0.04999999999999999]
TCL: Setting parameter firsttimestep to 0
TCL: Setting parameter alchLambda to 0.19999999999999968
Info: NONBONDED TABLE R-SQUARED SPACING: 0.0625
Info: NONBONDED TABLE SIZE: 705 POINTS
TCL: Setting parameter alchLambda2 to 0.1499999999999997
Info: NONBONDED TABLE R-SQUARED SPACING: 0.0625
Info: NONBONDED TABLE SIZE: 705 POINTS
TCL: Running for 1500000 steps
ETITLE: TS BOND ANGLE DIHED IMPRP ELECT VDW BOUNDARY MISC KINETIC TOTAL TEMP POTENTIAL TOTALAVG TEMPAVG PRESSURE GPRESSURE VOLUME PRESSAVG GPRESSAVG
ENERGY: 0 2.4622 4.9154 3.5968 0.0000 -10629.6571 1441.2615 0.0000 0.0000 1767.8876 -7409.5335 301.2670 -9177.4211 -7409.5335 301.2670 45.9197 118.6020 30442.0032 45.9197 118.6020
ENERGY: 300000 1.0361 3.8507 2.7229 0.0000 -10707.8468 1410.4602 0.0000 0.0000 1761.6989 -7528.0780 300.2124 -9289.7769 -7469.9374 300.3129 -8.8243 71.0509 29643.7493 -428.8082 -353.7798
ENERGY: 600000 1.9969 7.6094 1.5458 0.0000 -10641.5378 1433.9540 0.0000 0.0000 1800.2072 -7396.2246 306.7746 -9196.4318 -7466.0147 300.5731 -107.9912 -43.0598 30524.5107 -287.1696 -222.2570
ENERGY: 900000 3.0589 3.9951 1.4120 0.0000 -10805.5065 1480.6558 0.0000 0.0000 1786.1136 -7530.2712 304.3729 -9316.3847 -7475.3238 300.9062 424.2128 448.7058 29915.6207 -27.7281 31.9847
ENERGY: 1200000 2.7861 3.5342 5.4834 0.0000 -10692.0560 1446.0928 0.0000 0.0000 1744.1271 -7490.0323 297.2180 -9234.1595 -7488.5069 299.4241 -77.6157 53.6467 30338.3798 -102.2849 -35.5789
ENERGY: 1500000 3.1738 4.6377 4.7030 0.0000 -10748.1368 1500.3507 0.0000 0.0000 1786.4065 -7448.8651 304.4228 -9235.2715 -7485.8743 299.5926 772.6116 799.3002 29718.7643 -61.5455 2.6301
TCL: Running FEP window  18: Lambda1 0.1499999999999997 Lambda2 0.09999999999999969 [dLambda -0.05 ]
TCL: Setting parameter firsttimestep to 0
TCL: Setting parameter alchLambda to 0.1499999999999997
Info: NONBONDED TABLE R-SQUARED SPACING: 0.0625
Info: NONBONDED TABLE SIZE: 705 POINTS
TCL: Setting parameter alchLambda2 to 0.09999999999999969
Info: NONBONDED TABLE R-SQUARED SPACING: 0.0625
Info: NONBONDED TABLE SIZE: 705 POINTS
TCL: Running for 1500000 steps
ETITLE: TS BOND ANGLE DIHED IMPRP ELECT VDW BOUNDARY MISC KINETIC TOTAL TEMP POTENTIAL TOTALAVG TEMPAVG PRESSURE GPRESSURE VOLUME PRESSAVG GPRESSAVG
ENERGY: 0 3.1738 4.6377 4.7030 0.0000 -10748.1359 1500.3314 0.0000 0.0000 1785.5506 -7449.7394 304.2770 -9235.2900 -7449.7394 304.2770 710.1442 796.3550 29718.7643 710.1442 796.3550
ENERGY: 300000 4.0000 3.3946 1.9058 0.0000 -10698.0013 1376.5012 0.0000 0.0000 1780.1681 -7532.0315 303.3597 -9312.1995 -7468.6294 303.7909 -465.4193 -409.3729 29993.4363 174.8402 234.8459
ENERGY: 600000 2.7615 1.9429 2.0176 0.0000 -10508.5221 1372.8617 0.0000 0.0000 1801.7834 -7327.1551 307.0432 -9128.9385 -7446.0091 304.7852 -160.7375 -97.5637 30399.2277 -106.0823 -49.8511
ENERGY: 900000 2.7076 1.8323 3.0599 0.0000 -10672.5034 1443.5396 0.0000 0.0000 1777.9380 -7443.4261 302.9797 -9221.3641 -7444.3632 304.6230 5.6260 91.8318 30349.5850 -211.9625 -156.1333
ENERGY: 1200000 2.3348 1.8992 3.6032 0.0000 -10634.9705 1421.6792 0.0000 0.0000 1761.0893 -7444.3649 300.1085 -9205.4542 -7455.6601 303.2840 -174.4087 -30.1736 30193.7212 -219.1742 -155.4580
ENERGY: 1500000 1.8251 3.6769 2.1867 0.0000 -10740.8501 1455.1259 0.0000 0.0000 1719.2837 -7558.7519 292.9844 -9278.0356 -7461.4273 303.2426 143.1324 135.4008 30108.0037 -174.8518 -114.3822
TCL: Running FEP window  19: Lambda1 0.09999999999999969 Lambda2 0.049999999999999684 [dLambda -0.05 ]
TCL: Setting parameter firsttimestep to 0
TCL: Setting parameter alchLambda to 0.09999999999999969
Info: NONBONDED TABLE R-SQUARED SPACING: 0.0625
Info: NONBONDED TABLE SIZE: 705 POINTS
TCL: Setting parameter alchLambda2 to 0.049999999999999684
Info: NONBONDED TABLE R-SQUARED SPACING: 0.0625
Info: NONBONDED TABLE SIZE: 705 POINTS
TCL: Running for 1500000 steps
ETITLE: TS BOND ANGLE DIHED IMPRP ELECT VDW BOUNDARY MISC KINETIC TOTAL TEMP POTENTIAL TOTALAVG TEMPAVG PRESSURE GPRESSURE VOLUME PRESSAVG GPRESSAVG
ENERGY: 0 1.8251 3.6769 2.1867 0.0000 -10740.8496 1454.8180 0.0000 0.0000 1718.4211 -7559.9218 292.8374 -9278.3429 -7559.9218 292.8374 55.0448 133.6878 30108.0037 55.0448 133.6878
ENERGY: 300000 1.1731 1.6789 1.8161 0.0000 -10585.9541 1339.3819 0.0000 0.0000 1729.7611 -7512.1430 294.7699 -9241.9041 -7501.6636 295.0265 -813.4179 -736.0375 30797.3419 -362.1697 -281.9327
ENERGY: 600000 0.8667 3.2160 4.4474 0.0000 -10518.2730 1368.3309 0.0000 0.0000 1789.6889 -7351.7231 304.9822 -9141.4120 -7469.3550 299.1784 -316.3303 -309.9123 30509.6340 -542.2494 -464.5590
ENERGY: 900000 1.0337 1.7721 0.8740 0.0000 -10775.9271 1459.2441 0.0000 0.0000 1772.0408 -7540.9624 301.9748 -9313.0032 -7501.0445 297.8012 33.2894 58.1752 30349.3986 -361.8887 -292.0915
ENERGY: 1200000 1.1849 4.8295 3.3758 0.0000 -10578.0336 1393.8167 0.0000 0.0000 1787.3695 -7387.4572 304.5869 -9174.8267 -7490.7520 299.4955 -306.9158 -241.4416 30373.9484 -299.2165 -227.5310
ENERGY: 1500000 5.3858 2.6412 2.7704 0.0000 -10727.7739 1485.4961 0.0000 0.0000 1771.4705 -7460.0099 301.8776 -9231.4804 -7482.6931 300.4092 64.2409 77.4727 30826.3429 -300.3824 -232.5812
TCL: Running FEP window  20: Lambda1 0.049999999999999684 Lambda2 0.0    [dLambda -0.049999999999999684]
TCL: Setting parameter firsttimestep to 0
TCL: Setting parameter alchLambda to 0.049999999999999684
Info: NONBONDED TABLE R-SQUARED SPACING: 0.0625
Info: NONBONDED TABLE SIZE: 705 POINTS
TCL: Setting parameter alchLambda2 to 0.0
Info: NONBONDED TABLE R-SQUARED SPACING: 0.0625
Info: NONBONDED TABLE SIZE: 705 POINTS
TCL: Running for 1500000 steps
ETITLE: TS BOND ANGLE DIHED IMPRP ELECT VDW BOUNDARY MISC KINETIC TOTAL TEMP POTENTIAL TOTALAVG TEMPAVG PRESSURE GPRESSURE VOLUME PRESSAVG GPRESSAVG
ENERGY: 0 5.3858 2.6412 2.7704 0.0000 -10727.7736 1485.6113 0.0000 0.0000 1770.6050 -7460.7600 301.7301 -9231.3650 -7460.7600 301.7301 3.0489 72.5480 30826.3429 3.0489 72.5480
ENERGY: 300000 3.3344 5.2217 1.1193 0.0000 -10711.8149 1401.8846 0.0000 0.0000 1831.7450 -7468.5100 312.1490 -9300.2549 -7477.5483 302.9422 -700.3755 -634.1411 30605.4283 -506.4601 -441.7121
ENERGY: 600000 4.0881 2.0797 2.4488 0.0000 -10621.1505 1369.2196 0.0000 0.0000 1679.5075 -7563.8069 286.2061 -9243.3144 -7496.2555 299.7717 -776.6569 -725.3274 30370.7034 -494.2704 -421.4026
ENERGY: 900000 3.8264 4.3995 2.3994 0.0000 -10578.6081 1386.5867 0.0000 0.0000 1817.2869 -7364.1092 309.6852 -9181.3961 -7483.6419 300.7183 -573.3854 -529.5934 31154.4244 -362.2930 -300.6654
ENERGY: 1200000 2.8898 5.2003 2.2067 0.0000 -10592.4259 1361.7733 0.0000 0.0000 1766.4777 -7453.8782 301.0268 -9220.3559 -7473.6740 301.9007 -391.8715 -380.6328 30087.6882 -375.6151 -323.4886
ENERGY: 1500000 2.3323 4.6540 2.8151 0.0000 -10633.9943 1418.1911 0.0000 0.0000 1721.4929 -7484.5089 293.3609 -9206.0018 -7475.5762 301.0755 -185.4840 -111.8259 30239.2372 -312.7330 -259.7965
TCL: Exiting due to exit command.
