Info: SIMULATION PARAMETERS:
Info: TIMESTEP               2
Info: NUMBER OF STEPS        0
Info: STEPS PER CYCLE        10
Info: PERIODIC CELL BASIS 1  32.1875 0 0
Info: PERIODIC CELL BASIS 2  0 30.2526 0
Info: PERIODIC CELL BASIS 3  0 0 32.1147
Info: PERIODIC CELL CENTER   0 0 0
Info: WRAPPING WATERS AROUND PERIODIC BOUNDARIES ON OUTPUT.
Info: WRAPPING ALL CLUSTERS AROUND PERIODIC BOUNDARIES ON OUTPUT.
Info: FIRST LDB TIMESTEP     50
Info: LAST LDB TIMESTEP     -1
Info: HOM BACKGROUND SCALING 1
Info: PME BACKGROUND SCALING 1
Info: MIN ATOMS PER PATCH    40
Info: EMPTY PATCH LOAD       40 ATOMS
Info: VELOCITY FILE          mobley_7814642_equil.vel
Info: CENTER OF MASS MOVING INITIALLY? NO
Info: DIELECTRIC             1
Info: EXCLUDE                SCALED ONE-FOUR
Info: 1-4 ELECTROSTATICS SCALED BY 0.833333
Info: MODIFIED 1-4 VDW PARAMETERS WILL BE USED
Info: DCD FILENAME           mobley_7814642_prod.dcd
Info: DCD FREQUENCY          100000
Info: DCD FIRST STEP         100000
Info: DCD FILE WILL CONTAIN UNIT CELL DATA
Info: XST FILENAME           mobley_7814642_prod.xst
Info: XST FREQUENCY          100000
Info: NO VELOCITY DCD OUTPUT
Info: NO FORCE DCD OUTPUT
Info: OUTPUT FILENAME        mobley_7814642_prod
Info: BINARY OUTPUT FILES WILL BE USED
Info: RESTART FILENAME       mobley_7814642_prod.restart
Info: RESTART FREQUENCY      100000
Info: BINARY RESTART FILES WILL BE USED
Info: CUTOFF                 9
Info: PAIRLIST DISTANCE      11
Info: PAIRLIST SHRINK RATE   0.01
Info: PAIRLIST GROW RATE     0.01
Info: PAIRLIST TRIGGER       0.3
Info: PAIRLISTS PER CYCLE    2
Info: PAIRLISTS ENABLED
Info: MARGIN                 2
Info: HYDROGEN GROUP CUTOFF  2.5
Info: PATCH DIMENSION        15.5
Info: ENERGY OUTPUT STEPS    100000
Info: ENERGY EVALUATION STEPS    100000
Info: OUTPUT ENERGY PRECISION 4
Info: CROSSTERM ENERGY INCLUDED IN DIHEDRAL
Info: TIMING OUTPUT STEPS    1000000
Info: PRESSURE OUTPUT STEPS  100000
Info: ALCHEMICAL FEP ON
Info: FEP CURRENT LAMBDA VALUE     1
Info: FEP COMPARISON LAMBDA VALUE  0.95
Info: FEP INTRA-ALCHEMICAL NON-BONDED INTERACTIONS WILL BE RETAINED
Info: FEP INTRA-ALCHEMICAL BONDED INTERACTIONS WILL BE RETAINED
Info: FEP VDW SHIFTING COEFFICIENT 5
Info: FEP ELEC. ACTIVE FOR ANNIHILATED PARTICLES BETWEEN LAMBDA = 0 AND LAMBDA = 0.5
Info: FEP ELEC. ACTIVE FOR EXNIHILATED PARTICLES BETWEEN LAMBDA = 0.5 AND LAMBDA = 1
Info: FEP VDW ACTIVE FOR ANNIHILATED PARTICLES BETWEEN LAMBDA = 0 AND LAMBDA = 1
Info: FEP VDW ACTIVE FOR EXNIHILATED PARTICLES BETWEEN LAMBDA = 0 AND LAMBDA = 1
Info: FEP BOND ACTIVE FOR ANNIHILATED PARTICLES BETWEEN LAMBDA = 1 AND LAMBDA = 1
Info: FEP BOND ACTIVE FOR EXNIHILATED PARTICLES BETWEEN LAMBDA = 0 AND LAMBDA = 0
Info: LANGEVIN DYNAMICS ACTIVE
Info: LANGEVIN TEMPERATURE   300
Info: LANGEVIN USING BBK INTEGRATOR
Info: LANGEVIN DAMPING COEFFICIENT IS 1 INVERSE PS
Info: LANGEVIN DYNAMICS APPLIED TO HYDROGENS
Info: LANGEVIN PISTON PRESSURE CONTROL ACTIVE
Info:        TARGET PRESSURE IS 1.01325 BAR
Info:     OSCILLATION PERIOD IS 50 FS
Info:             DECAY TIME IS 25 FS
Info:     PISTON TEMPERATURE IS 300 K
Info:       PRESSURE CONTROL IS GROUP-BASED
Info:    INITIAL STRAIN RATE IS 0.000242681 0.000242681 0.000242681
Info:       CELL FLUCTUATION IS ISOTROPIC
Info: PARTICLE MESH EWALD (PME) ACTIVE
Info: PME TOLERANCE               1e-06
Info: PME EWALD COEFFICIENT       0.348832
Info: PME INTERPOLATION ORDER     4
Info: PME GRID DIMENSIONS         36 32 36
Info: PME MAXIMUM GRID SPACING    1
Info: PME CALCULATION WILL BE PERFORMED ON GPU
Info: FULL ELECTROSTATIC EVALUATION FREQUENCY      2
Info: USING VERLET I (r-RESPA) MTS SCHEME.
Info: C1 SPLITTING OF LONG RANGE ELECTROSTATICS
Info: PLACING ATOMS IN PATCHES BY HYDROGEN GROUPS
Info: RIGID BONDS TO HYDROGEN : ALL
Info:         ERROR TOLERANCE : 1e-08
Info:          MAX ITERATIONS : 100
Info: RIGID WATER USING SETTLE ALGORITHM
Info: RANDOM NUMBER SEED     1743554624
Info: USE HYDROGEN BONDS?    NO
Info: Using AMBER format force field!
Info: AMBER PARM FILE        mobley_7814642.prmtop
Info: COORDINATE PDB         mobley_7814642.pdb
Info: Exclusions will be read from PARM file!
Info: SCNB (VDW SCALING)     2
Info: USING ARITHMETIC MEAN TO COMBINE L-J SIGMA PARAMETERS
Info: BINARY COORDINATES     mobley_7814642_equil.coor
Info: SUMMARY OF PARAMETERS:
Info: 5 BONDS
Info: 3 ANGLES
Info:   3 HARMONIC
Info:   0 COSINE-BASED
Info: 2 DIHEDRAL
Info: 0 IMPROPER
Info: 0 CROSSTERM
Info: 0 VDW
Info: 15 VDW_PAIRS
Info: 0 NBTHOLE_PAIRS
Info: To read alchdata from file: mobley_7814642.pdb
Info: To read alchflag data from column: 5
Info: STRUCTURE SUMMARY:
Info: 2979 ATOMS
Info: 2979 BONDS
Info: 18 ANGLES
Info: 30 DIHEDRALS
Info: 0 IMPROPERS
Info: 0 CROSSTERMS
Info: 3018 EXCLUSIONS
Info: 2970 RIGID BONDS
Info: ALCH: 0 ATOMS TO DISAPPEAR IN FINAL STATE
Info: ALCH: 12 ATOMS TO APPEAR IN FINAL STATE
Info: 5967 DEGREES OF FREEDOM
Info: 998 HYDROGEN GROUPS
Info: 3 ATOMS IN LARGEST HYDROGEN GROUP
Info: 998 MIGRATION GROUPS
Info: 3 ATOMS IN LARGEST MIGRATION GROUP
Info: TOTAL MASS = 17999.3 amu
Info: TOTAL CHARGE = -3.72529e-09 e
Info: MASS DENSITY = 0.955785 g/cm^3
Info: ATOM DENSITY = 0.0952613 atoms/A^3
Info: ADDED 0 IMPLICIT EXCLUSIONS
Info: NONBONDED TABLE R-SQUARED SPACING: 0.0625
Info: NONBONDED TABLE SIZE: 705 POINTS
Info: REMOVING COM VELOCITY 0.0782704 -0.0575669 -0.0759095
Info: Use 3D box decompostion in PME FFT.
Info: Updated CUDA force table with 4096 elements.
Info: Updated CUDA LJ table with 5 x 5 elements.
Info: Found 15 unique exclusion lists needing 28 bytes
TCL: Running for 1500000 steps
ETITLE: TS BOND ANGLE DIHED IMPRP ELECT VDW BOUNDARY MISC KINETIC TOTAL TEMP POTENTIAL TOTALAVG TEMPAVG PRESSURE GPRESSURE VOLUME PRESSAVG GPRESSAVG
ENERGY: 0 1.1850 2.0168 3.0495 0.0000 -10806.2626 1487.6160 0.0000 0.0000 1779.1579 -7533.2375 300.0881 -9312.3954 -7533.2375 300.0881 342.0213 425.8292 31271.8666 342.0213 425.8292
ENERGY: 300000 2.7042 4.3861 4.1952 0.0000 -10795.0865 1427.0715 0.0000 0.0000 1757.9179 -7598.8116 296.5056 -9356.7294 -7575.9738 294.9352 -58.6581 -8.6883 30781.5682 -114.4980 -54.0071
ENERGY: 600000 2.4614 2.0520 2.6792 0.0000 -10786.0063 1452.1658 0.0000 0.0000 1794.7900 -7531.8579 302.7248 -9326.6478 -7572.6132 296.5065 36.4495 100.8469 30803.8862 -146.6456 -87.2035
ENERGY: 900000 2.1010 3.7943 2.1441 0.0000 -10855.3975 1497.8766 0.0000 0.0000 1831.0966 -7518.3850 308.8486 -9349.4815 -7570.4066 297.3810 569.4888 603.9318 30637.3513 -50.5665 8.7415
ENERGY: 1200000 3.9327 2.8537 2.1046 0.0000 -10739.6986 1391.3854 0.0000 0.0000 1772.5378 -7566.8845 298.9715 -9339.4222 -7565.8901 297.5271 -583.7616 -503.2276 30646.0835 -163.8296 -101.7578
ENERGY: 1500000 2.6373 2.4764 5.0078 0.0000 -10844.3516 1455.5337 0.0000 0.0000 1733.7091 -7644.9872 292.4224 -9378.6963 -7564.0986 298.1581 -117.9690 -32.5922 30807.6734 -160.4977 -95.9640
TCL: Running FEP window   2: Lambda1 0.95   Lambda2 0.8999999999999999 [dLambda -0.050000000000000044]
TCL: Setting parameter firsttimestep to 0
TCL: Setting parameter alchLambda to 0.95
Info: NONBONDED TABLE R-SQUARED SPACING: 0.0625
Info: NONBONDED TABLE SIZE: 705 POINTS
TCL: Setting parameter alchLambda2 to 0.8999999999999999
Info: NONBONDED TABLE R-SQUARED SPACING: 0.0625
Info: NONBONDED TABLE SIZE: 705 POINTS
TCL: Running for 1500000 steps
ETITLE: TS BOND ANGLE DIHED IMPRP ELECT VDW BOUNDARY MISC KINETIC TOTAL TEMP POTENTIAL TOTALAVG TEMPAVG PRESSURE GPRESSURE VOLUME PRESSAVG GPRESSAVG
ENERGY: 0 2.6373 2.4764 5.0078 0.0000 -10844.1962 1455.3838 0.0000 0.0000 1732.8606 -7645.8303 292.2792 -9378.6908 -7645.8303 292.2792 -128.5331 -48.0537 30807.6734 -128.5331 -48.0537
ENERGY: 300000 3.7521 4.4688 4.2867 0.0000 -10862.5589 1389.5294 0.0000 0.0000 1776.8493 -7683.6726 299.6988 -9460.5219 -7629.2481 298.3001 -899.4781 -845.1565 30991.9604 -182.8508 -136.0082
ENERGY: 600000 6.0558 1.5208 2.9994 0.0000 -10746.5476 1428.7874 0.0000 0.0000 1779.8716 -7527.3127 300.2085 -9307.1844 -7596.7613 300.2823 -261.0669 -157.6521 30851.1442 -245.8309 -179.7318
ENERGY: 900000 1.8867 2.9273 2.8958 0.0000 -10706.8241 1388.2845 0.0000 0.0000 1762.9165 -7547.9133 297.3487 -9310.8299 -7569.8787 300.6028 -392.4553 -366.7683 31142.5505 -249.7701 -189.0130
ENERGY: 1200000 1.8820 2.4192 2.6605 0.0000 -10753.8400 1475.2295 0.0000 0.0000 1816.7292 -7454.9197 306.4252 -9271.6489 -7571.5165 300.1365 366.9042 430.5774 30719.0656 -146.9769 -82.7356
ENERGY: 1500000 2.2720 3.3232 2.5407 0.0000 -10791.1047 1393.9395 0.0000 0.0000 1743.4835 -7645.5460 294.0710 -9389.0294 -7582.5422 300.0719 -405.2632 -448.6797 30599.2747 -120.3434 -59.0964
TCL: Running FEP window   3: Lambda1 0.8999999999999999 Lambda2 0.8499999999999999 [dLambda -0.050000000000000044]
TCL: Setting parameter firsttimestep to 0
TCL: Setting parameter alchLambda to 0.8999999999999999
Info: NONBONDED TABLE R-SQUARED SPACING: 0.0625
Info: NONBONDED TABLE SIZE: 705 POINTS
TCL: Setting parameter alchLambda2 to 0.8499999999999999
Info: NONBONDED TABLE R-SQUARED SPACING: 0.0625
Info: NONBONDED TABLE SIZE: 705 POINTS
TCL: Running for 1500000 steps
ETITLE: TS BOND ANGLE DIHED IMPRP ELECT VDW BOUNDARY MISC KINETIC TOTAL TEMP POTENTIAL TOTALAVG TEMPAVG PRESSURE GPRESSURE VOLUME PRESSAVG GPRESSAVG
ENERGY: 0 2.2720 3.3232 2.5407 0.0000 -10790.8856 1394.1421 0.0000 0.0000 1742.6189 -7645.9887 293.9252 -9388.6077 -7645.9887 293.9252 -543.3008 -460.8072 30599.2747 -543.3008 -460.8072
ENERGY: 300000 3.0076 2.2578 3.0462 0.0000 -10809.9173 1442.0348 0.0000 0.0000 1789.8283 -7569.7426 301.8879 -9359.5709 -7586.3599 299.4729 -296.1638 -195.2678 30952.3540 -30.1745 51.5321
ENERGY: 600000 6.5781 1.0712 1.8754 0.0000 -10794.2281 1435.5856 0.0000 0.0000 1774.0518 -7575.0660 299.2269 -9349.1179 -7569.0050 298.9663 -248.0374 -197.3626 30578.4630 -105.8806 -24.8307
ENERGY: 900000 3.6884 1.7526 3.7732 0.0000 -10921.9933 1484.9606 0.0000 0.0000 1768.8579 -7658.9606 298.3509 -9427.8185 -7588.4193 299.4324 52.8156 138.2149 30446.2005 -13.0408 57.9499
ENERGY: 1200000 3.1403 1.9270 2.3767 0.0000 -10804.9962 1425.7031 0.0000 0.0000 1816.5193 -7555.3299 306.3898 -9371.8492 -7580.0767 300.2607 -271.1925 -139.8874 30766.8042 -77.3068 -3.5362
ENERGY: 1500000 2.3695 3.4870 2.1665 0.0000 -10857.0097 1474.6268 0.0000 0.0000 1784.6746 -7589.6852 301.0186 -9374.3598 -7575.8565 300.5463 -311.1361 -278.7077 31219.4753 -67.6417 -0.4376
TCL: Running FEP window   4: Lambda1 0.8499999999999999 Lambda2 0.7999999999999998 [dLambda -0.050000000000000044]
TCL: Setting parameter firsttimestep to 0
TCL: Setting parameter alchLambda to 0.8499999999999999
Info: NONBONDED TABLE R-SQUARED SPACING: 0.0625
Info: NONBONDED TABLE SIZE: 705 POINTS
TCL: Setting parameter alchLambda2 to 0.7999999999999998
Info: NONBONDED TABLE R-SQUARED SPACING: 0.0625
Info: NONBONDED TABLE SIZE: 705 POINTS
TCL: Running for 1500000 steps
ETITLE: TS BOND ANGLE DIHED IMPRP ELECT VDW BOUNDARY MISC KINETIC TOTAL TEMP POTENTIAL TOTALAVG TEMPAVG PRESSURE GPRESSURE VOLUME PRESSAVG GPRESSAVG
ENERGY: 0 2.3695 3.4870 2.1665 0.0000 -10856.9770 1474.9419 0.0000 0.0000 1783.7577 -7590.2543 300.8640 -9374.0121 -7590.2543 300.8640 -360.0417 -285.8661 31219.4753 -360.0417 -285.8661
ENERGY: 300000 3.8536 1.3242 2.5416 0.0000 -10806.4713 1463.2439 0.0000 0.0000 1753.6274 -7581.8806 295.7820 -9335.5080 -7567.9494 300.6309 -254.4516 -111.8117 31111.7479 -107.9989 -17.0131
ENERGY: 600000 1.9644 1.8000 2.3958 0.0000 -10749.7388 1424.3490 0.0000 0.0000 1754.6084 -7564.6212 295.9474 -9319.2296 -7542.8305 301.2443 -510.2239 -427.4492 31385.1236 -49.2945 29.6556
ENERGY: 900000 1.4017 3.0852 3.9543 0.0000 -10716.6310 1401.0407 0.0000 0.0000 1735.5866 -7571.5625 292.7390 -9307.1491 -7550.5547 299.6532 -147.1329 -50.5881 30427.2793 -99.4154 -20.0319
ENERGY: 1200000 2.4890 0.7245 4.0163 0.0000 -10813.5439 1452.4510 0.0000 0.0000 1754.4085 -7599.4546 295.9137 -9353.8632 -7554.1211 299.7951 180.9902 200.8004 30290.1641 -97.1837 -25.4565
ENERGY: 1500000 3.3784 2.8383 4.6002 0.0000 -10754.1385 1377.8875 0.0000 0.0000 1787.5326 -7577.9014 301.5007 -9365.4340 -7558.5735 299.8992 -765.7815 -729.9128 30803.2269 -204.0153 -135.0938
TCL: Running FEP window   5: Lambda1 0.7999999999999998 Lambda2 0.7499999999999998 [dLambda -0.050000000000000044]
TCL: Setting parameter firsttimestep to 0
TCL: Setting parameter alchLambda to 0.7999999999999998
Info: NONBONDED TABLE R-SQUARED SPACING: 0.0625
Info: NONBONDED TABLE SIZE: 705 POINTS
TCL: Setting parameter alchLambda2 to 0.7499999999999998
Info: NONBONDED TABLE R-SQUARED SPACING: 0.0625
Info: NONBONDED TABLE SIZE: 705 POINTS
TCL: Running for 1500000 steps
ETITLE: TS BOND ANGLE DIHED IMPRP ELECT VDW BOUNDARY MISC KINETIC TOTAL TEMP POTENTIAL TOTALAVG TEMPAVG PRESSURE GPRESSURE VOLUME PRESSAVG GPRESSAVG
ENERGY: 0 3.3784 2.8383 4.6002 0.0000 -10753.6419 1378.2776 0.0000 0.0000 1786.6055 -7577.9419 301.3443 -9364.5474 -7577.9419 301.3443 -809.0014 -734.9508 30803.2269 -809.0014 -734.9508
ENERGY: 300000 1.9397 2.3772 2.0468 0.0000 -10620.2469 1345.7739 0.0000 0.0000 1767.7813 -7500.3281 298.1693 -9268.1094 -7580.7957 298.7084 -1079.1928 -1043.2293 31630.3448 -397.9787 -334.2010
ENERGY: 600000 1.8567 1.6532 2.8833 0.0000 -10758.5042 1421.9406 0.0000 0.0000 1756.5720 -7573.5984 296.2786 -9330.1704 -7561.7499 299.6938 -124.4740 -54.5340 30825.8045 -307.9493 -243.9529
ENERGY: 900000 0.9218 0.7454 0.9612 0.0000 -10904.3231 1554.3959 0.0000 0.0000 1779.1289 -7568.1698 300.0832 -9347.2987 -7568.4952 299.5206 440.2953 506.7956 31063.9791 -254.5451 -189.7831
ENERGY: 1200000 4.8695 3.0001 2.2202 0.0000 -10788.1963 1400.5413 0.0000 0.0000 1812.7142 -7564.8511 305.7480 -9377.5653 -7566.2792 300.6950 -716.5295 -611.4769 30935.8942 -315.9666 -244.7667
ENERGY: 1500000 4.9341 5.7071 1.5864 0.0000 -10626.5246 1372.7720 0.0000 0.0000 1809.7579 -7431.7672 305.2494 -9241.5251 -7564.9249 300.4467 -644.5522 -597.8668 31183.4561 -289.6702 -218.6084
TCL: Running FEP window   6: Lambda1 0.7499999999999998 Lambda2 0.6999999999999997 [dLambda -0.050000000000000044]
TCL: Setting parameter firsttimestep to 0
TCL: Setting parameter alchLambda to 0.7499999999999998
Info: NONBONDED TABLE R-SQUARED SPACING: 0.0625
Info: NONBONDED TABLE SIZE: 705 POINTS
TCL: Setting parameter alchLambda2 to 0.6999999999999997
Info: NONBONDED TABLE R-SQUARED SPACING: 0.0625
Info: NONBONDED TABLE SIZE: 705 POINTS
TCL: Running for 1500000 steps
ETITLE: TS BOND ANGLE DIHED IMPRP ELECT VDW BOUNDARY MISC KINETIC TOTAL TEMP POTENTIAL TOTALAVG TEMPAVG PRESSURE GPRESSURE VOLUME PRESSAVG GPRESSAVG
ENERGY: 0 4.9341 5.7071 1.5864 0.0000 -10626.0193 1372.5216 0.0000 0.0000 1808.8371 -7432.4330 305.0941 -9241.2701 -7432.4330 305.0941 -681.3709 -609.3623 31183.4561 -681.3709 -609.3623
ENERGY: 300000 1.9250 4.4486 2.0242 0.0000 -10781.8400 1411.7183 0.0000 0.0000 1763.7263 -7597.9975 297.4853 -9361.7238 -7535.5892 300.4858 -313.4295 -304.2168 30981.0210 -181.5463 -116.0746
ENERGY: 600000 1.9672 0.9981 2.8643 0.0000 -10742.2792 1475.4770 0.0000 0.0000 1711.9348 -7549.0377 288.7497 -9260.9725 -7539.3441 299.9288 225.7677 300.3019 30686.1956 -15.4656 53.3261
ENERGY: 900000 3.9521 1.9374 4.5617 0.0000 -10885.0868 1485.2456 0.0000 0.0000 1745.2529 -7644.1370 294.3694 -9389.3900 -7555.6561 299.0565 -36.2080 8.0993 30855.7923 -60.7565 0.9984
ENERGY: 1200000 1.4975 2.6114 1.6372 0.0000 -10829.8394 1432.7152 0.0000 0.0000 1764.8948 -7626.4833 297.6824 -9391.3781 -7559.1361 299.1891 -149.6197 -59.4800 30671.2968 -34.4433 32.6133
ENERGY: 1500000 4.2973 3.6979 3.2644 0.0000 -10710.9675 1376.0014 0.0000 0.0000 1815.5714 -7508.1351 306.2300 -9323.7066 -7550.1327 300.2451 -554.7316 -522.8117 30906.8882 -39.5909 24.2314
TCL: Running FEP window   7: Lambda1 0.6999999999999997 Lambda2 0.6499999999999997 [dLambda -0.050000000000000044]
TCL: Setting parameter firsttimestep to 0
TCL: Setting parameter alchLambda to 0.6999999999999997
Info: NONBONDED TABLE R-SQUARED SPACING: 0.0625
Info: NONBONDED TABLE SIZE: 705 POINTS
TCL: Setting parameter alchLambda2 to 0.6499999999999997
Info: NONBONDED TABLE R-SQUARED SPACING: 0.0625
Info: NONBONDED TABLE SIZE: 705 POINTS
TCL: Running for 1500000 steps
ETITLE: TS BOND ANGLE DIHED IMPRP ELECT VDW BOUNDARY MISC KINETIC TOTAL TEMP POTENTIAL TOTALAVG TEMPAVG PRESSURE GPRESSURE VOLUME PRESSAVG GPRESSAVG
ENERGY: 0 4.2973 3.6979 3.2644 0.0000 -10710.7649 1376.5176 0.0000 0.0000 1814.7018 -7508.2859 306.0833 -9322.9877 -7508.2859 306.0833 -601.9454 -526.2472 30906.8882 -601.9454 -526.2472
ENERGY: 300000 3.3557 2.5326 2.4030 0.0000 -10795.0798 1403.7927 0.0000 0.0000 1776.9139 -7606.0819 299.7096 -9382.9957 -7528.0721 303.8893 -572.7067 -574.3830 30896.7165 -275.9776 -230.9218
ENERGY: 600000 1.8526 4.5395 3.8038 0.0000 -10901.2178 1449.1873 0.0000 0.0000 1778.0003 -7663.8344 299.8929 -9441.8347 -7545.0653 303.9820 -137.5504 -98.9453 30601.6282 -248.4021 -187.1045
ENERGY: 900000 1.3682 2.4335 2.4081 0.0000 -10801.7490 1399.0549 0.0000 0.0000 1806.3222 -7590.1622 304.6699 -9396.4844 -7562.1868 302.9853 -656.7613 -544.4068 30805.1527 -157.1109 -97.0149
ENERGY: 1200000 1.9626 6.1465 2.6237 0.0000 -10755.9146 1453.5008 0.0000 0.0000 1721.0127 -7570.6684 290.2809 -9291.6811 -7557.6024 302.5091 393.6706 393.0683 30633.9709 -95.0803 -35.0708
ENERGY: 1500000 2.1699 2.7892 3.9196 0.0000 -10675.7322 1432.2146 0.0000 0.0000 1785.1636 -7449.4751 301.1011 -9234.6388 -7555.7125 301.8059 -105.2326 -72.1310 31407.3071 -105.1556 -50.7925
TCL: Running FEP window   8: Lambda1 0.6499999999999997 Lambda2 0.5999999999999996 [dLambda -0.050000000000000044]
TCL: Setting parameter firsttimestep to 0
TCL: Setting parameter alchLambda to 0.6499999999999997
Info: NONBONDED TABLE R-SQUARED SPACING: 0.0625
Info: NONBONDED TABLE SIZE: 705 POINTS
TCL: Setting parameter alchLambda2 to 0.5999999999999996
Info: NONBONDED TABLE R-SQUARED SPACING: 0.0625
Info: NONBONDED TABLE SIZE: 705 POINTS
TCL: Running for 1500000 steps
ETITLE: TS BOND ANGLE DIHED IMPRP ELECT VDW BOUNDARY MISC KINETIC TOTAL TEMP POTENTIAL TOTALAVG TEMPAVG PRESSURE GPRESSURE VOLUME PRESSAVG GPRESSAVG
ENERGY: 0 2.1699 2.7892 3.9196 0.0000 -10675.3884 1432.8055 0.0000 0.0000 1784.2626 -7449.4415 300.9492 -9233.7041 -7449.4415 300.9492 -136.6638 -71.8292 31407.3071 -136.6638 -71.8292
ENERGY: 300000 2.2332 2.5027 2.0003 0.0000 -10794.7203 1445.7208 0.0000 0.0000 1786.1449 -7556.1185 301.2666 -9342.2634 -7525.0426 299.4669 -138.4739 -108.5904 30740.8324 -52.0256 -11.0158
ENERGY: 600000 4.4262 2.1779 3.2228 0.0000 -10888.6086 1526.8616 0.0000 0.0000 1773.1615 -7578.7586 299.0767 -9351.9201 -7549.7617 298.0172 463.9828 583.4277 30697.3000 -81.6550 -21.6477
ENERGY: 900000 7.1060 3.9833 1.5165 0.0000 -10927.2233 1541.5024 0.0000 0.0000 1737.2127 -7635.9024 293.0133 -9373.1151 -7562.9145 297.0806 738.6283 855.8912 30314.5369 68.8796 131.4012
ENERGY: 1200000 3.6128 7.3101 1.7020 0.0000 -10915.0840 1497.7240 0.0000 0.0000 1774.4708 -7630.2644 299.2976 -9404.7351 -7570.6095 296.2742 213.9323 270.7047 30483.2210 24.8674 76.8897
ENERGY: 1500000 1.8450 3.1273 2.1638 0.0000 -10686.7141 1367.2239 0.0000 0.0000 1784.6386 -7527.7156 301.0126 -9312.3542 -7569.7183 296.4069 -511.7500 -460.7124 30811.6690 18.5175 74.2178
TCL: Running FEP window   9: Lambda1 0.5999999999999996 Lambda2 0.5499999999999996 [dLambda -0.050000000000000044]
TCL: Setting parameter firsttimestep to 0
TCL: Setting parameter alchLambda to 0.5999999999999996
Info: NONBONDED TABLE R-SQUARED SPACING: 0.0625
Info: NONBONDED TABLE SIZE: 705 POINTS
TCL: Setting parameter alchLambda2 to 0.5499999999999996
Info: NONBONDED TABLE R-SQUARED SPACING: 0.0625
Info: NONBONDED TABLE SIZE: 705 POINTS
TCL: Running for 1500000 steps
ETITLE: TS BOND ANGLE DIHED IMPRP ELECT VDW BOUNDARY MISC KINETIC TOTAL TEMP POTENTIAL TOTALAVG TEMPAVG PRESSURE GPRESSURE VOLUME PRESSAVG GPRESSAVG
ENERGY: 0 1.8450 3.1273 2.1637 0.0000 -10686.3910 1367.6898 0.0000 0.0000 1783.7554 -7527.8097 300.8636 -9311.5652 -7527.8097 300.8636 -555.1688 -465.7854 30811.6690 -555.1688 -465.7854
ENERGY: 300000 2.6245 3.0640 0.2663 0.0000 -10867.7438 1489.6225 0.0000 0.0000 1838.7010 -7533.4655 310.1312 -9372.1665 -7507.4639 302.5087 835.2878 906.5061 29751.7419 213.0232 277.8983
ENERGY: 600000 3.0534 2.8726 3.5750 0.0000 -10896.0402 1473.3508 0.0000 0.0000 1830.7268 -7582.4616 308.7862 -9413.1884 -7532.2446 301.9742 -74.7055 4.1852 30745.2787 134.4786 199.1279
ENERGY: 900000 2.5385 3.5185 3.2998 0.0000 -10862.9709 1496.4154 0.0000 0.0000 1750.8825 -7606.3161 295.3190 -9357.1987 -7535.6635 301.4129 440.6408 468.7394 30516.1870 113.2557 175.2117
ENERGY: 1200000 0.9900 2.1235 3.4465 0.0000 -10651.7090 1368.7830 0.0000 0.0000 1754.4854 -7521.8806 295.9267 -9276.3660 -7532.4801 301.8240 -589.3937 -527.7792 31076.1413 91.7463 155.7514
ENERGY: 1500000 4.0114 4.5724 1.4941 0.0000 -10759.8205 1366.2897 0.0000 0.0000 1821.4993 -7561.9535 307.2298 -9383.4528 -7547.5567 301.9937 -803.3966 -723.8673 30839.6420 -16.5508 51.2671
TCL: Running FEP window  10: Lambda1 0.5499999999999996 Lambda2 0.4999999999999996 [dLambda -0.04999999999999999]
TCL: Setting parameter firsttimestep to 0
TCL: Setting parameter alchLambda to 0.5499999999999996
Info: NONBONDED TABLE R-SQUARED SPACING: 0.0625
Info: NONBONDED TABLE SIZE: 705 POINTS
TCL: Setting parameter alchLambda2 to 0.4999999999999996
Info: NONBONDED TABLE R-SQUARED SPACING: 0.0625
Info: NONBONDED TABLE SIZE: 705 POINTS
TCL: Running for 1500000 steps
ETITLE: TS BOND ANGLE DIHED IMPRP ELECT VDW BOUNDARY MISC KINETIC TOTAL TEMP POTENTIAL TOTALAVG TEMPAVG PRESSURE GPRESSURE VOLUME PRESSAVG GPRESSAVG
ENERGY: 0 4.0114 4.5724 1.4941 0.0000 -10759.5276 1366.6009 0.0000 0.0000 1820.6322 -7562.2165 307.0836 -9382.8488 -7562.2165 307.0836 -793.6666 -724.8720 30839.6420 -793.6666 -724.8720
ENERGY: 300000 1.1504 0.7421 1.8756 0.0000 -10728.1294 1407.5483 0.0000 0.0000 1762.5456 -7554.2673 297.2862 -9316.8130 -7539.9484 303.5048 -353.7177 -290.9341 30727.2098 169.7929 223.9244
ENERGY: 600000 5.0937 2.1476 4.5111 0.0000 -10831.7815 1424.6721 0.0000 0.0000 1774.5562 -7620.8008 299.3120 -9395.3570 -7561.7683 301.9616 -372.1761 -349.0393 30746.6057 95.4611 134.9388
ENERGY: 900000 5.3662 1.4541 3.0065 0.0000 -10963.0522 1533.1736 0.0000 0.0000 1747.0250 -7673.0268 294.6683 -9420.0519 -7566.3605 300.9486 466.5828 595.6593 30105.7284 72.5609 121.5986
ENERGY: 1200000 5.5224 5.3318 5.4407 0.0000 -10788.4181 1413.6343 0.0000 0.0000 1762.6655 -7595.8234 297.3064 -9358.4889 -7565.1307 299.9797 -389.6439 -302.6589 30781.7699 36.5661 87.1875
ENERGY: 1500000 1.9174 2.9301 1.7138 0.0000 -10843.0346 1453.1261 0.0000 0.0000 1775.7897 -7607.5575 299.5200 -9383.3471 -7563.8715 300.5678 -74.1002 -9.2788 30597.6417 -9.0644 41.8973
TCL: Running FEP window  11: Lambda1 0.4999999999999996 Lambda2 0.4499999999999996 [dLambda -0.04999999999999999]
TCL: Setting parameter firsttimestep to 0
TCL: Setting parameter alchLambda to 0.4999999999999996
Info: NONBONDED TABLE R-SQUARED SPACING: 0.0625
Info: NONBONDED TABLE SIZE: 705 POINTS
TCL: Setting parameter alchLambda2 to 0.4499999999999996
Info: NONBONDED TABLE R-SQUARED SPACING: 0.0625
Info: NONBONDED TABLE SIZE: 705 POINTS
TCL: Running for 1500000 steps
ETITLE: TS BOND ANGLE DIHED IMPRP ELECT VDW BOUNDARY MISC KINETIC TOTAL TEMP POTENTIAL TOTALAVG TEMPAVG PRESSURE GPRESSURE VOLUME PRESSAVG GPRESSAVG
ENERGY: 0 1.9174 2.9301 1.7138 0.0000 -10842.9717 1453.6391 0.0000 0.0000 1774.8869 -7607.8844 299.3678 -9382.7713 -7607.8844 299.3678 -99.1966 -11.9801 30597.6417 -99.1966 -11.9801
ENERGY: 300000 4.0131 4.0402 2.0693 0.0000 -10742.1618 1417.3437 0.0000 0.0000 1794.0067 -7520.6887 302.5927 -9314.6954 -7588.5670 298.3049 -662.4198 -611.1366 31372.9474 -289.3890 -227.4313
ENERGY: 600000 1.9227 3.0349 4.0544 0.0000 -10811.4982 1462.2016 0.0000 0.0000 1762.6071 -7577.6776 297.2965 -9340.2846 -7594.0603 298.8147 319.0220 398.2042 30229.1575 -89.7038 -26.5214
ENERGY: 900000 1.6049 1.7853 3.4699 0.0000 -10739.3301 1405.7258 0.0000 0.0000 1744.6026 -7582.1415 294.2598 -9326.7441 -7588.1136 298.2845 -263.4215 -216.8458 30393.6937 -105.2098 -35.9675
ENERGY: 1200000 3.0239 3.8225 1.2845 0.0000 -10812.3834 1482.5620 0.0000 0.0000 1749.5242 -7572.1662 295.0899 -9321.6904 -7577.9838 297.8687 -161.1759 -38.9862 31039.1070 -98.9244 -25.1165
ENERGY: 1500000 1.6442 4.0709 3.6949 0.0000 -10752.7972 1395.9416 0.0000 0.0000 1800.8617 -7546.5839 303.7489 -9347.4456 -7572.3429 298.1130 -565.3261 -498.2141 30648.8625 -127.1936 -56.6076
TCL: Running FEP window  12: Lambda1 0.4499999999999996 Lambda2 0.39999999999999963 [dLambda -0.04999999999999999]
TCL: Setting parameter firsttimestep to 0
TCL: Setting parameter alchLambda to 0.4499999999999996
Info: NONBONDED TABLE R-SQUARED SPACING: 0.0625
Info: NONBONDED TABLE SIZE: 705 POINTS
TCL: Setting parameter alchLambda2 to 0.39999999999999963
Info: NONBONDED TABLE R-SQUARED SPACING: 0.0625
Info: NONBONDED TABLE SIZE: 705 POINTS
TCL: Running for 1500000 steps
ETITLE: TS BOND ANGLE DIHED IMPRP ELECT VDW BOUNDARY MISC KINETIC TOTAL TEMP POTENTIAL TOTALAVG TEMPAVG PRESSURE GPRESSURE VOLUME PRESSAVG GPRESSAVG
ENERGY: 0 1.6442 4.0709 3.6949 0.0000 -10752.7983 1396.5057 0.0000 0.0000 1799.9662 -7546.9164 303.5979 -9346.8826 -7546.9164 303.5979 -577.6408 -499.8018 30648.8625 -577.6408 -499.8018
ENERGY: 300000 3.8375 1.5224 1.3116 0.0000 -10792.1950 1473.5825 0.0000 0.0000 1802.4418 -7509.4992 304.0154 -9311.9410 -7545.1415 300.3227 -192.2528 -99.1523 31498.9843 -362.8451 -311.8999
ENERGY: 600000 1.5530 4.9204 3.3755 0.0000 -10861.0084 1495.3138 0.0000 0.0000 1809.4591 -7546.3866 305.1990 -9355.8457 -7545.0516 301.3483 294.3955 389.1420 30699.4475 -159.1782 -93.6508
ENERGY: 900000 5.8248 3.3851 3.9577 0.0000 -10915.8300 1557.9340 0.0000 0.0000 1815.4087 -7529.3197 306.2025 -9344.7283 -7534.9620 301.8061 1041.6624 1048.1400 30155.9369 17.8939 70.7881
ENERGY: 1200000 4.2166 5.4360 2.0391 0.0000 -10683.6102 1431.1148 0.0000 0.0000 1761.2044 -7479.5993 297.0599 -9240.8037 -7541.0946 300.7411 27.3489 79.7937 30526.4239 -61.7436 -11.2946
ENERGY: 1500000 2.6535 3.1917 7.0127 0.0000 -10881.2905 1498.6534 0.0000 0.0000 1793.9996 -7575.7795 302.5915 -9369.7791 -7545.2612 300.4371 124.4013 208.5920 30886.0388 -60.4414 -9.2073
TCL: Running FEP window  13: Lambda1 0.39999999999999963 Lambda2 0.34999999999999964 [dLambda -0.04999999999999999]
TCL: Setting parameter firsttimestep to 0
TCL: Setting parameter alchLambda to 0.39999999999999963
Info: NONBONDED TABLE R-SQUARED SPACING: 0.0625
Info: NONBONDED TABLE SIZE: 705 POINTS
TCL: Setting parameter alchLambda2 to 0.34999999999999964
Info: NONBONDED TABLE R-SQUARED SPACING: 0.0625
Info: NONBONDED TABLE SIZE: 705 POINTS
TCL: Running for 1500000 steps
ETITLE: TS BOND ANGLE DIHED IMPRP ELECT VDW BOUNDARY MISC KINETIC TOTAL TEMP POTENTIAL TOTALAVG TEMPAVG PRESSURE GPRESSURE VOLUME PRESSAVG GPRESSAVG
ENERGY: 0 2.6535 3.1917 7.0127 0.0000 -10881.2905 1498.6839 0.0000 0.0000 1793.1019 -7576.6468 302.4401 -9369.7487 -7576.6468 302.4401 120.6361 201.6840 30886.0388 120.6361 201.6840
ENERGY: 300000 2.3346 1.3023 1.8332 0.0000 -10786.3361 1462.2203 0.0000 0.0000 1788.6147 -7530.0310 301.6832 -9318.6457 -7548.4441 300.1644 308.4932 372.5804 30456.4932 -218.8183 -150.1791
ENERGY: 600000 1.5064 1.3427 2.4087 0.0000 -10938.4920 1522.9517 0.0000 0.0000 1776.8567 -7633.4258 299.7000 -9410.2825 -7562.5265 298.6677 236.0344 255.5373 30880.2209 -137.6904 -71.1475
ENERGY: 900000 2.1594 5.7577 3.2012 0.0000 -10765.6781 1458.6412 0.0000 0.0000 1811.4917 -7484.4269 305.5418 -9295.9186 -7529.7315 301.0551 250.5033 239.6595 30652.3769 -67.5067 -11.4469
ENERGY: 1200000 2.6835 2.3753 2.2609 0.0000 -10872.9304 1526.1628 0.0000 0.0000 1763.3592 -7576.0887 297.4234 -9339.4479 -7538.3841 300.0606 506.0194 595.0649 30599.8912 -34.8243 26.7491
ENERGY: 1500000 5.3727 1.0818 2.8177 0.0000 -10941.6809 1563.4586 0.0000 0.0000 1733.7768 -7635.1732 292.4338 -9368.9500 -7539.8884 299.8931 833.3197 897.2121 30325.1114 -26.8343 27.6365
TCL: Running FEP window  14: Lambda1 0.34999999999999964 Lambda2 0.29999999999999966 [dLambda -0.04999999999999999]
TCL: Setting parameter firsttimestep to 0
TCL: Setting parameter alchLambda to 0.34999999999999964
Info: NONBONDED TABLE R-SQUARED SPACING: 0.0625
Info: NONBONDED TABLE SIZE: 705 POINTS
TCL: Setting parameter alchLambda2 to 0.29999999999999966
Info: NONBONDED TABLE R-SQUARED SPACING: 0.0625
Info: NONBONDED TABLE SIZE: 705 POINTS
TCL: Running for 1500000 steps
ETITLE: TS BOND ANGLE DIHED IMPRP ELECT VDW BOUNDARY MISC KINETIC TOTAL TEMP POTENTIAL TOTALAVG TEMPAVG PRESSURE GPRESSURE VOLUME PRESSAVG GPRESSAVG
ENERGY: 0 5.3727 1.0818 2.8177 0.0000 -10941.6816 1563.7523 0.0000 0.0000 1732.9201 -7635.7369 292.2893 -9368.6570 -7635.7369 292.2893 805.6752 895.4953 30325.1114 805.6752 895.4953
ENERGY: 300000 2.8218 3.7529 3.0306 0.0000 -10745.7530 1433.3773 0.0000 0.0000 1776.7045 -7526.0660 299.6743 -9302.7704 -7594.3089 294.2848 -207.4105 -139.7757 30737.9037 136.8573 207.3776
ENERGY: 600000 2.5553 3.0624 3.8553 0.0000 -10688.9785 1393.9670 0.0000 0.0000 1776.1335 -7509.4051 299.5780 -9285.5386 -7563.9790 297.3347 -495.4306 -478.4939 31116.9110 7.8536 63.4741
ENERGY: 900000 2.3158 2.9904 2.1031 0.0000 -10742.4564 1495.2088 0.0000 0.0000 1791.6083 -7448.2299 302.1881 -9239.8381 -7556.5414 298.8802 682.4930 748.9275 30397.7627 182.3215 240.9839
ENERGY: 1200000 2.3045 0.6076 3.4316 0.0000 -10783.5218 1426.4969 0.0000 0.0000 1848.0055 -7502.6756 311.7006 -9350.6811 -7545.4788 300.3627 -333.3272 -255.8754 30892.6474 154.8004 215.8717
ENERGY: 1500000 4.5805 2.9038 0.4703 0.0000 -10869.6750 1520.1462 0.0000 0.0000 1780.4541 -7561.1199 300.3068 -9341.5741 -7548.1747 300.7582 572.0211 685.4750 30425.3020 106.2130 173.9181
TCL: Running FEP window  15: Lambda1 0.29999999999999966 Lambda2 0.24999999999999967 [dLambda -0.04999999999999999]
TCL: Setting parameter firsttimestep to 0
TCL: Setting parameter alchLambda to 0.29999999999999966
Info: NONBONDED TABLE R-SQUARED SPACING: 0.0625
Info: NONBONDED TABLE SIZE: 705 POINTS
TCL: Setting parameter alchLambda2 to 0.24999999999999967
Info: NONBONDED TABLE R-SQUARED SPACING: 0.0625
Info: NONBONDED TABLE SIZE: 705 POINTS
TCL: Running for 1500000 steps
ETITLE: TS BOND ANGLE DIHED IMPRP ELECT VDW BOUNDARY MISC KINETIC TOTAL TEMP POTENTIAL TOTALAVG TEMPAVG PRESSURE GPRESSURE VOLUME PRESSAVG GPRESSAVG
ENERGY: 0 4.5805 2.9038 0.4703 0.0000 -10869.6757 1520.1031 0.0000 0.0000 1779.6175 -7562.0005 300.1657 -9341.6180 -7562.0005 300.1657 580.4682 678.0231 30425.3020 580.4682 678.0231
ENERGY: 300000 1.3120 3.2245 1.7374 0.0000 -10877.7158 1571.5213 0.0000 0.0000 1754.0535 -7545.8671 295.8538 -9299.9206 -7532.2639 300.7268 1058.7102 1172.6088 30512.2130 722.2689 803.3560
ENERGY: 600000 2.3316 2.5914 1.2188 0.0000 -10803.6509 1501.3112 0.0000 0.0000 1747.4741 -7548.7238 294.7441 -9296.1979 -7533.6082 297.2934 452.9913 541.4456 30779.3540 437.8813 519.9503
ENERGY: 900000 1.6146 4.8042 1.7366 0.0000 -10807.3930 1399.8694 0.0000 0.0000 1807.9423 -7591.4259 304.9432 -9399.3682 -7544.4169 299.4446 -869.1816 -781.8908 31107.8236 219.7304 303.6673
ENERGY: 1200000 1.5810 1.9155 3.6518 0.0000 -10941.7996 1545.1473 0.0000 0.0000 1745.4640 -7644.0400 294.4050 -9389.5040 -7548.9556 298.9185 779.3795 837.9025 30341.4902 208.4493 283.1698
ENERGY: 1500000 1.7803 2.5503 2.4233 0.0000 -10729.2200 1399.1177 0.0000 0.0000 1754.3870 -7568.9613 295.9101 -9323.3483 -7547.1755 299.1565 -497.3814 -438.6981 30776.1190 97.5638 170.0238
TCL: Running FEP window  16: Lambda1 0.24999999999999967 Lambda2 0.19999999999999968 [dLambda -0.04999999999999999]
TCL: Setting parameter firsttimestep to 0
TCL: Setting parameter alchLambda to 0.24999999999999967
Info: NONBONDED TABLE R-SQUARED SPACING: 0.0625
Info: NONBONDED TABLE SIZE: 705 POINTS
TCL: Setting parameter alchLambda2 to 0.19999999999999968
Info: NONBONDED TABLE R-SQUARED SPACING: 0.0625
Info: NONBONDED TABLE SIZE: 705 POINTS
TCL: Running for 1500000 steps
ETITLE: TS BOND ANGLE DIHED IMPRP ELECT VDW BOUNDARY MISC KINETIC TOTAL TEMP POTENTIAL TOTALAVG TEMPAVG PRESSURE GPRESSURE VOLUME PRESSAVG GPRESSAVG
ENERGY: 0 1.7803 2.5503 2.4233 0.0000 -10729.2172 1399.7831 0.0000 0.0000 1753.5051 -7569.1751 295.7613 -9322.6802 -7569.1751 295.7613 -536.3347 -439.4055 30776.1190 -536.3347 -439.4055
ENERGY: 300000 3.5960 1.8772 3.3479 0.0000 -10656.9260 1347.4852 0.0000 0.0000 1749.3061 -7551.3135 295.0531 -9300.6196 -7593.9346 294.4736 -751.2915 -683.2232 30595.8544 -643.4500 -578.8831
ENERGY: 600000 3.3051 3.0904 1.3967 0.0000 -10771.5488 1432.8943 0.0000 0.0000 1786.0673 -7544.7949 301.2535 -9330.8622 -7558.7398 297.8677 -307.4904 -242.2277 30628.0989 -422.9717 -350.3524
ENERGY: 900000 1.9487 3.4513 2.3878 0.0000 -10715.5629 1383.6228 0.0000 0.0000 1758.7108 -7565.4416 296.6394 -9324.1524 -7570.6893 298.0887 -486.3982 -490.8144 30662.2613 -441.1979 -379.8830
ENERGY: 1200000 0.9865 3.0242 2.9595 0.0000 -10722.5912 1403.8896 0.0000 0.0000 1778.6180 -7533.1135 299.9971 -9311.7314 -7560.0796 298.7537 -463.9124 -393.2404 30633.9936 -435.2828 -368.7846
ENERGY: 1500000 5.1713 2.1855 1.9882 0.0000 -10771.9964 1475.1014 0.0000 0.0000 1811.0282 -7476.5219 305.4637 -9287.5501 -7543.2756 299.5125 -49.5940 9.4126 31268.1642 -409.7591 -341.2732
TCL: Running FEP window  17: Lambda1 0.19999999999999968 Lambda2 0.1499999999999997 [dLambda -0.04999999999999999]
TCL: Setting parameter firsttimestep to 0
TCL: Setting parameter alchLambda to 0.19999999999999968
Info: NONBONDED TABLE R-SQUARED SPACING: 0.0625
Info: NONBONDED TABLE SIZE: 705 POINTS
TCL: Setting parameter alchLambda2 to 0.1499999999999997
Info: NONBONDED TABLE R-SQUARED SPACING: 0.0625
Info: NONBONDED TABLE SIZE: 705 POINTS
TCL: Running for 1500000 steps
ETITLE: TS BOND ANGLE DIHED IMPRP ELECT VDW BOUNDARY MISC KINETIC TOTAL TEMP POTENTIAL TOTALAVG TEMPAVG PRESSURE GPRESSURE VOLUME PRESSAVG GPRESSAVG
ENERGY: 0 5.1713 2.1855 1.9882 0.0000 -10771.9964 1474.7623 0.0000 0.0000 1810.1478 -7477.7413 305.3152 -9287.8891 -7477.7413 305.3152 -82.2836 1.2888 31268.1642 -82.2836 1.2888
ENERGY: 300000 2.9483 1.7924 4.0812 0.0000 -10800.3898 1481.4789 0.0000 0.0000 1757.1419 -7552.9472 296.3747 -9310.0891 -7539.7767 300.2935 315.5843 372.0793 30532.6124 -264.0450 -194.9006
ENERGY: 600000 2.6602 4.7428 3.1548 0.0000 -10731.6319 1362.7255 0.0000 0.0000 1751.8055 -7606.5432 295.4747 -9358.3487 -7553.7045 300.5763 -706.7498 -555.1659 30151.8381 -199.6461 -130.4340
ENERGY: 900000 3.0569 2.1989 5.9531 0.0000 -10862.1553 1512.0250 0.0000 0.0000 1835.1932 -7503.7283 309.5395 -9338.9215 -7563.2439 300.4922 384.4156 477.1454 30614.2417 -58.8820 12.4272
ENERGY: 1200000 2.9963 3.3450 3.6071 0.0000 -10759.4693 1446.9035 0.0000 0.0000 1746.7341 -7555.8833 294.6193 -9302.6174 -7559.8092 300.4902 -444.4460 -391.8952 31316.9873 -31.8663 34.9737
ENERGY: 1500000 1.2807 2.7571 4.5777 0.0000 -10963.7618 1485.0572 0.0000 0.0000 1758.7565 -7711.3327 296.6471 -9470.0892 -7569.9419 299.9926 137.9574 234.2375 30126.3736 -20.3525 46.3171
TCL: Running FEP window  18: Lambda1 0.1499999999999997 Lambda2 0.09999999999999969 [dLambda -0.05 ]
TCL: Setting parameter firsttimestep to 0
TCL: Setting parameter alchLambda to 0.1499999999999997
Info: NONBONDED TABLE R-SQUARED SPACING: 0.0625
Info: NONBONDED TABLE SIZE: 705 POINTS
TCL: Setting parameter alchLambda2 to 0.09999999999999969
Info: NONBONDED TABLE R-SQUARED SPACING: 0.0625
Info: NONBONDED TABLE SIZE: 705 POINTS
TCL: Running for 1500000 steps
ETITLE: TS BOND ANGLE DIHED IMPRP ELECT VDW BOUNDARY MISC KINETIC TOTAL TEMP POTENTIAL TOTALAVG TEMPAVG PRESSURE GPRESSURE VOLUME PRESSAVG GPRESSAVG
ENERGY: 0 1.2807 2.7571 4.5777 0.0000 -10963.7607 1484.8055 0.0000 0.0000 1757.9021 -7712.4376 296.5030 -9470.3397 -7712.4376 296.5030 141.1582 227.6858 30126.3736 141.1582 227.6858
ENERGY: 300000 3.7398 0.7726 1.2919 0.0000 -10880.8177 1428.7047 0.0000 0.0000 1755.5898 -7690.7190 296.1129 -9446.3088 -7616.7869 296.5089 -742.4378 -638.0594 31001.1439 -8.5777 81.1422
ENERGY: 600000 3.7783 2.3857 5.8725 0.0000 -10796.5625 1474.6688 0.0000 0.0000 1801.1305 -7508.7268 303.7942 -9309.8573 -7588.2133 300.0256 288.2368 318.0069 30535.6231 114.3788 195.1546
ENERGY: 900000 3.6203 1.9585 1.4461 0.0000 -10734.5973 1394.5414 0.0000 0.0000 1800.2528 -7532.7782 303.6462 -9333.0310 -7577.9774 300.4321 -390.2450 -321.1519 30266.6573 123.6532 194.5555
ENERGY: 1200000 5.6551 2.7964 3.5165 0.0000 -10731.6242 1363.1872 0.0000 0.0000 1771.3608 -7585.1082 298.7730 -9356.4690 -7574.4352 299.7808 -770.8503 -693.8855 30548.6045 112.6920 181.3392
ENERGY: 1500000 1.3717 1.6784 3.0964 0.0000 -10773.5557 1399.4962 0.0000 0.0000 1790.5139 -7577.3991 302.0036 -9367.9130 -7574.3963 300.1222 -185.4584 -105.5536 30192.3606 115.5476 180.7983
TCL: Running FEP window  19: Lambda1 0.09999999999999969 Lambda2 0.049999999999999684 [dLambda -0.05 ]
TCL: Setting parameter firsttimestep to 0
TCL: Setting parameter alchLambda to 0.09999999999999969
Info: NONBONDED TABLE R-SQUARED SPACING: 0.0625
Info: NONBONDED TABLE SIZE: 705 POINTS
TCL: Setting parameter alchLambda2 to 0.049999999999999684
Info: NONBONDED TABLE R-SQUARED SPACING: 0.0625
Info: NONBONDED TABLE SIZE: 705 POINTS
TCL: Running for 1500000 steps
ETITLE: TS BOND ANGLE DIHED IMPRP ELECT VDW BOUNDARY MISC KINETIC TOTAL TEMP POTENTIAL TOTALAVG TEMPAVG PRESSURE GPRESSURE VOLUME PRESSAVG GPRESSAVG
ENERGY: 0 1.3717 1.6784 3.0964 0.0000 -10773.5549 1399.2113 0.0000 0.0000 1789.6191 -7578.5781 301.8526 -9368.1971 -7578.5781 301.8526 -200.9573 -111.3020 30192.3606 -200.9573 -111.3020
ENERGY: 300000 1.6516 3.1502 3.6601 0.0000 -10701.7374 1433.4430 0.0000 0.0000 1820.4760 -7439.3565 307.0572 -9259.8326 -7523.8590 304.4028 134.3932 159.2298 30447.6517 117.3690 204.6070
ENERGY: 600000 0.8534 2.7067 1.9766 0.0000 -10837.4188 1542.2449 0.0000 0.0000 1743.2612 -7546.3760 294.0335 -9289.6371 -7534.1443 302.5977 782.2469 833.1240 30420.4879 268.0087 341.9326
ENERGY: 900000 2.6447 3.5964 3.1614 0.0000 -10793.1768 1500.5620 0.0000 0.0000 1742.7060 -7540.5063 293.9399 -9283.2123 -7549.3753 301.0626 450.7945 485.7615 30643.9356 312.0701 376.1717
ENERGY: 1200000 3.0345 5.5510 3.2678 0.0000 -10721.4456 1402.4201 0.0000 0.0000 1740.5331 -7566.6390 293.5734 -9307.1722 -7554.4524 300.1589 -530.3934 -497.6245 30950.5446 188.1255 245.7931
ENERGY: 1500000 1.2024 3.7350 3.2185 0.0000 -10804.2260 1508.6838 0.0000 0.0000 1786.9254 -7500.4609 301.3983 -9287.3863 -7551.3617 300.2377 510.9191 534.8701 30948.7382 207.8225 263.7658
TCL: Running FEP window  20: Lambda1 0.049999999999999684 Lambda2 0.0    [dLambda -0.049999999999999684]
TCL: Setting parameter firsttimestep to 0
TCL: Setting parameter alchLambda to 0.049999999999999684
Info: NONBONDED TABLE R-SQUARED SPACING: 0.0625
Info: NONBONDED TABLE SIZE: 705 POINTS
TCL: Setting parameter alchLambda2 to 0.0
Info: NONBONDED TABLE R-SQUARED SPACING: 0.0625
Info: NONBONDED TABLE SIZE: 705 POINTS
TCL: Running for 1500000 steps
ETITLE: TS BOND ANGLE DIHED IMPRP ELECT VDW BOUNDARY MISC KINETIC TOTAL TEMP POTENTIAL TOTALAVG TEMPAVG PRESSURE GPRESSURE VOLUME PRESSAVG GPRESSAVG
ENERGY: 0 1.2024 3.7350 3.2185 0.0000 -10804.2271 1508.3126 0.0000 0.0000 1786.0505 -7501.7081 301.2507 -9287.7586 -7501.7081 301.2507 451.3997 530.1202 30948.7382 451.3997 530.1202
ENERGY: 300000 3.4424 4.2361 2.3010 0.0000 -10987.5458 1542.5740 0.0000 0.0000 1773.1379 -7661.8543 299.0728 -9434.9923 -7565.3981 301.6894 268.6086 288.1470 30740.7501 354.4134 384.0809
ENERGY: 600000 2.4529 3.7981 1.4041 0.0000 -10874.4446 1573.4346 0.0000 0.0000 1761.8464 -7531.5085 297.1682 -9293.3549 -7560.3098 300.0762 855.7406 886.1916 30672.3788 305.4038 348.4185
ENERGY: 900000 6.2758 1.7765 3.1029 0.0000 -10718.3699 1426.5317 0.0000 0.0000 1685.7757 -7594.9074 284.3375 -9280.6831 -7568.0677 298.1434 -360.8898 -310.4462 30792.0763 140.6839 192.7211
ENERGY: 1200000 2.3407 3.1296 3.0525 0.0000 -10739.7868 1431.3782 0.0000 0.0000 1808.6851 -7491.2007 305.0685 -9299.8858 -7558.4133 298.8453 -314.3417 -238.6816 30876.8826 89.1842 145.2407
ENERGY: 1500000 1.6345 1.4483 2.4014 0.0000 -10901.0203 1552.2498 0.0000 0.0000 1826.3306 -7516.9555 308.0447 -9343.2862 -7559.5732 299.6246 644.3684 731.6933 30755.6411 67.8015 129.6950
TCL: Exiting due to exit command.
