Info: SIMULATION PARAMETERS:
Info: TIMESTEP               2
Info: NUMBER OF STEPS        0
Info: STEPS PER CYCLE        10
Info: PERIODIC CELL BASIS 1  31.692 0 0
Info: PERIODIC CELL BASIS 2  0 30.0152 0
Info: PERIODIC CELL BASIS 3  0 0 32.1171
Info: PERIODIC CELL CENTER   0 0 0
Info: WRAPPING WATERS AROUND PERIODIC BOUNDARIES ON OUTPUT.
Info: WRAPPING ALL CLUSTERS AROUND PERIODIC BOUNDARIES ON OUTPUT.
Info: FIRST LDB TIMESTEP     50
Info: LAST LDB TIMESTEP     -1
Info: HOM BACKGROUND SCALING 1
Info: PME BACKGROUND SCALING 1
Info: MIN ATOMS PER PATCH    40
Info: EMPTY PATCH LOAD       40 ATOMS
Info: VELOCITY FILE          mobley_4395315_equil.vel
Info: CENTER OF MASS MOVING INITIALLY? NO
Info: DIELECTRIC             1
Info: EXCLUDE                SCALED ONE-FOUR
Info: 1-4 ELECTROSTATICS SCALED BY 0.833333
Info: MODIFIED 1-4 VDW PARAMETERS WILL BE USED
Info: DCD FILENAME           mobley_4395315_prod.dcd
Info: DCD FREQUENCY          100000
Info: DCD FIRST STEP         100000
Info: DCD FILE WILL CONTAIN UNIT CELL DATA
Info: XST FILENAME           mobley_4395315_prod.xst
Info: XST FREQUENCY          100000
Info: NO VELOCITY DCD OUTPUT
Info: NO FORCE DCD OUTPUT
Info: OUTPUT FILENAME        mobley_4395315_prod
Info: BINARY OUTPUT FILES WILL BE USED
Info: RESTART FILENAME       mobley_4395315_prod.restart
Info: RESTART FREQUENCY      100000
Info: BINARY RESTART FILES WILL BE USED
Info: CUTOFF                 9
Info: PAIRLIST DISTANCE      11
Info: PAIRLIST SHRINK RATE   0.01
Info: PAIRLIST GROW RATE     0.01
Info: PAIRLIST TRIGGER       0.3
Info: PAIRLISTS PER CYCLE    2
Info: PAIRLISTS ENABLED
Info: MARGIN                 2
Info: HYDROGEN GROUP CUTOFF  2.5
Info: PATCH DIMENSION        15.5
Info: ENERGY OUTPUT STEPS    100000
Info: ENERGY EVALUATION STEPS    100000
Info: OUTPUT ENERGY PRECISION 4
Info: CROSSTERM ENERGY INCLUDED IN DIHEDRAL
Info: TIMING OUTPUT STEPS    1000000
Info: PRESSURE OUTPUT STEPS  100000
Info: ALCHEMICAL FEP ON
Info: FEP CURRENT LAMBDA VALUE     1
Info: FEP COMPARISON LAMBDA VALUE  0.95
Info: FEP INTRA-ALCHEMICAL NON-BONDED INTERACTIONS WILL BE RETAINED
Info: FEP INTRA-ALCHEMICAL BONDED INTERACTIONS WILL BE RETAINED
Info: FEP VDW SHIFTING COEFFICIENT 5
Info: FEP ELEC. ACTIVE FOR ANNIHILATED PARTICLES BETWEEN LAMBDA = 0 AND LAMBDA = 0.5
Info: FEP ELEC. ACTIVE FOR EXNIHILATED PARTICLES BETWEEN LAMBDA = 0.5 AND LAMBDA = 1
Info: FEP VDW ACTIVE FOR ANNIHILATED PARTICLES BETWEEN LAMBDA = 0 AND LAMBDA = 1
Info: FEP VDW ACTIVE FOR EXNIHILATED PARTICLES BETWEEN LAMBDA = 0 AND LAMBDA = 1
Info: FEP BOND ACTIVE FOR ANNIHILATED PARTICLES BETWEEN LAMBDA = 1 AND LAMBDA = 1
Info: FEP BOND ACTIVE FOR EXNIHILATED PARTICLES BETWEEN LAMBDA = 0 AND LAMBDA = 0
Info: LANGEVIN DYNAMICS ACTIVE
Info: LANGEVIN TEMPERATURE   300
Info: LANGEVIN USING BBK INTEGRATOR
Info: LANGEVIN DAMPING COEFFICIENT IS 1 INVERSE PS
Info: LANGEVIN DYNAMICS APPLIED TO HYDROGENS
Info: LANGEVIN PISTON PRESSURE CONTROL ACTIVE
Info:        TARGET PRESSURE IS 1.01325 BAR
Info:     OSCILLATION PERIOD IS 50 FS
Info:             DECAY TIME IS 25 FS
Info:     PISTON TEMPERATURE IS 300 K
Info:       PRESSURE CONTROL IS GROUP-BASED
Info:    INITIAL STRAIN RATE IS 0.000548822 0.000548822 0.000548822
Info:       CELL FLUCTUATION IS ISOTROPIC
Info: PARTICLE MESH EWALD (PME) ACTIVE
Info: PME TOLERANCE               1e-06
Info: PME EWALD COEFFICIENT       0.348832
Info: PME INTERPOLATION ORDER     4
Info: PME GRID DIMENSIONS         32 32 36
Info: PME MAXIMUM GRID SPACING    1
Info: PME CALCULATION WILL BE PERFORMED ON GPU
Info: FULL ELECTROSTATIC EVALUATION FREQUENCY      2
Info: USING VERLET I (r-RESPA) MTS SCHEME.
Info: C1 SPLITTING OF LONG RANGE ELECTROSTATICS
Info: PLACING ATOMS IN PATCHES BY HYDROGEN GROUPS
Info: RIGID BONDS TO HYDROGEN : ALL
Info:         ERROR TOLERANCE : 1e-08
Info:          MAX ITERATIONS : 100
Info: RIGID WATER USING SETTLE ALGORITHM
Info: RANDOM NUMBER SEED     1743598189
Info: USE HYDROGEN BONDS?    NO
Info: Using AMBER format force field!
Info: AMBER PARM FILE        mobley_4395315.prmtop
Info: COORDINATE PDB         mobley_4395315.pdb
Info: Exclusions will be read from PARM file!
Info: SCNB (VDW SCALING)     2
Info: USING ARITHMETIC MEAN TO COMBINE L-J SIGMA PARAMETERS
Info: BINARY COORDINATES     mobley_4395315_equil.coor
Info: SUMMARY OF PARAMETERS:
Info: 9 BONDS
Info: 8 ANGLES
Info:   8 HARMONIC
Info:   0 COSINE-BASED
Info: 4 DIHEDRAL
Info: 0 IMPROPER
Info: 0 CROSSTERM
Info: 0 VDW
Info: 36 VDW_PAIRS
Info: 0 NBTHOLE_PAIRS
Info: To read alchdata from file: mobley_4395315.pdb
Info: To read alchflag data from column: 5
Info: STRUCTURE SUMMARY:
Info: 2983 ATOMS
Info: 2983 BONDS
Info: 25 ANGLES
Info: 38 DIHEDRALS
Info: 0 IMPROPERS
Info: 0 CROSSTERMS
Info: 3037 EXCLUSIONS
Info: 2974 RIGID BONDS
Info: ALCH: 0 ATOMS TO DISAPPEAR IN FINAL STATE
Info: ALCH: 16 ATOMS TO APPEAR IN FINAL STATE
Info: 5975 DEGREES OF FREEDOM
Info: 998 HYDROGEN GROUPS
Info: 4 ATOMS IN LARGEST HYDROGEN GROUP
Info: 998 MIGRATION GROUPS
Info: 4 ATOMS IN LARGEST MIGRATION GROUP
Info: TOTAL MASS = 17960.4 amu
Info: TOTAL CHARGE = -7.45058e-09 e
Info: MASS DENSITY = 0.976222 g/cm^3
Info: ATOM DENSITY = 0.0976397 atoms/A^3
Info: ADDED 0 IMPLICIT EXCLUSIONS
Info: NONBONDED TABLE R-SQUARED SPACING: 0.0625
Info: NONBONDED TABLE SIZE: 705 POINTS
Info: REMOVING COM VELOCITY 0.0316783 -0.0281627 0.0768132
Info: Use 3D box decompostion in PME FFT.
Info: Updated CUDA force table with 4096 elements.
Info: Updated CUDA LJ table with 8 x 8 elements.
Info: Found 18 unique exclusion lists needing 44 bytes
TCL: Running for 1500000 steps
ETITLE: TS BOND ANGLE DIHED IMPRP ELECT VDW BOUNDARY MISC KINETIC TOTAL TEMP POTENTIAL TOTALAVG TEMPAVG PRESSURE GPRESSURE VOLUME PRESSAVG GPRESSAVG
ENERGY: 0 1.9072 4.4920 3.6762 0.0000 -10791.5717 1370.2450 0.0000 0.0000 1771.6640 -7639.5872 298.4241 -9411.2512 -7639.5872 298.4241 -753.6199 -658.5530 30551.0964 -753.6199 -658.5530
ENERGY: 300000 2.6454 6.6537 1.2715 0.0000 -10853.4673 1487.0617 0.0000 0.0000 1739.0975 -7616.7374 292.9385 -9355.8349 -7591.0958 300.2507 527.9605 535.0252 30369.7800 -39.5808 9.2028
ENERGY: 600000 1.5740 2.7087 2.6201 0.0000 -11086.7519 1647.6703 0.0000 0.0000 1796.5947 -7635.5842 302.6235 -9432.1788 -7612.2985 300.9855 1727.5665 1787.3458 30263.1093 118.4175 159.8321
ENERGY: 900000 3.7090 7.5439 1.9830 0.0000 -10957.6870 1582.2686 0.0000 0.0000 1785.6915 -7576.4910 300.7869 -9362.1825 -7595.5809 300.6338 1208.4721 1201.7565 30425.9369 209.2143 261.1537
ENERGY: 1200000 0.8685 2.8176 4.9733 0.0000 -10793.5476 1433.5016 0.0000 0.0000 1794.6492 -7556.7375 302.2958 -9351.3867 -7584.3786 301.1579 90.3618 112.9360 30674.2561 111.2142 157.6704
ENERGY: 1500000 1.9855 5.2868 2.0197 0.0000 -10800.0901 1430.8786 0.0000 0.0000 1792.3634 -7567.5561 301.9107 -9359.9195 -7575.2009 302.3337 -163.4369 -73.3340 30699.5320 85.1430 136.7067
TCL: Running FEP window   2: Lambda1 0.95   Lambda2 0.8999999999999999 [dLambda -0.050000000000000044]
TCL: Setting parameter firsttimestep to 0
TCL: Setting parameter alchLambda to 0.95
Info: NONBONDED TABLE R-SQUARED SPACING: 0.0625
Info: NONBONDED TABLE SIZE: 705 POINTS
TCL: Setting parameter alchLambda2 to 0.8999999999999999
Info: NONBONDED TABLE R-SQUARED SPACING: 0.0625
Info: NONBONDED TABLE SIZE: 705 POINTS
TCL: Running for 1500000 steps
ETITLE: TS BOND ANGLE DIHED IMPRP ELECT VDW BOUNDARY MISC KINETIC TOTAL TEMP POTENTIAL TOTALAVG TEMPAVG PRESSURE GPRESSURE VOLUME PRESSAVG GPRESSAVG
ENERGY: 0 1.9855 5.2868 2.0197 0.0000 -10798.9528 1430.6267 0.0000 0.0000 1791.4657 -7567.5685 301.7595 -9359.0341 -7567.5685 301.7595 -164.0468 -86.5522 30699.5320 -164.0468 -86.5522
ENERGY: 300000 4.6797 5.3077 7.0443 0.0000 -10647.0680 1364.3747 0.0000 0.0000 1747.9594 -7517.7021 294.4312 -9265.6615 -7542.7784 300.0342 -691.9523 -617.3132 31093.0925 -225.0649 -164.3092
ENERGY: 600000 2.2804 3.8134 5.8096 0.0000 -10786.2123 1433.2634 0.0000 0.0000 1805.4274 -7535.6182 304.1113 -9341.0456 -7558.7378 299.4754 -113.1631 -77.4226 30969.3492 -276.3266 -205.9694
ENERGY: 900000 2.1633 4.0345 1.2806 0.0000 -10718.6004 1423.1788 0.0000 0.0000 1746.4482 -7541.4950 294.1766 -9287.9431 -7561.3248 299.0542 -338.9490 -278.3095 31348.0231 -240.1143 -174.8637
ENERGY: 1200000 3.3811 4.3103 3.0783 0.0000 -10930.7740 1456.4151 0.0000 0.0000 1795.8920 -7667.6972 302.5051 -9463.5893 -7572.3227 298.5724 42.8207 107.5136 30248.8096 -161.5007 -89.8866
ENERGY: 1500000 3.7959 3.9555 3.6033 0.0000 -10705.2589 1396.7740 0.0000 0.0000 1812.9874 -7484.1426 305.3847 -9297.1301 -7559.4789 299.9685 148.6223 187.9342 30468.4763 -93.4548 -31.5037
TCL: Running FEP window   3: Lambda1 0.8999999999999999 Lambda2 0.8499999999999999 [dLambda -0.050000000000000044]
TCL: Setting parameter firsttimestep to 0
TCL: Setting parameter alchLambda to 0.8999999999999999
Info: NONBONDED TABLE R-SQUARED SPACING: 0.0625
Info: NONBONDED TABLE SIZE: 705 POINTS
TCL: Setting parameter alchLambda2 to 0.8499999999999999
Info: NONBONDED TABLE R-SQUARED SPACING: 0.0625
Info: NONBONDED TABLE SIZE: 705 POINTS
TCL: Running for 1500000 steps
ETITLE: TS BOND ANGLE DIHED IMPRP ELECT VDW BOUNDARY MISC KINETIC TOTAL TEMP POTENTIAL TOTALAVG TEMPAVG PRESSURE GPRESSURE VOLUME PRESSAVG GPRESSAVG
ENERGY: 0 3.7959 3.9555 3.6033 0.0000 -10704.7376 1397.4285 0.0000 0.0000 1812.0798 -7483.8745 305.2318 -9295.9544 -7483.8745 305.2318 106.1563 187.6931 30468.4763 106.1563 187.6931
ENERGY: 300000 1.9004 4.5926 2.0241 0.0000 -10971.7509 1532.5404 0.0000 0.0000 1737.2458 -7693.4475 292.6266 -9430.6933 -7600.3552 297.9597 387.3080 482.7596 30562.5422 157.0344 244.7935
ENERGY: 600000 2.9510 2.8270 4.9658 0.0000 -10997.0110 1549.4438 0.0000 0.0000 1763.9054 -7672.9180 297.1172 -9436.8233 -7606.0962 299.2359 585.0244 676.7700 30400.0559 149.6802 231.0387
ENERGY: 900000 1.9761 2.9097 2.7161 0.0000 -10680.2443 1417.8169 0.0000 0.0000 1827.0450 -7427.7805 307.7526 -9254.8255 -7565.9257 300.6557 21.8388 116.2042 30896.7908 94.9435 178.3390
ENERGY: 1200000 2.3288 4.0931 0.4152 0.0000 -10837.1405 1467.8388 0.0000 0.0000 1772.1436 -7590.3210 298.5048 -9362.4646 -7561.0543 301.2323 86.1054 151.3231 30703.8352 60.5372 141.2940
ENERGY: 1500000 3.0184 4.0428 3.3907 0.0000 -10941.6553 1528.6585 0.0000 0.0000 1805.8100 -7596.7350 304.1757 -9402.5450 -7560.5060 301.2798 448.5642 531.5904 30414.5343 95.9621 174.5777
TCL: Running FEP window   4: Lambda1 0.8499999999999999 Lambda2 0.7999999999999998 [dLambda -0.050000000000000044]
TCL: Setting parameter firsttimestep to 0
TCL: Setting parameter alchLambda to 0.8499999999999999
Info: NONBONDED TABLE R-SQUARED SPACING: 0.0625
Info: NONBONDED TABLE SIZE: 705 POINTS
TCL: Setting parameter alchLambda2 to 0.7999999999999998
Info: NONBONDED TABLE R-SQUARED SPACING: 0.0625
Info: NONBONDED TABLE SIZE: 705 POINTS
TCL: Running for 1500000 steps
ETITLE: TS BOND ANGLE DIHED IMPRP ELECT VDW BOUNDARY MISC KINETIC TOTAL TEMP POTENTIAL TOTALAVG TEMPAVG PRESSURE GPRESSURE VOLUME PRESSAVG GPRESSAVG
ENERGY: 0 3.0184 4.0428 3.3907 0.0000 -10940.7035 1528.7809 0.0000 0.0000 1804.8801 -7596.5907 304.0191 -9401.4708 -7596.5907 304.0191 436.6540 525.3924 30414.5343 436.6540 525.3924
ENERGY: 300000 2.6742 4.4571 1.3240 0.0000 -10913.0876 1438.3941 0.0000 0.0000 1762.3598 -7703.8783 296.8568 -9466.2381 -7598.2367 301.9686 60.8619 126.3542 30122.6740 364.6840 437.6574
ENERGY: 600000 1.9655 6.0239 3.9350 0.0000 -10820.8671 1438.9252 0.0000 0.0000 1781.1508 -7588.8667 300.0220 -9370.0175 -7567.1341 303.4096 -420.9599 -284.6656 30976.4027 232.0509 316.7638
ENERGY: 900000 3.1719 5.1194 2.5962 0.0000 -10818.0248 1436.6384 0.0000 0.0000 1802.2032 -7568.2957 303.5682 -9370.4989 -7568.5067 303.1615 -336.5398 -231.7631 31126.2860 191.7754 265.5151
ENERGY: 1200000 2.2802 4.0099 2.1056 0.0000 -10834.5145 1471.0216 0.0000 0.0000 1779.7731 -7575.3241 299.7900 -9355.0972 -7567.6172 303.4137 155.5246 150.6414 30865.0488 158.6244 217.0284
ENERGY: 1500000 5.0902 2.3225 1.8793 0.0000 -10819.6555 1488.1451 0.0000 0.0000 1773.8785 -7548.3397 298.7971 -9322.2182 -7564.3189 303.0114 503.7896 531.4041 30480.0657 90.5607 151.1328
TCL: Running FEP window   5: Lambda1 0.7999999999999998 Lambda2 0.7499999999999998 [dLambda -0.050000000000000044]
TCL: Setting parameter firsttimestep to 0
TCL: Setting parameter alchLambda to 0.7999999999999998
Info: NONBONDED TABLE R-SQUARED SPACING: 0.0625
Info: NONBONDED TABLE SIZE: 705 POINTS
TCL: Setting parameter alchLambda2 to 0.7499999999999998
Info: NONBONDED TABLE R-SQUARED SPACING: 0.0625
Info: NONBONDED TABLE SIZE: 705 POINTS
TCL: Running for 1500000 steps
ETITLE: TS BOND ANGLE DIHED IMPRP ELECT VDW BOUNDARY MISC KINETIC TOTAL TEMP POTENTIAL TOTALAVG TEMPAVG PRESSURE GPRESSURE VOLUME PRESSAVG GPRESSAVG
ENERGY: 0 5.0902 2.3225 1.8793 0.0000 -10818.4333 1488.0855 0.0000 0.0000 1772.9530 -7548.1027 298.6412 -9321.0556 -7548.1027 298.6412 438.9441 524.1496 30480.0657 438.9441 524.1496
ENERGY: 300000 3.7407 5.5592 3.4289 0.0000 -10717.5606 1381.8905 0.0000 0.0000 1758.3839 -7564.5574 296.1871 -9322.9413 -7586.2519 295.1449 -658.1333 -617.2342 30877.8745 -248.0550 -158.8466
ENERGY: 600000 1.1621 3.3413 4.3927 0.0000 -10907.0541 1524.9225 0.0000 0.0000 1797.4081 -7575.8274 302.7605 -9373.2356 -7582.2710 298.2285 694.7608 707.4785 30833.8040 -128.8323 -55.5430
ENERGY: 900000 0.8074 5.2375 2.3392 0.0000 -10902.7335 1484.5576 0.0000 0.0000 1769.4734 -7640.3183 298.0551 -9409.7917 -7577.7638 299.0240 50.1441 141.8630 30589.5841 42.1918 117.5911
ENERGY: 1200000 1.5023 3.6747 2.9380 0.0000 -10687.5061 1370.4783 0.0000 0.0000 1789.7828 -7519.1300 301.4760 -9308.9128 -7573.4417 300.0736 -436.8089 -424.3256 30769.0835 81.8263 150.4714
ENERGY: 1500000 1.4844 4.6229 2.9141 0.0000 -10716.7922 1385.2556 0.0000 0.0000 1737.7117 -7584.8036 292.7050 -9322.5153 -7570.3599 301.0902 -263.3899 -204.6749 30679.4321 68.3882 138.5001
TCL: Running FEP window   6: Lambda1 0.7499999999999998 Lambda2 0.6999999999999997 [dLambda -0.050000000000000044]
TCL: Setting parameter firsttimestep to 0
TCL: Setting parameter alchLambda to 0.7499999999999998
Info: NONBONDED TABLE R-SQUARED SPACING: 0.0625
Info: NONBONDED TABLE SIZE: 705 POINTS
TCL: Setting parameter alchLambda2 to 0.6999999999999997
Info: NONBONDED TABLE R-SQUARED SPACING: 0.0625
Info: NONBONDED TABLE SIZE: 705 POINTS
TCL: Running for 1500000 steps
ETITLE: TS BOND ANGLE DIHED IMPRP ELECT VDW BOUNDARY MISC KINETIC TOTAL TEMP POTENTIAL TOTALAVG TEMPAVG PRESSURE GPRESSURE VOLUME PRESSAVG GPRESSAVG
ENERGY: 0 1.4844 4.6229 2.9141 0.0000 -10715.5274 1384.5565 0.0000 0.0000 1736.8247 -7585.1248 292.5556 -9321.9495 -7585.1248 292.5556 -298.7751 -221.5209 30679.4321 -298.7751 -221.5209
ENERGY: 300000 2.0085 2.9539 4.1703 0.0000 -10810.3104 1397.9134 0.0000 0.0000 1738.2549 -7665.0094 292.7965 -9403.2644 -7624.0322 294.5855 -496.3705 -445.5275 30624.6012 -359.1880 -293.2535
ENERGY: 600000 2.1392 2.1916 2.6063 0.0000 -10872.0251 1519.0631 0.0000 0.0000 1818.7891 -7527.2358 306.3619 -9346.0249 -7599.0701 295.5004 550.9529 555.3243 31133.9103 -76.6291 -30.1904
ENERGY: 900000 3.5552 7.9036 6.4920 0.0000 -10734.6109 1407.9716 0.0000 0.0000 1773.3608 -7535.3275 298.7099 -9308.6884 -7587.9379 297.9421 28.6194 112.1148 30251.7612 -36.4225 12.8029
ENERGY: 1200000 1.4073 3.9049 2.1771 0.0000 -10799.8845 1435.9147 0.0000 0.0000 1806.5353 -7549.9452 304.2979 -9356.4805 -7570.7454 299.6412 40.0246 97.5005 30526.1749 -71.8708 -30.4909
ENERGY: 1500000 1.5113 3.2672 2.1005 0.0000 -10772.0196 1433.7783 0.0000 0.0000 1801.0854 -7530.2768 303.3799 -9331.3623 -7570.0916 300.1272 63.1611 91.6539 30940.7740 -1.2499 46.7229
TCL: Running FEP window   7: Lambda1 0.6999999999999997 Lambda2 0.6499999999999997 [dLambda -0.050000000000000044]
TCL: Setting parameter firsttimestep to 0
TCL: Setting parameter alchLambda to 0.6999999999999997
Info: NONBONDED TABLE R-SQUARED SPACING: 0.0625
Info: NONBONDED TABLE SIZE: 705 POINTS
TCL: Setting parameter alchLambda2 to 0.6499999999999997
Info: NONBONDED TABLE R-SQUARED SPACING: 0.0625
Info: NONBONDED TABLE SIZE: 705 POINTS
TCL: Running for 1500000 steps
ETITLE: TS BOND ANGLE DIHED IMPRP ELECT VDW BOUNDARY MISC KINETIC TOTAL TEMP POTENTIAL TOTALAVG TEMPAVG PRESSURE GPRESSURE VOLUME PRESSAVG GPRESSAVG
ENERGY: 0 1.5113 3.2672 2.1005 0.0000 -10771.2706 1434.1954 0.0000 0.0000 1800.2022 -7529.9940 303.2311 -9330.1961 -7529.9940 303.2311 0.5319 89.3292 30940.7740 0.5319 89.3292
ENERGY: 300000 1.8059 5.1188 2.9925 0.0000 -10833.4100 1470.9231 0.0000 0.0000 1783.0595 -7569.5102 300.3435 -9352.5697 -7561.0635 303.4033 94.2986 169.2810 30665.5442 -242.1438 -177.5064
ENERGY: 600000 1.8718 1.7384 3.8728 0.0000 -10781.9747 1466.6018 0.0000 0.0000 1834.4671 -7473.4228 309.0028 -9307.8899 -7576.5349 300.4126 98.1173 138.4465 31044.2524 -361.6931 -293.7501
ENERGY: 900000 1.8770 2.8024 3.2694 0.0000 -10839.0433 1494.8338 0.0000 0.0000 1851.3316 -7484.9290 311.8435 -9336.2607 -7562.5333 302.2809 189.0705 235.4349 30726.2909 -343.0614 -269.8830
ENERGY: 1200000 2.0662 7.9073 3.2493 0.0000 -10855.3631 1465.2529 0.0000 0.0000 1751.7243 -7625.1630 295.0654 -9376.8873 -7577.5791 301.5193 -214.0008 -123.1098 31035.6320 -296.7453 -226.5411
ENERGY: 1500000 1.6230 9.0543 2.9574 0.0000 -10848.9183 1461.8167 0.0000 0.0000 1744.6249 -7628.8420 293.8695 -9373.4668 -7575.5457 301.3444 92.3892 161.6470 30623.3859 -265.6754 -198.5797
TCL: Running FEP window   8: Lambda1 0.6499999999999997 Lambda2 0.5999999999999996 [dLambda -0.050000000000000044]
TCL: Setting parameter firsttimestep to 0
TCL: Setting parameter alchLambda to 0.6499999999999997
Info: NONBONDED TABLE R-SQUARED SPACING: 0.0625
Info: NONBONDED TABLE SIZE: 705 POINTS
TCL: Setting parameter alchLambda2 to 0.5999999999999996
Info: NONBONDED TABLE R-SQUARED SPACING: 0.0625
Info: NONBONDED TABLE SIZE: 705 POINTS
TCL: Running for 1500000 steps
ETITLE: TS BOND ANGLE DIHED IMPRP ELECT VDW BOUNDARY MISC KINETIC TOTAL TEMP POTENTIAL TOTALAVG TEMPAVG PRESSURE GPRESSURE VOLUME PRESSAVG GPRESSAVG
ENERGY: 0 1.6230 9.0543 2.9574 0.0000 -10846.8602 1460.9089 0.0000 0.0000 1743.7214 -7628.5952 293.7173 -9372.3166 -7628.5952 293.7173 63.7521 149.5766 30623.3859 63.7521 149.5766
ENERGY: 300000 2.8167 3.8997 2.3057 0.0000 -10784.2523 1452.4964 0.0000 0.0000 1719.4034 -7603.3303 289.6211 -9322.7338 -7595.2711 299.4491 -60.8841 -20.9560 30705.8051 -85.8648 -13.8742
ENERGY: 600000 1.8312 4.1037 3.2524 0.0000 -10757.9537 1467.8717 0.0000 0.0000 1798.1788 -7482.7159 302.8903 -9280.8947 -7582.5306 301.9322 425.0269 496.0774 30600.5549 34.6768 105.5994
ENERGY: 900000 3.9168 5.8692 0.9864 0.0000 -10915.4766 1531.1875 0.0000 0.0000 1723.7698 -7649.7469 290.3566 -9373.5167 -7597.8615 301.4676 374.0850 443.3909 30803.2900 85.4286 152.6934
ENERGY: 1200000 2.2494 5.6391 8.5941 0.0000 -10769.2820 1444.3372 0.0000 0.0000 1760.3649 -7548.0973 296.5208 -9308.4622 -7589.7207 301.7571 105.6972 169.2040 30734.6745 133.3678 191.7828
ENERGY: 1500000 3.5716 5.6189 3.2090 0.0000 -10908.9374 1504.7688 0.0000 0.0000 1747.2658 -7644.5034 294.3144 -9391.7692 -7589.0903 301.5282 600.9217 651.0208 30320.3651 128.2296 184.3280
TCL: Running FEP window   9: Lambda1 0.5999999999999996 Lambda2 0.5499999999999996 [dLambda -0.050000000000000044]
TCL: Setting parameter firsttimestep to 0
TCL: Setting parameter alchLambda to 0.5999999999999996
Info: NONBONDED TABLE R-SQUARED SPACING: 0.0625
Info: NONBONDED TABLE SIZE: 705 POINTS
TCL: Setting parameter alchLambda2 to 0.5499999999999996
Info: NONBONDED TABLE R-SQUARED SPACING: 0.0625
Info: NONBONDED TABLE SIZE: 705 POINTS
TCL: Running for 1500000 steps
ETITLE: TS BOND ANGLE DIHED IMPRP ELECT VDW BOUNDARY MISC KINETIC TOTAL TEMP POTENTIAL TOTALAVG TEMPAVG PRESSURE GPRESSURE VOLUME PRESSAVG GPRESSAVG
ENERGY: 0 3.5716 5.6189 3.2090 0.0000 -10907.4773 1503.9833 0.0000 0.0000 1746.3598 -7644.7347 294.1617 -9391.0945 -7644.7347 294.1617 539.2815 636.3075 30320.3651 539.2815 636.3075
ENERGY: 300000 0.9381 5.4576 4.5218 0.0000 -10846.1560 1495.4032 0.0000 0.0000 1798.3307 -7541.5046 302.9159 -9339.8354 -7571.4944 301.5840 311.7563 399.0782 30852.3402 341.6839 422.4169
ENERGY: 600000 3.5919 4.2072 3.4062 0.0000 -10905.5096 1512.2734 0.0000 0.0000 1829.9777 -7552.0531 308.2466 -9382.0308 -7579.3018 302.5509 352.4796 377.5060 30704.4417 289.5081 342.9268
ENERGY: 900000 4.0430 4.5269 2.5047 0.0000 -10784.4691 1407.5824 0.0000 0.0000 1701.8166 -7663.9955 286.6588 -9365.8121 -7576.3294 301.5730 -458.1234 -412.5118 30602.5615 176.4274 228.6822
ENERGY: 1200000 6.1432 4.2730 1.2903 0.0000 -10873.8624 1498.6778 0.0000 0.0000 1794.3185 -7569.1595 302.2401 -9363.4781 -7555.4359 301.3312 189.3468 210.1905 30657.9970 163.8382 216.8024
ENERGY: 1500000 2.7564 3.4785 3.6218 0.0000 -10794.9846 1462.7484 0.0000 0.0000 1831.2499 -7491.1296 308.4609 -9322.3796 -7551.0042 302.0435 11.4659 -18.0159 30773.9009 131.3207 176.7477
TCL: Running FEP window  10: Lambda1 0.5499999999999996 Lambda2 0.4999999999999996 [dLambda -0.04999999999999999]
TCL: Setting parameter firsttimestep to 0
TCL: Setting parameter alchLambda to 0.5499999999999996
Info: NONBONDED TABLE R-SQUARED SPACING: 0.0625
Info: NONBONDED TABLE SIZE: 705 POINTS
TCL: Setting parameter alchLambda2 to 0.4999999999999996
Info: NONBONDED TABLE R-SQUARED SPACING: 0.0625
Info: NONBONDED TABLE SIZE: 705 POINTS
TCL: Running for 1500000 steps
ETITLE: TS BOND ANGLE DIHED IMPRP ELECT VDW BOUNDARY MISC KINETIC TOTAL TEMP POTENTIAL TOTALAVG TEMPAVG PRESSURE GPRESSURE VOLUME PRESSAVG GPRESSAVG
ENERGY: 0 2.7564 3.4785 3.6218 0.0000 -10793.8603 1462.4602 0.0000 0.0000 1830.3669 -7491.1765 308.3121 -9321.5434 -7491.1765 308.3121 -114.1569 -25.9784 30773.9009 -114.1569 -25.9784
ENERGY: 300000 1.5942 4.4343 3.1664 0.0000 -11019.0325 1566.4441 0.0000 0.0000 1755.2022 -7688.1912 295.6512 -9443.3934 -7570.1741 302.0021 830.3569 902.0502 30147.3165 303.6488 373.1951
ENERGY: 600000 1.5296 6.5416 3.2589 0.0000 -10920.8642 1481.0246 0.0000 0.0000 1756.9961 -7671.5132 295.9534 -9428.5093 -7575.4318 301.8161 94.8283 125.5750 30345.3685 143.6714 204.8761
ENERGY: 900000 4.7422 3.5906 2.9547 0.0000 -10690.6921 1388.1399 0.0000 0.0000 1782.1183 -7509.1464 300.1850 -9291.2647 -7566.9653 300.5476 -452.7515 -405.8345 30962.8423 9.2224 61.7499
ENERGY: 1200000 3.1962 5.7736 2.9282 0.0000 -10960.3669 1543.0564 0.0000 0.0000 1790.7177 -7614.6947 301.6335 -9405.4125 -7567.7314 300.8630 895.8190 893.8854 30406.8921 85.3376 134.8209
ENERGY: 1500000 5.2049 4.9809 1.0995 0.0000 -10683.4683 1323.6147 0.0000 0.0000 1741.3358 -7607.2325 293.3155 -9348.5683 -7575.8723 300.6236 -920.0537 -868.3012 30622.0206 -32.3896 25.3357
TCL: Running FEP window  11: Lambda1 0.4999999999999996 Lambda2 0.4499999999999996 [dLambda -0.04999999999999999]
TCL: Setting parameter firsttimestep to 0
TCL: Setting parameter alchLambda to 0.4999999999999996
Info: NONBONDED TABLE R-SQUARED SPACING: 0.0625
Info: NONBONDED TABLE SIZE: 705 POINTS
TCL: Setting parameter alchLambda2 to 0.4499999999999996
Info: NONBONDED TABLE R-SQUARED SPACING: 0.0625
Info: NONBONDED TABLE SIZE: 705 POINTS
TCL: Running for 1500000 steps
ETITLE: TS BOND ANGLE DIHED IMPRP ELECT VDW BOUNDARY MISC KINETIC TOTAL TEMP POTENTIAL TOTALAVG TEMPAVG PRESSURE GPRESSURE VOLUME PRESSAVG GPRESSAVG
ENERGY: 0 5.2049 4.9809 1.0995 0.0000 -10684.3083 1323.5244 0.0000 0.0000 1740.4569 -7609.0417 293.1674 -9349.4986 -7609.0417 293.1674 -965.6273 -880.3813 30622.0206 -965.6273 -880.3813
ENERGY: 300000 3.7656 8.7261 4.5877 0.0000 -10782.2045 1452.4855 0.0000 0.0000 1838.9905 -7473.6491 309.7647 -9312.6396 -7573.6925 303.1130 287.8263 312.8364 30372.5460 74.1873 144.9293
ENERGY: 600000 3.2288 2.6564 5.8395 0.0000 -10902.4117 1469.9171 0.0000 0.0000 1836.0549 -7584.7150 309.2702 -9420.7699 -7578.5184 302.7482 261.2814 292.5033 29897.0737 43.1987 103.1222
ENERGY: 900000 1.9323 4.5127 3.0141 0.0000 -10744.1255 1380.5041 0.0000 0.0000 1854.7366 -7499.4257 312.4170 -9354.1622 -7569.0735 303.4923 -426.1214 -367.8410 30754.6606 142.4121 208.3982
ENERGY: 1200000 5.1901 4.0772 4.5186 0.0000 -10897.6187 1514.1596 0.0000 0.0000 1762.9417 -7606.7315 296.9548 -9369.6732 -7567.9941 302.4124 543.2477 514.8654 30581.6653 148.5121 207.6851
ENERGY: 1500000 2.8836 4.7247 2.0902 0.0000 -10749.7119 1417.1822 0.0000 0.0000 1747.6684 -7575.1627 294.3822 -9322.8312 -7572.9722 301.5375 -401.7754 -322.1879 30785.9952 111.4625 172.3818
TCL: Running FEP window  12: Lambda1 0.4499999999999996 Lambda2 0.39999999999999963 [dLambda -0.04999999999999999]
TCL: Setting parameter firsttimestep to 0
TCL: Setting parameter alchLambda to 0.4499999999999996
Info: NONBONDED TABLE R-SQUARED SPACING: 0.0625
Info: NONBONDED TABLE SIZE: 705 POINTS
TCL: Setting parameter alchLambda2 to 0.39999999999999963
Info: NONBONDED TABLE R-SQUARED SPACING: 0.0625
Info: NONBONDED TABLE SIZE: 705 POINTS
TCL: Running for 1500000 steps
ETITLE: TS BOND ANGLE DIHED IMPRP ELECT VDW BOUNDARY MISC KINETIC TOTAL TEMP POTENTIAL TOTALAVG TEMPAVG PRESSURE GPRESSURE VOLUME PRESSAVG GPRESSAVG
ENERGY: 0 2.8836 4.7247 2.0902 0.0000 -10749.7140 1417.6035 0.0000 0.0000 1746.8214 -7575.5906 294.2395 -9322.4120 -7575.5906 294.2395 -403.8557 -324.3215 30785.9952 -403.8557 -324.3215
ENERGY: 300000 2.4170 5.0327 3.6373 0.0000 -10697.3048 1414.9144 0.0000 0.0000 1764.2362 -7507.0672 297.1729 -9271.3034 -7539.8416 301.2671 -255.5057 -243.9233 30944.6047 249.4926 309.2587
ENERGY: 600000 1.4512 6.3016 3.0840 0.0000 -10866.0574 1490.0305 0.0000 0.0000 1719.7451 -7645.4449 289.6787 -9365.1899 -7576.0062 299.1579 143.8204 191.1741 30629.1736 115.0869 181.4490
ENERGY: 900000 1.3659 2.9478 5.7160 0.0000 -10858.1798 1480.4230 0.0000 0.0000 1863.4643 -7504.2629 313.8872 -9367.7272 -7566.8965 301.0667 418.4870 450.7492 30420.3022 105.0322 171.8176
ENERGY: 1200000 1.3568 3.1007 2.7192 0.0000 -10888.6648 1514.2742 0.0000 0.0000 1790.7011 -7576.5128 301.6307 -9367.2139 -7567.5236 300.6026 909.4395 954.9147 29942.3318 186.6643 255.2266
ENERGY: 1500000 2.1235 3.4239 3.4318 0.0000 -10795.3223 1409.7414 0.0000 0.0000 1781.8535 -7594.7482 300.1404 -9376.6017 -7569.6335 301.6044 -246.4191 -204.8679 30596.1972 89.3245 163.5009
TCL: Running FEP window  13: Lambda1 0.39999999999999963 Lambda2 0.34999999999999964 [dLambda -0.04999999999999999]
TCL: Setting parameter firsttimestep to 0
TCL: Setting parameter alchLambda to 0.39999999999999963
Info: NONBONDED TABLE R-SQUARED SPACING: 0.0625
Info: NONBONDED TABLE SIZE: 705 POINTS
TCL: Setting parameter alchLambda2 to 0.34999999999999964
Info: NONBONDED TABLE R-SQUARED SPACING: 0.0625
Info: NONBONDED TABLE SIZE: 705 POINTS
TCL: Running for 1500000 steps
ETITLE: TS BOND ANGLE DIHED IMPRP ELECT VDW BOUNDARY MISC KINETIC TOTAL TEMP POTENTIAL TOTALAVG TEMPAVG PRESSURE GPRESSURE VOLUME PRESSAVG GPRESSAVG
ENERGY: 0 2.1235 3.4239 3.4318 0.0000 -10795.3227 1409.9914 0.0000 0.0000 1780.9596 -7595.3925 299.9898 -9376.3522 -7595.3925 299.9898 -309.6752 -212.5710 30596.1972 -309.6752 -212.5710
ENERGY: 300000 3.0084 7.8822 3.9874 0.0000 -10742.7076 1396.9581 0.0000 0.0000 1731.4888 -7599.3827 291.6568 -9330.8715 -7540.9742 302.2850 -313.1316 -288.9735 30458.8669 -329.6626 -286.7580
ENERGY: 600000 1.1302 3.2494 3.6912 0.0000 -10710.6415 1379.3446 0.0000 0.0000 1822.2967 -7500.9295 306.9528 -9323.2262 -7531.7869 302.7855 -278.5419 -275.6127 30485.1525 -303.9967 -244.0124
ENERGY: 900000 3.5553 3.6511 3.5655 0.0000 -10870.1768 1517.1816 0.0000 0.0000 1713.0796 -7629.1436 288.5559 -9342.2232 -7549.9845 300.6438 673.6152 702.4428 30484.5054 -129.4929 -69.0753
ENERGY: 1200000 3.3281 8.6863 4.5840 0.0000 -10737.5107 1390.2073 0.0000 0.0000 1756.8696 -7573.8355 295.9321 -9330.7051 -7554.7017 299.8934 -472.2833 -316.1387 30691.6321 -67.4955 4.3614
ENERGY: 1500000 2.0930 4.1175 2.3318 0.0000 -10892.1663 1553.7147 0.0000 0.0000 1818.2312 -7511.6782 306.2680 -9329.9095 -7552.5044 299.6665 757.7289 877.7544 30574.2832 -34.3958 37.1472
TCL: Running FEP window  14: Lambda1 0.34999999999999964 Lambda2 0.29999999999999966 [dLambda -0.04999999999999999]
TCL: Setting parameter firsttimestep to 0
TCL: Setting parameter alchLambda to 0.34999999999999964
Info: NONBONDED TABLE R-SQUARED SPACING: 0.0625
Info: NONBONDED TABLE SIZE: 705 POINTS
TCL: Setting parameter alchLambda2 to 0.29999999999999966
Info: NONBONDED TABLE R-SQUARED SPACING: 0.0625
Info: NONBONDED TABLE SIZE: 705 POINTS
TCL: Running for 1500000 steps
ETITLE: TS BOND ANGLE DIHED IMPRP ELECT VDW BOUNDARY MISC KINETIC TOTAL TEMP POTENTIAL TOTALAVG TEMPAVG PRESSURE GPRESSURE VOLUME PRESSAVG GPRESSAVG
ENERGY: 0 2.0930 4.1175 2.3318 0.0000 -10892.1661 1553.7673 0.0000 0.0000 1817.3341 -7512.5225 306.1169 -9329.8566 -7512.5225 306.1169 791.6963 874.5123 30574.2832 791.6963 874.5123
ENERGY: 300000 3.5192 2.8886 4.5185 0.0000 -10825.3540 1488.9708 0.0000 0.0000 1744.7437 -7580.7133 293.8895 -9325.4570 -7594.2621 300.0819 164.4360 253.0256 30880.5161 327.2047 402.4947
ENERGY: 600000 3.1169 5.7634 2.4331 0.0000 -10811.5907 1441.2317 0.0000 0.0000 1810.6073 -7548.4384 304.9838 -9359.0457 -7599.6527 300.0653 -38.8289 -7.7237 30612.3616 223.4108 298.6009
ENERGY: 900000 1.4905 6.1222 2.0571 0.0000 -10764.2478 1447.4887 0.0000 0.0000 1783.1282 -7523.9611 300.3551 -9307.0893 -7592.3927 299.8605 -98.8439 -75.5544 31282.9439 113.7627 179.8580
ENERGY: 1200000 3.9218 3.1483 3.2421 0.0000 -10817.3758 1420.4138 0.0000 0.0000 1755.7015 -7630.9483 295.7353 -9386.6497 -7598.2938 299.9237 -517.4579 -504.4535 31117.1213 -119.4567 -50.2247
ENERGY: 1500000 2.2429 2.3039 3.2318 0.0000 -10755.0463 1356.6115 0.0000 0.0000 1808.6262 -7582.0300 304.6501 -9390.6562 -7593.1709 299.9016 -946.6673 -849.3112 30742.3217 -201.9869 -133.2623
TCL: Running FEP window  15: Lambda1 0.29999999999999966 Lambda2 0.24999999999999967 [dLambda -0.04999999999999999]
TCL: Setting parameter firsttimestep to 0
TCL: Setting parameter alchLambda to 0.29999999999999966
Info: NONBONDED TABLE R-SQUARED SPACING: 0.0625
Info: NONBONDED TABLE SIZE: 705 POINTS
TCL: Setting parameter alchLambda2 to 0.24999999999999967
Info: NONBONDED TABLE R-SQUARED SPACING: 0.0625
Info: NONBONDED TABLE SIZE: 705 POINTS
TCL: Running for 1500000 steps
ETITLE: TS BOND ANGLE DIHED IMPRP ELECT VDW BOUNDARY MISC KINETIC TOTAL TEMP POTENTIAL TOTALAVG TEMPAVG PRESSURE GPRESSURE VOLUME PRESSAVG GPRESSAVG
ENERGY: 0 2.2429 2.3039 3.2318 0.0000 -10755.0468 1356.6331 0.0000 0.0000 1807.7467 -7582.8884 304.5019 -9390.6350 -7582.8884 304.5019 -929.3240 -853.1275 30742.3217 -929.3240 -853.1275
ENERGY: 300000 5.7368 4.4448 4.4124 0.0000 -10746.9919 1417.6868 0.0000 0.0000 1781.1268 -7533.5844 300.0180 -9314.7112 -7590.2011 301.5725 -348.2004 -338.8438 30776.4567 -580.6273 -532.5202
ENERGY: 600000 4.7025 4.5556 3.0598 0.0000 -10783.1873 1378.2581 0.0000 0.0000 1766.9982 -7625.6132 297.6381 -9392.6114 -7584.7631 300.3096 -751.0059 -710.0975 30560.3238 -506.5425 -461.1125
ENERGY: 900000 3.6222 3.1714 4.9602 0.0000 -10876.1234 1504.7996 0.0000 0.0000 1841.9091 -7517.6607 310.2563 -9359.5699 -7578.8270 300.9905 398.4666 466.4653 30327.2013 -355.8998 -292.4524
ENERGY: 1200000 2.3270 1.7508 2.6891 0.0000 -10863.9435 1476.6754 0.0000 0.0000 1706.0710 -7674.4303 287.3754 -9380.5013 -7594.7845 299.2141 -190.6572 -75.7566 31043.4885 -241.3160 -174.4527
ENERGY: 1500000 3.4720 3.2463 4.3907 0.0000 -10927.9749 1459.7304 0.0000 0.0000 1762.7384 -7694.3971 296.9206 -9457.1355 -7613.0635 298.3921 -148.4967 -104.3929 30143.1892 -180.8446 -115.9491
TCL: Running FEP window  16: Lambda1 0.24999999999999967 Lambda2 0.19999999999999968 [dLambda -0.04999999999999999]
TCL: Setting parameter firsttimestep to 0
TCL: Setting parameter alchLambda to 0.24999999999999967
Info: NONBONDED TABLE R-SQUARED SPACING: 0.0625
Info: NONBONDED TABLE SIZE: 705 POINTS
TCL: Setting parameter alchLambda2 to 0.19999999999999968
Info: NONBONDED TABLE R-SQUARED SPACING: 0.0625
Info: NONBONDED TABLE SIZE: 705 POINTS
TCL: Running for 1500000 steps
ETITLE: TS BOND ANGLE DIHED IMPRP ELECT VDW BOUNDARY MISC KINETIC TOTAL TEMP POTENTIAL TOTALAVG TEMPAVG PRESSURE GPRESSURE VOLUME PRESSAVG GPRESSAVG
ENERGY: 0 3.4720 3.2463 4.3907 0.0000 -10927.9744 1460.0533 0.0000 0.0000 1761.8207 -7694.9914 296.7660 -9456.8120 -7694.9914 296.7660 -200.9114 -106.2901 30143.1892 -200.9114 -106.2901
ENERGY: 300000 2.4125 6.1748 1.3326 0.0000 -10770.0085 1478.3778 0.0000 0.0000 1760.0138 -7521.6970 296.4617 -9281.7108 -7628.5874 297.7868 185.6412 273.0267 31095.6063 55.6554 125.8861
ENERGY: 600000 3.5046 4.7382 2.9998 0.0000 -10715.2539 1406.3034 0.0000 0.0000 1739.7878 -7557.9200 293.0547 -9297.7078 -7605.6150 297.7359 -463.1970 -386.8841 30937.7573 -36.0938 34.8766
ENERGY: 900000 2.2874 4.2349 2.7010 0.0000 -10944.3053 1509.8807 0.0000 0.0000 1743.1943 -7682.0070 293.6285 -9425.2013 -7625.0036 296.9544 501.0185 468.3892 30266.6863 -22.6129 31.6486
ENERGY: 1200000 5.2702 2.4064 4.3530 0.0000 -10826.2211 1406.1444 0.0000 0.0000 1822.7163 -7585.3307 307.0235 -9408.0470 -7608.6378 298.8144 -307.6816 -229.7300 30556.2528 -17.9787 34.5537
ENERGY: 1500000 1.4093 4.4173 2.2307 0.0000 -10787.3015 1388.4508 0.0000 0.0000 1789.1864 -7601.6071 301.3756 -9390.7934 -7603.3946 299.6253 -947.2963 -838.1334 30915.8595 -75.0090 -16.8879
TCL: Running FEP window  17: Lambda1 0.19999999999999968 Lambda2 0.1499999999999997 [dLambda -0.04999999999999999]
TCL: Setting parameter firsttimestep to 0
TCL: Setting parameter alchLambda to 0.19999999999999968
Info: NONBONDED TABLE R-SQUARED SPACING: 0.0625
Info: NONBONDED TABLE SIZE: 705 POINTS
TCL: Setting parameter alchLambda2 to 0.1499999999999997
Info: NONBONDED TABLE R-SQUARED SPACING: 0.0625
Info: NONBONDED TABLE SIZE: 705 POINTS
TCL: Running for 1500000 steps
ETITLE: TS BOND ANGLE DIHED IMPRP ELECT VDW BOUNDARY MISC KINETIC TOTAL TEMP POTENTIAL TOTALAVG TEMPAVG PRESSURE GPRESSURE VOLUME PRESSAVG GPRESSAVG
ENERGY: 0 1.4093 4.4173 2.2307 0.0000 -10787.2982 1387.9902 0.0000 0.0000 1788.2969 -7602.9538 301.2258 -9391.2507 -7602.9538 301.2258 -908.9598 -842.9514 30915.8595 -908.9598 -842.9514
ENERGY: 300000 4.2299 5.0954 5.1846 0.0000 -10720.2684 1483.7487 0.0000 0.0000 1789.2915 -7432.7184 301.3933 -9222.0099 -7566.5081 300.0804 314.4109 345.8259 30946.1916 -90.3274 -40.1834
ENERGY: 600000 1.8477 6.4086 2.0579 0.0000 -10841.2294 1504.6636 0.0000 0.0000 1756.2514 -7570.0001 295.8279 -9326.2515 -7567.4428 300.9773 522.6172 552.1774 30576.9921 -17.3369 25.7461
ENERGY: 900000 3.0273 4.0698 1.1030 0.0000 -10818.1752 1439.4860 0.0000 0.0000 1748.3634 -7622.1258 294.4992 -9370.4892 -7588.2287 300.3911 -183.7161 -94.4600 30366.1268 -21.1535 30.5184
ENERGY: 1200000 1.5267 2.6886 4.2715 0.0000 -10903.5640 1519.9615 0.0000 0.0000 1815.2515 -7559.8641 305.7661 -9375.1157 -7575.1676 301.3606 360.9278 490.2336 30581.6171 -40.5021 14.7343
ENERGY: 1500000 1.6617 6.6331 2.5532 0.0000 -10913.3161 1508.3343 0.0000 0.0000 1788.3491 -7605.7847 301.2345 -9394.1338 -7578.1954 300.9733 414.4381 486.2515 30526.6966 -91.5165 -40.3795
TCL: Running FEP window  18: Lambda1 0.1499999999999997 Lambda2 0.09999999999999969 [dLambda -0.05 ]
TCL: Setting parameter firsttimestep to 0
TCL: Setting parameter alchLambda to 0.1499999999999997
Info: NONBONDED TABLE R-SQUARED SPACING: 0.0625
Info: NONBONDED TABLE SIZE: 705 POINTS
TCL: Setting parameter alchLambda2 to 0.09999999999999969
Info: NONBONDED TABLE R-SQUARED SPACING: 0.0625
Info: NONBONDED TABLE SIZE: 705 POINTS
TCL: Running for 1500000 steps
ETITLE: TS BOND ANGLE DIHED IMPRP ELECT VDW BOUNDARY MISC KINETIC TOTAL TEMP POTENTIAL TOTALAVG TEMPAVG PRESSURE GPRESSURE VOLUME PRESSAVG GPRESSAVG
ENERGY: 0 1.6617 6.6331 2.5532 0.0000 -10913.3163 1508.8918 0.0000 0.0000 1787.4706 -7606.1060 301.0866 -9393.5766 -7606.1060 301.0866 410.0640 487.9216 30526.6966 410.0640 487.9216
ENERGY: 300000 1.5244 4.1589 3.7005 0.0000 -10849.2306 1433.6645 0.0000 0.0000 1774.9866 -7631.1957 298.9837 -9406.1823 -7607.3545 302.1696 -394.6180 -358.9758 30530.4965 -77.9162 -13.2943
ENERGY: 600000 5.5835 4.4782 4.7099 0.0000 -10775.6953 1391.5386 0.0000 0.0000 1752.6934 -7616.6917 295.2286 -9369.3851 -7598.8218 301.8203 -723.2834 -653.0704 30309.9344 -194.7805 -123.8408
ENERGY: 900000 1.7526 3.8999 4.5291 0.0000 -10731.4133 1402.6716 0.0000 0.0000 1791.6929 -7526.8672 301.7978 -9318.5601 -7580.9666 302.0303 -147.5508 -101.8092 30396.8298 -116.0710 -52.0362
ENERGY: 1200000 0.7252 6.5338 3.9132 0.0000 -11013.4607 1554.7704 0.0000 0.0000 1802.0874 -7645.4308 303.5487 -9447.5182 -7592.7483 301.6266 585.1613 624.8678 30519.8245 -66.7987 -9.3501
ENERGY: 1500000 4.3770 3.9898 8.4806 0.0000 -10526.0791 1250.2754 0.0000 0.0000 1743.4531 -7515.5034 293.6721 -9258.9564 -7574.3944 301.1919 -1310.7209 -1208.7026 30912.2892 -168.3005 -108.6209
TCL: Running FEP window  19: Lambda1 0.09999999999999969 Lambda2 0.049999999999999684 [dLambda -0.05 ]
TCL: Setting parameter firsttimestep to 0
TCL: Setting parameter alchLambda to 0.09999999999999969
Info: NONBONDED TABLE R-SQUARED SPACING: 0.0625
Info: NONBONDED TABLE SIZE: 705 POINTS
TCL: Setting parameter alchLambda2 to 0.049999999999999684
Info: NONBONDED TABLE R-SQUARED SPACING: 0.0625
Info: NONBONDED TABLE SIZE: 705 POINTS
TCL: Running for 1500000 steps
ETITLE: TS BOND ANGLE DIHED IMPRP ELECT VDW BOUNDARY MISC KINETIC TOTAL TEMP POTENTIAL TOTALAVG TEMPAVG PRESSURE GPRESSURE VOLUME PRESSAVG GPRESSAVG
ENERGY: 0 4.3770 3.9898 8.4806 0.0000 -10526.0790 1250.6623 0.0000 0.0000 1742.5564 -7516.0130 293.5211 -9258.5694 -7516.0130 293.5211 -1295.3728 -1210.1876 30912.2892 -1295.3728 -1210.1876
ENERGY: 300000 3.3642 6.0121 3.2111 0.0000 -10771.7132 1421.6710 0.0000 0.0000 1779.7308 -7557.7240 299.7829 -9337.4548 -7532.6584 300.8227 -13.5904 3.4048 30236.1514 -361.1728 -292.7352
ENERGY: 600000 8.2234 4.6252 1.9416 0.0000 -10697.0371 1395.5954 0.0000 0.0000 1777.1498 -7509.5016 299.3481 -9286.6514 -7555.5731 299.7318 -420.6808 -338.1491 30849.2195 -348.6425 -284.2559
ENERGY: 900000 2.1021 4.8677 2.4819 0.0000 -10848.4538 1475.5809 0.0000 0.0000 1819.6191 -7543.8020 306.5018 -9363.4211 -7573.5573 300.6364 -47.2286 100.2819 30621.7436 -197.6493 -119.6250
ENERGY: 1200000 3.8352 5.0034 2.9896 0.0000 -10935.4155 1488.2261 0.0000 0.0000 1719.7260 -7715.6353 289.6755 -9435.3613 -7582.5693 299.9439 -131.7950 -56.6891 30792.0402 -173.6063 -94.4844
ENERGY: 1500000 3.3177 5.1185 2.8455 0.0000 -10884.6697 1497.3769 0.0000 0.0000 1765.8031 -7610.2080 297.4368 -9376.0111 -7577.6876 299.9674 138.1254 149.2706 30837.0883 -88.1816 -23.1925
TCL: Running FEP window  20: Lambda1 0.049999999999999684 Lambda2 0.0    [dLambda -0.049999999999999684]
TCL: Setting parameter firsttimestep to 0
TCL: Setting parameter alchLambda to 0.049999999999999684
Info: NONBONDED TABLE R-SQUARED SPACING: 0.0625
Info: NONBONDED TABLE SIZE: 705 POINTS
TCL: Setting parameter alchLambda2 to 0.0
Info: NONBONDED TABLE R-SQUARED SPACING: 0.0625
Info: NONBONDED TABLE SIZE: 705 POINTS
TCL: Running for 1500000 steps
ETITLE: TS BOND ANGLE DIHED IMPRP ELECT VDW BOUNDARY MISC KINETIC TOTAL TEMP POTENTIAL TOTALAVG TEMPAVG PRESSURE GPRESSURE VOLUME PRESSAVG GPRESSAVG
ENERGY: 0 3.3177 5.1185 2.8455 0.0000 -10884.6704 1495.2291 0.0000 0.0000 1764.9165 -7613.2431 297.2875 -9378.1596 -7613.2431 297.2875 71.7686 139.7300 30837.0883 71.7686 139.7300
ENERGY: 300000 4.1216 2.7051 1.5801 0.0000 -10737.9227 1356.4765 0.0000 0.0000 1783.7146 -7589.3248 300.4539 -9373.0394 -7566.1536 301.7075 -799.8378 -756.7562 30299.9509 -268.5904 -194.8858
ENERGY: 600000 1.9576 6.2237 4.3326 0.0000 -10828.2588 1424.4303 0.0000 0.0000 1794.3681 -7596.9464 302.2484 -9391.3146 -7560.7769 303.0104 -309.9438 -196.3161 30383.4868 -205.5948 -126.3825
ENERGY: 900000 1.6553 8.0786 4.2795 0.0000 -10773.2388 1418.5275 0.0000 0.0000 1812.4297 -7528.2682 305.2907 -9340.6979 -7575.5863 302.1685 168.9153 218.4209 30014.2401 -67.9426 5.3712
ENERGY: 1200000 4.4470 5.1767 2.4760 0.0000 -10703.2467 1309.3347 0.0000 0.0000 1718.8837 -7662.9286 289.5336 -9381.8123 -7571.7493 300.8664 -1250.2823 -1201.2000 30600.4431 -249.9973 -184.4888
ENERGY: 1500000 2.8162 10.1207 4.2690 0.0000 -10803.1632 1448.5030 0.0000 0.0000 1740.5224 -7596.9318 293.1785 -9337.4542 -7570.1218 300.8210 -51.8405 36.5695 30577.6848 -253.4546 -186.3836
TCL: Exiting due to exit command.
