Info: SIMULATION PARAMETERS:
Info: TIMESTEP               2
Info: NUMBER OF STEPS        0
Info: STEPS PER CYCLE        10
Info: PERIODIC CELL BASIS 1  31.1246 0 0
Info: PERIODIC CELL BASIS 2  0 31.3531 0
Info: PERIODIC CELL BASIS 3  0 0 31.7585
Info: PERIODIC CELL CENTER   0 0 0
Info: WRAPPING WATERS AROUND PERIODIC BOUNDARIES ON OUTPUT.
Info: WRAPPING ALL CLUSTERS AROUND PERIODIC BOUNDARIES ON OUTPUT.
Info: FIRST LDB TIMESTEP     50
Info: LAST LDB TIMESTEP     -1
Info: HOM BACKGROUND SCALING 1
Info: PME BACKGROUND SCALING 1
Info: MIN ATOMS PER PATCH    40
Info: EMPTY PATCH LOAD       40 ATOMS
Info: VELOCITY FILE          mobley_2068538_equil.vel
Info: CENTER OF MASS MOVING INITIALLY? NO
Info: DIELECTRIC             1
Info: EXCLUDE                SCALED ONE-FOUR
Info: 1-4 ELECTROSTATICS SCALED BY 0.833333
Info: MODIFIED 1-4 VDW PARAMETERS WILL BE USED
Info: DCD FILENAME           mobley_2068538_prod.dcd
Info: DCD FREQUENCY          100000
Info: DCD FIRST STEP         100000
Info: DCD FILE WILL CONTAIN UNIT CELL DATA
Info: XST FILENAME           mobley_2068538_prod.xst
Info: XST FREQUENCY          100000
Info: NO VELOCITY DCD OUTPUT
Info: NO FORCE DCD OUTPUT
Info: OUTPUT FILENAME        mobley_2068538_prod
Info: BINARY OUTPUT FILES WILL BE USED
Info: RESTART FILENAME       mobley_2068538_prod.restart
Info: RESTART FREQUENCY      100000
Info: BINARY RESTART FILES WILL BE USED
Info: CUTOFF                 9
Info: PAIRLIST DISTANCE      11
Info: PAIRLIST SHRINK RATE   0.01
Info: PAIRLIST GROW RATE     0.01
Info: PAIRLIST TRIGGER       0.3
Info: PAIRLISTS PER CYCLE    2
Info: PAIRLISTS ENABLED
Info: MARGIN                 2
Info: HYDROGEN GROUP CUTOFF  2.5
Info: PATCH DIMENSION        15.5
Info: ENERGY OUTPUT STEPS    100000
Info: ENERGY EVALUATION STEPS    100000
Info: OUTPUT ENERGY PRECISION 4
Info: CROSSTERM ENERGY INCLUDED IN DIHEDRAL
Info: TIMING OUTPUT STEPS    1000000
Info: PRESSURE OUTPUT STEPS  100000
Info: ALCHEMICAL FEP ON
Info: FEP CURRENT LAMBDA VALUE     0
Info: FEP COMPARISON LAMBDA VALUE  0.05
Info: FEP INTRA-ALCHEMICAL NON-BONDED INTERACTIONS WILL BE RETAINED
Info: FEP INTRA-ALCHEMICAL BONDED INTERACTIONS WILL BE RETAINED
Info: FEP VDW SHIFTING COEFFICIENT 5
Info: FEP ELEC. ACTIVE FOR ANNIHILATED PARTICLES BETWEEN LAMBDA = 0 AND LAMBDA = 0.5
Info: FEP ELEC. ACTIVE FOR EXNIHILATED PARTICLES BETWEEN LAMBDA = 0.5 AND LAMBDA = 1
Info: FEP VDW ACTIVE FOR ANNIHILATED PARTICLES BETWEEN LAMBDA = 0 AND LAMBDA = 1
Info: FEP VDW ACTIVE FOR EXNIHILATED PARTICLES BETWEEN LAMBDA = 0 AND LAMBDA = 1
Info: FEP BOND ACTIVE FOR ANNIHILATED PARTICLES BETWEEN LAMBDA = 1 AND LAMBDA = 1
Info: FEP BOND ACTIVE FOR EXNIHILATED PARTICLES BETWEEN LAMBDA = 0 AND LAMBDA = 0
Info: LANGEVIN DYNAMICS ACTIVE
Info: LANGEVIN TEMPERATURE   300
Info: LANGEVIN USING BBK INTEGRATOR
Info: LANGEVIN DAMPING COEFFICIENT IS 1 INVERSE PS
Info: LANGEVIN DYNAMICS APPLIED TO HYDROGENS
Info: LANGEVIN PISTON PRESSURE CONTROL ACTIVE
Info:        TARGET PRESSURE IS 1.01325 BAR
Info:     OSCILLATION PERIOD IS 50 FS
Info:             DECAY TIME IS 25 FS
Info:     PISTON TEMPERATURE IS 300 K
Info:       PRESSURE CONTROL IS GROUP-BASED
Info:    INITIAL STRAIN RATE IS -0.000374619 -0.000374619 -0.000374619
Info:       CELL FLUCTUATION IS ISOTROPIC
Info: PARTICLE MESH EWALD (PME) ACTIVE
Info: PME TOLERANCE               1e-06
Info: PME EWALD COEFFICIENT       0.348832
Info: PME INTERPOLATION ORDER     4
Info: PME GRID DIMENSIONS         32 32 32
Info: PME MAXIMUM GRID SPACING    1
Info: PME CALCULATION WILL BE PERFORMED ON GPU
Info: FULL ELECTROSTATIC EVALUATION FREQUENCY      2
Info: USING VERLET I (r-RESPA) MTS SCHEME.
Info: C1 SPLITTING OF LONG RANGE ELECTROSTATICS
Info: PLACING ATOMS IN PATCHES BY HYDROGEN GROUPS
Info: RIGID BONDS TO HYDROGEN : ALL
Info:         ERROR TOLERANCE : 1e-08
Info:          MAX ITERATIONS : 100
Info: RIGID WATER USING SETTLE ALGORITHM
Info: RANDOM NUMBER SEED     1743508999
Info: USE HYDROGEN BONDS?    NO
Info: Using AMBER format force field!
Info: AMBER PARM FILE        mobley_2068538.prmtop
Info: COORDINATE PDB         mobley_2068538.pdb
Info: Exclusions will be read from PARM file!
Info: SCNB (VDW SCALING)     2
Info: USING ARITHMETIC MEAN TO COMBINE L-J SIGMA PARAMETERS
Info: BINARY COORDINATES     mobley_2068538_equil.coor
Info: SUMMARY OF PARAMETERS:
Info: 4 BONDS
Info: 3 ANGLES
Info:   3 HARMONIC
Info:   0 COSINE-BASED
Info: 2 DIHEDRAL
Info: 0 IMPROPER
Info: 0 CROSSTERM
Info: 0 VDW
Info: 10 VDW_PAIRS
Info: 0 NBTHOLE_PAIRS
Info: To read alchdata from file: mobley_2068538.pdb
Info: To read alchflag data from column: 5
Info: STRUCTURE SUMMARY:
Info: 2981 ATOMS
Info: 2980 BONDS
Info: 18 ANGLES
Info: 18 DIHEDRALS
Info: 0 IMPROPERS
Info: 0 CROSSTERMS
Info: 3016 EXCLUSIONS
Info: 2978 RIGID BONDS
Info: ALCH: 0 ATOMS TO DISAPPEAR IN FINAL STATE
Info: ALCH: 11 ATOMS TO APPEAR IN FINAL STATE
Info: 5965 DEGREES OF FREEDOM
Info: 993 HYDROGEN GROUPS
Info: 4 ATOMS IN LARGEST HYDROGEN GROUP
Info: 993 MIGRATION GROUPS
Info: 4 ATOMS IN LARGEST MIGRATION GROUP
Info: TOTAL MASS = 17879.9 amu
Info: TOTAL CHARGE = 0.000200011 e
Info: MASS DENSITY = 0.958037 g/cm^3
Info: ATOM DENSITY = 0.0961876 atoms/A^3
Info: ADDED 0 IMPLICIT EXCLUSIONS
Info: NONBONDED TABLE R-SQUARED SPACING: 0.0625
Info: NONBONDED TABLE SIZE: 705 POINTS
Info: REDUCING NUMBER OF PATCHES TO IMPROVE LOAD BALANCE
Info: REMOVING COM VELOCITY -0.227629 0.00648809 0.0944072
Info: Use 3D box decompostion in PME FFT.
Info: Updated CUDA force table with 4096 elements.
Info: Updated CUDA LJ table with 4 x 4 elements.
Info: Found 14 unique exclusion lists needing 24 bytes
TCL: Running for 1500000 steps
ETITLE: TS BOND ANGLE DIHED IMPRP ELECT VDW BOUNDARY MISC KINETIC TOTAL TEMP POTENTIAL TOTALAVG TEMPAVG PRESSURE GPRESSURE VOLUME PRESSAVG GPRESSAVG
ENERGY: 0 0.4052 4.6421 0.6008 0.0000 -10757.7520 1451.2360 0.0000 0.0000 1763.1473 -7537.7207 297.4874 -9300.8680 -7537.7207 297.4874 -138.7719 -61.2569 30991.5096 -138.7719 -61.2569
ENERGY: 300000 2.0782 3.8133 0.4724 0.0000 -10788.1989 1437.5641 0.0000 0.0000 1784.5522 -7559.7188 301.0989 -9344.2710 -7592.8669 298.1408 -306.0750 -208.8017 30812.6285 -53.4426 30.9671
ENERGY: 600000 0.5886 4.5056 2.5654 0.0000 -10844.7710 1438.4660 0.0000 0.0000 1795.5963 -7603.0491 302.9623 -9398.6454 -7591.9735 299.1682 -196.6575 -111.5923 30341.3201 -113.1252 -28.0952
ENERGY: 900000 0.0348 4.0332 1.3627 0.0000 -10824.7129 1508.2463 0.0000 0.0000 1787.1403 -7523.8956 301.5356 -9311.0359 -7582.9491 299.9110 605.8876 669.7171 30526.7033 -139.9030 -53.2817
ENERGY: 1200000 0.7041 4.1892 0.5729 0.0000 -10789.2010 1447.3745 0.0000 0.0000 1768.6650 -7567.6954 298.4183 -9336.3603 -7577.9786 299.1079 -159.0051 -179.2987 30868.9659 -112.4722 -34.2792
ENERGY: 1500000 0.5607 6.6886 0.4788 0.0000 -10779.7680 1469.9468 0.0000 0.0000 1813.4894 -7488.6038 305.9813 -9302.0931 -7574.6428 299.3199 247.2338 294.1697 30629.9879 -109.4980 -40.4014
TCL: Running FEP window   2: Lambda1 0.05   Lambda2 0.1    [dLambda 0.05  ]
TCL: Setting parameter firsttimestep to 0
TCL: Setting parameter alchLambda to 0.05
Info: NONBONDED TABLE R-SQUARED SPACING: 0.0625
Info: NONBONDED TABLE SIZE: 705 POINTS
TCL: Setting parameter alchLambda2 to 0.1
Info: NONBONDED TABLE R-SQUARED SPACING: 0.0625
Info: NONBONDED TABLE SIZE: 705 POINTS
TCL: Running for 1500000 steps
ETITLE: TS BOND ANGLE DIHED IMPRP ELECT VDW BOUNDARY MISC KINETIC TOTAL TEMP POTENTIAL TOTALAVG TEMPAVG PRESSURE GPRESSURE VOLUME PRESSAVG GPRESSAVG
ENERGY: 0 0.5607 6.6886 0.4788 0.0000 -10779.7681 1472.0508 0.0000 0.0000 1812.5763 -7487.4129 305.8273 -9299.9893 -7487.4129 305.8273 219.4875 298.2525 30629.9879 219.4875 298.2525
ENERGY: 300000 1.2904 2.7671 0.7661 0.0000 -10681.6782 1374.3963 0.0000 0.0000 1788.6632 -7513.7952 301.7925 -9302.4584 -7539.5173 303.3812 -774.2717 -691.8862 31034.0359 18.8218 89.0906
ENERGY: 600000 0.7871 5.3259 0.5838 0.0000 -10715.5623 1374.8264 0.0000 0.0000 1847.2057 -7486.8334 311.6701 -9334.0391 -7529.4873 304.8867 -614.1148 -484.2892 30522.7181 75.6095 153.2548
ENERGY: 900000 0.4750 5.4066 0.1589 0.0000 -10641.0202 1341.5206 0.0000 0.0000 1779.7330 -7513.7262 300.2858 -9293.4592 -7542.8900 303.7676 -864.9546 -820.9341 31148.2555 -41.6853 28.4048
ENERGY: 1200000 1.0390 3.7700 0.4119 0.0000 -10944.6487 1580.9978 0.0000 0.0000 1787.6028 -7570.8272 301.6136 -9358.4300 -7552.7507 302.5219 717.9286 816.7409 30598.4724 46.7806 108.0488
ENERGY: 1500000 0.0161 7.0235 0.2713 0.0000 -10818.7293 1498.6309 0.0000 0.0000 1831.8640 -7480.9235 309.0816 -9312.7875 -7543.4884 303.1036 666.1359 765.2113 30323.8167 74.9111 131.5064
TCL: Running FEP window   3: Lambda1 0.1    Lambda2 0.15000000000000002 [dLambda 0.05000000000000002]
TCL: Setting parameter firsttimestep to 0
TCL: Setting parameter alchLambda to 0.1
Info: NONBONDED TABLE R-SQUARED SPACING: 0.0625
Info: NONBONDED TABLE SIZE: 705 POINTS
TCL: Setting parameter alchLambda2 to 0.15000000000000002
Info: NONBONDED TABLE R-SQUARED SPACING: 0.0625
Info: NONBONDED TABLE SIZE: 705 POINTS
TCL: Running for 1500000 steps
ETITLE: TS BOND ANGLE DIHED IMPRP ELECT VDW BOUNDARY MISC KINETIC TOTAL TEMP POTENTIAL TOTALAVG TEMPAVG PRESSURE GPRESSURE VOLUME PRESSAVG GPRESSAVG
ENERGY: 0 0.0161 7.0235 0.2713 0.0000 -10818.7287 1500.0173 0.0000 0.0000 1831.0069 -7480.3936 308.9370 -9311.4005 -7480.3936 308.9370 666.7925 768.1637 30323.8167 666.7925 768.1637
ENERGY: 300000 0.2984 3.2776 0.8963 0.0000 -10682.1499 1381.5555 0.0000 0.0000 1847.4121 -7448.7099 311.7050 -9296.1220 -7512.2354 307.8439 -480.9503 -421.7609 30935.8859 -166.1786 -116.3321
ENERGY: 600000 0.0360 2.2678 1.0476 0.0000 -10868.2586 1453.2902 0.0000 0.0000 1831.0469 -7580.5702 308.9437 -9411.6171 -7538.8909 304.8880 -153.8137 -115.1871 30709.5816 -285.4718 -227.3421
ENERGY: 900000 1.8976 4.6743 1.0364 0.0000 -10617.2021 1364.4067 0.0000 0.0000 1763.3840 -7481.8031 297.5273 -9245.1871 -7533.2454 304.6575 -780.8232 -759.1460 31161.6524 -239.8395 -181.9757
ENERGY: 1200000 0.0129 5.7806 0.3834 0.0000 -10692.6944 1334.3620 0.0000 0.0000 1890.0260 -7462.1296 318.8950 -9352.1556 -7538.8757 305.1498 -798.4997 -745.6179 30600.4775 -303.5508 -254.1021
ENERGY: 1500000 0.1898 3.1620 0.4797 0.0000 -10903.0094 1511.2982 0.0000 0.0000 1783.2705 -7604.6091 300.8827 -9387.8796 -7550.3899 304.6352 79.6770 202.7823 30772.2993 -223.5981 -164.7658
TCL: Running FEP window   4: Lambda1 0.15000000000000002 Lambda2 0.2    [dLambda 0.04999999999999999]
TCL: Setting parameter firsttimestep to 0
TCL: Setting parameter alchLambda to 0.15000000000000002
Info: NONBONDED TABLE R-SQUARED SPACING: 0.0625
Info: NONBONDED TABLE SIZE: 705 POINTS
TCL: Setting parameter alchLambda2 to 0.2
Info: NONBONDED TABLE R-SQUARED SPACING: 0.0625
Info: NONBONDED TABLE SIZE: 705 POINTS
TCL: Running for 1500000 steps
ETITLE: TS BOND ANGLE DIHED IMPRP ELECT VDW BOUNDARY MISC KINETIC TOTAL TEMP POTENTIAL TOTALAVG TEMPAVG PRESSURE GPRESSURE VOLUME PRESSAVG GPRESSAVG
ENERGY: 0 0.1898 3.1620 0.4797 0.0000 -10903.0110 1512.3726 0.0000 0.0000 1782.3806 -7604.4262 300.7325 -9386.8068 -7604.4262 300.7325 122.8654 209.8353 30772.2993 122.8654 209.8353
ENERGY: 300000 2.5009 6.8408 0.5145 0.0000 -10792.5166 1482.9489 0.0000 0.0000 1801.6068 -7498.1048 303.9765 -9299.7116 -7590.4865 300.8569 247.7951 276.1878 30635.4244 165.0600 225.1732
ENERGY: 600000 0.3675 2.5611 2.4491 0.0000 -10856.2771 1542.2093 0.0000 0.0000 1820.4300 -7488.2601 307.1524 -9308.6901 -7569.5258 302.0944 1021.3859 1053.4416 30142.6943 57.4537 108.8260
ENERGY: 900000 0.1903 5.2790 0.2564 0.0000 -10943.9577 1448.6242 0.0000 0.0000 1750.0411 -7739.5668 295.2760 -9489.6080 -7589.2821 300.3154 -67.4591 -4.0833 30045.4609 120.7847 172.9906
ENERGY: 1200000 1.2856 3.2814 0.7695 0.0000 -10841.3442 1491.6978 0.0000 0.0000 1760.8063 -7583.5036 297.0924 -9344.3099 -7585.1076 300.4065 303.2560 310.5616 30242.8765 23.6260 77.6764
ENERGY: 1500000 0.3449 4.6953 0.4704 0.0000 -10785.5766 1416.3566 0.0000 0.0000 1823.3080 -7540.4012 307.6380 -9363.7092 -7566.8599 301.1305 -150.8991 -164.2542 30339.3728 21.4249 74.0399
TCL: Running FEP window   5: Lambda1 0.2    Lambda2 0.25   [dLambda 0.04999999999999999]
TCL: Setting parameter firsttimestep to 0
TCL: Setting parameter alchLambda to 0.2
Info: NONBONDED TABLE R-SQUARED SPACING: 0.0625
Info: NONBONDED TABLE SIZE: 705 POINTS
TCL: Setting parameter alchLambda2 to 0.25
Info: NONBONDED TABLE R-SQUARED SPACING: 0.0625
Info: NONBONDED TABLE SIZE: 705 POINTS
TCL: Running for 1500000 steps
ETITLE: TS BOND ANGLE DIHED IMPRP ELECT VDW BOUNDARY MISC KINETIC TOTAL TEMP POTENTIAL TOTALAVG TEMPAVG PRESSURE GPRESSURE VOLUME PRESSAVG GPRESSAVG
ENERGY: 0 0.3449 4.6953 0.4704 0.0000 -10785.5764 1416.8075 0.0000 0.0000 1822.4245 -7540.8337 307.4889 -9363.2583 -7540.8337 307.4889 -255.7876 -157.7648 30339.3728 -255.7876 -157.7648
ENERGY: 300000 0.6342 2.5991 1.7487 0.0000 -10944.7309 1543.8431 0.0000 0.0000 1729.8029 -7666.1029 291.8613 -9395.9058 -7610.2834 299.0743 509.1310 532.8828 30484.3818 40.9444 94.6051
ENERGY: 600000 1.9375 4.6713 0.9027 0.0000 -10750.1064 1433.8873 0.0000 0.0000 1824.3647 -7484.3428 307.8163 -9308.7076 -7588.9932 299.9413 91.0491 214.4412 30303.2829 12.0289 73.0577
ENERGY: 900000 0.6531 8.1775 0.2518 0.0000 -10894.4149 1472.0032 0.0000 0.0000 1711.6857 -7701.6435 288.8045 -9413.3293 -7585.9354 301.9774 3.5436 69.8375 30678.2023 61.3941 118.7315
ENERGY: 1200000 0.3758 4.4197 2.1590 0.0000 -10894.7403 1415.9159 0.0000 0.0000 1811.3677 -7660.5022 305.6234 -9471.8699 -7585.5502 302.5409 -540.0464 -486.3976 30444.8478 59.2287 112.3300
ENERGY: 1500000 0.1629 7.4486 0.2791 0.0000 -10825.6191 1438.1549 0.0000 0.0000 1789.6378 -7589.9358 301.9570 -9379.5736 -7590.4175 301.7721 -184.6413 -35.4458 30327.1292 44.6588 108.4453
TCL: Running FEP window   6: Lambda1 0.25   Lambda2 0.3    [dLambda 0.04999999999999999]
TCL: Setting parameter firsttimestep to 0
TCL: Setting parameter alchLambda to 0.25
Info: NONBONDED TABLE R-SQUARED SPACING: 0.0625
Info: NONBONDED TABLE SIZE: 705 POINTS
TCL: Setting parameter alchLambda2 to 0.3
Info: NONBONDED TABLE R-SQUARED SPACING: 0.0625
Info: NONBONDED TABLE SIZE: 705 POINTS
TCL: Running for 1500000 steps
ETITLE: TS BOND ANGLE DIHED IMPRP ELECT VDW BOUNDARY MISC KINETIC TOTAL TEMP POTENTIAL TOTALAVG TEMPAVG PRESSURE GPRESSURE VOLUME PRESSAVG GPRESSAVG
ENERGY: 0 0.1629 7.4486 0.2791 0.0000 -10825.6192 1438.5821 0.0000 0.0000 1788.7366 -7590.4100 301.8049 -9379.1466 -7590.4100 301.8049 -126.4077 -31.0773 30327.1292 -126.4077 -31.0773
ENERGY: 300000 0.0567 5.9114 0.2292 0.0000 -10959.5292 1483.5529 0.0000 0.0000 1809.7695 -7660.0096 305.3537 -9469.7790 -7606.7286 300.6336 63.6627 112.0364 30109.2789 192.9054 254.6051
ENERGY: 600000 0.0358 4.0462 0.5366 0.0000 -10767.2409 1452.6817 0.0000 0.0000 1783.9600 -7525.9807 300.9990 -9309.9407 -7577.8799 300.0431 -38.1421 -22.3200 30886.3691 20.3826 78.5717
ENERGY: 900000 0.0289 2.5217 0.1357 0.0000 -10758.3772 1424.0776 0.0000 0.0000 1780.1100 -7551.5032 300.3494 -9331.6133 -7571.2343 300.6410 -297.1664 -228.8233 30982.7489 -16.2801 43.7036
ENERGY: 1200000 0.2460 3.6003 0.3277 0.0000 -10727.4316 1404.8693 0.0000 0.0000 1787.8566 -7530.5318 301.6564 -9318.3883 -7566.8740 301.6056 -266.3172 -236.8825 30729.7141 -54.4789 -1.5648
ENERGY: 1500000 0.8663 2.3974 0.1923 0.0000 -10766.4165 1386.3242 0.0000 0.0000 1831.0874 -7545.5490 308.9506 -9376.6363 -7565.9307 301.3784 -756.0632 -749.9012 30961.4717 -110.4410 -57.2888
TCL: Running FEP window   7: Lambda1 0.3    Lambda2 0.35   [dLambda 0.04999999999999999]
TCL: Setting parameter firsttimestep to 0
TCL: Setting parameter alchLambda to 0.3
Info: NONBONDED TABLE R-SQUARED SPACING: 0.0625
Info: NONBONDED TABLE SIZE: 705 POINTS
TCL: Setting parameter alchLambda2 to 0.35
Info: NONBONDED TABLE R-SQUARED SPACING: 0.0625
Info: NONBONDED TABLE SIZE: 705 POINTS
TCL: Running for 1500000 steps
ETITLE: TS BOND ANGLE DIHED IMPRP ELECT VDW BOUNDARY MISC KINETIC TOTAL TEMP POTENTIAL TOTALAVG TEMPAVG PRESSURE GPRESSURE VOLUME PRESSAVG GPRESSAVG
ENERGY: 0 0.8663 2.3974 0.1923 0.0000 -10766.4168 1386.2526 0.0000 0.0000 1830.1714 -7546.5368 308.7960 -9376.7082 -7546.5368 308.7960 -832.8173 -748.4119 30961.4717 -832.8173 -748.4119
ENERGY: 300000 1.8908 3.5985 0.8725 0.0000 -10754.9036 1378.6332 0.0000 0.0000 1769.1104 -7600.7981 298.4935 -9369.9085 -7600.4177 300.4148 -908.6289 -887.0448 31095.5486 -643.3249 -563.7078
ENERGY: 600000 2.1289 6.8466 0.8303 0.0000 -10928.6742 1465.3334 0.0000 0.0000 1802.0185 -7651.5164 304.0459 -9453.5349 -7608.9175 300.3308 -152.6818 -94.1730 30283.3632 -340.4554 -266.5284
ENERGY: 900000 0.8713 4.4913 0.1944 0.0000 -10824.3439 1480.0305 0.0000 0.0000 1751.2452 -7587.5113 295.4792 -9338.7565 -7595.7667 300.5421 237.6573 284.3633 30673.9075 -258.1155 -188.2028
ENERGY: 1200000 0.3264 3.7338 0.5619 0.0000 -11057.9207 1622.5058 0.0000 0.0000 1810.3666 -7620.4262 305.4545 -9430.7928 -7590.0133 301.5200 1046.9757 1139.7553 30534.6256 -200.6758 -131.3345
ENERGY: 1500000 0.2703 5.4816 0.2858 0.0000 -10837.0762 1459.0333 0.0000 0.0000 1814.0411 -7557.9641 306.0744 -9372.0052 -7595.6827 301.1885 -174.5800 -105.8495 30778.1196 -169.4943 -100.1840
TCL: Running FEP window   8: Lambda1 0.35   Lambda2 0.39999999999999997 [dLambda 0.04999999999999999]
TCL: Setting parameter firsttimestep to 0
TCL: Setting parameter alchLambda to 0.35
Info: NONBONDED TABLE R-SQUARED SPACING: 0.0625
Info: NONBONDED TABLE SIZE: 705 POINTS
TCL: Setting parameter alchLambda2 to 0.39999999999999997
Info: NONBONDED TABLE R-SQUARED SPACING: 0.0625
Info: NONBONDED TABLE SIZE: 705 POINTS
TCL: Running for 1500000 steps
ETITLE: TS BOND ANGLE DIHED IMPRP ELECT VDW BOUNDARY MISC KINETIC TOTAL TEMP POTENTIAL TOTALAVG TEMPAVG PRESSURE GPRESSURE VOLUME PRESSAVG GPRESSAVG
ENERGY: 0 0.2703 5.4816 0.2858 0.0000 -10837.0764 1459.0404 0.0000 0.0000 1813.1659 -7558.8323 305.9268 -9371.9983 -7558.8323 305.9268 -193.6138 -103.7147 30778.1196 -193.6138 -103.7147
ENERGY: 300000 1.1296 3.5805 0.8183 0.0000 -10809.6135 1412.7521 0.0000 0.0000 1740.1968 -7651.1363 293.6150 -9391.3331 -7606.2358 298.8785 -444.1214 -375.3098 30646.6061 -263.9726 -191.6293
ENERGY: 600000 0.2199 3.3249 1.2414 0.0000 -10773.7308 1491.8421 0.0000 0.0000 1810.8001 -7466.3023 305.5276 -9277.1025 -7567.0090 300.6821 544.2463 535.9810 30655.7697 -327.0837 -271.7643
ENERGY: 900000 0.1146 7.6826 0.5105 0.0000 -10787.5826 1400.3620 0.0000 0.0000 1759.8639 -7619.0491 296.9334 -9378.9130 -7583.7271 299.7335 -440.5569 -411.6134 30461.9429 -312.2590 -250.3250
ENERGY: 1200000 0.0983 4.7277 1.2645 0.0000 -10999.7308 1573.4020 0.0000 0.0000 1776.9308 -7643.3076 299.8130 -9420.2383 -7595.1215 299.6843 672.4662 739.9965 30453.7793 -213.2299 -154.4212
ENERGY: 1500000 0.5158 7.2833 0.8238 0.0000 -11028.8299 1650.7872 0.0000 0.0000 1823.7296 -7545.6901 307.7091 -9369.4197 -7587.9331 300.0469 1458.9100 1549.3526 30336.5008 -86.6084 -19.6650
TCL: Running FEP window   9: Lambda1 0.39999999999999997 Lambda2 0.44999999999999996 [dLambda 0.04999999999999999]
TCL: Setting parameter firsttimestep to 0
TCL: Setting parameter alchLambda to 0.39999999999999997
Info: NONBONDED TABLE R-SQUARED SPACING: 0.0625
Info: NONBONDED TABLE SIZE: 705 POINTS
TCL: Setting parameter alchLambda2 to 0.44999999999999996
Info: NONBONDED TABLE R-SQUARED SPACING: 0.0625
Info: NONBONDED TABLE SIZE: 705 POINTS
TCL: Running for 1500000 steps
ETITLE: TS BOND ANGLE DIHED IMPRP ELECT VDW BOUNDARY MISC KINETIC TOTAL TEMP POTENTIAL TOTALAVG TEMPAVG PRESSURE GPRESSURE VOLUME PRESSAVG GPRESSAVG
ENERGY: 0 0.5158 7.2833 0.8238 0.0000 -11028.8299 1651.1749 0.0000 0.0000 1822.8433 -7546.1887 307.5596 -9369.0320 -7546.1887 307.5596 1466.8372 1554.1026 30336.5008 1466.8372 1554.1026
ENERGY: 300000 0.1820 4.4929 0.1705 0.0000 -10849.8791 1476.3227 0.0000 0.0000 1785.6482 -7583.0628 301.2838 -9368.7110 -7555.5860 302.0695 108.0122 183.5355 30546.0410 280.1304 338.9240
ENERGY: 600000 0.7378 3.3379 0.6156 0.0000 -10814.3621 1481.8846 0.0000 0.0000 1805.3319 -7522.4543 304.6050 -9327.7862 -7556.2504 301.7816 410.2580 471.3033 30037.1689 283.8151 340.6623
ENERGY: 900000 0.1487 6.7710 0.5636 0.0000 -10907.8079 1520.5509 0.0000 0.0000 1804.6356 -7575.1381 304.4875 -9379.7737 -7564.0528 302.0521 474.8666 602.7666 30549.7826 123.8386 187.5996
ENERGY: 1200000 0.7404 3.6185 2.2907 0.0000 -10743.2568 1410.9580 0.0000 0.0000 1761.7368 -7563.9124 297.2494 -9325.6492 -7562.3408 301.7243 -319.7349 -232.5546 30599.9342 -32.4366 37.3783
ENERGY: 1500000 1.4234 6.9311 0.5924 0.0000 -10783.6121 1459.5505 0.0000 0.0000 1753.1887 -7561.9259 295.8071 -9315.1146 -7552.0072 301.7050 33.6944 109.0352 30871.5677 -21.5296 49.3709
TCL: Running FEP window  10: Lambda1 0.44999999999999996 Lambda2 0.49999999999999994 [dLambda 0.04999999999999999]
TCL: Setting parameter firsttimestep to 0
TCL: Setting parameter alchLambda to 0.44999999999999996
Info: NONBONDED TABLE R-SQUARED SPACING: 0.0625
Info: NONBONDED TABLE SIZE: 705 POINTS
TCL: Setting parameter alchLambda2 to 0.49999999999999994
Info: NONBONDED TABLE R-SQUARED SPACING: 0.0625
Info: NONBONDED TABLE SIZE: 705 POINTS
TCL: Running for 1500000 steps
ETITLE: TS BOND ANGLE DIHED IMPRP ELECT VDW BOUNDARY MISC KINETIC TOTAL TEMP POTENTIAL TOTALAVG TEMPAVG PRESSURE GPRESSURE VOLUME PRESSAVG GPRESSAVG
ENERGY: 0 1.4234 6.9311 0.5924 0.0000 -10783.6127 1459.3663 0.0000 0.0000 1752.3114 -7562.9881 295.6591 -9315.2995 -7562.9881 295.6591 28.8085 112.0232 30871.5677 28.8085 112.0232
ENERGY: 300000 0.6062 4.2894 2.3357 0.0000 -10869.3184 1467.5332 0.0000 0.0000 1852.0548 -7542.4991 312.4883 -9394.5539 -7548.4909 302.6092 27.2322 106.2699 30618.3832 -4.9454 61.7946
ENERGY: 600000 0.0772 4.7544 0.5762 0.0000 -10780.6589 1458.9497 0.0000 0.0000 1765.4683 -7550.8332 297.8790 -9316.3015 -7522.0144 301.4333 -48.5843 18.4646 30972.2724 -66.5830 -1.2538
ENERGY: 900000 0.2157 6.0601 0.1272 0.0000 -10874.6994 1511.1007 0.0000 0.0000 1806.1624 -7551.0332 304.7451 -9357.1957 -7524.9086 302.3331 391.1326 436.8523 30697.0091 56.1522 109.9527
ENERGY: 1200000 0.6877 4.8537 0.4580 0.0000 -10865.9441 1482.5504 0.0000 0.0000 1798.5455 -7578.8488 303.4599 -9377.3943 -7544.5918 301.6451 -40.3975 55.3477 30658.4543 -21.1102 35.1133
ENERGY: 1500000 0.7055 2.2115 0.7318 0.0000 -10839.4448 1458.6619 0.0000 0.0000 1797.3566 -7579.7774 303.2593 -9377.1340 -7549.8886 301.6778 183.9787 271.3974 30302.6266 78.4932 132.4969
TCL: Running FEP window  11: Lambda1 0.49999999999999994 Lambda2 0.5499999999999999 [dLambda 0.04999999999999999]
TCL: Setting parameter firsttimestep to 0
TCL: Setting parameter alchLambda to 0.49999999999999994
Info: NONBONDED TABLE R-SQUARED SPACING: 0.0625
Info: NONBONDED TABLE SIZE: 705 POINTS
TCL: Setting parameter alchLambda2 to 0.5499999999999999
Info: NONBONDED TABLE R-SQUARED SPACING: 0.0625
Info: NONBONDED TABLE SIZE: 705 POINTS
TCL: Running for 1500000 steps
ETITLE: TS BOND ANGLE DIHED IMPRP ELECT VDW BOUNDARY MISC KINETIC TOTAL TEMP POTENTIAL TOTALAVG TEMPAVG PRESSURE GPRESSURE VOLUME PRESSAVG GPRESSAVG
ENERGY: 0 0.7055 2.2115 0.7318 0.0000 -10839.4439 1459.3413 0.0000 0.0000 1796.4650 -7579.9888 303.1089 -9376.4538 -7579.9888 303.1089 202.5611 282.7957 30302.6266 202.5611 282.7957
ENERGY: 300000 0.0649 2.5451 1.2893 0.0000 -10687.5047 1358.5767 0.0000 0.0000 1744.3090 -7580.7196 294.3089 -9325.0287 -7552.4494 301.9509 -572.3453 -551.1875 30623.7116 42.5162 122.3627
ENERGY: 600000 0.0610 3.7360 0.6875 0.0000 -10874.8684 1435.7813 0.0000 0.0000 1743.6205 -7690.9822 294.1927 -9434.6026 -7568.5299 300.7092 -494.6157 -452.8688 30838.4242 -231.8399 -164.6694
ENERGY: 900000 1.0098 2.0894 0.1482 0.0000 -10768.9702 1450.1998 0.0000 0.0000 1811.3115 -7504.2114 305.6139 -9315.5230 -7573.4467 300.6375 212.1136 280.4486 30365.2882 -183.8973 -112.1898
ENERGY: 1200000 0.9991 4.2539 1.3785 0.0000 -10771.1574 1420.4608 0.0000 0.0000 1706.1577 -7637.9075 287.8718 -9344.0652 -7572.3540 300.1937 -289.3176 -209.4226 30495.4516 -160.7977 -86.2806
ENERGY: 1500000 3.4651 6.4783 0.2008 0.0000 -10827.9451 1444.4730 0.0000 0.0000 1748.4266 -7624.9014 295.0036 -9373.3280 -7576.4357 299.4355 -449.0941 -420.8774 30897.9701 -167.1087 -102.9457
TCL: Running FEP window  12: Lambda1 0.5499999999999999 Lambda2 0.6    [dLambda 0.050000000000000044]
TCL: Setting parameter firsttimestep to 0
TCL: Setting parameter alchLambda to 0.5499999999999999
Info: NONBONDED TABLE R-SQUARED SPACING: 0.0625
Info: NONBONDED TABLE SIZE: 705 POINTS
TCL: Setting parameter alchLambda2 to 0.6
Info: NONBONDED TABLE R-SQUARED SPACING: 0.0625
Info: NONBONDED TABLE SIZE: 705 POINTS
TCL: Running for 1500000 steps
ETITLE: TS BOND ANGLE DIHED IMPRP ELECT VDW BOUNDARY MISC KINETIC TOTAL TEMP POTENTIAL TOTALAVG TEMPAVG PRESSURE GPRESSURE VOLUME PRESSAVG GPRESSAVG
ENERGY: 0 3.4651 6.4783 0.2008 0.0000 -10827.8971 1444.6690 0.0000 0.0000 1747.5427 -7625.5414 294.8545 -9373.0841 -7625.5414 294.8545 -506.0187 -415.3420 30897.9701 -506.0187 -415.3420
ENERGY: 300000 0.3967 3.8579 0.3290 0.0000 -10932.4730 1476.5349 0.0000 0.0000 1747.9446 -7703.4099 294.9223 -9451.3545 -7606.5167 303.0857 -120.7650 -150.1175 30648.8204 -386.0791 -358.5755
ENERGY: 600000 0.3972 3.4853 0.9385 0.0000 -10840.4285 1495.0586 0.0000 0.0000 1739.4519 -7601.0970 293.4894 -9340.5489 -7598.0279 297.9395 276.3564 316.4051 30700.7947 -221.4966 -174.5367
ENERGY: 900000 0.2089 6.9500 0.3476 0.0000 -10895.7288 1502.1368 0.0000 0.0000 1806.8040 -7579.2814 304.8534 -9386.0854 -7592.5684 299.9489 231.2471 317.1328 30571.3372 -143.2973 -96.8245
ENERGY: 1200000 0.1836 3.7787 0.1426 0.0000 -10723.2563 1389.0172 0.0000 0.0000 1833.4678 -7496.6663 309.3522 -9330.1341 -7587.1148 300.9271 -248.3613 -146.8164 30432.8938 -83.3787 -36.5764
ENERGY: 1500000 0.3252 3.0761 0.1389 0.0000 -10967.1862 1555.1267 0.0000 0.0000 1715.9843 -7692.5349 289.5298 -9408.5192 -7587.3577 300.0348 617.5617 669.7026 30491.7687 -46.6662 4.6409
TCL: Running FEP window  13: Lambda1 0.6    Lambda2 0.65   [dLambda 0.050000000000000044]
TCL: Setting parameter firsttimestep to 0
TCL: Setting parameter alchLambda to 0.6
Info: NONBONDED TABLE R-SQUARED SPACING: 0.0625
Info: NONBONDED TABLE SIZE: 705 POINTS
TCL: Setting parameter alchLambda2 to 0.65
Info: NONBONDED TABLE R-SQUARED SPACING: 0.0625
Info: NONBONDED TABLE SIZE: 705 POINTS
TCL: Running for 1500000 steps
ETITLE: TS BOND ANGLE DIHED IMPRP ELECT VDW BOUNDARY MISC KINETIC TOTAL TEMP POTENTIAL TOTALAVG TEMPAVG PRESSURE GPRESSURE VOLUME PRESSAVG GPRESSAVG
ENERGY: 0 0.3252 3.0761 0.1389 0.0000 -10967.2372 1554.9621 0.0000 0.0000 1715.0995 -7693.6353 289.3805 -9408.7348 -7693.6353 289.3805 589.0152 673.3091 30491.7687 589.0152 673.3091
ENERGY: 300000 1.0482 4.0966 0.3215 0.0000 -10782.1193 1522.2595 0.0000 0.0000 1799.0460 -7455.3475 303.5444 -9254.3935 -7563.4927 299.7986 739.0538 790.6328 30576.7284 253.3881 333.5145
ENERGY: 600000 1.3087 6.9799 1.2611 0.0000 -10869.5421 1477.3506 0.0000 0.0000 1788.6689 -7593.9728 301.7935 -9382.6418 -7565.6939 300.6615 52.0137 88.5536 30802.5700 144.8124 211.1288
ENERGY: 900000 1.1576 9.7039 0.4499 0.0000 -10889.3708 1527.5746 0.0000 0.0000 1743.2006 -7607.2841 294.1219 -9350.4847 -7587.6438 298.7586 272.1850 428.4256 30775.6868 88.2369 165.1076
ENERGY: 1200000 0.7562 3.7124 1.2566 0.0000 -10782.4097 1461.2448 0.0000 0.0000 1791.0289 -7524.4107 302.1917 -9315.4396 -7588.4862 298.8082 -80.9280 -63.1827 31100.2609 17.2821 88.7662
ENERGY: 1500000 0.5991 5.7437 0.4280 0.0000 -10786.6667 1484.3981 0.0000 0.0000 1777.7921 -7517.7056 299.9583 -9295.4977 -7582.8274 298.8002 547.8192 633.7350 30248.3340 37.9042 109.9385
TCL: Running FEP window  14: Lambda1 0.65   Lambda2 0.7000000000000001 [dLambda 0.050000000000000044]
TCL: Setting parameter firsttimestep to 0
TCL: Setting parameter alchLambda to 0.65
Info: NONBONDED TABLE R-SQUARED SPACING: 0.0625
Info: NONBONDED TABLE SIZE: 705 POINTS
TCL: Setting parameter alchLambda2 to 0.7000000000000001
Info: NONBONDED TABLE R-SQUARED SPACING: 0.0625
Info: NONBONDED TABLE SIZE: 705 POINTS
TCL: Running for 1500000 steps
ETITLE: TS BOND ANGLE DIHED IMPRP ELECT VDW BOUNDARY MISC KINETIC TOTAL TEMP POTENTIAL TOTALAVG TEMPAVG PRESSURE GPRESSURE VOLUME PRESSAVG GPRESSAVG
ENERGY: 0 0.5991 5.7437 0.4280 0.0000 -10786.6631 1484.7046 0.0000 0.0000 1776.9158 -7518.2719 299.8105 -9295.1877 -7518.2719 299.8105 565.8963 645.5139 30248.3340 565.8963 645.5139
ENERGY: 300000 0.0520 3.0862 0.8653 0.0000 -10829.8883 1441.6059 0.0000 0.0000 1843.6159 -7540.6629 311.0645 -9384.2788 -7558.0196 304.2497 -219.9633 -125.0841 30759.0695 -21.5916 68.1585
ENERGY: 600000 0.0930 5.2404 0.5067 0.0000 -10674.7421 1447.1099 0.0000 0.0000 1821.6786 -7400.1135 307.3631 -9221.7920 -7540.1389 302.8833 326.6835 456.7364 30535.3957 57.1083 148.5830
ENERGY: 900000 0.4539 4.5734 0.6100 0.0000 -10688.2769 1388.7747 0.0000 0.0000 1813.3158 -7480.5492 305.9521 -9293.8650 -7540.0461 304.0154 -543.4807 -401.3723 31268.5854 -55.4555 34.7158
ENERGY: 1200000 0.1164 5.4930 1.1677 0.0000 -10917.1427 1527.0972 0.0000 0.0000 1726.2909 -7656.9774 291.2688 -9383.2683 -7548.7606 302.4199 546.0824 541.3409 30325.4351 99.8917 175.7014
ENERGY: 1500000 0.1361 3.2719 0.2571 0.0000 -10753.7421 1412.6058 0.0000 0.0000 1784.0087 -7553.4625 301.0072 -9337.4712 -7563.3824 301.6758 -718.5649 -672.0467 31676.2224 -4.2551 68.9304
TCL: Running FEP window  15: Lambda1 0.7000000000000001 Lambda2 0.7500000000000001 [dLambda 0.050000000000000044]
TCL: Setting parameter firsttimestep to 0
TCL: Setting parameter alchLambda to 0.7000000000000001
Info: NONBONDED TABLE R-SQUARED SPACING: 0.0625
Info: NONBONDED TABLE SIZE: 705 POINTS
TCL: Setting parameter alchLambda2 to 0.7500000000000001
Info: NONBONDED TABLE R-SQUARED SPACING: 0.0625
Info: NONBONDED TABLE SIZE: 705 POINTS
TCL: Running for 1500000 steps
ETITLE: TS BOND ANGLE DIHED IMPRP ELECT VDW BOUNDARY MISC KINETIC TOTAL TEMP POTENTIAL TOTALAVG TEMPAVG PRESSURE GPRESSURE VOLUME PRESSAVG GPRESSAVG
ENERGY: 0 0.1361 3.2719 0.2571 0.0000 -10753.7351 1412.3440 0.0000 0.0000 1783.0714 -7554.6545 300.8491 -9337.7259 -7554.6545 300.8491 -754.6001 -670.8482 31676.2224 -754.6001 -670.8482
ENERGY: 300000 0.1682 5.6702 0.3104 0.0000 -10808.5063 1489.8841 0.0000 0.0000 1760.0433 -7552.4300 296.9637 -9312.4733 -7497.1833 303.4720 170.0485 235.4109 30842.1662 105.6383 172.8484
ENERGY: 600000 1.4956 4.1934 1.4107 0.0000 -10721.9653 1358.7845 0.0000 0.0000 1844.3996 -7511.6815 311.1967 -9356.0810 -7507.4856 305.1658 -946.0822 -865.9598 30915.9030 -165.7085 -109.1575
ENERGY: 900000 0.2492 4.0261 0.6467 0.0000 -10755.2457 1351.7246 0.0000 0.0000 1827.1400 -7571.4590 308.2846 -9398.5990 -7528.9340 304.9684 -740.4557 -685.5397 30390.0451 -61.2273 -8.4764
ENERGY: 1200000 1.4556 7.3737 0.2190 0.0000 -10721.1087 1401.4838 0.0000 0.0000 1722.6006 -7587.9760 290.6461 -9310.5767 -7550.4559 302.7868 -445.4375 -392.4706 30963.9238 66.2153 125.5314
ENERGY: 1500000 1.6023 8.4035 0.5176 0.0000 -10582.7491 1303.6543 0.0000 0.0000 1766.6886 -7501.8828 298.0849 -9268.5714 -7544.5549 302.3015 -893.2007 -856.8130 30607.4222 -35.9142 29.8182
TCL: Running FEP window  16: Lambda1 0.7500000000000001 Lambda2 0.8000000000000002 [dLambda 0.050000000000000044]
TCL: Setting parameter firsttimestep to 0
TCL: Setting parameter alchLambda to 0.7500000000000001
Info: NONBONDED TABLE R-SQUARED SPACING: 0.0625
Info: NONBONDED TABLE SIZE: 705 POINTS
TCL: Setting parameter alchLambda2 to 0.8000000000000002
Info: NONBONDED TABLE R-SQUARED SPACING: 0.0625
Info: NONBONDED TABLE SIZE: 705 POINTS
TCL: Running for 1500000 steps
ETITLE: TS BOND ANGLE DIHED IMPRP ELECT VDW BOUNDARY MISC KINETIC TOTAL TEMP POTENTIAL TOTALAVG TEMPAVG PRESSURE GPRESSURE VOLUME PRESSAVG GPRESSAVG
ENERGY: 0 1.6023 8.4035 0.5176 0.0000 -10582.7394 1303.4566 0.0000 0.0000 1765.8088 -7502.9506 297.9364 -9268.7594 -7502.9506 297.9364 -935.7676 -854.9579 30607.4222 -935.7676 -854.9579
ENERGY: 300000 0.2811 5.0807 0.3937 0.0000 -10774.1934 1371.2774 0.0000 0.0000 1808.1067 -7589.0538 305.0731 -9397.1605 -7547.4584 298.2720 -400.9664 -420.0591 30264.2065 -432.3723 -402.3684
ENERGY: 600000 0.5629 7.8238 0.6395 0.0000 -10865.0777 1480.1689 0.0000 0.0000 1770.7480 -7605.1346 298.7698 -9375.8826 -7556.6220 299.7325 54.4817 99.3161 30757.9528 -114.2782 -88.1240
ENERGY: 900000 1.6294 6.6638 0.5487 0.0000 -10810.5730 1456.2111 0.0000 0.0000 1760.9806 -7584.5395 297.1218 -9345.5201 -7556.0491 300.2882 -81.3423 -44.3703 30843.5655 -174.2970 -132.8789
ENERGY: 1200000 0.4231 4.7203 2.0099 0.0000 -10862.6892 1475.7043 0.0000 0.0000 1775.8647 -7603.9669 299.6331 -9379.8316 -7563.3494 299.9988 -54.4047 -10.5304 30887.5328 -33.8629 17.6678
ENERGY: 1500000 1.4105 5.5090 0.1486 0.0000 -10836.5590 1453.5047 0.0000 0.0000 1780.8728 -7595.1134 300.4781 -9375.9862 -7566.7185 300.3529 -121.7998 -63.8308 30357.3959 -49.3843 6.8559
TCL: Running FEP window  17: Lambda1 0.8000000000000002 Lambda2 0.8500000000000002 [dLambda 0.050000000000000044]
TCL: Setting parameter firsttimestep to 0
TCL: Setting parameter alchLambda to 0.8000000000000002
Info: NONBONDED TABLE R-SQUARED SPACING: 0.0625
Info: NONBONDED TABLE SIZE: 705 POINTS
TCL: Setting parameter alchLambda2 to 0.8500000000000002
Info: NONBONDED TABLE R-SQUARED SPACING: 0.0625
Info: NONBONDED TABLE SIZE: 705 POINTS
TCL: Running for 1500000 steps
ETITLE: TS BOND ANGLE DIHED IMPRP ELECT VDW BOUNDARY MISC KINETIC TOTAL TEMP POTENTIAL TOTALAVG TEMPAVG PRESSURE GPRESSURE VOLUME PRESSAVG GPRESSAVG
ENERGY: 0 1.4105 5.5090 0.1486 0.0000 -10836.5220 1453.3065 0.0000 0.0000 1779.9456 -7596.2018 300.3217 -9376.1475 -7596.2018 300.3217 -153.7522 -58.1256 30357.3959 -153.7522 -58.1256
ENERGY: 300000 0.3918 4.1519 1.2418 0.0000 -10632.2170 1313.7473 0.0000 0.0000 1788.4417 -7524.2424 301.7552 -9312.6841 -7584.8721 300.3838 -1065.5034 -978.3047 31111.7106 -637.0279 -529.7995
ENERGY: 600000 0.2528 2.8948 2.1668 0.0000 -10826.6677 1402.1503 0.0000 0.0000 1791.5887 -7627.6143 302.2862 -9419.2030 -7569.6082 301.7415 -431.7945 -328.6562 30269.5078 -473.4629 -376.0559
ENERGY: 900000 0.1125 5.1388 0.3804 0.0000 -10941.8771 1468.3407 0.0000 0.0000 1733.0490 -7734.8557 292.4090 -9467.9047 -7576.3214 301.0529 -179.0628 -122.3528 30504.8102 -407.3301 -322.3092
ENERGY: 1200000 0.2271 4.5035 0.4612 0.0000 -10833.1100 1473.4323 0.0000 0.0000 1750.9118 -7603.5741 295.4229 -9354.4859 -7588.8940 299.7565 54.0371 88.5847 30807.4192 -280.4594 -196.6231
ENERGY: 1500000 0.4201 3.0690 0.7245 0.0000 -10814.2357 1474.0200 0.0000 0.0000 1794.0644 -7541.9378 302.7039 -9336.0022 -7583.4891 300.2689 104.6201 170.3131 30811.4171 -218.2860 -130.4997
TCL: Running FEP window  18: Lambda1 0.8500000000000002 Lambda2 0.9000000000000002 [dLambda 0.050000000000000044]
TCL: Setting parameter firsttimestep to 0
TCL: Setting parameter alchLambda to 0.8500000000000002
Info: NONBONDED TABLE R-SQUARED SPACING: 0.0625
Info: NONBONDED TABLE SIZE: 705 POINTS
TCL: Setting parameter alchLambda2 to 0.9000000000000002
Info: NONBONDED TABLE R-SQUARED SPACING: 0.0625
Info: NONBONDED TABLE SIZE: 705 POINTS
TCL: Running for 1500000 steps
ETITLE: TS BOND ANGLE DIHED IMPRP ELECT VDW BOUNDARY MISC KINETIC TOTAL TEMP POTENTIAL TOTALAVG TEMPAVG PRESSURE GPRESSURE VOLUME PRESSAVG GPRESSAVG
ENERGY: 0 0.4201 3.0690 0.7245 0.0000 -10814.2270 1473.7250 0.0000 0.0000 1793.1811 -7543.1074 302.5548 -9336.2885 -7543.1074 302.5548 75.1206 173.5989 30811.4171 75.1206 173.5989
ENERGY: 300000 0.0428 3.0909 0.1417 0.0000 -10767.2388 1459.7646 0.0000 0.0000 1804.2694 -7499.9293 304.4257 -9304.1987 -7521.6145 306.0148 -10.7507 32.7827 30998.9254 64.5185 137.0307
ENERGY: 600000 0.7526 4.2234 0.4054 0.0000 -10744.0405 1383.9148 0.0000 0.0000 1834.3087 -7520.4357 309.4941 -9354.7444 -7552.1379 305.6393 -556.7373 -506.7511 31013.3006 -92.5572 -36.0688
ENERGY: 900000 0.5176 4.0036 1.1181 0.0000 -10729.7651 1378.9588 0.0000 0.0000 1837.1803 -7507.9866 309.9786 -9345.1670 -7533.3319 306.5749 -352.5463 -240.2238 30493.0440 -58.0165 13.1748
ENERGY: 1200000 0.0346 3.7113 0.3689 0.0000 -10958.7974 1552.5073 0.0000 0.0000 1757.4968 -7644.6784 296.5340 -9402.1753 -7554.5154 305.2240 828.6716 839.5222 30392.5064 -18.4747 50.9553
ENERGY: 1500000 1.1223 3.6338 0.4333 0.0000 -10999.9213 1562.4376 0.0000 0.0000 1811.5797 -7620.7147 305.6591 -9432.2943 -7569.4130 304.5810 636.6110 663.4707 30374.7781 -8.3542 51.5043
TCL: Running FEP window  19: Lambda1 0.9000000000000002 Lambda2 0.9500000000000003 [dLambda 0.050000000000000044]
TCL: Setting parameter firsttimestep to 0
TCL: Setting parameter alchLambda to 0.9000000000000002
Info: NONBONDED TABLE R-SQUARED SPACING: 0.0625
Info: NONBONDED TABLE SIZE: 705 POINTS
TCL: Setting parameter alchLambda2 to 0.9500000000000003
Info: NONBONDED TABLE R-SQUARED SPACING: 0.0625
Info: NONBONDED TABLE SIZE: 705 POINTS
TCL: Running for 1500000 steps
ETITLE: TS BOND ANGLE DIHED IMPRP ELECT VDW BOUNDARY MISC KINETIC TOTAL TEMP POTENTIAL TOTALAVG TEMPAVG PRESSURE GPRESSURE VOLUME PRESSAVG GPRESSAVG
ENERGY: 0 1.1223 3.6338 0.4333 0.0000 -10999.9273 1562.6674 0.0000 0.0000 1810.6944 -7621.3761 305.5098 -9432.0705 -7621.3761 305.5098 602.6279 675.3824 30374.7781 602.6279 675.3824
ENERGY: 300000 0.7500 3.2004 0.1183 0.0000 -10840.7569 1440.2956 0.0000 0.0000 1832.8807 -7563.5119 309.2532 -9396.3926 -7594.7087 304.1966 -60.2109 17.9995 30512.8731 322.5581 358.0958
ENERGY: 600000 0.4905 4.8450 1.1098 0.0000 -10815.3387 1491.7626 0.0000 0.0000 1752.0403 -7565.0905 295.6133 -9317.1308 -7581.7819 301.5163 418.2148 458.0015 30566.3558 126.0628 173.2447
ENERGY: 900000 0.0873 4.4822 0.4732 0.0000 -10702.3992 1409.4027 0.0000 0.0000 1766.2842 -7521.6696 298.0166 -9287.9538 -7580.2860 301.3068 -152.7242 -103.5910 30678.0954 62.6854 122.0605
ENERGY: 1200000 0.1848 7.1870 0.4189 0.0000 -10809.9124 1453.6245 0.0000 0.0000 1785.3418 -7563.1555 301.2321 -9348.4973 -7573.2833 301.2818 45.7230 120.5164 30729.0501 66.5511 125.0424
ENERGY: 1500000 0.0249 2.8160 0.0286 0.0000 -10920.8771 1503.2442 0.0000 0.0000 1800.7207 -7614.0426 303.8269 -9414.7633 -7569.2368 302.1603 219.8818 350.9657 30603.0292 51.3724 115.7849
TCL: Running FEP window  20: Lambda1 0.9500000000000003 Lambda2 1.0    [dLambda 0.04999999999999971]
TCL: Setting parameter firsttimestep to 0
TCL: Setting parameter alchLambda to 0.9500000000000003
Info: NONBONDED TABLE R-SQUARED SPACING: 0.0625
Info: NONBONDED TABLE SIZE: 705 POINTS
TCL: Setting parameter alchLambda2 to 1.0
Info: NONBONDED TABLE R-SQUARED SPACING: 0.0625
Info: NONBONDED TABLE SIZE: 705 POINTS
TCL: Running for 1500000 steps
ETITLE: TS BOND ANGLE DIHED IMPRP ELECT VDW BOUNDARY MISC KINETIC TOTAL TEMP POTENTIAL TOTALAVG TEMPAVG PRESSURE GPRESSURE VOLUME PRESSAVG GPRESSAVG
ENERGY: 0 0.0249 2.8160 0.0286 0.0000 -10920.8696 1502.9931 0.0000 0.0000 1799.7934 -7615.2135 303.6705 -9415.0069 -7615.2135 303.6705 249.8772 354.1192 30603.0292 249.8772 354.1192
ENERGY: 300000 0.0525 4.7839 0.2426 0.0000 -10797.9575 1446.3013 0.0000 0.0000 1774.8343 -7571.7429 299.4593 -9346.5772 -7577.4513 301.5428 13.0181 19.0466 30717.8260 -11.8787 50.6513
ENERGY: 600000 0.0904 3.7921 0.0978 0.0000 -10680.2241 1399.4523 0.0000 0.0000 1794.2781 -7482.5135 302.7399 -9276.7915 -7570.3521 302.1034 -81.3942 -14.1647 30656.3599 -88.9861 -36.6577
ENERGY: 900000 0.0199 2.8590 0.1610 0.0000 -10881.2256 1479.8528 0.0000 0.0000 1798.5401 -7599.7928 303.4590 -9398.3329 -7567.7549 302.3076 151.4572 235.9657 30531.3454 18.2766 83.1482
ENERGY: 1200000 1.5601 7.3727 0.5630 0.0000 -10841.2591 1488.4177 0.0000 0.0000 1785.8404 -7557.5052 301.3163 -9343.3456 -7565.7840 301.9847 343.5247 354.6472 30734.9714 112.2977 170.3614
ENERGY: 1500000 0.7025 4.5156 0.1757 0.0000 -10800.8375 1407.2491 0.0000 0.0000 1773.0882 -7615.1064 299.1647 -9388.1946 -7567.6521 301.8830 -450.0095 -385.7082 30581.0102 51.1555 105.1850
TCL: Exiting due to exit command.
