Info: SIMULATION PARAMETERS:
Info: TIMESTEP               2
Info: NUMBER OF STEPS        0
Info: STEPS PER CYCLE        10
Info: PERIODIC CELL BASIS 1  32.2185 0 0
Info: PERIODIC CELL BASIS 2  0 30.1652 0
Info: PERIODIC CELL BASIS 3  0 0 30.535
Info: PERIODIC CELL CENTER   0 0 0
Info: WRAPPING WATERS AROUND PERIODIC BOUNDARIES ON OUTPUT.
Info: WRAPPING ALL CLUSTERS AROUND PERIODIC BOUNDARIES ON OUTPUT.
Info: FIRST LDB TIMESTEP     50
Info: LAST LDB TIMESTEP     -1
Info: HOM BACKGROUND SCALING 1
Info: PME BACKGROUND SCALING 1
Info: MIN ATOMS PER PATCH    40
Info: EMPTY PATCH LOAD       40 ATOMS
Info: VELOCITY FILE          mobley_8785107_equil.vel
Info: CENTER OF MASS MOVING INITIALLY? NO
Info: DIELECTRIC             1
Info: EXCLUDE                SCALED ONE-FOUR
Info: 1-4 ELECTROSTATICS SCALED BY 0.833333
Info: MODIFIED 1-4 VDW PARAMETERS WILL BE USED
Info: DCD FILENAME           mobley_8785107_prod.dcd
Info: DCD FREQUENCY          100000
Info: DCD FIRST STEP         100000
Info: DCD FILE WILL CONTAIN UNIT CELL DATA
Info: XST FILENAME           mobley_8785107_prod.xst
Info: XST FREQUENCY          100000
Info: NO VELOCITY DCD OUTPUT
Info: NO FORCE DCD OUTPUT
Info: OUTPUT FILENAME        mobley_8785107_prod
Info: BINARY OUTPUT FILES WILL BE USED
Info: RESTART FILENAME       mobley_8785107_prod.restart
Info: RESTART FREQUENCY      100000
Info: BINARY RESTART FILES WILL BE USED
Info: CUTOFF                 9
Info: PAIRLIST DISTANCE      11
Info: PAIRLIST SHRINK RATE   0.01
Info: PAIRLIST GROW RATE     0.01
Info: PAIRLIST TRIGGER       0.3
Info: PAIRLISTS PER CYCLE    2
Info: PAIRLISTS ENABLED
Info: MARGIN                 2
Info: HYDROGEN GROUP CUTOFF  2.5
Info: PATCH DIMENSION        15.5
Info: ENERGY OUTPUT STEPS    100000
Info: ENERGY EVALUATION STEPS    100000
Info: OUTPUT ENERGY PRECISION 4
Info: CROSSTERM ENERGY INCLUDED IN DIHEDRAL
Info: TIMING OUTPUT STEPS    1000000
Info: PRESSURE OUTPUT STEPS  100000
Info: ALCHEMICAL FEP ON
Info: FEP CURRENT LAMBDA VALUE     1
Info: FEP COMPARISON LAMBDA VALUE  0.95
Info: FEP INTRA-ALCHEMICAL NON-BONDED INTERACTIONS WILL BE RETAINED
Info: FEP INTRA-ALCHEMICAL BONDED INTERACTIONS WILL BE RETAINED
Info: FEP VDW SHIFTING COEFFICIENT 5
Info: FEP ELEC. ACTIVE FOR ANNIHILATED PARTICLES BETWEEN LAMBDA = 0 AND LAMBDA = 0.5
Info: FEP ELEC. ACTIVE FOR EXNIHILATED PARTICLES BETWEEN LAMBDA = 0.5 AND LAMBDA = 1
Info: FEP VDW ACTIVE FOR ANNIHILATED PARTICLES BETWEEN LAMBDA = 0 AND LAMBDA = 1
Info: FEP VDW ACTIVE FOR EXNIHILATED PARTICLES BETWEEN LAMBDA = 0 AND LAMBDA = 1
Info: FEP BOND ACTIVE FOR ANNIHILATED PARTICLES BETWEEN LAMBDA = 1 AND LAMBDA = 1
Info: FEP BOND ACTIVE FOR EXNIHILATED PARTICLES BETWEEN LAMBDA = 0 AND LAMBDA = 0
Info: LANGEVIN DYNAMICS ACTIVE
Info: LANGEVIN TEMPERATURE   300
Info: LANGEVIN USING BBK INTEGRATOR
Info: LANGEVIN DAMPING COEFFICIENT IS 1 INVERSE PS
Info: LANGEVIN DYNAMICS APPLIED TO HYDROGENS
Info: LANGEVIN PISTON PRESSURE CONTROL ACTIVE
Info:        TARGET PRESSURE IS 1.01325 BAR
Info:     OSCILLATION PERIOD IS 50 FS
Info:             DECAY TIME IS 25 FS
Info:     PISTON TEMPERATURE IS 300 K
Info:       PRESSURE CONTROL IS GROUP-BASED
Info:    INITIAL STRAIN RATE IS -7.18376e-06 -7.18376e-06 -7.18376e-06
Info:       CELL FLUCTUATION IS ISOTROPIC
Info: PARTICLE MESH EWALD (PME) ACTIVE
Info: PME TOLERANCE               1e-06
Info: PME EWALD COEFFICIENT       0.348832
Info: PME INTERPOLATION ORDER     4
Info: PME GRID DIMENSIONS         36 32 32
Info: PME MAXIMUM GRID SPACING    1
Info: PME CALCULATION WILL BE PERFORMED ON GPU
Info: FULL ELECTROSTATIC EVALUATION FREQUENCY      2
Info: USING VERLET I (r-RESPA) MTS SCHEME.
Info: C1 SPLITTING OF LONG RANGE ELECTROSTATICS
Info: PLACING ATOMS IN PATCHES BY HYDROGEN GROUPS
Info: RIGID BONDS TO HYDROGEN : ALL
Info:         ERROR TOLERANCE : 1e-08
Info:          MAX ITERATIONS : 100
Info: RIGID WATER USING SETTLE ALGORITHM
Info: RANDOM NUMBER SEED     1743630721
Info: USE HYDROGEN BONDS?    NO
Info: Using AMBER format force field!
Info: AMBER PARM FILE        mobley_8785107.prmtop
Info: COORDINATE PDB         mobley_8785107.pdb
Info: Exclusions will be read from PARM file!
Info: SCNB (VDW SCALING)     2
Info: USING ARITHMETIC MEAN TO COMBINE L-J SIGMA PARAMETERS
Info: BINARY COORDINATES     mobley_8785107_equil.coor
Info: SUMMARY OF PARAMETERS:
Info: 6 BONDS
Info: 7 ANGLES
Info:   7 HARMONIC
Info:   0 COSINE-BASED
Info: 11 DIHEDRAL
Info: 0 IMPROPER
Info: 0 CROSSTERM
Info: 0 VDW
Info: 21 VDW_PAIRS
Info: 0 NBTHOLE_PAIRS
Info: To read alchdata from file: mobley_8785107.pdb
Info: To read alchflag data from column: 5
Info: STRUCTURE SUMMARY:
Info: 2929 ATOMS
Info: 2929 BONDS
Info: 37 ANGLES
Info: 71 DIHEDRALS
Info: 0 IMPROPERS
Info: 0 CROSSTERMS
Info: 3012 EXCLUSIONS
Info: 2922 RIGID BONDS
Info: ALCH: 0 ATOMS TO DISAPPEAR IN FINAL STATE
Info: ALCH: 19 ATOMS TO APPEAR IN FINAL STATE
Info: 5865 DEGREES OF FREEDOM
Info: 977 HYDROGEN GROUPS
Info: 4 ATOMS IN LARGEST HYDROGEN GROUP
Info: 977 MIGRATION GROUPS
Info: 4 ATOMS IN LARGEST MIGRATION GROUP
Info: TOTAL MASS = 17575.7 amu
Info: TOTAL CHARGE = -0.000500023 e
Info: MASS DENSITY = 0.983471 g/cm^3
Info: ATOM DENSITY = 0.0986983 atoms/A^3
Info: ADDED 0 IMPLICIT EXCLUSIONS
Info: NONBONDED TABLE R-SQUARED SPACING: 0.0625
Info: NONBONDED TABLE SIZE: 705 POINTS
Info: REMOVING COM VELOCITY -0.0893066 0.141346 -0.0622914
Info: Use 3D box decompostion in PME FFT.
Info: Updated CUDA force table with 4096 elements.
Info: Updated CUDA LJ table with 6 x 6 elements.
Info: Found 22 unique exclusion lists needing 56 bytes
TCL: Running for 1500000 steps
ETITLE: TS BOND ANGLE DIHED IMPRP ELECT VDW BOUNDARY MISC KINETIC TOTAL TEMP POTENTIAL TOTALAVG TEMPAVG PRESSURE GPRESSURE VOLUME PRESSAVG GPRESSAVG
ENERGY: 0 0.7709 13.5777 11.2542 0.0000 -10589.7678 1382.2252 0.0000 0.0000 1802.8336 -7379.1062 309.3699 -9181.9397 -7379.1062 309.3699 -196.7037 -111.5619 29676.2945 -196.7037 -111.5619
ENERGY: 300000 1.2597 11.3796 11.2871 0.0000 -10598.2391 1460.0263 0.0000 0.0000 1702.2987 -7411.9877 292.1179 -9114.2865 -7435.3556 299.3613 286.3189 404.5192 30117.7561 -145.0450 -99.7802
ENERGY: 600000 1.3455 13.4265 12.0862 0.0000 -10629.2826 1436.9635 0.0000 0.0000 1801.6487 -7363.8122 309.1665 -9165.4609 -7417.4569 300.8385 72.5503 137.8006 30288.8182 17.6065 75.3938
ENERGY: 900000 2.5606 10.6575 13.4882 0.0000 -10708.6484 1503.2760 0.0000 0.0000 1722.1405 -7456.5255 295.5228 -9178.6660 -7405.5449 302.0749 897.3233 950.2867 29563.9615 41.6071 101.7025
ENERGY: 1200000 3.3499 16.6116 10.6345 0.0000 -10683.7413 1479.2941 0.0000 0.0000 1742.1327 -7431.7186 298.9535 -9173.8512 -7408.8016 301.7241 378.0611 408.1587 30033.4400 69.4955 132.5477
ENERGY: 1500000 1.8286 10.1691 13.9136 0.0000 -10662.9715 1469.5205 0.0000 0.0000 1707.2438 -7460.2959 292.9665 -9167.5397 -7411.4972 301.0771 64.8328 147.4016 30447.2572 88.8706 154.1625
TCL: Running FEP window   2: Lambda1 0.95   Lambda2 0.8999999999999999 [dLambda -0.050000000000000044]
TCL: Setting parameter firsttimestep to 0
TCL: Setting parameter alchLambda to 0.95
Info: NONBONDED TABLE R-SQUARED SPACING: 0.0625
Info: NONBONDED TABLE SIZE: 705 POINTS
TCL: Setting parameter alchLambda2 to 0.8999999999999999
Info: NONBONDED TABLE R-SQUARED SPACING: 0.0625
Info: NONBONDED TABLE SIZE: 705 POINTS
TCL: Running for 1500000 steps
ETITLE: TS BOND ANGLE DIHED IMPRP ELECT VDW BOUNDARY MISC KINETIC TOTAL TEMP POTENTIAL TOTALAVG TEMPAVG PRESSURE GPRESSURE VOLUME PRESSAVG GPRESSAVG
ENERGY: 0 1.8286 10.1691 13.9136 0.0000 -10662.2519 1469.4767 0.0000 0.0000 1706.3563 -7460.5075 292.8142 -9166.8639 -7460.5075 292.8142 52.4546 134.4680 30447.2572 52.4546 134.4680
ENERGY: 300000 1.2309 11.0813 10.9713 0.0000 -10679.8151 1476.6017 0.0000 0.0000 1686.4693 -7493.4606 289.4015 -9179.9299 -7463.5543 294.7212 509.3958 626.2702 29734.9107 22.6111 106.8479
ENERGY: 600000 3.5852 15.4012 10.7563 0.0000 -10633.0516 1366.4548 0.0000 0.0000 1746.6190 -7490.2351 299.7233 -9236.8541 -7441.5684 297.5492 -364.1527 -305.2136 29713.8691 -5.5706 73.8712
ENERGY: 900000 3.7631 11.3896 10.3186 0.0000 -10569.3884 1420.5349 0.0000 0.0000 1685.3023 -7438.0799 289.2013 -9123.3822 -7439.5463 296.8958 -258.0752 -181.0272 30316.4555 -87.0174 -11.0452
ENERGY: 1200000 2.3500 11.6309 11.4260 0.0000 -10607.6929 1399.6789 0.0000 0.0000 1737.4825 -7445.1246 298.1555 -9182.6071 -7423.0954 296.9917 25.5922 30.0665 29889.6291 -44.7589 19.9558
ENERGY: 1500000 2.9110 13.0555 11.2408 0.0000 -10721.0277 1479.3163 0.0000 0.0000 1758.7137 -7455.7904 301.7988 -9214.5040 -7426.1576 297.3573 366.9350 411.9293 29862.7803 30.4308 91.9250
TCL: Running FEP window   3: Lambda1 0.8999999999999999 Lambda2 0.8499999999999999 [dLambda -0.050000000000000044]
TCL: Setting parameter firsttimestep to 0
TCL: Setting parameter alchLambda to 0.8999999999999999
Info: NONBONDED TABLE R-SQUARED SPACING: 0.0625
Info: NONBONDED TABLE SIZE: 705 POINTS
TCL: Setting parameter alchLambda2 to 0.8499999999999999
Info: NONBONDED TABLE R-SQUARED SPACING: 0.0625
Info: NONBONDED TABLE SIZE: 705 POINTS
TCL: Running for 1500000 steps
ETITLE: TS BOND ANGLE DIHED IMPRP ELECT VDW BOUNDARY MISC KINETIC TOTAL TEMP POTENTIAL TOTALAVG TEMPAVG PRESSURE GPRESSURE VOLUME PRESSAVG GPRESSAVG
ENERGY: 0 2.9110 13.0555 11.2408 0.0000 -10720.4890 1479.6504 0.0000 0.0000 1757.8335 -7455.7978 301.6478 -9213.6313 -7455.7978 301.6478 317.7041 400.7246 29862.7803 317.7041 400.7246
ENERGY: 300000 1.5712 8.0172 14.6350 0.0000 -10601.4064 1463.4586 0.0000 0.0000 1758.3691 -7355.3552 301.7397 -9113.7244 -7412.9180 300.9260 439.9048 465.8750 30308.7247 282.5996 346.6115
ENERGY: 600000 2.6256 12.7871 10.4640 0.0000 -10493.1470 1332.1909 0.0000 0.0000 1728.6354 -7406.4440 296.6373 -9135.0794 -7398.6371 300.6364 -514.0785 -437.9518 30108.4401 -82.8118 -30.9716
ENERGY: 900000 0.8338 11.1492 12.2715 0.0000 -10672.7861 1471.4055 0.0000 0.0000 1802.0239 -7375.1023 309.2309 -9177.1261 -7391.4428 300.5870 534.4644 572.6106 29928.8934 -118.0234 -58.7055
ENERGY: 1200000 2.9070 12.0637 10.6825 0.0000 -10537.5902 1438.8059 0.0000 0.0000 1723.9581 -7349.1731 295.8347 -9073.1311 -7391.5900 300.0629 124.0606 190.8855 30378.5175 -50.5594 15.6151
ENERGY: 1500000 1.7794 16.4627 10.3931 0.0000 -10541.2547 1419.0553 0.0000 0.0000 1735.7531 -7357.8110 297.8587 -9093.5641 -7393.5721 300.5066 243.3992 274.0658 30149.2396 -41.9497 20.5859
TCL: Running FEP window   4: Lambda1 0.8499999999999999 Lambda2 0.7999999999999998 [dLambda -0.050000000000000044]
TCL: Setting parameter firsttimestep to 0
TCL: Setting parameter alchLambda to 0.8499999999999999
Info: NONBONDED TABLE R-SQUARED SPACING: 0.0625
Info: NONBONDED TABLE SIZE: 705 POINTS
TCL: Setting parameter alchLambda2 to 0.7999999999999998
Info: NONBONDED TABLE R-SQUARED SPACING: 0.0625
Info: NONBONDED TABLE SIZE: 705 POINTS
TCL: Running for 1500000 steps
ETITLE: TS BOND ANGLE DIHED IMPRP ELECT VDW BOUNDARY MISC KINETIC TOTAL TEMP POTENTIAL TOTALAVG TEMPAVG PRESSURE GPRESSURE VOLUME PRESSAVG GPRESSAVG
ENERGY: 0 1.7794 16.4627 10.3931 0.0000 -10541.0149 1419.0339 0.0000 0.0000 1734.8885 -7358.4572 297.7104 -9093.3458 -7358.4572 297.7104 184.1173 260.4800 30149.2396 184.1173 260.4800
ENERGY: 300000 1.7595 12.5366 9.5548 0.0000 -10575.4742 1414.1994 0.0000 0.0000 1771.1457 -7366.2782 303.9322 -9137.4239 -7344.3459 301.5996 -171.5743 -109.5365 30324.7775 113.0722 171.6730
ENERGY: 600000 3.2062 8.4858 12.1596 0.0000 -10568.0190 1419.3046 0.0000 0.0000 1804.9588 -7319.9040 309.7346 -9124.8628 -7359.7052 302.1367 64.5166 102.5330 30489.4848 68.4702 124.0680
ENERGY: 900000 2.3836 9.5961 13.7068 0.0000 -10619.1665 1433.4427 0.0000 0.0000 1749.1173 -7410.9200 300.1520 -9160.0373 -7363.0498 302.6172 2.0636 73.8514 30114.2204 -26.1883 34.8525
ENERGY: 1200000 2.7172 13.9112 11.1102 0.0000 -10648.7301 1447.2764 0.0000 0.0000 1709.6376 -7464.0775 293.3772 -9173.7151 -7383.0419 301.6084 148.7309 203.7461 29891.0828 33.6416 94.5427
ENERGY: 1500000 1.9540 10.4002 12.8290 0.0000 -10532.8991 1326.4907 0.0000 0.0000 1796.7514 -7384.4739 308.3262 -9181.2253 -7388.4946 301.7223 -590.2509 -553.7288 30134.1229 -33.2843 24.3287
TCL: Running FEP window   5: Lambda1 0.7999999999999998 Lambda2 0.7499999999999998 [dLambda -0.050000000000000044]
TCL: Setting parameter firsttimestep to 0
TCL: Setting parameter alchLambda to 0.7999999999999998
Info: NONBONDED TABLE R-SQUARED SPACING: 0.0625
Info: NONBONDED TABLE SIZE: 705 POINTS
TCL: Setting parameter alchLambda2 to 0.7499999999999998
Info: NONBONDED TABLE R-SQUARED SPACING: 0.0625
Info: NONBONDED TABLE SIZE: 705 POINTS
TCL: Running for 1500000 steps
ETITLE: TS BOND ANGLE DIHED IMPRP ELECT VDW BOUNDARY MISC KINETIC TOTAL TEMP POTENTIAL TOTALAVG TEMPAVG PRESSURE GPRESSURE VOLUME PRESSAVG GPRESSAVG
ENERGY: 0 1.9540 10.4001 12.8290 0.0000 -10532.0371 1326.0925 0.0000 0.0000 1795.8882 -7384.8732 308.1780 -9180.7615 -7384.8732 308.1780 -648.7531 -573.0197 30134.1229 -648.7531 -573.0197
ENERGY: 300000 1.5646 15.1631 9.9777 0.0000 -10546.0180 1374.3782 0.0000 0.0000 1788.9865 -7355.9479 306.9937 -9144.9343 -7398.0548 304.4902 -281.8104 -244.4383 29858.0886 -383.8256 -326.6694
ENERGY: 600000 0.7720 14.7643 11.2145 0.0000 -10708.6325 1499.5632 0.0000 0.0000 1734.9891 -7447.3294 297.7276 -9182.3185 -7397.7797 302.1416 775.9546 838.2486 29627.3538 54.3152 125.8176
ENERGY: 900000 1.4929 15.4764 12.4038 0.0000 -10496.7866 1362.1759 0.0000 0.0000 1795.9687 -7309.2689 308.1918 -9105.2376 -7386.9451 302.0546 -390.0249 -300.3707 30298.2134 87.4042 149.5519
ENERGY: 1200000 2.2194 8.6895 11.8400 0.0000 -10526.8855 1337.8720 0.0000 0.0000 1766.2703 -7399.9943 303.0955 -9166.2645 -7393.2423 301.6798 -753.7502 -685.3433 30054.1772 -0.0470 67.1945
ENERGY: 1500000 1.9047 11.9903 11.4155 0.0000 -10510.3017 1337.2454 0.0000 0.0000 1762.6490 -7385.0968 302.4741 -9147.7457 -7394.6672 301.1261 -593.6763 -479.6399 30090.3367 -82.7334 -8.4779
TCL: Running FEP window   6: Lambda1 0.7499999999999998 Lambda2 0.6999999999999997 [dLambda -0.050000000000000044]
TCL: Setting parameter firsttimestep to 0
TCL: Setting parameter alchLambda to 0.7499999999999998
Info: NONBONDED TABLE R-SQUARED SPACING: 0.0625
Info: NONBONDED TABLE SIZE: 705 POINTS
TCL: Setting parameter alchLambda2 to 0.6999999999999997
Info: NONBONDED TABLE R-SQUARED SPACING: 0.0625
Info: NONBONDED TABLE SIZE: 705 POINTS
TCL: Running for 1500000 steps
ETITLE: TS BOND ANGLE DIHED IMPRP ELECT VDW BOUNDARY MISC KINETIC TOTAL TEMP POTENTIAL TOTALAVG TEMPAVG PRESSURE GPRESSURE VOLUME PRESSAVG GPRESSAVG
ENERGY: 0 1.9048 11.9903 11.4155 0.0000 -10509.5253 1336.8633 0.0000 0.0000 1761.7901 -7385.5612 302.3267 -9147.3514 -7385.5612 302.3267 -576.6815 -492.5926 30090.3367 -576.6815 -492.5926
ENERGY: 300000 1.8628 11.5196 10.9564 0.0000 -10695.5368 1472.4384 0.0000 0.0000 1820.8342 -7377.9254 312.4588 -9198.7596 -7368.4315 304.1582 283.6214 342.1647 30215.3273 -256.7880 -209.4557
ENERGY: 600000 1.6436 11.1903 12.1354 0.0000 -10723.2762 1489.5317 0.0000 0.0000 1784.0684 -7424.7069 306.1497 -9208.7752 -7390.7678 304.6789 446.0834 496.5440 30085.3734 -132.4227 -81.7119
ENERGY: 900000 3.0628 15.2160 10.4277 0.0000 -10600.0063 1453.6647 0.0000 0.0000 1707.8611 -7409.7741 293.0724 -9117.6351 -7410.8565 303.1838 259.3682 392.1723 30130.7026 -178.2097 -116.8267
ENERGY: 1200000 4.5014 12.9785 14.1241 0.0000 -10560.1405 1364.4518 0.0000 0.0000 1731.4836 -7432.6011 297.1261 -9164.0847 -7405.2308 301.7661 -634.7063 -537.2366 30160.4976 -243.5814 -175.9632
ENERGY: 1500000 1.8478 14.8682 12.1570 0.0000 -10547.4597 1377.6626 0.0000 0.0000 1766.1307 -7374.7934 303.0716 -9140.9241 -7402.2175 301.9783 -73.6216 -38.0034 29975.5198 -209.4906 -139.5576
TCL: Running FEP window   7: Lambda1 0.6999999999999997 Lambda2 0.6499999999999997 [dLambda -0.050000000000000044]
TCL: Setting parameter firsttimestep to 0
TCL: Setting parameter alchLambda to 0.6999999999999997
Info: NONBONDED TABLE R-SQUARED SPACING: 0.0625
Info: NONBONDED TABLE SIZE: 705 POINTS
TCL: Setting parameter alchLambda2 to 0.6499999999999997
Info: NONBONDED TABLE R-SQUARED SPACING: 0.0625
Info: NONBONDED TABLE SIZE: 705 POINTS
TCL: Running for 1500000 steps
ETITLE: TS BOND ANGLE DIHED IMPRP ELECT VDW BOUNDARY MISC KINETIC TOTAL TEMP POTENTIAL TOTALAVG TEMPAVG PRESSURE GPRESSURE VOLUME PRESSAVG GPRESSAVG
ENERGY: 0 1.8478 14.8682 12.1570 0.0000 -10546.9952 1377.9089 0.0000 0.0000 1765.2538 -7374.9595 302.9211 -9140.2133 -7374.9595 302.9211 -127.0039 -42.2827 29975.5198 -127.0039 -42.2827
ENERGY: 300000 1.9607 8.7301 12.4331 0.0000 -10620.6190 1435.3305 0.0000 0.0000 1724.9937 -7437.1708 296.0124 -9162.1646 -7400.6738 301.1595 215.4180 222.6392 29806.9464 255.3563 290.4605
ENERGY: 600000 0.8697 13.7205 9.9111 0.0000 -10737.5031 1440.5206 0.0000 0.0000 1815.1273 -7457.3539 311.4795 -9272.4812 -7408.2387 302.9150 246.7593 190.2723 29510.9400 -8.5567 13.7717
ENERGY: 900000 2.7811 16.8392 10.5876 0.0000 -10635.2662 1448.3388 0.0000 0.0000 1768.6309 -7388.0887 303.5006 -9156.7195 -7399.0688 303.4730 556.8290 638.0494 29642.6329 -25.8653 12.1203
ENERGY: 1200000 1.6723 11.6745 11.5299 0.0000 -10606.6997 1477.9014 0.0000 0.0000 1795.6217 -7308.2999 308.1323 -9103.9216 -7391.1669 304.4902 848.5146 905.7651 29702.9426 4.9253 43.7980
ENERGY: 1500000 1.9476 12.6500 10.3484 0.0000 -10480.4778 1325.1534 0.0000 0.0000 1689.9029 -7440.4754 289.9907 -9130.3783 -7389.0189 303.9880 -1002.5930 -894.6987 30538.0770 -38.1708 12.7225
TCL: Running FEP window   8: Lambda1 0.6499999999999997 Lambda2 0.5999999999999996 [dLambda -0.050000000000000044]
TCL: Setting parameter firsttimestep to 0
TCL: Setting parameter alchLambda to 0.6499999999999997
Info: NONBONDED TABLE R-SQUARED SPACING: 0.0625
Info: NONBONDED TABLE SIZE: 705 POINTS
TCL: Setting parameter alchLambda2 to 0.5999999999999996
Info: NONBONDED TABLE R-SQUARED SPACING: 0.0625
Info: NONBONDED TABLE SIZE: 705 POINTS
TCL: Running for 1500000 steps
ETITLE: TS BOND ANGLE DIHED IMPRP ELECT VDW BOUNDARY MISC KINETIC TOTAL TEMP POTENTIAL TOTALAVG TEMPAVG PRESSURE GPRESSURE VOLUME PRESSAVG GPRESSAVG
ENERGY: 0 1.9476 12.6500 10.3484 0.0000 -10480.4658 1324.9628 0.0000 0.0000 1688.9911 -7441.5658 289.8343 -9130.5569 -7441.5658 289.8343 -982.4344 -903.8061 30538.0770 -982.4344 -903.8061
ENERGY: 300000 2.7338 10.5632 9.8099 0.0000 -10646.5832 1425.8060 0.0000 0.0000 1805.9497 -7391.7207 309.9046 -9197.6703 -7403.4509 302.0247 243.3850 288.6843 29603.8432 -23.3982 40.8594
ENERGY: 600000 1.0576 11.8350 12.7125 0.0000 -10595.8258 1369.6333 0.0000 0.0000 1751.8737 -7448.7136 300.6250 -9200.5873 -7417.6359 301.8462 -383.2951 -312.6913 29987.8625 -56.8332 -3.6137
ENERGY: 900000 5.4536 11.9441 13.2823 0.0000 -10643.7720 1427.5746 0.0000 0.0000 1690.9291 -7494.5883 290.1668 -9185.5174 -7415.5630 300.6701 26.6517 84.4520 29978.5096 -60.7835 -11.8705
ENERGY: 1200000 1.6472 16.5224 12.2998 0.0000 -10410.5604 1335.0862 0.0000 0.0000 1755.3752 -7289.6296 301.2259 -9045.0048 -7394.9619 300.6322 -360.9492 -277.5412 30097.2779 -116.5660 -70.9030
ENERGY: 1500000 3.5911 15.0901 10.0549 0.0000 -10565.8681 1426.4543 0.0000 0.0000 1697.8209 -7412.8568 291.3495 -9110.6776 -7380.3915 300.9369 -212.2694 -121.5307 30363.6395 -154.1356 -105.2493
TCL: Running FEP window   9: Lambda1 0.5999999999999996 Lambda2 0.5499999999999996 [dLambda -0.050000000000000044]
TCL: Setting parameter firsttimestep to 0
TCL: Setting parameter alchLambda to 0.5999999999999996
Info: NONBONDED TABLE R-SQUARED SPACING: 0.0625
Info: NONBONDED TABLE SIZE: 705 POINTS
TCL: Setting parameter alchLambda2 to 0.5499999999999996
Info: NONBONDED TABLE R-SQUARED SPACING: 0.0625
Info: NONBONDED TABLE SIZE: 705 POINTS
TCL: Running for 1500000 steps
ETITLE: TS BOND ANGLE DIHED IMPRP ELECT VDW BOUNDARY MISC KINETIC TOTAL TEMP POTENTIAL TOTALAVG TEMPAVG PRESSURE GPRESSURE VOLUME PRESSAVG GPRESSAVG
ENERGY: 0 3.5911 15.0901 10.0549 0.0000 -10564.6383 1426.0946 0.0000 0.0000 1696.9443 -7412.8633 291.1990 -9109.8076 -7412.8633 291.1990 -226.4026 -130.8794 30363.6395 -226.4026 -130.8794
ENERGY: 300000 0.6204 12.6078 9.4206 0.0000 -10529.5725 1383.3367 0.0000 0.0000 1786.0883 -7337.4986 306.4963 -9123.5869 -7410.2511 298.3439 -137.9287 -115.7911 30108.1299 -141.3098 -70.3300
ENERGY: 600000 2.4469 14.0126 11.5633 0.0000 -10683.0626 1481.7916 0.0000 0.0000 1783.2630 -7389.9851 306.0115 -9173.2481 -7403.1275 298.5209 448.5423 537.0116 30003.7988 -214.5417 -124.6883
ENERGY: 900000 1.4509 14.7145 12.0001 0.0000 -10767.1472 1472.9701 0.0000 0.0000 1743.5906 -7522.4209 299.2037 -9266.0115 -7414.2723 298.1027 126.3537 181.1439 29901.6926 -251.8703 -167.4074
ENERGY: 1200000 1.5931 9.3386 12.3196 0.0000 -10654.4908 1439.8479 0.0000 0.0000 1761.2108 -7430.1809 302.2273 -9191.3916 -7412.2971 299.3046 103.1736 145.8427 29844.1527 -241.2024 -165.5010
ENERGY: 1500000 2.6080 10.8127 11.0936 0.0000 -10599.2923 1442.9578 0.0000 0.0000 1736.5275 -7395.2926 297.9916 -9131.8201 -7413.2660 298.9196 99.8110 154.1042 30208.4687 -252.7753 -174.7182
TCL: Running FEP window  10: Lambda1 0.5499999999999996 Lambda2 0.4999999999999996 [dLambda -0.04999999999999999]
TCL: Setting parameter firsttimestep to 0
TCL: Setting parameter alchLambda to 0.5499999999999996
Info: NONBONDED TABLE R-SQUARED SPACING: 0.0625
Info: NONBONDED TABLE SIZE: 705 POINTS
TCL: Setting parameter alchLambda2 to 0.4999999999999996
Info: NONBONDED TABLE R-SQUARED SPACING: 0.0625
Info: NONBONDED TABLE SIZE: 705 POINTS
TCL: Running for 1500000 steps
ETITLE: TS BOND ANGLE DIHED IMPRP ELECT VDW BOUNDARY MISC KINETIC TOTAL TEMP POTENTIAL TOTALAVG TEMPAVG PRESSURE GPRESSURE VOLUME PRESSAVG GPRESSAVG
ENERGY: 0 2.6080 10.8127 11.0936 0.0000 -10599.2480 1443.2424 0.0000 0.0000 1735.6932 -7395.7980 297.8484 -9131.4912 -7395.7980 297.8484 78.8689 150.4374 30208.4687 78.8689 150.4374
ENERGY: 300000 1.2569 11.1703 12.6246 0.0000 -10600.3780 1518.4430 0.0000 0.0000 1724.1509 -7332.7322 295.8678 -9056.8831 -7371.0430 295.6840 938.9808 967.7076 30276.0512 224.6020 283.1098
ENERGY: 600000 1.2737 11.9488 10.2988 0.0000 -10559.5214 1381.2744 0.0000 0.0000 1760.9665 -7393.7590 302.1854 -9154.7256 -7396.0594 296.3820 -620.5371 -544.5668 30542.6613 -184.6165 -123.8155
ENERGY: 900000 2.7487 12.3689 10.4071 0.0000 -10468.1124 1356.0372 0.0000 0.0000 1785.5490 -7301.0015 306.4038 -9086.5505 -7386.8813 298.1443 -495.5429 -472.4120 30622.0848 -71.9824 -4.9136
ENERGY: 1200000 1.9400 6.7900 12.1632 0.0000 -10645.9626 1374.9934 0.0000 0.0000 1743.6832 -7506.3928 299.2195 -9250.0760 -7393.8320 299.1555 -460.6898 -343.8604 29363.0704 -68.2088 -2.3383
ENERGY: 1500000 1.2097 13.4513 11.9933 0.0000 -10506.3182 1301.1104 0.0000 0.0000 1769.1877 -7409.3657 303.5962 -9178.5534 -7398.1847 299.6724 -1074.3681 -997.1157 30468.1050 -111.1532 -40.0909
TCL: Running FEP window  11: Lambda1 0.4999999999999996 Lambda2 0.4499999999999996 [dLambda -0.04999999999999999]
TCL: Setting parameter firsttimestep to 0
TCL: Setting parameter alchLambda to 0.4999999999999996
Info: NONBONDED TABLE R-SQUARED SPACING: 0.0625
Info: NONBONDED TABLE SIZE: 705 POINTS
TCL: Setting parameter alchLambda2 to 0.4499999999999996
Info: NONBONDED TABLE R-SQUARED SPACING: 0.0625
Info: NONBONDED TABLE SIZE: 705 POINTS
TCL: Running for 1500000 steps
ETITLE: TS BOND ANGLE DIHED IMPRP ELECT VDW BOUNDARY MISC KINETIC TOTAL TEMP POTENTIAL TOTALAVG TEMPAVG PRESSURE GPRESSURE VOLUME PRESSAVG GPRESSAVG
ENERGY: 0 1.2097 13.4513 11.9933 0.0000 -10506.2272 1301.3372 0.0000 0.0000 1768.3357 -7409.9000 303.4500 -9178.2356 -7409.9000 303.4500 -1071.9198 -1001.9648 30468.1050 -1071.9198 -1001.9648
ENERGY: 300000 1.2777 18.3212 9.9823 0.0000 -10486.2563 1395.7807 0.0000 0.0000 1784.8287 -7276.0657 306.2802 -9060.8944 -7368.9382 303.2123 339.8448 370.5936 29567.6918 -111.2343 -31.0611
ENERGY: 600000 1.7844 13.4783 12.4357 0.0000 -10597.8102 1388.9125 0.0000 0.0000 1728.3054 -7452.8938 296.5807 -9181.1992 -7389.3901 302.9374 -494.7922 -399.9183 29962.4494 -73.3834 4.3446
ENERGY: 900000 2.1908 13.6069 9.7723 0.0000 -10404.7944 1348.9495 0.0000 0.0000 1788.0648 -7242.2101 306.8355 -9030.2749 -7377.4859 303.3440 -63.2583 0.3022 30153.6821 -116.2413 -40.9241
ENERGY: 1200000 0.8372 9.3965 13.5836 0.0000 -10599.6154 1410.4615 0.0000 0.0000 1680.3123 -7485.0243 288.3450 -9165.3366 -7392.8580 301.2974 51.4771 87.3384 29649.3824 -117.9269 -47.2991
ENERGY: 1500000 2.8975 15.4638 10.8802 0.0000 -10727.9462 1467.4571 0.0000 0.0000 1744.2462 -7487.0014 299.3162 -9231.2476 -7396.5959 301.2829 42.3072 105.7215 29888.5169 -93.0531 -29.5406
TCL: Running FEP window  12: Lambda1 0.4499999999999996 Lambda2 0.39999999999999963 [dLambda -0.04999999999999999]
TCL: Setting parameter firsttimestep to 0
TCL: Setting parameter alchLambda to 0.4499999999999996
Info: NONBONDED TABLE R-SQUARED SPACING: 0.0625
Info: NONBONDED TABLE SIZE: 705 POINTS
TCL: Setting parameter alchLambda2 to 0.39999999999999963
Info: NONBONDED TABLE R-SQUARED SPACING: 0.0625
Info: NONBONDED TABLE SIZE: 705 POINTS
TCL: Running for 1500000 steps
ETITLE: TS BOND ANGLE DIHED IMPRP ELECT VDW BOUNDARY MISC KINETIC TOTAL TEMP POTENTIAL TOTALAVG TEMPAVG PRESSURE GPRESSURE VOLUME PRESSAVG GPRESSAVG
ENERGY: 0 2.8975 15.4638 10.8802 0.0000 -10727.9451 1466.9654 0.0000 0.0000 1743.3466 -7488.3916 299.1618 -9231.7383 -7488.3916 299.1618 8.1834 93.1185 29888.5169 8.1834 93.1185
ENERGY: 300000 2.0913 9.7752 10.3869 0.0000 -10586.5629 1436.2131 0.0000 0.0000 1729.3840 -7398.7124 296.7658 -9128.0964 -7462.5491 297.9209 418.6081 419.2351 29882.3411 153.4328 223.5488
ENERGY: 600000 2.3219 15.0423 12.4197 0.0000 -10479.7099 1380.0960 0.0000 0.0000 1713.2312 -7356.5988 293.9939 -9069.8300 -7450.2521 297.7396 -143.7794 -59.1548 29993.8421 23.4237 100.0061
ENERGY: 900000 1.4252 14.7880 13.1777 0.0000 -10508.5783 1332.8829 0.0000 0.0000 1718.1875 -7428.1170 294.8444 -9146.3045 -7432.8702 297.8889 -704.2314 -693.1331 30237.1225 -15.5479 41.4658
ENERGY: 1200000 3.0101 15.0769 12.7720 0.0000 -10616.0079 1455.7485 0.0000 0.0000 1746.5655 -7382.8348 299.7142 -9129.4003 -7424.5497 299.6613 460.8630 468.1357 29854.9576 9.6383 67.1613
ENERGY: 1500000 1.4830 9.2563 10.3454 0.0000 -10621.1374 1418.1009 0.0000 0.0000 1687.6040 -7494.3477 289.5962 -9181.9518 -7427.2348 298.7776 -251.3600 -196.2784 29963.6960 0.7086 54.4643
TCL: Running FEP window  13: Lambda1 0.39999999999999963 Lambda2 0.34999999999999964 [dLambda -0.04999999999999999]
TCL: Setting parameter firsttimestep to 0
TCL: Setting parameter alchLambda to 0.39999999999999963
Info: NONBONDED TABLE R-SQUARED SPACING: 0.0625
Info: NONBONDED TABLE SIZE: 705 POINTS
TCL: Setting parameter alchLambda2 to 0.34999999999999964
Info: NONBONDED TABLE R-SQUARED SPACING: 0.0625
Info: NONBONDED TABLE SIZE: 705 POINTS
TCL: Running for 1500000 steps
ETITLE: TS BOND ANGLE DIHED IMPRP ELECT VDW BOUNDARY MISC KINETIC TOTAL TEMP POTENTIAL TOTALAVG TEMPAVG PRESSURE GPRESSURE VOLUME PRESSAVG GPRESSAVG
ENERGY: 0 1.4830 9.2563 10.3454 0.0000 -10621.1379 1418.1943 0.0000 0.0000 1686.7796 -7495.0793 289.4548 -9181.8589 -7495.0793 289.4548 -275.0992 -200.5051 29963.6960 -275.0992 -200.5051
ENERGY: 300000 1.6018 15.5290 10.5870 0.0000 -10645.6464 1450.4269 0.0000 0.0000 1739.4677 -7428.0339 298.4962 -9167.5017 -7441.1884 294.8635 -34.3736 38.3024 30297.4410 -169.2066 -95.0167
ENERGY: 600000 1.1868 10.0014 10.2210 0.0000 -10612.1516 1365.4190 0.0000 0.0000 1713.7044 -7511.6190 294.0751 -9225.3234 -7458.3192 295.5016 -503.3859 -478.0839 29840.5552 -238.5675 -188.4264
ENERGY: 900000 2.7128 13.2274 11.3139 0.0000 -10597.6370 1437.5557 0.0000 0.0000 1750.4322 -7382.3949 300.3777 -9132.8271 -7432.2444 298.3243 -155.2785 -94.6581 30205.3832 -162.6782 -105.3669
ENERGY: 1200000 1.0110 11.8049 11.5661 0.0000 -10594.7842 1422.9431 0.0000 0.0000 1737.4158 -7410.0434 298.1440 -9147.4591 -7434.4655 298.9320 81.3701 156.9076 29973.1146 -103.0946 -39.2294
ENERGY: 1500000 1.0607 11.0299 10.5867 0.0000 -10441.8307 1307.0095 0.0000 0.0000 1702.2163 -7409.9277 292.1037 -9112.1440 -7429.7509 298.6003 -943.9699 -856.8917 30330.8256 -60.3530 -6.3086
TCL: Running FEP window  14: Lambda1 0.34999999999999964 Lambda2 0.29999999999999966 [dLambda -0.04999999999999999]
TCL: Setting parameter firsttimestep to 0
TCL: Setting parameter alchLambda to 0.34999999999999964
Info: NONBONDED TABLE R-SQUARED SPACING: 0.0625
Info: NONBONDED TABLE SIZE: 705 POINTS
TCL: Setting parameter alchLambda2 to 0.29999999999999966
Info: NONBONDED TABLE R-SQUARED SPACING: 0.0625
Info: NONBONDED TABLE SIZE: 705 POINTS
TCL: Running for 1500000 steps
ETITLE: TS BOND ANGLE DIHED IMPRP ELECT VDW BOUNDARY MISC KINETIC TOTAL TEMP POTENTIAL TOTALAVG TEMPAVG PRESSURE GPRESSURE VOLUME PRESSAVG GPRESSAVG
ENERGY: 0 1.0607 11.0299 10.5867 0.0000 -10441.8286 1307.3766 0.0000 0.0000 1701.3534 -7410.4213 291.9557 -9111.7748 -7410.4213 291.9557 -944.4056 -861.3288 30330.8256 -944.4056 -861.3288
ENERGY: 300000 1.9050 15.6277 11.6956 0.0000 -10671.0002 1463.2029 0.0000 0.0000 1788.7174 -7389.8515 306.9475 -9178.5690 -7395.0957 301.0053 38.3144 99.7647 30166.2458 -226.4030 -157.0920
ENERGY: 600000 4.4534 10.3179 12.1723 0.0000 -10779.1350 1481.4887 0.0000 0.0000 1781.4375 -7489.2651 305.6983 -9270.7026 -7404.7215 301.1135 86.7970 176.7607 30004.7531 -150.6478 -63.1551
ENERGY: 900000 2.7478 7.3646 13.5534 0.0000 -10530.2495 1346.0154 0.0000 0.0000 1750.7249 -7409.8433 300.4279 -9160.5682 -7409.1729 299.9934 -728.3855 -709.2590 30184.8716 -164.9954 -94.1677
ENERGY: 1200000 4.6120 7.0249 14.4084 0.0000 -10583.4767 1428.1371 0.0000 0.0000 1699.0186 -7430.2757 291.5550 -9129.2943 -7409.9876 299.1020 176.0007 217.5854 29742.5716 -225.0087 -159.3922
ENERGY: 1500000 2.6070 10.0901 14.2485 0.0000 -10612.0880 1452.1133 0.0000 0.0000 1757.4832 -7375.5458 301.5876 -9133.0290 -7409.1644 298.7540 132.3530 195.8979 30152.9471 -211.3922 -142.6015
TCL: Running FEP window  15: Lambda1 0.29999999999999966 Lambda2 0.24999999999999967 [dLambda -0.04999999999999999]
TCL: Setting parameter firsttimestep to 0
TCL: Setting parameter alchLambda to 0.29999999999999966
Info: NONBONDED TABLE R-SQUARED SPACING: 0.0625
Info: NONBONDED TABLE SIZE: 705 POINTS
TCL: Setting parameter alchLambda2 to 0.24999999999999967
Info: NONBONDED TABLE R-SQUARED SPACING: 0.0625
Info: NONBONDED TABLE SIZE: 705 POINTS
TCL: Running for 1500000 steps
ETITLE: TS BOND ANGLE DIHED IMPRP ELECT VDW BOUNDARY MISC KINETIC TOTAL TEMP POTENTIAL TOTALAVG TEMPAVG PRESSURE GPRESSURE VOLUME PRESSAVG GPRESSAVG
ENERGY: 0 2.6070 10.0901 14.2485 0.0000 -10612.0890 1452.2818 0.0000 0.0000 1756.6232 -7376.2383 301.4401 -9132.8615 -7376.2383 301.4401 118.9289 194.6177 30152.9471 118.9289 194.6177
ENERGY: 300000 1.3317 10.9143 12.4754 0.0000 -10610.9468 1437.5645 0.0000 0.0000 1719.3242 -7429.3367 295.0395 -9148.6609 -7385.8411 298.9419 86.6319 183.5490 30133.1300 -125.5987 -45.3016
ENERGY: 600000 1.0507 8.5811 12.0412 0.0000 -10620.9562 1432.2922 0.0000 0.0000 1771.7419 -7395.2490 304.0345 -9166.9909 -7387.9166 301.9520 -40.3499 4.4903 30291.9276 -117.5898 -46.0890
ENERGY: 900000 2.9368 12.4226 12.1269 0.0000 -10456.3441 1284.4093 0.0000 0.0000 1745.1984 -7399.2501 299.4795 -9144.4485 -7390.4235 302.2056 -1202.3011 -1215.6028 30447.6824 -168.4971 -108.5512
ENERGY: 1200000 1.6626 15.1352 9.8180 0.0000 -10760.4559 1524.2743 0.0000 0.0000 1792.8811 -7416.6846 307.6620 -9209.5657 -7393.8703 301.8664 1041.3363 1082.1853 29373.6234 24.9141 86.3483
ENERGY: 1500000 2.3675 8.3756 11.8287 0.0000 -10612.3208 1469.7471 0.0000 0.0000 1718.8043 -7401.1977 294.9503 -9120.0020 -7402.7651 301.5297 302.0964 341.5487 30246.6713 8.1457 70.5672
TCL: Running FEP window  16: Lambda1 0.24999999999999967 Lambda2 0.19999999999999968 [dLambda -0.04999999999999999]
TCL: Setting parameter firsttimestep to 0
TCL: Setting parameter alchLambda to 0.24999999999999967
Info: NONBONDED TABLE R-SQUARED SPACING: 0.0625
Info: NONBONDED TABLE SIZE: 705 POINTS
TCL: Setting parameter alchLambda2 to 0.19999999999999968
Info: NONBONDED TABLE R-SQUARED SPACING: 0.0625
Info: NONBONDED TABLE SIZE: 705 POINTS
TCL: Running for 1500000 steps
ETITLE: TS BOND ANGLE DIHED IMPRP ELECT VDW BOUNDARY MISC KINETIC TOTAL TEMP POTENTIAL TOTALAVG TEMPAVG PRESSURE GPRESSURE VOLUME PRESSAVG GPRESSAVG
ENERGY: 0 2.3675 8.3756 11.8287 0.0000 -10612.3212 1469.9669 0.0000 0.0000 1717.9385 -7401.8440 294.8017 -9119.7825 -7401.8440 294.8017 251.2030 338.1872 30246.6713 251.2030 338.1872
ENERGY: 300000 1.8508 13.2764 10.7012 0.0000 -10553.7659 1379.1181 0.0000 0.0000 1757.7060 -7391.1134 301.6259 -9148.8194 -7407.8204 295.3232 -282.3119 -285.8384 30131.2852 79.2905 117.8248
ENERGY: 600000 4.6180 14.3318 12.8931 0.0000 -10624.1862 1423.1432 0.0000 0.0000 1734.5962 -7434.6037 297.6602 -9169.1999 -7409.4721 297.0192 -246.1859 -198.9624 30169.8078 26.5658 65.9844
ENERGY: 900000 1.7524 6.2851 14.1297 0.0000 -10643.4133 1480.3545 0.0000 0.0000 1763.8498 -7377.0417 302.6802 -9140.8915 -7399.5986 298.1690 357.8855 327.2401 30440.4208 54.5513 89.0788
ENERGY: 1200000 1.9926 12.5436 9.5208 0.0000 -10508.2219 1389.3583 0.0000 0.0000 1735.9809 -7358.8257 297.8978 -9094.8066 -7390.2982 299.5110 -329.4088 -255.5201 30389.4592 90.5713 133.0106
ENERGY: 1500000 1.2221 13.5553 10.3373 0.0000 -10689.7474 1499.3221 0.0000 0.0000 1747.1475 -7418.1631 299.8140 -9165.3107 -7397.1653 299.4824 747.1472 819.4256 29614.8661 76.5408 118.2867
TCL: Running FEP window  17: Lambda1 0.19999999999999968 Lambda2 0.1499999999999997 [dLambda -0.04999999999999999]
TCL: Setting parameter firsttimestep to 0
TCL: Setting parameter alchLambda to 0.19999999999999968
Info: NONBONDED TABLE R-SQUARED SPACING: 0.0625
Info: NONBONDED TABLE SIZE: 705 POINTS
TCL: Setting parameter alchLambda2 to 0.1499999999999997
Info: NONBONDED TABLE R-SQUARED SPACING: 0.0625
Info: NONBONDED TABLE SIZE: 705 POINTS
TCL: Running for 1500000 steps
ETITLE: TS BOND ANGLE DIHED IMPRP ELECT VDW BOUNDARY MISC KINETIC TOTAL TEMP POTENTIAL TOTALAVG TEMPAVG PRESSURE GPRESSURE VOLUME PRESSAVG GPRESSAVG
ENERGY: 0 1.2221 13.5553 10.3373 0.0000 -10689.7485 1499.0167 0.0000 0.0000 1746.2478 -7419.3694 299.6596 -9165.6172 -7419.3694 299.6596 723.0388 808.4586 29614.8661 723.0388 808.4586
ENERGY: 300000 2.7084 10.9540 13.0319 0.0000 -10495.7297 1381.8969 0.0000 0.0000 1784.3411 -7302.7975 306.1965 -9087.1385 -7378.0058 301.8033 -268.9340 -193.0036 30366.0693 223.5102 296.8691
ENERGY: 600000 1.7465 10.9810 11.8702 0.0000 -10473.4106 1337.9911 0.0000 0.0000 1720.8178 -7390.0040 295.2958 -9110.8218 -7379.3134 300.4048 -550.8875 -541.2650 30111.3578 81.6223 127.2830
ENERGY: 900000 1.8236 10.4403 13.6379 0.0000 -10476.1949 1345.7149 0.0000 0.0000 1788.2658 -7316.3124 306.8700 -9104.5782 -7377.2246 301.0006 -816.7397 -773.0401 30840.1431 -0.3346 47.1065
ENERGY: 1200000 1.9768 9.9272 13.3912 0.0000 -10621.4668 1396.4519 0.0000 0.0000 1782.8025 -7416.9173 305.9325 -9199.7198 -7375.5830 301.7674 -276.6340 -285.4839 29997.2444 -49.5355 -1.8215
ENERGY: 1500000 1.0636 10.7005 11.4064 0.0000 -10602.7257 1444.2480 0.0000 0.0000 1728.9972 -7406.3098 296.6994 -9135.3071 -7375.9260 301.2572 179.4550 174.7240 29968.3449 -8.7014 39.3050
TCL: Running FEP window  18: Lambda1 0.1499999999999997 Lambda2 0.09999999999999969 [dLambda -0.05 ]
TCL: Setting parameter firsttimestep to 0
TCL: Setting parameter alchLambda to 0.1499999999999997
Info: NONBONDED TABLE R-SQUARED SPACING: 0.0625
Info: NONBONDED TABLE SIZE: 705 POINTS
TCL: Setting parameter alchLambda2 to 0.09999999999999969
Info: NONBONDED TABLE R-SQUARED SPACING: 0.0625
Info: NONBONDED TABLE SIZE: 705 POINTS
TCL: Running for 1500000 steps
ETITLE: TS BOND ANGLE DIHED IMPRP ELECT VDW BOUNDARY MISC KINETIC TOTAL TEMP POTENTIAL TOTALAVG TEMPAVG PRESSURE GPRESSURE VOLUME PRESSAVG GPRESSAVG
ENERGY: 0 1.0636 10.7005 11.4064 0.0000 -10602.7258 1443.3521 0.0000 0.0000 1728.1102 -7408.0930 296.5472 -9136.2032 -7408.0930 296.5472 92.9169 168.2218 29968.3449 92.9169 168.2218
ENERGY: 300000 2.1916 11.5481 11.6220 0.0000 -10768.2035 1503.0532 0.0000 0.0000 1772.9589 -7466.8298 304.2433 -9239.7887 -7434.5531 302.8749 350.7563 386.8834 29965.3294 -127.0470 -83.3828
ENERGY: 600000 1.3921 9.8628 14.6156 0.0000 -10533.6329 1403.4980 0.0000 0.0000 1761.5681 -7342.6963 302.2886 -9104.2644 -7386.6448 303.6354 -68.6775 66.4014 30015.8213 -134.5733 -76.6035
ENERGY: 900000 2.2571 11.8261 11.1923 0.0000 -10593.1234 1453.0967 0.0000 0.0000 1717.6364 -7397.1149 294.7499 -9114.7514 -7397.8376 300.3602 315.2356 310.7141 30130.2643 -49.5826 -1.3617
ENERGY: 1200000 1.1543 9.3196 11.2796 0.0000 -10550.2562 1420.6721 0.0000 0.0000 1746.0430 -7361.7875 299.6245 -9107.8306 -7393.3498 300.3776 -86.1377 -56.4436 30133.2608 -49.3960 -1.2440
ENERGY: 1500000 2.4403 10.1455 12.2466 0.0000 -10587.1135 1408.7750 0.0000 0.0000 1723.7465 -7429.7596 295.7984 -9153.5061 -7393.1589 299.7745 -252.2855 -174.8586 30009.7615 -30.6458 24.8806
TCL: Running FEP window  19: Lambda1 0.09999999999999969 Lambda2 0.049999999999999684 [dLambda -0.05 ]
TCL: Setting parameter firsttimestep to 0
TCL: Setting parameter alchLambda to 0.09999999999999969
Info: NONBONDED TABLE R-SQUARED SPACING: 0.0625
Info: NONBONDED TABLE SIZE: 705 POINTS
TCL: Setting parameter alchLambda2 to 0.049999999999999684
Info: NONBONDED TABLE R-SQUARED SPACING: 0.0625
Info: NONBONDED TABLE SIZE: 705 POINTS
TCL: Running for 1500000 steps
ETITLE: TS BOND ANGLE DIHED IMPRP ELECT VDW BOUNDARY MISC KINETIC TOTAL TEMP POTENTIAL TOTALAVG TEMPAVG PRESSURE GPRESSURE VOLUME PRESSAVG GPRESSAVG
ENERGY: 0 2.4403 10.1455 12.2466 0.0000 -10587.1148 1408.3144 0.0000 0.0000 1722.8295 -7431.1384 295.6410 -9153.9679 -7431.1384 295.6410 -256.1129 -176.1494 30009.7615 -256.1129 -176.1494
ENERGY: 300000 2.5419 12.0521 12.6852 0.0000 -10550.1082 1404.6932 0.0000 0.0000 1726.1181 -7392.0175 296.2053 -9118.1357 -7428.4784 299.6379 -38.5841 56.7004 29869.6633 -198.4991 -113.8895
ENERGY: 600000 1.2895 14.1759 10.4403 0.0000 -10631.5850 1497.7234 0.0000 0.0000 1742.9607 -7364.9953 299.0956 -9107.9560 -7427.1213 297.3264 644.2308 605.2996 30083.3367 -125.5273 -59.8477
ENERGY: 900000 1.9752 9.0732 10.3350 0.0000 -10486.3542 1338.3154 0.0000 0.0000 1770.7450 -7355.9104 303.8634 -9126.6554 -7416.3709 299.1419 -615.5541 -588.3686 30297.0322 -281.3357 -216.5531
ENERGY: 1200000 3.1566 18.5875 9.8101 0.0000 -10537.1060 1373.8549 0.0000 0.0000 1730.3433 -7401.3535 296.9304 -9131.6969 -7415.8043 299.5204 -592.3913 -540.7880 30098.8311 -210.2257 -151.5571
ENERGY: 1500000 1.9095 10.3025 10.5565 0.0000 -10624.1730 1486.6457 0.0000 0.0000 1730.1821 -7384.5768 296.9027 -9114.7589 -7407.1286 299.2013 398.7610 506.8432 30041.3644 -153.3323 -97.8872
TCL: Running FEP window  20: Lambda1 0.049999999999999684 Lambda2 0.0    [dLambda -0.049999999999999684]
TCL: Setting parameter firsttimestep to 0
TCL: Setting parameter alchLambda to 0.049999999999999684
Info: NONBONDED TABLE R-SQUARED SPACING: 0.0625
Info: NONBONDED TABLE SIZE: 705 POINTS
TCL: Setting parameter alchLambda2 to 0.0
Info: NONBONDED TABLE R-SQUARED SPACING: 0.0625
Info: NONBONDED TABLE SIZE: 705 POINTS
TCL: Running for 1500000 steps
ETITLE: TS BOND ANGLE DIHED IMPRP ELECT VDW BOUNDARY MISC KINETIC TOTAL TEMP POTENTIAL TOTALAVG TEMPAVG PRESSURE GPRESSURE VOLUME PRESSAVG GPRESSAVG
ENERGY: 0 1.9095 10.3025 10.5565 0.0000 -10624.1724 1486.7364 0.0000 0.0000 1729.3278 -7385.3397 296.7561 -9114.6675 -7385.3397 296.7561 416.2412 501.8639 30041.3644 416.2412 501.8639
ENERGY: 300000 0.5986 9.6393 11.2845 0.0000 -10667.4763 1445.4279 0.0000 0.0000 1740.5836 -7459.9425 298.6876 -9200.5260 -7376.0045 301.0472 -63.9670 -9.1620 30185.3093 -31.8165 42.9930
ENERGY: 600000 1.7165 13.1468 9.9540 0.0000 -10575.5819 1416.9957 0.0000 0.0000 1734.8644 -7398.9045 297.7062 -9133.7689 -7387.0161 299.9390 -149.0204 -101.1548 30272.0741 -303.3137 -233.6962
ENERGY: 900000 0.7477 12.9047 11.8734 0.0000 -10638.6357 1397.1427 0.0000 0.0000 1763.7850 -7452.1822 302.6690 -9215.9672 -7394.1826 300.8210 -477.2078 -435.2134 30323.5546 -326.6323 -260.3925
ENERGY: 1200000 1.9178 16.5630 10.9010 0.0000 -10648.6855 1484.8689 0.0000 0.0000 1746.0637 -7388.3711 299.6280 -9134.4347 -7396.3230 300.3556 485.4156 546.8142 29904.4458 -283.4373 -222.1434
ENERGY: 1500000 4.1245 8.6013 12.2458 0.0000 -10777.1775 1587.4941 0.0000 0.0000 1734.7175 -7429.9943 297.6810 -9164.7118 -7400.5619 300.2888 1303.5109 1356.4788 29671.9075 -143.8286 -81.0165
TCL: Exiting due to exit command.
