Info: SIMULATION PARAMETERS:
Info: TIMESTEP               2
Info: NUMBER OF STEPS        0
Info: STEPS PER CYCLE        10
Info: PERIODIC CELL BASIS 1  32.237 0 0
Info: PERIODIC CELL BASIS 2  0 30.0415 0
Info: PERIODIC CELL BASIS 3  0 0 30.7939
Info: PERIODIC CELL CENTER   0 0 0
Info: WRAPPING WATERS AROUND PERIODIC BOUNDARIES ON OUTPUT.
Info: WRAPPING ALL CLUSTERS AROUND PERIODIC BOUNDARIES ON OUTPUT.
Info: FIRST LDB TIMESTEP     50
Info: LAST LDB TIMESTEP     -1
Info: HOM BACKGROUND SCALING 1
Info: PME BACKGROUND SCALING 1
Info: MIN ATOMS PER PATCH    40
Info: EMPTY PATCH LOAD       40 ATOMS
Info: VELOCITY FILE          mobley_9507933_equil.vel
Info: CENTER OF MASS MOVING INITIALLY? NO
Info: DIELECTRIC             1
Info: EXCLUDE                SCALED ONE-FOUR
Info: 1-4 ELECTROSTATICS SCALED BY 0.833333
Info: MODIFIED 1-4 VDW PARAMETERS WILL BE USED
Info: DCD FILENAME           mobley_9507933_prod.dcd
Info: DCD FREQUENCY          100000
Info: DCD FIRST STEP         100000
Info: DCD FILE WILL CONTAIN UNIT CELL DATA
Info: XST FILENAME           mobley_9507933_prod.xst
Info: XST FREQUENCY          100000
Info: NO VELOCITY DCD OUTPUT
Info: NO FORCE DCD OUTPUT
Info: OUTPUT FILENAME        mobley_9507933_prod
Info: BINARY OUTPUT FILES WILL BE USED
Info: RESTART FILENAME       mobley_9507933_prod.restart
Info: RESTART FREQUENCY      100000
Info: BINARY RESTART FILES WILL BE USED
Info: CUTOFF                 9
Info: PAIRLIST DISTANCE      11
Info: PAIRLIST SHRINK RATE   0.01
Info: PAIRLIST GROW RATE     0.01
Info: PAIRLIST TRIGGER       0.3
Info: PAIRLISTS PER CYCLE    2
Info: PAIRLISTS ENABLED
Info: MARGIN                 2
Info: HYDROGEN GROUP CUTOFF  2.5
Info: PATCH DIMENSION        15.5
Info: ENERGY OUTPUT STEPS    100000
Info: ENERGY EVALUATION STEPS    100000
Info: OUTPUT ENERGY PRECISION 4
Info: CROSSTERM ENERGY INCLUDED IN DIHEDRAL
Info: TIMING OUTPUT STEPS    1000000
Info: PRESSURE OUTPUT STEPS  100000
Info: ALCHEMICAL FEP ON
Info: FEP CURRENT LAMBDA VALUE     0
Info: FEP COMPARISON LAMBDA VALUE  0.05
Info: FEP INTRA-ALCHEMICAL NON-BONDED INTERACTIONS WILL BE RETAINED
Info: FEP INTRA-ALCHEMICAL BONDED INTERACTIONS WILL BE RETAINED
Info: FEP VDW SHIFTING COEFFICIENT 5
Info: FEP ELEC. ACTIVE FOR ANNIHILATED PARTICLES BETWEEN LAMBDA = 0 AND LAMBDA = 0.5
Info: FEP ELEC. ACTIVE FOR EXNIHILATED PARTICLES BETWEEN LAMBDA = 0.5 AND LAMBDA = 1
Info: FEP VDW ACTIVE FOR ANNIHILATED PARTICLES BETWEEN LAMBDA = 0 AND LAMBDA = 1
Info: FEP VDW ACTIVE FOR EXNIHILATED PARTICLES BETWEEN LAMBDA = 0 AND LAMBDA = 1
Info: FEP BOND ACTIVE FOR ANNIHILATED PARTICLES BETWEEN LAMBDA = 1 AND LAMBDA = 1
Info: FEP BOND ACTIVE FOR EXNIHILATED PARTICLES BETWEEN LAMBDA = 0 AND LAMBDA = 0
Info: LANGEVIN DYNAMICS ACTIVE
Info: LANGEVIN TEMPERATURE   300
Info: LANGEVIN USING BBK INTEGRATOR
Info: LANGEVIN DAMPING COEFFICIENT IS 1 INVERSE PS
Info: LANGEVIN DYNAMICS APPLIED TO HYDROGENS
Info: LANGEVIN PISTON PRESSURE CONTROL ACTIVE
Info:        TARGET PRESSURE IS 1.01325 BAR
Info:     OSCILLATION PERIOD IS 50 FS
Info:             DECAY TIME IS 25 FS
Info:     PISTON TEMPERATURE IS 300 K
Info:       PRESSURE CONTROL IS GROUP-BASED
Info:    INITIAL STRAIN RATE IS -0.000341653 -0.000341653 -0.000341653
Info:       CELL FLUCTUATION IS ISOTROPIC
Info: PARTICLE MESH EWALD (PME) ACTIVE
Info: PME TOLERANCE               1e-06
Info: PME EWALD COEFFICIENT       0.348832
Info: PME INTERPOLATION ORDER     4
Info: PME GRID DIMENSIONS         36 32 32
Info: PME MAXIMUM GRID SPACING    1
Info: PME CALCULATION WILL BE PERFORMED ON GPU
Info: FULL ELECTROSTATIC EVALUATION FREQUENCY      2
Info: USING VERLET I (r-RESPA) MTS SCHEME.
Info: C1 SPLITTING OF LONG RANGE ELECTROSTATICS
Info: PLACING ATOMS IN PATCHES BY HYDROGEN GROUPS
Info: RIGID BONDS TO HYDROGEN : ALL
Info:         ERROR TOLERANCE : 1e-08
Info:          MAX ITERATIONS : 100
Info: RIGID WATER USING SETTLE ALGORITHM
Info: RANDOM NUMBER SEED     1743596012
Info: USE HYDROGEN BONDS?    NO
Info: Using AMBER format force field!
Info: AMBER PARM FILE        mobley_9507933.prmtop
Info: COORDINATE PDB         mobley_9507933.pdb
Info: Exclusions will be read from PARM file!
Info: SCNB (VDW SCALING)     2
Info: USING ARITHMETIC MEAN TO COMBINE L-J SIGMA PARAMETERS
Info: BINARY COORDINATES     mobley_9507933_equil.coor
Info: SUMMARY OF PARAMETERS:
Info: 8 BONDS
Info: 10 ANGLES
Info:   10 HARMONIC
Info:   0 COSINE-BASED
Info: 4 DIHEDRAL
Info: 0 IMPROPER
Info: 0 CROSSTERM
Info: 0 VDW
Info: 36 VDW_PAIRS
Info: 0 NBTHOLE_PAIRS
Info: To read alchdata from file: mobley_9507933.pdb
Info: To read alchflag data from column: 5
Info: STRUCTURE SUMMARY:
Info: 2909 ATOMS
Info: 2909 BONDS
Info: 28 ANGLES
Info: 37 DIHEDRALS
Info: 0 IMPROPERS
Info: 0 CROSSTERMS
Info: 2966 EXCLUSIONS
Info: 2901 RIGID BONDS
Info: ALCH: 0 ATOMS TO DISAPPEAR IN FINAL STATE
Info: ALCH: 17 ATOMS TO APPEAR IN FINAL STATE
Info: 5826 DEGREES OF FREEDOM
Info: 972 HYDROGEN GROUPS
Info: 4 ATOMS IN LARGEST HYDROGEN GROUP
Info: 972 MIGRATION GROUPS
Info: 4 ATOMS IN LARGEST MIGRATION GROUP
Info: TOTAL MASS = 17474.6 amu
Info: TOTAL CHARGE = -1.86265e-09 e
Info: MASS DENSITY = 0.973027 g/cm^3
Info: ATOM DENSITY = 0.0975445 atoms/A^3
Info: ADDED 0 IMPLICIT EXCLUSIONS
Info: NONBONDED TABLE R-SQUARED SPACING: 0.0625
Info: NONBONDED TABLE SIZE: 705 POINTS
Info: REMOVING COM VELOCITY -0.164122 -0.14816 0.0751439
Info: Use 3D box decompostion in PME FFT.
Info: Updated CUDA force table with 4096 elements.
Info: Updated CUDA LJ table with 8 x 8 elements.
Info: Found 19 unique exclusion lists needing 44 bytes
TCL: Running for 1500000 steps
ETITLE: TS BOND ANGLE DIHED IMPRP ELECT VDW BOUNDARY MISC KINETIC TOTAL TEMP POTENTIAL TOTALAVG TEMPAVG PRESSURE GPRESSURE VOLUME PRESSAVG GPRESSAVG
ENERGY: 0 2.0893 6.0166 3.5028 0.0000 -10570.5809 1444.9997 0.0000 0.0000 1727.7480 -7386.2245 298.4697 -9113.9726 -7386.2245 298.4697 206.0198 297.7229 29822.2892 206.0198 297.7229
ENERGY: 300000 0.9616 5.3903 0.9449 0.0000 -10522.8351 1455.9043 0.0000 0.0000 1680.1966 -7379.4375 290.2552 -9059.6341 -7354.6312 297.9535 327.3929 385.8468 29921.6668 -5.9049 32.9843
ENERGY: 600000 2.6032 3.1622 5.0626 0.0000 -10800.1248 1580.0165 0.0000 0.0000 1767.6385 -7441.6417 305.3609 -9209.2802 -7378.1954 300.1160 1237.8381 1254.7222 29200.4881 121.2141 177.3965
ENERGY: 900000 2.6077 5.0453 1.6294 0.0000 -10679.6958 1416.9002 0.0000 0.0000 1755.0355 -7498.4778 303.1837 -9253.5132 -7390.5935 300.6078 -438.9993 -370.1099 29610.5120 40.3482 101.3857
ENERGY: 1200000 1.8410 5.5926 3.4392 0.0000 -10588.4719 1492.2084 0.0000 0.0000 1731.9280 -7353.4627 299.1918 -9085.3907 -7389.3289 300.8088 769.1053 831.6582 29806.5616 94.5647 146.7206
ENERGY: 1500000 0.7787 6.8080 1.5170 0.0000 -10508.6167 1373.9866 0.0000 0.0000 1684.5553 -7440.9711 291.0082 -9125.5264 -7398.2812 300.2504 -459.8909 -376.1681 29849.5661 30.9839 84.0654
TCL: Running FEP window   2: Lambda1 0.05   Lambda2 0.1    [dLambda 0.05  ]
TCL: Setting parameter firsttimestep to 0
TCL: Setting parameter alchLambda to 0.05
Info: NONBONDED TABLE R-SQUARED SPACING: 0.0625
Info: NONBONDED TABLE SIZE: 705 POINTS
TCL: Setting parameter alchLambda2 to 0.1
Info: NONBONDED TABLE R-SQUARED SPACING: 0.0625
Info: NONBONDED TABLE SIZE: 705 POINTS
TCL: Running for 1500000 steps
ETITLE: TS BOND ANGLE DIHED IMPRP ELECT VDW BOUNDARY MISC KINETIC TOTAL TEMP POTENTIAL TOTALAVG TEMPAVG PRESSURE GPRESSURE VOLUME PRESSAVG GPRESSAVG
ENERGY: 0 0.7787 6.8080 1.5170 0.0000 -10508.6162 1378.2634 0.0000 0.0000 1683.6963 -7437.5527 290.8598 -9121.2490 -7437.5527 290.8598 -455.3435 -368.3482 29849.5661 -455.3435 -368.3482
ENERGY: 300000 0.7495 4.1428 3.8281 0.0000 -10652.3141 1531.1884 0.0000 0.0000 1716.7042 -7395.7010 296.5619 -9112.4052 -7383.9575 296.7231 983.8682 1087.9900 29593.3038 262.1895 351.0356
ENERGY: 600000 1.3862 4.8322 1.1460 0.0000 -10676.5539 1502.9276 0.0000 0.0000 1758.5283 -7407.7336 303.7871 -9166.2619 -7378.5351 299.4424 546.4476 585.2578 29663.0637 195.7228 265.8319
ENERGY: 900000 1.0482 6.0680 2.4671 0.0000 -10654.4588 1507.3838 0.0000 0.0000 1705.1969 -7432.2947 294.5740 -9137.4916 -7380.6661 299.3133 498.7935 550.8264 29938.5397 189.6175 251.7328
ENERGY: 1200000 4.0000 7.0661 1.9037 0.0000 -10638.3494 1446.9906 0.0000 0.0000 1789.0878 -7389.3010 309.0662 -9178.3889 -7378.6308 300.7847 -240.1877 -129.0412 29659.8654 147.9078 215.4217
ENERGY: 1500000 3.7571 8.4031 1.8362 0.0000 -10474.9469 1363.6478 0.0000 0.0000 1746.6966 -7350.6061 301.7431 -9097.3028 -7375.0694 300.7366 -317.4294 -185.6784 29358.2985 161.0360 231.7505
TCL: Running FEP window   3: Lambda1 0.1    Lambda2 0.15000000000000002 [dLambda 0.05000000000000002]
TCL: Setting parameter firsttimestep to 0
TCL: Setting parameter alchLambda to 0.1
Info: NONBONDED TABLE R-SQUARED SPACING: 0.0625
Info: NONBONDED TABLE SIZE: 705 POINTS
TCL: Setting parameter alchLambda2 to 0.15000000000000002
Info: NONBONDED TABLE R-SQUARED SPACING: 0.0625
Info: NONBONDED TABLE SIZE: 705 POINTS
TCL: Running for 1500000 steps
ETITLE: TS BOND ANGLE DIHED IMPRP ELECT VDW BOUNDARY MISC KINETIC TOTAL TEMP POTENTIAL TOTALAVG TEMPAVG PRESSURE GPRESSURE VOLUME PRESSAVG GPRESSAVG
ENERGY: 0 3.7571 8.4031 1.8362 0.0000 -10474.9478 1364.7833 0.0000 0.0000 1745.7960 -7350.3722 301.5875 -9096.1681 -7350.3722 301.5875 -249.9671 -179.7176 29358.2985 -249.9671 -179.7176
ENERGY: 300000 1.1037 4.1041 2.8657 0.0000 -10580.1915 1396.2264 0.0000 0.0000 1784.9696 -7390.9221 308.3548 -9175.8917 -7346.8227 303.1390 -98.7368 -27.1375 29409.2975 68.8602 121.6266
ENERGY: 600000 2.3562 4.7709 2.4540 0.0000 -10516.0690 1418.8338 0.0000 0.0000 1781.7481 -7305.9060 307.7983 -9087.6540 -7324.0185 304.6161 -195.4177 -115.7795 30228.3096 -24.8475 34.8017
ENERGY: 900000 4.3283 5.4785 1.2281 0.0000 -10486.4332 1400.7692 0.0000 0.0000 1744.8076 -7329.8215 301.4168 -9074.6291 -7339.5579 302.1381 -58.4656 63.9498 29712.8804 86.8582 156.6762
ENERGY: 1200000 2.0404 3.3996 2.7453 0.0000 -10561.0591 1413.9259 0.0000 0.0000 1697.8829 -7441.0650 293.3105 -9138.9479 -7351.8920 301.9880 -109.8739 -72.8778 29673.2731 -21.2175 43.4584
ENERGY: 1500000 2.7077 2.7257 1.2990 0.0000 -10525.3834 1362.7448 0.0000 0.0000 1780.9876 -7374.9185 307.6669 -9155.9061 -7351.0938 302.3866 -361.9260 -290.5837 29514.1866 -59.5390 10.0707
TCL: Running FEP window   4: Lambda1 0.15000000000000002 Lambda2 0.2    [dLambda 0.04999999999999999]
TCL: Setting parameter firsttimestep to 0
TCL: Setting parameter alchLambda to 0.15000000000000002
Info: NONBONDED TABLE R-SQUARED SPACING: 0.0625
Info: NONBONDED TABLE SIZE: 705 POINTS
TCL: Setting parameter alchLambda2 to 0.2
Info: NONBONDED TABLE R-SQUARED SPACING: 0.0625
Info: NONBONDED TABLE SIZE: 705 POINTS
TCL: Running for 1500000 steps
ETITLE: TS BOND ANGLE DIHED IMPRP ELECT VDW BOUNDARY MISC KINETIC TOTAL TEMP POTENTIAL TOTALAVG TEMPAVG PRESSURE GPRESSURE VOLUME PRESSAVG GPRESSAVG
ENERGY: 0 2.7076 2.7257 1.2990 0.0000 -10525.3832 1362.6455 0.0000 0.0000 1780.1684 -7375.8369 307.5254 -9156.0052 -7375.8369 307.5254 -385.4982 -289.4186 29514.1866 -385.4982 -289.4186
ENERGY: 300000 2.1621 8.0592 2.3982 0.0000 -10416.2811 1327.5994 0.0000 0.0000 1720.9694 -7355.0928 297.2987 -9076.0622 -7351.3622 301.1344 -627.6601 -550.8282 29652.0430 -435.8911 -371.3939
ENERGY: 600000 2.8875 5.2940 1.8062 0.0000 -10577.8488 1437.9899 0.0000 0.0000 1741.6018 -7388.2694 300.8630 -9129.8711 -7357.5075 302.1532 101.6518 144.3181 29614.5514 -203.1200 -131.0790
ENERGY: 900000 2.8995 8.5748 2.2220 0.0000 -10562.7556 1508.3832 0.0000 0.0000 1711.5071 -7329.1690 295.6641 -9040.6761 -7363.6843 301.2976 996.3645 1046.2906 29578.4944 -100.1209 -32.3514
ENERGY: 1200000 1.8583 7.5975 2.6757 0.0000 -10486.5084 1397.7779 0.0000 0.0000 1696.6931 -7379.9059 293.1050 -9076.5990 -7378.0036 299.6525 -87.1907 -27.4088 29760.8515 13.8239 74.5513
ENERGY: 1500000 1.6697 8.0465 1.3243 0.0000 -10561.9268 1396.0178 0.0000 0.0000 1752.0049 -7402.8636 302.6601 -9154.8685 -7375.5383 300.7686 -220.4556 -159.7674 29827.8630 77.2300 139.9723
TCL: Running FEP window   5: Lambda1 0.2    Lambda2 0.25   [dLambda 0.04999999999999999]
TCL: Setting parameter firsttimestep to 0
TCL: Setting parameter alchLambda to 0.2
Info: NONBONDED TABLE R-SQUARED SPACING: 0.0625
Info: NONBONDED TABLE SIZE: 705 POINTS
TCL: Setting parameter alchLambda2 to 0.25
Info: NONBONDED TABLE R-SQUARED SPACING: 0.0625
Info: NONBONDED TABLE SIZE: 705 POINTS
TCL: Running for 1500000 steps
ETITLE: TS BOND ANGLE DIHED IMPRP ELECT VDW BOUNDARY MISC KINETIC TOTAL TEMP POTENTIAL TOTALAVG TEMPAVG PRESSURE GPRESSURE VOLUME PRESSAVG GPRESSAVG
ENERGY: 0 1.6697 8.0465 1.3243 0.0000 -10561.9270 1396.2180 0.0000 0.0000 1751.1395 -7403.5291 302.5106 -9154.6685 -7403.5291 302.5106 -231.9216 -157.3605 29827.8630 -231.9216 -157.3605
ENERGY: 300000 4.3512 5.0554 1.9583 0.0000 -10581.7449 1387.3960 0.0000 0.0000 1708.6496 -7474.3344 295.1705 -9182.9840 -7383.1320 303.7376 -441.7403 -407.6191 29201.3560 -103.0354 -52.6972
ENERGY: 600000 7.6520 7.9208 5.0205 0.0000 -10564.9130 1411.7065 0.0000 0.0000 1708.7703 -7423.8429 295.1913 -9132.6133 -7402.1631 301.1484 -283.1988 -153.0137 29899.8275 -192.1771 -117.6379
ENERGY: 900000 1.4315 3.4724 3.7604 0.0000 -10638.4874 1476.0853 0.0000 0.0000 1744.3634 -7409.3745 301.3401 -9153.7379 -7388.4998 300.7616 168.7744 259.4174 30003.3730 -217.0317 -134.7539
ENERGY: 1200000 1.5233 7.0897 1.4184 0.0000 -10551.7760 1453.3916 0.0000 0.0000 1724.7454 -7363.6075 297.9510 -9088.3530 -7391.9020 300.9004 167.8189 278.9131 30163.4101 -210.7881 -136.7194
ENERGY: 1500000 3.6533 2.8462 5.4735 0.0000 -10545.1041 1482.3036 0.0000 0.0000 1699.9847 -7350.8429 293.6736 -9050.8276 -7387.4520 300.1610 659.5420 688.6051 29735.8877 -120.7629 -53.2151
TCL: Running FEP window   6: Lambda1 0.25   Lambda2 0.3    [dLambda 0.04999999999999999]
TCL: Setting parameter firsttimestep to 0
TCL: Setting parameter alchLambda to 0.25
Info: NONBONDED TABLE R-SQUARED SPACING: 0.0625
Info: NONBONDED TABLE SIZE: 705 POINTS
TCL: Setting parameter alchLambda2 to 0.3
Info: NONBONDED TABLE R-SQUARED SPACING: 0.0625
Info: NONBONDED TABLE SIZE: 705 POINTS
TCL: Running for 1500000 steps
ETITLE: TS BOND ANGLE DIHED IMPRP ELECT VDW BOUNDARY MISC KINETIC TOTAL TEMP POTENTIAL TOTALAVG TEMPAVG PRESSURE GPRESSURE VOLUME PRESSAVG GPRESSAVG
ENERGY: 0 3.6533 2.8462 5.4735 0.0000 -10545.1039 1482.7803 0.0000 0.0000 1699.1544 -7351.1962 293.5302 -9050.3506 -7351.1962 293.5302 608.0484 693.1383 29735.8877 608.0484 693.1383
ENERGY: 300000 1.7229 8.5648 4.3848 0.0000 -10492.9791 1358.5415 0.0000 0.0000 1726.4837 -7393.2813 298.2513 -9119.7650 -7345.3521 300.3512 -573.6629 -518.4546 29853.2695 -49.1686 17.3891
ENERGY: 600000 0.7512 4.4003 2.5294 0.0000 -10683.7528 1511.6473 0.0000 0.0000 1708.7906 -7455.6339 295.1948 -9164.4245 -7376.0515 298.8063 659.0343 720.2138 29594.7886 96.6997 165.5160
ENERGY: 900000 5.6990 8.9371 4.5170 0.0000 -10602.0565 1359.0384 0.0000 0.0000 1672.8328 -7551.0322 288.9831 -9223.8650 -7390.1757 298.0172 -900.1439 -834.7337 29733.3882 -120.0829 -39.2640
ENERGY: 1200000 2.8423 5.1000 1.9649 0.0000 -10619.4356 1496.4300 0.0000 0.0000 1745.0741 -7368.0243 301.4628 -9113.0984 -7384.2633 298.8673 810.2652 888.5137 29631.0790 29.2823 106.3435
ENERGY: 1500000 0.9325 6.5108 1.8601 0.0000 -10604.4216 1440.2065 0.0000 0.0000 1716.5192 -7438.3925 296.5300 -9154.9118 -7390.6389 298.4572 110.8243 225.3059 29777.9460 31.7031 111.1998
TCL: Running FEP window   7: Lambda1 0.3    Lambda2 0.35   [dLambda 0.04999999999999999]
TCL: Setting parameter firsttimestep to 0
TCL: Setting parameter alchLambda to 0.3
Info: NONBONDED TABLE R-SQUARED SPACING: 0.0625
Info: NONBONDED TABLE SIZE: 705 POINTS
TCL: Setting parameter alchLambda2 to 0.35
Info: NONBONDED TABLE R-SQUARED SPACING: 0.0625
Info: NONBONDED TABLE SIZE: 705 POINTS
TCL: Running for 1500000 steps
ETITLE: TS BOND ANGLE DIHED IMPRP ELECT VDW BOUNDARY MISC KINETIC TOTAL TEMP POTENTIAL TOTALAVG TEMPAVG PRESSURE GPRESSURE VOLUME PRESSAVG GPRESSAVG
ENERGY: 0 0.9325 6.5108 1.8601 0.0000 -10604.4231 1439.8827 0.0000 0.0000 1715.6481 -7439.5889 296.3795 -9155.2370 -7439.5889 296.3795 133.7218 224.7559 29777.9460 133.7218 224.7559
ENERGY: 300000 3.3551 4.8342 2.4598 0.0000 -10589.4704 1432.1859 0.0000 0.0000 1758.9895 -7387.6458 303.8667 -9146.6353 -7389.3155 297.6870 86.3725 78.8430 29854.6082 385.4297 427.0376
ENERGY: 600000 1.5108 10.1903 2.6195 0.0000 -10649.5070 1459.7243 0.0000 0.0000 1739.2145 -7436.2474 300.4506 -9175.4620 -7397.4128 297.6552 301.0601 338.7446 29880.4408 149.8256 202.4797
ENERGY: 900000 2.1603 11.0737 1.8190 0.0000 -10512.6591 1438.0710 0.0000 0.0000 1769.9874 -7289.5477 305.7666 -9059.5352 -7393.1444 298.1424 249.8242 319.0506 30039.6776 58.1852 116.4951
ENERGY: 1200000 2.0234 3.8819 3.5345 0.0000 -10675.5478 1494.1695 0.0000 0.0000 1806.3434 -7365.5950 312.0471 -9171.9384 -7392.1827 299.5436 426.2513 498.1481 29812.0615 33.0070 101.3806
ENERGY: 1500000 6.6745 9.8265 1.5040 0.0000 -10623.4057 1452.0419 0.0000 0.0000 1686.9393 -7466.4195 291.4200 -9153.3588 -7391.8374 299.1734 -114.7635 -92.4188 30151.1178 23.4666 86.9030
TCL: Running FEP window   8: Lambda1 0.35   Lambda2 0.39999999999999997 [dLambda 0.04999999999999999]
TCL: Setting parameter firsttimestep to 0
TCL: Setting parameter alchLambda to 0.35
Info: NONBONDED TABLE R-SQUARED SPACING: 0.0625
Info: NONBONDED TABLE SIZE: 705 POINTS
TCL: Setting parameter alchLambda2 to 0.39999999999999997
Info: NONBONDED TABLE R-SQUARED SPACING: 0.0625
Info: NONBONDED TABLE SIZE: 705 POINTS
TCL: Running for 1500000 steps
ETITLE: TS BOND ANGLE DIHED IMPRP ELECT VDW BOUNDARY MISC KINETIC TOTAL TEMP POTENTIAL TOTALAVG TEMPAVG PRESSURE GPRESSURE VOLUME PRESSAVG GPRESSAVG
ENERGY: 0 6.6745 9.8265 1.5040 0.0000 -10623.4046 1452.1365 0.0000 0.0000 1686.0658 -7467.1974 291.2691 -9153.2632 -7467.1974 291.2691 -166.3045 -85.6695 30151.1178 -166.3045 -85.6695
ENERGY: 300000 2.4849 9.6624 1.7899 0.0000 -10540.1361 1381.4790 0.0000 0.0000 1750.5350 -7394.1850 302.4062 -9144.7199 -7409.2434 296.6977 -593.4899 -508.4224 29923.7442 -619.7055 -549.3305
ENERGY: 600000 2.5748 4.7058 1.4713 0.0000 -10596.2147 1500.2824 0.0000 0.0000 1704.7897 -7382.3907 294.5037 -9087.1805 -7421.5969 295.2917 948.3053 900.8383 29547.1891 -80.8250 -29.9700
ENERGY: 900000 2.0128 5.4292 3.5286 0.0000 -10549.4863 1369.9667 0.0000 0.0000 1762.5305 -7406.0185 304.4784 -9168.5490 -7408.8535 297.5873 -700.6035 -647.4501 30405.9105 -153.1663 -104.1333
ENERGY: 1200000 2.0146 5.6912 2.8410 0.0000 -10596.9138 1429.2377 0.0000 0.0000 1701.1132 -7456.0160 293.8686 -9157.1293 -7408.3889 298.2157 -33.1497 85.9560 29676.0898 -92.2875 -37.7521
ENERGY: 1500000 4.1064 7.1445 4.7306 0.0000 -10297.0604 1272.3089 0.0000 0.0000 1767.9568 -7240.8133 305.4158 -9008.7701 -7394.9220 299.2202 -1002.6809 -955.0375 30385.0107 -199.3471 -145.1377
TCL: Running FEP window   9: Lambda1 0.39999999999999997 Lambda2 0.44999999999999996 [dLambda 0.04999999999999999]
TCL: Setting parameter firsttimestep to 0
TCL: Setting parameter alchLambda to 0.39999999999999997
Info: NONBONDED TABLE R-SQUARED SPACING: 0.0625
Info: NONBONDED TABLE SIZE: 705 POINTS
TCL: Setting parameter alchLambda2 to 0.44999999999999996
Info: NONBONDED TABLE R-SQUARED SPACING: 0.0625
Info: NONBONDED TABLE SIZE: 705 POINTS
TCL: Running for 1500000 steps
ETITLE: TS BOND ANGLE DIHED IMPRP ELECT VDW BOUNDARY MISC KINETIC TOTAL TEMP POTENTIAL TOTALAVG TEMPAVG PRESSURE GPRESSURE VOLUME PRESSAVG GPRESSAVG
ENERGY: 0 4.1064 7.1445 4.7306 0.0000 -10297.0601 1272.3287 0.0000 0.0000 1767.0857 -7241.6642 305.2654 -9008.7499 -7241.6642 305.2654 -1017.0881 -948.8733 30385.0107 -1017.0881 -948.8733
ENERGY: 300000 3.3874 7.0317 4.2219 0.0000 -10533.3550 1411.2267 0.0000 0.0000 1774.4896 -7332.9978 306.5444 -9107.4874 -7343.1628 299.5519 -295.5509 -274.4205 30704.3476 -130.8506 -37.5546
ENERGY: 600000 1.0360 5.7661 1.2882 0.0000 -10519.6727 1334.0815 0.0000 0.0000 1753.9233 -7423.5776 302.9915 -9177.5010 -7375.4058 301.5201 -763.0756 -635.8953 29812.5945 -254.8905 -162.8113
ENERGY: 900000 2.1996 6.8946 3.8501 0.0000 -10551.7310 1438.7791 0.0000 0.0000 1723.3481 -7376.6596 297.7096 -9100.0077 -7380.5286 301.3641 309.7202 440.0645 29596.3338 -90.8436 -9.7463
ENERGY: 1200000 6.1403 5.0391 3.8015 0.0000 -10501.7650 1382.0146 0.0000 0.0000 1784.5983 -7320.1712 308.2907 -9104.7695 -7371.4913 300.7610 -121.6569 -84.4470 29537.5834 -158.6727 -87.2095
ENERGY: 1500000 3.0554 5.3868 2.1945 0.0000 -10457.0384 1380.4755 0.0000 0.0000 1755.7885 -7310.1377 303.3138 -9065.9262 -7366.3890 300.3783 -174.3814 -101.9858 29983.6818 -167.0366 -97.1369
TCL: Running FEP window  10: Lambda1 0.44999999999999996 Lambda2 0.49999999999999994 [dLambda 0.04999999999999999]
TCL: Setting parameter firsttimestep to 0
TCL: Setting parameter alchLambda to 0.44999999999999996
Info: NONBONDED TABLE R-SQUARED SPACING: 0.0625
Info: NONBONDED TABLE SIZE: 705 POINTS
TCL: Setting parameter alchLambda2 to 0.49999999999999994
Info: NONBONDED TABLE R-SQUARED SPACING: 0.0625
Info: NONBONDED TABLE SIZE: 705 POINTS
TCL: Running for 1500000 steps
ETITLE: TS BOND ANGLE DIHED IMPRP ELECT VDW BOUNDARY MISC KINETIC TOTAL TEMP POTENTIAL TOTALAVG TEMPAVG PRESSURE GPRESSURE VOLUME PRESSAVG GPRESSAVG
ENERGY: 0 3.0554 5.3868 2.1945 0.0000 -10457.0370 1380.8592 0.0000 0.0000 1754.9154 -7310.6257 303.1629 -9065.5411 -7310.6257 303.1629 -179.7474 -92.8721 29983.6818 -179.7474 -92.8721
ENERGY: 300000 4.8721 5.4353 1.4871 0.0000 -10464.7317 1354.6311 0.0000 0.0000 1751.8557 -7346.4505 302.6344 -9098.3061 -7337.1813 302.4893 -529.1952 -462.2223 30116.4004 -497.8823 -426.8159
ENERGY: 600000 0.7753 7.0733 4.7946 0.0000 -10480.5135 1342.3453 0.0000 0.0000 1699.3320 -7426.1929 293.5609 -9125.5249 -7359.8310 300.1150 -830.0525 -716.1371 29979.4844 -287.8061 -212.6292
ENERGY: 900000 4.0232 3.9390 1.1438 0.0000 -10538.4860 1449.0651 0.0000 0.0000 1729.4291 -7350.8858 298.7601 -9080.3148 -7366.4156 299.4534 119.9632 157.1392 30164.0372 -88.9158 -22.6029
ENERGY: 1200000 5.3645 8.8316 1.5413 0.0000 -10575.4324 1396.3578 0.0000 0.0000 1711.2701 -7452.0671 295.6232 -9163.3371 -7371.0690 299.9479 -448.4596 -410.3711 30018.2098 -133.5927 -69.9445
ENERGY: 1500000 2.8318 2.8917 0.9065 0.0000 -10637.4602 1381.3828 0.0000 0.0000 1722.4624 -7526.9850 297.5566 -9249.4474 -7375.7505 300.5713 -648.9952 -559.9104 29470.1521 -177.4034 -107.1725
TCL: Running FEP window  11: Lambda1 0.49999999999999994 Lambda2 0.5499999999999999 [dLambda 0.04999999999999999]
TCL: Setting parameter firsttimestep to 0
TCL: Setting parameter alchLambda to 0.49999999999999994
Info: NONBONDED TABLE R-SQUARED SPACING: 0.0625
Info: NONBONDED TABLE SIZE: 705 POINTS
TCL: Setting parameter alchLambda2 to 0.5499999999999999
Info: NONBONDED TABLE R-SQUARED SPACING: 0.0625
Info: NONBONDED TABLE SIZE: 705 POINTS
TCL: Running for 1500000 steps
ETITLE: TS BOND ANGLE DIHED IMPRP ELECT VDW BOUNDARY MISC KINETIC TOTAL TEMP POTENTIAL TOTALAVG TEMPAVG PRESSURE GPRESSURE VOLUME PRESSAVG GPRESSAVG
ENERGY: 0 2.8318 2.8917 0.9065 0.0000 -10637.4597 1380.9500 0.0000 0.0000 1721.5999 -7528.2798 297.4076 -9249.8797 -7528.2798 297.4076 -654.3945 -557.0869 29470.1521 -654.3945 -557.0869
ENERGY: 300000 4.4046 8.7385 2.9050 0.0000 -10481.6400 1353.8226 0.0000 0.0000 1756.5011 -7355.2682 303.4368 -9111.7693 -7414.1265 299.6772 -843.3961 -765.8545 30589.8191 -284.7079 -211.4305
ENERGY: 600000 4.0879 9.8664 1.5465 0.0000 -10604.3980 1435.5345 0.0000 0.0000 1688.6670 -7464.6957 291.7185 -9153.3627 -7423.9973 298.4372 -37.6903 1.9680 30138.6989 -225.1991 -161.8245
ENERGY: 900000 4.9218 4.6545 2.2489 0.0000 -10687.5077 1478.7887 0.0000 0.0000 1769.8197 -7427.0742 305.7377 -9196.8939 -7417.3265 299.8025 64.4646 65.7750 29980.3999 -240.0620 -171.0265
ENERGY: 1200000 2.9341 3.2369 3.3636 0.0000 -10543.9071 1425.4547 0.0000 0.0000 1668.0347 -7440.8831 288.1542 -9108.9177 -7421.9989 298.1979 118.6676 240.2377 29599.6137 -210.6281 -134.9049
ENERGY: 1500000 1.0981 3.5780 3.3748 0.0000 -10592.2607 1410.1168 0.0000 0.0000 1726.5683 -7447.5248 298.2659 -9174.0931 -7411.0152 299.1238 0.4352 36.6686 29346.7456 -172.1073 -104.3761
TCL: Running FEP window  12: Lambda1 0.5499999999999999 Lambda2 0.6    [dLambda 0.050000000000000044]
TCL: Setting parameter firsttimestep to 0
TCL: Setting parameter alchLambda to 0.5499999999999999
Info: NONBONDED TABLE R-SQUARED SPACING: 0.0625
Info: NONBONDED TABLE SIZE: 705 POINTS
TCL: Setting parameter alchLambda2 to 0.6
Info: NONBONDED TABLE R-SQUARED SPACING: 0.0625
Info: NONBONDED TABLE SIZE: 705 POINTS
TCL: Running for 1500000 steps
ETITLE: TS BOND ANGLE DIHED IMPRP ELECT VDW BOUNDARY MISC KINETIC TOTAL TEMP POTENTIAL TOTALAVG TEMPAVG PRESSURE GPRESSURE VOLUME PRESSAVG GPRESSAVG
ENERGY: 0 1.0981 3.5780 3.3748 0.0000 -10592.1548 1409.7291 0.0000 0.0000 1725.7284 -7448.6466 298.1208 -9174.3750 -7448.6466 298.1208 -47.7455 39.3762 29346.7456 -47.7455 39.3762
ENERGY: 300000 2.2504 6.4085 3.7937 0.0000 -10543.8643 1381.3179 0.0000 0.0000 1739.3892 -7410.7046 300.4808 -9150.0938 -7376.4150 300.4509 -524.7859 -446.6732 30032.3297 -48.5602 22.1782
ENERGY: 600000 1.8567 4.3307 2.8931 0.0000 -10483.5071 1401.5302 0.0000 0.0000 1772.6136 -7300.2828 306.2203 -9072.8963 -7345.6298 303.0267 187.5166 191.9497 29856.2106 85.2301 139.5516
ENERGY: 900000 4.6627 9.0561 2.2325 0.0000 -10568.3068 1427.1777 0.0000 0.0000 1692.0770 -7433.1007 292.3075 -9125.1777 -7353.1861 301.4786 -230.9925 -143.0174 30049.9376 -96.8037 -43.6022
ENERGY: 1200000 0.7770 6.2118 1.0766 0.0000 -10611.0638 1523.5526 0.0000 0.0000 1739.7724 -7339.6734 300.5470 -9079.4458 -7356.0988 301.5120 1107.7570 1113.1189 29855.4792 58.2509 116.0342
ENERGY: 1500000 2.6397 6.1700 3.3256 0.0000 -10428.7739 1362.6533 0.0000 0.0000 1730.1064 -7323.8790 298.8771 -9053.9853 -7358.6571 300.8697 -390.7772 -370.8094 30299.1712 34.5491 88.2069
TCL: Running FEP window  13: Lambda1 0.6    Lambda2 0.65   [dLambda 0.050000000000000044]
TCL: Setting parameter firsttimestep to 0
TCL: Setting parameter alchLambda to 0.6
Info: NONBONDED TABLE R-SQUARED SPACING: 0.0625
Info: NONBONDED TABLE SIZE: 705 POINTS
TCL: Setting parameter alchLambda2 to 0.65
Info: NONBONDED TABLE R-SQUARED SPACING: 0.0625
Info: NONBONDED TABLE SIZE: 705 POINTS
TCL: Running for 1500000 steps
ETITLE: TS BOND ANGLE DIHED IMPRP ELECT VDW BOUNDARY MISC KINETIC TOTAL TEMP POTENTIAL TOTALAVG TEMPAVG PRESSURE GPRESSURE VOLUME PRESSAVG GPRESSAVG
ENERGY: 0 2.6397 6.1700 3.3256 0.0000 -10429.3256 1362.9083 0.0000 0.0000 1729.1863 -7325.0957 298.7182 -9054.2820 -7325.0957 298.7182 -432.6136 -361.8710 30299.1712 -432.6136 -361.8710
ENERGY: 300000 4.0439 7.8671 2.0131 0.0000 -10527.6728 1417.4177 0.0000 0.0000 1734.7143 -7361.6167 299.6732 -9096.3310 -7359.9195 301.9789 -12.9716 70.7859 29908.3367 -266.8549 -203.4384
ENERGY: 600000 1.4075 4.6800 1.0433 0.0000 -10278.6296 1254.0636 0.0000 0.0000 1738.7417 -7278.6936 300.3689 -9017.4352 -7356.7577 300.6420 -984.4271 -901.7373 30400.3897 -337.1279 -277.4705
ENERGY: 900000 1.0346 5.2168 3.0926 0.0000 -10629.4465 1485.9814 0.0000 0.0000 1769.1091 -7365.0120 305.6149 -9134.1211 -7357.5051 301.4088 647.7109 632.4359 29941.1371 -218.4821 -173.5015
ENERGY: 1200000 1.3985 3.4246 1.6278 0.0000 -10530.9891 1403.7293 0.0000 0.0000 1688.9611 -7431.8479 291.7693 -9120.8089 -7363.6084 300.4957 -429.9012 -336.9696 30359.8631 -339.8949 -291.3887
ENERGY: 1500000 2.5499 6.4694 1.7265 0.0000 -10457.4002 1352.5413 0.0000 0.0000 1713.4167 -7380.6964 295.9940 -9094.1131 -7363.3101 300.0860 -235.1203 -165.5792 29452.8477 -310.2256 -259.4007
TCL: Running FEP window  14: Lambda1 0.65   Lambda2 0.7000000000000001 [dLambda 0.050000000000000044]
TCL: Setting parameter firsttimestep to 0
TCL: Setting parameter alchLambda to 0.65
Info: NONBONDED TABLE R-SQUARED SPACING: 0.0625
Info: NONBONDED TABLE SIZE: 705 POINTS
TCL: Setting parameter alchLambda2 to 0.7000000000000001
Info: NONBONDED TABLE R-SQUARED SPACING: 0.0625
Info: NONBONDED TABLE SIZE: 705 POINTS
TCL: Running for 1500000 steps
ETITLE: TS BOND ANGLE DIHED IMPRP ELECT VDW BOUNDARY MISC KINETIC TOTAL TEMP POTENTIAL TOTALAVG TEMPAVG PRESSURE GPRESSURE VOLUME PRESSAVG GPRESSAVG
ENERGY: 0 2.5499 6.4694 1.7265 0.0000 -10457.4693 1352.2825 0.0000 0.0000 1712.5675 -7381.8734 295.8473 -9094.4409 -7381.8734 295.8473 -230.5938 -158.8001 29452.8477 -230.5938 -158.8001
ENERGY: 300000 2.9438 3.6847 1.5106 0.0000 -10507.8343 1405.7541 0.0000 0.0000 1759.2737 -7334.6673 303.9158 -9093.9410 -7384.7181 297.8426 243.3561 287.7898 29765.8356 -1.6515 66.5963
ENERGY: 600000 0.9601 5.7955 4.0444 0.0000 -10462.3215 1403.7177 0.0000 0.0000 1739.4638 -7308.3400 300.4937 -9047.8039 -7372.9325 299.8846 -19.1163 24.8655 30218.3342 -125.2569 -41.3174
ENERGY: 900000 2.5670 5.2589 2.1301 0.0000 -10558.5058 1448.4889 0.0000 0.0000 1755.9310 -7344.1299 303.3384 -9100.0608 -7366.3307 300.5893 155.9992 211.7121 30068.2120 35.5244 119.5288
ENERGY: 1200000 2.8081 6.7497 3.8935 0.0000 -10591.4719 1437.2658 0.0000 0.0000 1713.2842 -7427.4707 295.9711 -9140.7549 -7374.8794 300.0749 -82.8614 -52.4512 30487.3206 124.5251 204.6853
ENERGY: 1500000 3.7193 9.3861 4.6369 0.0000 -10453.6799 1304.3795 0.0000 0.0000 1708.3419 -7423.2161 295.1173 -9131.5581 -7376.5851 299.8187 -1154.2183 -1130.1795 29885.0331 39.3201 112.9894
TCL: Running FEP window  15: Lambda1 0.7000000000000001 Lambda2 0.7500000000000001 [dLambda 0.050000000000000044]
TCL: Setting parameter firsttimestep to 0
TCL: Setting parameter alchLambda to 0.7000000000000001
Info: NONBONDED TABLE R-SQUARED SPACING: 0.0625
Info: NONBONDED TABLE SIZE: 705 POINTS
TCL: Setting parameter alchLambda2 to 0.7500000000000001
Info: NONBONDED TABLE R-SQUARED SPACING: 0.0625
Info: NONBONDED TABLE SIZE: 705 POINTS
TCL: Running for 1500000 steps
ETITLE: TS BOND ANGLE DIHED IMPRP ELECT VDW BOUNDARY MISC KINETIC TOTAL TEMP POTENTIAL TOTALAVG TEMPAVG PRESSURE GPRESSURE VOLUME PRESSAVG GPRESSAVG
ENERGY: 0 3.7193 9.3861 4.6369 0.0000 -10454.5711 1303.8305 0.0000 0.0000 1707.4896 -7425.5087 294.9701 -9132.9982 -7425.5087 294.9701 -1213.1079 -1126.1366 29885.0331 -1213.1079 -1126.1366
ENERGY: 300000 1.8308 9.2543 2.0867 0.0000 -10631.9218 1466.8486 0.0000 0.0000 1739.1654 -7412.7360 300.4421 -9151.9014 -7385.3415 300.5350 340.1626 497.1901 29579.8186 3.8674 110.0976
ENERGY: 600000 2.0832 3.3213 1.6318 0.0000 -10534.8557 1392.9617 0.0000 0.0000 1717.6687 -7417.1889 296.7285 -9134.8576 -7399.6624 298.7726 -24.2595 9.8963 29487.9786 72.0494 154.2978
ENERGY: 900000 3.3008 5.5016 3.1215 0.0000 -10501.0011 1378.8887 0.0000 0.0000 1693.4954 -7416.6931 292.5526 -9110.1885 -7400.7584 298.5343 -624.6304 -543.9982 30355.7595 128.5494 205.5605
ENERGY: 1200000 2.6297 7.9246 0.6446 0.0000 -10590.6905 1415.7829 0.0000 0.0000 1779.4827 -7384.2259 307.4069 -9163.7086 -7394.9589 299.1490 -263.9830 -235.9387 30202.4217 52.2417 128.8407
ENERGY: 1500000 1.7955 6.2951 4.8882 0.0000 -10533.1468 1421.2869 0.0000 0.0000 1766.7405 -7332.1405 305.2057 -9098.8810 -7395.9705 299.9173 32.7504 34.2215 30330.2414 90.7927 158.9085
TCL: Running FEP window  16: Lambda1 0.7500000000000001 Lambda2 0.8000000000000002 [dLambda 0.050000000000000044]
TCL: Setting parameter firsttimestep to 0
TCL: Setting parameter alchLambda to 0.7500000000000001
Info: NONBONDED TABLE R-SQUARED SPACING: 0.0625
Info: NONBONDED TABLE SIZE: 705 POINTS
TCL: Setting parameter alchLambda2 to 0.8000000000000002
Info: NONBONDED TABLE R-SQUARED SPACING: 0.0625
Info: NONBONDED TABLE SIZE: 705 POINTS
TCL: Running for 1500000 steps
ETITLE: TS BOND ANGLE DIHED IMPRP ELECT VDW BOUNDARY MISC KINETIC TOTAL TEMP POTENTIAL TOTALAVG TEMPAVG PRESSURE GPRESSURE VOLUME PRESSAVG GPRESSAVG
ENERGY: 0 1.7955 6.2951 4.8882 0.0000 -10533.2639 1421.2921 0.0000 0.0000 1765.9037 -7333.0892 305.0612 -9098.9930 -7333.0892 305.0612 -42.6218 44.6820 30330.2414 -42.6218 44.6820
ENERGY: 300000 8.2315 6.9083 2.2511 0.0000 -10539.1875 1429.6442 0.0000 0.0000 1766.3155 -7325.8368 305.1323 -9092.1523 -7365.4291 301.8562 -206.3152 -143.7927 30240.1444 -2.5237 52.6980
ENERGY: 600000 1.4927 3.0783 1.6942 0.0000 -10604.3340 1426.9251 0.0000 0.0000 1747.6937 -7423.4501 301.9154 -9171.1437 -7401.5708 299.3346 -9.3054 15.4401 30075.0210 55.4921 99.7956
ENERGY: 900000 3.2306 2.8086 2.1197 0.0000 -10537.7439 1361.0740 0.0000 0.0000 1774.8406 -7393.6703 306.6050 -9168.5110 -7397.3503 301.1412 -588.6593 -544.7919 29799.7424 -2.4752 47.0162
ENERGY: 1200000 0.9129 3.1362 3.2773 0.0000 -10531.4491 1403.1252 0.0000 0.0000 1765.0446 -7355.9528 304.9128 -9120.9974 -7401.3948 300.9894 -105.6129 -53.9136 30090.0728 42.7509 93.2944
ENERGY: 1500000 0.9400 3.2561 1.1067 0.0000 -10631.4623 1482.7747 0.0000 0.0000 1750.0054 -7393.3794 302.3147 -9143.3848 -7399.5824 301.0153 669.0379 705.7390 29598.3088 77.6622 127.5934
TCL: Running FEP window  17: Lambda1 0.8000000000000002 Lambda2 0.8500000000000002 [dLambda 0.050000000000000044]
TCL: Setting parameter firsttimestep to 0
TCL: Setting parameter alchLambda to 0.8000000000000002
Info: NONBONDED TABLE R-SQUARED SPACING: 0.0625
Info: NONBONDED TABLE SIZE: 705 POINTS
TCL: Setting parameter alchLambda2 to 0.8500000000000002
Info: NONBONDED TABLE R-SQUARED SPACING: 0.0625
Info: NONBONDED TABLE SIZE: 705 POINTS
TCL: Running for 1500000 steps
ETITLE: TS BOND ANGLE DIHED IMPRP ELECT VDW BOUNDARY MISC KINETIC TOTAL TEMP POTENTIAL TOTALAVG TEMPAVG PRESSURE GPRESSURE VOLUME PRESSAVG GPRESSAVG
ENERGY: 0 0.9400 3.2561 1.1067 0.0000 -10632.2350 1483.4546 0.0000 0.0000 1749.1221 -7394.3556 302.1621 -9143.4777 -7394.3556 302.1621 644.0670 721.2690 29598.3088 644.0670 721.2690
ENERGY: 300000 4.9070 4.1710 3.0328 0.0000 -10488.7174 1384.5753 0.0000 0.0000 1776.4983 -7315.5330 306.8914 -9092.0313 -7370.1734 301.5302 -170.8878 -108.4881 30071.1755 -34.3521 27.6346
ENERGY: 600000 3.0858 4.5079 2.3255 0.0000 -10574.4955 1387.4389 0.0000 0.0000 1710.6901 -7466.4473 295.5230 -9177.1374 -7392.0714 299.1933 -447.8553 -444.6138 29912.8270 -92.9850 -36.8882
ENERGY: 900000 5.3611 6.0802 3.9861 0.0000 -10498.6103 1409.0190 0.0000 0.0000 1813.9556 -7260.2082 313.3622 -9074.1638 -7384.6062 300.5123 -82.7730 32.1524 30229.7031 -116.2559 -53.6999
ENERGY: 1200000 2.1395 7.0655 2.2173 0.0000 -10527.4903 1399.1657 0.0000 0.0000 1682.5066 -7434.3957 290.6543 -9116.9023 -7391.5174 298.2164 -199.5104 -103.8493 29929.8695 -169.5930 -105.5102
ENERGY: 1500000 2.3138 3.8177 1.5893 0.0000 -10533.1408 1370.1857 0.0000 0.0000 1703.8527 -7451.3816 294.3418 -9155.2343 -7391.9547 297.9802 -536.5512 -433.5716 30114.0146 -244.6057 -169.9595
TCL: Running FEP window  18: Lambda1 0.8500000000000002 Lambda2 0.9000000000000002 [dLambda 0.050000000000000044]
TCL: Setting parameter firsttimestep to 0
TCL: Setting parameter alchLambda to 0.8500000000000002
Info: NONBONDED TABLE R-SQUARED SPACING: 0.0625
Info: NONBONDED TABLE SIZE: 705 POINTS
TCL: Setting parameter alchLambda2 to 0.9000000000000002
Info: NONBONDED TABLE R-SQUARED SPACING: 0.0625
Info: NONBONDED TABLE SIZE: 705 POINTS
TCL: Running for 1500000 steps
ETITLE: TS BOND ANGLE DIHED IMPRP ELECT VDW BOUNDARY MISC KINETIC TOTAL TEMP POTENTIAL TOTALAVG TEMPAVG PRESSURE GPRESSURE VOLUME PRESSAVG GPRESSAVG
ENERGY: 0 2.3138 3.8177 1.5893 0.0000 -10533.9266 1370.9051 0.0000 0.0000 1702.9863 -7452.3143 294.1921 -9155.3006 -7452.3143 294.1921 -511.2939 -414.3592 30114.0146 -511.2939 -414.3592
ENERGY: 300000 1.8446 3.2181 2.2574 0.0000 -10616.2088 1493.5666 0.0000 0.0000 1744.6620 -7370.6600 301.3916 -9115.3220 -7401.2579 301.4132 927.2528 984.0039 29637.2175 260.5846 327.1891
ENERGY: 600000 2.5893 7.5434 0.8222 0.0000 -10512.8708 1406.7864 0.0000 0.0000 1744.9479 -7350.1816 301.4410 -9095.1295 -7391.7744 300.9443 -201.1831 -128.3109 30404.7486 116.7040 189.4563
ENERGY: 900000 5.0633 8.1368 1.9583 0.0000 -10679.9694 1479.5293 0.0000 0.0000 1711.8609 -7473.4208 295.7252 -9185.2817 -7399.8356 299.6147 77.6210 85.8620 30017.9592 112.2707 168.4383
ENERGY: 1200000 2.4020 3.4070 2.3912 0.0000 -10569.4750 1445.2111 0.0000 0.0000 1719.3817 -7396.6820 297.0244 -9116.0637 -7400.8585 299.5130 338.1270 412.5681 29842.1246 79.3012 129.5745
ENERGY: 1500000 2.9975 3.8591 3.8752 0.0000 -10549.5565 1342.0867 0.0000 0.0000 1764.1932 -7432.5448 304.7657 -9196.7380 -7389.4745 300.1749 -512.8052 -429.0408 29691.0877 25.8643 79.4718
TCL: Running FEP window  19: Lambda1 0.9000000000000002 Lambda2 0.9500000000000003 [dLambda 0.050000000000000044]
TCL: Setting parameter firsttimestep to 0
TCL: Setting parameter alchLambda to 0.9000000000000002
Info: NONBONDED TABLE R-SQUARED SPACING: 0.0625
Info: NONBONDED TABLE SIZE: 705 POINTS
TCL: Setting parameter alchLambda2 to 0.9500000000000003
Info: NONBONDED TABLE R-SQUARED SPACING: 0.0625
Info: NONBONDED TABLE SIZE: 705 POINTS
TCL: Running for 1500000 steps
ETITLE: TS BOND ANGLE DIHED IMPRP ELECT VDW BOUNDARY MISC KINETIC TOTAL TEMP POTENTIAL TOTALAVG TEMPAVG PRESSURE GPRESSURE VOLUME PRESSAVG GPRESSAVG
ENERGY: 0 2.9975 3.8591 3.8752 0.0000 -10550.5294 1341.9199 0.0000 0.0000 1763.3243 -7434.5533 304.6156 -9197.8776 -7434.5533 304.6156 -508.8438 -418.3937 29691.0877 -508.8438 -418.3937
ENERGY: 300000 2.3587 3.5526 1.2989 0.0000 -10569.2964 1413.4874 0.0000 0.0000 1730.4041 -7418.1948 298.9286 -9148.5989 -7413.0712 300.1928 44.3476 149.2445 29634.4317 -175.2167 -88.6990
ENERGY: 600000 2.3405 7.1415 3.4889 0.0000 -10574.7096 1482.8762 0.0000 0.0000 1712.1555 -7366.7070 295.7761 -9078.8625 -7395.7876 298.2161 685.9252 758.0925 29880.1839 114.1432 181.3641
ENERGY: 900000 2.7641 3.7380 1.4506 0.0000 -10463.7047 1397.1774 0.0000 0.0000 1729.7961 -7328.7785 298.8235 -9058.5746 -7376.2734 299.1579 4.6660 5.7420 30212.1219 40.1305 99.2002
ENERGY: 1200000 2.2589 6.8877 2.7208 0.0000 -10519.0754 1406.5932 0.0000 0.0000 1771.8346 -7328.7802 306.0857 -9100.6148 -7373.1430 300.1716 -153.7978 -66.2535 30227.9853 86.3832 142.6077
ENERGY: 1500000 2.3929 5.0263 2.1181 0.0000 -10659.3290 1519.9934 0.0000 0.0000 1719.4485 -7410.3498 297.0360 -9129.7983 -7380.1176 299.3090 901.4734 941.3125 29546.8931 196.1258 251.2261
TCL: Running FEP window  20: Lambda1 0.9500000000000003 Lambda2 1.0    [dLambda 0.04999999999999971]
TCL: Setting parameter firsttimestep to 0
TCL: Setting parameter alchLambda to 0.9500000000000003
Info: NONBONDED TABLE R-SQUARED SPACING: 0.0625
Info: NONBONDED TABLE SIZE: 705 POINTS
TCL: Setting parameter alchLambda2 to 1.0
Info: NONBONDED TABLE R-SQUARED SPACING: 0.0625
Info: NONBONDED TABLE SIZE: 705 POINTS
TCL: Running for 1500000 steps
ETITLE: TS BOND ANGLE DIHED IMPRP ELECT VDW BOUNDARY MISC KINETIC TOTAL TEMP POTENTIAL TOTALAVG TEMPAVG PRESSURE GPRESSURE VOLUME PRESSAVG GPRESSAVG
ENERGY: 0 2.3929 5.0263 2.1181 0.0000 -10660.2864 1519.4610 0.0000 0.0000 1718.6397 -7412.6485 296.8963 -9131.2882 -7412.6485 296.8963 855.4892 944.6179 29546.8931 855.4892 944.6179
ENERGY: 300000 2.9397 5.3188 3.7665 0.0000 -10494.0967 1416.9101 0.0000 0.0000 1825.4272 -7239.7345 315.3439 -9065.1616 -7349.8656 304.3966 62.9481 76.6880 30139.5027 60.9403 116.8145
ENERGY: 600000 2.1914 4.3011 3.6647 0.0000 -10666.7723 1471.2142 0.0000 0.0000 1707.0883 -7478.3126 294.9008 -9185.4009 -7390.8147 300.3793 203.0404 294.8907 30026.3241 162.7319 239.0144
ENERGY: 900000 1.6881 6.5895 2.3332 0.0000 -10664.6097 1506.5840 0.0000 0.0000 1763.3599 -7384.0550 304.6217 -9147.4149 -7407.2027 299.6655 734.7069 865.7873 29757.0695 172.8496 249.3337
ENERGY: 1200000 1.6622 4.2244 1.8173 0.0000 -10617.5126 1471.9747 0.0000 0.0000 1714.7768 -7423.0572 296.2289 -9137.8340 -7407.8240 299.5604 812.8811 853.7207 29561.3229 210.8141 285.9231
ENERGY: 1500000 1.9175 4.0228 2.5979 0.0000 -10670.9838 1472.1096 0.0000 0.0000 1719.2887 -7471.0474 297.0084 -9190.3361 -7402.5277 299.6440 208.4626 335.3688 29625.1557 192.2747 269.3409
TCL: Exiting due to exit command.
