Info: SIMULATION PARAMETERS:
Info: TIMESTEP               2
Info: NUMBER OF STEPS        0
Info: STEPS PER CYCLE        10
Info: PERIODIC CELL BASIS 1  31.0242 0 0
Info: PERIODIC CELL BASIS 2  0 30.7671 0
Info: PERIODIC CELL BASIS 3  0 0 31.6077
Info: PERIODIC CELL CENTER   0 0 0
Info: WRAPPING WATERS AROUND PERIODIC BOUNDARIES ON OUTPUT.
Info: WRAPPING ALL CLUSTERS AROUND PERIODIC BOUNDARIES ON OUTPUT.
Info: FIRST LDB TIMESTEP     50
Info: LAST LDB TIMESTEP     -1
Info: HOM BACKGROUND SCALING 1
Info: PME BACKGROUND SCALING 1
Info: MIN ATOMS PER PATCH    40
Info: EMPTY PATCH LOAD       40 ATOMS
Info: VELOCITY FILE          mobley_2310185_equil.vel
Info: CENTER OF MASS MOVING INITIALLY? NO
Info: DIELECTRIC             1
Info: EXCLUDE                SCALED ONE-FOUR
Info: 1-4 ELECTROSTATICS SCALED BY 0.833333
Info: MODIFIED 1-4 VDW PARAMETERS WILL BE USED
Info: DCD FILENAME           mobley_2310185_prod.dcd
Info: DCD FREQUENCY          100000
Info: DCD FIRST STEP         100000
Info: DCD FILE WILL CONTAIN UNIT CELL DATA
Info: XST FILENAME           mobley_2310185_prod.xst
Info: XST FREQUENCY          100000
Info: NO VELOCITY DCD OUTPUT
Info: NO FORCE DCD OUTPUT
Info: OUTPUT FILENAME        mobley_2310185_prod
Info: BINARY OUTPUT FILES WILL BE USED
Info: RESTART FILENAME       mobley_2310185_prod.restart
Info: RESTART FREQUENCY      100000
Info: BINARY RESTART FILES WILL BE USED
Info: CUTOFF                 9
Info: PAIRLIST DISTANCE      11
Info: PAIRLIST SHRINK RATE   0.01
Info: PAIRLIST GROW RATE     0.01
Info: PAIRLIST TRIGGER       0.3
Info: PAIRLISTS PER CYCLE    2
Info: PAIRLISTS ENABLED
Info: MARGIN                 2
Info: HYDROGEN GROUP CUTOFF  2.5
Info: PATCH DIMENSION        15.5
Info: ENERGY OUTPUT STEPS    100000
Info: ENERGY EVALUATION STEPS    100000
Info: OUTPUT ENERGY PRECISION 4
Info: CROSSTERM ENERGY INCLUDED IN DIHEDRAL
Info: TIMING OUTPUT STEPS    1000000
Info: PRESSURE OUTPUT STEPS  100000
Info: ALCHEMICAL FEP ON
Info: FEP CURRENT LAMBDA VALUE     1
Info: FEP COMPARISON LAMBDA VALUE  0.95
Info: FEP INTRA-ALCHEMICAL NON-BONDED INTERACTIONS WILL BE RETAINED
Info: FEP INTRA-ALCHEMICAL BONDED INTERACTIONS WILL BE RETAINED
Info: FEP VDW SHIFTING COEFFICIENT 5
Info: FEP ELEC. ACTIVE FOR ANNIHILATED PARTICLES BETWEEN LAMBDA = 0 AND LAMBDA = 0.5
Info: FEP ELEC. ACTIVE FOR EXNIHILATED PARTICLES BETWEEN LAMBDA = 0.5 AND LAMBDA = 1
Info: FEP VDW ACTIVE FOR ANNIHILATED PARTICLES BETWEEN LAMBDA = 0 AND LAMBDA = 1
Info: FEP VDW ACTIVE FOR EXNIHILATED PARTICLES BETWEEN LAMBDA = 0 AND LAMBDA = 1
Info: FEP BOND ACTIVE FOR ANNIHILATED PARTICLES BETWEEN LAMBDA = 1 AND LAMBDA = 1
Info: FEP BOND ACTIVE FOR EXNIHILATED PARTICLES BETWEEN LAMBDA = 0 AND LAMBDA = 0
Info: LANGEVIN DYNAMICS ACTIVE
Info: LANGEVIN TEMPERATURE   300
Info: LANGEVIN USING BBK INTEGRATOR
Info: LANGEVIN DAMPING COEFFICIENT IS 1 INVERSE PS
Info: LANGEVIN DYNAMICS APPLIED TO HYDROGENS
Info: LANGEVIN PISTON PRESSURE CONTROL ACTIVE
Info:        TARGET PRESSURE IS 1.01325 BAR
Info:     OSCILLATION PERIOD IS 50 FS
Info:             DECAY TIME IS 25 FS
Info:     PISTON TEMPERATURE IS 300 K
Info:       PRESSURE CONTROL IS GROUP-BASED
Info:    INITIAL STRAIN RATE IS -0.000216967 -0.000216967 -0.000216967
Info:       CELL FLUCTUATION IS ISOTROPIC
Info: PARTICLE MESH EWALD (PME) ACTIVE
Info: PME TOLERANCE               1e-06
Info: PME EWALD COEFFICIENT       0.348832
Info: PME INTERPOLATION ORDER     4
Info: PME GRID DIMENSIONS         32 32 32
Info: PME MAXIMUM GRID SPACING    1
Info: PME CALCULATION WILL BE PERFORMED ON GPU
Info: FULL ELECTROSTATIC EVALUATION FREQUENCY      2
Info: USING VERLET I (r-RESPA) MTS SCHEME.
Info: C1 SPLITTING OF LONG RANGE ELECTROSTATICS
Info: PLACING ATOMS IN PATCHES BY HYDROGEN GROUPS
Info: RIGID BONDS TO HYDROGEN : ALL
Info:         ERROR TOLERANCE : 1e-08
Info:          MAX ITERATIONS : 100
Info: RIGID WATER USING SETTLE ALGORITHM
Info: RANDOM NUMBER SEED     1743510721
Info: USE HYDROGEN BONDS?    NO
Info: Using AMBER format force field!
Info: AMBER PARM FILE        mobley_2310185.prmtop
Info: COORDINATE PDB         mobley_2310185.pdb
Info: Exclusions will be read from PARM file!
Info: SCNB (VDW SCALING)     2
Info: USING ARITHMETIC MEAN TO COMBINE L-J SIGMA PARAMETERS
Info: BINARY COORDINATES     mobley_2310185_equil.coor
Info: SUMMARY OF PARAMETERS:
Info: 7 BONDS
Info: 7 ANGLES
Info:   7 HARMONIC
Info:   0 COSINE-BASED
Info: 5 DIHEDRAL
Info: 0 IMPROPER
Info: 0 CROSSTERM
Info: 0 VDW
Info: 21 VDW_PAIRS
Info: 0 NBTHOLE_PAIRS
Info: To read alchdata from file: mobley_2310185.pdb
Info: To read alchflag data from column: 5
Info: STRUCTURE SUMMARY:
Info: 2913 ATOMS
Info: 2912 BONDS
Info: 13 ANGLES
Info: 16 DIHEDRALS
Info: 0 IMPROPERS
Info: 0 CROSSTERMS
Info: 2937 EXCLUSIONS
Info: 2910 RIGID BONDS
Info: ALCH: 0 ATOMS TO DISAPPEAR IN FINAL STATE
Info: ALCH: 9 ATOMS TO APPEAR IN FINAL STATE
Info: 5829 DEGREES OF FREEDOM
Info: 971 HYDROGEN GROUPS
Info: 4 ATOMS IN LARGEST HYDROGEN GROUP
Info: 971 MIGRATION GROUPS
Info: 4 ATOMS IN LARGEST MIGRATION GROUP
Info: TOTAL MASS = 17485.6 amu
Info: TOTAL CHARGE = -9.99831e-05 e
Info: MASS DENSITY = 0.962405 g/cm^3
Info: ATOM DENSITY = 0.0965516 atoms/A^3
Info: ADDED 0 IMPLICIT EXCLUSIONS
Info: NONBONDED TABLE R-SQUARED SPACING: 0.0625
Info: NONBONDED TABLE SIZE: 705 POINTS
Info: REMOVING COM VELOCITY -0.0733226 0.0238058 -0.311584
Info: Use 3D box decompostion in PME FFT.
Info: Updated CUDA force table with 4096 elements.
Info: Updated CUDA LJ table with 6 x 6 elements.
Info: Found 12 unique exclusion lists needing 16 bytes
TCL: Running for 1500000 steps
ETITLE: TS BOND ANGLE DIHED IMPRP ELECT VDW BOUNDARY MISC KINETIC TOTAL TEMP POTENTIAL TOTALAVG TEMPAVG PRESSURE GPRESSURE VOLUME PRESSAVG GPRESSAVG
ENERGY: 0 0.2019 2.4170 0.8067 0.0000 -10574.8902 1435.8944 0.0000 0.0000 1778.3067 -7357.2635 307.0457 -9135.5702 -7357.2635 307.0457 -12.5479 76.2675 30170.3826 -12.5479 76.2675
ENERGY: 300000 0.0557 1.7289 1.3652 0.0000 -10575.2522 1397.7615 0.0000 0.0000 1773.1860 -7401.1550 306.1615 -9174.3409 -7369.1734 306.6240 -28.9672 44.1996 29834.7137 183.8711 264.5549
ENERGY: 600000 0.1514 2.0251 2.1708 0.0000 -10584.4207 1387.4436 0.0000 0.0000 1753.3235 -7439.3063 302.7320 -9192.6298 -7376.8117 303.6659 -343.6610 -287.8633 30133.3645 149.2309 207.7246
ENERGY: 900000 0.1580 2.5500 1.4840 0.0000 -10571.5170 1432.3245 0.0000 0.0000 1739.3660 -7395.6345 300.3221 -9135.0005 -7391.2165 301.1089 92.2979 156.3650 30053.0608 216.9199 269.4404
ENERGY: 1200000 0.5560 1.7058 2.9082 0.0000 -10583.9832 1420.7761 0.0000 0.0000 1747.4491 -7410.5880 301.7178 -9158.0372 -7404.2752 301.9908 -184.8445 -107.9500 30335.5890 174.3369 224.9400
ENERGY: 1500000 0.3385 3.8493 1.1107 0.0000 -10470.2516 1347.6211 0.0000 0.0000 1806.6075 -7310.7246 311.9322 -9117.3321 -7410.5686 301.8913 -503.6988 -411.3189 30097.5012 43.7294 101.1366
TCL: Running FEP window   2: Lambda1 0.95   Lambda2 0.8999999999999999 [dLambda -0.050000000000000044]
TCL: Setting parameter firsttimestep to 0
TCL: Setting parameter alchLambda to 0.95
Info: NONBONDED TABLE R-SQUARED SPACING: 0.0625
Info: NONBONDED TABLE SIZE: 705 POINTS
TCL: Setting parameter alchLambda2 to 0.8999999999999999
Info: NONBONDED TABLE R-SQUARED SPACING: 0.0625
Info: NONBONDED TABLE SIZE: 705 POINTS
TCL: Running for 1500000 steps
ETITLE: TS BOND ANGLE DIHED IMPRP ELECT VDW BOUNDARY MISC KINETIC TOTAL TEMP POTENTIAL TOTALAVG TEMPAVG PRESSURE GPRESSURE VOLUME PRESSAVG GPRESSAVG
ENERGY: 0 0.3385 3.8493 1.1107 0.0000 -10468.9375 1346.7272 0.0000 0.0000 1805.7617 -7311.1502 311.7861 -9116.9119 -7311.1502 311.7861 -510.5631 -428.4263 30097.5012 -510.5631 -428.4263
ENERGY: 300000 3.2848 2.3515 2.5786 0.0000 -10524.2615 1361.4948 0.0000 0.0000 1828.6537 -7325.8981 315.7387 -9154.5518 -7402.3978 304.0731 -755.4565 -651.0830 30407.3662 -570.8663 -478.2313
ENERGY: 600000 0.9748 4.4447 2.5052 0.0000 -10690.1824 1506.0638 0.0000 0.0000 1776.5752 -7399.6187 306.7467 -9176.1940 -7412.9769 304.8047 661.5598 718.0536 29882.1178 -163.4463 -84.6362
ENERGY: 900000 0.1525 3.4823 3.0345 0.0000 -10595.6733 1388.4486 0.0000 0.0000 1766.5816 -7433.9738 305.0212 -9200.5554 -7414.2081 303.9402 -476.1146 -392.7545 30147.0551 -306.0397 -229.1561
ENERGY: 1200000 1.2580 5.8523 0.9088 0.0000 -10745.5260 1468.1318 0.0000 0.0000 1720.9726 -7548.4024 297.1463 -9269.3750 -7422.6369 302.3293 -33.7766 23.4036 29953.2703 -273.2397 -199.0732
ENERGY: 1500000 0.5815 2.7113 1.8739 0.0000 -10645.6518 1445.1148 0.0000 0.0000 1713.7509 -7481.6193 295.8994 -9195.3702 -7426.6026 301.2612 96.5111 130.5837 30091.5863 -193.7130 -124.1160
TCL: Running FEP window   3: Lambda1 0.8999999999999999 Lambda2 0.8499999999999999 [dLambda -0.050000000000000044]
TCL: Setting parameter firsttimestep to 0
TCL: Setting parameter alchLambda to 0.8999999999999999
Info: NONBONDED TABLE R-SQUARED SPACING: 0.0625
Info: NONBONDED TABLE SIZE: 705 POINTS
TCL: Setting parameter alchLambda2 to 0.8499999999999999
Info: NONBONDED TABLE R-SQUARED SPACING: 0.0625
Info: NONBONDED TABLE SIZE: 705 POINTS
TCL: Running for 1500000 steps
ETITLE: TS BOND ANGLE DIHED IMPRP ELECT VDW BOUNDARY MISC KINETIC TOTAL TEMP POTENTIAL TOTALAVG TEMPAVG PRESSURE GPRESSURE VOLUME PRESSAVG GPRESSAVG
ENERGY: 0 0.5815 2.7113 1.8739 0.0000 -10644.3094 1444.9478 0.0000 0.0000 1712.8725 -7481.3224 295.7477 -9194.1949 -7481.3224 295.7477 41.1011 124.4231 30091.5863 41.1011 124.4231
ENERGY: 300000 0.7840 2.6884 2.3462 0.0000 -10510.4580 1350.7908 0.0000 0.0000 1674.4047 -7479.4439 289.1058 -9153.8486 -7462.0089 294.6031 -568.9066 -559.0194 29905.4198 -185.8190 -146.3479
ENERGY: 600000 2.0820 0.9783 1.3613 0.0000 -10531.4038 1420.4440 0.0000 0.0000 1720.4869 -7386.0513 297.0624 -9106.5381 -7445.8193 296.0303 373.8698 364.6804 29714.4434 -234.5059 -193.1592
ENERGY: 900000 0.2924 2.8495 2.2172 0.0000 -10559.4328 1478.3027 0.0000 0.0000 1769.0319 -7306.7390 305.4443 -9075.7709 -7429.8357 297.8712 662.3013 716.5592 30120.0684 -84.0704 -44.1235
ENERGY: 1200000 0.1592 3.4031 1.3024 0.0000 -10499.3347 1352.8762 0.0000 0.0000 1728.3072 -7413.2865 298.4127 -9141.5938 -7434.4313 297.3496 -582.8863 -541.9060 30097.9587 -140.7780 -98.7107
ENERGY: 1500000 0.7608 4.3560 1.3564 0.0000 -10643.6570 1442.4135 0.0000 0.0000 1703.1909 -7491.5795 294.0760 -9194.7704 -7428.0301 297.7446 -13.3909 22.3298 30068.0119 -118.9877 -75.3679
TCL: Running FEP window   4: Lambda1 0.8499999999999999 Lambda2 0.7999999999999998 [dLambda -0.050000000000000044]
TCL: Setting parameter firsttimestep to 0
TCL: Setting parameter alchLambda to 0.8499999999999999
Info: NONBONDED TABLE R-SQUARED SPACING: 0.0625
Info: NONBONDED TABLE SIZE: 705 POINTS
TCL: Setting parameter alchLambda2 to 0.7999999999999998
Info: NONBONDED TABLE R-SQUARED SPACING: 0.0625
Info: NONBONDED TABLE SIZE: 705 POINTS
TCL: Running for 1500000 steps
ETITLE: TS BOND ANGLE DIHED IMPRP ELECT VDW BOUNDARY MISC KINETIC TOTAL TEMP POTENTIAL TOTALAVG TEMPAVG PRESSURE GPRESSURE VOLUME PRESSAVG GPRESSAVG
ENERGY: 0 0.7608 4.3560 1.3564 0.0000 -10642.5666 1442.0082 0.0000 0.0000 1702.3169 -7491.7683 293.9252 -9194.0852 -7491.7683 293.9252 -65.1907 15.4215 30068.0119 -65.1907 15.4215
ENERGY: 300000 0.3268 5.3197 1.6991 0.0000 -10598.5198 1472.0626 0.0000 0.0000 1656.4586 -7462.6530 286.0072 -9119.1116 -7462.0971 294.2302 336.0233 397.8824 30019.1426 27.6595 91.6626
ENERGY: 600000 0.9838 3.1155 1.9102 0.0000 -10665.7405 1404.2640 0.0000 0.0000 1735.6326 -7519.8344 299.6775 -9255.4670 -7445.4950 297.5841 -606.8960 -565.9764 30373.5548 33.0248 93.8437
ENERGY: 900000 0.2503 2.4983 1.0897 0.0000 -10583.8851 1420.3179 0.0000 0.0000 1790.6674 -7369.0615 309.1799 -9159.7289 -7426.8007 300.2545 -74.9712 -60.3829 30010.6610 -13.5355 51.0260
ENERGY: 1200000 1.1870 3.2908 1.9043 0.0000 -10591.6455 1504.3789 0.0000 0.0000 1697.6100 -7383.2745 293.1124 -9080.8845 -7431.1997 299.0086 1020.5164 1083.7993 29748.8946 157.9456 229.6235
ENERGY: 1500000 0.0779 1.6419 2.2041 0.0000 -10522.5376 1396.7663 0.0000 0.0000 1815.2825 -7306.5650 313.4300 -9121.8475 -7422.6713 299.7474 2.5253 -32.4423 30112.4124 115.9305 177.4997
TCL: Running FEP window   5: Lambda1 0.7999999999999998 Lambda2 0.7499999999999998 [dLambda -0.050000000000000044]
TCL: Setting parameter firsttimestep to 0
TCL: Setting parameter alchLambda to 0.7999999999999998
Info: NONBONDED TABLE R-SQUARED SPACING: 0.0625
Info: NONBONDED TABLE SIZE: 705 POINTS
TCL: Setting parameter alchLambda2 to 0.7499999999999998
Info: NONBONDED TABLE R-SQUARED SPACING: 0.0625
Info: NONBONDED TABLE SIZE: 705 POINTS
TCL: Running for 1500000 steps
ETITLE: TS BOND ANGLE DIHED IMPRP ELECT VDW BOUNDARY MISC KINETIC TOTAL TEMP POTENTIAL TOTALAVG TEMPAVG PRESSURE GPRESSURE VOLUME PRESSAVG GPRESSAVG
ENERGY: 0 0.0779 1.6419 2.2041 0.0000 -10521.4779 1396.5595 0.0000 0.0000 1814.4085 -7306.5862 313.2791 -9120.9946 -7306.5862 313.2791 -123.7338 -38.7905 30112.4124 -123.7338 -38.7905
ENERGY: 300000 0.0297 1.8852 3.0142 0.0000 -10646.8257 1522.4513 0.0000 0.0000 1740.5286 -7378.9168 300.5228 -9119.4454 -7384.2373 306.2732 910.6466 980.9110 29602.2803 581.8373 639.8335
ENERGY: 600000 0.0816 4.0695 1.5334 0.0000 -10592.8679 1505.6471 0.0000 0.0000 1727.7222 -7353.8141 298.3117 -9081.5363 -7378.8834 302.7518 742.1342 758.8447 29983.6213 274.2753 315.9360
ENERGY: 900000 0.9388 1.5635 1.9242 0.0000 -10494.2352 1398.5748 0.0000 0.0000 1772.2273 -7319.0067 305.9960 -9091.2340 -7379.0095 302.1420 -103.2457 18.0661 30240.7889 129.6629 193.0506
ENERGY: 1200000 0.0384 2.4227 1.9919 0.0000 -10505.9990 1391.3897 0.0000 0.0000 1714.3851 -7395.7712 296.0089 -9110.1563 -7377.2182 302.3959 -242.2209 -128.3259 30120.4558 -1.2902 62.9655
ENERGY: 1500000 0.1122 2.7847 0.8811 0.0000 -10591.9435 1432.6114 0.0000 0.0000 1722.6988 -7432.8554 297.4443 -9155.5542 -7394.2422 301.8663 392.3460 429.3076 29454.9921 -49.3233 15.3321
TCL: Running FEP window   6: Lambda1 0.7499999999999998 Lambda2 0.6999999999999997 [dLambda -0.050000000000000044]
TCL: Setting parameter firsttimestep to 0
TCL: Setting parameter alchLambda to 0.7499999999999998
Info: NONBONDED TABLE R-SQUARED SPACING: 0.0625
Info: NONBONDED TABLE SIZE: 705 POINTS
TCL: Setting parameter alchLambda2 to 0.6999999999999997
Info: NONBONDED TABLE R-SQUARED SPACING: 0.0625
Info: NONBONDED TABLE SIZE: 705 POINTS
TCL: Running for 1500000 steps
ETITLE: TS BOND ANGLE DIHED IMPRP ELECT VDW BOUNDARY MISC KINETIC TOTAL TEMP POTENTIAL TOTALAVG TEMPAVG PRESSURE GPRESSURE VOLUME PRESSAVG GPRESSAVG
ENERGY: 0 0.1122 2.7847 0.8811 0.0000 -10590.5804 1432.2370 0.0000 0.0000 1721.8275 -7432.7380 297.2939 -9154.5655 -7432.7380 297.2939 343.2521 422.4741 29454.9921 343.2521 422.4741
ENERGY: 300000 0.7386 4.0225 2.6205 0.0000 -10518.0332 1337.4894 0.0000 0.0000 1739.6432 -7433.5189 300.3700 -9173.1621 -7400.3837 299.6871 -691.8558 -661.2784 29885.7178 -270.0214 -198.4510
ENERGY: 600000 0.5408 5.1572 1.5796 0.0000 -10586.7236 1456.4161 0.0000 0.0000 1711.8145 -7411.2154 295.5650 -9123.0299 -7412.4531 300.0093 376.0462 466.5157 29790.0477 -289.7682 -222.7209
ENERGY: 900000 0.4316 1.8425 1.3619 0.0000 -10621.4817 1497.0938 0.0000 0.0000 1754.4702 -7366.2817 302.9300 -9120.7519 -7412.8983 299.1531 550.6756 565.7040 30203.7915 -204.5372 -143.1306
ENERGY: 1200000 0.3411 5.0839 1.2665 0.0000 -10511.3267 1389.1906 0.0000 0.0000 1715.7050 -7399.7396 296.2368 -9115.4446 -7408.6406 299.6349 -131.9553 -37.6491 30036.5391 -177.6586 -112.8878
ENERGY: 1500000 0.9804 3.8226 1.4752 0.0000 -10602.7135 1415.2237 0.0000 0.0000 1737.3177 -7443.8939 299.9685 -9181.2116 -7407.4021 300.2913 -92.8046 59.9826 29742.1974 -209.8085 -143.8436
TCL: Running FEP window   7: Lambda1 0.6999999999999997 Lambda2 0.6499999999999997 [dLambda -0.050000000000000044]
TCL: Setting parameter firsttimestep to 0
TCL: Setting parameter alchLambda to 0.6999999999999997
Info: NONBONDED TABLE R-SQUARED SPACING: 0.0625
Info: NONBONDED TABLE SIZE: 705 POINTS
TCL: Setting parameter alchLambda2 to 0.6499999999999997
Info: NONBONDED TABLE R-SQUARED SPACING: 0.0625
Info: NONBONDED TABLE SIZE: 705 POINTS
TCL: Running for 1500000 steps
ETITLE: TS BOND ANGLE DIHED IMPRP ELECT VDW BOUNDARY MISC KINETIC TOTAL TEMP POTENTIAL TOTALAVG TEMPAVG PRESSURE GPRESSURE VOLUME PRESSAVG GPRESSAVG
ENERGY: 0 0.9804 3.8226 1.4752 0.0000 -10601.2914 1414.3305 0.0000 0.0000 1736.4766 -7444.2061 299.8232 -9180.6827 -7444.2061 299.8232 -37.5170 48.9790 29742.1974 -37.5170 48.9790
ENERGY: 300000 0.0465 1.9732 1.2878 0.0000 -10579.6439 1430.4636 0.0000 0.0000 1683.8660 -7462.0068 290.7394 -9145.8728 -7411.1369 297.0761 177.1887 241.2695 29584.7761 16.7085 65.7093
ENERGY: 600000 0.9780 3.1142 1.7250 0.0000 -10636.6205 1420.7916 0.0000 0.0000 1744.4848 -7465.5269 301.2059 -9210.0117 -7428.0911 298.2718 -205.1970 -154.0525 30108.6336 109.7369 155.8449
ENERGY: 900000 0.2765 2.1217 1.0527 0.0000 -10683.2755 1471.2925 0.0000 0.0000 1783.8603 -7424.6717 308.0046 -9208.5320 -7417.0044 299.5092 603.5151 691.9469 29217.0144 76.4425 131.0989
ENERGY: 1200000 0.2345 7.7235 1.9329 0.0000 -10657.1855 1486.4628 0.0000 0.0000 1789.4679 -7371.3639 308.9728 -9160.8319 -7415.8553 300.2844 475.7053 563.5484 29947.4787 122.9329 179.1986
ENERGY: 1500000 0.6253 4.3914 1.6899 0.0000 -10697.6748 1553.6511 0.0000 0.0000 1747.3233 -7389.9938 301.6960 -9137.3171 -7406.9026 300.5174 1044.0850 1043.1146 30079.4796 215.2633 272.0930
TCL: Running FEP window   8: Lambda1 0.6499999999999997 Lambda2 0.5999999999999996 [dLambda -0.050000000000000044]
TCL: Setting parameter firsttimestep to 0
TCL: Setting parameter alchLambda to 0.6499999999999997
Info: NONBONDED TABLE R-SQUARED SPACING: 0.0625
Info: NONBONDED TABLE SIZE: 705 POINTS
TCL: Setting parameter alchLambda2 to 0.5999999999999996
Info: NONBONDED TABLE R-SQUARED SPACING: 0.0625
Info: NONBONDED TABLE SIZE: 705 POINTS
TCL: Running for 1500000 steps
ETITLE: TS BOND ANGLE DIHED IMPRP ELECT VDW BOUNDARY MISC KINETIC TOTAL TEMP POTENTIAL TOTALAVG TEMPAVG PRESSURE GPRESSURE VOLUME PRESSAVG GPRESSAVG
ENERGY: 0 0.6253 4.3914 1.6899 0.0000 -10695.9757 1553.3096 0.0000 0.0000 1746.4531 -7389.5065 301.5458 -9135.9596 -7389.5065 301.5458 967.3771 1039.5363 30079.4796 967.3771 1039.5363
ENERGY: 300000 0.7573 4.5987 1.2948 0.0000 -10739.0475 1556.9543 0.0000 0.0000 1735.4939 -7439.9486 299.6535 -9175.4425 -7420.9493 299.5060 769.9570 861.9552 30069.9694 153.7910 217.2481
ENERGY: 600000 0.0287 4.0235 1.8911 0.0000 -10766.9090 1484.0763 0.0000 0.0000 1754.0728 -7522.8166 302.8614 -9276.8894 -7417.9105 301.1580 123.9437 259.7989 29550.7614 66.5547 142.7077
ENERGY: 900000 2.0439 4.5044 1.9348 0.0000 -10539.4512 1407.4671 0.0000 0.0000 1768.5613 -7354.9397 305.3630 -9123.5009 -7409.1188 301.9024 -67.1313 -64.4056 30220.8302 -116.4552 -53.1123
ENERGY: 1200000 0.2913 4.0329 2.0136 0.0000 -10627.0027 1441.0780 0.0000 0.0000 1727.2481 -7452.3388 298.2298 -9179.5869 -7417.2443 301.9927 111.9840 130.1927 29710.8605 -11.9518 49.8472
ENERGY: 1500000 1.0017 2.7969 1.8762 0.0000 -10566.3099 1441.9915 0.0000 0.0000 1729.4242 -7389.2195 298.6055 -9118.6436 -7413.8567 301.8896 203.1311 286.4705 29672.1276 56.3342 115.7847
TCL: Running FEP window   9: Lambda1 0.5999999999999996 Lambda2 0.5499999999999996 [dLambda -0.050000000000000044]
TCL: Setting parameter firsttimestep to 0
TCL: Setting parameter alchLambda to 0.5999999999999996
Info: NONBONDED TABLE R-SQUARED SPACING: 0.0625
Info: NONBONDED TABLE SIZE: 705 POINTS
TCL: Setting parameter alchLambda2 to 0.5499999999999996
Info: NONBONDED TABLE R-SQUARED SPACING: 0.0625
Info: NONBONDED TABLE SIZE: 705 POINTS
TCL: Running for 1500000 steps
ETITLE: TS BOND ANGLE DIHED IMPRP ELECT VDW BOUNDARY MISC KINETIC TOTAL TEMP POTENTIAL TOTALAVG TEMPAVG PRESSURE GPRESSURE VOLUME PRESSAVG GPRESSAVG
ENERGY: 0 1.0017 2.7969 1.8762 0.0000 -10565.3626 1441.4387 0.0000 0.0000 1728.5315 -7389.7176 298.4514 -9118.2491 -7389.7176 298.4514 200.4843 279.0662 29672.1276 200.4843 279.0662
ENERGY: 300000 0.5134 5.7631 2.1811 0.0000 -10723.2479 1517.4298 0.0000 0.0000 1676.6884 -7520.6721 289.5001 -9197.3605 -7451.8745 295.5502 685.4312 733.5100 29931.9222 490.9090 529.3925
ENERGY: 600000 0.4544 2.1417 1.4935 0.0000 -10634.0665 1435.6545 0.0000 0.0000 1698.6757 -7495.6468 293.2964 -9194.3225 -7437.7558 298.4297 23.2899 99.8919 29819.7624 91.3671 138.8053
ENERGY: 900000 0.3756 3.5383 1.3751 0.0000 -10634.4687 1452.2395 0.0000 0.0000 1679.8981 -7497.0422 290.0543 -9176.9402 -7443.3844 298.0103 126.0908 219.0464 29848.2697 93.9461 147.9004
ENERGY: 1200000 0.0736 4.3271 1.9330 0.0000 -10534.6913 1327.9679 0.0000 0.0000 1736.9276 -7463.4621 299.9011 -9200.3897 -7429.8632 299.1666 -808.9140 -736.1211 29640.6770 -51.7172 3.1684
ENERGY: 1500000 0.0159 5.1396 1.7739 0.0000 -10640.3056 1545.9275 0.0000 0.0000 1758.2199 -7329.2288 303.5775 -9087.4487 -7421.0965 299.2303 1091.1602 1159.8396 30101.4991 34.2708 90.2427
TCL: Running FEP window  10: Lambda1 0.5499999999999996 Lambda2 0.4999999999999996 [dLambda -0.04999999999999999]
TCL: Setting parameter firsttimestep to 0
TCL: Setting parameter alchLambda to 0.5499999999999996
Info: NONBONDED TABLE R-SQUARED SPACING: 0.0625
Info: NONBONDED TABLE SIZE: 705 POINTS
TCL: Setting parameter alchLambda2 to 0.4999999999999996
Info: NONBONDED TABLE R-SQUARED SPACING: 0.0625
Info: NONBONDED TABLE SIZE: 705 POINTS
TCL: Running for 1500000 steps
ETITLE: TS BOND ANGLE DIHED IMPRP ELECT VDW BOUNDARY MISC KINETIC TOTAL TEMP POTENTIAL TOTALAVG TEMPAVG PRESSURE GPRESSURE VOLUME PRESSAVG GPRESSAVG
ENERGY: 0 0.0159 5.1396 1.7739 0.0000 -10640.0797 1546.1565 0.0000 0.0000 1757.3167 -7329.6771 303.4215 -9086.9938 -7329.6771 303.4215 1086.1777 1157.6445 30101.4991 1086.1777 1157.6445
ENERGY: 300000 1.0837 3.4869 1.2409 0.0000 -10592.6458 1444.0481 0.0000 0.0000 1753.7021 -7389.0840 302.7974 -9142.7861 -7401.4898 300.6847 403.2753 434.2331 29617.5850 528.4267 597.8545
ENERGY: 600000 0.9162 1.3061 1.1300 0.0000 -10648.2148 1418.7903 0.0000 0.0000 1703.4373 -7522.6349 294.1186 -9226.0722 -7419.1780 300.1686 -225.8606 -214.4253 29896.4378 202.9155 259.5556
ENERGY: 900000 0.6921 4.6944 0.8994 0.0000 -10492.9412 1334.8613 0.0000 0.0000 1659.6168 -7492.1771 286.5525 -9151.7938 -7408.1831 299.0728 -665.6793 -607.7320 29905.9772 -25.7059 32.7856
ENERGY: 1200000 0.0060 3.0383 1.5062 0.0000 -10489.5995 1396.5578 0.0000 0.0000 1709.7551 -7378.7362 295.2094 -9088.4912 -7405.3302 299.0229 -273.5070 -162.9873 30327.9192 -125.2924 -59.8992
ENERGY: 1500000 0.1024 4.6313 1.6828 0.0000 -10451.6012 1284.6056 0.0000 0.0000 1714.3221 -7446.2570 295.9980 -9160.5791 -7414.6765 299.4812 -932.4973 -875.6782 29669.5374 -89.4869 -26.2431
TCL: Running FEP window  11: Lambda1 0.4999999999999996 Lambda2 0.4499999999999996 [dLambda -0.04999999999999999]
TCL: Setting parameter firsttimestep to 0
TCL: Setting parameter alchLambda to 0.4999999999999996
Info: NONBONDED TABLE R-SQUARED SPACING: 0.0625
Info: NONBONDED TABLE SIZE: 705 POINTS
TCL: Setting parameter alchLambda2 to 0.4499999999999996
Info: NONBONDED TABLE R-SQUARED SPACING: 0.0625
Info: NONBONDED TABLE SIZE: 705 POINTS
TCL: Running for 1500000 steps
ETITLE: TS BOND ANGLE DIHED IMPRP ELECT VDW BOUNDARY MISC KINETIC TOTAL TEMP POTENTIAL TOTALAVG TEMPAVG PRESSURE GPRESSURE VOLUME PRESSAVG GPRESSAVG
ENERGY: 0 0.1024 4.6313 1.6828 0.0000 -10451.5490 1284.7889 0.0000 0.0000 1713.4513 -7446.8923 295.8476 -9160.3436 -7446.8923 295.8476 -973.7229 -877.1424 29669.5374 -973.7229 -877.1424
ENERGY: 300000 2.2286 2.7167 1.2702 0.0000 -10548.8408 1429.8124 0.0000 0.0000 1791.3209 -7321.4919 309.2927 -9112.8129 -7371.4256 304.0274 42.8934 89.5909 30252.8796 -578.3967 -547.8333
ENERGY: 600000 0.0906 3.0766 1.2811 0.0000 -10506.8645 1364.0175 0.0000 0.0000 1724.6259 -7413.7728 297.7771 -9138.3988 -7374.6651 303.3784 -582.6753 -541.8142 30217.4518 -428.3562 -394.3151
ENERGY: 900000 0.1462 2.5802 1.1121 0.0000 -10696.4415 1461.9160 0.0000 0.0000 1727.6719 -7503.0152 298.3030 -9230.6871 -7392.2432 301.3866 320.8060 352.8826 29515.0851 -203.6888 -169.1904
ENERGY: 1200000 0.5792 1.5806 1.4663 0.0000 -10525.9168 1358.4602 0.0000 0.0000 1750.8941 -7412.9364 302.3126 -9163.8304 -7392.3710 300.9429 -502.0278 -422.8617 29778.8741 -249.4715 -210.0732
ENERGY: 1500000 1.2931 3.7610 1.0318 0.0000 -10706.0634 1528.8914 0.0000 0.0000 1732.1100 -7438.9760 299.0693 -9171.0860 -7395.2414 300.6653 780.5898 849.2693 29926.5993 -190.9265 -149.1728
TCL: Running FEP window  12: Lambda1 0.4499999999999996 Lambda2 0.39999999999999963 [dLambda -0.04999999999999999]
TCL: Setting parameter firsttimestep to 0
TCL: Setting parameter alchLambda to 0.4499999999999996
Info: NONBONDED TABLE R-SQUARED SPACING: 0.0625
Info: NONBONDED TABLE SIZE: 705 POINTS
TCL: Setting parameter alchLambda2 to 0.39999999999999963
Info: NONBONDED TABLE R-SQUARED SPACING: 0.0625
Info: NONBONDED TABLE SIZE: 705 POINTS
TCL: Running for 1500000 steps
ETITLE: TS BOND ANGLE DIHED IMPRP ELECT VDW BOUNDARY MISC KINETIC TOTAL TEMP POTENTIAL TOTALAVG TEMPAVG PRESSURE GPRESSURE VOLUME PRESSAVG GPRESSAVG
ENERGY: 0 1.2931 3.7610 1.0318 0.0000 -10706.0636 1529.2037 0.0000 0.0000 1731.2426 -7439.5314 298.9195 -9170.7739 -7439.5314 298.9195 773.4495 849.3142 29926.5993 773.4495 849.3142
ENERGY: 300000 1.0119 1.2923 3.5608 0.0000 -10731.4900 1503.6127 0.0000 0.0000 1727.2463 -7494.7660 298.2295 -9222.0123 -7481.0613 297.1222 465.9665 552.9078 29476.6045 394.4971 455.0428
ENERGY: 600000 0.0939 8.2573 1.3146 0.0000 -10670.0866 1446.6778 0.0000 0.0000 1730.7434 -7482.9996 298.8333 -9213.7430 -7455.3660 298.5162 88.2907 96.0704 29746.4609 88.2943 144.8693
ENERGY: 900000 0.1048 2.2799 2.3582 0.0000 -10727.7178 1501.9584 0.0000 0.0000 1701.6312 -7519.3853 293.8068 -9221.0165 -7448.7907 297.5109 360.8869 452.6274 29790.0264 48.5153 104.3590
ENERGY: 1200000 0.1779 2.2750 1.1621 0.0000 -10540.6408 1349.5158 0.0000 0.0000 1766.5260 -7420.9839 305.0116 -9187.5100 -7438.2885 298.1446 -776.2898 -684.8444 30167.0419 36.9781 95.5650
ENERGY: 1500000 3.8758 2.5610 1.7748 0.0000 -10716.3569 1459.2357 0.0000 0.0000 1747.2895 -7501.6201 301.6902 -9248.9096 -7441.3167 298.0495 -33.2741 15.9247 29711.2510 19.5387 79.7389
TCL: Running FEP window  13: Lambda1 0.39999999999999963 Lambda2 0.34999999999999964 [dLambda -0.04999999999999999]
TCL: Setting parameter firsttimestep to 0
TCL: Setting parameter alchLambda to 0.39999999999999963
Info: NONBONDED TABLE R-SQUARED SPACING: 0.0625
Info: NONBONDED TABLE SIZE: 705 POINTS
TCL: Setting parameter alchLambda2 to 0.34999999999999964
Info: NONBONDED TABLE R-SQUARED SPACING: 0.0625
Info: NONBONDED TABLE SIZE: 705 POINTS
TCL: Running for 1500000 steps
ETITLE: TS BOND ANGLE DIHED IMPRP ELECT VDW BOUNDARY MISC KINETIC TOTAL TEMP POTENTIAL TOTALAVG TEMPAVG PRESSURE GPRESSURE VOLUME PRESSAVG GPRESSAVG
ENERGY: 0 3.8758 2.5610 1.7748 0.0000 -10716.3564 1459.0558 0.0000 0.0000 1746.4652 -7502.6237 301.5479 -9249.0889 -7502.6237 301.5479 -71.9775 12.3857 29711.2510 -71.9775 12.3857
ENERGY: 300000 0.7657 3.6525 1.3844 0.0000 -10525.1785 1378.7163 0.0000 0.0000 1681.3224 -7459.3372 290.3002 -9140.6596 -7439.3131 299.0393 -347.1996 -273.5961 29940.2553 -185.5190 -141.9037
ENERGY: 600000 0.0905 3.4986 1.2003 0.0000 -10515.6472 1381.0679 0.0000 0.0000 1684.6815 -7445.1083 290.8802 -9129.7898 -7426.5033 297.2336 -348.4929 -331.7475 30323.5025 4.7077 56.1152
ENERGY: 900000 1.6946 1.7583 1.3076 0.0000 -10600.7478 1457.6559 0.0000 0.0000 1773.0914 -7365.2401 306.1452 -9138.3315 -7399.3766 300.7243 121.1593 198.6373 30292.2644 132.4677 192.3261
ENERGY: 1200000 0.0656 2.1826 0.9045 0.0000 -10566.6335 1414.5040 0.0000 0.0000 1760.3139 -7388.6629 303.9390 -9148.9768 -7400.1054 301.5232 140.0348 176.9830 29524.6986 79.5470 131.7672
ENERGY: 1500000 2.6390 2.0259 1.3074 0.0000 -10592.7527 1408.2767 0.0000 0.0000 1709.8489 -7468.6547 295.2256 -9178.5036 -7398.9604 301.3569 -389.1418 -295.5486 30200.8115 50.9469 106.8251
TCL: Running FEP window  14: Lambda1 0.34999999999999964 Lambda2 0.29999999999999966 [dLambda -0.04999999999999999]
TCL: Setting parameter firsttimestep to 0
TCL: Setting parameter alchLambda to 0.34999999999999964
Info: NONBONDED TABLE R-SQUARED SPACING: 0.0625
Info: NONBONDED TABLE SIZE: 705 POINTS
TCL: Setting parameter alchLambda2 to 0.29999999999999966
Info: NONBONDED TABLE R-SQUARED SPACING: 0.0625
Info: NONBONDED TABLE SIZE: 705 POINTS
TCL: Running for 1500000 steps
ETITLE: TS BOND ANGLE DIHED IMPRP ELECT VDW BOUNDARY MISC KINETIC TOTAL TEMP POTENTIAL TOTALAVG TEMPAVG PRESSURE GPRESSURE VOLUME PRESSAVG GPRESSAVG
ENERGY: 0 2.6390 2.0259 1.3074 0.0000 -10592.7531 1408.0931 0.0000 0.0000 1708.9505 -7469.7372 295.0705 -9178.6877 -7469.7372 295.0705 -383.8944 -297.6935 30200.8115 -383.8944 -297.6935
ENERGY: 300000 0.4258 3.5976 1.1641 0.0000 -10519.4895 1385.5791 0.0000 0.0000 1735.6587 -7393.0641 299.6820 -9128.7228 -7414.4776 300.7726 -121.3920 -104.5371 29626.4192 13.8196 49.9960
ENERGY: 600000 0.1067 3.8752 1.3118 0.0000 -10600.8132 1402.5958 0.0000 0.0000 1733.7791 -7459.1447 299.3575 -9192.9237 -7425.6367 299.2226 -498.8765 -462.6125 30270.8225 25.4954 70.3844
ENERGY: 900000 0.0402 6.1237 1.2565 0.0000 -10635.1849 1490.8449 0.0000 0.0000 1771.9139 -7365.0057 305.9419 -9136.9196 -7422.1880 299.1371 332.2498 381.6272 30146.3185 149.1513 203.7268
ENERGY: 1200000 0.2852 1.8706 1.4457 0.0000 -10569.1389 1464.6393 0.0000 0.0000 1744.0378 -7356.8603 301.1287 -9100.8981 -7415.4062 298.9473 369.0296 488.3825 29827.0821 147.3014 205.5472
ENERGY: 1500000 0.6562 2.0384 0.8564 0.0000 -10573.8625 1461.9850 0.0000 0.0000 1764.7501 -7343.5763 304.7050 -9108.3265 -7410.6895 299.4096 207.0389 341.5838 30109.4359 156.5014 215.3511
TCL: Running FEP window  15: Lambda1 0.29999999999999966 Lambda2 0.24999999999999967 [dLambda -0.04999999999999999]
TCL: Setting parameter firsttimestep to 0
TCL: Setting parameter alchLambda to 0.29999999999999966
Info: NONBONDED TABLE R-SQUARED SPACING: 0.0625
Info: NONBONDED TABLE SIZE: 705 POINTS
TCL: Setting parameter alchLambda2 to 0.24999999999999967
Info: NONBONDED TABLE R-SQUARED SPACING: 0.0625
Info: NONBONDED TABLE SIZE: 705 POINTS
TCL: Running for 1500000 steps
ETITLE: TS BOND ANGLE DIHED IMPRP ELECT VDW BOUNDARY MISC KINETIC TOTAL TEMP POTENTIAL TOTALAVG TEMPAVG PRESSURE GPRESSURE VOLUME PRESSAVG GPRESSAVG
ENERGY: 0 0.6562 2.0384 0.8564 0.0000 -10573.8630 1461.1859 0.0000 0.0000 1763.9146 -7345.2115 304.5607 -9109.1261 -7345.2115 304.5607 242.5127 334.9501 30109.4359 242.5127 334.9501
ENERGY: 300000 0.4269 4.6025 1.4662 0.0000 -10566.7218 1406.8083 0.0000 0.0000 1800.4894 -7352.9286 310.8758 -9153.4180 -7360.6978 306.1460 28.4223 79.3492 29783.0225 -128.3928 -69.4546
ENERGY: 600000 0.2137 1.6447 1.4055 0.0000 -10502.7404 1334.6987 0.0000 0.0000 1743.7176 -7421.0601 301.0735 -9164.7777 -7390.5775 304.3348 -899.4789 -784.1645 30284.7198 -417.1574 -345.9353
ENERGY: 900000 0.0367 3.0040 2.6920 0.0000 -10704.1020 1528.9653 0.0000 0.0000 1705.8740 -7463.5300 294.5393 -9169.4040 -7399.8794 304.1975 613.2658 709.9543 29899.0530 -211.5736 -138.2317
ENERGY: 1200000 1.2804 3.9528 1.7751 0.0000 -10561.3950 1392.1784 0.0000 0.0000 1754.8923 -7407.3161 303.0029 -9162.2083 -7397.4531 303.2323 -538.4003 -454.7701 30165.9636 -228.7286 -157.4761
ENERGY: 1500000 0.0003 4.1845 1.1478 0.0000 -10611.6132 1457.2338 0.0000 0.0000 1676.5373 -7472.5096 289.4740 -9149.0468 -7401.9366 301.8981 100.1486 138.2499 30047.1255 -206.8740 -141.0368
TCL: Running FEP window  16: Lambda1 0.24999999999999967 Lambda2 0.19999999999999968 [dLambda -0.04999999999999999]
TCL: Setting parameter firsttimestep to 0
TCL: Setting parameter alchLambda to 0.24999999999999967
Info: NONBONDED TABLE R-SQUARED SPACING: 0.0625
Info: NONBONDED TABLE SIZE: 705 POINTS
TCL: Setting parameter alchLambda2 to 0.19999999999999968
Info: NONBONDED TABLE R-SQUARED SPACING: 0.0625
Info: NONBONDED TABLE SIZE: 705 POINTS
TCL: Running for 1500000 steps
ETITLE: TS BOND ANGLE DIHED IMPRP ELECT VDW BOUNDARY MISC KINETIC TOTAL TEMP POTENTIAL TOTALAVG TEMPAVG PRESSURE GPRESSURE VOLUME PRESSAVG GPRESSAVG
ENERGY: 0 0.0003 4.1845 1.1478 0.0000 -10611.6121 1456.8635 0.0000 0.0000 1675.6683 -7473.7478 289.3239 -9149.4161 -7473.7478 289.3239 57.5427 135.3044 30047.1255 57.5427 135.3044
ENERGY: 300000 0.0476 2.6805 1.9269 0.0000 -10650.2026 1442.7738 0.0000 0.0000 1728.4907 -7474.2831 298.4444 -9202.7738 -7457.1345 299.0826 -155.1744 -137.3931 30177.2462 -236.3143 -172.9020
ENERGY: 600000 0.1022 2.7677 0.8463 0.0000 -10599.0213 1448.4783 0.0000 0.0000 1728.4077 -7418.4191 298.4300 -9146.8267 -7439.7915 299.0771 117.4556 236.7271 29966.0792 -168.0730 -87.7609
ENERGY: 900000 0.1371 4.6199 1.1813 0.0000 -10808.7234 1536.7579 0.0000 0.0000 1763.6612 -7502.3662 304.5170 -9266.0273 -7448.8874 298.8653 825.4009 824.6585 29635.6290 -30.3807 35.3407
ENERGY: 1200000 0.1659 2.6453 2.5378 0.0000 -10597.0836 1448.3852 0.0000 0.0000 1767.5762 -7375.7732 305.1929 -9143.3495 -7448.9329 299.4079 150.2838 191.1680 30085.7702 -44.1285 21.9813
ENERGY: 1500000 0.7558 3.6625 2.3774 0.0000 -10517.8704 1415.0543 0.0000 0.0000 1741.2566 -7354.7638 300.6485 -9096.0204 -7433.0763 300.3819 66.1156 87.4979 29788.2985 -134.0832 -67.9583
TCL: Running FEP window  17: Lambda1 0.19999999999999968 Lambda2 0.1499999999999997 [dLambda -0.04999999999999999]
TCL: Setting parameter firsttimestep to 0
TCL: Setting parameter alchLambda to 0.19999999999999968
Info: NONBONDED TABLE R-SQUARED SPACING: 0.0625
Info: NONBONDED TABLE SIZE: 705 POINTS
TCL: Setting parameter alchLambda2 to 0.1499999999999997
Info: NONBONDED TABLE R-SQUARED SPACING: 0.0625
Info: NONBONDED TABLE SIZE: 705 POINTS
TCL: Running for 1500000 steps
ETITLE: TS BOND ANGLE DIHED IMPRP ELECT VDW BOUNDARY MISC KINETIC TOTAL TEMP POTENTIAL TOTALAVG TEMPAVG PRESSURE GPRESSURE VOLUME PRESSAVG GPRESSAVG
ENERGY: 0 0.7558 3.6625 2.3774 0.0000 -10517.8695 1415.3580 0.0000 0.0000 1740.3576 -7355.3582 300.4933 -9095.7158 -7355.3582 300.4933 9.3300 88.5165 29788.2985 9.3300 88.5165
ENERGY: 300000 0.5550 2.2274 0.9075 0.0000 -10607.3880 1400.4293 0.0000 0.0000 1766.5025 -7436.7663 305.0076 -9203.2689 -7407.4285 300.9536 -237.2060 -193.1922 29627.8959 -68.7711 -23.1882
ENERGY: 600000 0.0144 5.2766 1.5778 0.0000 -10596.6871 1462.9192 0.0000 0.0000 1676.2377 -7450.6614 289.4223 -9126.8991 -7415.5082 298.9033 246.9385 237.5977 30210.4799 -24.0745 18.8042
ENERGY: 900000 1.2580 1.4886 1.3380 0.0000 -10598.2673 1441.6475 0.0000 0.0000 1748.9171 -7403.6180 301.9712 -9152.5352 -7424.3597 300.1925 -186.6568 -150.2144 30330.5241 -56.3590 -15.7475
ENERGY: 1200000 1.9812 4.1273 0.8849 0.0000 -10596.5444 1476.2444 0.0000 0.0000 1742.5403 -7370.7663 300.8702 -9113.3066 -7412.8313 300.0678 261.9295 366.3789 30165.0543 -74.8459 -26.8354
ENERGY: 1500000 0.1193 1.3081 2.8684 0.0000 -10639.7291 1459.1355 0.0000 0.0000 1696.4797 -7479.8181 292.9173 -9176.2978 -7415.1709 299.9707 480.8457 537.2564 29430.0967 -44.1837 12.0494
TCL: Running FEP window  18: Lambda1 0.1499999999999997 Lambda2 0.09999999999999969 [dLambda -0.05 ]
TCL: Setting parameter firsttimestep to 0
TCL: Setting parameter alchLambda to 0.1499999999999997
Info: NONBONDED TABLE R-SQUARED SPACING: 0.0625
Info: NONBONDED TABLE SIZE: 705 POINTS
TCL: Setting parameter alchLambda2 to 0.09999999999999969
Info: NONBONDED TABLE R-SQUARED SPACING: 0.0625
Info: NONBONDED TABLE SIZE: 705 POINTS
TCL: Running for 1500000 steps
ETITLE: TS BOND ANGLE DIHED IMPRP ELECT VDW BOUNDARY MISC KINETIC TOTAL TEMP POTENTIAL TOTALAVG TEMPAVG PRESSURE GPRESSURE VOLUME PRESSAVG GPRESSAVG
ENERGY: 0 0.1193 1.3081 2.8684 0.0000 -10639.7307 1458.9269 0.0000 0.0000 1695.5959 -7480.9122 292.7647 -9176.5081 -7480.9122 292.7647 438.8574 534.5497 29430.0967 438.8574 534.5497
ENERGY: 300000 0.5371 4.3741 0.7851 0.0000 -10421.9997 1340.9819 0.0000 0.0000 1682.0951 -7393.2264 290.4336 -9075.3215 -7443.8704 294.5659 -894.4239 -845.6125 30665.4224 -197.4821 -128.0610
ENERGY: 600000 0.3505 3.6241 2.2732 0.0000 -10560.3020 1442.0920 0.0000 0.0000 1676.4936 -7435.4685 289.4664 -9111.9621 -7431.9403 297.6173 16.6822 75.3677 30020.2671 -163.1645 -110.1122
ENERGY: 900000 0.1036 2.0252 0.8272 0.0000 -10527.1059 1370.2667 0.0000 0.0000 1738.3048 -7415.5784 300.1389 -9153.8832 -7419.6453 297.7096 -661.7852 -581.5932 30106.3686 -237.4784 -174.8532
ENERGY: 1200000 1.1929 1.7738 1.8847 0.0000 -10497.7631 1413.2642 0.0000 0.0000 1702.5376 -7377.1098 293.9633 -9079.6474 -7409.6906 298.0638 -62.3539 43.8927 29896.7112 -164.9150 -97.2759
ENERGY: 1500000 0.0539 3.7456 1.9630 0.0000 -10489.4319 1354.1796 0.0000 0.0000 1770.3674 -7359.1224 305.6749 -9129.4898 -7405.7667 298.5757 -554.1672 -516.8106 30129.0230 -155.1259 -92.4404
TCL: Running FEP window  19: Lambda1 0.09999999999999969 Lambda2 0.049999999999999684 [dLambda -0.05 ]
TCL: Setting parameter firsttimestep to 0
TCL: Setting parameter alchLambda to 0.09999999999999969
Info: NONBONDED TABLE R-SQUARED SPACING: 0.0625
Info: NONBONDED TABLE SIZE: 705 POINTS
TCL: Setting parameter alchLambda2 to 0.049999999999999684
Info: NONBONDED TABLE R-SQUARED SPACING: 0.0625
Info: NONBONDED TABLE SIZE: 705 POINTS
TCL: Running for 1500000 steps
ETITLE: TS BOND ANGLE DIHED IMPRP ELECT VDW BOUNDARY MISC KINETIC TOTAL TEMP POTENTIAL TOTALAVG TEMPAVG PRESSURE GPRESSURE VOLUME PRESSAVG GPRESSAVG
ENERGY: 0 0.0539 3.7456 1.9630 0.0000 -10489.4323 1354.3475 0.0000 0.0000 1769.5159 -7359.8063 305.5278 -9129.3222 -7359.8063 305.5278 -596.5945 -517.0224 30129.0230 -596.5945 -517.0224
ENERGY: 300000 0.4737 5.0356 1.3514 0.0000 -10620.9609 1437.8242 0.0000 0.0000 1728.9884 -7447.2877 298.5303 -9176.2761 -7441.1380 299.2569 163.0295 221.8639 29761.2968 -76.7865 -11.8743
ENERGY: 600000 0.3748 3.5119 1.9652 0.0000 -10528.6376 1425.0280 0.0000 0.0000 1761.0752 -7336.6826 304.0705 -9097.7578 -7391.5137 303.1020 -36.5975 45.9847 30070.8477 -35.3172 24.2573
ENERGY: 900000 0.1790 7.3441 1.0546 0.0000 -10497.1618 1343.9270 0.0000 0.0000 1738.7417 -7405.9154 300.2143 -9144.6571 -7383.4935 303.0238 -619.4859 -563.6553 29922.6955 -71.4981 -5.5605
ENERGY: 1200000 0.0476 3.1767 0.8618 0.0000 -10629.0868 1424.6685 0.0000 0.0000 1733.9849 -7466.3473 299.3930 -9200.3323 -7390.6744 302.0762 -336.1527 -260.6031 30147.7829 -93.7666 -31.2734
ENERGY: 1500000 0.3250 3.1415 1.5699 0.0000 -10557.1814 1421.8199 0.0000 0.0000 1789.8268 -7340.4984 309.0348 -9130.3252 -7384.1222 302.1823 33.8809 131.9256 29639.7857 -67.8943 -9.2404
TCL: Running FEP window  20: Lambda1 0.049999999999999684 Lambda2 0.0    [dLambda -0.049999999999999684]
TCL: Setting parameter firsttimestep to 0
TCL: Setting parameter alchLambda to 0.049999999999999684
Info: NONBONDED TABLE R-SQUARED SPACING: 0.0625
Info: NONBONDED TABLE SIZE: 705 POINTS
TCL: Setting parameter alchLambda2 to 0.0
Info: NONBONDED TABLE R-SQUARED SPACING: 0.0625
Info: NONBONDED TABLE SIZE: 705 POINTS
TCL: Running for 1500000 steps
ETITLE: TS BOND ANGLE DIHED IMPRP ELECT VDW BOUNDARY MISC KINETIC TOTAL TEMP POTENTIAL TOTALAVG TEMPAVG PRESSURE GPRESSURE VOLUME PRESSAVG GPRESSAVG
ENERGY: 0 0.3250 3.1415 1.5699 0.0000 -10557.1793 1421.6820 0.0000 0.0000 1788.9550 -7341.5059 308.8842 -9130.4610 -7341.5059 308.8842 43.0763 130.9224 29639.7857 43.0763 130.9224
ENERGY: 300000 1.1468 4.0734 1.3687 0.0000 -10651.8770 1465.2456 0.0000 0.0000 1771.0855 -7408.9569 305.7989 -9180.0424 -7389.9707 303.3822 177.7804 169.1133 30095.8324 165.6069 214.4509
ENERGY: 600000 0.5242 4.0921 1.1747 0.0000 -10693.0640 1497.5385 0.0000 0.0000 1727.1226 -7462.6119 298.2081 -9189.7345 -7400.2467 303.2504 541.2448 591.4181 29879.2492 127.8104 182.5567
ENERGY: 900000 1.2601 2.4387 1.0867 0.0000 -10625.2092 1463.8695 0.0000 0.0000 1696.0323 -7460.5220 292.8400 -9156.5543 -7395.7125 302.5545 524.3632 533.6141 29537.1547 92.9393 138.6193
ENERGY: 1200000 0.2285 0.7705 1.7554 0.0000 -10530.2239 1442.5129 0.0000 0.0000 1769.8649 -7315.0917 305.5881 -9084.9566 -7383.4734 302.8871 404.0618 466.1806 29721.6235 134.2531 183.9761
ENERGY: 1500000 0.3740 4.3564 0.8811 0.0000 -10466.5549 1370.5530 0.0000 0.0000 1763.9502 -7326.4401 304.5669 -9090.3903 -7378.1967 302.6948 131.8108 149.8067 29498.0719 153.3805 197.7285
TCL: Exiting due to exit command.
