Info: SIMULATION PARAMETERS:
Info: TIMESTEP               2
Info: NUMBER OF STEPS        0
Info: STEPS PER CYCLE        10
Info: PERIODIC CELL BASIS 1  31.5188 0 0
Info: PERIODIC CELL BASIS 2  0 29.3312 0
Info: PERIODIC CELL BASIS 3  0 0 32.1274
Info: PERIODIC CELL CENTER   0 0 0
Info: WRAPPING WATERS AROUND PERIODIC BOUNDARIES ON OUTPUT.
Info: WRAPPING ALL CLUSTERS AROUND PERIODIC BOUNDARIES ON OUTPUT.
Info: FIRST LDB TIMESTEP     50
Info: LAST LDB TIMESTEP     -1
Info: HOM BACKGROUND SCALING 1
Info: PME BACKGROUND SCALING 1
Info: MIN ATOMS PER PATCH    40
Info: EMPTY PATCH LOAD       40 ATOMS
Info: VELOCITY FILE          mobley_9740891_equil.vel
Info: CENTER OF MASS MOVING INITIALLY? NO
Info: DIELECTRIC             1
Info: EXCLUDE                SCALED ONE-FOUR
Info: 1-4 ELECTROSTATICS SCALED BY 0.833333
Info: MODIFIED 1-4 VDW PARAMETERS WILL BE USED
Info: DCD FILENAME           mobley_9740891_prod.dcd
Info: DCD FREQUENCY          100000
Info: DCD FIRST STEP         100000
Info: DCD FILE WILL CONTAIN UNIT CELL DATA
Info: XST FILENAME           mobley_9740891_prod.xst
Info: XST FREQUENCY          100000
Info: NO VELOCITY DCD OUTPUT
Info: NO FORCE DCD OUTPUT
Info: OUTPUT FILENAME        mobley_9740891_prod
Info: BINARY OUTPUT FILES WILL BE USED
Info: RESTART FILENAME       mobley_9740891_prod.restart
Info: RESTART FREQUENCY      100000
Info: BINARY RESTART FILES WILL BE USED
Info: CUTOFF                 9
Info: PAIRLIST DISTANCE      11
Info: PAIRLIST SHRINK RATE   0.01
Info: PAIRLIST GROW RATE     0.01
Info: PAIRLIST TRIGGER       0.3
Info: PAIRLISTS PER CYCLE    2
Info: PAIRLISTS ENABLED
Info: MARGIN                 2
Info: HYDROGEN GROUP CUTOFF  2.5
Info: PATCH DIMENSION        15.5
Info: ENERGY OUTPUT STEPS    100000
Info: ENERGY EVALUATION STEPS    100000
Info: OUTPUT ENERGY PRECISION 4
Info: CROSSTERM ENERGY INCLUDED IN DIHEDRAL
Info: TIMING OUTPUT STEPS    1000000
Info: PRESSURE OUTPUT STEPS  100000
Info: ALCHEMICAL FEP ON
Info: FEP CURRENT LAMBDA VALUE     1
Info: FEP COMPARISON LAMBDA VALUE  0.95
Info: FEP INTRA-ALCHEMICAL NON-BONDED INTERACTIONS WILL BE RETAINED
Info: FEP INTRA-ALCHEMICAL BONDED INTERACTIONS WILL BE RETAINED
Info: FEP VDW SHIFTING COEFFICIENT 5
Info: FEP ELEC. ACTIVE FOR ANNIHILATED PARTICLES BETWEEN LAMBDA = 0 AND LAMBDA = 0.5
Info: FEP ELEC. ACTIVE FOR EXNIHILATED PARTICLES BETWEEN LAMBDA = 0.5 AND LAMBDA = 1
Info: FEP VDW ACTIVE FOR ANNIHILATED PARTICLES BETWEEN LAMBDA = 0 AND LAMBDA = 1
Info: FEP VDW ACTIVE FOR EXNIHILATED PARTICLES BETWEEN LAMBDA = 0 AND LAMBDA = 1
Info: FEP BOND ACTIVE FOR ANNIHILATED PARTICLES BETWEEN LAMBDA = 1 AND LAMBDA = 1
Info: FEP BOND ACTIVE FOR EXNIHILATED PARTICLES BETWEEN LAMBDA = 0 AND LAMBDA = 0
Info: LANGEVIN DYNAMICS ACTIVE
Info: LANGEVIN TEMPERATURE   300
Info: LANGEVIN USING BBK INTEGRATOR
Info: LANGEVIN DAMPING COEFFICIENT IS 1 INVERSE PS
Info: LANGEVIN DYNAMICS APPLIED TO HYDROGENS
Info: LANGEVIN PISTON PRESSURE CONTROL ACTIVE
Info:        TARGET PRESSURE IS 1.01325 BAR
Info:     OSCILLATION PERIOD IS 50 FS
Info:             DECAY TIME IS 25 FS
Info:     PISTON TEMPERATURE IS 300 K
Info:       PRESSURE CONTROL IS GROUP-BASED
Info:    INITIAL STRAIN RATE IS -0.000230009 -0.000230009 -0.000230009
Info:       CELL FLUCTUATION IS ISOTROPIC
Info: PARTICLE MESH EWALD (PME) ACTIVE
Info: PME TOLERANCE               1e-06
Info: PME EWALD COEFFICIENT       0.348832
Info: PME INTERPOLATION ORDER     4
Info: PME GRID DIMENSIONS         32 32 36
Info: PME MAXIMUM GRID SPACING    1
Info: PME CALCULATION WILL BE PERFORMED ON GPU
Info: FULL ELECTROSTATIC EVALUATION FREQUENCY      2
Info: USING VERLET I (r-RESPA) MTS SCHEME.
Info: C1 SPLITTING OF LONG RANGE ELECTROSTATICS
Info: PLACING ATOMS IN PATCHES BY HYDROGEN GROUPS
Info: RIGID BONDS TO HYDROGEN : ALL
Info:         ERROR TOLERANCE : 1e-08
Info:          MAX ITERATIONS : 100
Info: RIGID WATER USING SETTLE ALGORITHM
Info: RANDOM NUMBER SEED     1743571278
Info: USE HYDROGEN BONDS?    NO
Info: Using AMBER format force field!
Info: AMBER PARM FILE        mobley_9740891.prmtop
Info: COORDINATE PDB         mobley_9740891.pdb
Info: Exclusions will be read from PARM file!
Info: SCNB (VDW SCALING)     2
Info: USING ARITHMETIC MEAN TO COMBINE L-J SIGMA PARAMETERS
Info: BINARY COORDINATES     mobley_9740891_equil.coor
Info: SUMMARY OF PARAMETERS:
Info: 7 BONDS
Info: 5 ANGLES
Info:   5 HARMONIC
Info:   0 COSINE-BASED
Info: 3 DIHEDRAL
Info: 0 IMPROPER
Info: 0 CROSSTERM
Info: 0 VDW
Info: 28 VDW_PAIRS
Info: 0 NBTHOLE_PAIRS
Info: To read alchdata from file: mobley_9740891.pdb
Info: To read alchflag data from column: 5
Info: STRUCTURE SUMMARY:
Info: 2914 ATOMS
Info: 2914 BONDS
Info: 19 ANGLES
Info: 32 DIHEDRALS
Info: 0 IMPROPERS
Info: 0 CROSSTERMS
Info: 2956 EXCLUSIONS
Info: 2904 RIGID BONDS
Info: ALCH: 0 ATOMS TO DISAPPEAR IN FINAL STATE
Info: ALCH: 13 ATOMS TO APPEAR IN FINAL STATE
Info: 5838 DEGREES OF FREEDOM
Info: 977 HYDROGEN GROUPS
Info: 3 ATOMS IN LARGEST HYDROGEN GROUP
Info: 977 MIGRATION GROUPS
Info: 3 ATOMS IN LARGEST MIGRATION GROUP
Info: TOTAL MASS = 17593.5 amu
Info: TOTAL CHARGE = 9.99942e-05 e
Info: MASS DENSITY = 0.98364 g/cm^3
Info: ATOM DENSITY = 0.0981104 atoms/A^3
Info: ADDED 0 IMPLICIT EXCLUSIONS
Info: NONBONDED TABLE R-SQUARED SPACING: 0.0625
Info: NONBONDED TABLE SIZE: 705 POINTS
Info: REMOVING COM VELOCITY -0.0923158 0.228037 0.128718
Info: Use 3D box decompostion in PME FFT.
Info: Updated CUDA force table with 4096 elements.
Info: Updated CUDA LJ table with 7 x 7 elements.
Info: Found 16 unique exclusion lists needing 32 bytes
TCL: Running for 1500000 steps
ETITLE: TS BOND ANGLE DIHED IMPRP ELECT VDW BOUNDARY MISC KINETIC TOTAL TEMP POTENTIAL TOTALAVG TEMPAVG PRESSURE GPRESSURE VOLUME PRESSAVG GPRESSAVG
ENERGY: 0 2.8018 5.1519 2.1735 0.0000 -10589.8663 1381.4007 0.0000 0.0000 1769.1411 -7429.1972 304.9922 -9198.3383 -7429.1972 304.9922 -326.2327 -242.5416 29701.2421 -326.2327 -242.5416
ENERGY: 300000 5.5231 7.2831 2.4583 0.0000 -10671.8683 1437.3396 0.0000 0.0000 1719.7535 -7499.5107 296.4780 -9219.2642 -7436.2585 300.6643 -268.2879 -148.1977 30094.1625 -354.2140 -279.7824
ENERGY: 600000 5.5012 3.9957 3.3255 0.0000 -10434.4591 1357.7047 0.0000 0.0000 1767.4616 -7296.4703 304.7027 -9063.9319 -7411.9721 301.1238 -289.8702 -209.0912 30024.9742 -228.1990 -150.2467
ENERGY: 900000 3.9057 4.0772 3.7196 0.0000 -10627.5525 1437.0789 0.0000 0.0000 1781.0258 -7397.7453 307.0411 -9178.7711 -7404.5376 301.2719 125.7281 190.7910 29736.9101 -162.5048 -77.1408
ENERGY: 1200000 1.9683 1.8092 5.4732 0.0000 -10535.6116 1422.5121 0.0000 0.0000 1733.8395 -7370.0093 298.9064 -9103.8489 -7407.7617 299.8443 -4.4501 43.1525 30387.3338 -122.2651 -44.7383
ENERGY: 1500000 1.1679 1.6596 4.6499 0.0000 -10542.6681 1395.3311 0.0000 0.0000 1722.3592 -7417.5004 296.9272 -9139.8596 -7398.6838 299.6351 -198.0427 -128.2118 30182.8758 -168.6179 -92.7833
TCL: Running FEP window   2: Lambda1 0.95   Lambda2 0.8999999999999999 [dLambda -0.050000000000000044]
TCL: Setting parameter firsttimestep to 0
TCL: Setting parameter alchLambda to 0.95
Info: NONBONDED TABLE R-SQUARED SPACING: 0.0625
Info: NONBONDED TABLE SIZE: 705 POINTS
TCL: Setting parameter alchLambda2 to 0.8999999999999999
Info: NONBONDED TABLE R-SQUARED SPACING: 0.0625
Info: NONBONDED TABLE SIZE: 705 POINTS
TCL: Running for 1500000 steps
ETITLE: TS BOND ANGLE DIHED IMPRP ELECT VDW BOUNDARY MISC KINETIC TOTAL TEMP POTENTIAL TOTALAVG TEMPAVG PRESSURE GPRESSURE VOLUME PRESSAVG GPRESSAVG
ENERGY: 0 1.1679 1.6596 4.6499 0.0000 -10541.7372 1395.8806 0.0000 0.0000 1721.4661 -7416.9131 296.7733 -9138.3792 -7416.9131 296.7733 -209.9321 -131.8174 30182.8758 -209.9321 -131.8174
ENERGY: 300000 3.2568 2.5888 3.3739 0.0000 -10499.1028 1393.2741 0.0000 0.0000 1749.2622 -7347.3469 301.5652 -9096.6091 -7379.5545 301.5201 -267.8149 -199.0990 30067.9923 -17.2126 38.7112
ENERGY: 600000 2.6506 5.5890 3.3478 0.0000 -10633.0569 1481.5099 0.0000 0.0000 1695.2371 -7444.7225 292.2515 -9139.9596 -7402.2579 300.4908 425.4174 507.4601 30088.9406 11.2986 66.7259
ENERGY: 900000 3.1331 4.8009 2.6922 0.0000 -10493.7068 1380.5089 0.0000 0.0000 1688.9257 -7413.6460 291.1634 -9102.5717 -7404.9495 299.2130 -362.5426 -227.9808 30094.3795 96.2566 153.8747
ENERGY: 1200000 1.9818 1.9184 0.7015 0.0000 -10409.2726 1296.1365 0.0000 0.0000 1685.1575 -7423.3768 290.5138 -9108.5343 -7403.5130 299.0830 -962.7784 -874.4567 30576.5418 58.3200 124.2494
ENERGY: 1500000 2.1396 5.8366 2.1568 0.0000 -10603.7231 1450.0408 0.0000 0.0000 1765.5464 -7378.0027 304.3725 -9143.5492 -7399.4233 299.2553 325.7968 395.0475 29903.8641 4.5792 71.7041
TCL: Running FEP window   3: Lambda1 0.8999999999999999 Lambda2 0.8499999999999999 [dLambda -0.050000000000000044]
TCL: Setting parameter firsttimestep to 0
TCL: Setting parameter alchLambda to 0.8999999999999999
Info: NONBONDED TABLE R-SQUARED SPACING: 0.0625
Info: NONBONDED TABLE SIZE: 705 POINTS
TCL: Setting parameter alchLambda2 to 0.8499999999999999
Info: NONBONDED TABLE R-SQUARED SPACING: 0.0625
Info: NONBONDED TABLE SIZE: 705 POINTS
TCL: Running for 1500000 steps
ETITLE: TS BOND ANGLE DIHED IMPRP ELECT VDW BOUNDARY MISC KINETIC TOTAL TEMP POTENTIAL TOTALAVG TEMPAVG PRESSURE GPRESSURE VOLUME PRESSAVG GPRESSAVG
ENERGY: 0 2.1396 5.8366 2.1568 0.0000 -10602.6226 1450.6241 0.0000 0.0000 1764.7239 -7377.1414 304.2307 -9141.8654 -7377.1414 304.2307 304.3059 388.9229 29903.8641 304.3059 388.9229
ENERGY: 300000 2.7552 1.9189 2.5029 0.0000 -10366.2519 1296.2095 0.0000 0.0000 1762.9787 -7299.8865 303.9299 -9062.8652 -7364.4091 303.0581 -1126.3907 -1081.7616 30987.0690 -156.5047 -63.8467
ENERGY: 600000 2.0413 5.2709 1.7717 0.0000 -10514.8885 1460.4456 0.0000 0.0000 1694.6379 -7350.7211 292.1482 -9045.3589 -7380.7490 300.7373 662.9994 694.4816 30105.7068 131.0833 201.8637
ENERGY: 900000 4.2978 0.8693 2.9731 0.0000 -10713.4642 1522.9703 0.0000 0.0000 1718.1263 -7464.2274 296.1975 -9182.3536 -7392.6737 300.8529 464.9564 570.2391 29824.6570 98.4493 170.3960
ENERGY: 1200000 4.0973 2.3107 1.8381 0.0000 -10561.3553 1394.9506 0.0000 0.0000 1736.7127 -7421.4458 299.4017 -9158.1585 -7397.6927 300.1815 -189.9568 -123.2760 29958.1680 36.4244 104.1280
ENERGY: 1500000 2.6911 2.7905 4.7880 0.0000 -10555.2647 1487.9413 0.0000 0.0000 1752.4934 -7304.5605 302.1222 -9057.0538 -7392.1387 299.7706 651.6577 673.7536 30363.8298 33.0514 96.4155
TCL: Running FEP window   4: Lambda1 0.8499999999999999 Lambda2 0.7999999999999998 [dLambda -0.050000000000000044]
TCL: Setting parameter firsttimestep to 0
TCL: Setting parameter alchLambda to 0.8499999999999999
Info: NONBONDED TABLE R-SQUARED SPACING: 0.0625
Info: NONBONDED TABLE SIZE: 705 POINTS
TCL: Setting parameter alchLambda2 to 0.7999999999999998
Info: NONBONDED TABLE R-SQUARED SPACING: 0.0625
Info: NONBONDED TABLE SIZE: 705 POINTS
TCL: Running for 1500000 steps
ETITLE: TS BOND ANGLE DIHED IMPRP ELECT VDW BOUNDARY MISC KINETIC TOTAL TEMP POTENTIAL TOTALAVG TEMPAVG PRESSURE GPRESSURE VOLUME PRESSAVG GPRESSAVG
ENERGY: 0 2.6911 2.7905 4.7880 0.0000 -10554.0588 1487.8593 0.0000 0.0000 1751.5894 -7304.3405 301.9664 -9055.9300 -7304.3405 301.9664 594.0853 664.3375 30363.8298 594.0853 664.3375
ENERGY: 300000 2.1488 2.2500 1.4864 0.0000 -10581.7493 1412.6985 0.0000 0.0000 1692.8070 -7470.3585 291.8326 -9163.1656 -7373.4291 299.1814 -345.6431 -311.0064 30373.5351 15.6756 71.0519
ENERGY: 600000 5.9987 1.5831 1.7212 0.0000 -10397.7058 1325.5929 0.0000 0.0000 1694.2783 -7368.5316 292.0862 -9062.8099 -7388.5328 297.2160 -756.7514 -673.3776 30299.7812 -133.3097 -73.2066
ENERGY: 900000 5.3679 1.4932 1.4678 0.0000 -10592.0813 1428.5763 0.0000 0.0000 1730.6125 -7424.5636 298.3501 -9155.1761 -7408.0649 298.0807 -103.0462 20.8188 30057.5442 -101.4498 -25.0526
ENERGY: 1200000 2.7096 4.5418 1.2217 0.0000 -10527.9054 1350.3311 0.0000 0.0000 1795.4168 -7373.6845 309.5220 -9169.1013 -7397.3057 298.6876 -491.7584 -492.8175 29918.9471 -43.6626 18.7219
ENERGY: 1500000 2.2808 2.5573 2.3369 0.0000 -10470.4333 1404.9478 0.0000 0.0000 1636.6045 -7421.7060 282.1435 -9058.3105 -7390.4686 297.9075 -64.0921 -0.6944 30216.2287 -16.5577 44.7095
TCL: Running FEP window   5: Lambda1 0.7999999999999998 Lambda2 0.7499999999999998 [dLambda -0.050000000000000044]
TCL: Setting parameter firsttimestep to 0
TCL: Setting parameter alchLambda to 0.7999999999999998
Info: NONBONDED TABLE R-SQUARED SPACING: 0.0625
Info: NONBONDED TABLE SIZE: 705 POINTS
TCL: Setting parameter alchLambda2 to 0.7499999999999998
Info: NONBONDED TABLE R-SQUARED SPACING: 0.0625
Info: NONBONDED TABLE SIZE: 705 POINTS
TCL: Running for 1500000 steps
ETITLE: TS BOND ANGLE DIHED IMPRP ELECT VDW BOUNDARY MISC KINETIC TOTAL TEMP POTENTIAL TOTALAVG TEMPAVG PRESSURE GPRESSURE VOLUME PRESSAVG GPRESSAVG
ENERGY: 0 2.2808 2.5573 2.3369 0.0000 -10469.9338 1405.1703 0.0000 0.0000 1635.7532 -7421.8352 281.9967 -9057.5884 -7421.8352 281.9967 -86.3540 -8.4973 30216.2287 -86.3540 -8.4973
ENERGY: 300000 3.6947 4.6794 1.0974 0.0000 -10561.8823 1412.1863 0.0000 0.0000 1739.2847 -7400.9396 299.8451 -9140.2244 -7407.0666 297.4035 -156.0890 -146.1521 30208.1477 -375.5000 -308.2604
ENERGY: 600000 4.0209 4.8599 1.6907 0.0000 -10398.9501 1297.7919 0.0000 0.0000 1787.1805 -7303.4063 308.1021 -9090.5868 -7381.4744 301.1908 -912.0061 -821.9365 30358.9446 -382.1707 -314.8510
ENERGY: 900000 1.5611 2.0691 2.7705 0.0000 -10658.1691 1495.7328 0.0000 0.0000 1737.2822 -7418.7535 299.4999 -9156.0357 -7381.3876 300.6846 614.4890 638.9861 29784.2999 -186.7864 -136.8663
ENERGY: 1200000 4.4430 6.0159 2.3036 0.0000 -10422.7575 1356.1701 0.0000 0.0000 1777.4831 -7276.3418 306.4304 -9053.8249 -7383.5228 301.0934 -631.1753 -536.0763 30574.4980 -190.0530 -134.1428
ENERGY: 1500000 3.9678 1.5444 2.6938 0.0000 -10561.0042 1349.1166 0.0000 0.0000 1726.7717 -7476.9099 297.6879 -9203.6816 -7395.1107 300.2109 -847.7126 -790.7562 30156.8479 -219.3351 -166.9738
TCL: Running FEP window   6: Lambda1 0.7499999999999998 Lambda2 0.6999999999999997 [dLambda -0.050000000000000044]
TCL: Setting parameter firsttimestep to 0
TCL: Setting parameter alchLambda to 0.7499999999999998
Info: NONBONDED TABLE R-SQUARED SPACING: 0.0625
Info: NONBONDED TABLE SIZE: 705 POINTS
TCL: Setting parameter alchLambda2 to 0.6999999999999997
Info: NONBONDED TABLE R-SQUARED SPACING: 0.0625
Info: NONBONDED TABLE SIZE: 705 POINTS
TCL: Running for 1500000 steps
ETITLE: TS BOND ANGLE DIHED IMPRP ELECT VDW BOUNDARY MISC KINETIC TOTAL TEMP POTENTIAL TOTALAVG TEMPAVG PRESSURE GPRESSURE VOLUME PRESSAVG GPRESSAVG
ENERGY: 0 3.9678 1.5444 2.6938 0.0000 -10560.6494 1349.9492 0.0000 0.0000 1725.9059 -7476.5882 297.5387 -9202.4942 -7476.5882 297.5387 -858.1387 -789.3914 30156.8479 -858.1387 -789.3914
ENERGY: 300000 3.8167 4.7644 2.2736 0.0000 -10627.9101 1470.2310 0.0000 0.0000 1772.0068 -7374.8177 305.4862 -9146.8245 -7419.8526 297.9545 363.1014 439.5776 29842.8038 -140.3763 -64.9798
ENERGY: 600000 5.5454 4.9690 1.3595 0.0000 -10451.0662 1303.8670 0.0000 0.0000 1740.3027 -7395.0226 300.0206 -9135.3253 -7416.5619 298.2444 -973.2816 -970.7895 29947.5022 -248.8494 -180.0238
ENERGY: 900000 0.7256 2.6508 5.4027 0.0000 -10481.3512 1344.1141 0.0000 0.0000 1716.1049 -7412.3531 295.8490 -9128.4580 -7399.3146 300.1549 -536.2143 -486.5720 29809.4976 -193.7123 -129.3088
ENERGY: 1200000 0.8043 2.4233 3.2015 0.0000 -10614.2618 1441.0664 0.0000 0.0000 1740.0631 -7426.7032 299.9793 -9166.7662 -7396.3367 300.2171 96.6849 127.2543 30043.7951 -193.5889 -137.7960
ENERGY: 1500000 2.7659 2.2361 2.1721 0.0000 -10470.4879 1364.1730 0.0000 0.0000 1699.6000 -7399.5409 293.0036 -9099.1408 -7393.7482 299.2098 -272.7383 -269.5091 29785.6128 -197.4225 -146.9900
TCL: Running FEP window   7: Lambda1 0.6999999999999997 Lambda2 0.6499999999999997 [dLambda -0.050000000000000044]
TCL: Setting parameter firsttimestep to 0
TCL: Setting parameter alchLambda to 0.6999999999999997
Info: NONBONDED TABLE R-SQUARED SPACING: 0.0625
Info: NONBONDED TABLE SIZE: 705 POINTS
TCL: Setting parameter alchLambda2 to 0.6499999999999997
Info: NONBONDED TABLE R-SQUARED SPACING: 0.0625
Info: NONBONDED TABLE SIZE: 705 POINTS
TCL: Running for 1500000 steps
ETITLE: TS BOND ANGLE DIHED IMPRP ELECT VDW BOUNDARY MISC KINETIC TOTAL TEMP POTENTIAL TOTALAVG TEMPAVG PRESSURE GPRESSURE VOLUME PRESSAVG GPRESSAVG
ENERGY: 0 2.7659 2.2361 2.1721 0.0000 -10470.1054 1364.0836 0.0000 0.0000 1698.7164 -7400.1314 292.8513 -9098.8478 -7400.1314 292.8513 -357.5305 -286.2389 29785.6128 -357.5305 -286.2389
ENERGY: 300000 1.3145 3.1249 5.8913 0.0000 -10498.2328 1366.3394 0.0000 0.0000 1725.7288 -7395.8339 297.5081 -9121.5627 -7400.2548 297.4030 -315.1090 -218.2268 30022.7375 -288.8039 -222.7197
ENERGY: 600000 7.0198 2.9697 0.9061 0.0000 -10582.1938 1416.4815 0.0000 0.0000 1757.9405 -7396.8762 303.0613 -9154.8167 -7406.4367 298.2371 164.9934 253.2741 29818.1304 57.2920 122.2249
ENERGY: 900000 5.1420 4.9763 1.8757 0.0000 -10535.0688 1446.5880 0.0000 0.0000 1755.5996 -7320.8873 302.6577 -9076.4869 -7386.9213 299.3273 20.8212 69.0538 30737.5048 -2.2321 58.7210
ENERGY: 1200000 3.0734 1.8802 2.8566 0.0000 -10631.1866 1485.2034 0.0000 0.0000 1752.1445 -7386.0286 302.0621 -9138.1730 -7394.1962 299.7964 434.1264 530.3510 29940.8277 -18.8796 40.0849
ENERGY: 1500000 5.9628 5.7085 5.4482 0.0000 -10604.4062 1486.9107 0.0000 0.0000 1770.0450 -7330.3311 305.1480 -9100.3761 -7381.9220 300.5591 546.2624 579.2217 30172.6126 21.8282 83.9168
TCL: Running FEP window   8: Lambda1 0.6499999999999997 Lambda2 0.5999999999999996 [dLambda -0.050000000000000044]
TCL: Setting parameter firsttimestep to 0
TCL: Setting parameter alchLambda to 0.6499999999999997
Info: NONBONDED TABLE R-SQUARED SPACING: 0.0625
Info: NONBONDED TABLE SIZE: 705 POINTS
TCL: Setting parameter alchLambda2 to 0.5999999999999996
Info: NONBONDED TABLE R-SQUARED SPACING: 0.0625
Info: NONBONDED TABLE SIZE: 705 POINTS
TCL: Running for 1500000 steps
ETITLE: TS BOND ANGLE DIHED IMPRP ELECT VDW BOUNDARY MISC KINETIC TOTAL TEMP POTENTIAL TOTALAVG TEMPAVG PRESSURE GPRESSURE VOLUME PRESSAVG GPRESSAVG
ENERGY: 0 5.9628 5.7085 5.4482 0.0000 -10604.0250 1486.8544 0.0000 0.0000 1769.2200 -7330.8311 305.0058 -9100.0511 -7330.8311 305.0058 491.2051 570.2914 30172.6126 491.2051 570.2914
ENERGY: 300000 4.4290 3.3054 3.2917 0.0000 -10392.8155 1297.2872 0.0000 0.0000 1774.4542 -7310.0480 305.9082 -9084.5022 -7334.1833 303.4409 -881.9343 -800.7603 30181.6611 212.4075 268.8654
ENERGY: 600000 1.9419 1.6455 2.5052 0.0000 -10448.8016 1366.6230 0.0000 0.0000 1721.6995 -7354.3866 296.8135 -9076.0860 -7365.2067 300.6885 -89.6517 -121.5600 30180.4001 99.9468 145.0153
ENERGY: 900000 3.1096 1.5155 2.9828 0.0000 -10509.4382 1393.3123 0.0000 0.0000 1709.0155 -7399.5024 294.6268 -9108.5179 -7383.8315 299.2380 -331.9569 -233.9424 30304.1755 -35.6546 26.0915
ENERGY: 1200000 2.9015 1.4176 2.7153 0.0000 -10649.1669 1476.7834 0.0000 0.0000 1740.9012 -7424.4479 300.1238 -9165.3492 -7392.9373 299.0027 336.2565 430.5647 29657.8440 -5.1563 60.8800
ENERGY: 1500000 2.9901 5.8815 3.5286 0.0000 -10537.1117 1439.7151 0.0000 0.0000 1756.9240 -7328.0724 302.8860 -9084.9964 -7388.0854 299.4924 188.4255 287.9845 30281.9698 6.6640 76.2772
TCL: Running FEP window   9: Lambda1 0.5999999999999996 Lambda2 0.5499999999999996 [dLambda -0.050000000000000044]
TCL: Setting parameter firsttimestep to 0
TCL: Setting parameter alchLambda to 0.5999999999999996
Info: NONBONDED TABLE R-SQUARED SPACING: 0.0625
Info: NONBONDED TABLE SIZE: 705 POINTS
TCL: Setting parameter alchLambda2 to 0.5499999999999996
Info: NONBONDED TABLE R-SQUARED SPACING: 0.0625
Info: NONBONDED TABLE SIZE: 705 POINTS
TCL: Running for 1500000 steps
ETITLE: TS BOND ANGLE DIHED IMPRP ELECT VDW BOUNDARY MISC KINETIC TOTAL TEMP POTENTIAL TOTALAVG TEMPAVG PRESSURE GPRESSURE VOLUME PRESSAVG GPRESSAVG
ENERGY: 0 2.9901 5.8815 3.5286 0.0000 -10536.8942 1440.0126 0.0000 0.0000 1756.0498 -7328.4316 302.7353 -9084.4814 -7328.4316 302.7353 199.4876 282.6069 30281.9698 199.4876 282.6069
ENERGY: 300000 2.2930 5.5233 5.8988 0.0000 -10592.8903 1425.0342 0.0000 0.0000 1721.7987 -7432.3424 296.8306 -9154.1410 -7377.7833 297.9975 49.2607 125.0739 29969.6204 -61.3944 0.2387
ENERGY: 600000 2.4130 3.6423 1.3220 0.0000 -10439.5668 1362.3175 0.0000 0.0000 1732.9513 -7336.9208 298.7533 -9069.8720 -7373.4129 298.3354 -368.0288 -300.4311 30424.7834 -100.8581 -43.3003
ENERGY: 900000 4.5869 1.6169 1.6430 0.0000 -10560.6823 1442.5170 0.0000 0.0000 1760.9626 -7349.3559 303.5823 -9110.3185 -7370.4749 299.6965 262.4356 259.8183 30152.7788 -65.9928 -14.0123
ENERGY: 1200000 1.8667 3.2604 3.3303 0.0000 -10643.9070 1413.5421 0.0000 0.0000 1766.8902 -7455.0173 304.6042 -9221.9075 -7378.2075 300.7782 -98.3514 -60.2063 29715.1281 -125.9815 -79.6738
ENERGY: 1500000 3.4436 1.9019 1.3614 0.0000 -10531.4210 1380.6787 0.0000 0.0000 1818.6102 -7325.4252 313.5205 -9144.0355 -7376.8323 301.6443 -566.2698 -443.7354 30085.4487 -83.1400 -27.0954
TCL: Running FEP window  10: Lambda1 0.5499999999999996 Lambda2 0.4999999999999996 [dLambda -0.04999999999999999]
TCL: Setting parameter firsttimestep to 0
TCL: Setting parameter alchLambda to 0.5499999999999996
Info: NONBONDED TABLE R-SQUARED SPACING: 0.0625
Info: NONBONDED TABLE SIZE: 705 POINTS
TCL: Setting parameter alchLambda2 to 0.4999999999999996
Info: NONBONDED TABLE R-SQUARED SPACING: 0.0625
Info: NONBONDED TABLE SIZE: 705 POINTS
TCL: Running for 1500000 steps
ETITLE: TS BOND ANGLE DIHED IMPRP ELECT VDW BOUNDARY MISC KINETIC TOTAL TEMP POTENTIAL TOTALAVG TEMPAVG PRESSURE GPRESSURE VOLUME PRESSAVG GPRESSAVG
ENERGY: 0 3.4436 1.9019 1.3614 0.0000 -10531.3893 1380.5530 0.0000 0.0000 1817.7359 -7326.3936 313.3698 -9144.1295 -7326.3936 313.3698 -537.5009 -452.8200 30085.4487 -537.5009 -452.8200
ENERGY: 300000 1.6792 4.0201 1.6832 0.0000 -10717.7963 1568.9703 0.0000 0.0000 1761.1044 -7380.3389 303.6067 -9141.4434 -7382.0987 303.1940 901.3577 1049.8605 30144.7807 -121.3922 -12.1439
ENERGY: 600000 4.8909 2.2808 2.4209 0.0000 -10690.2579 1509.6660 0.0000 0.0000 1811.5995 -7359.3999 312.3119 -9170.9994 -7368.9989 303.2151 859.3946 907.3418 29474.7672 14.3196 113.1242
ENERGY: 900000 5.7423 3.7991 1.1253 0.0000 -10559.6765 1450.9399 0.0000 0.0000 1726.2537 -7371.8162 297.5986 -9098.0698 -7378.4784 301.3938 249.5684 325.2507 30002.9008 154.4898 237.4254
ENERGY: 1200000 4.2037 4.0150 2.0428 0.0000 -10390.1391 1386.9344 0.0000 0.0000 1723.1821 -7269.7611 297.0691 -8992.9432 -7356.7350 301.6689 -195.4439 -61.9619 30143.2625 13.3227 101.7355
ENERGY: 1500000 4.1314 4.0195 5.5906 0.0000 -10526.1507 1427.9154 0.0000 0.0000 1707.3916 -7377.1022 294.3469 -9084.4938 -7362.7970 301.3632 -29.7970 82.0128 30412.6874 -28.8243 54.6114
TCL: Running FEP window  11: Lambda1 0.4999999999999996 Lambda2 0.4499999999999996 [dLambda -0.04999999999999999]
TCL: Setting parameter firsttimestep to 0
TCL: Setting parameter alchLambda to 0.4999999999999996
Info: NONBONDED TABLE R-SQUARED SPACING: 0.0625
Info: NONBONDED TABLE SIZE: 705 POINTS
TCL: Setting parameter alchLambda2 to 0.4499999999999996
Info: NONBONDED TABLE R-SQUARED SPACING: 0.0625
Info: NONBONDED TABLE SIZE: 705 POINTS
TCL: Running for 1500000 steps
ETITLE: TS BOND ANGLE DIHED IMPRP ELECT VDW BOUNDARY MISC KINETIC TOTAL TEMP POTENTIAL TOTALAVG TEMPAVG PRESSURE GPRESSURE VOLUME PRESSAVG GPRESSAVG
ENERGY: 0 4.1314 4.0195 5.5906 0.0000 -10526.1800 1428.1317 0.0000 0.0000 1706.5087 -7377.7981 294.1947 -9084.3068 -7377.7981 294.1947 3.4330 76.8797 30412.6874 3.4330 76.8797
ENERGY: 300000 3.0668 2.0025 2.7522 0.0000 -10570.3414 1390.0715 0.0000 0.0000 1768.5187 -7403.9298 304.8849 -9172.4485 -7391.0415 301.1303 -484.6859 -377.5366 29888.3555 -109.8850 -19.9070
ENERGY: 600000 2.9117 4.4228 1.7929 0.0000 -10510.1077 1365.5347 0.0000 0.0000 1708.0283 -7427.4174 294.4566 -9135.4456 -7388.0896 299.1876 -489.1556 -460.4056 30143.8540 -196.1386 -118.6079
ENERGY: 900000 2.8651 3.3826 2.4809 0.0000 -10443.9132 1330.0930 0.0000 0.0000 1761.3957 -7343.6960 303.6569 -9105.0916 -7373.4190 300.3916 -826.4286 -759.5206 30436.3016 -319.2820 -244.0039
ENERGY: 1200000 3.6486 2.8490 2.9919 0.0000 -10466.0361 1350.1915 0.0000 0.0000 1762.7977 -7343.5573 303.8986 -9106.3550 -7369.2673 300.4770 -542.2998 -504.4000 30045.3396 -279.9885 -210.5238
ENERGY: 1500000 3.7251 2.7110 3.9149 0.0000 -10591.1165 1401.6679 0.0000 0.0000 1740.0896 -7439.0080 299.9839 -9179.0976 -7382.9871 299.8510 -112.5838 -76.2576 29630.8746 -259.9303 -194.4848
TCL: Running FEP window  12: Lambda1 0.4499999999999996 Lambda2 0.39999999999999963 [dLambda -0.04999999999999999]
TCL: Setting parameter firsttimestep to 0
TCL: Setting parameter alchLambda to 0.4499999999999996
Info: NONBONDED TABLE R-SQUARED SPACING: 0.0625
Info: NONBONDED TABLE SIZE: 705 POINTS
TCL: Setting parameter alchLambda2 to 0.39999999999999963
Info: NONBONDED TABLE R-SQUARED SPACING: 0.0625
Info: NONBONDED TABLE SIZE: 705 POINTS
TCL: Running for 1500000 steps
ETITLE: TS BOND ANGLE DIHED IMPRP ELECT VDW BOUNDARY MISC KINETIC TOTAL TEMP POTENTIAL TOTALAVG TEMPAVG PRESSURE GPRESSURE VOLUME PRESSAVG GPRESSAVG
ENERGY: 0 3.7251 2.7110 3.9149 0.0000 -10591.1177 1402.3599 0.0000 0.0000 1739.2148 -7439.1920 299.8331 -9178.4068 -7439.1920 299.8331 -161.5468 -74.8632 29630.8746 -161.5468 -74.8632
ENERGY: 300000 2.2466 6.6776 5.3638 0.0000 -10507.2514 1391.7521 0.0000 0.0000 1772.2208 -7328.9904 305.5232 -9101.2112 -7398.4772 299.6809 158.5926 234.0840 29522.6771 -82.7777 -26.8785
ENERGY: 600000 1.2563 1.5231 1.5558 0.0000 -10622.2234 1428.6398 0.0000 0.0000 1747.8645 -7441.3840 301.3242 -9189.2484 -7406.4203 300.2612 -187.0751 -127.4189 30361.5440 116.6485 178.0073
ENERGY: 900000 7.1045 5.3571 4.8735 0.0000 -10476.1395 1343.4204 0.0000 0.0000 1773.6767 -7341.7073 305.7741 -9115.3840 -7387.6429 302.1236 -781.7112 -798.3707 30034.5955 -19.2836 46.9801
ENERGY: 1200000 4.3138 2.7248 1.7017 0.0000 -10619.7335 1436.6495 0.0000 0.0000 1703.3767 -7470.9670 293.6547 -9174.3437 -7392.6601 300.6299 -256.6543 -212.1972 30071.9771 58.3277 125.7633
ENERGY: 1500000 1.1959 2.9511 2.2882 0.0000 -10603.8812 1412.0006 0.0000 0.0000 1778.6182 -7406.8272 306.6260 -9185.4454 -7390.4722 301.3696 106.0342 188.7532 29674.0366 111.8211 176.6766
TCL: Running FEP window  13: Lambda1 0.39999999999999963 Lambda2 0.34999999999999964 [dLambda -0.04999999999999999]
TCL: Setting parameter firsttimestep to 0
TCL: Setting parameter alchLambda to 0.39999999999999963
Info: NONBONDED TABLE R-SQUARED SPACING: 0.0625
Info: NONBONDED TABLE SIZE: 705 POINTS
TCL: Setting parameter alchLambda2 to 0.34999999999999964
Info: NONBONDED TABLE R-SQUARED SPACING: 0.0625
Info: NONBONDED TABLE SIZE: 705 POINTS
TCL: Running for 1500000 steps
ETITLE: TS BOND ANGLE DIHED IMPRP ELECT VDW BOUNDARY MISC KINETIC TOTAL TEMP POTENTIAL TOTALAVG TEMPAVG PRESSURE GPRESSURE VOLUME PRESSAVG GPRESSAVG
ENERGY: 0 1.1959 2.9511 2.2882 0.0000 -10603.8814 1412.5302 0.0000 0.0000 1777.7238 -7407.1922 306.4718 -9184.9160 -7407.1922 306.4718 106.0788 188.8658 29674.0366 106.0788 188.8658
ENERGY: 300000 5.6719 5.8329 2.2068 0.0000 -10499.3045 1388.1932 0.0000 0.0000 1760.6277 -7336.7719 303.5246 -9097.3997 -7362.0836 303.5264 -389.1780 -311.6428 30249.6111 -239.4443 -145.9450
ENERGY: 600000 3.5670 3.4867 2.2328 0.0000 -10467.0164 1342.4727 0.0000 0.0000 1689.3430 -7425.9141 291.2354 -9115.2572 -7366.1625 300.5468 -625.7536 -548.9695 29760.3513 -248.6177 -163.2354
ENERGY: 900000 4.3153 2.6105 0.9671 0.0000 -10408.1077 1362.7636 0.0000 0.0000 1738.1693 -7299.2819 299.6528 -9037.4512 -7357.9168 302.0939 -298.0654 -199.7038 30084.5048 -92.1139 -7.8362
ENERGY: 1200000 2.9715 2.4033 3.8608 0.0000 -10600.2341 1449.1908 0.0000 0.0000 1748.2174 -7393.5903 301.3851 -9141.8077 -7353.7536 302.2272 178.9547 283.6943 29864.9138 -154.8884 -70.7868
ENERGY: 1500000 2.9971 3.9148 2.2544 0.0000 -10548.2556 1416.0006 0.0000 0.0000 1755.7951 -7367.2937 302.6914 -9123.0887 -7361.1734 301.4831 -69.8047 30.3139 29887.7560 -159.6092 -73.1678
TCL: Running FEP window  14: Lambda1 0.34999999999999964 Lambda2 0.29999999999999966 [dLambda -0.04999999999999999]
TCL: Setting parameter firsttimestep to 0
TCL: Setting parameter alchLambda to 0.34999999999999964
Info: NONBONDED TABLE R-SQUARED SPACING: 0.0625
Info: NONBONDED TABLE SIZE: 705 POINTS
TCL: Setting parameter alchLambda2 to 0.29999999999999966
Info: NONBONDED TABLE R-SQUARED SPACING: 0.0625
Info: NONBONDED TABLE SIZE: 705 POINTS
TCL: Running for 1500000 steps
ETITLE: TS BOND ANGLE DIHED IMPRP ELECT VDW BOUNDARY MISC KINETIC TOTAL TEMP POTENTIAL TOTALAVG TEMPAVG PRESSURE GPRESSURE VOLUME PRESSAVG GPRESSAVG
ENERGY: 0 2.9971 3.9148 2.2544 0.0000 -10548.2579 1416.6260 0.0000 0.0000 1754.8807 -7367.5850 302.5338 -9122.4656 -7367.5850 302.5338 -54.2670 28.6320 29887.7560 -54.2670 28.6320
ENERGY: 300000 2.7382 2.3450 0.7868 0.0000 -10535.9444 1410.6754 0.0000 0.0000 1746.6604 -7372.7385 301.1167 -9119.3990 -7362.1920 302.5884 -138.3139 -143.1774 30575.7315 39.1823 78.9937
ENERGY: 600000 5.0730 5.5624 2.0409 0.0000 -10491.0116 1328.6321 0.0000 0.0000 1741.2597 -7408.4436 300.1856 -9149.7033 -7368.9037 300.9540 -949.0046 -925.7831 30112.4638 -97.1616 -42.5867
ENERGY: 900000 3.7831 2.5534 3.1122 0.0000 -10501.3498 1340.4446 0.0000 0.0000 1794.4196 -7357.0369 309.3501 -9151.4565 -7356.0988 301.9783 -833.3860 -788.5576 30121.0396 -347.8670 -285.3522
ENERGY: 1200000 3.2318 4.0899 4.0792 0.0000 -10452.2890 1398.7920 0.0000 0.0000 1741.6845 -7300.4116 300.2588 -9042.0962 -7365.3614 301.5225 160.4083 152.3580 30064.1195 -299.9053 -239.8793
ENERGY: 1500000 2.1001 6.6308 4.0136 0.0000 -10603.6894 1438.0923 0.0000 0.0000 1820.7878 -7332.0649 313.8959 -9152.8526 -7364.4706 302.3942 -153.0227 -75.1397 30329.0593 -245.9685 -181.7375
TCL: Running FEP window  15: Lambda1 0.29999999999999966 Lambda2 0.24999999999999967 [dLambda -0.04999999999999999]
TCL: Setting parameter firsttimestep to 0
TCL: Setting parameter alchLambda to 0.29999999999999966
Info: NONBONDED TABLE R-SQUARED SPACING: 0.0625
Info: NONBONDED TABLE SIZE: 705 POINTS
TCL: Setting parameter alchLambda2 to 0.24999999999999967
Info: NONBONDED TABLE R-SQUARED SPACING: 0.0625
Info: NONBONDED TABLE SIZE: 705 POINTS
TCL: Running for 1500000 steps
ETITLE: TS BOND ANGLE DIHED IMPRP ELECT VDW BOUNDARY MISC KINETIC TOTAL TEMP POTENTIAL TOTALAVG TEMPAVG PRESSURE GPRESSURE VOLUME PRESSAVG GPRESSAVG
ENERGY: 0 2.1001 6.6308 4.0136 0.0000 -10603.6878 1438.4860 0.0000 0.0000 1819.9205 -7332.5368 313.7464 -9152.4573 -7332.5368 313.7464 -144.9371 -75.6711 30329.0593 -144.9371 -75.6711
ENERGY: 300000 2.7462 1.6150 1.8988 0.0000 -10390.5855 1336.9224 0.0000 0.0000 1702.3404 -7345.0627 293.4761 -9047.4032 -7354.7824 301.1870 -931.9958 -880.6054 30686.9497 -381.7632 -328.4117
ENERGY: 600000 2.3672 4.8581 2.2516 0.0000 -10579.4435 1496.4528 0.0000 0.0000 1747.6789 -7325.8349 301.2922 -9073.5137 -7380.7604 298.7035 389.2808 451.9346 30361.6542 -45.9487 14.9567
ENERGY: 900000 4.1061 4.4454 4.0206 0.0000 -10454.9055 1335.2807 0.0000 0.0000 1786.8004 -7320.2524 308.0366 -9107.0528 -7361.2079 300.8715 -709.3614 -610.4313 29909.6008 -122.1917 -51.3217
ENERGY: 1200000 1.8431 2.4184 2.0656 0.0000 -10566.0584 1395.0279 0.0000 0.0000 1783.1802 -7381.5233 307.4125 -9164.7035 -7367.6346 300.9738 -320.6559 -199.9262 29839.6543 -122.1304 -50.9097
ENERGY: 1500000 2.1532 5.3539 3.0601 0.0000 -10464.2715 1339.2566 0.0000 0.0000 1771.5204 -7342.9273 305.4024 -9114.4477 -7370.3318 301.1154 -832.4164 -784.8925 30290.8289 -156.1251 -84.6280
TCL: Running FEP window  16: Lambda1 0.24999999999999967 Lambda2 0.19999999999999968 [dLambda -0.04999999999999999]
TCL: Setting parameter firsttimestep to 0
TCL: Setting parameter alchLambda to 0.24999999999999967
Info: NONBONDED TABLE R-SQUARED SPACING: 0.0625
Info: NONBONDED TABLE SIZE: 705 POINTS
TCL: Setting parameter alchLambda2 to 0.19999999999999968
Info: NONBONDED TABLE R-SQUARED SPACING: 0.0625
Info: NONBONDED TABLE SIZE: 705 POINTS
TCL: Running for 1500000 steps
ETITLE: TS BOND ANGLE DIHED IMPRP ELECT VDW BOUNDARY MISC KINETIC TOTAL TEMP POTENTIAL TOTALAVG TEMPAVG PRESSURE GPRESSURE VOLUME PRESSAVG GPRESSAVG
ENERGY: 0 2.1532 5.3539 3.0601 0.0000 -10464.2716 1339.2379 0.0000 0.0000 1770.6547 -7343.8118 305.2532 -9114.4665 -7343.8118 305.2532 -859.6198 -790.9017 30290.8289 -859.6198 -790.9017
ENERGY: 300000 3.2524 3.5890 0.4033 0.0000 -10591.2429 1428.8137 0.0000 0.0000 1674.2593 -7480.9252 288.6350 -9155.1846 -7392.9005 299.5827 -370.1101 -293.5399 30085.1190 -405.7411 -338.2489
ENERGY: 600000 4.9974 4.5917 1.1478 0.0000 -10352.2900 1233.3859 0.0000 0.0000 1740.4076 -7367.7595 300.0387 -9108.1671 -7392.8091 299.9237 -1380.0811 -1326.3988 29672.8407 -533.7616 -481.2388
ENERGY: 900000 1.6749 3.1479 1.3139 0.0000 -10576.3205 1423.1550 0.0000 0.0000 1794.1824 -7352.8463 309.3092 -9147.0288 -7402.3426 299.8670 -128.0042 -3.6023 30314.9715 -319.1770 -249.6110
ENERGY: 1200000 5.6316 2.3423 4.2632 0.0000 -10589.0886 1467.8464 0.0000 0.0000 1710.8918 -7398.1134 294.9503 -9109.0052 -7403.0100 298.5349 -24.5850 76.0553 30347.8820 -276.6263 -202.1131
ENERGY: 1500000 5.4138 1.5564 5.3404 0.0000 -10501.9638 1371.6512 0.0000 0.0000 1733.4639 -7384.5381 298.8416 -9118.0020 -7396.6727 298.8742 -335.1235 -261.7615 29579.5655 -237.6730 -166.3300
TCL: Running FEP window  17: Lambda1 0.19999999999999968 Lambda2 0.1499999999999997 [dLambda -0.04999999999999999]
TCL: Setting parameter firsttimestep to 0
TCL: Setting parameter alchLambda to 0.19999999999999968
Info: NONBONDED TABLE R-SQUARED SPACING: 0.0625
Info: NONBONDED TABLE SIZE: 705 POINTS
TCL: Setting parameter alchLambda2 to 0.1499999999999997
Info: NONBONDED TABLE R-SQUARED SPACING: 0.0625
Info: NONBONDED TABLE SIZE: 705 POINTS
TCL: Running for 1500000 steps
ETITLE: TS BOND ANGLE DIHED IMPRP ELECT VDW BOUNDARY MISC KINETIC TOTAL TEMP POTENTIAL TOTALAVG TEMPAVG PRESSURE GPRESSURE VOLUME PRESSAVG GPRESSAVG
ENERGY: 0 5.4138 1.5564 5.3404 0.0000 -10501.9643 1371.7493 0.0000 0.0000 1732.6140 -7385.2904 298.6951 -9117.9044 -7385.2904 298.6951 -346.4470 -266.8823 29579.5655 -346.4470 -266.8823
ENERGY: 300000 4.6900 3.7043 3.7238 0.0000 -10558.4895 1440.1365 0.0000 0.0000 1701.9730 -7404.2620 293.4127 -9106.2350 -7414.6205 297.7787 168.8049 167.3191 30081.9897 -150.4907 -98.6654
ENERGY: 600000 4.9159 3.6674 1.7257 0.0000 -10551.1946 1408.8139 0.0000 0.0000 1735.0053 -7397.0664 299.1074 -9132.0717 -7400.4045 298.6035 -559.2857 -477.8622 30234.6840 -188.8417 -123.8712
ENERGY: 900000 1.4019 1.4316 1.0860 0.0000 -10623.5968 1414.3548 0.0000 0.0000 1684.8935 -7520.4291 290.4683 -9205.3226 -7395.6715 298.4778 -272.8961 -207.7501 29652.6105 -204.1343 -137.5586
ENERGY: 1200000 3.6570 2.3299 2.5172 0.0000 -10669.6631 1505.1310 0.0000 0.0000 1736.2643 -7419.7637 299.3244 -9156.0280 -7400.0631 298.6877 536.5860 567.6017 29760.5381 -262.6004 -206.1477
ENERGY: 1500000 4.0428 3.4608 1.6452 0.0000 -10501.3008 1357.6311 0.0000 0.0000 1785.7371 -7348.7838 307.8533 -9134.5209 -7395.0865 299.5635 -619.9903 -522.9084 29988.0306 -240.7041 -173.8618
TCL: Running FEP window  18: Lambda1 0.1499999999999997 Lambda2 0.09999999999999969 [dLambda -0.05 ]
TCL: Setting parameter firsttimestep to 0
TCL: Setting parameter alchLambda to 0.1499999999999997
Info: NONBONDED TABLE R-SQUARED SPACING: 0.0625
Info: NONBONDED TABLE SIZE: 705 POINTS
TCL: Setting parameter alchLambda2 to 0.09999999999999969
Info: NONBONDED TABLE R-SQUARED SPACING: 0.0625
Info: NONBONDED TABLE SIZE: 705 POINTS
TCL: Running for 1500000 steps
ETITLE: TS BOND ANGLE DIHED IMPRP ELECT VDW BOUNDARY MISC KINETIC TOTAL TEMP POTENTIAL TOTALAVG TEMPAVG PRESSURE GPRESSURE VOLUME PRESSAVG GPRESSAVG
ENERGY: 0 4.0428 3.4608 1.6452 0.0000 -10501.3037 1357.7329 0.0000 0.0000 1784.8876 -7349.5344 307.7068 -9134.4219 -7349.5344 307.7068 -625.2354 -525.0913 29988.0306 -625.2354 -525.0913
ENERGY: 300000 4.6377 6.1549 1.8070 0.0000 -10548.2855 1462.1970 0.0000 0.0000 1724.8230 -7348.6658 297.3520 -9073.4888 -7344.3208 302.2747 507.8454 528.3028 29589.4205 -378.5289 -325.5951
ENERGY: 600000 3.1455 2.6095 1.6029 0.0000 -10536.0600 1397.4375 0.0000 0.0000 1700.5325 -7430.7322 293.1644 -9131.2646 -7372.2772 298.5661 -29.2297 -26.3455 29796.7919 -319.2761 -267.2066
ENERGY: 900000 7.3846 1.8310 4.2736 0.0000 -10625.4380 1447.1343 0.0000 0.0000 1766.5393 -7398.2752 304.5437 -9164.8145 -7381.2804 298.9876 -28.8149 35.7424 29743.5274 -209.2414 -151.6374
ENERGY: 1200000 5.6899 2.1904 4.1552 0.0000 -10414.2299 1356.0585 0.0000 0.0000 1772.2328 -7273.9030 305.5252 -9046.1358 -7367.4355 299.5220 -426.5842 -308.9328 30063.0815 -172.3073 -113.6740
ENERGY: 1500000 2.3166 2.8847 2.7046 0.0000 -10547.1800 1367.8147 0.0000 0.0000 1776.6148 -7394.8446 306.2807 -9171.4594 -7372.0968 299.2478 -729.4077 -677.1610 29934.4684 -193.7704 -137.1068
TCL: Running FEP window  19: Lambda1 0.09999999999999969 Lambda2 0.049999999999999684 [dLambda -0.05 ]
TCL: Setting parameter firsttimestep to 0
TCL: Setting parameter alchLambda to 0.09999999999999969
Info: NONBONDED TABLE R-SQUARED SPACING: 0.0625
Info: NONBONDED TABLE SIZE: 705 POINTS
TCL: Setting parameter alchLambda2 to 0.049999999999999684
Info: NONBONDED TABLE R-SQUARED SPACING: 0.0625
Info: NONBONDED TABLE SIZE: 705 POINTS
TCL: Running for 1500000 steps
ETITLE: TS BOND ANGLE DIHED IMPRP ELECT VDW BOUNDARY MISC KINETIC TOTAL TEMP POTENTIAL TOTALAVG TEMPAVG PRESSURE GPRESSURE VOLUME PRESSAVG GPRESSAVG
ENERGY: 0 2.3166 2.8847 2.7046 0.0000 -10547.1796 1367.5653 0.0000 0.0000 1775.7379 -7395.9705 306.1295 -9171.7084 -7395.9705 306.1295 -774.8393 -681.5443 29934.4684 -774.8393 -681.5443
ENERGY: 300000 3.6667 2.1496 2.8350 0.0000 -10609.5856 1461.2905 0.0000 0.0000 1735.5205 -7404.1232 299.1962 -9139.6437 -7398.5477 301.2651 199.1211 317.5352 29953.2010 32.4279 110.0140
ENERGY: 600000 1.9133 2.3176 2.5128 0.0000 -10583.5016 1442.5287 0.0000 0.0000 1721.5657 -7412.6634 296.7904 -9134.2291 -7406.7980 299.3552 -27.1309 91.4517 29838.6503 59.4819 130.3406
ENERGY: 900000 1.8897 3.3974 1.5117 0.0000 -10680.8506 1501.1156 0.0000 0.0000 1803.6654 -7369.2708 310.9441 -9172.9362 -7386.2821 301.2014 736.9171 808.8622 29569.5099 189.8545 269.9073
ENERGY: 1200000 5.3492 3.2301 0.8844 0.0000 -10485.6474 1390.8374 0.0000 0.0000 1730.6880 -7354.6582 298.3631 -9085.3463 -7385.5699 300.1248 -353.7438 -302.8300 30248.1170 70.8481 150.9785
ENERGY: 1500000 2.1458 3.9209 4.1017 0.0000 -10655.5486 1486.2314 0.0000 0.0000 1727.5261 -7431.6228 297.8180 -9159.1489 -7383.8547 300.5846 515.7868 555.7686 29385.5062 101.1345 177.9314
TCL: Running FEP window  20: Lambda1 0.049999999999999684 Lambda2 0.0    [dLambda -0.049999999999999684]
TCL: Setting parameter firsttimestep to 0
TCL: Setting parameter alchLambda to 0.049999999999999684
Info: NONBONDED TABLE R-SQUARED SPACING: 0.0625
Info: NONBONDED TABLE SIZE: 705 POINTS
TCL: Setting parameter alchLambda2 to 0.0
Info: NONBONDED TABLE R-SQUARED SPACING: 0.0625
Info: NONBONDED TABLE SIZE: 705 POINTS
TCL: Running for 1500000 steps
ETITLE: TS BOND ANGLE DIHED IMPRP ELECT VDW BOUNDARY MISC KINETIC TOTAL TEMP POTENTIAL TOTALAVG TEMPAVG PRESSURE GPRESSURE VOLUME PRESSAVG GPRESSAVG
ENERGY: 0 2.1458 3.9209 4.1017 0.0000 -10655.5488 1486.0960 0.0000 0.0000 1726.6377 -7432.6467 297.6648 -9159.2845 -7432.6467 297.6648 462.9750 554.6517 29385.5062 462.9750 554.6517
ENERGY: 300000 3.8312 3.3184 1.9777 0.0000 -10555.3956 1412.9935 0.0000 0.0000 1720.3145 -7412.9603 296.5747 -9133.2748 -7379.8612 300.1498 -187.8799 -129.8548 29893.7367 205.0447 272.4391
ENERGY: 600000 3.6275 2.7876 3.9418 0.0000 -10390.0904 1346.5912 0.0000 0.0000 1715.7627 -7317.3796 295.7900 -9033.1423 -7363.3142 300.8924 -652.9353 -562.7303 30342.2225 -167.0741 -96.9182
ENERGY: 900000 2.7835 3.7331 1.6208 0.0000 -10632.6743 1490.6394 0.0000 0.0000 1723.0729 -7410.8246 297.0503 -9133.8975 -7388.0841 299.4322 500.4470 495.2544 29854.1522 -129.7441 -68.6544
ENERGY: 1200000 4.5848 4.4591 4.1537 0.0000 -10734.8864 1533.8154 0.0000 0.0000 1792.7949 -7395.0785 309.0700 -9187.8734 -7374.0564 300.6311 343.8547 420.3742 30097.3136 -52.4504 7.1626
ENERGY: 1500000 4.7292 2.5733 2.9647 0.0000 -10613.5323 1477.1865 0.0000 0.0000 1734.5390 -7391.5397 299.0270 -9126.0787 -7368.8766 300.7088 230.4942 278.4584 30100.0997 -52.5188 5.6593
TCL: Exiting due to exit command.
