Info: SIMULATION PARAMETERS:
Info: TIMESTEP               2
Info: NUMBER OF STEPS        0
Info: STEPS PER CYCLE        10
Info: PERIODIC CELL BASIS 1  30.8737 0 0
Info: PERIODIC CELL BASIS 2  0 32.4409 0
Info: PERIODIC CELL BASIS 3  0 0 30.2056
Info: PERIODIC CELL CENTER   0 0 0
Info: WRAPPING WATERS AROUND PERIODIC BOUNDARIES ON OUTPUT.
Info: WRAPPING ALL CLUSTERS AROUND PERIODIC BOUNDARIES ON OUTPUT.
Info: FIRST LDB TIMESTEP     50
Info: LAST LDB TIMESTEP     -1
Info: HOM BACKGROUND SCALING 1
Info: PME BACKGROUND SCALING 1
Info: MIN ATOMS PER PATCH    40
Info: EMPTY PATCH LOAD       40 ATOMS
Info: VELOCITY FILE          mobley_8966374_equil.vel
Info: CENTER OF MASS MOVING INITIALLY? NO
Info: DIELECTRIC             1
Info: EXCLUDE                SCALED ONE-FOUR
Info: 1-4 ELECTROSTATICS SCALED BY 0.833333
Info: MODIFIED 1-4 VDW PARAMETERS WILL BE USED
Info: DCD FILENAME           mobley_8966374_prod.dcd
Info: DCD FREQUENCY          100000
Info: DCD FIRST STEP         100000
Info: DCD FILE WILL CONTAIN UNIT CELL DATA
Info: XST FILENAME           mobley_8966374_prod.xst
Info: XST FREQUENCY          100000
Info: NO VELOCITY DCD OUTPUT
Info: NO FORCE DCD OUTPUT
Info: OUTPUT FILENAME        mobley_8966374_prod
Info: BINARY OUTPUT FILES WILL BE USED
Info: RESTART FILENAME       mobley_8966374_prod.restart
Info: RESTART FREQUENCY      100000
Info: BINARY RESTART FILES WILL BE USED
Info: CUTOFF                 9
Info: PAIRLIST DISTANCE      11
Info: PAIRLIST SHRINK RATE   0.01
Info: PAIRLIST GROW RATE     0.01
Info: PAIRLIST TRIGGER       0.3
Info: PAIRLISTS PER CYCLE    2
Info: PAIRLISTS ENABLED
Info: MARGIN                 2
Info: HYDROGEN GROUP CUTOFF  2.5
Info: PATCH DIMENSION        15.5
Info: ENERGY OUTPUT STEPS    100000
Info: ENERGY EVALUATION STEPS    100000
Info: OUTPUT ENERGY PRECISION 4
Info: CROSSTERM ENERGY INCLUDED IN DIHEDRAL
Info: TIMING OUTPUT STEPS    1000000
Info: PRESSURE OUTPUT STEPS  100000
Info: ALCHEMICAL FEP ON
Info: FEP CURRENT LAMBDA VALUE     1
Info: FEP COMPARISON LAMBDA VALUE  0.95
Info: FEP INTRA-ALCHEMICAL NON-BONDED INTERACTIONS WILL BE RETAINED
Info: FEP INTRA-ALCHEMICAL BONDED INTERACTIONS WILL BE RETAINED
Info: FEP VDW SHIFTING COEFFICIENT 5
Info: FEP ELEC. ACTIVE FOR ANNIHILATED PARTICLES BETWEEN LAMBDA = 0 AND LAMBDA = 0.5
Info: FEP ELEC. ACTIVE FOR EXNIHILATED PARTICLES BETWEEN LAMBDA = 0.5 AND LAMBDA = 1
Info: FEP VDW ACTIVE FOR ANNIHILATED PARTICLES BETWEEN LAMBDA = 0 AND LAMBDA = 1
Info: FEP VDW ACTIVE FOR EXNIHILATED PARTICLES BETWEEN LAMBDA = 0 AND LAMBDA = 1
Info: FEP BOND ACTIVE FOR ANNIHILATED PARTICLES BETWEEN LAMBDA = 1 AND LAMBDA = 1
Info: FEP BOND ACTIVE FOR EXNIHILATED PARTICLES BETWEEN LAMBDA = 0 AND LAMBDA = 0
Info: LANGEVIN DYNAMICS ACTIVE
Info: LANGEVIN TEMPERATURE   300
Info: LANGEVIN USING BBK INTEGRATOR
Info: LANGEVIN DAMPING COEFFICIENT IS 1 INVERSE PS
Info: LANGEVIN DYNAMICS APPLIED TO HYDROGENS
Info: LANGEVIN PISTON PRESSURE CONTROL ACTIVE
Info:        TARGET PRESSURE IS 1.01325 BAR
Info:     OSCILLATION PERIOD IS 50 FS
Info:             DECAY TIME IS 25 FS
Info:     PISTON TEMPERATURE IS 300 K
Info:       PRESSURE CONTROL IS GROUP-BASED
Info:    INITIAL STRAIN RATE IS 4.49215e-05 4.49215e-05 4.49215e-05
Info:       CELL FLUCTUATION IS ISOTROPIC
Info: PARTICLE MESH EWALD (PME) ACTIVE
Info: PME TOLERANCE               1e-06
Info: PME EWALD COEFFICIENT       0.348832
Info: PME INTERPOLATION ORDER     4
Info: PME GRID DIMENSIONS         32 36 32
Info: PME MAXIMUM GRID SPACING    1
Info: PME CALCULATION WILL BE PERFORMED ON GPU
Info: FULL ELECTROSTATIC EVALUATION FREQUENCY      2
Info: USING VERLET I (r-RESPA) MTS SCHEME.
Info: C1 SPLITTING OF LONG RANGE ELECTROSTATICS
Info: PLACING ATOMS IN PATCHES BY HYDROGEN GROUPS
Info: RIGID BONDS TO HYDROGEN : ALL
Info:         ERROR TOLERANCE : 1e-08
Info:          MAX ITERATIONS : 100
Info: RIGID WATER USING SETTLE ALGORITHM
Info: RANDOM NUMBER SEED     1743570106
Info: USE HYDROGEN BONDS?    NO
Info: Using AMBER format force field!
Info: AMBER PARM FILE        mobley_8966374.prmtop
Info: COORDINATE PDB         mobley_8966374.pdb
Info: Exclusions will be read from PARM file!
Info: SCNB (VDW SCALING)     2
Info: USING ARITHMETIC MEAN TO COMBINE L-J SIGMA PARAMETERS
Info: BINARY COORDINATES     mobley_8966374_equil.coor
Info: SUMMARY OF PARAMETERS:
Info: 7 BONDS
Info: 8 ANGLES
Info:   8 HARMONIC
Info:   0 COSINE-BASED
Info: 4 DIHEDRAL
Info: 0 IMPROPER
Info: 0 CROSSTERM
Info: 0 VDW
Info: 28 VDW_PAIRS
Info: 0 NBTHOLE_PAIRS
Info: To read alchdata from file: mobley_8966374.pdb
Info: To read alchflag data from column: 5
Info: STRUCTURE SUMMARY:
Info: 2923 ATOMS
Info: 2923 BONDS
Info: 20 ANGLES
Info: 26 DIHEDRALS
Info: 0 IMPROPERS
Info: 0 CROSSTERMS
Info: 2962 EXCLUSIONS
Info: 2916 RIGID BONDS
Info: ALCH: 0 ATOMS TO DISAPPEAR IN FINAL STATE
Info: ALCH: 13 ATOMS TO APPEAR IN FINAL STATE
Info: 5853 DEGREES OF FREEDOM
Info: 977 HYDROGEN GROUPS
Info: 4 ATOMS IN LARGEST HYDROGEN GROUP
Info: 977 MIGRATION GROUPS
Info: 4 ATOMS IN LARGEST MIGRATION GROUP
Info: TOTAL MASS = 17569.6 amu
Info: TOTAL CHARGE = 0.000200011 e
Info: MASS DENSITY = 0.96439 g/cm^3
Info: ATOM DENSITY = 0.0966184 atoms/A^3
Info: ADDED 0 IMPLICIT EXCLUSIONS
Info: NONBONDED TABLE R-SQUARED SPACING: 0.0625
Info: NONBONDED TABLE SIZE: 705 POINTS
Info: REMOVING COM VELOCITY -0.147846 -0.177608 0.245814
Info: Use 3D box decompostion in PME FFT.
Info: Updated CUDA force table with 4096 elements.
Info: Updated CUDA LJ table with 7 x 7 elements.
Info: Found 14 unique exclusion lists needing 28 bytes
TCL: Running for 1500000 steps
ETITLE: TS BOND ANGLE DIHED IMPRP ELECT VDW BOUNDARY MISC KINETIC TOTAL TEMP POTENTIAL TOTALAVG TEMPAVG PRESSURE GPRESSURE VOLUME PRESSAVG GPRESSAVG
ENERGY: 0 2.3226 5.6261 2.5687 0.0000 -10592.7593 1408.9087 0.0000 0.0000 1760.6200 -7412.7132 302.7454 -9173.3332 -7412.7132 302.7454 -360.5836 -281.1052 30253.0487 -360.5836 -281.1052
ENERGY: 300000 4.0910 4.4339 1.3590 0.0000 -10564.3381 1381.9008 0.0000 0.0000 1673.0717 -7499.4816 287.6911 -9172.5533 -7417.7197 296.4199 -375.3654 -215.5430 29717.4922 -220.0560 -110.6209
ENERGY: 600000 3.6697 1.2037 2.5667 0.0000 -10550.5068 1456.4796 0.0000 0.0000 1723.4085 -7363.1787 296.3467 -9086.5872 -7395.9564 298.0383 377.0602 399.5285 29950.7399 -10.8953 62.4917
ENERGY: 900000 3.9386 4.4097 1.1795 0.0000 -10629.1307 1437.2462 0.0000 0.0000 1743.6635 -7438.6933 299.8296 -9182.3568 -7401.5467 298.2039 194.0887 228.9102 29745.1669 -106.2061 -37.3507
ENERGY: 1200000 4.1546 4.6995 2.1333 0.0000 -10636.7447 1457.7183 0.0000 0.0000 1783.7274 -7384.3116 306.7188 -9168.0389 -7389.4213 299.8301 130.0351 250.7493 30010.8802 -152.5476 -81.9396
ENERGY: 1500000 1.1842 6.7342 1.9059 0.0000 -10527.3344 1373.6693 0.0000 0.0000 1721.4124 -7422.4285 296.0035 -9143.8408 -7387.1008 299.7828 -272.0204 -201.9263 29893.4950 -190.8966 -119.4886
TCL: Running FEP window   2: Lambda1 0.95   Lambda2 0.8999999999999999 [dLambda -0.050000000000000044]
TCL: Setting parameter firsttimestep to 0
TCL: Setting parameter alchLambda to 0.95
Info: NONBONDED TABLE R-SQUARED SPACING: 0.0625
Info: NONBONDED TABLE SIZE: 705 POINTS
TCL: Setting parameter alchLambda2 to 0.8999999999999999
Info: NONBONDED TABLE R-SQUARED SPACING: 0.0625
Info: NONBONDED TABLE SIZE: 705 POINTS
TCL: Running for 1500000 steps
ETITLE: TS BOND ANGLE DIHED IMPRP ELECT VDW BOUNDARY MISC KINETIC TOTAL TEMP POTENTIAL TOTALAVG TEMPAVG PRESSURE GPRESSURE VOLUME PRESSAVG GPRESSAVG
ENERGY: 0 1.1842 6.7342 1.9059 0.0000 -10526.4199 1374.2430 0.0000 0.0000 1720.5425 -7421.8102 295.8539 -9142.3527 -7421.8102 295.8539 -292.2876 -204.7694 29893.4950 -292.2876 -204.7694
ENERGY: 300000 5.1379 4.3731 2.0950 0.0000 -10464.0406 1319.4195 0.0000 0.0000 1822.4499 -7310.5652 313.3772 -9133.0151 -7313.9932 304.1566 -873.4266 -832.5852 29873.9198 -232.2550 -172.9296
ENERGY: 600000 5.9415 2.5600 2.5860 0.0000 -10358.0457 1297.3796 0.0000 0.0000 1781.1662 -7268.4125 306.2784 -9049.5787 -7297.9328 303.6677 -1049.4557 -931.5921 30516.0272 -285.0224 -216.5888
ENERGY: 900000 3.7470 3.3198 3.2770 0.0000 -10482.7621 1368.0636 0.0000 0.0000 1703.1960 -7401.1588 292.8711 -9104.3548 -7329.9464 300.9946 -185.7224 -201.9544 29989.4003 -177.7514 -124.3044
ENERGY: 1200000 2.4289 2.9419 0.9907 0.0000 -10734.7585 1541.3283 0.0000 0.0000 1754.0287 -7433.0399 301.6120 -9187.0686 -7348.5670 299.7498 755.1103 766.7089 29883.2454 -10.8338 40.3088
ENERGY: 1500000 3.5203 3.3948 0.4149 0.0000 -10557.1011 1439.5654 0.0000 0.0000 1735.9614 -7374.2441 298.5052 -9110.2056 -7357.6500 299.5389 128.1883 156.9576 29987.6049 -46.8281 3.1599
TCL: Running FEP window   3: Lambda1 0.8999999999999999 Lambda2 0.8499999999999999 [dLambda -0.050000000000000044]
TCL: Setting parameter firsttimestep to 0
TCL: Setting parameter alchLambda to 0.8999999999999999
Info: NONBONDED TABLE R-SQUARED SPACING: 0.0625
Info: NONBONDED TABLE SIZE: 705 POINTS
TCL: Setting parameter alchLambda2 to 0.8499999999999999
Info: NONBONDED TABLE R-SQUARED SPACING: 0.0625
Info: NONBONDED TABLE SIZE: 705 POINTS
TCL: Running for 1500000 steps
ETITLE: TS BOND ANGLE DIHED IMPRP ELECT VDW BOUNDARY MISC KINETIC TOTAL TEMP POTENTIAL TOTALAVG TEMPAVG PRESSURE GPRESSURE VOLUME PRESSAVG GPRESSAVG
ENERGY: 0 3.5203 3.3948 0.4149 0.0000 -10555.5162 1438.6348 0.0000 0.0000 1735.1276 -7374.4238 298.3618 -9109.5513 -7374.4238 298.3618 47.3057 137.3470 29987.6049 47.3057 137.3470
ENERGY: 300000 2.5806 5.8561 2.7685 0.0000 -10603.7250 1475.0818 0.0000 0.0000 1763.4684 -7353.9696 303.2352 -9117.4380 -7347.7163 302.1689 318.6358 322.0177 30352.6533 -148.7942 -111.0976
ENERGY: 600000 1.8835 3.9846 1.8541 0.0000 -10563.0662 1382.9616 0.0000 0.0000 1740.6897 -7431.6927 299.3183 -9172.3823 -7361.3394 299.2294 -381.9103 -362.6885 30070.2421 -150.3160 -100.3017
ENERGY: 900000 3.3159 2.7312 2.0740 0.0000 -10474.8946 1348.0957 0.0000 0.0000 1751.5217 -7367.1561 301.1809 -9118.6778 -7373.6114 299.2545 -934.7797 -801.7063 30262.9225 -222.4758 -166.5558
ENERGY: 1200000 0.7044 1.8200 4.1509 0.0000 -10530.3865 1418.4321 0.0000 0.0000 1699.3331 -7405.9462 292.2068 -9105.2792 -7369.3312 299.0467 102.2404 185.3365 29786.1426 -181.6759 -129.7569
ENERGY: 1500000 4.0716 4.1563 2.1413 0.0000 -10555.7293 1463.9584 0.0000 0.0000 1782.7338 -7298.6679 306.5479 -9081.4018 -7367.7507 299.3881 424.8356 477.2763 30195.7065 -90.0210 -38.0979
TCL: Running FEP window   4: Lambda1 0.8499999999999999 Lambda2 0.7999999999999998 [dLambda -0.050000000000000044]
TCL: Setting parameter firsttimestep to 0
TCL: Setting parameter alchLambda to 0.8499999999999999
Info: NONBONDED TABLE R-SQUARED SPACING: 0.0625
Info: NONBONDED TABLE SIZE: 705 POINTS
TCL: Setting parameter alchLambda2 to 0.7999999999999998
Info: NONBONDED TABLE R-SQUARED SPACING: 0.0625
Info: NONBONDED TABLE SIZE: 705 POINTS
TCL: Running for 1500000 steps
ETITLE: TS BOND ANGLE DIHED IMPRP ELECT VDW BOUNDARY MISC KINETIC TOTAL TEMP POTENTIAL TOTALAVG TEMPAVG PRESSURE GPRESSURE VOLUME PRESSAVG GPRESSAVG
ENERGY: 0 4.0716 4.1563 2.1413 0.0000 -10554.9208 1464.1448 0.0000 0.0000 1781.8843 -7298.5226 306.4018 -9080.4069 -7298.5226 306.4018 374.8715 469.8661 30195.7065 374.8715 469.8661
ENERGY: 300000 2.0745 5.8324 1.2844 0.0000 -10577.6920 1481.0381 0.0000 0.0000 1740.4015 -7347.0612 299.2687 -9087.4627 -7363.4556 300.0883 570.7396 595.1497 29965.1991 674.0730 717.1187
ENERGY: 600000 2.5613 3.5943 1.8587 0.0000 -10517.8380 1401.5651 0.0000 0.0000 1743.7476 -7364.5111 299.8441 -9108.2586 -7350.7502 300.1928 -137.9859 -169.2585 30079.2693 321.1220 357.5845
ENERGY: 900000 5.5418 3.9696 1.0376 0.0000 -10446.0904 1345.8479 0.0000 0.0000 1802.3781 -7287.3154 309.9258 -9089.6935 -7346.5171 300.7182 -774.4227 -682.1163 30351.0936 121.3132 168.6474
ENERGY: 1200000 3.4468 3.7961 2.2731 0.0000 -10535.4916 1407.4166 0.0000 0.0000 1751.1221 -7367.4370 301.1122 -9118.5591 -7348.5922 300.5323 -80.6869 -29.7034 29863.9442 53.6000 98.3078
ENERGY: 1500000 4.2826 5.0629 1.7802 0.0000 -10597.6159 1432.7341 0.0000 0.0000 1776.9850 -7376.7710 305.5594 -9153.7560 -7357.5536 300.5860 -60.1226 -13.4564 29951.9442 54.9618 105.4033
TCL: Running FEP window   5: Lambda1 0.7999999999999998 Lambda2 0.7499999999999998 [dLambda -0.050000000000000044]
TCL: Setting parameter firsttimestep to 0
TCL: Setting parameter alchLambda to 0.7999999999999998
Info: NONBONDED TABLE R-SQUARED SPACING: 0.0625
Info: NONBONDED TABLE SIZE: 705 POINTS
TCL: Setting parameter alchLambda2 to 0.7499999999999998
Info: NONBONDED TABLE R-SQUARED SPACING: 0.0625
Info: NONBONDED TABLE SIZE: 705 POINTS
TCL: Running for 1500000 steps
ETITLE: TS BOND ANGLE DIHED IMPRP ELECT VDW BOUNDARY MISC KINETIC TOTAL TEMP POTENTIAL TOTALAVG TEMPAVG PRESSURE GPRESSURE VOLUME PRESSAVG GPRESSAVG
ENERGY: 0 4.2826 5.0629 1.7802 0.0000 -10595.7015 1431.8231 0.0000 0.0000 1776.1221 -7376.6306 305.4110 -9152.7527 -7376.6306 305.4110 -104.3924 -27.8907 29951.9442 -104.3924 -27.8907
ENERGY: 300000 2.2367 3.0375 1.2745 0.0000 -10496.5551 1389.5642 0.0000 0.0000 1697.9225 -7402.5196 291.9643 -9100.4421 -7395.3791 299.1425 -180.0453 -176.9620 30393.9795 13.1872 59.9944
ENERGY: 600000 4.7239 3.9991 0.8793 0.0000 -10636.1736 1470.4542 0.0000 0.0000 1809.0628 -7347.0543 311.0753 -9156.1171 -7378.0469 302.3287 -49.6833 119.3280 30078.7072 103.0503 180.5944
ENERGY: 900000 3.3098 6.4311 2.9653 0.0000 -10435.4180 1335.8870 0.0000 0.0000 1733.8585 -7352.9663 298.1436 -9086.8248 -7365.6002 302.0307 -885.0258 -836.3838 30478.7130 -9.0159 73.2531
ENERGY: 1200000 3.7774 3.1437 0.7220 0.0000 -10655.4907 1457.7745 0.0000 0.0000 1757.5939 -7432.4791 302.2250 -9190.0730 -7358.7346 302.0435 202.0552 217.2291 29656.3310 5.4820 79.3760
ENERGY: 1500000 2.3780 2.9839 2.5672 0.0000 -10782.1617 1566.3099 0.0000 0.0000 1809.1092 -7398.8136 311.0833 -9207.9228 -7358.2558 302.4160 1067.4658 1112.8257 29646.5715 45.9504 116.0733
TCL: Running FEP window   6: Lambda1 0.7499999999999998 Lambda2 0.6999999999999997 [dLambda -0.050000000000000044]
TCL: Setting parameter firsttimestep to 0
TCL: Setting parameter alchLambda to 0.7499999999999998
Info: NONBONDED TABLE R-SQUARED SPACING: 0.0625
Info: NONBONDED TABLE SIZE: 705 POINTS
TCL: Setting parameter alchLambda2 to 0.6999999999999997
Info: NONBONDED TABLE R-SQUARED SPACING: 0.0625
Info: NONBONDED TABLE SIZE: 705 POINTS
TCL: Running for 1500000 steps
ETITLE: TS BOND ANGLE DIHED IMPRP ELECT VDW BOUNDARY MISC KINETIC TOTAL TEMP POTENTIAL TOTALAVG TEMPAVG PRESSURE GPRESSURE VOLUME PRESSAVG GPRESSAVG
ENERGY: 0 2.3780 2.9839 2.5672 0.0000 -10780.7167 1566.2842 0.0000 0.0000 1808.2377 -7398.2657 310.9334 -9206.5034 -7398.2657 310.9334 1024.7503 1108.5235 29646.5715 1024.7503 1108.5235
ENERGY: 300000 1.5811 4.8101 0.9634 0.0000 -10676.0396 1538.4993 0.0000 0.0000 1711.8015 -7418.3842 294.3508 -9130.1856 -7400.4601 298.3606 782.1613 918.0358 29840.0014 595.0727 666.5894
ENERGY: 600000 4.9705 4.7749 3.4158 0.0000 -10568.0879 1418.1414 0.0000 0.0000 1715.0723 -7421.7131 294.9133 -9136.7854 -7410.5070 296.5846 -169.8699 -87.0768 30246.7016 240.2051 304.5877
ENERGY: 900000 2.8345 4.8847 1.7905 0.0000 -10628.5220 1513.7928 0.0000 0.0000 1776.8068 -7328.4128 305.5287 -9105.2197 -7393.6298 298.1187 603.8433 664.6767 30268.6646 50.7992 115.8455
ENERGY: 1200000 1.0551 3.1426 2.8143 0.0000 -10482.4290 1382.4644 0.0000 0.0000 1751.5949 -7341.3578 301.1935 -9092.9526 -7386.0751 299.1290 -262.0920 -161.7239 30086.3361 18.3091 82.1392
ENERGY: 1500000 1.3779 6.4431 4.5290 0.0000 -10556.9374 1441.1275 0.0000 0.0000 1728.7048 -7374.7550 297.2574 -9103.4598 -7380.0465 299.9076 121.1915 170.1925 30174.3344 -57.1111 5.6675
TCL: Running FEP window   7: Lambda1 0.6999999999999997 Lambda2 0.6499999999999997 [dLambda -0.050000000000000044]
TCL: Setting parameter firsttimestep to 0
TCL: Setting parameter alchLambda to 0.6999999999999997
Info: NONBONDED TABLE R-SQUARED SPACING: 0.0625
Info: NONBONDED TABLE SIZE: 705 POINTS
TCL: Setting parameter alchLambda2 to 0.6499999999999997
Info: NONBONDED TABLE R-SQUARED SPACING: 0.0625
Info: NONBONDED TABLE SIZE: 705 POINTS
TCL: Running for 1500000 steps
ETITLE: TS BOND ANGLE DIHED IMPRP ELECT VDW BOUNDARY MISC KINETIC TOTAL TEMP POTENTIAL TOTALAVG TEMPAVG PRESSURE GPRESSURE VOLUME PRESSAVG GPRESSAVG
ENERGY: 0 1.3780 6.4431 4.5290 0.0000 -10556.2921 1441.4100 0.0000 0.0000 1727.8422 -7374.6898 297.1091 -9102.5320 -7374.6898 297.1091 100.9658 168.1534 30174.3344 100.9658 168.1534
ENERGY: 300000 4.3329 5.1347 1.8852 0.0000 -10465.0788 1343.2616 0.0000 0.0000 1729.3795 -7381.0849 297.3734 -9110.4644 -7366.0165 301.7280 -469.4922 -407.8813 29849.4963 -76.7393 -2.4563
ENERGY: 600000 1.2970 3.6751 1.3100 0.0000 -10478.1328 1437.3007 0.0000 0.0000 1798.2305 -7236.3195 309.2126 -9034.5500 -7342.7794 302.0930 319.2016 382.6639 30246.8722 -175.2613 -101.5468
ENERGY: 900000 2.7014 1.0447 0.4383 0.0000 -10615.7318 1453.8058 0.0000 0.0000 1716.1097 -7441.6319 295.0916 -9157.7416 -7356.8314 300.5005 -137.9835 -103.9663 30312.8609 -273.2095 -197.6782
ENERGY: 1200000 3.1383 4.7178 2.9936 0.0000 -10721.8520 1562.6981 0.0000 0.0000 1778.6389 -7369.6654 305.8438 -9148.3042 -7350.2177 300.9015 971.7689 1019.6867 29864.2155 -138.6260 -68.1654
ENERGY: 1500000 4.0492 2.9464 2.8326 0.0000 -10583.4175 1455.9007 0.0000 0.0000 1684.7112 -7432.9774 289.6926 -9117.6887 -7357.8326 299.7506 212.7178 240.8487 29739.5220 -88.8514 -28.2532
TCL: Running FEP window   8: Lambda1 0.6499999999999997 Lambda2 0.5999999999999996 [dLambda -0.050000000000000044]
TCL: Setting parameter firsttimestep to 0
TCL: Setting parameter alchLambda to 0.6499999999999997
Info: NONBONDED TABLE R-SQUARED SPACING: 0.0625
Info: NONBONDED TABLE SIZE: 705 POINTS
TCL: Setting parameter alchLambda2 to 0.5999999999999996
Info: NONBONDED TABLE R-SQUARED SPACING: 0.0625
Info: NONBONDED TABLE SIZE: 705 POINTS
TCL: Running for 1500000 steps
ETITLE: TS BOND ANGLE DIHED IMPRP ELECT VDW BOUNDARY MISC KINETIC TOTAL TEMP POTENTIAL TOTALAVG TEMPAVG PRESSURE GPRESSURE VOLUME PRESSAVG GPRESSAVG
ENERGY: 0 4.0492 2.9464 2.8326 0.0000 -10581.7904 1455.8643 0.0000 0.0000 1683.8141 -7432.2839 289.5383 -9116.0980 -7432.2839 289.5383 147.7580 233.2768 29739.5220 147.7580 233.2768
ENERGY: 300000 1.3271 1.9268 0.9260 0.0000 -10529.1469 1427.5330 0.0000 0.0000 1739.1439 -7358.2900 299.0525 -9097.4339 -7373.1865 296.1597 -30.5387 80.3802 30187.2396 -49.5779 61.3390
ENERGY: 600000 4.4086 3.5871 0.4605 0.0000 -10498.5494 1430.9482 0.0000 0.0000 1711.0212 -7348.1238 294.2167 -9059.1450 -7361.9349 298.2814 -25.5649 -53.0099 30484.0453 -23.7975 53.9797
ENERGY: 900000 3.6793 4.3569 1.8945 0.0000 -10528.2817 1410.0078 0.0000 0.0000 1714.5652 -7393.7780 294.8261 -9108.3432 -7358.7446 299.0024 104.0447 198.3320 29319.2278 50.4964 126.0614
ENERGY: 1200000 2.7056 4.5612 1.2254 0.0000 -10543.1177 1421.9732 0.0000 0.0000 1699.8051 -7412.8472 292.2880 -9112.6523 -7368.2660 298.0941 -142.1572 -111.9110 30307.0492 -4.0379 72.5295
ENERGY: 1500000 3.2712 4.0758 1.6223 0.0000 -10554.5961 1385.2622 0.0000 0.0000 1687.4504 -7472.9142 290.1636 -9160.3647 -7376.2007 297.7401 -575.4188 -553.8859 30151.2573 -5.4561 65.6357
TCL: Running FEP window   9: Lambda1 0.5999999999999996 Lambda2 0.5499999999999996 [dLambda -0.050000000000000044]
TCL: Setting parameter firsttimestep to 0
TCL: Setting parameter alchLambda to 0.5999999999999996
Info: NONBONDED TABLE R-SQUARED SPACING: 0.0625
Info: NONBONDED TABLE SIZE: 705 POINTS
TCL: Setting parameter alchLambda2 to 0.5499999999999996
Info: NONBONDED TABLE R-SQUARED SPACING: 0.0625
Info: NONBONDED TABLE SIZE: 705 POINTS
TCL: Running for 1500000 steps
ETITLE: TS BOND ANGLE DIHED IMPRP ELECT VDW BOUNDARY MISC KINETIC TOTAL TEMP POTENTIAL TOTALAVG TEMPAVG PRESSURE GPRESSURE VOLUME PRESSAVG GPRESSAVG
ENERGY: 0 3.2712 4.0757 1.6223 0.0000 -10553.0454 1385.1062 0.0000 0.0000 1686.5633 -7472.4065 290.0110 -9158.9698 -7472.4065 290.0110 -635.9033 -561.6134 30151.2573 -635.9033 -561.6134
ENERGY: 300000 3.2434 5.5792 4.3306 0.0000 -10600.3706 1476.3078 0.0000 0.0000 1747.2680 -7363.6416 300.4494 -9110.9096 -7389.9791 301.1067 250.1338 377.2205 30143.8778 261.4894 310.5076
ENERGY: 600000 1.2667 4.1765 1.4854 0.0000 -10437.0340 1307.4686 0.0000 0.0000 1791.3494 -7331.2874 308.0294 -9122.6368 -7394.4795 300.2716 -1052.3769 -1010.2101 30404.2740 69.4618 120.1122
ENERGY: 900000 2.1346 1.4002 1.6958 0.0000 -10505.1512 1374.2568 0.0000 0.0000 1778.1079 -7347.5559 305.7525 -9125.6637 -7398.7646 299.3072 -500.1940 -381.0777 30045.5271 -145.5838 -90.1953
ENERGY: 1200000 5.4637 4.8576 1.2685 0.0000 -10481.6233 1372.2656 0.0000 0.0000 1812.5643 -7285.2036 311.6774 -9097.7680 -7386.5981 299.6719 -618.9834 -516.7021 30250.0048 -170.4483 -109.3431
ENERGY: 1500000 2.4240 4.1726 1.6357 0.0000 -10528.3156 1450.1363 0.0000 0.0000 1724.9608 -7344.9862 296.6136 -9069.9470 -7385.1709 299.4035 29.6408 141.4663 30610.8452 -276.0985 -206.1542
TCL: Running FEP window  10: Lambda1 0.5499999999999996 Lambda2 0.4999999999999996 [dLambda -0.04999999999999999]
TCL: Setting parameter firsttimestep to 0
TCL: Setting parameter alchLambda to 0.5499999999999996
Info: NONBONDED TABLE R-SQUARED SPACING: 0.0625
Info: NONBONDED TABLE SIZE: 705 POINTS
TCL: Setting parameter alchLambda2 to 0.4999999999999996
Info: NONBONDED TABLE R-SQUARED SPACING: 0.0625
Info: NONBONDED TABLE SIZE: 705 POINTS
TCL: Running for 1500000 steps
ETITLE: TS BOND ANGLE DIHED IMPRP ELECT VDW BOUNDARY MISC KINETIC TOTAL TEMP POTENTIAL TOTALAVG TEMPAVG PRESSURE GPRESSURE VOLUME PRESSAVG GPRESSAVG
ENERGY: 0 2.4240 4.1726 1.6357 0.0000 -10528.0459 1450.6489 0.0000 0.0000 1724.0719 -7345.0927 296.4608 -9069.1646 -7345.0927 296.4608 67.4901 141.4111 30610.8452 67.4901 141.4111
ENERGY: 300000 2.0531 3.3066 2.2062 0.0000 -10461.1954 1362.0043 0.0000 0.0000 1699.0323 -7392.5929 292.1551 -9091.6252 -7332.1560 301.3522 -507.4477 -389.4405 30065.4560 -457.4324 -379.5286
ENERGY: 600000 0.8211 5.2901 0.9719 0.0000 -10732.1815 1488.3167 0.0000 0.0000 1721.5016 -7515.2801 296.0188 -9236.7817 -7369.7534 298.3032 388.7617 438.1547 29664.6078 -112.2716 -42.2173
ENERGY: 900000 4.6682 2.4747 1.4129 0.0000 -10529.8323 1393.6712 0.0000 0.0000 1770.2846 -7357.3206 304.4072 -9127.6052 -7362.6777 300.6548 -399.4379 -380.3175 30015.6109 -218.1336 -154.5626
ENERGY: 1200000 2.7486 4.7437 1.4569 0.0000 -10390.7486 1324.9263 0.0000 0.0000 1705.1489 -7351.7241 293.2069 -9056.8730 -7364.3218 299.3413 -707.1557 -645.9177 30168.5117 -158.4931 -101.3995
ENERGY: 1500000 3.5331 3.8630 2.5159 0.0000 -10431.6145 1391.3389 0.0000 0.0000 1762.6212 -7267.7424 303.0895 -9030.3636 -7361.3895 299.2033 -249.0368 -164.4278 30094.1884 -174.3365 -119.4368
TCL: Running FEP window  11: Lambda1 0.4999999999999996 Lambda2 0.4499999999999996 [dLambda -0.04999999999999999]
TCL: Setting parameter firsttimestep to 0
TCL: Setting parameter alchLambda to 0.4999999999999996
Info: NONBONDED TABLE R-SQUARED SPACING: 0.0625
Info: NONBONDED TABLE SIZE: 705 POINTS
TCL: Setting parameter alchLambda2 to 0.4499999999999996
Info: NONBONDED TABLE R-SQUARED SPACING: 0.0625
Info: NONBONDED TABLE SIZE: 705 POINTS
TCL: Running for 1500000 steps
ETITLE: TS BOND ANGLE DIHED IMPRP ELECT VDW BOUNDARY MISC KINETIC TOTAL TEMP POTENTIAL TOTALAVG TEMPAVG PRESSURE GPRESSURE VOLUME PRESSAVG GPRESSAVG
ENERGY: 0 3.5331 3.8630 2.5159 0.0000 -10430.8946 1391.7724 0.0000 0.0000 1761.7242 -7267.4860 302.9352 -9029.2102 -7267.4860 302.9352 -238.5123 -162.7261 30094.1884 -238.5123 -162.7261
ENERGY: 300000 4.6016 3.6536 0.2096 0.0000 -10570.4960 1420.7508 0.0000 0.0000 1768.6347 -7372.6457 304.1235 -9141.2803 -7347.9132 300.4486 -343.0331 -254.4027 30096.9673 -282.9391 -225.7627
ENERGY: 600000 3.3102 7.5503 1.7353 0.0000 -10531.4625 1389.9711 0.0000 0.0000 1766.7204 -7362.1752 303.7943 -9128.8956 -7359.5552 301.5688 -233.5751 -221.1013 30062.0856 -262.6074 -197.0138
ENERGY: 900000 3.6683 5.0248 1.1431 0.0000 -10640.1764 1482.2756 0.0000 0.0000 1723.3747 -7424.6898 296.3409 -9148.0645 -7370.8244 299.6897 259.9459 325.0861 30020.4267 -294.3553 -238.0999
ENERGY: 1200000 4.2512 4.4356 2.1797 0.0000 -10640.6761 1425.1408 0.0000 0.0000 1760.9906 -7443.6782 302.8091 -9204.6688 -7371.6761 300.2608 -156.9252 -118.0759 29734.1324 -251.2781 -189.7849
ENERGY: 1500000 1.3096 4.3606 2.5271 0.0000 -10534.9800 1441.1488 0.0000 0.0000 1727.5214 -7358.1123 297.0539 -9085.6338 -7367.0536 300.3713 185.7590 271.2799 30040.5858 -180.9668 -115.9356
TCL: Running FEP window  12: Lambda1 0.4499999999999996 Lambda2 0.39999999999999963 [dLambda -0.04999999999999999]
TCL: Setting parameter firsttimestep to 0
TCL: Setting parameter alchLambda to 0.4499999999999996
Info: NONBONDED TABLE R-SQUARED SPACING: 0.0625
Info: NONBONDED TABLE SIZE: 705 POINTS
TCL: Setting parameter alchLambda2 to 0.39999999999999963
Info: NONBONDED TABLE R-SQUARED SPACING: 0.0625
Info: NONBONDED TABLE SIZE: 705 POINTS
TCL: Running for 1500000 steps
ETITLE: TS BOND ANGLE DIHED IMPRP ELECT VDW BOUNDARY MISC KINETIC TOTAL TEMP POTENTIAL TOTALAVG TEMPAVG PRESSURE GPRESSURE VOLUME PRESSAVG GPRESSAVG
ENERGY: 0 1.3097 4.3606 2.5271 0.0000 -10534.9808 1440.9818 0.0000 0.0000 1726.6304 -7359.1711 296.9007 -9085.8015 -7359.1711 296.9007 165.3854 263.0274 30040.5858 165.3854 263.0274
ENERGY: 300000 5.1225 2.3717 3.1324 0.0000 -10421.3805 1313.5277 0.0000 0.0000 1706.7932 -7390.4329 293.4896 -9097.2261 -7366.9779 298.1754 -1098.1399 -1078.6279 30415.0408 -355.0437 -295.1943
ENERGY: 600000 2.2451 3.2822 1.7749 0.0000 -10465.6878 1410.1970 0.0000 0.0000 1738.2285 -7309.9600 298.8951 -9048.1886 -7372.2572 296.8050 -44.3699 63.9579 30223.5146 -358.8867 -308.2687
ENERGY: 900000 2.2575 3.6511 2.5446 0.0000 -10489.9568 1425.5286 0.0000 0.0000 1739.9357 -7316.0394 299.1886 -9055.9751 -7361.3347 297.7504 -5.2551 12.3215 30343.8121 -229.3346 -182.4387
ENERGY: 1200000 3.7179 3.3649 0.8032 0.0000 -10411.7777 1356.3541 0.0000 0.0000 1749.6368 -7297.9007 300.8568 -9047.5376 -7361.9980 298.1623 -544.7895 -442.5023 30225.9331 -106.7046 -57.4285
ENERGY: 1500000 2.9439 3.8154 3.2784 0.0000 -10382.8498 1311.7616 0.0000 0.0000 1770.8724 -7290.1781 304.5083 -9061.0505 -7365.5720 299.1487 -771.9532 -701.4669 30394.1818 -95.8357 -37.4333
TCL: Running FEP window  13: Lambda1 0.39999999999999963 Lambda2 0.34999999999999964 [dLambda -0.04999999999999999]
TCL: Setting parameter firsttimestep to 0
TCL: Setting parameter alchLambda to 0.39999999999999963
Info: NONBONDED TABLE R-SQUARED SPACING: 0.0625
Info: NONBONDED TABLE SIZE: 705 POINTS
TCL: Setting parameter alchLambda2 to 0.34999999999999964
Info: NONBONDED TABLE R-SQUARED SPACING: 0.0625
Info: NONBONDED TABLE SIZE: 705 POINTS
TCL: Running for 1500000 steps
ETITLE: TS BOND ANGLE DIHED IMPRP ELECT VDW BOUNDARY MISC KINETIC TOTAL TEMP POTENTIAL TOTALAVG TEMPAVG PRESSURE GPRESSURE VOLUME PRESSAVG GPRESSAVG
ENERGY: 0 2.9439 3.8154 3.2784 0.0000 -10382.8494 1312.2000 0.0000 0.0000 1770.0032 -7290.6085 304.3588 -9060.6118 -7290.6085 304.3588 -785.4201 -701.6849 30394.1818 -785.4201 -701.6849
ENERGY: 300000 4.7549 4.0370 2.0302 0.0000 -10472.6130 1381.7628 0.0000 0.0000 1739.9236 -7340.1045 299.1865 -9080.0281 -7339.3078 299.5000 -478.6589 -399.9436 30289.6445 -367.9729 -293.7589
ENERGY: 600000 1.4103 5.8656 2.0093 0.0000 -10369.8886 1322.6864 0.0000 0.0000 1789.3691 -7248.5478 307.6889 -9037.9169 -7322.9500 301.5106 -612.6445 -528.1350 29990.9041 -410.2729 -324.1577
ENERGY: 900000 2.9429 4.5276 2.8690 0.0000 -10421.3896 1303.7432 0.0000 0.0000 1732.1758 -7375.1310 297.8543 -9107.3069 -7345.4021 300.4700 -850.1509 -820.6235 29937.9005 -454.4540 -373.5354
ENERGY: 1200000 5.4573 2.2359 1.2497 0.0000 -10506.9001 1390.1076 0.0000 0.0000 1744.6853 -7363.1643 300.0053 -9107.8496 -7360.9200 299.7335 -651.3813 -536.3761 30317.1591 -365.5378 -290.1284
ENERGY: 1500000 3.2418 2.6387 2.3380 0.0000 -10653.7072 1505.9311 0.0000 0.0000 1699.4534 -7440.1042 292.2275 -9139.5576 -7378.9281 298.6870 389.5827 454.9622 30308.2107 -252.6867 -181.2918
TCL: Running FEP window  14: Lambda1 0.34999999999999964 Lambda2 0.29999999999999966 [dLambda -0.04999999999999999]
TCL: Setting parameter firsttimestep to 0
TCL: Setting parameter alchLambda to 0.34999999999999964
Info: NONBONDED TABLE R-SQUARED SPACING: 0.0625
Info: NONBONDED TABLE SIZE: 705 POINTS
TCL: Setting parameter alchLambda2 to 0.29999999999999966
Info: NONBONDED TABLE R-SQUARED SPACING: 0.0625
Info: NONBONDED TABLE SIZE: 705 POINTS
TCL: Running for 1500000 steps
ETITLE: TS BOND ANGLE DIHED IMPRP ELECT VDW BOUNDARY MISC KINETIC TOTAL TEMP POTENTIAL TOTALAVG TEMPAVG PRESSURE GPRESSURE VOLUME PRESSAVG GPRESSAVG
ENERGY: 0 3.2418 2.6387 2.3380 0.0000 -10653.7071 1506.4814 0.0000 0.0000 1698.6251 -7440.3821 292.0851 -9139.0072 -7440.3821 292.0851 380.5314 454.3601 30308.2107 380.5314 454.3601
ENERGY: 300000 2.8727 4.2716 2.3526 0.0000 -10544.1966 1468.0883 0.0000 0.0000 1734.5820 -7332.0294 298.2680 -9066.6114 -7375.7621 298.5867 214.8421 327.3115 30699.1767 279.2625 346.7431
ENERGY: 600000 0.5018 2.7117 1.3058 0.0000 -10457.2863 1411.5643 0.0000 0.0000 1734.1051 -7307.0977 298.1860 -9041.2028 -7375.7090 297.3154 11.5772 107.1090 30002.7744 240.7394 315.6583
ENERGY: 900000 3.8801 4.0308 1.3570 0.0000 -10568.9994 1453.3322 0.0000 0.0000 1742.0643 -7364.3350 299.5546 -9106.3993 -7381.4825 297.9100 -62.1179 29.4449 30152.3684 44.3227 126.4046
ENERGY: 1200000 1.4267 2.6017 1.9908 0.0000 -10540.3388 1465.8928 0.0000 0.0000 1753.7018 -7314.7250 301.5557 -9068.4268 -7370.4394 299.2440 328.1396 423.7541 30212.3422 60.3926 144.4796
ENERGY: 1500000 2.2421 1.9587 1.1316 0.0000 -10610.5836 1424.3026 0.0000 0.0000 1741.3068 -7439.6417 299.4244 -9180.9486 -7366.8080 299.7343 -415.3064 -306.7836 30057.5100 -55.5185 20.1018
TCL: Running FEP window  15: Lambda1 0.29999999999999966 Lambda2 0.24999999999999967 [dLambda -0.04999999999999999]
TCL: Setting parameter firsttimestep to 0
TCL: Setting parameter alchLambda to 0.29999999999999966
Info: NONBONDED TABLE R-SQUARED SPACING: 0.0625
Info: NONBONDED TABLE SIZE: 705 POINTS
TCL: Setting parameter alchLambda2 to 0.24999999999999967
Info: NONBONDED TABLE R-SQUARED SPACING: 0.0625
Info: NONBONDED TABLE SIZE: 705 POINTS
TCL: Running for 1500000 steps
ETITLE: TS BOND ANGLE DIHED IMPRP ELECT VDW BOUNDARY MISC KINETIC TOTAL TEMP POTENTIAL TOTALAVG TEMPAVG PRESSURE GPRESSURE VOLUME PRESSAVG GPRESSAVG
ENERGY: 0 2.2421 1.9587 1.1316 0.0000 -10610.5834 1424.6339 0.0000 0.0000 1740.4475 -7440.1696 299.2766 -9180.6171 -7440.1696 299.2766 -395.7732 -308.2019 30057.5100 -395.7732 -308.2019
ENERGY: 300000 3.5169 5.9243 1.7652 0.0000 -10418.3253 1360.5694 0.0000 0.0000 1718.3321 -7328.2175 295.4738 -9046.5495 -7390.6234 295.9053 -229.9959 -177.5799 29746.5177 -389.6270 -320.8045
ENERGY: 600000 3.5108 2.2127 0.3769 0.0000 -10629.4386 1470.6041 0.0000 0.0000 1723.5869 -7429.1472 296.3774 -9152.7341 -7384.7813 298.1773 138.1457 128.3585 29993.9438 -258.9852 -205.1804
ENERGY: 900000 3.4161 5.1732 1.0305 0.0000 -10616.1487 1528.3152 0.0000 0.0000 1699.4442 -7378.7694 292.2259 -9078.2136 -7381.4966 298.1020 982.6141 949.6031 30016.3802 -152.5544 -95.4391
ENERGY: 1200000 1.9586 3.4614 3.3180 0.0000 -10540.9919 1445.8656 0.0000 0.0000 1734.2110 -7352.1774 298.2042 -9086.3884 -7373.0203 298.7417 23.5695 142.8978 30102.4363 -126.9521 -68.8499
ENERGY: 1500000 2.8027 2.9751 3.1290 0.0000 -10543.6328 1424.1018 0.0000 0.0000 1689.2831 -7421.3411 290.4787 -9110.6242 -7370.5212 298.2577 61.1043 135.7578 29598.6113 -64.7082 -5.7821
TCL: Running FEP window  16: Lambda1 0.24999999999999967 Lambda2 0.19999999999999968 [dLambda -0.04999999999999999]
TCL: Setting parameter firsttimestep to 0
TCL: Setting parameter alchLambda to 0.24999999999999967
Info: NONBONDED TABLE R-SQUARED SPACING: 0.0625
Info: NONBONDED TABLE SIZE: 705 POINTS
TCL: Setting parameter alchLambda2 to 0.19999999999999968
Info: NONBONDED TABLE R-SQUARED SPACING: 0.0625
Info: NONBONDED TABLE SIZE: 705 POINTS
TCL: Running for 1500000 steps
ETITLE: TS BOND ANGLE DIHED IMPRP ELECT VDW BOUNDARY MISC KINETIC TOTAL TEMP POTENTIAL TOTALAVG TEMPAVG PRESSURE GPRESSURE VOLUME PRESSAVG GPRESSAVG
ENERGY: 0 2.8027 2.9751 3.1290 0.0000 -10543.6332 1423.9711 0.0000 0.0000 1688.4008 -7422.3545 290.3270 -9110.7553 -7422.3545 290.3270 35.7168 132.4234 29598.6113 35.7168 132.4234
ENERGY: 300000 7.2500 3.9777 4.1704 0.0000 -10458.1110 1487.7637 0.0000 0.0000 1718.8335 -7236.1158 295.5600 -8954.9493 -7366.2040 296.7181 610.8741 660.5865 30667.3722 255.4680 306.4620
ENERGY: 600000 2.2134 4.5422 1.2537 0.0000 -10423.8417 1330.6792 0.0000 0.0000 1719.9423 -7365.2109 295.7507 -9085.1532 -7341.1732 299.6258 -695.3253 -667.7561 29960.7510 -94.7142 -50.2759
ENERGY: 900000 4.1021 2.2892 1.4207 0.0000 -10445.5879 1393.4266 0.0000 0.0000 1764.1653 -7280.1840 303.3550 -9044.3493 -7339.4957 300.0531 -265.2314 -218.6169 30380.4274 -147.6173 -92.5330
ENERGY: 1200000 1.2501 4.0215 1.9024 0.0000 -10518.9199 1437.0650 0.0000 0.0000 1791.1350 -7283.5460 307.9925 -9074.6810 -7342.3216 300.4664 -43.9415 -4.1182 30497.9771 -157.9825 -104.3863
ENERGY: 1500000 1.9539 4.6226 1.5026 0.0000 -10621.9676 1437.9266 0.0000 0.0000 1681.9053 -7494.0567 289.2101 -9175.9620 -7344.8045 300.0250 -149.9399 -56.8266 29769.6507 -143.1301 -87.7880
TCL: Running FEP window  17: Lambda1 0.19999999999999968 Lambda2 0.1499999999999997 [dLambda -0.04999999999999999]
TCL: Setting parameter firsttimestep to 0
TCL: Setting parameter alchLambda to 0.19999999999999968
Info: NONBONDED TABLE R-SQUARED SPACING: 0.0625
Info: NONBONDED TABLE SIZE: 705 POINTS
TCL: Setting parameter alchLambda2 to 0.1499999999999997
Info: NONBONDED TABLE R-SQUARED SPACING: 0.0625
Info: NONBONDED TABLE SIZE: 705 POINTS
TCL: Running for 1500000 steps
ETITLE: TS BOND ANGLE DIHED IMPRP ELECT VDW BOUNDARY MISC KINETIC TOTAL TEMP POTENTIAL TOTALAVG TEMPAVG PRESSURE GPRESSURE VOLUME PRESSAVG GPRESSAVG
ENERGY: 0 1.9539 4.6226 1.5026 0.0000 -10621.9679 1437.4813 0.0000 0.0000 1681.0104 -7495.3971 289.0562 -9176.4075 -7495.3971 289.0562 -146.2094 -64.8321 29769.6507 -146.2094 -64.8321
ENERGY: 300000 3.1763 1.7827 0.7230 0.0000 -10453.6018 1305.5305 0.0000 0.0000 1774.5622 -7367.8271 305.1428 -9142.3894 -7386.8059 300.2041 -1251.3107 -1207.4306 30324.9708 1.2049 50.2362
ENERGY: 600000 1.0492 5.7739 2.8303 0.0000 -10498.7384 1411.9510 0.0000 0.0000 1707.1427 -7369.9914 293.5497 -9077.1341 -7365.9236 299.4401 143.0886 238.4360 29517.1382 -20.7759 41.4839
ENERGY: 900000 4.2252 3.8760 2.9384 0.0000 -10580.4755 1479.8581 0.0000 0.0000 1719.6974 -7369.8804 295.7086 -9089.5778 -7354.0145 301.2032 105.0568 180.1334 30250.3819 -61.4648 3.8746
ENERGY: 1200000 4.8127 3.9774 1.9288 0.0000 -10381.1001 1264.4472 0.0000 0.0000 1760.2695 -7345.6645 302.6851 -9105.9341 -7358.0544 300.9607 -1590.0026 -1532.3130 30371.5825 -31.7861 31.9612
ENERGY: 1500000 5.5570 5.2937 1.6855 0.0000 -10496.2220 1410.7073 0.0000 0.0000 1775.1929 -7297.7854 305.2512 -9072.9783 -7354.4768 301.1235 -107.0941 -95.1614 29900.7868 -134.6292 -74.6792
TCL: Running FEP window  18: Lambda1 0.1499999999999997 Lambda2 0.09999999999999969 [dLambda -0.05 ]
TCL: Setting parameter firsttimestep to 0
TCL: Setting parameter alchLambda to 0.1499999999999997
Info: NONBONDED TABLE R-SQUARED SPACING: 0.0625
Info: NONBONDED TABLE SIZE: 705 POINTS
TCL: Setting parameter alchLambda2 to 0.09999999999999969
Info: NONBONDED TABLE R-SQUARED SPACING: 0.0625
Info: NONBONDED TABLE SIZE: 705 POINTS
TCL: Running for 1500000 steps
ETITLE: TS BOND ANGLE DIHED IMPRP ELECT VDW BOUNDARY MISC KINETIC TOTAL TEMP POTENTIAL TOTALAVG TEMPAVG PRESSURE GPRESSURE VOLUME PRESSAVG GPRESSAVG
ENERGY: 0 5.5570 5.2937 1.6855 0.0000 -10496.2226 1410.8746 0.0000 0.0000 1774.3501 -7298.4615 305.1063 -9072.8117 -7298.4615 305.1063 -181.1039 -98.7538 29900.7868 -181.1039 -98.7538
ENERGY: 300000 1.2779 1.1868 2.0916 0.0000 -10637.9541 1524.2635 0.0000 0.0000 1756.1314 -7353.0029 301.9735 -9109.1343 -7353.1994 300.6840 802.4259 814.2331 29916.4721 306.1375 358.3491
ENERGY: 600000 2.8906 5.0132 4.5885 0.0000 -10581.7951 1448.8882 0.0000 0.0000 1718.2957 -7402.1189 295.4675 -9120.4146 -7357.0846 299.3561 190.0841 277.6551 29582.8032 171.3681 223.1201
ENERGY: 900000 4.4280 3.5702 3.5171 0.0000 -10527.3055 1434.4100 0.0000 0.0000 1757.4725 -7323.9077 302.2041 -9081.3803 -7360.9954 298.2270 -240.8529 -136.8277 30194.1597 167.3814 227.0227
ENERGY: 1200000 1.3797 2.8643 1.5273 0.0000 -10547.4658 1422.9465 0.0000 0.0000 1758.1761 -7360.5718 302.3251 -9118.7480 -7362.3637 299.4377 -155.5872 -57.0556 29948.2379 15.8764 80.0251
ENERGY: 1500000 2.1877 9.3536 1.6404 0.0000 -10615.2364 1491.8233 0.0000 0.0000 1676.1936 -7434.0378 288.2279 -9110.2314 -7356.8451 299.6705 -37.0341 -27.5934 30701.3851 86.1289 142.9833
TCL: Running FEP window  19: Lambda1 0.09999999999999969 Lambda2 0.049999999999999684 [dLambda -0.05 ]
TCL: Setting parameter firsttimestep to 0
TCL: Setting parameter alchLambda to 0.09999999999999969
Info: NONBONDED TABLE R-SQUARED SPACING: 0.0625
Info: NONBONDED TABLE SIZE: 705 POINTS
TCL: Setting parameter alchLambda2 to 0.049999999999999684
Info: NONBONDED TABLE R-SQUARED SPACING: 0.0625
Info: NONBONDED TABLE SIZE: 705 POINTS
TCL: Running for 1500000 steps
ETITLE: TS BOND ANGLE DIHED IMPRP ELECT VDW BOUNDARY MISC KINETIC TOTAL TEMP POTENTIAL TOTALAVG TEMPAVG PRESSURE GPRESSURE VOLUME PRESSAVG GPRESSAVG
ENERGY: 0 2.1877 9.3536 1.6404 0.0000 -10615.2371 1490.9380 0.0000 0.0000 1675.2885 -7435.8288 288.0723 -9111.1173 -7435.8288 288.0723 -116.8440 -31.4244 30701.3851 -116.8440 -31.4244
ENERGY: 300000 2.2807 2.9698 1.6337 0.0000 -10617.5935 1465.7037 0.0000 0.0000 1713.7390 -7431.2665 294.6840 -9145.0055 -7378.2918 295.5628 384.7639 488.7093 29577.8586 37.3789 116.3651
ENERGY: 600000 1.1036 3.3642 2.5955 0.0000 -10569.6179 1446.2508 0.0000 0.0000 1719.0859 -7397.2179 295.6034 -9116.3038 -7375.3348 298.4282 -121.2651 -76.4689 30277.2550 107.4911 175.5929
ENERGY: 900000 2.1294 3.6823 0.7452 0.0000 -10463.6600 1392.0689 0.0000 0.0000 1780.1995 -7284.8346 306.1121 -9065.0342 -7357.7372 299.2347 -228.7193 -158.2190 30068.0609 -7.4074 60.4262
ENERGY: 1200000 2.9011 3.3143 1.5141 0.0000 -10510.3358 1425.7242 0.0000 0.0000 1726.8695 -7350.0127 296.9418 -9076.8821 -7360.8198 299.7594 43.5719 126.5192 29991.2599 -21.1803 42.1583
ENERGY: 1500000 3.3919 4.6134 3.2719 0.0000 -10599.5667 1486.0167 0.0000 0.0000 1717.6513 -7384.6216 295.3567 -9102.2728 -7357.8476 299.6338 357.1624 421.0718 30165.8317 -15.5041 46.7152
TCL: Running FEP window  20: Lambda1 0.049999999999999684 Lambda2 0.0    [dLambda -0.049999999999999684]
TCL: Setting parameter firsttimestep to 0
TCL: Setting parameter alchLambda to 0.049999999999999684
Info: NONBONDED TABLE R-SQUARED SPACING: 0.0625
Info: NONBONDED TABLE SIZE: 705 POINTS
TCL: Setting parameter alchLambda2 to 0.0
Info: NONBONDED TABLE R-SQUARED SPACING: 0.0625
Info: NONBONDED TABLE SIZE: 705 POINTS
TCL: Running for 1500000 steps
ETITLE: TS BOND ANGLE DIHED IMPRP ELECT VDW BOUNDARY MISC KINETIC TOTAL TEMP POTENTIAL TOTALAVG TEMPAVG PRESSURE GPRESSURE VOLUME PRESSAVG GPRESSAVG
ENERGY: 0 3.3919 4.6134 3.2719 0.0000 -10599.5666 1485.6936 0.0000 0.0000 1716.8071 -7385.7887 295.2116 -9102.5958 -7385.7887 295.2116 333.2949 417.2684 30165.8317 333.2949 417.2684
ENERGY: 300000 4.3757 3.8872 3.8328 0.0000 -10532.8099 1420.9247 0.0000 0.0000 1753.1706 -7346.6188 301.4644 -9099.7895 -7362.0314 301.5583 -270.4525 -181.5821 30121.1689 51.2076 113.1802
ENERGY: 600000 4.3803 3.0885 1.0855 0.0000 -10547.3072 1454.6248 0.0000 0.0000 1750.1469 -7333.9812 300.9445 -9084.1281 -7348.3315 301.9129 478.7447 432.7912 29922.1965 178.1388 216.0752
ENERGY: 900000 1.6026 4.6289 1.8814 0.0000 -10645.8779 1463.7660 0.0000 0.0000 1768.0567 -7405.9423 304.0241 -9173.9990 -7352.0536 302.1136 1.9247 57.5250 30220.8474 16.1577 69.5968
ENERGY: 1200000 5.1220 3.8453 2.0078 0.0000 -10562.4519 1402.1806 0.0000 0.0000 1807.8500 -7341.4462 310.8667 -9149.2962 -7356.5771 302.4487 -407.0124 -372.1435 29962.7958 -29.2210 29.8405
ENERGY: 1500000 5.7051 2.6908 0.7411 0.0000 -10624.7269 1436.8608 0.0000 0.0000 1708.5631 -7470.1661 293.7940 -9178.7291 -7373.1334 300.7221 -120.8150 -33.0219 29501.7515 -38.1099 25.2428
TCL: Exiting due to exit command.
