Info: SIMULATION PARAMETERS:
Info: TIMESTEP               2
Info: NUMBER OF STEPS        0
Info: STEPS PER CYCLE        10
Info: PERIODIC CELL BASIS 1  31.9437 0 0
Info: PERIODIC CELL BASIS 2  0 30.3955 0
Info: PERIODIC CELL BASIS 3  0 0 32.1158
Info: PERIODIC CELL CENTER   0 0 0
Info: WRAPPING WATERS AROUND PERIODIC BOUNDARIES ON OUTPUT.
Info: WRAPPING ALL CLUSTERS AROUND PERIODIC BOUNDARIES ON OUTPUT.
Info: FIRST LDB TIMESTEP     50
Info: LAST LDB TIMESTEP     -1
Info: HOM BACKGROUND SCALING 1
Info: PME BACKGROUND SCALING 1
Info: MIN ATOMS PER PATCH    40
Info: EMPTY PATCH LOAD       40 ATOMS
Info: VELOCITY FILE          mobley_4584540_equil.vel
Info: CENTER OF MASS MOVING INITIALLY? NO
Info: DIELECTRIC             1
Info: EXCLUDE                SCALED ONE-FOUR
Info: 1-4 ELECTROSTATICS SCALED BY 0.833333
Info: MODIFIED 1-4 VDW PARAMETERS WILL BE USED
Info: DCD FILENAME           mobley_4584540_prod.dcd
Info: DCD FREQUENCY          100000
Info: DCD FIRST STEP         100000
Info: DCD FILE WILL CONTAIN UNIT CELL DATA
Info: XST FILENAME           mobley_4584540_prod.xst
Info: XST FREQUENCY          100000
Info: NO VELOCITY DCD OUTPUT
Info: NO FORCE DCD OUTPUT
Info: OUTPUT FILENAME        mobley_4584540_prod
Info: BINARY OUTPUT FILES WILL BE USED
Info: RESTART FILENAME       mobley_4584540_prod.restart
Info: RESTART FREQUENCY      100000
Info: BINARY RESTART FILES WILL BE USED
Info: CUTOFF                 9
Info: PAIRLIST DISTANCE      11
Info: PAIRLIST SHRINK RATE   0.01
Info: PAIRLIST GROW RATE     0.01
Info: PAIRLIST TRIGGER       0.3
Info: PAIRLISTS PER CYCLE    2
Info: PAIRLISTS ENABLED
Info: MARGIN                 2
Info: HYDROGEN GROUP CUTOFF  2.5
Info: PATCH DIMENSION        15.5
Info: ENERGY OUTPUT STEPS    100000
Info: ENERGY EVALUATION STEPS    100000
Info: OUTPUT ENERGY PRECISION 4
Info: CROSSTERM ENERGY INCLUDED IN DIHEDRAL
Info: TIMING OUTPUT STEPS    1000000
Info: PRESSURE OUTPUT STEPS  100000
Info: ALCHEMICAL FEP ON
Info: FEP CURRENT LAMBDA VALUE     1
Info: FEP COMPARISON LAMBDA VALUE  0.95
Info: FEP INTRA-ALCHEMICAL NON-BONDED INTERACTIONS WILL BE RETAINED
Info: FEP INTRA-ALCHEMICAL BONDED INTERACTIONS WILL BE RETAINED
Info: FEP VDW SHIFTING COEFFICIENT 5
Info: FEP ELEC. ACTIVE FOR ANNIHILATED PARTICLES BETWEEN LAMBDA = 0 AND LAMBDA = 0.5
Info: FEP ELEC. ACTIVE FOR EXNIHILATED PARTICLES BETWEEN LAMBDA = 0.5 AND LAMBDA = 1
Info: FEP VDW ACTIVE FOR ANNIHILATED PARTICLES BETWEEN LAMBDA = 0 AND LAMBDA = 1
Info: FEP VDW ACTIVE FOR EXNIHILATED PARTICLES BETWEEN LAMBDA = 0 AND LAMBDA = 1
Info: FEP BOND ACTIVE FOR ANNIHILATED PARTICLES BETWEEN LAMBDA = 1 AND LAMBDA = 1
Info: FEP BOND ACTIVE FOR EXNIHILATED PARTICLES BETWEEN LAMBDA = 0 AND LAMBDA = 0
Info: LANGEVIN DYNAMICS ACTIVE
Info: LANGEVIN TEMPERATURE   300
Info: LANGEVIN USING BBK INTEGRATOR
Info: LANGEVIN DAMPING COEFFICIENT IS 1 INVERSE PS
Info: LANGEVIN DYNAMICS APPLIED TO HYDROGENS
Info: LANGEVIN PISTON PRESSURE CONTROL ACTIVE
Info:        TARGET PRESSURE IS 1.01325 BAR
Info:     OSCILLATION PERIOD IS 50 FS
Info:             DECAY TIME IS 25 FS
Info:     PISTON TEMPERATURE IS 300 K
Info:       PRESSURE CONTROL IS GROUP-BASED
Info:    INITIAL STRAIN RATE IS 0.000205299 0.000205299 0.000205299
Info:       CELL FLUCTUATION IS ISOTROPIC
Info: PARTICLE MESH EWALD (PME) ACTIVE
Info: PME TOLERANCE               1e-06
Info: PME EWALD COEFFICIENT       0.348832
Info: PME INTERPOLATION ORDER     4
Info: PME GRID DIMENSIONS         32 32 36
Info: PME MAXIMUM GRID SPACING    1
Info: PME CALCULATION WILL BE PERFORMED ON GPU
Info: FULL ELECTROSTATIC EVALUATION FREQUENCY      2
Info: USING VERLET I (r-RESPA) MTS SCHEME.
Info: C1 SPLITTING OF LONG RANGE ELECTROSTATICS
Info: PLACING ATOMS IN PATCHES BY HYDROGEN GROUPS
Info: RIGID BONDS TO HYDROGEN : ALL
Info:         ERROR TOLERANCE : 1e-08
Info:          MAX ITERATIONS : 100
Info: RIGID WATER USING SETTLE ALGORITHM
Info: RANDOM NUMBER SEED     1743605938
Info: USE HYDROGEN BONDS?    NO
Info: Using AMBER format force field!
Info: AMBER PARM FILE        mobley_4584540.prmtop
Info: COORDINATE PDB         mobley_4584540.pdb
Info: Exclusions will be read from PARM file!
Info: SCNB (VDW SCALING)     2
Info: USING ARITHMETIC MEAN TO COMBINE L-J SIGMA PARAMETERS
Info: BINARY COORDINATES     mobley_4584540_equil.coor
Info: SUMMARY OF PARAMETERS:
Info: 7 BONDS
Info: 8 ANGLES
Info:   8 HARMONIC
Info:   0 COSINE-BASED
Info: 4 DIHEDRAL
Info: 0 IMPROPER
Info: 0 CROSSTERM
Info: 0 VDW
Info: 28 VDW_PAIRS
Info: 0 NBTHOLE_PAIRS
Info: To read alchdata from file: mobley_4584540.pdb
Info: To read alchflag data from column: 5
Info: STRUCTURE SUMMARY:
Info: 2981 ATOMS
Info: 2981 BONDS
Info: 28 ANGLES
Info: 37 DIHEDRALS
Info: 0 IMPROPERS
Info: 0 CROSSTERMS
Info: 3038 EXCLUSIONS
Info: 2973 RIGID BONDS
Info: ALCH: 0 ATOMS TO DISAPPEAR IN FINAL STATE
Info: ALCH: 17 ATOMS TO APPEAR IN FINAL STATE
Info: 5970 DEGREES OF FREEDOM
Info: 996 HYDROGEN GROUPS
Info: 4 ATOMS IN LARGEST HYDROGEN GROUP
Info: 996 MIGRATION GROUPS
Info: 4 ATOMS IN LARGEST MIGRATION GROUP
Info: TOTAL MASS = 17907 amu
Info: TOTAL CHARGE = -0.000499979 e
Info: MASS DENSITY = 0.953602 g/cm^3
Info: ATOM DENSITY = 0.0955978 atoms/A^3
Info: ADDED 0 IMPLICIT EXCLUSIONS
Info: NONBONDED TABLE R-SQUARED SPACING: 0.0625
Info: NONBONDED TABLE SIZE: 705 POINTS
Info: REMOVING COM VELOCITY -0.252571 -0.119254 -0.0751712
Info: Use 3D box decompostion in PME FFT.
Info: Updated CUDA force table with 4096 elements.
Info: Updated CUDA LJ table with 7 x 7 elements.
Info: Found 18 unique exclusion lists needing 40 bytes
TCL: Running for 1500000 steps
ETITLE: TS BOND ANGLE DIHED IMPRP ELECT VDW BOUNDARY MISC KINETIC TOTAL TEMP POTENTIAL TOTALAVG TEMPAVG PRESSURE GPRESSURE VOLUME PRESSAVG GPRESSAVG
ENERGY: 0 2.5015 5.6977 1.2616 0.0000 -10766.0729 1413.6221 0.0000 0.0000 1747.4941 -7595.4960 294.5993 -9342.9900 -7595.4960 294.5993 -370.4496 -285.7651 31182.7250 -370.4496 -285.7651
ENERGY: 300000 5.4528 5.3956 5.1820 0.0000 -10904.6396 1406.4126 0.0000 0.0000 1714.7997 -7767.3969 289.0876 -9482.1966 -7593.8271 295.5355 -785.9645 -776.3967 31006.9748 -219.4827 -156.2214
ENERGY: 600000 5.0085 6.1548 1.5449 0.0000 -10685.0640 1353.6407 0.0000 0.0000 1760.0386 -7558.6765 296.7141 -9318.7151 -7598.9437 296.1387 -872.1026 -850.3560 31158.3772 -247.0430 -191.5718
ENERGY: 900000 2.7391 8.1445 2.7563 0.0000 -10860.4739 1427.9401 0.0000 0.0000 1783.3919 -7635.5020 300.6511 -9418.8939 -7594.0040 297.8595 -344.0365 -313.7688 31104.0248 -280.9481 -218.4856
ENERGY: 1200000 2.0856 6.0417 2.6565 0.0000 -10835.8048 1486.3330 0.0000 0.0000 1830.9055 -7507.7826 308.6612 -9338.6881 -7569.7475 299.8165 196.8018 259.4821 30967.5208 -135.2051 -71.6787
ENERGY: 1500000 0.9363 3.6132 4.2760 0.0000 -10729.8519 1429.4194 0.0000 0.0000 1766.1870 -7525.4200 297.7507 -9291.6070 -7580.7080 298.9233 134.8927 181.8197 30737.9441 -110.4262 -48.1737
TCL: Running FEP window   2: Lambda1 0.95   Lambda2 0.8999999999999999 [dLambda -0.050000000000000044]
TCL: Setting parameter firsttimestep to 0
TCL: Setting parameter alchLambda to 0.95
Info: NONBONDED TABLE R-SQUARED SPACING: 0.0625
Info: NONBONDED TABLE SIZE: 705 POINTS
TCL: Setting parameter alchLambda2 to 0.8999999999999999
Info: NONBONDED TABLE R-SQUARED SPACING: 0.0625
Info: NONBONDED TABLE SIZE: 705 POINTS
TCL: Running for 1500000 steps
ETITLE: TS BOND ANGLE DIHED IMPRP ELECT VDW BOUNDARY MISC KINETIC TOTAL TEMP POTENTIAL TOTALAVG TEMPAVG PRESSURE GPRESSURE VOLUME PRESSAVG GPRESSAVG
ENERGY: 0 0.9363 3.6132 4.2760 0.0000 -10728.8940 1428.4002 0.0000 0.0000 1765.2814 -7526.3869 297.5980 -9291.6683 -7526.3869 297.5980 83.7563 157.4872 30737.9441 83.7563 157.4872
ENERGY: 300000 0.9542 5.2145 5.0212 0.0000 -10825.1606 1410.6691 0.0000 0.0000 1801.1784 -7602.1233 303.6497 -9403.3017 -7573.5518 301.9809 -153.6951 -111.9869 30350.3327 -209.0667 -141.8292
ENERGY: 600000 1.4697 6.4655 2.9523 0.0000 -10699.0379 1355.4586 0.0000 0.0000 1782.1054 -7550.5864 300.4342 -9332.6918 -7567.1365 302.3795 -543.8280 -489.9767 30806.1764 -252.8828 -173.9505
ENERGY: 900000 5.6283 5.6252 1.8427 0.0000 -10756.3330 1392.4509 0.0000 0.0000 1758.3334 -7592.4525 296.4267 -9350.7859 -7574.5514 301.9209 -851.1476 -768.3687 31375.9061 -240.5997 -167.4269
ENERGY: 1200000 4.7095 8.0184 3.3446 0.0000 -10899.0356 1496.6561 0.0000 0.0000 1746.3876 -7639.9194 294.4128 -9386.3070 -7584.5886 301.4262 71.6485 134.0571 30750.3095 -320.6335 -252.7516
ENERGY: 1500000 1.0816 5.3221 2.2935 0.0000 -11002.7723 1528.8035 0.0000 0.0000 1761.5003 -7703.7714 296.9606 -9465.2717 -7597.6139 301.0466 287.7592 345.4439 30851.2584 -191.1926 -127.2240
TCL: Running FEP window   3: Lambda1 0.8999999999999999 Lambda2 0.8499999999999999 [dLambda -0.050000000000000044]
TCL: Setting parameter firsttimestep to 0
TCL: Setting parameter alchLambda to 0.8999999999999999
Info: NONBONDED TABLE R-SQUARED SPACING: 0.0625
Info: NONBONDED TABLE SIZE: 705 POINTS
TCL: Setting parameter alchLambda2 to 0.8499999999999999
Info: NONBONDED TABLE R-SQUARED SPACING: 0.0625
Info: NONBONDED TABLE SIZE: 705 POINTS
TCL: Running for 1500000 steps
ETITLE: TS BOND ANGLE DIHED IMPRP ELECT VDW BOUNDARY MISC KINETIC TOTAL TEMP POTENTIAL TOTALAVG TEMPAVG PRESSURE GPRESSURE VOLUME PRESSAVG GPRESSAVG
ENERGY: 0 1.0816 5.3221 2.2935 0.0000 -11001.4486 1527.3964 0.0000 0.0000 1760.6615 -7704.6935 296.8192 -9465.3550 -7704.6935 296.8192 234.5348 316.6185 30851.2584 234.5348 316.6185
ENERGY: 300000 1.3352 5.8643 1.4251 0.0000 -10823.8840 1486.7719 0.0000 0.0000 1778.7686 -7549.7189 299.8717 -9328.4875 -7600.2503 301.4666 538.8796 586.9020 30669.7110 229.3933 297.0493
ENERGY: 600000 1.8328 4.7332 2.2173 0.0000 -10902.4050 1519.0269 0.0000 0.0000 1764.2173 -7610.3774 297.4186 -9374.5947 -7594.5615 301.4960 493.6178 605.0791 30467.2483 293.7653 374.8028
ENERGY: 900000 3.6365 5.6977 0.5336 0.0000 -10794.3220 1420.6213 0.0000 0.0000 1741.0287 -7622.8043 293.5094 -9363.8330 -7612.0165 298.3525 -60.2108 -21.2407 30467.4987 305.9042 381.7687
ENERGY: 1200000 1.5261 4.5635 1.6263 0.0000 -10926.4187 1521.2242 0.0000 0.0000 1767.4511 -7630.0274 297.9638 -9397.4785 -7613.5138 297.8027 371.2989 499.2752 30847.2442 219.0808 296.1689
ENERGY: 1500000 0.8433 6.0205 1.0570 0.0000 -10863.0909 1507.3299 0.0000 0.0000 1718.0100 -7629.8303 289.6288 -9347.8403 -7610.6569 296.7033 395.5823 455.7677 30619.7201 196.8275 271.5366
TCL: Running FEP window   4: Lambda1 0.8499999999999999 Lambda2 0.7999999999999998 [dLambda -0.050000000000000044]
TCL: Setting parameter firsttimestep to 0
TCL: Setting parameter alchLambda to 0.8499999999999999
Info: NONBONDED TABLE R-SQUARED SPACING: 0.0625
Info: NONBONDED TABLE SIZE: 705 POINTS
TCL: Setting parameter alchLambda2 to 0.7999999999999998
Info: NONBONDED TABLE R-SQUARED SPACING: 0.0625
Info: NONBONDED TABLE SIZE: 705 POINTS
TCL: Running for 1500000 steps
ETITLE: TS BOND ANGLE DIHED IMPRP ELECT VDW BOUNDARY MISC KINETIC TOTAL TEMP POTENTIAL TOTALAVG TEMPAVG PRESSURE GPRESSURE VOLUME PRESSAVG GPRESSAVG
ENERGY: 0 0.8433 6.0205 1.0570 0.0000 -10862.3962 1507.7042 0.0000 0.0000 1717.0992 -7629.6720 289.4753 -9346.7713 -7629.6720 289.4753 360.4968 449.4376 30619.7201 360.4968 449.4376
ENERGY: 300000 1.3606 10.4279 2.0092 0.0000 -10772.4369 1369.9471 0.0000 0.0000 1748.0826 -7640.6095 294.6986 -9388.6921 -7603.9239 296.9606 -872.0968 -792.3603 31146.8259 -287.4178 -224.0410
ENERGY: 600000 1.9313 4.9846 1.9066 0.0000 -10882.6246 1459.4732 0.0000 0.0000 1740.2203 -7674.1087 293.3731 -9414.3290 -7614.5956 298.1661 -301.1716 -208.2173 30807.8118 -171.6781 -106.8269
ENERGY: 900000 2.1075 5.3919 0.4732 0.0000 -10911.4501 1425.9822 0.0000 0.0000 1718.9123 -7758.5830 289.7809 -9477.4953 -7625.6100 298.5037 -500.0797 -440.9104 30537.5916 -263.3038 -195.3243
ENERGY: 1200000 4.3495 2.3576 0.7853 0.0000 -10744.6337 1441.9990 0.0000 0.0000 1835.7060 -7459.4362 309.4704 -9295.1422 -7602.0613 300.4583 244.9360 282.4693 30632.2469 -155.1909 -90.9338
ENERGY: 1500000 2.0706 3.7707 2.7361 0.0000 -11067.9776 1582.9617 0.0000 0.0000 1658.9808 -7817.4578 279.6774 -9476.4386 -7602.4997 299.6244 775.6229 839.9005 30494.7848 -40.4588 34.1787
TCL: Running FEP window   5: Lambda1 0.7999999999999998 Lambda2 0.7499999999999998 [dLambda -0.050000000000000044]
TCL: Setting parameter firsttimestep to 0
TCL: Setting parameter alchLambda to 0.7999999999999998
Info: NONBONDED TABLE R-SQUARED SPACING: 0.0625
Info: NONBONDED TABLE SIZE: 705 POINTS
TCL: Setting parameter alchLambda2 to 0.7499999999999998
Info: NONBONDED TABLE R-SQUARED SPACING: 0.0625
Info: NONBONDED TABLE SIZE: 705 POINTS
TCL: Running for 1500000 steps
ETITLE: TS BOND ANGLE DIHED IMPRP ELECT VDW BOUNDARY MISC KINETIC TOTAL TEMP POTENTIAL TOTALAVG TEMPAVG PRESSURE GPRESSURE VOLUME PRESSAVG GPRESSAVG
ENERGY: 0 2.0706 3.7707 2.7361 0.0000 -11067.1438 1583.4019 0.0000 0.0000 1658.0872 -7817.0774 279.5268 -9475.1646 -7817.0774 279.5268 761.8949 839.0942 30494.7848 761.8949 839.0942
ENERGY: 300000 3.0796 5.4637 2.5539 0.0000 -10871.5620 1468.0657 0.0000 0.0000 1786.7523 -7605.6468 301.2176 -9392.3991 -7617.5404 297.3747 279.2751 381.6183 30339.4444 20.2977 113.4099
ENERGY: 600000 2.9963 6.5956 1.4115 0.0000 -10739.9245 1352.1390 0.0000 0.0000 1841.1259 -7535.6562 310.3841 -9376.7821 -7617.1778 299.3681 -727.2848 -690.8016 30714.4070 -304.6213 -230.9236
ENERGY: 900000 2.5693 6.5922 1.4630 0.0000 -10682.6371 1371.2411 0.0000 0.0000 1774.8854 -7525.8860 299.2171 -9300.7715 -7601.7907 300.9544 -464.0744 -406.2677 30983.1968 -241.2711 -173.2921
ENERGY: 1200000 1.3734 3.9714 2.1397 0.0000 -10870.3243 1434.1768 0.0000 0.0000 1773.9010 -7654.7618 299.0511 -9428.6629 -7609.2094 300.6890 -81.6897 -86.1339 30185.0756 -158.6409 -92.2867
ENERGY: 1500000 1.7824 4.3516 2.7593 0.0000 -10846.5582 1456.6499 0.0000 0.0000 1768.4884 -7612.5266 298.1386 -9381.0149 -7604.7379 300.2354 -315.1589 -274.5440 31032.6444 -129.1726 -68.3386
TCL: Running FEP window   6: Lambda1 0.7499999999999998 Lambda2 0.6999999999999997 [dLambda -0.050000000000000044]
TCL: Setting parameter firsttimestep to 0
TCL: Setting parameter alchLambda to 0.7499999999999998
Info: NONBONDED TABLE R-SQUARED SPACING: 0.0625
Info: NONBONDED TABLE SIZE: 705 POINTS
TCL: Setting parameter alchLambda2 to 0.6999999999999997
Info: NONBONDED TABLE R-SQUARED SPACING: 0.0625
Info: NONBONDED TABLE SIZE: 705 POINTS
TCL: Running for 1500000 steps
ETITLE: TS BOND ANGLE DIHED IMPRP ELECT VDW BOUNDARY MISC KINETIC TOTAL TEMP POTENTIAL TOTALAVG TEMPAVG PRESSURE GPRESSURE VOLUME PRESSAVG GPRESSAVG
ENERGY: 0 1.7824 4.3516 2.7593 0.0000 -10844.7004 1456.7997 0.0000 0.0000 1767.5834 -7611.4239 297.9861 -9379.0074 -7611.4239 297.9861 -366.1842 -278.7923 31032.6444 -366.1842 -278.7923
ENERGY: 300000 2.3485 5.9372 2.9017 0.0000 -10678.1279 1387.8827 0.0000 0.0000 1828.1708 -7450.8870 308.2001 -9279.0578 -7600.1548 302.5581 -463.8067 -396.2047 31221.9510 -6.9549 53.9889
ENERGY: 600000 0.7017 10.2843 2.1184 0.0000 -10901.4479 1467.2432 0.0000 0.0000 1764.9697 -7656.1305 297.5455 -9421.1003 -7605.8460 301.4483 -82.1032 -10.8391 30849.6830 90.8495 155.7341
ENERGY: 900000 1.8500 5.2547 1.0126 0.0000 -10825.4908 1490.3487 0.0000 0.0000 1813.2991 -7513.7257 305.6930 -9327.0248 -7592.3983 301.9820 193.6886 253.4772 30835.2973 161.3717 223.3742
ENERGY: 1200000 2.6408 6.3403 0.9826 0.0000 -10911.6687 1479.1932 0.0000 0.0000 1845.8907 -7576.6211 311.1874 -9422.5118 -7583.5337 303.1240 55.4267 102.1647 30827.0024 123.5005 180.1370
ENERGY: 1500000 1.1131 11.1618 3.5131 0.0000 -10925.7121 1536.5532 0.0000 0.0000 1776.4960 -7596.8750 299.4886 -9373.3710 -7579.2608 303.2813 542.0643 626.8103 30903.3005 116.3771 171.5532
TCL: Running FEP window   7: Lambda1 0.6999999999999997 Lambda2 0.6499999999999997 [dLambda -0.050000000000000044]
TCL: Setting parameter firsttimestep to 0
TCL: Setting parameter alchLambda to 0.6999999999999997
Info: NONBONDED TABLE R-SQUARED SPACING: 0.0625
Info: NONBONDED TABLE SIZE: 705 POINTS
TCL: Setting parameter alchLambda2 to 0.6499999999999997
Info: NONBONDED TABLE R-SQUARED SPACING: 0.0625
Info: NONBONDED TABLE SIZE: 705 POINTS
TCL: Running for 1500000 steps
ETITLE: TS BOND ANGLE DIHED IMPRP ELECT VDW BOUNDARY MISC KINETIC TOTAL TEMP POTENTIAL TOTALAVG TEMPAVG PRESSURE GPRESSURE VOLUME PRESSAVG GPRESSAVG
ENERGY: 0 1.1131 11.1618 3.5131 0.0000 -10924.3611 1535.2691 0.0000 0.0000 1775.6371 -7597.6669 299.3438 -9373.3041 -7597.6669 299.3438 543.8998 608.5876 30903.3005 543.8998 608.5876
ENERGY: 300000 1.9491 4.1133 1.5664 0.0000 -10732.2475 1345.0288 0.0000 0.0000 1804.6474 -7574.9425 304.2345 -9379.5899 -7608.1572 301.3824 -758.3916 -648.2182 30496.5294 -118.8024 -28.3342
ENERGY: 600000 4.1105 10.0049 1.6099 0.0000 -10862.5479 1416.2555 0.0000 0.0000 1790.7962 -7639.7708 301.8994 -9430.5671 -7611.6993 302.5526 -202.5081 -136.4010 30169.5349 -162.8625 -86.3460
ENERGY: 900000 0.8009 3.8326 1.6097 0.0000 -10857.7483 1433.8693 0.0000 0.0000 1749.8919 -7667.7439 295.0036 -9417.6358 -7612.1024 302.4612 -112.5820 -93.5828 30538.6575 -218.4175 -149.1467
ENERGY: 1200000 4.4360 7.0882 2.5330 0.0000 -10917.3024 1533.4348 0.0000 0.0000 1826.7479 -7543.0624 307.9603 -9369.8104 -7606.6841 301.6805 523.0391 557.4133 30775.9764 -222.4948 -156.2905
ENERGY: 1500000 0.4924 4.3991 2.7746 0.0000 -10927.0553 1476.4231 0.0000 0.0000 1727.0458 -7715.9204 291.1521 -9442.9662 -7608.3212 300.5725 100.0632 199.2238 30442.1474 -125.9856 -57.4641
TCL: Running FEP window   8: Lambda1 0.6499999999999997 Lambda2 0.5999999999999996 [dLambda -0.050000000000000044]
TCL: Setting parameter firsttimestep to 0
TCL: Setting parameter alchLambda to 0.6499999999999997
Info: NONBONDED TABLE R-SQUARED SPACING: 0.0625
Info: NONBONDED TABLE SIZE: 705 POINTS
TCL: Setting parameter alchLambda2 to 0.5999999999999996
Info: NONBONDED TABLE R-SQUARED SPACING: 0.0625
Info: NONBONDED TABLE SIZE: 705 POINTS
TCL: Running for 1500000 steps
ETITLE: TS BOND ANGLE DIHED IMPRP ELECT VDW BOUNDARY MISC KINETIC TOTAL TEMP POTENTIAL TOTALAVG TEMPAVG PRESSURE GPRESSURE VOLUME PRESSAVG GPRESSAVG
ENERGY: 0 0.4924 4.3991 2.7746 0.0000 -10926.1672 1476.1620 0.0000 0.0000 1726.1544 -7716.1849 291.0018 -9442.3392 -7716.1849 291.0018 104.0050 189.7499 30442.1474 104.0050 189.7499
ENERGY: 300000 2.9745 6.2252 6.0482 0.0000 -10721.7300 1334.3958 0.0000 0.0000 1775.8269 -7596.2594 299.3758 -9372.0864 -7617.2955 299.4597 -1175.6089 -1110.1069 31263.5307 -238.0763 -180.4758
ENERGY: 600000 1.8422 4.8465 1.2492 0.0000 -10815.1074 1509.0993 0.0000 0.0000 1761.0468 -7537.0234 296.8841 -9298.0702 -7585.2583 300.7119 358.0515 400.5094 31278.6272 -34.0747 11.1240
ENERGY: 900000 5.4751 5.5739 2.2577 0.0000 -10886.6889 1530.9444 0.0000 0.0000 1747.1533 -7595.2845 294.5419 -9342.4378 -7590.1615 299.3085 462.5308 539.8693 30907.6331 -26.6868 25.8875
ENERGY: 1200000 3.2340 6.1861 1.3479 0.0000 -10814.4686 1464.3105 0.0000 0.0000 1812.6627 -7526.7274 305.5857 -9339.3901 -7584.6103 299.9262 200.7065 300.7884 30437.8072 -75.7400 -13.0122
ENERGY: 1500000 1.9956 2.9565 1.6478 0.0000 -10931.4585 1517.3495 0.0000 0.0000 1784.6460 -7622.8630 300.8625 -9407.5090 -7594.8379 299.5462 523.9729 548.6694 30473.3890 37.6502 92.2759
TCL: Running FEP window   9: Lambda1 0.5999999999999996 Lambda2 0.5499999999999996 [dLambda -0.050000000000000044]
TCL: Setting parameter firsttimestep to 0
TCL: Setting parameter alchLambda to 0.5999999999999996
Info: NONBONDED TABLE R-SQUARED SPACING: 0.0625
Info: NONBONDED TABLE SIZE: 705 POINTS
TCL: Setting parameter alchLambda2 to 0.5499999999999996
Info: NONBONDED TABLE R-SQUARED SPACING: 0.0625
Info: NONBONDED TABLE SIZE: 705 POINTS
TCL: Running for 1500000 steps
ETITLE: TS BOND ANGLE DIHED IMPRP ELECT VDW BOUNDARY MISC KINETIC TOTAL TEMP POTENTIAL TOTALAVG TEMPAVG PRESSURE GPRESSURE VOLUME PRESSAVG GPRESSAVG
ENERGY: 0 1.9956 2.9565 1.6478 0.0000 -10931.4861 1517.5691 0.0000 0.0000 1783.7639 -7623.5531 300.7138 -9407.3170 -7623.5531 300.7138 455.7599 539.8558 30473.3890 455.7599 539.8558
ENERGY: 300000 2.5761 3.6478 1.7011 0.0000 -10841.1222 1494.4926 0.0000 0.0000 1825.4211 -7513.2835 307.7366 -9338.7046 -7587.0344 302.2180 233.8923 262.2976 30936.3294 57.6272 114.5475
ENERGY: 600000 1.3126 3.3646 1.5746 0.0000 -10798.8406 1420.8886 0.0000 0.0000 1790.0603 -7581.6399 301.7753 -9371.7002 -7594.6652 302.3801 -79.6880 -37.0200 30461.8323 126.3428 189.1925
ENERGY: 900000 1.3049 6.5154 3.6676 0.0000 -10848.0128 1425.2784 0.0000 0.0000 1762.8614 -7648.3852 297.1900 -9411.2467 -7601.3536 300.1711 -428.9089 -349.7207 30715.4926 40.6653 108.0827
ENERGY: 1200000 5.7393 4.2041 2.1046 0.0000 -10862.5896 1445.7438 0.0000 0.0000 1764.3249 -7640.4730 297.4367 -9404.7979 -7604.7315 299.9473 -221.6429 -154.1784 30378.0571 78.2355 143.9208
ENERGY: 1500000 1.6578 6.1070 1.2412 0.0000 -10903.7231 1458.0070 0.0000 0.0000 1814.0228 -7622.6873 305.8150 -9436.7101 -7601.5550 300.2421 -25.0674 31.0423 30522.7347 28.7127 89.0151
TCL: Running FEP window  10: Lambda1 0.5499999999999996 Lambda2 0.4999999999999996 [dLambda -0.04999999999999999]
TCL: Setting parameter firsttimestep to 0
TCL: Setting parameter alchLambda to 0.5499999999999996
Info: NONBONDED TABLE R-SQUARED SPACING: 0.0625
Info: NONBONDED TABLE SIZE: 705 POINTS
TCL: Setting parameter alchLambda2 to 0.4999999999999996
Info: NONBONDED TABLE R-SQUARED SPACING: 0.0625
Info: NONBONDED TABLE SIZE: 705 POINTS
TCL: Running for 1500000 steps
ETITLE: TS BOND ANGLE DIHED IMPRP ELECT VDW BOUNDARY MISC KINETIC TOTAL TEMP POTENTIAL TOTALAVG TEMPAVG PRESSURE GPRESSURE VOLUME PRESSAVG GPRESSAVG
ENERGY: 0 1.6578 6.1070 1.2412 0.0000 -10903.7677 1457.0352 0.0000 0.0000 1813.1341 -7624.5924 305.6652 -9437.7265 -7624.5924 305.6652 -65.7165 12.4312 30522.7347 -65.7165 12.4312
ENERGY: 300000 6.4470 7.2055 2.6534 0.0000 -10860.4809 1427.3949 0.0000 0.0000 1805.2507 -7611.5294 304.3362 -9416.7801 -7600.5277 304.2360 -500.1663 -345.4396 30391.5548 -146.9757 -74.3031
ENERGY: 600000 0.8860 4.8236 2.7416 0.0000 -10841.0980 1492.5758 0.0000 0.0000 1806.7870 -7533.2840 304.5952 -9340.0710 -7571.9164 303.1244 686.2472 680.4646 30419.4068 -93.1621 -27.0003
ENERGY: 900000 2.4562 3.6262 1.7079 0.0000 -10771.8306 1367.6915 0.0000 0.0000 1719.9430 -7676.4059 289.9547 -9396.3489 -7589.7994 301.2922 -676.7906 -636.1983 30603.1604 -167.5495 -112.3166
ENERGY: 1200000 2.2381 5.7112 2.3357 0.0000 -10692.2167 1420.5372 0.0000 0.0000 1780.7345 -7480.6600 300.2031 -9261.3945 -7585.5326 301.1671 -13.3481 73.4940 30623.1887 -169.0192 -102.3897
ENERGY: 1500000 1.9124 5.0899 3.6177 0.0000 -10940.3832 1475.8677 0.0000 0.0000 1782.3853 -7671.5102 300.4814 -9453.8955 -7587.1011 300.9150 -152.6040 -57.3275 30753.4337 -173.3239 -104.6350
TCL: Running FEP window  11: Lambda1 0.4999999999999996 Lambda2 0.4499999999999996 [dLambda -0.04999999999999999]
TCL: Setting parameter firsttimestep to 0
TCL: Setting parameter alchLambda to 0.4999999999999996
Info: NONBONDED TABLE R-SQUARED SPACING: 0.0625
Info: NONBONDED TABLE SIZE: 705 POINTS
TCL: Setting parameter alchLambda2 to 0.4499999999999996
Info: NONBONDED TABLE R-SQUARED SPACING: 0.0625
Info: NONBONDED TABLE SIZE: 705 POINTS
TCL: Running for 1500000 steps
ETITLE: TS BOND ANGLE DIHED IMPRP ELECT VDW BOUNDARY MISC KINETIC TOTAL TEMP POTENTIAL TOTALAVG TEMPAVG PRESSURE GPRESSURE VOLUME PRESSAVG GPRESSAVG
ENERGY: 0 1.9124 5.0899 3.6177 0.0000 -10940.5445 1476.2589 0.0000 0.0000 1781.5025 -7672.1632 300.3326 -9453.6657 -7672.1632 300.3326 -156.4290 -64.0214 30753.4337 -156.4290 -64.0214
ENERGY: 300000 4.5204 4.5584 2.0082 0.0000 -10918.8498 1518.7991 0.0000 0.0000 1741.9197 -7647.0441 293.6596 -9388.9638 -7629.2712 297.2514 441.7587 509.5317 30546.8699 -57.0555 28.6650
ENERGY: 600000 2.2691 3.5307 2.9829 0.0000 -10872.1528 1389.3880 0.0000 0.0000 1732.4636 -7741.5184 292.0654 -9473.9820 -7642.6931 297.2205 -939.6193 -886.2852 30558.7266 -113.9346 -49.5099
ENERGY: 900000 0.6666 6.5893 1.7128 0.0000 -10744.9437 1452.5309 0.0000 0.0000 1761.7545 -7521.6897 297.0034 -9283.4442 -7610.2651 298.3783 122.4350 222.0408 30599.1651 -127.4183 -62.7077
ENERGY: 1200000 4.0402 6.7012 1.0942 0.0000 -10865.6460 1431.9504 0.0000 0.0000 1821.4658 -7600.3943 307.0698 -9421.8600 -7594.1161 300.5443 -445.8876 -441.9099 30983.2746 -134.5592 -68.1637
ENERGY: 1500000 1.2247 5.8892 4.0987 0.0000 -10819.9976 1481.7590 0.0000 0.0000 1801.2022 -7525.8237 303.6537 -9327.0259 -7580.1843 300.5862 382.5807 379.1324 30969.0732 -38.2767 23.4452
TCL: Running FEP window  12: Lambda1 0.4499999999999996 Lambda2 0.39999999999999963 [dLambda -0.04999999999999999]
TCL: Setting parameter firsttimestep to 0
TCL: Setting parameter alchLambda to 0.4499999999999996
Info: NONBONDED TABLE R-SQUARED SPACING: 0.0625
Info: NONBONDED TABLE SIZE: 705 POINTS
TCL: Setting parameter alchLambda2 to 0.39999999999999963
Info: NONBONDED TABLE R-SQUARED SPACING: 0.0625
Info: NONBONDED TABLE SIZE: 705 POINTS
TCL: Running for 1500000 steps
ETITLE: TS BOND ANGLE DIHED IMPRP ELECT VDW BOUNDARY MISC KINETIC TOTAL TEMP POTENTIAL TOTALAVG TEMPAVG PRESSURE GPRESSURE VOLUME PRESSAVG GPRESSAVG
ENERGY: 0 1.2247 5.8892 4.0987 0.0000 -10819.9990 1481.9701 0.0000 0.0000 1800.3129 -7526.5033 303.5037 -9326.8162 -7526.5033 303.5037 296.3359 373.4080 30969.0732 296.3359 373.4080
ENERGY: 300000 2.5881 4.8991 2.2885 0.0000 -10662.0115 1341.4558 0.0000 0.0000 1833.0596 -7477.7204 309.0243 -9310.7800 -7528.4791 304.5732 -807.9693 -707.5902 30735.4956 -113.2474 -33.0888
ENERGY: 600000 2.9438 4.4619 2.0382 0.0000 -10832.5103 1494.1805 0.0000 0.0000 1764.7223 -7564.1636 297.5037 -9328.8859 -7544.5427 301.7624 299.2190 327.1761 30778.7713 -126.2406 -49.5398
ENERGY: 900000 2.1236 6.9680 1.4934 0.0000 -10889.5146 1472.9280 0.0000 0.0000 1778.1290 -7627.8725 299.7639 -9406.0016 -7567.1071 301.3909 197.5147 237.2073 30126.8355 59.6627 131.4639
ENERGY: 1200000 2.8685 3.1613 1.0983 0.0000 -10835.5028 1438.1651 0.0000 0.0000 1744.4869 -7645.7227 294.0924 -9390.2096 -7576.2668 300.4632 -74.1991 -83.6885 30738.0805 -16.8800 39.5451
ENERGY: 1500000 1.3434 3.5362 0.4408 0.0000 -10801.7379 1438.0666 0.0000 0.0000 1764.0599 -7594.2911 297.3921 -9358.3510 -7572.8923 300.4905 -121.3173 -36.8636 30667.3164 31.1600 90.2206
TCL: Running FEP window  13: Lambda1 0.39999999999999963 Lambda2 0.34999999999999964 [dLambda -0.04999999999999999]
TCL: Setting parameter firsttimestep to 0
TCL: Setting parameter alchLambda to 0.39999999999999963
Info: NONBONDED TABLE R-SQUARED SPACING: 0.0625
Info: NONBONDED TABLE SIZE: 705 POINTS
TCL: Setting parameter alchLambda2 to 0.34999999999999964
Info: NONBONDED TABLE R-SQUARED SPACING: 0.0625
Info: NONBONDED TABLE SIZE: 705 POINTS
TCL: Running for 1500000 steps
ETITLE: TS BOND ANGLE DIHED IMPRP ELECT VDW BOUNDARY MISC KINETIC TOTAL TEMP POTENTIAL TOTALAVG TEMPAVG PRESSURE GPRESSURE VOLUME PRESSAVG GPRESSAVG
ENERGY: 0 1.3434 3.5362 0.4408 0.0000 -10801.7377 1438.1518 0.0000 0.0000 1763.1568 -7595.1087 297.2398 -9358.2655 -7595.1087 297.2398 -124.5426 -41.1861 30667.3164 -124.5426 -41.1861
ENERGY: 300000 3.4712 5.8234 1.5470 0.0000 -10759.0182 1417.3850 0.0000 0.0000 1759.4057 -7571.3859 296.6074 -9330.7916 -7581.7779 297.1219 -240.0996 -185.8136 30777.0293 -281.7609 -237.8683
ENERGY: 600000 1.6116 3.2152 1.0826 0.0000 -10759.6879 1395.9079 0.0000 0.0000 1795.8376 -7562.0331 302.7493 -9357.8707 -7592.0373 298.7798 -358.4515 -338.0572 30478.4897 -350.7699 -306.9742
ENERGY: 900000 2.9143 4.9561 3.1592 0.0000 -10701.9780 1410.3667 0.0000 0.0000 1756.0893 -7524.4924 296.0483 -9280.5817 -7592.7476 298.3900 -390.0583 -364.3709 31134.7566 -398.9166 -354.5118
ENERGY: 1200000 1.9383 7.9106 2.0047 0.0000 -10935.9509 1492.7790 0.0000 0.0000 1791.8215 -7639.4968 302.0722 -9431.3183 -7590.1033 298.7663 136.9428 206.5739 30549.9922 -250.7984 -196.8382
ENERGY: 1500000 1.6548 6.6815 4.1457 0.0000 -10976.9975 1515.3735 0.0000 0.0000 1841.9542 -7607.1878 310.5238 -9449.1421 -7590.7559 299.0610 260.6356 338.5648 30536.2342 -209.6025 -155.8552
TCL: Running FEP window  14: Lambda1 0.34999999999999964 Lambda2 0.29999999999999966 [dLambda -0.04999999999999999]
TCL: Setting parameter firsttimestep to 0
TCL: Setting parameter alchLambda to 0.34999999999999964
Info: NONBONDED TABLE R-SQUARED SPACING: 0.0625
Info: NONBONDED TABLE SIZE: 705 POINTS
TCL: Setting parameter alchLambda2 to 0.29999999999999966
Info: NONBONDED TABLE R-SQUARED SPACING: 0.0625
Info: NONBONDED TABLE SIZE: 705 POINTS
TCL: Running for 1500000 steps
ETITLE: TS BOND ANGLE DIHED IMPRP ELECT VDW BOUNDARY MISC KINETIC TOTAL TEMP POTENTIAL TOTALAVG TEMPAVG PRESSURE GPRESSURE VOLUME PRESSAVG GPRESSAVG
ENERGY: 0 1.6548 6.6815 4.1457 0.0000 -10976.9981 1515.7472 0.0000 0.0000 1841.0444 -7607.7244 310.3704 -9448.7689 -7607.7244 310.3704 253.1794 336.3332 30536.2342 253.1794 336.3332
ENERGY: 300000 5.7610 7.8427 2.6810 0.0000 -10897.0737 1474.6872 0.0000 0.0000 1730.4470 -7675.6548 291.7255 -9406.1018 -7571.7180 301.6043 -59.7232 -14.3541 30705.7891 -59.7852 -18.9981
ENERGY: 600000 4.9978 4.7859 1.7483 0.0000 -10741.6799 1392.4811 0.0000 0.0000 1736.0396 -7601.6272 292.6683 -9337.6668 -7584.3746 299.6775 -356.2924 -269.3765 30379.7113 -8.3077 46.1615
ENERGY: 900000 4.6098 6.8709 1.7732 0.0000 -10839.1365 1421.2852 0.0000 0.0000 1772.2926 -7632.3048 298.7800 -9404.5974 -7594.8143 299.6765 -392.8253 -351.5085 30400.1085 -1.2017 47.1047
ENERGY: 1200000 1.4800 7.6944 1.1154 0.0000 -10776.0547 1419.5939 0.0000 0.0000 1697.7876 -7648.3835 286.2196 -9346.1711 -7603.1889 298.9706 38.0569 26.4081 30424.2124 -18.6536 23.8132
ENERGY: 1500000 3.3971 4.6214 1.6303 0.0000 -10858.1542 1487.9860 0.0000 0.0000 1810.3436 -7550.1758 305.1948 -9360.5194 -7593.0198 299.6968 55.5791 101.8385 30950.5879 28.7493 74.4694
TCL: Running FEP window  15: Lambda1 0.29999999999999966 Lambda2 0.24999999999999967 [dLambda -0.04999999999999999]
TCL: Setting parameter firsttimestep to 0
TCL: Setting parameter alchLambda to 0.29999999999999966
Info: NONBONDED TABLE R-SQUARED SPACING: 0.0625
Info: NONBONDED TABLE SIZE: 705 POINTS
TCL: Setting parameter alchLambda2 to 0.24999999999999967
Info: NONBONDED TABLE R-SQUARED SPACING: 0.0625
Info: NONBONDED TABLE SIZE: 705 POINTS
TCL: Running for 1500000 steps
ETITLE: TS BOND ANGLE DIHED IMPRP ELECT VDW BOUNDARY MISC KINETIC TOTAL TEMP POTENTIAL TOTALAVG TEMPAVG PRESSURE GPRESSURE VOLUME PRESSAVG GPRESSAVG
ENERGY: 0 3.3971 4.6214 1.6303 0.0000 -10858.1542 1487.9963 0.0000 0.0000 1809.4547 -7551.0543 305.0449 -9360.5090 -7551.0543 305.0449 12.1039 97.7829 30950.5879 12.1039 97.7829
ENERGY: 300000 2.8938 5.8198 5.2992 0.0000 -10822.4738 1456.4317 0.0000 0.0000 1743.2990 -7608.7304 293.8921 -9352.0293 -7560.6164 300.7721 110.1803 84.8867 30279.5235 141.3403 187.3852
ENERGY: 600000 1.6098 6.0645 2.7040 0.0000 -10762.9379 1362.8572 0.0000 0.0000 1820.4867 -7569.2157 306.9047 -9389.7024 -7587.3485 300.5584 -753.8601 -669.4316 30467.9550 -63.2601 -22.1782
ENERGY: 900000 1.5676 4.7327 2.9243 0.0000 -10737.3344 1441.4459 0.0000 0.0000 1787.9681 -7498.6958 301.4226 -9286.6639 -7577.3162 300.5266 -182.4126 -102.8449 31075.6239 -88.3036 -34.4117
ENERGY: 1200000 2.0426 9.3743 1.7949 0.0000 -10800.2484 1419.1576 0.0000 0.0000 1821.8091 -7546.0701 307.1276 -9367.8791 -7576.5133 301.3825 -564.5263 -506.7087 31147.9527 -136.6990 -77.7876
ENERGY: 1500000 1.4442 3.6893 4.1818 0.0000 -11022.3138 1580.2994 0.0000 0.0000 1821.6876 -7611.0115 307.1072 -9432.6990 -7577.9490 300.5372 1008.2328 1109.5577 30052.0355 -89.8984 -25.5224
TCL: Running FEP window  16: Lambda1 0.24999999999999967 Lambda2 0.19999999999999968 [dLambda -0.04999999999999999]
TCL: Setting parameter firsttimestep to 0
TCL: Setting parameter alchLambda to 0.24999999999999967
Info: NONBONDED TABLE R-SQUARED SPACING: 0.0625
Info: NONBONDED TABLE SIZE: 705 POINTS
TCL: Setting parameter alchLambda2 to 0.19999999999999968
Info: NONBONDED TABLE R-SQUARED SPACING: 0.0625
Info: NONBONDED TABLE SIZE: 705 POINTS
TCL: Running for 1500000 steps
ETITLE: TS BOND ANGLE DIHED IMPRP ELECT VDW BOUNDARY MISC KINETIC TOTAL TEMP POTENTIAL TOTALAVG TEMPAVG PRESSURE GPRESSURE VOLUME PRESSAVG GPRESSAVG
ENERGY: 0 1.4442 3.6893 4.1818 0.0000 -11022.3135 1580.4532 0.0000 0.0000 1820.7969 -7611.7481 306.9570 -9432.5450 -7611.7481 306.9570 1004.2721 1105.2880 30052.0355 1004.2721 1105.2880
ENERGY: 300000 2.8886 6.2930 1.2840 0.0000 -10799.3740 1449.8735 0.0000 0.0000 1776.1517 -7562.8831 299.4305 -9339.0348 -7607.3128 300.9228 173.3091 272.2619 30389.3806 315.9589 388.3439
ENERGY: 600000 3.6661 6.4785 3.3292 0.0000 -11044.6078 1546.0049 0.0000 0.0000 1731.9156 -7753.2135 291.9731 -9485.1291 -7619.7817 299.8514 270.8558 352.7344 30331.7090 57.7385 131.9829
ENERGY: 900000 3.0860 4.7946 2.7915 0.0000 -10880.8419 1489.1691 0.0000 0.0000 1767.8937 -7613.1069 298.0384 -9381.0007 -7616.0755 298.3341 423.4695 455.5359 30280.4510 71.5198 139.5605
ENERGY: 1200000 3.6653 7.2623 1.0306 0.0000 -10769.8797 1483.3632 0.0000 0.0000 1815.5100 -7459.0483 306.0657 -9274.5583 -7599.1875 298.6572 564.7428 648.0037 30498.2798 166.6546 239.7140
ENERGY: 1500000 4.0994 4.9118 2.9740 0.0000 -10988.6183 1548.0084 0.0000 0.0000 1736.3310 -7692.2938 292.7174 -9428.6248 -7605.5268 297.6320 837.3246 894.7457 30122.7475 129.8880 202.4682
TCL: Running FEP window  17: Lambda1 0.19999999999999968 Lambda2 0.1499999999999997 [dLambda -0.04999999999999999]
TCL: Setting parameter firsttimestep to 0
TCL: Setting parameter alchLambda to 0.19999999999999968
Info: NONBONDED TABLE R-SQUARED SPACING: 0.0625
Info: NONBONDED TABLE SIZE: 705 POINTS
TCL: Setting parameter alchLambda2 to 0.1499999999999997
Info: NONBONDED TABLE R-SQUARED SPACING: 0.0625
Info: NONBONDED TABLE SIZE: 705 POINTS
TCL: Running for 1500000 steps
ETITLE: TS BOND ANGLE DIHED IMPRP ELECT VDW BOUNDARY MISC KINETIC TOTAL TEMP POTENTIAL TOTALAVG TEMPAVG PRESSURE GPRESSURE VOLUME PRESSAVG GPRESSAVG
ENERGY: 0 4.0994 4.9118 2.9740 0.0000 -10988.6164 1548.1702 0.0000 0.0000 1735.4196 -7693.0414 292.5638 -9428.4610 -7693.0414 292.5638 818.8843 890.1506 30122.7475 818.8843 890.1506
ENERGY: 300000 2.4977 4.4050 1.9076 0.0000 -10900.5405 1449.6982 0.0000 0.0000 1780.2076 -7661.8244 300.1143 -9442.0320 -7638.6091 297.4218 -235.5049 -117.8752 30412.8909 -148.0936 -57.6207
ENERGY: 600000 1.7496 4.8997 0.9756 0.0000 -10990.2578 1522.9205 0.0000 0.0000 1768.2318 -7691.4805 298.0954 -9459.7124 -7633.5849 296.8540 319.3809 369.4625 30233.9137 -33.3950 40.4917
ENERGY: 900000 2.7709 6.0813 1.9508 0.0000 -10735.1928 1372.7630 0.0000 0.0000 1786.0085 -7565.6183 301.0923 -9351.6268 -7608.7364 299.1663 -497.0761 -350.4714 30425.9720 -2.2611 80.2970
ENERGY: 1200000 2.5315 6.5064 1.3315 0.0000 -10868.9562 1439.7348 0.0000 0.0000 1822.4170 -7596.4349 307.2301 -9418.8519 -7601.7947 300.7967 -220.0808 -149.6552 30549.6581 75.0931 154.3679
ENERGY: 1500000 1.6303 3.6031 2.8902 0.0000 -10789.0133 1404.6801 0.0000 0.0000 1734.9327 -7641.2770 292.4817 -9376.2097 -7593.5815 300.5836 -602.2185 -519.1051 30888.6777 -23.1740 50.2183
TCL: Running FEP window  18: Lambda1 0.1499999999999997 Lambda2 0.09999999999999969 [dLambda -0.05 ]
TCL: Setting parameter firsttimestep to 0
TCL: Setting parameter alchLambda to 0.1499999999999997
Info: NONBONDED TABLE R-SQUARED SPACING: 0.0625
Info: NONBONDED TABLE SIZE: 705 POINTS
TCL: Setting parameter alchLambda2 to 0.09999999999999969
Info: NONBONDED TABLE R-SQUARED SPACING: 0.0625
Info: NONBONDED TABLE SIZE: 705 POINTS
TCL: Running for 1500000 steps
ETITLE: TS BOND ANGLE DIHED IMPRP ELECT VDW BOUNDARY MISC KINETIC TOTAL TEMP POTENTIAL TOTALAVG TEMPAVG PRESSURE GPRESSURE VOLUME PRESSAVG GPRESSAVG
ENERGY: 0 1.6303 3.6031 2.8902 0.0000 -10789.0140 1404.7601 0.0000 0.0000 1734.0745 -7642.0558 292.3370 -9376.1303 -7642.0558 292.3370 -603.8291 -522.6275 30888.6777 -603.8291 -522.6275
ENERGY: 300000 3.0721 6.9354 1.5506 0.0000 -10810.7053 1446.3351 0.0000 0.0000 1779.6594 -7573.1528 300.0219 -9352.8122 -7604.7703 296.6827 -107.7576 -83.5700 30463.9870 -171.3901 -108.9896
ENERGY: 600000 2.7557 5.4827 5.6292 0.0000 -10909.5387 1523.4262 0.0000 0.0000 1761.5604 -7610.6846 296.9707 -9372.2450 -7614.9636 295.6579 492.6261 540.9844 30143.0310 -64.9088 5.9222
ENERGY: 900000 5.4256 10.4028 2.8197 0.0000 -10857.9589 1440.8912 0.0000 0.0000 1776.0440 -7622.3755 299.4124 -9398.4195 -7636.0833 296.3111 -349.2305 -364.6919 30775.2967 -139.2641 -80.6969
ENERGY: 1200000 2.4385 5.9431 2.4719 0.0000 -10848.7920 1417.6034 0.0000 0.0000 1766.9628 -7653.3723 297.8814 -9420.3351 -7630.6240 297.4057 -634.1814 -598.5908 30954.2375 -8.0586 47.6256
ENERGY: 1500000 1.3957 4.4061 1.0950 0.0000 -10705.2327 1405.2724 0.0000 0.0000 1763.3101 -7529.7533 297.2657 -9293.0635 -7619.6378 297.3677 -227.2665 -131.1339 30752.8915 -2.1265 63.8839
TCL: Running FEP window  19: Lambda1 0.09999999999999969 Lambda2 0.049999999999999684 [dLambda -0.05 ]
TCL: Setting parameter firsttimestep to 0
TCL: Setting parameter alchLambda to 0.09999999999999969
Info: NONBONDED TABLE R-SQUARED SPACING: 0.0625
Info: NONBONDED TABLE SIZE: 705 POINTS
TCL: Setting parameter alchLambda2 to 0.049999999999999684
Info: NONBONDED TABLE R-SQUARED SPACING: 0.0625
Info: NONBONDED TABLE SIZE: 705 POINTS
TCL: Running for 1500000 steps
ETITLE: TS BOND ANGLE DIHED IMPRP ELECT VDW BOUNDARY MISC KINETIC TOTAL TEMP POTENTIAL TOTALAVG TEMPAVG PRESSURE GPRESSURE VOLUME PRESSAVG GPRESSAVG
ENERGY: 0 1.3957 4.4061 1.0950 0.0000 -10705.2339 1405.6301 0.0000 0.0000 1762.4248 -7530.2821 297.1164 -9292.7069 -7530.2821 297.1164 -219.2386 -133.2365 30752.8915 -219.2386 -133.2365
ENERGY: 300000 2.1897 6.7937 2.5364 0.0000 -10809.1697 1398.9527 0.0000 0.0000 1762.9171 -7635.7800 297.1994 -9398.6971 -7594.8230 299.5860 -442.2734 -416.5653 30189.7452 -127.3870 -47.9234
ENERGY: 600000 4.8002 6.7994 2.1440 0.0000 -10863.4834 1470.6383 0.0000 0.0000 1781.0654 -7598.0362 300.2589 -9379.1016 -7587.1482 300.3574 45.5082 109.6763 30826.7783 -26.1338 45.3059
ENERGY: 900000 2.8721 5.8421 7.8263 0.0000 -10808.3836 1440.7027 0.0000 0.0000 1827.2334 -7523.9069 308.0421 -9351.1403 -7577.3131 302.5361 -216.7602 -160.4913 30839.6946 -9.1787 48.9356
ENERGY: 1200000 2.3826 8.0048 2.4456 0.0000 -10707.6937 1415.8590 0.0000 0.0000 1817.1592 -7461.8426 306.3438 -9279.0018 -7566.0502 302.0629 -132.6722 -34.8201 30406.8784 -96.6866 -34.3283
ENERGY: 1500000 1.5752 4.4358 0.6603 0.0000 -10738.6691 1399.9168 0.0000 0.0000 1746.0104 -7586.0705 294.3492 -9332.0810 -7576.3889 301.3702 -470.7503 -418.9027 30932.3781 -142.8969 -75.9508
TCL: Running FEP window  20: Lambda1 0.049999999999999684 Lambda2 0.0    [dLambda -0.049999999999999684]
TCL: Setting parameter firsttimestep to 0
TCL: Setting parameter alchLambda to 0.049999999999999684
Info: NONBONDED TABLE R-SQUARED SPACING: 0.0625
Info: NONBONDED TABLE SIZE: 705 POINTS
TCL: Setting parameter alchLambda2 to 0.0
Info: NONBONDED TABLE R-SQUARED SPACING: 0.0625
Info: NONBONDED TABLE SIZE: 705 POINTS
TCL: Running for 1500000 steps
ETITLE: TS BOND ANGLE DIHED IMPRP ELECT VDW BOUNDARY MISC KINETIC TOTAL TEMP POTENTIAL TOTALAVG TEMPAVG PRESSURE GPRESSURE VOLUME PRESSAVG GPRESSAVG
ENERGY: 0 1.5752 4.4358 0.6603 0.0000 -10738.6694 1398.9329 0.0000 0.0000 1745.1262 -7587.9390 294.2001 -9333.0652 -7587.9390 294.2001 -509.2289 -424.0488 30932.3781 -509.2289 -424.0488
ENERGY: 300000 1.7182 4.7037 1.4055 0.0000 -10750.3586 1412.2392 0.0000 0.0000 1796.3141 -7533.9781 302.8296 -9330.2921 -7544.7100 300.1423 -477.8981 -381.6530 30833.4484 -222.6637 -136.5028
ENERGY: 600000 2.2723 7.2896 3.1993 0.0000 -10781.1630 1410.6721 0.0000 0.0000 1765.4941 -7592.2355 297.6339 -9357.7297 -7571.4587 299.9421 -408.9898 -384.6290 30512.9718 -114.1186 -56.7432
ENERGY: 900000 2.8986 7.8505 2.5482 0.0000 -10824.6869 1410.8967 0.0000 0.0000 1734.0137 -7666.4794 292.3268 -9400.4930 -7590.6848 298.2378 -810.3684 -745.8197 30956.4416 -74.7470 -17.3485
ENERGY: 1200000 3.6605 4.9445 0.9727 0.0000 -10979.3566 1508.2944 0.0000 0.0000 1804.8145 -7656.6700 304.2626 -9461.4845 -7602.5930 298.3669 359.1639 454.2162 30012.3243 -76.0804 -14.5170
ENERGY: 1500000 3.6879 4.5236 2.6305 0.0000 -10827.5327 1423.1151 0.0000 0.0000 1817.7109 -7575.8647 306.4368 -9393.5756 -7603.0120 298.1257 -503.6287 -443.0665 30611.8110 -136.3348 -71.1583
TCL: Exiting due to exit command.
