Info: SIMULATION PARAMETERS:
Info: TIMESTEP               2
Info: NUMBER OF STEPS        0
Info: STEPS PER CYCLE        10
Info: PERIODIC CELL BASIS 1  30.6381 0 0
Info: PERIODIC CELL BASIS 2  0 31.3325 0
Info: PERIODIC CELL BASIS 3  0 0 31.2835
Info: PERIODIC CELL CENTER   0 0 0
Info: WRAPPING WATERS AROUND PERIODIC BOUNDARIES ON OUTPUT.
Info: WRAPPING ALL CLUSTERS AROUND PERIODIC BOUNDARIES ON OUTPUT.
Info: FIRST LDB TIMESTEP     50
Info: LAST LDB TIMESTEP     -1
Info: HOM BACKGROUND SCALING 1
Info: PME BACKGROUND SCALING 1
Info: MIN ATOMS PER PATCH    40
Info: EMPTY PATCH LOAD       40 ATOMS
Info: VELOCITY FILE          mobley_7010316_equil.vel
Info: CENTER OF MASS MOVING INITIALLY? NO
Info: DIELECTRIC             1
Info: EXCLUDE                SCALED ONE-FOUR
Info: 1-4 ELECTROSTATICS SCALED BY 0.833333
Info: MODIFIED 1-4 VDW PARAMETERS WILL BE USED
Info: DCD FILENAME           mobley_7010316_prod.dcd
Info: DCD FREQUENCY          100000
Info: DCD FIRST STEP         100000
Info: DCD FILE WILL CONTAIN UNIT CELL DATA
Info: XST FILENAME           mobley_7010316_prod.xst
Info: XST FREQUENCY          100000
Info: NO VELOCITY DCD OUTPUT
Info: NO FORCE DCD OUTPUT
Info: OUTPUT FILENAME        mobley_7010316_prod
Info: BINARY OUTPUT FILES WILL BE USED
Info: RESTART FILENAME       mobley_7010316_prod.restart
Info: RESTART FREQUENCY      100000
Info: BINARY RESTART FILES WILL BE USED
Info: CUTOFF                 9
Info: PAIRLIST DISTANCE      11
Info: PAIRLIST SHRINK RATE   0.01
Info: PAIRLIST GROW RATE     0.01
Info: PAIRLIST TRIGGER       0.3
Info: PAIRLISTS PER CYCLE    2
Info: PAIRLISTS ENABLED
Info: MARGIN                 2
Info: HYDROGEN GROUP CUTOFF  2.5
Info: PATCH DIMENSION        15.5
Info: ENERGY OUTPUT STEPS    100000
Info: ENERGY EVALUATION STEPS    100000
Info: OUTPUT ENERGY PRECISION 4
Info: CROSSTERM ENERGY INCLUDED IN DIHEDRAL
Info: TIMING OUTPUT STEPS    1000000
Info: PRESSURE OUTPUT STEPS  100000
Info: ALCHEMICAL FEP ON
Info: FEP CURRENT LAMBDA VALUE     1
Info: FEP COMPARISON LAMBDA VALUE  0.95
Info: FEP INTRA-ALCHEMICAL NON-BONDED INTERACTIONS WILL BE RETAINED
Info: FEP INTRA-ALCHEMICAL BONDED INTERACTIONS WILL BE RETAINED
Info: FEP VDW SHIFTING COEFFICIENT 5
Info: FEP ELEC. ACTIVE FOR ANNIHILATED PARTICLES BETWEEN LAMBDA = 0 AND LAMBDA = 0.5
Info: FEP ELEC. ACTIVE FOR EXNIHILATED PARTICLES BETWEEN LAMBDA = 0.5 AND LAMBDA = 1
Info: FEP VDW ACTIVE FOR ANNIHILATED PARTICLES BETWEEN LAMBDA = 0 AND LAMBDA = 1
Info: FEP VDW ACTIVE FOR EXNIHILATED PARTICLES BETWEEN LAMBDA = 0 AND LAMBDA = 1
Info: FEP BOND ACTIVE FOR ANNIHILATED PARTICLES BETWEEN LAMBDA = 1 AND LAMBDA = 1
Info: FEP BOND ACTIVE FOR EXNIHILATED PARTICLES BETWEEN LAMBDA = 0 AND LAMBDA = 0
Info: LANGEVIN DYNAMICS ACTIVE
Info: LANGEVIN TEMPERATURE   300
Info: LANGEVIN USING BBK INTEGRATOR
Info: LANGEVIN DAMPING COEFFICIENT IS 1 INVERSE PS
Info: LANGEVIN DYNAMICS APPLIED TO HYDROGENS
Info: LANGEVIN PISTON PRESSURE CONTROL ACTIVE
Info:        TARGET PRESSURE IS 1.01325 BAR
Info:     OSCILLATION PERIOD IS 50 FS
Info:             DECAY TIME IS 25 FS
Info:     PISTON TEMPERATURE IS 300 K
Info:       PRESSURE CONTROL IS GROUP-BASED
Info:    INITIAL STRAIN RATE IS 0.000454709 0.000454709 0.000454709
Info:       CELL FLUCTUATION IS ISOTROPIC
Info: PARTICLE MESH EWALD (PME) ACTIVE
Info: PME TOLERANCE               1e-06
Info: PME EWALD COEFFICIENT       0.348832
Info: PME INTERPOLATION ORDER     4
Info: PME GRID DIMENSIONS         32 32 32
Info: PME MAXIMUM GRID SPACING    1
Info: PME CALCULATION WILL BE PERFORMED ON GPU
Info: FULL ELECTROSTATIC EVALUATION FREQUENCY      2
Info: USING VERLET I (r-RESPA) MTS SCHEME.
Info: C1 SPLITTING OF LONG RANGE ELECTROSTATICS
Info: PLACING ATOMS IN PATCHES BY HYDROGEN GROUPS
Info: RIGID BONDS TO HYDROGEN : ALL
Info:         ERROR TOLERANCE : 1e-08
Info:          MAX ITERATIONS : 100
Info: RIGID WATER USING SETTLE ALGORITHM
Info: RANDOM NUMBER SEED     1743628601
Info: USE HYDROGEN BONDS?    NO
Info: Using AMBER format force field!
Info: AMBER PARM FILE        mobley_7010316.prmtop
Info: COORDINATE PDB         mobley_7010316.pdb
Info: Exclusions will be read from PARM file!
Info: SCNB (VDW SCALING)     2
Info: USING ARITHMETIC MEAN TO COMBINE L-J SIGMA PARAMETERS
Info: BINARY COORDINATES     mobley_7010316_equil.coor
Info: SUMMARY OF PARAMETERS:
Info: 7 BONDS
Info: 7 ANGLES
Info:   7 HARMONIC
Info:   0 COSINE-BASED
Info: 9 DIHEDRAL
Info: 0 IMPROPER
Info: 0 CROSSTERM
Info: 0 VDW
Info: 21 VDW_PAIRS
Info: 0 NBTHOLE_PAIRS
Info: To read alchdata from file: mobley_7010316.pdb
Info: To read alchflag data from column: 5
Info: STRUCTURE SUMMARY:
Info: 2950 ATOMS
Info: 2950 BONDS
Info: 37 ANGLES
Info: 75 DIHEDRALS
Info: 0 IMPROPERS
Info: 0 CROSSTERMS
Info: 3041 EXCLUSIONS
Info: 2943 RIGID BONDS
Info: ALCH: 0 ATOMS TO DISAPPEAR IN FINAL STATE
Info: ALCH: 19 ATOMS TO APPEAR IN FINAL STATE
Info: 5907 DEGREES OF FREEDOM
Info: 984 HYDROGEN GROUPS
Info: 3 ATOMS IN LARGEST HYDROGEN GROUP
Info: 984 MIGRATION GROUPS
Info: 3 ATOMS IN LARGEST MIGRATION GROUP
Info: TOTAL MASS = 17701.8 amu
Info: TOTAL CHARGE = -4.47035e-08 e
Info: MASS DENSITY = 0.978826 g/cm^3
Info: ATOM DENSITY = 0.0982315 atoms/A^3
Info: ADDED 0 IMPLICIT EXCLUSIONS
Info: NONBONDED TABLE R-SQUARED SPACING: 0.0625
Info: NONBONDED TABLE SIZE: 705 POINTS
Info: REMOVING COM VELOCITY 0.0822142 -0.0624215 0.00346087
Info: Use 3D box decompostion in PME FFT.
Info: Updated CUDA force table with 4096 elements.
Info: Updated CUDA LJ table with 6 x 6 elements.
Info: Found 22 unique exclusion lists needing 64 bytes
TCL: Running for 1500000 steps
ETITLE: TS BOND ANGLE DIHED IMPRP ELECT VDW BOUNDARY MISC KINETIC TOTAL TEMP POTENTIAL TOTALAVG TEMPAVG PRESSURE GPRESSURE VOLUME PRESSAVG GPRESSAVG
ENERGY: 0 2.1693 6.6632 4.9461 0.0000 -10722.1617 1478.1334 0.0000 0.0000 1791.6341 -7438.6156 305.2620 -9230.2497 -7438.6156 305.2620 546.8442 625.3443 30031.0890 546.8442 625.3443
ENERGY: 300000 0.5666 6.3515 5.9191 0.0000 -10691.7243 1435.7818 0.0000 0.0000 1834.9610 -7408.1445 312.6441 -9243.1055 -7439.9030 301.8556 60.1216 165.9876 30169.5342 -113.3431 -35.8307
ENERGY: 600000 0.8955 9.6534 5.3462 0.0000 -10793.1093 1532.6616 0.0000 0.0000 1784.4991 -7460.0536 304.0463 -9244.5527 -7478.9115 300.6226 792.8245 914.5039 30052.9276 12.7483 80.0448
ENERGY: 900000 3.5559 6.5261 5.2250 0.0000 -10650.5707 1429.2707 0.0000 0.0000 1789.2464 -7416.7465 304.8552 -9205.9929 -7476.4901 301.2687 101.2880 170.4602 30225.6514 -99.0390 -30.5812
ENERGY: 1200000 1.8092 6.9973 5.8539 0.0000 -10694.5357 1399.3896 0.0000 0.0000 1736.3836 -7544.1021 295.8483 -9280.4857 -7497.4291 299.6577 -757.2194 -686.1208 31136.4323 -142.5976 -78.2628
ENERGY: 1500000 2.0199 5.3198 4.9559 0.0000 -10595.4321 1400.0765 0.0000 0.0000 1684.4812 -7498.5788 287.0051 -9183.0599 -7490.9561 299.1912 -70.8335 -40.4390 30161.7751 -83.8632 -26.4195
TCL: Running FEP window   2: Lambda1 0.95   Lambda2 0.8999999999999999 [dLambda -0.050000000000000044]
TCL: Setting parameter firsttimestep to 0
TCL: Setting parameter alchLambda to 0.95
Info: NONBONDED TABLE R-SQUARED SPACING: 0.0625
Info: NONBONDED TABLE SIZE: 705 POINTS
TCL: Setting parameter alchLambda2 to 0.8999999999999999
Info: NONBONDED TABLE R-SQUARED SPACING: 0.0625
Info: NONBONDED TABLE SIZE: 705 POINTS
TCL: Running for 1500000 steps
ETITLE: TS BOND ANGLE DIHED IMPRP ELECT VDW BOUNDARY MISC KINETIC TOTAL TEMP POTENTIAL TOTALAVG TEMPAVG PRESSURE GPRESSURE VOLUME PRESSAVG GPRESSAVG
ENERGY: 0 2.0199 5.3198 4.9559 0.0000 -10594.4315 1399.3308 0.0000 0.0000 1683.5879 -7499.2172 286.8529 -9182.8051 -7499.2172 286.8529 -129.5567 -63.3104 30161.7751 -129.5567 -63.3104
ENERGY: 300000 0.6155 8.1625 6.3341 0.0000 -10464.9933 1329.9928 0.0000 0.0000 1727.0237 -7392.8647 294.2535 -9119.8884 -7464.2052 295.9425 -188.6519 -105.8571 29970.4032 -519.7491 -442.9368
ENERGY: 600000 5.0908 9.0965 5.2311 0.0000 -10887.7107 1631.2628 0.0000 0.0000 1762.4703 -7474.5591 300.2930 -9237.0294 -7486.3024 297.5401 1570.1756 1663.2726 30221.1909 -0.8105 71.7788
ENERGY: 900000 3.1379 4.7780 5.5932 0.0000 -10543.2720 1311.3724 0.0000 0.0000 1753.3098 -7465.0807 298.7322 -9218.3905 -7488.6073 297.2601 -1022.9894 -962.9375 30724.0655 -180.4627 -113.5576
ENERGY: 1200000 3.3813 8.6006 5.2407 0.0000 -10589.0951 1398.8572 0.0000 0.0000 1802.3314 -7370.6839 307.0846 -9173.0153 -7485.3925 298.4209 -162.8388 -108.4022 30880.3605 -173.0262 -106.5918
ENERGY: 1500000 3.0025 7.5976 6.3239 0.0000 -10561.3078 1334.1448 0.0000 0.0000 1741.9837 -7468.2553 296.8025 -9210.2390 -7481.1237 299.1151 -1110.6159 -1057.4028 30989.6818 -201.0321 -132.7385
TCL: Running FEP window   3: Lambda1 0.8999999999999999 Lambda2 0.8499999999999999 [dLambda -0.050000000000000044]
TCL: Setting parameter firsttimestep to 0
TCL: Setting parameter alchLambda to 0.8999999999999999
Info: NONBONDED TABLE R-SQUARED SPACING: 0.0625
Info: NONBONDED TABLE SIZE: 705 POINTS
TCL: Setting parameter alchLambda2 to 0.8499999999999999
Info: NONBONDED TABLE R-SQUARED SPACING: 0.0625
Info: NONBONDED TABLE SIZE: 705 POINTS
TCL: Running for 1500000 steps
ETITLE: TS BOND ANGLE DIHED IMPRP ELECT VDW BOUNDARY MISC KINETIC TOTAL TEMP POTENTIAL TOTALAVG TEMPAVG PRESSURE GPRESSURE VOLUME PRESSAVG GPRESSAVG
ENERGY: 0 3.0025 7.5976 6.3239 0.0000 -10559.6569 1333.3450 0.0000 0.0000 1741.0764 -7468.3115 296.6479 -9209.3880 -7468.3115 296.6479 -1157.9427 -1074.7356 30989.6818 -1157.9427 -1074.7356
ENERGY: 300000 1.4716 7.0751 5.5350 0.0000 -10662.6540 1387.3631 0.0000 0.0000 1723.4233 -7537.7860 293.6401 -9261.2093 -7490.5059 298.3335 -493.9852 -420.9194 30464.4441 -462.7254 -370.3561
ENERGY: 600000 2.7785 11.4391 7.2688 0.0000 -10756.8719 1514.7492 0.0000 0.0000 1716.5132 -7504.1232 292.4627 -9220.6364 -7478.9930 298.1506 481.9267 492.3156 30576.6605 -69.2524 -0.2665
ENERGY: 900000 2.3195 7.9728 5.1585 0.0000 -10642.7833 1371.7038 0.0000 0.0000 1725.3436 -7530.2852 293.9673 -9255.6287 -7486.4097 298.6829 -743.5989 -691.2178 30782.0013 -112.0328 -39.1718
ENERGY: 1200000 1.7144 11.2028 6.0938 0.0000 -10672.8280 1442.2257 0.0000 0.0000 1753.5028 -7458.0886 298.7651 -9211.5913 -7483.1839 298.2193 7.9126 41.0342 30529.8486 -55.9684 14.8598
ENERGY: 1500000 3.5856 4.8683 5.1050 0.0000 -10721.7836 1471.3853 0.0000 0.0000 1776.0661 -7460.7733 302.6095 -9236.8394 -7482.0444 298.9527 294.1889 349.3852 30002.0566 43.7740 118.0489
TCL: Running FEP window   4: Lambda1 0.8499999999999999 Lambda2 0.7999999999999998 [dLambda -0.050000000000000044]
TCL: Setting parameter firsttimestep to 0
TCL: Setting parameter alchLambda to 0.8499999999999999
Info: NONBONDED TABLE R-SQUARED SPACING: 0.0625
Info: NONBONDED TABLE SIZE: 705 POINTS
TCL: Setting parameter alchLambda2 to 0.7999999999999998
Info: NONBONDED TABLE R-SQUARED SPACING: 0.0625
Info: NONBONDED TABLE SIZE: 705 POINTS
TCL: Running for 1500000 steps
ETITLE: TS BOND ANGLE DIHED IMPRP ELECT VDW BOUNDARY MISC KINETIC TOTAL TEMP POTENTIAL TOTALAVG TEMPAVG PRESSURE GPRESSURE VOLUME PRESSAVG GPRESSAVG
ENERGY: 0 3.5856 4.8683 5.1050 0.0000 -10720.2828 1470.9419 0.0000 0.0000 1775.1930 -7460.5889 302.4607 -9235.7819 -7460.5889 302.4607 255.1417 338.7854 30002.0566 255.1417 338.7854
ENERGY: 300000 1.4692 6.5016 5.6245 0.0000 -10585.4322 1391.7673 0.0000 0.0000 1758.4192 -7421.6504 299.6028 -9180.0696 -7459.6576 299.8410 -222.6916 -118.7170 30585.7523 43.7381 140.2499
ENERGY: 600000 2.8975 8.1424 6.4708 0.0000 -10531.3797 1428.5349 0.0000 0.0000 1760.0882 -7325.2460 299.8871 -9085.3342 -7442.7044 300.5274 188.5006 219.1945 30457.2616 86.1639 157.6028
ENERGY: 900000 3.6462 8.5317 5.3828 0.0000 -10659.4732 1455.4923 0.0000 0.0000 1759.4515 -7426.9688 299.7787 -9186.4202 -7429.7682 300.5072 -55.9832 48.6359 30605.4671 -37.2603 32.9884
ENERGY: 1200000 0.1316 6.0031 5.3133 0.0000 -10838.4773 1533.1807 0.0000 0.0000 1797.2085 -7496.6402 306.2118 -9293.8487 -7426.8013 302.1499 576.3710 626.3525 30295.9699 -0.5090 57.5069
ENERGY: 1500000 1.4661 6.5560 5.0058 0.0000 -10712.3750 1483.3766 0.0000 0.0000 1755.7408 -7460.2297 299.1464 -9215.9704 -7433.3691 301.8802 579.2616 599.0542 30058.5395 30.9833 87.9370
TCL: Running FEP window   5: Lambda1 0.7999999999999998 Lambda2 0.7499999999999998 [dLambda -0.050000000000000044]
TCL: Setting parameter firsttimestep to 0
TCL: Setting parameter alchLambda to 0.7999999999999998
Info: NONBONDED TABLE R-SQUARED SPACING: 0.0625
Info: NONBONDED TABLE SIZE: 705 POINTS
TCL: Setting parameter alchLambda2 to 0.7499999999999998
Info: NONBONDED TABLE R-SQUARED SPACING: 0.0625
Info: NONBONDED TABLE SIZE: 705 POINTS
TCL: Running for 1500000 steps
ETITLE: TS BOND ANGLE DIHED IMPRP ELECT VDW BOUNDARY MISC KINETIC TOTAL TEMP POTENTIAL TOTALAVG TEMPAVG PRESSURE GPRESSURE VOLUME PRESSAVG GPRESSAVG
ENERGY: 0 1.4661 6.5560 5.0058 0.0000 -10711.1167 1482.5969 0.0000 0.0000 1754.8655 -7460.6264 298.9973 -9215.4919 -7460.6264 298.9973 506.6003 580.8047 30058.5395 506.6003 580.8047
ENERGY: 300000 0.9067 5.2181 6.3581 0.0000 -10732.2208 1511.7734 0.0000 0.0000 1753.7894 -7454.1750 298.8139 -9207.9644 -7501.0350 294.1685 740.4672 739.6383 30211.6768 78.4033 121.5283
ENERGY: 600000 0.5105 7.8359 7.6701 0.0000 -10733.8343 1468.5412 0.0000 0.0000 1767.6290 -7481.6477 301.1719 -9249.2767 -7478.6080 297.1185 479.4870 502.2787 29911.2236 40.3886 91.0723
ENERGY: 900000 1.8648 6.0142 5.1407 0.0000 -10741.8234 1465.7658 0.0000 0.0000 1772.6911 -7490.3469 302.0344 -9263.0379 -7473.1185 298.8510 86.8373 191.0571 30398.7272 8.1358 55.6103
ENERGY: 1200000 2.6859 11.8569 5.8817 0.0000 -10801.7358 1543.3478 0.0000 0.0000 1717.7088 -7520.2547 292.6665 -9237.9635 -7481.7768 297.9428 356.0524 399.6901 30567.7753 29.4148 70.6084
ENERGY: 1500000 5.0026 11.1814 6.5273 0.0000 -10745.9335 1463.2002 0.0000 0.0000 1768.4531 -7491.5689 301.3124 -9260.0220 -7471.2686 298.9151 -72.4079 -16.8332 30324.4195 25.0231 70.7172
TCL: Running FEP window   6: Lambda1 0.7499999999999998 Lambda2 0.6999999999999997 [dLambda -0.050000000000000044]
TCL: Setting parameter firsttimestep to 0
TCL: Setting parameter alchLambda to 0.7499999999999998
Info: NONBONDED TABLE R-SQUARED SPACING: 0.0625
Info: NONBONDED TABLE SIZE: 705 POINTS
TCL: Setting parameter alchLambda2 to 0.6999999999999997
Info: NONBONDED TABLE R-SQUARED SPACING: 0.0625
Info: NONBONDED TABLE SIZE: 705 POINTS
TCL: Running for 1500000 steps
ETITLE: TS BOND ANGLE DIHED IMPRP ELECT VDW BOUNDARY MISC KINETIC TOTAL TEMP POTENTIAL TOTALAVG TEMPAVG PRESSURE GPRESSURE VOLUME PRESSAVG GPRESSAVG
ENERGY: 0 5.0026 11.1814 6.5273 0.0000 -10744.4981 1463.4827 0.0000 0.0000 1767.5801 -7490.7240 301.1636 -9258.3041 -7490.7240 301.1636 -96.5767 -19.0717 30324.4195 -96.5767 -19.0717
ENERGY: 300000 1.5647 8.4582 5.3714 0.0000 -10597.1378 1393.8961 0.0000 0.0000 1718.3604 -7469.4871 292.7775 -9187.8475 -7464.6709 297.9429 -89.3256 30.3848 30087.2542 84.8185 150.0119
ENERGY: 600000 1.1875 7.2224 6.2416 0.0000 -10671.7727 1470.6059 0.0000 0.0000 1784.4668 -7402.0484 304.0408 -9186.5152 -7455.6931 300.1456 259.0780 359.5063 30611.7771 127.7989 201.6239
ENERGY: 900000 2.4284 11.5753 5.6989 0.0000 -10703.3201 1469.5191 0.0000 0.0000 1714.6142 -7499.4842 292.1392 -9214.0984 -7453.8061 299.6101 229.5438 288.7111 30321.7075 2.6207 64.3671
ENERGY: 1200000 2.1094 6.5409 5.2788 0.0000 -10594.4340 1376.5209 0.0000 0.0000 1739.0426 -7464.9414 296.3014 -9203.9840 -7447.8193 299.3827 -349.2604 -377.2135 30265.9598 -116.6013 -67.3563
ENERGY: 1500000 0.9694 11.9578 6.1364 0.0000 -10729.1550 1459.8354 0.0000 0.0000 1832.3129 -7417.9432 312.1929 -9250.2561 -7445.6756 300.1735 292.9655 410.3523 29893.2177 -47.9447 8.0214
TCL: Running FEP window   7: Lambda1 0.6999999999999997 Lambda2 0.6499999999999997 [dLambda -0.050000000000000044]
TCL: Setting parameter firsttimestep to 0
TCL: Setting parameter alchLambda to 0.6999999999999997
Info: NONBONDED TABLE R-SQUARED SPACING: 0.0625
Info: NONBONDED TABLE SIZE: 705 POINTS
TCL: Setting parameter alchLambda2 to 0.6499999999999997
Info: NONBONDED TABLE R-SQUARED SPACING: 0.0625
Info: NONBONDED TABLE SIZE: 705 POINTS
TCL: Running for 1500000 steps
ETITLE: TS BOND ANGLE DIHED IMPRP ELECT VDW BOUNDARY MISC KINETIC TOTAL TEMP POTENTIAL TOTALAVG TEMPAVG PRESSURE GPRESSURE VOLUME PRESSAVG GPRESSAVG
ENERGY: 0 0.9694 11.9578 6.1364 0.0000 -10727.9988 1459.2420 0.0000 0.0000 1831.4713 -7418.2219 312.0495 -9249.6932 -7418.2219 312.0495 302.9250 396.6723 29893.2177 302.9250 396.6723
ENERGY: 300000 2.1563 13.7746 5.6411 0.0000 -10766.1687 1476.7924 0.0000 0.0000 1715.4975 -7552.3068 292.2897 -9267.8043 -7439.4626 301.5106 263.4794 279.2936 30181.3437 146.5512 203.0136
ENERGY: 600000 3.7570 8.0051 6.5468 0.0000 -10701.1111 1409.0401 0.0000 0.0000 1738.5464 -7535.2157 296.2168 -9273.7621 -7456.1228 301.8378 -500.9300 -415.9407 30383.9485 -0.2372 48.2762
ENERGY: 900000 1.0248 9.3967 6.3331 0.0000 -10556.7946 1380.1304 0.0000 0.0000 1749.5119 -7410.3978 298.0851 -9159.9096 -7469.6019 299.6144 -289.0115 -179.3485 30477.1956 -89.4298 -32.1077
ENERGY: 1200000 0.5755 7.7456 5.0606 0.0000 -10689.2121 1446.8653 0.0000 0.0000 1794.3966 -7434.5684 305.7327 -9228.9650 -7468.5572 300.8132 -88.4757 -94.9216 30722.0669 -127.1780 -78.4574
ENERGY: 1500000 1.5278 12.2902 5.1220 0.0000 -10723.8120 1465.7736 0.0000 0.0000 1691.0629 -7548.0354 288.1265 -9239.0984 -7471.9433 300.4004 79.9941 112.7753 30535.7625 -106.0358 -49.5094
TCL: Running FEP window   8: Lambda1 0.6499999999999997 Lambda2 0.5999999999999996 [dLambda -0.050000000000000044]
TCL: Setting parameter firsttimestep to 0
TCL: Setting parameter alchLambda to 0.6499999999999997
Info: NONBONDED TABLE R-SQUARED SPACING: 0.0625
Info: NONBONDED TABLE SIZE: 705 POINTS
TCL: Setting parameter alchLambda2 to 0.5999999999999996
Info: NONBONDED TABLE R-SQUARED SPACING: 0.0625
Info: NONBONDED TABLE SIZE: 705 POINTS
TCL: Running for 1500000 steps
ETITLE: TS BOND ANGLE DIHED IMPRP ELECT VDW BOUNDARY MISC KINETIC TOTAL TEMP POTENTIAL TOTALAVG TEMPAVG PRESSURE GPRESSURE VOLUME PRESSAVG GPRESSAVG
ENERGY: 0 1.5278 12.2902 5.1220 0.0000 -10721.7902 1465.7014 0.0000 0.0000 1690.1531 -7546.9957 287.9715 -9237.1487 -7546.9957 287.9715 16.2280 109.8111 30535.7625 16.2280 109.8111
ENERGY: 300000 3.9824 4.6350 5.2101 0.0000 -10698.8156 1417.2163 0.0000 0.0000 1786.4954 -7481.2764 304.3864 -9267.7718 -7473.4925 300.1529 -2.9536 84.2626 30142.8808 218.3691 297.8305
ENERGY: 600000 1.9243 4.5134 5.3404 0.0000 -10611.4729 1435.4476 0.0000 0.0000 1814.9148 -7349.3323 309.2286 -9164.2472 -7461.9455 299.6806 75.5673 96.2573 30732.6918 181.1349 242.9870
ENERGY: 900000 1.4213 6.3632 5.2228 0.0000 -10708.8585 1487.7478 0.0000 0.0000 1821.2712 -7386.8322 310.3116 -9208.1034 -7461.8229 302.3102 317.3512 354.0613 30620.2395 91.7390 152.4876
ENERGY: 1200000 2.1775 7.0948 5.2549 0.0000 -10657.8569 1399.4126 0.0000 0.0000 1779.0439 -7464.8733 303.1168 -9243.9172 -7466.7718 300.5894 -370.1711 -313.0527 30311.7560 -5.7844 59.2562
ENERGY: 1500000 2.0914 8.0492 5.6274 0.0000 -10627.1618 1380.0502 0.0000 0.0000 1716.6551 -7514.6885 292.4869 -9231.3436 -7465.9636 300.8112 -477.6908 -388.2476 30278.7343 -94.6238 -29.6957
TCL: Running FEP window   9: Lambda1 0.5999999999999996 Lambda2 0.5499999999999996 [dLambda -0.050000000000000044]
TCL: Setting parameter firsttimestep to 0
TCL: Setting parameter alchLambda to 0.5999999999999996
Info: NONBONDED TABLE R-SQUARED SPACING: 0.0625
Info: NONBONDED TABLE SIZE: 705 POINTS
TCL: Setting parameter alchLambda2 to 0.5499999999999996
Info: NONBONDED TABLE R-SQUARED SPACING: 0.0625
Info: NONBONDED TABLE SIZE: 705 POINTS
TCL: Running for 1500000 steps
ETITLE: TS BOND ANGLE DIHED IMPRP ELECT VDW BOUNDARY MISC KINETIC TOTAL TEMP POTENTIAL TOTALAVG TEMPAVG PRESSURE GPRESSURE VOLUME PRESSAVG GPRESSAVG
ENERGY: 0 2.0914 8.0492 5.6274 0.0000 -10625.0911 1379.3148 0.0000 0.0000 1715.7437 -7514.2646 292.3316 -9230.0083 -7514.2646 292.3316 -496.6375 -395.9022 30278.7343 -496.6375 -395.9022
ENERGY: 300000 2.4738 7.3418 6.1462 0.0000 -10635.6382 1318.7690 0.0000 0.0000 1724.4233 -7576.4841 293.8105 -9300.9074 -7498.6035 297.4765 -1110.0291 -952.5958 30099.2989 -581.5731 -494.6712
ENERGY: 600000 1.6183 12.2083 5.6689 0.0000 -10724.6253 1436.8440 0.0000 0.0000 1726.5019 -7541.7838 294.1647 -9268.2857 -7469.9346 299.5775 -48.5491 -27.7639 30170.2101 -374.8054 -305.1783
ENERGY: 900000 1.0093 9.2251 4.9583 0.0000 -10716.0493 1420.9974 0.0000 0.0000 1798.9245 -7480.9347 306.5041 -9279.8592 -7469.1624 300.9214 -3.0305 57.4799 29813.8080 -177.8668 -116.4970
ENERGY: 1200000 1.1855 8.1507 6.6138 0.0000 -10701.4145 1413.8041 0.0000 0.0000 1761.6401 -7510.0203 300.1516 -9271.6604 -7470.3262 300.5909 -108.8059 -74.6219 29984.5229 -208.5440 -148.2164
ENERGY: 1500000 3.5000 7.0805 5.5198 0.0000 -10666.8265 1469.0482 0.0000 0.0000 1757.4649 -7424.2130 299.4402 -9181.6779 -7470.4912 300.5981 415.2398 470.0544 30367.0590 -94.0058 -32.8916
TCL: Running FEP window  10: Lambda1 0.5499999999999996 Lambda2 0.4999999999999996 [dLambda -0.04999999999999999]
TCL: Setting parameter firsttimestep to 0
TCL: Setting parameter alchLambda to 0.5499999999999996
Info: NONBONDED TABLE R-SQUARED SPACING: 0.0625
Info: NONBONDED TABLE SIZE: 705 POINTS
TCL: Setting parameter alchLambda2 to 0.4999999999999996
Info: NONBONDED TABLE R-SQUARED SPACING: 0.0625
Info: NONBONDED TABLE SIZE: 705 POINTS
TCL: Running for 1500000 steps
ETITLE: TS BOND ANGLE DIHED IMPRP ELECT VDW BOUNDARY MISC KINETIC TOTAL TEMP POTENTIAL TOTALAVG TEMPAVG PRESSURE GPRESSURE VOLUME PRESSAVG GPRESSAVG
ENERGY: 0 3.5000 7.0805 5.5198 0.0000 -10666.7503 1468.9730 0.0000 0.0000 1756.5811 -7425.0957 299.2896 -9181.6769 -7425.0957 299.2896 376.1478 461.9729 30367.0590 376.1478 461.9729
ENERGY: 300000 2.6515 8.2308 5.6617 0.0000 -10609.6431 1353.9567 0.0000 0.0000 1739.1932 -7499.9492 296.3270 -9239.1424 -7481.3677 297.0609 -847.0572 -793.3558 30817.2533 -417.2942 -365.9664
ENERGY: 600000 4.4610 8.1214 7.2772 0.0000 -10769.2227 1438.6441 0.0000 0.0000 1819.8891 -7490.8299 310.0761 -9310.7190 -7487.3727 301.1054 -373.1622 -312.9512 30270.5591 -250.1411 -191.2311
ENERGY: 900000 2.8173 9.0317 5.8744 0.0000 -10674.1162 1405.6536 0.0000 0.0000 1745.6554 -7505.0840 297.4281 -9250.7393 -7478.4325 301.0175 -211.9127 -181.8633 30136.3612 -181.7606 -121.5738
ENERGY: 1200000 2.1842 6.4389 5.7581 0.0000 -10757.2676 1429.6013 0.0000 0.0000 1751.1618 -7562.1232 298.3662 -9313.2850 -7473.2549 301.5374 -385.1844 -322.9628 30254.8150 -170.4348 -104.8945
ENERGY: 1500000 1.4839 9.6773 6.2665 0.0000 -10655.8509 1448.2736 0.0000 0.0000 1806.5728 -7383.5767 307.8073 -9190.1495 -7464.6779 301.8704 223.8446 277.4608 30247.9483 -101.7086 -33.3424
TCL: Running FEP window  11: Lambda1 0.4999999999999996 Lambda2 0.4499999999999996 [dLambda -0.04999999999999999]
TCL: Setting parameter firsttimestep to 0
TCL: Setting parameter alchLambda to 0.4999999999999996
Info: NONBONDED TABLE R-SQUARED SPACING: 0.0625
Info: NONBONDED TABLE SIZE: 705 POINTS
TCL: Setting parameter alchLambda2 to 0.4499999999999996
Info: NONBONDED TABLE R-SQUARED SPACING: 0.0625
Info: NONBONDED TABLE SIZE: 705 POINTS
TCL: Running for 1500000 steps
ETITLE: TS BOND ANGLE DIHED IMPRP ELECT VDW BOUNDARY MISC KINETIC TOTAL TEMP POTENTIAL TOTALAVG TEMPAVG PRESSURE GPRESSURE VOLUME PRESSAVG GPRESSAVG
ENERGY: 0 1.4839 9.6773 6.2665 0.0000 -10655.6875 1448.6596 0.0000 0.0000 1805.6587 -7383.9415 307.6515 -9189.6002 -7383.9415 307.6515 190.1547 272.0134 30247.9483 190.1547 272.0134
ENERGY: 300000 3.4022 9.3409 5.5805 0.0000 -10584.2253 1411.3940 0.0000 0.0000 1741.5544 -7412.9534 296.7293 -9154.5077 -7420.1070 300.2106 -143.9158 -97.9640 30713.9662 176.3197 244.1745
ENERGY: 600000 1.5054 10.9317 5.8251 0.0000 -10770.0514 1410.2128 0.0000 0.0000 1779.8309 -7561.7456 303.2509 -9341.5765 -7450.9095 299.6893 -267.3808 -252.1445 29788.1449 123.7536 180.9988
ENERGY: 900000 1.0389 10.4184 6.1385 0.0000 -10663.3746 1443.7006 0.0000 0.0000 1786.2458 -7415.8324 304.3439 -9202.0783 -7448.0314 299.3153 -45.2656 15.9026 30431.9018 132.7000 200.0864
ENERGY: 1200000 1.6569 8.1963 5.8089 0.0000 -10672.9751 1461.0063 0.0000 0.0000 1793.7962 -7402.5104 305.6304 -9196.3066 -7444.5207 299.5965 441.5755 512.7247 30031.2919 159.2625 223.2257
ENERGY: 1500000 0.7853 4.8137 6.6488 0.0000 -10731.2892 1451.4518 0.0000 0.0000 1778.5552 -7489.0345 303.0336 -9267.5897 -7455.0175 299.7456 128.3891 124.3677 30454.9314 46.1488 101.1322
TCL: Running FEP window  12: Lambda1 0.4499999999999996 Lambda2 0.39999999999999963 [dLambda -0.04999999999999999]
TCL: Setting parameter firsttimestep to 0
TCL: Setting parameter alchLambda to 0.4499999999999996
Info: NONBONDED TABLE R-SQUARED SPACING: 0.0625
Info: NONBONDED TABLE SIZE: 705 POINTS
TCL: Setting parameter alchLambda2 to 0.39999999999999963
Info: NONBONDED TABLE R-SQUARED SPACING: 0.0625
Info: NONBONDED TABLE SIZE: 705 POINTS
TCL: Running for 1500000 steps
ETITLE: TS BOND ANGLE DIHED IMPRP ELECT VDW BOUNDARY MISC KINETIC TOTAL TEMP POTENTIAL TOTALAVG TEMPAVG PRESSURE GPRESSURE VOLUME PRESSAVG GPRESSAVG
ENERGY: 0 0.7853 4.8137 6.6488 0.0000 -10731.2894 1451.9934 0.0000 0.0000 1777.6986 -7489.3497 302.8876 -9267.0483 -7489.3497 302.8876 43.9361 124.0172 30454.9314 43.9361 124.0172
ENERGY: 300000 2.4309 7.8919 6.1633 0.0000 -10635.6237 1427.5173 0.0000 0.0000 1756.5484 -7435.0719 299.2840 -9191.6204 -7454.4105 300.8764 -180.2834 -112.1586 30352.3422 -125.4129 -34.2022
ENERGY: 600000 5.4921 12.4598 5.9957 0.0000 -10652.9292 1489.9426 0.0000 0.0000 1759.9934 -7379.0457 299.8710 -9139.0391 -7430.1359 301.8144 418.6115 497.8770 30334.8170 -74.5843 7.7215
ENERGY: 900000 3.8840 12.4834 5.8686 0.0000 -10517.1627 1380.5815 0.0000 0.0000 1745.4785 -7368.8667 297.3979 -9114.3452 -7422.3006 302.4819 -225.2793 -196.3123 30434.5181 -2.8003 61.3669
ENERGY: 1200000 1.2705 10.3159 5.6958 0.0000 -10747.4414 1537.8810 0.0000 0.0000 1729.4976 -7462.7805 294.6751 -9192.2782 -7441.4594 301.0686 1177.2046 1231.1095 29858.7008 -11.4728 47.6848
ENERGY: 1500000 2.7029 5.3924 4.9080 0.0000 -10677.9462 1412.3548 0.0000 0.0000 1751.2463 -7501.3417 298.3806 -9252.5881 -7454.2321 300.4008 -437.9165 -356.4455 30321.5333 -30.8836 25.1336
TCL: Running FEP window  13: Lambda1 0.39999999999999963 Lambda2 0.34999999999999964 [dLambda -0.04999999999999999]
TCL: Setting parameter firsttimestep to 0
TCL: Setting parameter alchLambda to 0.39999999999999963
Info: NONBONDED TABLE R-SQUARED SPACING: 0.0625
Info: NONBONDED TABLE SIZE: 705 POINTS
TCL: Setting parameter alchLambda2 to 0.34999999999999964
Info: NONBONDED TABLE R-SQUARED SPACING: 0.0625
Info: NONBONDED TABLE SIZE: 705 POINTS
TCL: Running for 1500000 steps
ETITLE: TS BOND ANGLE DIHED IMPRP ELECT VDW BOUNDARY MISC KINETIC TOTAL TEMP POTENTIAL TOTALAVG TEMPAVG PRESSURE GPRESSURE VOLUME PRESSAVG GPRESSAVG
ENERGY: 0 2.7029 5.3924 4.9080 0.0000 -10677.9466 1412.5415 0.0000 0.0000 1750.3563 -7502.0454 298.2290 -9252.4018 -7502.0454 298.2290 -448.9342 -362.5996 30321.5333 -448.9342 -362.5996
ENERGY: 300000 2.0778 7.8895 5.4209 0.0000 -10585.6973 1367.8122 0.0000 0.0000 1760.5621 -7441.9348 299.9679 -9202.4969 -7512.9821 299.1865 -666.2892 -626.7244 30615.0936 -183.5719 -116.0871
ENERGY: 600000 2.9376 8.8007 5.8318 0.0000 -10660.1421 1369.2642 0.0000 0.0000 1802.6696 -7470.6382 307.1422 -9273.3078 -7515.2397 298.4328 -738.2690 -584.3375 30157.1582 -324.1303 -252.3618
ENERGY: 900000 2.9370 12.9163 6.0733 0.0000 -10743.8712 1430.4359 0.0000 0.0000 1768.9366 -7522.5722 301.3948 -9291.5088 -7490.9335 300.8265 -149.6538 -50.2008 30013.1060 -343.7778 -273.9870
ENERGY: 1200000 1.9611 13.6705 5.9226 0.0000 -10775.9870 1466.6300 0.0000 0.0000 1720.4471 -7567.3557 293.1330 -9287.8028 -7484.3689 299.9344 59.2254 75.3565 30055.8613 -278.3736 -220.7805
ENERGY: 1500000 1.6545 8.9779 5.8940 0.0000 -10629.2810 1437.1421 0.0000 0.0000 1754.5777 -7421.0348 298.9482 -9175.6125 -7474.9238 299.2008 12.9896 96.2377 30538.4842 -250.2336 -187.1461
TCL: Running FEP window  14: Lambda1 0.34999999999999964 Lambda2 0.29999999999999966 [dLambda -0.04999999999999999]
TCL: Setting parameter firsttimestep to 0
TCL: Setting parameter alchLambda to 0.34999999999999964
Info: NONBONDED TABLE R-SQUARED SPACING: 0.0625
Info: NONBONDED TABLE SIZE: 705 POINTS
TCL: Setting parameter alchLambda2 to 0.29999999999999966
Info: NONBONDED TABLE R-SQUARED SPACING: 0.0625
Info: NONBONDED TABLE SIZE: 705 POINTS
TCL: Running for 1500000 steps
ETITLE: TS BOND ANGLE DIHED IMPRP ELECT VDW BOUNDARY MISC KINETIC TOTAL TEMP POTENTIAL TOTALAVG TEMPAVG PRESSURE GPRESSURE VOLUME PRESSAVG GPRESSAVG
ENERGY: 0 1.6545 8.9779 5.8940 0.0000 -10629.2818 1437.7477 0.0000 0.0000 1753.7179 -7421.2898 298.8018 -9175.0077 -7421.2898 298.8018 18.1865 96.1838 30538.4842 18.1865 96.1838
ENERGY: 300000 2.7489 7.1023 4.7109 0.0000 -10704.9481 1446.0827 0.0000 0.0000 1805.3655 -7438.9378 307.6016 -9244.3032 -7469.2649 296.8378 -0.6602 81.4018 30145.9503 -42.9688 17.3720
ENERGY: 600000 1.4308 6.2656 5.4097 0.0000 -10612.3022 1392.6049 0.0000 0.0000 1711.7492 -7494.8420 291.6510 -9206.5912 -7451.4599 298.3830 -185.3028 -211.1004 30127.8417 69.4905 124.7738
ENERGY: 900000 2.0725 7.8302 5.4176 0.0000 -10604.4035 1329.3628 0.0000 0.0000 1797.5470 -7462.1734 306.2694 -9259.7204 -7448.4859 298.9669 -864.3094 -746.0243 30197.9739 57.6425 112.2832
ENERGY: 1200000 1.6575 9.0554 4.8007 0.0000 -10715.8268 1461.2300 0.0000 0.0000 1765.0931 -7473.9900 300.7399 -9239.0832 -7445.7675 299.3612 235.6563 326.8813 30052.5102 5.6785 65.4819
ENERGY: 1500000 1.4845 6.4986 6.0224 0.0000 -10728.0643 1473.2215 0.0000 0.0000 1805.4089 -7435.4284 307.6090 -9240.8373 -7438.5794 301.0014 516.2753 611.4409 29857.3761 -13.5876 43.7432
TCL: Running FEP window  15: Lambda1 0.29999999999999966 Lambda2 0.24999999999999967 [dLambda -0.04999999999999999]
TCL: Setting parameter firsttimestep to 0
TCL: Setting parameter alchLambda to 0.29999999999999966
Info: NONBONDED TABLE R-SQUARED SPACING: 0.0625
Info: NONBONDED TABLE SIZE: 705 POINTS
TCL: Setting parameter alchLambda2 to 0.24999999999999967
Info: NONBONDED TABLE R-SQUARED SPACING: 0.0625
Info: NONBONDED TABLE SIZE: 705 POINTS
TCL: Running for 1500000 steps
ETITLE: TS BOND ANGLE DIHED IMPRP ELECT VDW BOUNDARY MISC KINETIC TOTAL TEMP POTENTIAL TOTALAVG TEMPAVG PRESSURE GPRESSURE VOLUME PRESSAVG GPRESSAVG
ENERGY: 0 1.4845 6.4986 6.0224 0.0000 -10728.0643 1473.7140 0.0000 0.0000 1804.4868 -7435.8580 307.4519 -9240.3448 -7435.8580 307.4519 533.4639 608.7150 29857.3761 533.4639 608.7150
ENERGY: 300000 1.0834 8.8107 5.7091 0.0000 -10663.6817 1453.2037 0.0000 0.0000 1695.4772 -7499.3975 288.8786 -9194.8747 -7461.8611 300.6651 110.6318 150.0680 30472.4406 430.5259 486.8743
ENERGY: 600000 3.7207 5.8454 6.4942 0.0000 -10786.0533 1432.3255 0.0000 0.0000 1802.8275 -7534.8400 307.1691 -9337.6675 -7484.6339 301.8352 -306.1649 -249.2527 30015.0702 149.7246 207.1396
ENERGY: 900000 0.9906 7.7719 5.6042 0.0000 -10490.4993 1326.8345 0.0000 0.0000 1708.9237 -7440.3745 291.1696 -9149.2982 -7473.4992 300.5944 -548.9141 -459.5853 30383.6767 -92.3698 -27.1268
ENERGY: 1200000 2.2030 15.7481 7.1642 0.0000 -10389.8012 1262.3717 0.0000 0.0000 1733.9136 -7368.4007 295.4275 -9102.3142 -7455.7894 301.3103 -1276.8454 -1207.3809 30694.6355 -166.9321 -104.4282
ENERGY: 1500000 2.9425 9.6515 5.1950 0.0000 -10616.1604 1375.7076 0.0000 0.0000 1771.5247 -7451.1391 301.8357 -9222.6638 -7457.4265 301.6457 -461.5694 -341.8814 30059.1974 -200.1406 -132.8536
TCL: Running FEP window  16: Lambda1 0.24999999999999967 Lambda2 0.19999999999999968 [dLambda -0.04999999999999999]
TCL: Setting parameter firsttimestep to 0
TCL: Setting parameter alchLambda to 0.24999999999999967
Info: NONBONDED TABLE R-SQUARED SPACING: 0.0625
Info: NONBONDED TABLE SIZE: 705 POINTS
TCL: Setting parameter alchLambda2 to 0.19999999999999968
Info: NONBONDED TABLE R-SQUARED SPACING: 0.0625
Info: NONBONDED TABLE SIZE: 705 POINTS
TCL: Running for 1500000 steps
ETITLE: TS BOND ANGLE DIHED IMPRP ELECT VDW BOUNDARY MISC KINETIC TOTAL TEMP POTENTIAL TOTALAVG TEMPAVG PRESSURE GPRESSURE VOLUME PRESSAVG GPRESSAVG
ENERGY: 0 2.9425 9.6514 5.1950 0.0000 -10616.1602 1375.3322 0.0000 0.0000 1770.6773 -7452.3617 301.6913 -9223.0390 -7452.3617 301.6913 -428.5017 -348.0932 30059.1974 -428.5017 -348.0932
ENERGY: 300000 1.2074 10.8606 5.8421 0.0000 -10711.5267 1429.6858 0.0000 0.0000 1763.0182 -7500.9126 300.3864 -9263.9308 -7456.4889 300.5725 10.4594 28.9620 30039.1477 -102.5894 -38.2234
ENERGY: 600000 1.2318 7.7981 6.8181 0.0000 -10641.7341 1469.5373 0.0000 0.0000 1813.0165 -7343.3322 308.9052 -9156.3487 -7435.0870 300.9192 514.0979 539.8436 30205.9841 -176.1316 -123.9056
ENERGY: 900000 0.1853 8.0604 6.1457 0.0000 -10728.7909 1411.4953 0.0000 0.0000 1736.6781 -7566.2262 295.8985 -9302.9043 -7447.0201 300.8082 -267.6220 -209.7258 29942.7585 -140.7163 -78.9974
ENERGY: 1200000 4.5005 6.5422 4.9212 0.0000 -10762.8928 1450.2683 0.0000 0.0000 1789.9143 -7506.7462 304.9690 -9296.6606 -7459.8773 301.0864 307.6365 346.7542 29509.5595 -70.8389 -22.5100
ENERGY: 1500000 0.9689 6.5400 6.4527 0.0000 -10548.2021 1363.9116 0.0000 0.0000 1744.1357 -7426.1932 297.1691 -9170.3289 -7464.3744 300.6189 -354.2450 -366.1412 30191.9967 -64.4464 -16.6670
TCL: Running FEP window  17: Lambda1 0.19999999999999968 Lambda2 0.1499999999999997 [dLambda -0.04999999999999999]
TCL: Setting parameter firsttimestep to 0
TCL: Setting parameter alchLambda to 0.19999999999999968
Info: NONBONDED TABLE R-SQUARED SPACING: 0.0625
Info: NONBONDED TABLE SIZE: 705 POINTS
TCL: Setting parameter alchLambda2 to 0.1499999999999997
Info: NONBONDED TABLE R-SQUARED SPACING: 0.0625
Info: NONBONDED TABLE SIZE: 705 POINTS
TCL: Running for 1500000 steps
ETITLE: TS BOND ANGLE DIHED IMPRP ELECT VDW BOUNDARY MISC KINETIC TOTAL TEMP POTENTIAL TOTALAVG TEMPAVG PRESSURE GPRESSURE VOLUME PRESSAVG GPRESSAVG
ENERGY: 0 0.9689 6.5400 6.4527 0.0000 -10548.2031 1364.1380 0.0000 0.0000 1743.2369 -7426.8666 297.0160 -9170.1035 -7426.8666 297.0160 -449.9021 -368.6953 30191.9967 -449.9021 -368.6953
ENERGY: 300000 2.2547 8.4478 5.4474 0.0000 -10646.0323 1440.0678 0.0000 0.0000 1756.0221 -7433.7925 299.1944 -9189.8146 -7453.5293 297.0965 -6.9563 56.3427 30485.0611 237.9839 281.9468
ENERGY: 600000 1.1436 8.2406 5.9092 0.0000 -10674.6589 1384.2595 0.0000 0.0000 1732.4818 -7542.6241 295.1835 -9275.1059 -7485.5444 296.7980 -713.7865 -681.8863 30262.1355 46.4690 97.7875
ENERGY: 900000 3.5158 11.4185 6.0647 0.0000 -10823.3872 1549.3622 0.0000 0.0000 1771.0240 -7482.0020 301.7504 -9253.0260 -7480.4456 298.6970 628.6362 681.2664 30249.1963 64.7066 110.2588
ENERGY: 1200000 3.0141 10.5515 6.4118 0.0000 -10600.1885 1427.7230 0.0000 0.0000 1768.2851 -7384.2029 301.2837 -9152.4880 -7482.3230 298.0750 -183.4194 -159.7145 30664.6800 94.6145 139.2894
ENERGY: 1500000 0.4352 7.6508 5.1334 0.0000 -10658.0089 1404.5343 0.0000 0.0000 1750.5184 -7489.7368 298.2566 -9240.2552 -7483.5863 298.1367 -297.5546 -254.2978 30158.8257 39.0136 87.6609
TCL: Running FEP window  18: Lambda1 0.1499999999999997 Lambda2 0.09999999999999969 [dLambda -0.05 ]
TCL: Setting parameter firsttimestep to 0
TCL: Setting parameter alchLambda to 0.1499999999999997
Info: NONBONDED TABLE R-SQUARED SPACING: 0.0625
Info: NONBONDED TABLE SIZE: 705 POINTS
TCL: Setting parameter alchLambda2 to 0.09999999999999969
Info: NONBONDED TABLE R-SQUARED SPACING: 0.0625
Info: NONBONDED TABLE SIZE: 705 POINTS
TCL: Running for 1500000 steps
ETITLE: TS BOND ANGLE DIHED IMPRP ELECT VDW BOUNDARY MISC KINETIC TOTAL TEMP POTENTIAL TOTALAVG TEMPAVG PRESSURE GPRESSURE VOLUME PRESSAVG GPRESSAVG
ENERGY: 0 0.4352 7.6508 5.1334 0.0000 -10658.0093 1404.8189 0.0000 0.0000 1749.6607 -7490.3104 298.1105 -9239.9711 -7490.3104 298.1105 -342.2861 -257.2413 30158.8257 -342.2861 -257.2413
ENERGY: 300000 3.6902 15.4281 6.2354 0.0000 -10672.5184 1380.0461 0.0000 0.0000 1806.8011 -7460.3174 307.8462 -9267.1185 -7421.6486 302.9157 -733.6108 -647.7123 30025.4867 -224.3696 -137.2919
ENERGY: 600000 4.0258 10.7792 5.3345 0.0000 -10764.0344 1442.0897 0.0000 0.0000 1743.3839 -7558.4213 297.0410 -9301.8052 -7452.2401 300.0292 -204.8998 -113.7535 29891.2139 -56.4654 21.7957
ENERGY: 900000 1.6395 10.7612 6.1202 0.0000 -10553.5055 1356.6320 0.0000 0.0000 1769.3398 -7409.0128 301.4634 -9178.3526 -7466.9266 298.3668 -658.8950 -607.6509 30297.1671 39.2379 113.5259
ENERGY: 1200000 1.4078 8.6664 5.5689 0.0000 -10768.2463 1485.6251 0.0000 0.0000 1804.1382 -7462.8399 307.3925 -9266.9781 -7463.6290 299.3974 232.9716 299.9841 30279.1727 71.3043 139.5557
ENERGY: 1500000 4.8441 8.7007 6.0456 0.0000 -10571.9255 1384.7760 0.0000 0.0000 1785.1702 -7382.3889 304.1607 -9167.5590 -7458.5513 300.3436 -317.3900 -309.5220 30326.6619 46.0582 110.3688
TCL: Running FEP window  19: Lambda1 0.09999999999999969 Lambda2 0.049999999999999684 [dLambda -0.05 ]
TCL: Setting parameter firsttimestep to 0
TCL: Setting parameter alchLambda to 0.09999999999999969
Info: NONBONDED TABLE R-SQUARED SPACING: 0.0625
Info: NONBONDED TABLE SIZE: 705 POINTS
TCL: Setting parameter alchLambda2 to 0.049999999999999684
Info: NONBONDED TABLE R-SQUARED SPACING: 0.0625
Info: NONBONDED TABLE SIZE: 705 POINTS
TCL: Running for 1500000 steps
ETITLE: TS BOND ANGLE DIHED IMPRP ELECT VDW BOUNDARY MISC KINETIC TOTAL TEMP POTENTIAL TOTALAVG TEMPAVG PRESSURE GPRESSURE VOLUME PRESSAVG GPRESSAVG
ENERGY: 0 4.8441 8.7007 6.0456 0.0000 -10571.9264 1384.7778 0.0000 0.0000 1784.3103 -7383.2478 304.0141 -9167.5581 -7383.2478 304.0141 -378.4829 -309.1081 30326.6619 -378.4829 -309.1081
ENERGY: 300000 0.8982 7.6311 6.5789 0.0000 -10649.9070 1434.6628 0.0000 0.0000 1702.4872 -7497.6488 290.0730 -9200.1360 -7431.0399 300.6029 77.4242 140.2296 30207.8107 -76.9771 -37.5177
ENERGY: 600000 4.0918 6.9902 5.3397 0.0000 -10643.0116 1351.9231 0.0000 0.0000 1725.1774 -7549.4894 293.9390 -9274.6668 -7467.1104 299.6853 -953.0507 -921.6268 30355.4335 -297.0959 -244.4089
ENERGY: 900000 0.9650 8.5934 6.8301 0.0000 -10653.5685 1413.4701 0.0000 0.0000 1784.5399 -7439.1700 304.0533 -9223.7098 -7468.0159 300.5731 -49.8680 47.6147 29863.1671 -252.5805 -197.8440
ENERGY: 1200000 1.4679 4.4935 5.6285 0.0000 -10593.9774 1398.6379 0.0000 0.0000 1793.6562 -7390.0934 305.6065 -9183.7496 -7446.4464 301.5489 -348.5411 -346.4564 30632.5572 -186.3452 -136.8704
ENERGY: 1500000 1.6403 4.4584 5.4472 0.0000 -10805.1865 1471.8561 0.0000 0.0000 1750.4566 -7571.3278 298.2461 -9321.7845 -7460.5793 301.5062 -167.1943 -144.2142 30176.6317 -114.5537 -62.2775
TCL: Running FEP window  20: Lambda1 0.049999999999999684 Lambda2 0.0    [dLambda -0.049999999999999684]
TCL: Setting parameter firsttimestep to 0
TCL: Setting parameter alchLambda to 0.049999999999999684
Info: NONBONDED TABLE R-SQUARED SPACING: 0.0625
Info: NONBONDED TABLE SIZE: 705 POINTS
TCL: Setting parameter alchLambda2 to 0.0
Info: NONBONDED TABLE R-SQUARED SPACING: 0.0625
Info: NONBONDED TABLE SIZE: 705 POINTS
TCL: Running for 1500000 steps
ETITLE: TS BOND ANGLE DIHED IMPRP ELECT VDW BOUNDARY MISC KINETIC TOTAL TEMP POTENTIAL TOTALAVG TEMPAVG PRESSURE GPRESSURE VOLUME PRESSAVG GPRESSAVG
ENERGY: 0 1.6403 4.4585 5.4472 0.0000 -10805.1863 1469.6756 0.0000 0.0000 1749.5403 -7574.4245 298.0900 -9323.9648 -7574.4245 298.0900 -225.2090 -148.0263 30176.6317 -225.2090 -148.0263
ENERGY: 300000 2.4944 6.6538 6.1455 0.0000 -10732.6115 1482.1602 0.0000 0.0000 1790.9580 -7444.1996 305.1468 -9235.1577 -7498.8405 301.9304 268.1399 328.2161 30318.4609 -53.9723 -1.7523
ENERGY: 600000 1.4291 8.2487 6.2717 0.0000 -10764.9759 1535.3949 0.0000 0.0000 1764.0970 -7449.5344 300.5702 -9213.6315 -7488.7563 299.9012 661.4691 661.3975 30397.7871 -95.1858 -56.9765
ENERGY: 900000 3.4761 6.5646 5.6013 0.0000 -10675.5559 1447.6424 0.0000 0.0000 1740.8299 -7471.4416 296.6059 -9212.2715 -7479.7236 299.9007 51.8440 96.1306 30223.3714 2.8038 38.7916
ENERGY: 1200000 2.7480 11.0007 6.7336 0.0000 -10547.9209 1378.1541 0.0000 0.0000 1795.2235 -7354.0609 305.8736 -9149.2844 -7470.1515 300.2650 -533.4736 -436.3679 30623.2742 -89.1513 -46.2125
ENERGY: 1500000 3.5895 7.2454 5.5417 0.0000 -10701.9705 1454.5284 0.0000 0.0000 1743.2315 -7487.8340 297.0151 -9231.0655 -7472.4329 300.1084 121.3806 211.3067 30046.3533 -106.5925 -57.1424
TCL: Exiting due to exit command.
