Info: SIMULATION PARAMETERS:
Info: TIMESTEP               2
Info: NUMBER OF STEPS        0
Info: STEPS PER CYCLE        10
Info: PERIODIC CELL BASIS 1  31.6051 0 0
Info: PERIODIC CELL BASIS 2  0 31.0564 0
Info: PERIODIC CELL BASIS 3  0 0 31.458
Info: PERIODIC CELL CENTER   0 0 0
Info: WRAPPING WATERS AROUND PERIODIC BOUNDARIES ON OUTPUT.
Info: WRAPPING ALL CLUSTERS AROUND PERIODIC BOUNDARIES ON OUTPUT.
Info: FIRST LDB TIMESTEP     50
Info: LAST LDB TIMESTEP     -1
Info: HOM BACKGROUND SCALING 1
Info: PME BACKGROUND SCALING 1
Info: MIN ATOMS PER PATCH    40
Info: EMPTY PATCH LOAD       40 ATOMS
Info: VELOCITY FILE          mobley_3034976_equil.vel
Info: CENTER OF MASS MOVING INITIALLY? NO
Info: DIELECTRIC             1
Info: EXCLUDE                SCALED ONE-FOUR
Info: 1-4 ELECTROSTATICS SCALED BY 0.833333
Info: MODIFIED 1-4 VDW PARAMETERS WILL BE USED
Info: DCD FILENAME           mobley_3034976_prod.dcd
Info: DCD FREQUENCY          100000
Info: DCD FIRST STEP         100000
Info: DCD FILE WILL CONTAIN UNIT CELL DATA
Info: XST FILENAME           mobley_3034976_prod.xst
Info: XST FREQUENCY          100000
Info: NO VELOCITY DCD OUTPUT
Info: NO FORCE DCD OUTPUT
Info: OUTPUT FILENAME        mobley_3034976_prod
Info: BINARY OUTPUT FILES WILL BE USED
Info: RESTART FILENAME       mobley_3034976_prod.restart
Info: RESTART FREQUENCY      100000
Info: BINARY RESTART FILES WILL BE USED
Info: CUTOFF                 9
Info: PAIRLIST DISTANCE      11
Info: PAIRLIST SHRINK RATE   0.01
Info: PAIRLIST GROW RATE     0.01
Info: PAIRLIST TRIGGER       0.3
Info: PAIRLISTS PER CYCLE    2
Info: PAIRLISTS ENABLED
Info: MARGIN                 2
Info: HYDROGEN GROUP CUTOFF  2.5
Info: PATCH DIMENSION        15.5
Info: ENERGY OUTPUT STEPS    100000
Info: ENERGY EVALUATION STEPS    100000
Info: OUTPUT ENERGY PRECISION 4
Info: CROSSTERM ENERGY INCLUDED IN DIHEDRAL
Info: TIMING OUTPUT STEPS    1000000
Info: PRESSURE OUTPUT STEPS  100000
Info: ALCHEMICAL FEP ON
Info: FEP CURRENT LAMBDA VALUE     1
Info: FEP COMPARISON LAMBDA VALUE  0.95
Info: FEP INTRA-ALCHEMICAL NON-BONDED INTERACTIONS WILL BE RETAINED
Info: FEP INTRA-ALCHEMICAL BONDED INTERACTIONS WILL BE RETAINED
Info: FEP VDW SHIFTING COEFFICIENT 5
Info: FEP ELEC. ACTIVE FOR ANNIHILATED PARTICLES BETWEEN LAMBDA = 0 AND LAMBDA = 0.5
Info: FEP ELEC. ACTIVE FOR EXNIHILATED PARTICLES BETWEEN LAMBDA = 0.5 AND LAMBDA = 1
Info: FEP VDW ACTIVE FOR ANNIHILATED PARTICLES BETWEEN LAMBDA = 0 AND LAMBDA = 1
Info: FEP VDW ACTIVE FOR EXNIHILATED PARTICLES BETWEEN LAMBDA = 0 AND LAMBDA = 1
Info: FEP BOND ACTIVE FOR ANNIHILATED PARTICLES BETWEEN LAMBDA = 1 AND LAMBDA = 1
Info: FEP BOND ACTIVE FOR EXNIHILATED PARTICLES BETWEEN LAMBDA = 0 AND LAMBDA = 0
Info: LANGEVIN DYNAMICS ACTIVE
Info: LANGEVIN TEMPERATURE   300
Info: LANGEVIN USING BBK INTEGRATOR
Info: LANGEVIN DAMPING COEFFICIENT IS 1 INVERSE PS
Info: LANGEVIN DYNAMICS APPLIED TO HYDROGENS
Info: LANGEVIN PISTON PRESSURE CONTROL ACTIVE
Info:        TARGET PRESSURE IS 1.01325 BAR
Info:     OSCILLATION PERIOD IS 50 FS
Info:             DECAY TIME IS 25 FS
Info:     PISTON TEMPERATURE IS 300 K
Info:       PRESSURE CONTROL IS GROUP-BASED
Info:    INITIAL STRAIN RATE IS 3.40107e-05 3.40107e-05 3.40107e-05
Info:       CELL FLUCTUATION IS ISOTROPIC
Info: PARTICLE MESH EWALD (PME) ACTIVE
Info: PME TOLERANCE               1e-06
Info: PME EWALD COEFFICIENT       0.348832
Info: PME INTERPOLATION ORDER     4
Info: PME GRID DIMENSIONS         32 32 32
Info: PME MAXIMUM GRID SPACING    1
Info: PME CALCULATION WILL BE PERFORMED ON GPU
Info: FULL ELECTROSTATIC EVALUATION FREQUENCY      2
Info: USING VERLET I (r-RESPA) MTS SCHEME.
Info: C1 SPLITTING OF LONG RANGE ELECTROSTATICS
Info: PLACING ATOMS IN PATCHES BY HYDROGEN GROUPS
Info: RIGID BONDS TO HYDROGEN : ALL
Info:         ERROR TOLERANCE : 1e-08
Info:          MAX ITERATIONS : 100
Info: RIGID WATER USING SETTLE ALGORITHM
Info: RANDOM NUMBER SEED     1743501736
Info: USE HYDROGEN BONDS?    NO
Info: Using AMBER format force field!
Info: AMBER PARM FILE        mobley_3034976.prmtop
Info: COORDINATE PDB         mobley_3034976.pdb
Info: Exclusions will be read from PARM file!
Info: SCNB (VDW SCALING)     2
Info: USING ARITHMETIC MEAN TO COMBINE L-J SIGMA PARAMETERS
Info: BINARY COORDINATES     mobley_3034976_equil.coor
Info: SUMMARY OF PARAMETERS:
Info: 7 BONDS
Info: 6 ANGLES
Info:   6 HARMONIC
Info:   0 COSINE-BASED
Info: 7 DIHEDRAL
Info: 0 IMPROPER
Info: 0 CROSSTERM
Info: 0 VDW
Info: 28 VDW_PAIRS
Info: 0 NBTHOLE_PAIRS
Info: To read alchdata from file: mobley_3034976.pdb
Info: To read alchflag data from column: 5
Info: STRUCTURE SUMMARY:
Info: 2984 ATOMS
Info: 2983 BONDS
Info: 10 ANGLES
Info: 16 DIHEDRALS
Info: 0 IMPROPERS
Info: 0 CROSSTERMS
Info: 3001 EXCLUSIONS
Info: 2980 RIGID BONDS
Info: ALCH: 0 ATOMS TO DISAPPEAR IN FINAL STATE
Info: ALCH: 8 ATOMS TO APPEAR IN FINAL STATE
Info: 5972 DEGREES OF FREEDOM
Info: 996 HYDROGEN GROUPS
Info: 4 ATOMS IN LARGEST HYDROGEN GROUP
Info: 996 MIGRATION GROUPS
Info: 4 ATOMS IN LARGEST MIGRATION GROUP
Info: TOTAL MASS = 17931.9 amu
Info: TOTAL CHARGE = -9.98899e-05 e
Info: MASS DENSITY = 0.964378 g/cm^3
Info: ATOM DENSITY = 0.0966406 atoms/A^3
Info: ADDED 0 IMPLICIT EXCLUSIONS
Info: NONBONDED TABLE R-SQUARED SPACING: 0.0625
Info: NONBONDED TABLE SIZE: 705 POINTS
Info: REDUCING NUMBER OF PATCHES TO IMPROVE LOAD BALANCE
Info: REMOVING COM VELOCITY 0.0164514 0.0610391 -0.0195249
Info: Use 3D box decompostion in PME FFT.
Info: Updated CUDA force table with 4096 elements.
Info: Updated CUDA LJ table with 7 x 7 elements.
Info: Found 11 unique exclusion lists needing 16 bytes
TCL: Running for 1500000 steps
ETITLE: TS BOND ANGLE DIHED IMPRP ELECT VDW BOUNDARY MISC KINETIC TOTAL TEMP POTENTIAL TOTALAVG TEMPAVG PRESSURE GPRESSURE VOLUME PRESSAVG GPRESSAVG
ENERGY: 0 0.2419 4.4125 2.9046 0.0000 -10876.9369 1455.6758 0.0000 0.0000 1741.0230 -7672.6791 293.4101 -9413.7021 -7672.6791 293.4101 14.3363 91.1103 30877.2771 14.3363 91.1103
ENERGY: 300000 1.9180 2.2588 4.4404 0.0000 -10792.4908 1396.8703 0.0000 0.0000 1811.2822 -7575.7210 305.2507 -9387.0032 -7647.0465 296.7331 -484.7828 -466.9166 30969.3517 -243.8624 -199.1959
ENERGY: 600000 2.0493 2.5412 4.0802 0.0000 -10755.6954 1373.2641 0.0000 0.0000 1769.6201 -7604.1405 298.2295 -9373.7606 -7637.8534 297.4095 -481.8927 -452.0166 30759.2515 -258.5318 -214.5979
ENERGY: 900000 1.3447 5.0939 2.8385 0.0000 -10923.6253 1430.6556 0.0000 0.0000 1815.4982 -7668.1946 305.9612 -9483.6927 -7647.9463 299.4031 -465.4167 -365.7748 30550.3848 -281.7883 -229.0356
ENERGY: 1200000 1.2610 1.3151 2.8447 0.0000 -10896.0618 1467.7200 0.0000 0.0000 1823.9423 -7598.9786 307.3843 -9422.9210 -7646.1344 299.2669 -144.9738 -106.1162 31241.9591 -198.7750 -149.8899
ENERGY: 1500000 1.4669 1.9262 2.6581 0.0000 -10771.7427 1391.8126 0.0000 0.0000 1822.7225 -7551.1564 307.1787 -9373.8789 -7642.5977 299.9482 -207.6405 -225.3206 30683.6460 -206.1935 -155.8411
TCL: Running FEP window   2: Lambda1 0.95   Lambda2 0.8999999999999999 [dLambda -0.050000000000000044]
TCL: Setting parameter firsttimestep to 0
TCL: Setting parameter alchLambda to 0.95
Info: NONBONDED TABLE R-SQUARED SPACING: 0.0625
Info: NONBONDED TABLE SIZE: 705 POINTS
TCL: Setting parameter alchLambda2 to 0.8999999999999999
Info: NONBONDED TABLE R-SQUARED SPACING: 0.0625
Info: NONBONDED TABLE SIZE: 705 POINTS
TCL: Running for 1500000 steps
ETITLE: TS BOND ANGLE DIHED IMPRP ELECT VDW BOUNDARY MISC KINETIC TOTAL TEMP POTENTIAL TOTALAVG TEMPAVG PRESSURE GPRESSURE VOLUME PRESSAVG GPRESSAVG
ENERGY: 0 1.4669 1.9262 2.6581 0.0000 -10769.5144 1391.4875 0.0000 0.0000 1821.8689 -7550.1067 307.0349 -9371.9756 -7550.1067 307.0349 -302.1164 -233.4628 30683.6460 -302.1164 -233.4628
ENERGY: 300000 1.2398 2.1001 2.5831 0.0000 -10990.2940 1516.0558 0.0000 0.0000 1791.3475 -7676.9677 301.8912 -9468.3152 -7598.3416 303.4108 258.9697 281.7963 30778.1358 -77.0794 -24.4157
ENERGY: 600000 0.5850 1.9447 3.0904 0.0000 -10928.2635 1550.5255 0.0000 0.0000 1816.2039 -7555.9140 306.0802 -9372.1179 -7605.5210 303.7701 721.2942 780.8536 31000.8324 55.6941 117.3052
ENERGY: 900000 2.0095 2.9085 3.9110 0.0000 -10978.5251 1515.4330 0.0000 0.0000 1822.5679 -7631.6950 307.1527 -9454.2630 -7607.5169 304.9482 37.3279 112.5978 31250.5348 -50.8917 10.5103
ENERGY: 1200000 0.5004 1.4439 2.5613 0.0000 -10729.4915 1416.3755 0.0000 0.0000 1820.0376 -7488.5729 306.7262 -9308.6104 -7602.9592 304.0353 -91.2456 -29.1312 31158.2794 -0.2846 61.3179
ENERGY: 1500000 0.1404 3.7900 3.0064 0.0000 -10801.5554 1386.1517 0.0000 0.0000 1745.2880 -7663.1789 294.1289 -9408.4668 -7610.6177 303.3084 -360.1295 -301.2754 30316.9991 -32.0162 30.5605
TCL: Running FEP window   3: Lambda1 0.8999999999999999 Lambda2 0.8499999999999999 [dLambda -0.050000000000000044]
TCL: Setting parameter firsttimestep to 0
TCL: Setting parameter alchLambda to 0.8999999999999999
Info: NONBONDED TABLE R-SQUARED SPACING: 0.0625
Info: NONBONDED TABLE SIZE: 705 POINTS
TCL: Setting parameter alchLambda2 to 0.8499999999999999
Info: NONBONDED TABLE R-SQUARED SPACING: 0.0625
Info: NONBONDED TABLE SIZE: 705 POINTS
TCL: Running for 1500000 steps
ETITLE: TS BOND ANGLE DIHED IMPRP ELECT VDW BOUNDARY MISC KINETIC TOTAL TEMP POTENTIAL TOTALAVG TEMPAVG PRESSURE GPRESSURE VOLUME PRESSAVG GPRESSAVG
ENERGY: 0 0.1404 3.7900 3.0064 0.0000 -10798.8298 1385.5254 0.0000 0.0000 1744.4232 -7661.9444 293.9831 -9406.3676 -7661.9444 293.9831 -379.6042 -311.0043 30316.9991 -379.6042 -311.0043
ENERGY: 300000 1.5024 1.1820 3.2609 0.0000 -10918.9784 1461.6093 0.0000 0.0000 1788.6997 -7662.7242 301.4449 -9451.4238 -7631.5842 303.5009 270.0509 318.6990 30143.7247 285.3657 331.3462
ENERGY: 600000 1.3217 2.0687 3.5730 0.0000 -10840.8022 1363.2175 0.0000 0.0000 1784.8072 -7685.8140 300.7890 -9470.6212 -7650.6263 302.0244 -873.7833 -851.0494 31150.3100 -85.8583 -47.2158
ENERGY: 900000 0.1564 2.3247 4.9626 0.0000 -10877.4774 1471.5183 0.0000 0.0000 1779.1677 -7619.3477 299.8386 -9398.5154 -7663.6065 299.8779 207.6616 316.7561 30606.6228 -74.1826 -22.5970
ENERGY: 1200000 2.3292 2.5171 3.3633 0.0000 -10912.2093 1392.3432 0.0000 0.0000 1745.4411 -7766.2155 294.1547 -9511.6566 -7673.1184 299.4649 -1011.0466 -929.2071 31239.5722 -214.8082 -155.1828
ENERGY: 1500000 0.9930 2.8113 3.7748 0.0000 -10816.1840 1434.1405 0.0000 0.0000 1759.7832 -7614.6811 296.5717 -9374.4643 -7670.6536 299.2227 -63.7633 19.5869 30552.8660 -154.6813 -95.3761
TCL: Running FEP window   4: Lambda1 0.8499999999999999 Lambda2 0.7999999999999998 [dLambda -0.050000000000000044]
TCL: Setting parameter firsttimestep to 0
TCL: Setting parameter alchLambda to 0.8499999999999999
Info: NONBONDED TABLE R-SQUARED SPACING: 0.0625
Info: NONBONDED TABLE SIZE: 705 POINTS
TCL: Setting parameter alchLambda2 to 0.7999999999999998
Info: NONBONDED TABLE R-SQUARED SPACING: 0.0625
Info: NONBONDED TABLE SIZE: 705 POINTS
TCL: Running for 1500000 steps
ETITLE: TS BOND ANGLE DIHED IMPRP ELECT VDW BOUNDARY MISC KINETIC TOTAL TEMP POTENTIAL TOTALAVG TEMPAVG PRESSURE GPRESSURE VOLUME PRESSAVG GPRESSAVG
ENERGY: 0 0.9930 2.8113 3.7748 0.0000 -10813.5830 1433.7925 0.0000 0.0000 1758.9116 -7613.2998 296.4248 -9372.2114 -7613.2998 296.4248 -66.1425 15.0178 30552.8660 -66.1425 15.0178
ENERGY: 300000 1.3472 1.3193 3.0597 0.0000 -11006.4982 1533.7700 0.0000 0.0000 1749.7858 -7717.2162 294.8869 -9467.0020 -7674.6439 293.5439 359.2750 416.2995 30734.3108 -119.6223 -57.9276
ENERGY: 600000 0.7919 3.3202 3.0411 0.0000 -10920.2333 1438.9779 0.0000 0.0000 1778.8418 -7695.2605 299.7836 -9474.1023 -7655.1399 296.8476 -447.3491 -381.7807 30801.8877 -45.5359 11.3267
ENERGY: 900000 0.6217 2.0030 4.4647 0.0000 -10917.6003 1491.2865 0.0000 0.0000 1870.1362 -7549.0882 315.1692 -9419.2245 -7633.8512 299.8393 400.9551 489.2732 30496.7908 -181.5644 -125.0642
ENERGY: 1200000 0.2984 2.9783 2.7452 0.0000 -10759.1365 1376.8262 0.0000 0.0000 1815.8998 -7560.3886 306.0289 -9376.2884 -7623.1165 300.1790 -660.2757 -592.2996 31102.0135 -285.9410 -235.6577
ENERGY: 1500000 1.3345 2.7884 3.0940 0.0000 -10808.0047 1409.6226 0.0000 0.0000 1749.1907 -7641.9744 294.7866 -9391.1651 -7624.6093 298.7155 -445.6761 -393.1587 30776.8571 -255.0222 -200.5666
TCL: Running FEP window   5: Lambda1 0.7999999999999998 Lambda2 0.7499999999999998 [dLambda -0.050000000000000044]
TCL: Setting parameter firsttimestep to 0
TCL: Setting parameter alchLambda to 0.7999999999999998
Info: NONBONDED TABLE R-SQUARED SPACING: 0.0625
Info: NONBONDED TABLE SIZE: 705 POINTS
TCL: Setting parameter alchLambda2 to 0.7499999999999998
Info: NONBONDED TABLE R-SQUARED SPACING: 0.0625
Info: NONBONDED TABLE SIZE: 705 POINTS
TCL: Running for 1500000 steps
ETITLE: TS BOND ANGLE DIHED IMPRP ELECT VDW BOUNDARY MISC KINETIC TOTAL TEMP POTENTIAL TOTALAVG TEMPAVG PRESSURE GPRESSURE VOLUME PRESSAVG GPRESSAVG
ENERGY: 0 1.3345 2.7885 3.0940 0.0000 -10805.4895 1409.0399 0.0000 0.0000 1748.3279 -7640.9048 294.6412 -9389.2326 -7640.9048 294.6412 -483.1827 -402.4087 30776.8571 -483.1827 -402.4087
ENERGY: 300000 0.2087 2.8483 2.7836 0.0000 -10817.5403 1410.4578 0.0000 0.0000 1805.8970 -7595.3448 304.3432 -9401.2418 -7612.3124 299.0833 -689.7718 -569.8626 31376.3514 -289.0931 -199.1016
ENERGY: 600000 1.4334 2.0560 3.4195 0.0000 -10821.5440 1453.1038 0.0000 0.0000 1772.1020 -7589.4292 298.6478 -9361.5312 -7599.3221 299.3235 111.3421 114.3191 31125.9690 78.7608 147.1195
ENERGY: 900000 0.1704 4.4436 2.6622 0.0000 -10849.1001 1465.0270 0.0000 0.0000 1775.5734 -7601.2236 299.2328 -9376.7970 -7613.1068 300.7686 391.2738 382.0692 30391.8180 150.2189 213.5943
ENERGY: 1200000 0.3478 2.9211 4.5471 0.0000 -10979.7885 1531.5010 0.0000 0.0000 1767.3068 -7673.1647 297.8397 -9440.4715 -7625.5269 299.9609 418.9970 424.8777 30766.4920 123.7996 189.4427
ENERGY: 1500000 0.4997 6.0151 3.4503 0.0000 -10767.7565 1373.7094 0.0000 0.0000 1742.7445 -7641.3375 293.7003 -9384.0821 -7631.3246 299.2344 -582.8970 -524.1474 30804.4139 -21.6193 42.9652
TCL: Running FEP window   6: Lambda1 0.7499999999999998 Lambda2 0.6999999999999997 [dLambda -0.050000000000000044]
TCL: Setting parameter firsttimestep to 0
TCL: Setting parameter alchLambda to 0.7499999999999998
Info: NONBONDED TABLE R-SQUARED SPACING: 0.0625
Info: NONBONDED TABLE SIZE: 705 POINTS
TCL: Setting parameter alchLambda2 to 0.6999999999999997
Info: NONBONDED TABLE R-SQUARED SPACING: 0.0625
Info: NONBONDED TABLE SIZE: 705 POINTS
TCL: Running for 1500000 steps
ETITLE: TS BOND ANGLE DIHED IMPRP ELECT VDW BOUNDARY MISC KINETIC TOTAL TEMP POTENTIAL TOTALAVG TEMPAVG PRESSURE GPRESSURE VOLUME PRESSAVG GPRESSAVG
ENERGY: 0 0.4997 6.0151 3.4503 0.0000 -10766.1222 1373.6351 0.0000 0.0000 1741.8407 -7640.6813 293.5479 -9382.5220 -7640.6813 293.5479 -602.3281 -527.1318 30804.4139 -602.3281 -527.1318
ENERGY: 300000 0.5016 3.4037 3.9965 0.0000 -10944.3520 1461.9899 0.0000 0.0000 1854.1212 -7620.3391 312.4703 -9474.4603 -7632.7866 299.7537 -148.3555 -80.8623 30963.7130 -41.5386 21.2260
ENERGY: 600000 0.2658 4.1673 3.4731 0.0000 -10807.2566 1390.3722 0.0000 0.0000 1759.8037 -7649.1745 296.5752 -9408.9781 -7621.9356 300.7519 -153.8509 -156.6509 30270.9555 -168.9937 -107.9353
ENERGY: 900000 0.1305 2.2395 2.3792 0.0000 -10858.7442 1407.4061 0.0000 0.0000 1820.6126 -7625.9763 306.8231 -9446.5889 -7630.8994 300.7627 -681.2785 -639.8992 31110.3206 -215.1909 -142.5194
ENERGY: 1200000 1.2271 1.9290 4.1927 0.0000 -10895.9043 1421.8789 0.0000 0.0000 1812.9963 -7653.6803 305.5396 -9466.6766 -7627.6157 301.7730 -707.8588 -650.1801 31177.5426 -246.2938 -189.3124
ENERGY: 1500000 0.5742 1.6841 2.6209 0.0000 -10833.0169 1403.3185 0.0000 0.0000 1837.2714 -7587.5479 309.6306 -9424.8193 -7617.5477 302.4017 -426.4252 -405.7579 30775.5927 -182.9416 -123.9971
TCL: Running FEP window   7: Lambda1 0.6999999999999997 Lambda2 0.6499999999999997 [dLambda -0.050000000000000044]
TCL: Setting parameter firsttimestep to 0
TCL: Setting parameter alchLambda to 0.6999999999999997
Info: NONBONDED TABLE R-SQUARED SPACING: 0.0625
Info: NONBONDED TABLE SIZE: 705 POINTS
TCL: Setting parameter alchLambda2 to 0.6499999999999997
Info: NONBONDED TABLE R-SQUARED SPACING: 0.0625
Info: NONBONDED TABLE SIZE: 705 POINTS
TCL: Running for 1500000 steps
ETITLE: TS BOND ANGLE DIHED IMPRP ELECT VDW BOUNDARY MISC KINETIC TOTAL TEMP POTENTIAL TOTALAVG TEMPAVG PRESSURE GPRESSURE VOLUME PRESSAVG GPRESSAVG
ENERGY: 0 0.5742 1.6841 2.6209 0.0000 -10830.7338 1403.0226 0.0000 0.0000 1836.3714 -7586.4607 309.4789 -9422.8321 -7586.4607 309.4789 -508.7211 -405.9348 30775.5927 -508.7211 -405.9348
ENERGY: 300000 3.1925 2.7913 4.4853 0.0000 -10930.2456 1455.7763 0.0000 0.0000 1757.1601 -7706.8401 296.1297 -9464.0002 -7605.8351 302.5464 -84.1609 -51.7188 30706.6056 -384.4020 -310.0146
ENERGY: 600000 0.1777 2.6019 3.2891 0.0000 -10906.2998 1478.3366 0.0000 0.0000 1792.4889 -7629.4056 302.0835 -9421.8945 -7623.4622 301.6355 146.8192 137.8154 30522.1066 -312.7377 -250.0755
ENERGY: 900000 0.2190 1.1270 2.4840 0.0000 -10856.9437 1435.0007 0.0000 0.0000 1858.8198 -7559.2933 313.2621 -9418.1131 -7608.9671 301.8222 -87.9559 -37.5135 30615.5299 -343.4268 -275.3077
ENERGY: 1200000 0.7761 1.9496 3.1094 0.0000 -10944.5136 1468.9530 0.0000 0.0000 1803.6394 -7666.0860 303.9627 -9469.7254 -7606.9729 302.3526 -120.3400 -76.1621 30779.4902 -205.0591 -140.7639
ENERGY: 1500000 0.7733 4.7324 3.0423 0.0000 -10882.4092 1440.5092 0.0000 0.0000 1717.3680 -7715.9841 289.4236 -9433.3521 -7615.0944 302.4753 -224.7742 -164.9956 30600.0831 -143.6212 -85.4717
TCL: Running FEP window   8: Lambda1 0.6499999999999997 Lambda2 0.5999999999999996 [dLambda -0.050000000000000044]
TCL: Setting parameter firsttimestep to 0
TCL: Setting parameter alchLambda to 0.6499999999999997
Info: NONBONDED TABLE R-SQUARED SPACING: 0.0625
Info: NONBONDED TABLE SIZE: 705 POINTS
TCL: Setting parameter alchLambda2 to 0.5999999999999996
Info: NONBONDED TABLE R-SQUARED SPACING: 0.0625
Info: NONBONDED TABLE SIZE: 705 POINTS
TCL: Running for 1500000 steps
ETITLE: TS BOND ANGLE DIHED IMPRP ELECT VDW BOUNDARY MISC KINETIC TOTAL TEMP POTENTIAL TOTALAVG TEMPAVG PRESSURE GPRESSURE VOLUME PRESSAVG GPRESSAVG
ENERGY: 0 0.7733 4.7325 3.0423 0.0000 -10880.2369 1439.7862 0.0000 0.0000 1716.4698 -7715.4328 289.2722 -9431.9027 -7715.4328 289.2722 -260.4397 -172.4216 30600.0831 -260.4397 -172.4216
ENERGY: 300000 0.2027 4.3676 3.7508 0.0000 -10837.3549 1372.1867 0.0000 0.0000 1785.8983 -7670.9489 300.9728 -9456.8472 -7649.0797 297.1217 -968.3474 -867.7174 30940.2193 -399.2014 -335.8780
ENERGY: 600000 1.0998 1.8234 3.2775 0.0000 -10944.9353 1440.2619 0.0000 0.0000 1823.0112 -7675.4617 307.2274 -9498.4728 -7644.7527 299.6022 -354.6313 -253.6729 30745.5069 -488.2479 -418.6594
ENERGY: 900000 0.3291 0.9565 2.9047 0.0000 -10916.4210 1500.4698 0.0000 0.0000 1773.0669 -7638.6940 298.8104 -9411.7609 -7647.1320 300.3549 549.8599 672.7780 29968.7864 -324.5769 -252.3138
ENERGY: 1200000 1.5773 2.6587 3.4347 0.0000 -11074.6498 1606.1901 0.0000 0.0000 1802.9295 -7657.8595 303.8431 -9460.7890 -7646.4414 300.3816 1020.9833 1094.7951 30437.7252 -215.0432 -148.5993
ENERGY: 1500000 1.1244 1.7423 3.8621 0.0000 -11019.5718 1521.9958 0.0000 0.0000 1709.6417 -7781.2055 288.1215 -9490.8472 -7652.6170 299.4864 331.9839 448.1738 30371.4256 -169.3512 -101.7944
TCL: Running FEP window   9: Lambda1 0.5999999999999996 Lambda2 0.5499999999999996 [dLambda -0.050000000000000044]
TCL: Setting parameter firsttimestep to 0
TCL: Setting parameter alchLambda to 0.5999999999999996
Info: NONBONDED TABLE R-SQUARED SPACING: 0.0625
Info: NONBONDED TABLE SIZE: 705 POINTS
TCL: Setting parameter alchLambda2 to 0.5499999999999996
Info: NONBONDED TABLE R-SQUARED SPACING: 0.0625
Info: NONBONDED TABLE SIZE: 705 POINTS
TCL: Running for 1500000 steps
ETITLE: TS BOND ANGLE DIHED IMPRP ELECT VDW BOUNDARY MISC KINETIC TOTAL TEMP POTENTIAL TOTALAVG TEMPAVG PRESSURE GPRESSURE VOLUME PRESSAVG GPRESSAVG
ENERGY: 0 1.1244 1.7423 3.8621 0.0000 -11017.4135 1521.2656 0.0000 0.0000 1708.7767 -7780.6424 287.9757 -9489.4191 -7780.6424 287.9757 361.3138 442.0314 30371.4256 361.3138 442.0314
ENERGY: 300000 2.3067 4.4599 2.9566 0.0000 -10675.2187 1331.2364 0.0000 0.0000 1796.8506 -7537.4085 302.8186 -9334.2592 -7657.1263 298.0054 -667.1868 -624.3572 30592.8917 -9.8477 45.9187
ENERGY: 600000 1.0152 3.7151 4.5462 0.0000 -10740.5688 1383.5441 0.0000 0.0000 1749.4496 -7598.2986 294.8302 -9347.7482 -7627.7896 298.6943 -544.2143 -484.1715 30897.6641 -78.1157 -18.5572
ENERGY: 900000 0.9917 1.6698 3.1858 0.0000 -10862.4659 1452.4770 0.0000 0.0000 1816.8563 -7587.2852 306.1901 -9404.1415 -7621.8536 300.9694 -64.5266 1.7182 30904.2349 -47.4787 7.8757
ENERGY: 1200000 0.9402 2.0711 2.5585 0.0000 -10900.2329 1444.6442 0.0000 0.0000 1765.3177 -7684.7013 297.5045 -9450.0190 -7628.8931 300.2800 101.5414 97.8169 30263.2540 -44.5604 12.4574
ENERGY: 1500000 0.3512 1.1263 2.6189 0.0000 -10912.3942 1426.5600 0.0000 0.0000 1759.7256 -7722.0121 296.5620 -9481.7378 -7635.7936 299.9293 -630.0496 -582.2597 31062.7338 -72.1318 -15.3531
TCL: Running FEP window  10: Lambda1 0.5499999999999996 Lambda2 0.4999999999999996 [dLambda -0.04999999999999999]
TCL: Setting parameter firsttimestep to 0
TCL: Setting parameter alchLambda to 0.5499999999999996
Info: NONBONDED TABLE R-SQUARED SPACING: 0.0625
Info: NONBONDED TABLE SIZE: 705 POINTS
TCL: Setting parameter alchLambda2 to 0.4999999999999996
Info: NONBONDED TABLE R-SQUARED SPACING: 0.0625
Info: NONBONDED TABLE SIZE: 705 POINTS
TCL: Running for 1500000 steps
ETITLE: TS BOND ANGLE DIHED IMPRP ELECT VDW BOUNDARY MISC KINETIC TOTAL TEMP POTENTIAL TOTALAVG TEMPAVG PRESSURE GPRESSURE VOLUME PRESSAVG GPRESSAVG
ENERGY: 0 0.3512 1.1263 2.6189 0.0000 -10911.3228 1426.5204 0.0000 0.0000 1758.8470 -7721.8589 296.4140 -9480.7059 -7721.8589 296.4140 -665.2924 -582.1857 31062.7338 -665.2924 -582.1857
ENERGY: 300000 0.0783 3.5213 4.6146 0.0000 -10893.8992 1460.8931 0.0000 0.0000 1731.9447 -7692.8472 291.8802 -9424.7919 -7622.9293 301.3629 -74.3849 3.5991 30617.5473 -601.7631 -500.3286
ENERGY: 600000 1.9865 2.4606 3.3459 0.0000 -10874.1475 1447.0685 0.0000 0.0000 1842.8749 -7576.4111 310.5750 -9419.2860 -7599.4485 304.6799 -529.9297 -409.4724 31183.4086 -593.7425 -498.9699
ENERGY: 900000 0.6036 5.8662 3.1409 0.0000 -10893.2792 1462.9115 0.0000 0.0000 1818.0825 -7602.6745 306.3968 -9420.7569 -7598.6346 304.4486 -264.0283 -211.7842 31122.6500 -450.5912 -361.6289
ENERGY: 1200000 0.1837 3.5519 3.6075 0.0000 -10758.9840 1403.3193 0.0000 0.0000 1816.4271 -7531.8944 306.1178 -9348.3216 -7603.3837 303.8842 -386.3718 -211.9597 30798.6394 -401.1842 -309.1344
ENERGY: 1500000 0.3371 1.4795 2.9243 0.0000 -10821.3070 1460.5451 0.0000 0.0000 1802.9735 -7553.0474 303.8505 -9356.0209 -7599.7838 303.0859 223.7110 246.5540 30656.1676 -288.4636 -204.9356
TCL: Running FEP window  11: Lambda1 0.4999999999999996 Lambda2 0.4499999999999996 [dLambda -0.04999999999999999]
TCL: Setting parameter firsttimestep to 0
TCL: Setting parameter alchLambda to 0.4999999999999996
Info: NONBONDED TABLE R-SQUARED SPACING: 0.0625
Info: NONBONDED TABLE SIZE: 705 POINTS
TCL: Setting parameter alchLambda2 to 0.4499999999999996
Info: NONBONDED TABLE R-SQUARED SPACING: 0.0625
Info: NONBONDED TABLE SIZE: 705 POINTS
TCL: Running for 1500000 steps
ETITLE: TS BOND ANGLE DIHED IMPRP ELECT VDW BOUNDARY MISC KINETIC TOTAL TEMP POTENTIAL TOTALAVG TEMPAVG PRESSURE GPRESSURE VOLUME PRESSAVG GPRESSAVG
ENERGY: 0 0.3371 1.4795 2.9243 0.0000 -10819.8831 1460.7384 0.0000 0.0000 1802.1104 -7552.2932 303.7050 -9354.4037 -7552.2932 303.7050 162.3640 250.4698 30656.1676 162.3640 250.4698
ENERGY: 300000 0.5389 4.8547 6.6735 0.0000 -10926.0924 1426.7406 0.0000 0.0000 1800.6691 -7686.6157 303.4621 -9487.2848 -7627.3295 301.9109 -380.0441 -312.2295 30443.6220 254.6421 322.5318
ENERGY: 600000 0.3278 6.1656 6.1150 0.0000 -10880.1734 1396.2110 0.0000 0.0000 1779.9762 -7691.3778 299.9748 -9471.3540 -7605.2018 302.3251 -350.6818 -276.3351 30058.0717 116.6461 193.7452
ENERGY: 900000 0.4440 3.3517 7.0912 0.0000 -10886.8425 1537.9980 0.0000 0.0000 1769.3557 -7568.6018 298.1850 -9337.9576 -7617.2367 301.0258 860.1289 882.9055 30514.1871 225.0295 299.6710
ENERGY: 1200000 0.3684 2.2831 6.8492 0.0000 -10755.1724 1362.4572 0.0000 0.0000 1762.8660 -7620.3486 297.0913 -9383.2146 -7608.7816 300.9453 -674.8871 -627.4838 30785.3454 94.9888 163.5360
ENERGY: 1500000 2.1160 1.3306 6.6876 0.0000 -10875.8342 1478.1573 0.0000 0.0000 1823.8130 -7563.7297 307.3625 -9387.5427 -7611.0784 301.8773 -93.1093 -37.4260 31439.4684 33.8671 103.6050
TCL: Running FEP window  12: Lambda1 0.4499999999999996 Lambda2 0.39999999999999963 [dLambda -0.04999999999999999]
TCL: Setting parameter firsttimestep to 0
TCL: Setting parameter alchLambda to 0.4499999999999996
Info: NONBONDED TABLE R-SQUARED SPACING: 0.0625
Info: NONBONDED TABLE SIZE: 705 POINTS
TCL: Setting parameter alchLambda2 to 0.39999999999999963
Info: NONBONDED TABLE R-SQUARED SPACING: 0.0625
Info: NONBONDED TABLE SIZE: 705 POINTS
TCL: Running for 1500000 steps
ETITLE: TS BOND ANGLE DIHED IMPRP ELECT VDW BOUNDARY MISC KINETIC TOTAL TEMP POTENTIAL TOTALAVG TEMPAVG PRESSURE GPRESSURE VOLUME PRESSAVG GPRESSAVG
ENERGY: 0 2.1160 1.3306 6.6876 0.0000 -10875.8350 1478.4159 0.0000 0.0000 1822.9336 -7564.3513 307.2143 -9387.2849 -7564.3513 307.2143 -114.5808 -36.4069 31439.4684 -114.5808 -36.4069
ENERGY: 300000 0.9855 4.1042 6.3590 0.0000 -10788.9776 1360.7140 0.0000 0.0000 1791.8274 -7624.9876 301.9721 -9416.8149 -7604.5125 304.7162 -569.6987 -533.9132 30335.8599 -200.9424 -156.3254
ENERGY: 600000 0.9566 3.9729 7.1030 0.0000 -10872.6711 1466.1088 0.0000 0.0000 1771.4132 -7623.1165 298.5317 -9394.5297 -7619.2122 303.6163 354.0894 381.3908 30066.5217 -60.5219 -6.0966
ENERGY: 900000 1.2895 2.5598 6.3950 0.0000 -10882.2725 1436.8299 0.0000 0.0000 1811.5494 -7623.6490 305.2958 -9435.1984 -7629.2454 301.9700 -452.6358 -373.7677 31119.0607 -126.0401 -65.4266
ENERGY: 1200000 2.8970 3.5898 6.6169 0.0000 -10796.8025 1412.6040 0.0000 0.0000 1785.6172 -7585.4776 300.9255 -9371.0948 -7623.2778 301.8316 220.6063 267.5108 30062.5098 -36.6159 23.7068
ENERGY: 1500000 1.4809 2.8737 6.8867 0.0000 -10915.3722 1450.1522 0.0000 0.0000 1783.5029 -7670.4758 300.5692 -9453.9787 -7625.5749 301.5202 -156.2459 -55.2053 30471.4779 -47.9474 15.1354
TCL: Running FEP window  13: Lambda1 0.39999999999999963 Lambda2 0.34999999999999964 [dLambda -0.04999999999999999]
TCL: Setting parameter firsttimestep to 0
TCL: Setting parameter alchLambda to 0.39999999999999963
Info: NONBONDED TABLE R-SQUARED SPACING: 0.0625
Info: NONBONDED TABLE SIZE: 705 POINTS
TCL: Setting parameter alchLambda2 to 0.34999999999999964
Info: NONBONDED TABLE R-SQUARED SPACING: 0.0625
Info: NONBONDED TABLE SIZE: 705 POINTS
TCL: Running for 1500000 steps
ETITLE: TS BOND ANGLE DIHED IMPRP ELECT VDW BOUNDARY MISC KINETIC TOTAL TEMP POTENTIAL TOTALAVG TEMPAVG PRESSURE GPRESSURE VOLUME PRESSAVG GPRESSAVG
ENERGY: 0 1.4809 2.8737 6.8867 0.0000 -10915.3717 1449.0187 0.0000 0.0000 1782.6210 -7672.4907 300.4205 -9455.1117 -7672.4907 300.4205 -156.4739 -66.7556 30471.4779 -156.4739 -66.7556
ENERGY: 300000 1.0411 5.0016 7.5602 0.0000 -10768.8065 1389.3278 0.0000 0.0000 1807.2881 -7558.5877 304.5776 -9365.8759 -7578.9830 303.3193 -310.4600 -258.8829 30671.8041 72.1143 145.2744
ENERGY: 600000 4.5593 4.9813 8.0969 0.0000 -10900.7366 1459.3811 0.0000 0.0000 1754.6147 -7669.1034 295.7007 -9423.7180 -7595.1721 300.6959 -166.8276 -113.6504 31305.1304 -53.4853 22.3475
ENERGY: 900000 1.0450 4.7478 6.4785 0.0000 -10753.0797 1366.8308 0.0000 0.0000 1799.4625 -7574.5151 303.2588 -9373.9776 -7607.1017 301.0929 -809.6264 -684.9406 31079.2190 -228.3054 -147.4262
ENERGY: 1200000 4.5173 5.9081 6.2517 0.0000 -10936.3358 1559.0044 0.0000 0.0000 1790.6421 -7570.0123 301.7723 -9360.6544 -7613.3531 301.4732 947.3166 995.4280 30753.4319 -31.2959 45.6352
ENERGY: 1500000 1.9097 3.8458 6.9949 0.0000 -10793.7220 1419.5496 0.0000 0.0000 1781.4127 -7580.0093 300.2169 -9361.4220 -7606.0730 301.3204 -179.0240 -104.3070 30817.6574 30.9076 108.0282
TCL: Running FEP window  14: Lambda1 0.34999999999999964 Lambda2 0.29999999999999966 [dLambda -0.04999999999999999]
TCL: Setting parameter firsttimestep to 0
TCL: Setting parameter alchLambda to 0.34999999999999964
Info: NONBONDED TABLE R-SQUARED SPACING: 0.0625
Info: NONBONDED TABLE SIZE: 705 POINTS
TCL: Setting parameter alchLambda2 to 0.29999999999999966
Info: NONBONDED TABLE R-SQUARED SPACING: 0.0625
Info: NONBONDED TABLE SIZE: 705 POINTS
TCL: Running for 1500000 steps
ETITLE: TS BOND ANGLE DIHED IMPRP ELECT VDW BOUNDARY MISC KINETIC TOTAL TEMP POTENTIAL TOTALAVG TEMPAVG PRESSURE GPRESSURE VOLUME PRESSAVG GPRESSAVG
ENERGY: 0 1.9097 3.8458 6.9949 0.0000 -10793.7213 1419.4376 0.0000 0.0000 1780.5231 -7581.0102 300.0670 -9361.5333 -7581.0102 300.0670 -189.8840 -108.6785 30817.6574 -189.8840 -108.6785
ENERGY: 300000 0.0868 6.7354 6.5681 0.0000 -10776.8153 1387.0977 0.0000 0.0000 1771.4880 -7604.8394 298.5443 -9376.3274 -7604.4179 301.1563 -412.2849 -361.4233 30559.4280 -213.8126 -146.5530
ENERGY: 600000 1.0438 3.2458 6.6623 0.0000 -10833.3090 1399.9636 0.0000 0.0000 1824.4937 -7597.8998 307.4772 -9422.3936 -7632.4165 299.0195 -224.0127 -120.2333 30254.8837 -236.2097 -157.0557
ENERGY: 900000 0.7319 5.1697 6.4765 0.0000 -10868.6262 1426.3484 0.0000 0.0000 1753.9933 -7675.9063 295.5960 -9429.8996 -7643.1089 298.3574 -421.1774 -264.5358 30665.8529 -286.9878 -204.4303
ENERGY: 1200000 0.3364 1.1813 6.6194 0.0000 -11020.4560 1551.8701 0.0000 0.0000 1776.0955 -7684.3533 299.3208 -9460.4488 -7638.4547 298.7747 600.0408 644.7281 30440.9474 -245.2983 -175.5107
ENERGY: 1500000 0.4386 2.1843 6.4863 0.0000 -10946.9563 1451.7610 0.0000 0.0000 1803.1738 -7682.9121 303.8842 -9486.0859 -7643.2517 299.0968 -320.1221 -210.2408 30617.5381 -216.2199 -147.0368
TCL: Running FEP window  15: Lambda1 0.29999999999999966 Lambda2 0.24999999999999967 [dLambda -0.04999999999999999]
TCL: Setting parameter firsttimestep to 0
TCL: Setting parameter alchLambda to 0.29999999999999966
Info: NONBONDED TABLE R-SQUARED SPACING: 0.0625
Info: NONBONDED TABLE SIZE: 705 POINTS
TCL: Setting parameter alchLambda2 to 0.24999999999999967
Info: NONBONDED TABLE R-SQUARED SPACING: 0.0625
Info: NONBONDED TABLE SIZE: 705 POINTS
TCL: Running for 1500000 steps
ETITLE: TS BOND ANGLE DIHED IMPRP ELECT VDW BOUNDARY MISC KINETIC TOTAL TEMP POTENTIAL TOTALAVG TEMPAVG PRESSURE GPRESSURE VOLUME PRESSAVG GPRESSAVG
ENERGY: 0 0.4386 2.1843 6.4863 0.0000 -10946.9565 1451.6838 0.0000 0.0000 1802.2597 -7683.9036 303.7302 -9486.1633 -7683.9036 303.7302 -298.4048 -214.9250 30617.5381 -298.4048 -214.9250
ENERGY: 300000 0.5221 4.7532 6.6076 0.0000 -10836.6914 1392.9798 0.0000 0.0000 1735.7533 -7696.0754 292.5220 -9431.8287 -7640.3480 299.0478 -723.1402 -638.7634 30913.9833 -289.4939 -205.8632
ENERGY: 600000 0.4540 2.4811 6.8459 0.0000 -10799.1239 1407.7563 0.0000 0.0000 1800.7476 -7580.8390 303.4754 -9381.5866 -7624.4823 301.6550 -359.8689 -321.0990 30829.6173 -419.0416 -345.6753
ENERGY: 900000 3.5381 5.1875 7.8809 0.0000 -10810.3628 1390.7439 0.0000 0.0000 1733.0448 -7669.9675 292.0656 -9403.0124 -7620.2550 299.8098 -727.0173 -627.2508 31163.3704 -406.0274 -333.4867
ENERGY: 1200000 1.3279 4.0361 7.1124 0.0000 -10996.9948 1479.0742 0.0000 0.0000 1769.1782 -7736.2660 298.1550 -9505.4442 -7635.8919 299.5573 -18.1965 51.2913 30330.8884 -420.5315 -351.2311
ENERGY: 1500000 0.4868 3.2506 6.6575 0.0000 -10960.2353 1470.4205 0.0000 0.0000 1781.7246 -7697.6954 300.2695 -9479.4199 -7645.0745 298.9419 27.4144 1.6918 30531.2362 -351.7657 -288.7264
TCL: Running FEP window  16: Lambda1 0.24999999999999967 Lambda2 0.19999999999999968 [dLambda -0.04999999999999999]
TCL: Setting parameter firsttimestep to 0
TCL: Setting parameter alchLambda to 0.24999999999999967
Info: NONBONDED TABLE R-SQUARED SPACING: 0.0625
Info: NONBONDED TABLE SIZE: 705 POINTS
TCL: Setting parameter alchLambda2 to 0.19999999999999968
Info: NONBONDED TABLE R-SQUARED SPACING: 0.0625
Info: NONBONDED TABLE SIZE: 705 POINTS
TCL: Running for 1500000 steps
ETITLE: TS BOND ANGLE DIHED IMPRP ELECT VDW BOUNDARY MISC KINETIC TOTAL TEMP POTENTIAL TOTALAVG TEMPAVG PRESSURE GPRESSURE VOLUME PRESSAVG GPRESSAVG
ENERGY: 0 0.4868 3.2506 6.6575 0.0000 -10960.2343 1470.4964 0.0000 0.0000 1780.8567 -7698.4864 300.1232 -9479.3431 -7698.4864 300.1232 -78.8252 -1.1508 30531.2362 -78.8252 -1.1508
ENERGY: 300000 2.1023 4.3761 6.6671 0.0000 -10899.2407 1499.0684 0.0000 0.0000 1739.6222 -7647.4045 293.1741 -9387.0268 -7657.2250 296.3145 380.5374 484.2714 30725.8122 153.0938 262.8900
ENERGY: 600000 0.6783 1.8409 6.7553 0.0000 -10927.4783 1491.3941 0.0000 0.0000 1759.4559 -7667.3539 296.5166 -9426.8097 -7665.4744 296.7469 76.0114 114.9111 30758.8388 3.2869 88.2330
ENERGY: 900000 2.1037 3.7706 7.0591 0.0000 -10935.7337 1481.8263 0.0000 0.0000 1805.1770 -7635.7970 304.2218 -9440.9740 -7654.9400 297.4000 33.7640 186.7478 30470.0425 -30.4929 56.7845
ENERGY: 1200000 0.8713 5.4158 6.6494 0.0000 -10864.1747 1400.0635 0.0000 0.0000 1816.3856 -7634.7891 306.1108 -9451.1748 -7641.1650 299.0915 -502.3374 -458.7789 30570.8617 -84.6418 -3.5548
ENERGY: 1500000 1.9490 4.4339 7.9371 0.0000 -10973.4924 1483.0343 0.0000 0.0000 1805.1224 -7671.0157 304.2126 -9476.1381 -7640.7151 299.7006 -74.8545 -55.5277 30683.5851 -26.7730 46.1879
TCL: Running FEP window  17: Lambda1 0.19999999999999968 Lambda2 0.1499999999999997 [dLambda -0.04999999999999999]
TCL: Setting parameter firsttimestep to 0
TCL: Setting parameter alchLambda to 0.19999999999999968
Info: NONBONDED TABLE R-SQUARED SPACING: 0.0625
Info: NONBONDED TABLE SIZE: 705 POINTS
TCL: Setting parameter alchLambda2 to 0.1499999999999997
Info: NONBONDED TABLE R-SQUARED SPACING: 0.0625
Info: NONBONDED TABLE SIZE: 705 POINTS
TCL: Running for 1500000 steps
ETITLE: TS BOND ANGLE DIHED IMPRP ELECT VDW BOUNDARY MISC KINETIC TOTAL TEMP POTENTIAL TOTALAVG TEMPAVG PRESSURE GPRESSURE VOLUME PRESSAVG GPRESSAVG
ENERGY: 0 1.9490 4.4339 7.9371 0.0000 -10973.4915 1482.8193 0.0000 0.0000 1804.2136 -7672.1386 304.0595 -9476.3522 -7672.1386 304.0595 -133.2748 -58.5267 30683.5851 -133.2748 -58.5267
ENERGY: 300000 1.5016 4.8638 6.8310 0.0000 -10695.6809 1332.1238 0.0000 0.0000 1802.3265 -7548.0340 303.7415 -9350.3606 -7631.2366 301.9447 -948.1617 -852.6364 31258.3635 -244.9973 -158.4921
ENERGY: 600000 0.2436 4.7879 6.9930 0.0000 -11001.0468 1537.8214 0.0000 0.0000 1779.2663 -7671.9346 299.8552 -9451.2010 -7644.2291 300.1927 773.0715 755.4782 30131.7334 -35.9951 30.9327
ENERGY: 900000 2.5798 7.0747 6.9715 0.0000 -11025.0826 1509.2110 0.0000 0.0000 1764.6207 -7734.6251 297.3870 -9499.2457 -7647.1226 300.6612 126.2924 193.3651 30520.5877 10.9256 67.5394
ENERGY: 1200000 2.0315 4.9340 6.1138 0.0000 -10925.0057 1448.6875 0.0000 0.0000 1790.6166 -7672.6223 301.7680 -9463.2389 -7654.5592 300.5474 -294.7913 -239.0030 30880.8036 43.8415 110.8101
ENERGY: 1500000 0.2720 5.3426 7.0009 0.0000 -10848.6437 1422.6282 0.0000 0.0000 1771.7586 -7641.6414 298.5899 -9413.4000 -7644.2992 300.9112 -363.9582 -260.1110 30784.3330 16.0348 83.9349
TCL: Running FEP window  18: Lambda1 0.1499999999999997 Lambda2 0.09999999999999969 [dLambda -0.05 ]
TCL: Setting parameter firsttimestep to 0
TCL: Setting parameter alchLambda to 0.1499999999999997
Info: NONBONDED TABLE R-SQUARED SPACING: 0.0625
Info: NONBONDED TABLE SIZE: 705 POINTS
TCL: Setting parameter alchLambda2 to 0.09999999999999969
Info: NONBONDED TABLE R-SQUARED SPACING: 0.0625
Info: NONBONDED TABLE SIZE: 705 POINTS
TCL: Running for 1500000 steps
ETITLE: TS BOND ANGLE DIHED IMPRP ELECT VDW BOUNDARY MISC KINETIC TOTAL TEMP POTENTIAL TOTALAVG TEMPAVG PRESSURE GPRESSURE VOLUME PRESSAVG GPRESSAVG
ENERGY: 0 0.2720 5.3426 7.0009 0.0000 -10848.6454 1422.8382 0.0000 0.0000 1770.8614 -7642.3304 298.4387 -9413.1917 -7642.3304 298.4387 -357.3395 -261.3746 30784.3330 -357.3395 -261.3746
ENERGY: 300000 0.2951 4.4687 6.2672 0.0000 -10918.7849 1493.2691 0.0000 0.0000 1741.3893 -7673.0954 293.4719 -9414.4847 -7634.9650 300.0923 199.0689 228.4184 30465.1393 239.6630 308.2047
ENERGY: 600000 0.5689 1.9857 6.6543 0.0000 -11074.5316 1584.8458 0.0000 0.0000 1849.8535 -7630.6233 311.7510 -9480.4768 -7619.1107 303.1637 770.8525 869.0618 30570.9889 78.5574 145.8780
ENERGY: 900000 2.8399 5.9451 8.6753 0.0000 -10875.7515 1521.0670 0.0000 0.0000 1740.9053 -7596.3189 293.3903 -9337.2243 -7628.5445 299.9987 755.7286 789.8985 30662.9509 78.9755 131.8686
ENERGY: 1200000 1.6919 2.1919 6.5692 0.0000 -10917.1618 1453.2984 0.0000 0.0000 1714.4473 -7738.9632 288.9314 -9453.4105 -7634.2862 298.4626 -128.9729 4.5148 30271.5617 12.7930 69.1199
ENERGY: 1500000 0.7180 1.5493 7.2391 0.0000 -10890.0483 1412.6456 0.0000 0.0000 1814.3039 -7653.5925 305.7600 -9467.8964 -7638.5299 299.3703 -493.2465 -479.8049 30692.9339 35.8996 87.1510
TCL: Running FEP window  19: Lambda1 0.09999999999999969 Lambda2 0.049999999999999684 [dLambda -0.05 ]
TCL: Setting parameter firsttimestep to 0
TCL: Setting parameter alchLambda to 0.09999999999999969
Info: NONBONDED TABLE R-SQUARED SPACING: 0.0625
Info: NONBONDED TABLE SIZE: 705 POINTS
TCL: Setting parameter alchLambda2 to 0.049999999999999684
Info: NONBONDED TABLE R-SQUARED SPACING: 0.0625
Info: NONBONDED TABLE SIZE: 705 POINTS
TCL: Running for 1500000 steps
ETITLE: TS BOND ANGLE DIHED IMPRP ELECT VDW BOUNDARY MISC KINETIC TOTAL TEMP POTENTIAL TOTALAVG TEMPAVG PRESSURE GPRESSURE VOLUME PRESSAVG GPRESSAVG
ENERGY: 0 0.7180 1.5493 7.2391 0.0000 -10890.0496 1411.8703 0.0000 0.0000 1813.4178 -7655.2552 305.6106 -9468.6730 -7655.2552 305.6106 -554.8229 -481.7382 30692.9339 -554.8229 -481.7382
ENERGY: 300000 0.4700 3.1280 6.2680 0.0000 -10864.7171 1442.3868 0.0000 0.0000 1759.7125 -7652.7518 296.5598 -9412.4643 -7646.5226 303.7885 -15.3001 -13.9328 30498.3544 -111.4671 -61.9246
ENERGY: 600000 0.8649 2.8960 6.3851 0.0000 -10842.3658 1458.1261 0.0000 0.0000 1724.9072 -7649.1865 290.6942 -9374.0937 -7634.8070 302.4583 53.8162 136.1477 30971.1191 -106.3219 -44.3480
ENERGY: 900000 0.5751 1.5768 6.7622 0.0000 -10867.2855 1456.0826 0.0000 0.0000 1727.0825 -7675.2062 291.0608 -9402.2888 -7649.5608 300.5915 -252.9791 -239.5733 31042.5959 -130.1922 -73.6825
ENERGY: 1200000 0.0507 3.0007 7.5673 0.0000 -10857.7539 1378.4140 0.0000 0.0000 1851.5778 -7617.1434 312.0416 -9468.7212 -7649.0976 300.7746 -749.2627 -699.7975 30701.5367 -235.4667 -174.4042
ENERGY: 1500000 1.0918 5.6123 7.5013 0.0000 -10889.7644 1486.5167 0.0000 0.0000 1820.1028 -7568.9396 306.7372 -9389.0424 -7638.8660 301.8888 114.1857 202.5175 31055.6631 -215.7715 -154.5875
TCL: Running FEP window  20: Lambda1 0.049999999999999684 Lambda2 0.0    [dLambda -0.049999999999999684]
TCL: Setting parameter firsttimestep to 0
TCL: Setting parameter alchLambda to 0.049999999999999684
Info: NONBONDED TABLE R-SQUARED SPACING: 0.0625
Info: NONBONDED TABLE SIZE: 705 POINTS
TCL: Setting parameter alchLambda2 to 0.0
Info: NONBONDED TABLE R-SQUARED SPACING: 0.0625
Info: NONBONDED TABLE SIZE: 705 POINTS
TCL: Running for 1500000 steps
ETITLE: TS BOND ANGLE DIHED IMPRP ELECT VDW BOUNDARY MISC KINETIC TOTAL TEMP POTENTIAL TOTALAVG TEMPAVG PRESSURE GPRESSURE VOLUME PRESSAVG GPRESSAVG
ENERGY: 0 1.0918 5.6123 7.5013 0.0000 -10889.7665 1486.3943 0.0000 0.0000 1819.1903 -7569.9765 306.5835 -9389.1668 -7569.9765 306.5835 123.6072 201.0681 31055.6631 123.6072 201.0681
ENERGY: 300000 0.3892 4.0126 6.9803 0.0000 -10872.2062 1477.1997 0.0000 0.0000 1732.0375 -7651.5869 291.8958 -9383.6244 -7603.3256 299.1916 -73.6333 -16.8547 31198.6255 -104.2233 -24.4835
ENERGY: 600000 2.2966 2.7825 7.0446 0.0000 -10799.5649 1431.8288 0.0000 0.0000 1770.0552 -7585.5572 298.3029 -9355.6124 -7613.7027 298.2353 94.6614 118.2430 30487.1857 -158.4889 -97.2486
ENERGY: 900000 0.7381 2.5127 7.8514 0.0000 -10866.4050 1409.7773 0.0000 0.0000 1773.5741 -7671.9513 298.8959 -9445.5254 -7625.0981 298.7518 -372.9382 -325.5290 30628.7200 -9.4354 54.1067
ENERGY: 1200000 0.7692 2.6954 6.6666 0.0000 -10834.8433 1417.8423 0.0000 0.0000 1759.7155 -7647.1543 296.5603 -9406.8698 -7632.3946 298.8308 -466.4073 -439.7976 30896.4752 28.7883 92.3001
ENERGY: 1500000 0.3677 2.1236 7.0237 0.0000 -10721.5250 1358.9011 0.0000 0.0000 1806.6761 -7546.4327 304.4745 -9353.1088 -7622.5834 299.6331 -543.3694 -518.2036 30509.8825 -99.7175 -37.9567
TCL: Exiting due to exit command.
