Info: SIMULATION PARAMETERS:
Info: TIMESTEP               2
Info: NUMBER OF STEPS        0
Info: STEPS PER CYCLE        10
Info: PERIODIC CELL BASIS 1  31.7244 0 0
Info: PERIODIC CELL BASIS 2  0 30.0458 0
Info: PERIODIC CELL BASIS 3  0 0 31.8953
Info: PERIODIC CELL CENTER   0 0 0
Info: WRAPPING WATERS AROUND PERIODIC BOUNDARIES ON OUTPUT.
Info: WRAPPING ALL CLUSTERS AROUND PERIODIC BOUNDARIES ON OUTPUT.
Info: FIRST LDB TIMESTEP     50
Info: LAST LDB TIMESTEP     -1
Info: HOM BACKGROUND SCALING 1
Info: PME BACKGROUND SCALING 1
Info: MIN ATOMS PER PATCH    40
Info: EMPTY PATCH LOAD       40 ATOMS
Info: VELOCITY FILE          mobley_6358463_equil.vel
Info: CENTER OF MASS MOVING INITIALLY? NO
Info: DIELECTRIC             1
Info: EXCLUDE                SCALED ONE-FOUR
Info: 1-4 ELECTROSTATICS SCALED BY 0.833333
Info: MODIFIED 1-4 VDW PARAMETERS WILL BE USED
Info: DCD FILENAME           mobley_6358463_prod.dcd
Info: DCD FREQUENCY          100000
Info: DCD FIRST STEP         100000
Info: DCD FILE WILL CONTAIN UNIT CELL DATA
Info: XST FILENAME           mobley_6358463_prod.xst
Info: XST FREQUENCY          100000
Info: NO VELOCITY DCD OUTPUT
Info: NO FORCE DCD OUTPUT
Info: OUTPUT FILENAME        mobley_6358463_prod
Info: BINARY OUTPUT FILES WILL BE USED
Info: RESTART FILENAME       mobley_6358463_prod.restart
Info: RESTART FREQUENCY      100000
Info: BINARY RESTART FILES WILL BE USED
Info: CUTOFF                 9
Info: PAIRLIST DISTANCE      11
Info: PAIRLIST SHRINK RATE   0.01
Info: PAIRLIST GROW RATE     0.01
Info: PAIRLIST TRIGGER       0.3
Info: PAIRLISTS PER CYCLE    2
Info: PAIRLISTS ENABLED
Info: MARGIN                 2
Info: HYDROGEN GROUP CUTOFF  2.5
Info: PATCH DIMENSION        15.5
Info: ENERGY OUTPUT STEPS    100000
Info: ENERGY EVALUATION STEPS    100000
Info: OUTPUT ENERGY PRECISION 4
Info: CROSSTERM ENERGY INCLUDED IN DIHEDRAL
Info: TIMING OUTPUT STEPS    1000000
Info: PRESSURE OUTPUT STEPS  100000
Info: ALCHEMICAL FEP ON
Info: FEP CURRENT LAMBDA VALUE     1
Info: FEP COMPARISON LAMBDA VALUE  0.95
Info: FEP INTRA-ALCHEMICAL NON-BONDED INTERACTIONS WILL BE RETAINED
Info: FEP INTRA-ALCHEMICAL BONDED INTERACTIONS WILL BE RETAINED
Info: FEP VDW SHIFTING COEFFICIENT 5
Info: FEP ELEC. ACTIVE FOR ANNIHILATED PARTICLES BETWEEN LAMBDA = 0 AND LAMBDA = 0.5
Info: FEP ELEC. ACTIVE FOR EXNIHILATED PARTICLES BETWEEN LAMBDA = 0.5 AND LAMBDA = 1
Info: FEP VDW ACTIVE FOR ANNIHILATED PARTICLES BETWEEN LAMBDA = 0 AND LAMBDA = 1
Info: FEP VDW ACTIVE FOR EXNIHILATED PARTICLES BETWEEN LAMBDA = 0 AND LAMBDA = 1
Info: FEP BOND ACTIVE FOR ANNIHILATED PARTICLES BETWEEN LAMBDA = 1 AND LAMBDA = 1
Info: FEP BOND ACTIVE FOR EXNIHILATED PARTICLES BETWEEN LAMBDA = 0 AND LAMBDA = 0
Info: LANGEVIN DYNAMICS ACTIVE
Info: LANGEVIN TEMPERATURE   300
Info: LANGEVIN USING BBK INTEGRATOR
Info: LANGEVIN DAMPING COEFFICIENT IS 1 INVERSE PS
Info: LANGEVIN DYNAMICS APPLIED TO HYDROGENS
Info: LANGEVIN PISTON PRESSURE CONTROL ACTIVE
Info:        TARGET PRESSURE IS 1.01325 BAR
Info:     OSCILLATION PERIOD IS 50 FS
Info:             DECAY TIME IS 25 FS
Info:     PISTON TEMPERATURE IS 300 K
Info:       PRESSURE CONTROL IS GROUP-BASED
Info:    INITIAL STRAIN RATE IS 0.000189367 0.000189367 0.000189367
Info:       CELL FLUCTUATION IS ISOTROPIC
Info: PARTICLE MESH EWALD (PME) ACTIVE
Info: PME TOLERANCE               1e-06
Info: PME EWALD COEFFICIENT       0.348832
Info: PME INTERPOLATION ORDER     4
Info: PME GRID DIMENSIONS         32 32 32
Info: PME MAXIMUM GRID SPACING    1
Info: PME CALCULATION WILL BE PERFORMED ON GPU
Info: FULL ELECTROSTATIC EVALUATION FREQUENCY      2
Info: USING VERLET I (r-RESPA) MTS SCHEME.
Info: C1 SPLITTING OF LONG RANGE ELECTROSTATICS
Info: PLACING ATOMS IN PATCHES BY HYDROGEN GROUPS
Info: RIGID BONDS TO HYDROGEN : ALL
Info:         ERROR TOLERANCE : 1e-08
Info:          MAX ITERATIONS : 100
Info: RIGID WATER USING SETTLE ALGORITHM
Info: RANDOM NUMBER SEED     1743614685
Info: USE HYDROGEN BONDS?    NO
Info: Using AMBER format force field!
Info: AMBER PARM FILE        mobley_6358463.prmtop
Info: COORDINATE PDB         mobley_6358463.pdb
Info: Exclusions will be read from PARM file!
Info: SCNB (VDW SCALING)     2
Info: USING ARITHMETIC MEAN TO COMBINE L-J SIGMA PARAMETERS
Info: BINARY COORDINATES     mobley_6358463_equil.coor
Info: SUMMARY OF PARAMETERS:
Info: 6 BONDS
Info: 5 ANGLES
Info:   5 HARMONIC
Info:   0 COSINE-BASED
Info: 3 DIHEDRAL
Info: 0 IMPROPER
Info: 0 CROSSTERM
Info: 0 VDW
Info: 21 VDW_PAIRS
Info: 0 NBTHOLE_PAIRS
Info: To read alchdata from file: mobley_6358463.pdb
Info: To read alchflag data from column: 5
Info: STRUCTURE SUMMARY:
Info: 2940 ATOMS
Info: 2940 BONDS
Info: 30 ANGLES
Info: 42 DIHEDRALS
Info: 0 IMPROPERS
Info: 0 CROSSTERMS
Info: 3003 EXCLUSIONS
Info: 2926 RIGID BONDS
Info: ALCH: 0 ATOMS TO DISAPPEAR IN FINAL STATE
Info: ALCH: 18 ATOMS TO APPEAR IN FINAL STATE
Info: 5894 DEGREES OF FREEDOM
Info: 988 HYDROGEN GROUPS
Info: 3 ATOMS IN LARGEST HYDROGEN GROUP
Info: 988 MIGRATION GROUPS
Info: 3 ATOMS IN LARGEST MIGRATION GROUP
Info: TOTAL MASS = 17761.7 amu
Info: TOTAL CHARGE = 0.000300027 e
Info: MASS DENSITY = 0.970152 g/cm^3
Info: ATOM DENSITY = 0.0967037 atoms/A^3
Info: ADDED 0 IMPLICIT EXCLUSIONS
Info: NONBONDED TABLE R-SQUARED SPACING: 0.0625
Info: NONBONDED TABLE SIZE: 705 POINTS
Info: REMOVING COM VELOCITY 0.071155 0.138207 -0.0330366
Info: Use 3D box decompostion in PME FFT.
Info: Updated CUDA force table with 4096 elements.
Info: Updated CUDA LJ table with 6 x 6 elements.
Info: Found 20 unique exclusion lists needing 52 bytes
TCL: Running for 1500000 steps
ETITLE: TS BOND ANGLE DIHED IMPRP ELECT VDW BOUNDARY MISC KINETIC TOTAL TEMP POTENTIAL TOTALAVG TEMPAVG PRESSURE GPRESSURE VOLUME PRESSAVG GPRESSAVG
ENERGY: 0 9.2771 8.6763 1.7220 0.0000 -10662.9963 1459.5508 0.0000 0.0000 1777.7527 -7406.0173 303.5649 -9183.7700 -7406.0173 303.5649 -28.2363 58.4235 30402.1337 -28.2363 58.4235
ENERGY: 300000 4.6586 8.1225 2.6994 0.0000 -10614.3286 1446.7539 0.0000 0.0000 1781.3739 -7370.7202 304.1833 -9152.0941 -7396.5923 304.8028 273.3818 279.8756 30261.7949 -94.9631 -48.3159
ENERGY: 600000 5.6322 6.3335 3.4456 0.0000 -10633.2977 1447.2723 0.0000 0.0000 1734.4157 -7436.1984 296.1648 -9170.6141 -7420.0206 299.9384 118.8346 196.3076 30443.3867 -76.4835 -20.7103
ENERGY: 900000 6.3315 8.4961 4.6052 0.0000 -10809.6456 1566.6522 0.0000 0.0000 1696.8157 -7526.7448 289.7443 -9223.5605 -7430.9523 298.4604 662.2582 712.3731 30670.4389 4.9926 63.1347
ENERGY: 1200000 5.5649 5.5472 2.4573 0.0000 -10556.1557 1422.5819 0.0000 0.0000 1736.5319 -7383.4726 296.5262 -9120.0044 -7423.9402 298.8000 26.7212 90.6213 30536.8463 45.6494 100.8872
ENERGY: 1500000 4.9027 7.3748 1.9002 0.0000 -10448.9666 1390.7586 0.0000 0.0000 1738.0251 -7306.0054 296.7811 -9044.0304 -7419.5781 298.2627 -155.2704 -49.4971 30520.0309 42.0862 103.1753
TCL: Running FEP window   2: Lambda1 0.95   Lambda2 0.8999999999999999 [dLambda -0.050000000000000044]
TCL: Setting parameter firsttimestep to 0
TCL: Setting parameter alchLambda to 0.95
Info: NONBONDED TABLE R-SQUARED SPACING: 0.0625
Info: NONBONDED TABLE SIZE: 705 POINTS
TCL: Setting parameter alchLambda2 to 0.8999999999999999
Info: NONBONDED TABLE R-SQUARED SPACING: 0.0625
Info: NONBONDED TABLE SIZE: 705 POINTS
TCL: Running for 1500000 steps
ETITLE: TS BOND ANGLE DIHED IMPRP ELECT VDW BOUNDARY MISC KINETIC TOTAL TEMP POTENTIAL TOTALAVG TEMPAVG PRESSURE GPRESSURE VOLUME PRESSAVG GPRESSAVG
ENERGY: 0 4.9027 7.3748 1.9002 0.0000 -10448.1864 1390.8798 0.0000 0.0000 1737.1807 -7305.9483 296.6369 -9043.1289 -7305.9483 296.6369 -145.0124 -59.8832 30520.0309 -145.0124 -59.8832
ENERGY: 300000 6.6952 9.6471 3.6307 0.0000 -10470.5485 1370.2421 0.0000 0.0000 1748.8258 -7331.5075 298.6254 -9080.3333 -7334.9475 302.3309 -325.4740 -313.6700 30852.8570 -254.5753 -195.5869
ENERGY: 600000 4.6013 9.2436 5.9338 0.0000 -10632.9857 1443.1074 0.0000 0.0000 1732.2222 -7437.8773 295.7903 -9170.0995 -7373.4119 299.9308 -0.4041 84.4283 30232.2963 -257.8375 -183.9491
ENERGY: 900000 5.5977 5.9994 2.3670 0.0000 -10618.3469 1429.0321 0.0000 0.0000 1776.1372 -7399.2134 303.2891 -9175.3506 -7375.1796 300.7714 -57.0170 19.0261 30585.2331 -197.8849 -126.6260
ENERGY: 1200000 8.0133 9.1914 2.1223 0.0000 -10654.5518 1407.4753 0.0000 0.0000 1718.5162 -7509.2333 293.4498 -9227.7495 -7380.3112 301.3150 -314.0547 -314.3006 30524.2529 -122.8434 -60.6404
ENERGY: 1500000 5.3405 6.9486 3.2825 0.0000 -10504.6019 1393.7315 0.0000 0.0000 1791.6250 -7303.6738 305.9337 -9095.2988 -7378.7210 301.4160 -110.7757 -63.0039 30586.2996 -68.5319 -9.8618
TCL: Running FEP window   3: Lambda1 0.8999999999999999 Lambda2 0.8499999999999999 [dLambda -0.050000000000000044]
TCL: Setting parameter firsttimestep to 0
TCL: Setting parameter alchLambda to 0.8999999999999999
Info: NONBONDED TABLE R-SQUARED SPACING: 0.0625
Info: NONBONDED TABLE SIZE: 705 POINTS
TCL: Setting parameter alchLambda2 to 0.8499999999999999
Info: NONBONDED TABLE R-SQUARED SPACING: 0.0625
Info: NONBONDED TABLE SIZE: 705 POINTS
TCL: Running for 1500000 steps
ETITLE: TS BOND ANGLE DIHED IMPRP ELECT VDW BOUNDARY MISC KINETIC TOTAL TEMP POTENTIAL TOTALAVG TEMPAVG PRESSURE GPRESSURE VOLUME PRESSAVG GPRESSAVG
ENERGY: 0 5.3405 6.9486 3.2825 0.0000 -10503.8707 1393.0074 0.0000 0.0000 1790.7772 -7304.5144 305.7890 -9095.2917 -7304.5144 305.7890 -152.8319 -85.7566 30586.2996 -152.8319 -85.7566
ENERGY: 300000 5.6660 8.7752 3.4220 0.0000 -10752.4325 1467.8129 0.0000 0.0000 1722.0425 -7544.7139 294.0520 -9266.7564 -7438.3409 302.2347 -224.1343 -203.6018 30627.3313 -103.1407 -61.3956
ENERGY: 600000 4.7089 9.1100 2.4685 0.0000 -10626.7302 1459.1843 0.0000 0.0000 1784.1633 -7367.0952 304.6596 -9151.2585 -7417.4733 302.2841 270.6354 322.0081 30272.8067 -5.3676 45.4685
ENERGY: 900000 7.4929 6.6101 4.8625 0.0000 -10596.7448 1341.1564 0.0000 0.0000 1739.4672 -7497.1557 297.0274 -9236.6229 -7425.0157 301.4775 -719.8663 -667.7290 30019.8674 -72.1562 -12.6759
ENERGY: 1200000 3.1395 7.7776 4.0852 0.0000 -10530.0734 1370.7154 0.0000 0.0000 1755.9414 -7388.4143 299.8405 -9144.3556 -7418.7096 300.7011 -567.3328 -478.4030 30756.2568 -91.0885 -22.9904
ENERGY: 1500000 2.0196 7.3003 4.6885 0.0000 -10616.1787 1448.0188 0.0000 0.0000 1774.1376 -7380.0139 302.9476 -9154.1515 -7419.3999 300.5874 292.9527 346.8096 30210.1537 -44.5582 23.9879
TCL: Running FEP window   4: Lambda1 0.8499999999999999 Lambda2 0.7999999999999998 [dLambda -0.050000000000000044]
TCL: Setting parameter firsttimestep to 0
TCL: Setting parameter alchLambda to 0.8499999999999999
Info: NONBONDED TABLE R-SQUARED SPACING: 0.0625
Info: NONBONDED TABLE SIZE: 705 POINTS
TCL: Setting parameter alchLambda2 to 0.7999999999999998
Info: NONBONDED TABLE R-SQUARED SPACING: 0.0625
Info: NONBONDED TABLE SIZE: 705 POINTS
TCL: Running for 1500000 steps
ETITLE: TS BOND ANGLE DIHED IMPRP ELECT VDW BOUNDARY MISC KINETIC TOTAL TEMP POTENTIAL TOTALAVG TEMPAVG PRESSURE GPRESSURE VOLUME PRESSAVG GPRESSAVG
ENERGY: 0 2.0196 7.3003 4.6885 0.0000 -10615.4792 1448.8352 0.0000 0.0000 1773.2736 -7379.3620 302.8001 -9152.6356 -7379.3620 302.8001 251.9284 343.5570 30210.1537 251.9284 343.5570
ENERGY: 300000 3.1172 8.8956 2.0838 0.0000 -10605.7720 1487.6934 0.0000 0.0000 1748.3755 -7355.6065 298.5485 -9103.9820 -7396.6402 303.6158 677.0892 744.4340 30280.9254 79.9410 170.3567
ENERGY: 600000 4.7623 8.4494 6.0109 0.0000 -10652.2701 1466.5501 0.0000 0.0000 1784.7553 -7381.7421 304.7607 -9166.4974 -7388.5180 303.5645 177.9865 180.3354 30312.2961 120.8503 191.5844
ENERGY: 900000 4.7869 8.9899 3.2449 0.0000 -10612.0566 1435.9611 0.0000 0.0000 1755.6569 -7403.4168 299.7919 -9159.0737 -7400.6938 301.5359 5.5420 -0.4271 30419.8517 186.7675 240.5120
ENERGY: 1200000 4.3457 4.0453 2.4869 0.0000 -10463.9347 1297.7153 0.0000 0.0000 1775.4554 -7379.8860 303.1727 -9155.3415 -7392.9983 301.6351 -816.4709 -759.7528 29955.8891 40.1477 93.7671
ENERGY: 1500000 5.1166 6.6803 1.6554 0.0000 -10569.1157 1348.6915 0.0000 0.0000 1762.9596 -7444.0122 301.0389 -9206.9718 -7392.1291 301.3798 -809.9394 -709.6231 30356.6844 -20.8169 35.6967
TCL: Running FEP window   5: Lambda1 0.7999999999999998 Lambda2 0.7499999999999998 [dLambda -0.050000000000000044]
TCL: Setting parameter firsttimestep to 0
TCL: Setting parameter alchLambda to 0.7999999999999998
Info: NONBONDED TABLE R-SQUARED SPACING: 0.0625
Info: NONBONDED TABLE SIZE: 705 POINTS
TCL: Setting parameter alchLambda2 to 0.7499999999999998
Info: NONBONDED TABLE R-SQUARED SPACING: 0.0625
Info: NONBONDED TABLE SIZE: 705 POINTS
TCL: Running for 1500000 steps
ETITLE: TS BOND ANGLE DIHED IMPRP ELECT VDW BOUNDARY MISC KINETIC TOTAL TEMP POTENTIAL TOTALAVG TEMPAVG PRESSURE GPRESSURE VOLUME PRESSAVG GPRESSAVG
ENERGY: 0 5.1166 6.6803 1.6555 0.0000 -10568.5461 1348.7589 0.0000 0.0000 1762.0539 -7444.2810 300.8842 -9206.3349 -7444.2810 300.8842 -800.7454 -719.5484 30356.6844 -800.7454 -719.5484
ENERGY: 300000 7.7072 9.1184 5.8755 0.0000 -10560.0346 1379.9749 0.0000 0.0000 1772.5053 -7384.8534 302.6689 -9157.3587 -7406.0737 302.8703 -636.5639 -561.1133 30233.3138 -585.2214 -522.2740
ENERGY: 600000 3.8032 7.6868 4.5317 0.0000 -10628.9641 1390.8572 0.0000 0.0000 1828.2129 -7393.8723 312.1814 -9222.0852 -7411.8919 304.2440 -551.4796 -435.9383 30567.3876 -526.0013 -459.7076
ENERGY: 900000 5.9639 9.0742 1.6487 0.0000 -10716.7746 1528.5727 0.0000 0.0000 1762.6251 -7408.8901 300.9818 -9171.5152 -7423.1499 301.7427 947.8189 955.2625 29884.5690 -317.5414 -260.1324
ENERGY: 1200000 4.2632 5.9443 2.1807 0.0000 -10648.4243 1476.1071 0.0000 0.0000 1782.5355 -7377.3934 304.3816 -9159.9289 -7411.7744 301.4658 365.6617 421.3806 30065.8213 -247.9817 -184.0120
ENERGY: 1500000 5.8479 5.2899 1.3080 0.0000 -10783.7910 1426.5559 0.0000 0.0000 1775.9632 -7568.8261 303.2594 -9344.7893 -7423.9905 301.1823 -577.5286 -493.6103 30253.2046 -202.4515 -132.0972
TCL: Running FEP window   6: Lambda1 0.7499999999999998 Lambda2 0.6999999999999997 [dLambda -0.050000000000000044]
TCL: Setting parameter firsttimestep to 0
TCL: Setting parameter alchLambda to 0.7499999999999998
Info: NONBONDED TABLE R-SQUARED SPACING: 0.0625
Info: NONBONDED TABLE SIZE: 705 POINTS
TCL: Setting parameter alchLambda2 to 0.6999999999999997
Info: NONBONDED TABLE R-SQUARED SPACING: 0.0625
Info: NONBONDED TABLE SIZE: 705 POINTS
TCL: Running for 1500000 steps
ETITLE: TS BOND ANGLE DIHED IMPRP ELECT VDW BOUNDARY MISC KINETIC TOTAL TEMP POTENTIAL TOTALAVG TEMPAVG PRESSURE GPRESSURE VOLUME PRESSAVG GPRESSAVG
ENERGY: 0 5.8479 5.2899 1.3080 0.0000 -10783.2881 1425.7535 0.0000 0.0000 1775.1020 -7569.9868 303.1123 -9345.0889 -7569.9868 303.1123 -583.1500 -512.6766 30253.2046 -583.1500 -512.6766
ENERGY: 300000 4.3055 8.6486 1.8776 0.0000 -10653.8809 1457.3741 0.0000 0.0000 1737.8252 -7443.8499 296.7470 -9181.6751 -7443.1134 300.0445 215.1125 322.5908 30074.5035 29.8469 102.6485
ENERGY: 600000 5.8200 11.5463 3.0644 0.0000 -10641.7263 1461.4407 0.0000 0.0000 1748.6198 -7411.2351 298.5903 -9159.8549 -7419.2870 298.8377 284.2256 335.3358 30248.3751 225.1743 283.9146
ENERGY: 900000 5.2894 7.9319 1.3037 0.0000 -10519.3098 1346.6114 0.0000 0.0000 1731.3409 -7426.8325 295.6398 -9158.1733 -7404.8127 300.2639 -833.2564 -808.1674 30614.0425 106.4144 153.5198
ENERGY: 1200000 5.9885 5.7336 6.1123 0.0000 -10441.8424 1330.5273 0.0000 0.0000 1713.0496 -7380.4311 292.5164 -9093.4808 -7400.5551 300.0216 -811.3530 -691.2746 30576.2522 78.2400 130.9635
ENERGY: 1500000 7.6204 8.4506 3.0386 0.0000 -10666.7092 1528.8701 0.0000 0.0000 1763.2323 -7355.4973 301.0855 -9118.7295 -7401.3015 300.2045 535.5475 598.3183 30578.1619 114.9652 171.0723
TCL: Running FEP window   7: Lambda1 0.6999999999999997 Lambda2 0.6499999999999997 [dLambda -0.050000000000000044]
TCL: Setting parameter firsttimestep to 0
TCL: Setting parameter alchLambda to 0.6999999999999997
Info: NONBONDED TABLE R-SQUARED SPACING: 0.0625
Info: NONBONDED TABLE SIZE: 705 POINTS
TCL: Setting parameter alchLambda2 to 0.6499999999999997
Info: NONBONDED TABLE R-SQUARED SPACING: 0.0625
Info: NONBONDED TABLE SIZE: 705 POINTS
TCL: Running for 1500000 steps
ETITLE: TS BOND ANGLE DIHED IMPRP ELECT VDW BOUNDARY MISC KINETIC TOTAL TEMP POTENTIAL TOTALAVG TEMPAVG PRESSURE GPRESSURE VOLUME PRESSAVG GPRESSAVG
ENERGY: 0 7.6204 8.4506 3.0386 0.0000 -10666.3435 1529.4401 0.0000 0.0000 1762.3830 -7355.4107 300.9404 -9117.7938 -7355.4107 300.9404 509.2621 594.7753 30578.1619 509.2621 594.7753
ENERGY: 300000 5.4443 5.5783 1.1091 0.0000 -10551.9264 1404.1401 0.0000 0.0000 1720.5795 -7415.0751 293.8022 -9135.6546 -7363.8769 299.1698 -154.6230 -94.4327 30017.3523 106.4946 181.2949
ENERGY: 600000 5.7154 8.2483 2.4477 0.0000 -10548.3282 1428.3196 0.0000 0.0000 1722.9220 -7380.6752 294.2022 -9103.5973 -7387.5403 297.0803 0.7192 -43.4598 30664.0570 -104.7013 -56.5541
ENERGY: 900000 7.7252 8.4902 3.4296 0.0000 -10615.1723 1440.2358 0.0000 0.0000 1782.2295 -7373.0620 304.3294 -9155.2915 -7392.2182 297.3872 -149.5147 -106.8904 30540.5742 -66.6679 -5.2654
ENERGY: 1200000 6.1010 7.5111 2.6587 0.0000 -10793.2598 1533.5056 0.0000 0.0000 1773.7560 -7469.7274 302.8825 -9243.4835 -7384.4517 298.9678 952.3898 962.5375 29655.9424 42.9630 105.0287
ENERGY: 1500000 4.9999 5.9681 1.6165 0.0000 -10709.2966 1474.9365 0.0000 0.0000 1812.8790 -7408.8967 309.5630 -9221.7757 -7392.3088 300.1013 301.5986 394.8480 30157.6798 55.8322 122.5931
TCL: Running FEP window   8: Lambda1 0.6499999999999997 Lambda2 0.5999999999999996 [dLambda -0.050000000000000044]
TCL: Setting parameter firsttimestep to 0
TCL: Setting parameter alchLambda to 0.6499999999999997
Info: NONBONDED TABLE R-SQUARED SPACING: 0.0625
Info: NONBONDED TABLE SIZE: 705 POINTS
TCL: Setting parameter alchLambda2 to 0.5999999999999996
Info: NONBONDED TABLE R-SQUARED SPACING: 0.0625
Info: NONBONDED TABLE SIZE: 705 POINTS
TCL: Running for 1500000 steps
ETITLE: TS BOND ANGLE DIHED IMPRP ELECT VDW BOUNDARY MISC KINETIC TOTAL TEMP POTENTIAL TOTALAVG TEMPAVG PRESSURE GPRESSURE VOLUME PRESSAVG GPRESSAVG
ENERGY: 0 4.9999 5.9681 1.6165 0.0000 -10708.5895 1475.3443 0.0000 0.0000 1812.0154 -7408.6454 309.4155 -9220.6608 -7408.6454 309.4155 299.0945 393.3857 30157.6798 299.0945 393.3857
ENERGY: 300000 4.9594 4.5567 2.5838 0.0000 -10745.7359 1522.9322 0.0000 0.0000 1771.8314 -7438.8724 302.5538 -9210.7038 -7421.4149 299.6532 618.6974 628.6013 30028.5829 176.4997 216.8876
ENERGY: 600000 2.9670 9.1957 2.9003 0.0000 -10592.7949 1386.2448 0.0000 0.0000 1730.6152 -7460.8718 295.5158 -9191.4870 -7439.0649 298.9340 -98.8495 -134.7876 29882.6517 56.2423 83.4185
ENERGY: 900000 7.2492 8.3520 3.5177 0.0000 -10500.9308 1387.4692 0.0000 0.0000 1745.3732 -7348.9695 298.0359 -9094.3427 -7430.0935 299.2497 -271.7439 -204.8097 30562.0107 18.7551 46.0806
ENERGY: 1200000 8.1801 5.7290 3.5730 0.0000 -10500.4588 1395.7218 0.0000 0.0000 1732.0449 -7355.2099 295.7600 -9087.2549 -7423.3047 299.5052 -269.0766 -234.0163 30531.9970 183.4966 214.9954
ENERGY: 1500000 12.1451 5.2414 2.4957 0.0000 -10461.4030 1397.7870 0.0000 0.0000 1739.3882 -7304.3456 297.0139 -9043.7338 -7410.6933 300.3350 -264.0581 -127.0710 30465.1508 100.3338 140.4853
TCL: Running FEP window   9: Lambda1 0.5999999999999996 Lambda2 0.5499999999999996 [dLambda -0.050000000000000044]
TCL: Setting parameter firsttimestep to 0
TCL: Setting parameter alchLambda to 0.5999999999999996
Info: NONBONDED TABLE R-SQUARED SPACING: 0.0625
Info: NONBONDED TABLE SIZE: 705 POINTS
TCL: Setting parameter alchLambda2 to 0.5499999999999996
Info: NONBONDED TABLE R-SQUARED SPACING: 0.0625
Info: NONBONDED TABLE SIZE: 705 POINTS
TCL: Running for 1500000 steps
ETITLE: TS BOND ANGLE DIHED IMPRP ELECT VDW BOUNDARY MISC KINETIC TOTAL TEMP POTENTIAL TOTALAVG TEMPAVG PRESSURE GPRESSURE VOLUME PRESSAVG GPRESSAVG
ENERGY: 0 12.1451 5.2414 2.4957 0.0000 -10460.9901 1398.3294 0.0000 0.0000 1738.5380 -7304.2404 296.8687 -9042.7784 -7304.2404 296.8687 -211.2540 -127.0334 30465.1508 -211.2540 -127.0334
ENERGY: 300000 4.0288 6.1920 2.5464 0.0000 -10602.7651 1420.2451 0.0000 0.0000 1762.4112 -7407.3417 300.9452 -9169.7528 -7361.6224 301.1528 -34.8386 -7.5728 30445.9323 -223.7330 -181.5358
ENERGY: 600000 8.0806 9.9940 2.7776 0.0000 -10612.7800 1418.9220 0.0000 0.0000 1737.1182 -7435.8876 296.6263 -9173.0058 -7383.6968 299.4195 -19.4933 64.7046 29824.5912 -55.0559 -1.6873
ENERGY: 900000 6.5790 6.0530 2.5494 0.0000 -10549.4924 1408.7945 0.0000 0.0000 1719.7346 -7405.7819 293.6579 -9125.5165 -7385.1707 299.6663 -185.7404 -147.7994 30501.6600 -105.4853 -61.1237
ENERGY: 1200000 7.0111 6.3679 4.4473 0.0000 -10703.1170 1460.8254 0.0000 0.0000 1699.7001 -7524.7652 290.2369 -9224.4654 -7400.7295 299.6773 53.2905 139.6221 30175.7245 -34.1059 14.9959
ENERGY: 1500000 6.4393 7.2603 1.3997 0.0000 -10645.0066 1436.3343 0.0000 0.0000 1814.7354 -7378.8375 309.8800 -9193.5729 -7403.3033 299.8224 236.5726 246.5841 29730.2799 -20.8692 19.7169
TCL: Running FEP window  10: Lambda1 0.5499999999999996 Lambda2 0.4999999999999996 [dLambda -0.04999999999999999]
TCL: Setting parameter firsttimestep to 0
TCL: Setting parameter alchLambda to 0.5499999999999996
Info: NONBONDED TABLE R-SQUARED SPACING: 0.0625
Info: NONBONDED TABLE SIZE: 705 POINTS
TCL: Setting parameter alchLambda2 to 0.4999999999999996
Info: NONBONDED TABLE R-SQUARED SPACING: 0.0625
Info: NONBONDED TABLE SIZE: 705 POINTS
TCL: Running for 1500000 steps
ETITLE: TS BOND ANGLE DIHED IMPRP ELECT VDW BOUNDARY MISC KINETIC TOTAL TEMP POTENTIAL TOTALAVG TEMPAVG PRESSURE GPRESSURE VOLUME PRESSAVG GPRESSAVG
ENERGY: 0 6.4393 7.2603 1.3997 0.0000 -10644.2648 1436.5939 0.0000 0.0000 1813.8478 -7378.7238 309.7285 -9192.5717 -7378.7238 309.7285 160.1457 242.1708 29730.2799 160.1457 242.1708
ENERGY: 300000 4.3091 6.4454 3.4431 0.0000 -10674.4055 1476.8896 0.0000 0.0000 1804.4006 -7378.9177 308.1153 -9183.3183 -7392.0455 304.1736 624.3187 756.7459 29691.9783 203.9183 290.9409
ENERGY: 600000 5.7010 9.8561 2.1164 0.0000 -10655.9147 1467.7383 0.0000 0.0000 1752.1270 -7418.3759 299.1891 -9170.5030 -7381.4422 302.0788 191.7438 318.1879 30338.8355 48.7555 117.5064
ENERGY: 900000 4.6603 5.9712 2.5704 0.0000 -10716.2385 1515.8174 0.0000 0.0000 1777.0717 -7410.1475 303.4486 -9187.2191 -7380.7080 302.0647 610.6436 605.8813 30446.3445 63.3582 126.8341
ENERGY: 1200000 5.9757 6.3264 2.1741 0.0000 -10612.6625 1393.5014 0.0000 0.0000 1742.6237 -7462.0612 297.5664 -9204.6849 -7392.3665 302.4192 -129.4546 -165.3371 30004.4501 -7.6103 40.8393
ENERGY: 1500000 3.9656 6.2122 1.2175 0.0000 -10584.8060 1422.0998 0.0000 0.0000 1764.6173 -7386.6937 301.3220 -9151.3110 -7393.5376 302.3959 -199.2091 -210.2545 30591.7787 -2.2240 42.9861
TCL: Running FEP window  11: Lambda1 0.4999999999999996 Lambda2 0.4499999999999996 [dLambda -0.04999999999999999]
TCL: Setting parameter firsttimestep to 0
TCL: Setting parameter alchLambda to 0.4999999999999996
Info: NONBONDED TABLE R-SQUARED SPACING: 0.0625
Info: NONBONDED TABLE SIZE: 705 POINTS
TCL: Setting parameter alchLambda2 to 0.4499999999999996
Info: NONBONDED TABLE R-SQUARED SPACING: 0.0625
Info: NONBONDED TABLE SIZE: 705 POINTS
TCL: Running for 1500000 steps
ETITLE: TS BOND ANGLE DIHED IMPRP ELECT VDW BOUNDARY MISC KINETIC TOTAL TEMP POTENTIAL TOTALAVG TEMPAVG PRESSURE GPRESSURE VOLUME PRESSAVG GPRESSAVG
ENERGY: 0 3.9656 6.2122 1.2175 0.0000 -10584.2868 1422.4713 0.0000 0.0000 1763.7795 -7386.6407 301.1789 -9150.4203 -7386.6407 301.1789 -269.5460 -208.8730 30591.7787 -269.5460 -208.8730
ENERGY: 300000 6.0866 9.4472 1.6907 0.0000 -10487.7762 1332.7716 0.0000 0.0000 1735.7520 -7402.0281 296.3930 -9137.7801 -7403.1160 298.4023 -586.3433 -542.7241 30163.8209 -179.7059 -129.4720
ENERGY: 600000 3.7256 7.9829 2.8418 0.0000 -10831.0597 1503.4305 0.0000 0.0000 1763.6228 -7549.4561 301.1521 -9313.0789 -7432.0099 298.6235 291.5148 353.5456 29759.2594 -83.5973 -16.4144
ENERGY: 900000 11.1080 5.6924 1.5031 0.0000 -10592.5745 1369.2443 0.0000 0.0000 1753.9335 -7451.0933 299.4976 -9205.0269 -7427.3530 299.3942 -666.7500 -573.1251 30205.4926 -171.5865 -107.4339
ENERGY: 1200000 5.6396 7.4892 3.9797 0.0000 -10544.0941 1378.6270 0.0000 0.0000 1768.4572 -7379.9014 301.9776 -9148.3586 -7415.6869 299.7396 -389.6968 -392.7394 30405.5414 -169.8907 -116.7207
ENERGY: 1500000 6.2951 7.6612 3.5016 0.0000 -10534.7202 1346.6537 0.0000 0.0000 1763.3018 -7407.3068 301.0973 -9170.6086 -7411.8353 300.2406 -946.3405 -939.2689 30636.2355 -135.4969 -85.6001
TCL: Running FEP window  12: Lambda1 0.4499999999999996 Lambda2 0.39999999999999963 [dLambda -0.04999999999999999]
TCL: Setting parameter firsttimestep to 0
TCL: Setting parameter alchLambda to 0.4499999999999996
Info: NONBONDED TABLE R-SQUARED SPACING: 0.0625
Info: NONBONDED TABLE SIZE: 705 POINTS
TCL: Setting parameter alchLambda2 to 0.39999999999999963
Info: NONBONDED TABLE R-SQUARED SPACING: 0.0625
Info: NONBONDED TABLE SIZE: 705 POINTS
TCL: Running for 1500000 steps
ETITLE: TS BOND ANGLE DIHED IMPRP ELECT VDW BOUNDARY MISC KINETIC TOTAL TEMP POTENTIAL TOTALAVG TEMPAVG PRESSURE GPRESSURE VOLUME PRESSAVG GPRESSAVG
ENERGY: 0 6.2951 7.6612 3.5016 0.0000 -10534.7206 1345.6895 0.0000 0.0000 1762.4527 -7409.1206 300.9523 -9171.5732 -7409.1206 300.9523 -1027.4474 -953.0571 30636.2355 -1027.4474 -953.0571
ENERGY: 300000 6.3547 6.2135 3.3842 0.0000 -10669.1449 1475.2764 0.0000 0.0000 1757.0888 -7420.8272 300.0364 -9177.9160 -7408.5796 301.3156 238.1948 286.3740 30042.8545 -125.0181 -82.4775
ENERGY: 600000 3.6175 6.3660 5.9400 0.0000 -10676.5071 1481.5967 0.0000 0.0000 1755.3566 -7423.6304 299.7406 -9178.9870 -7432.9289 300.2555 409.4444 484.5023 30098.9914 102.1121 170.5026
ENERGY: 900000 5.9380 7.4408 2.1905 0.0000 -10619.9157 1475.0055 0.0000 0.0000 1770.3191 -7359.0218 302.2956 -9129.3409 -7414.4256 301.0015 473.4543 577.6839 30068.1461 149.9516 210.6876
ENERGY: 1200000 3.3919 9.6020 3.8157 0.0000 -10580.7816 1446.8733 0.0000 0.0000 1755.8490 -7361.2497 299.8247 -9117.0987 -7414.6775 300.4699 104.4204 187.6699 30451.6424 -12.7908 44.5109
ENERGY: 1500000 2.9319 5.5485 2.9847 0.0000 -10566.3634 1369.8825 0.0000 0.0000 1727.5307 -7457.4853 294.9891 -9185.0159 -7413.4301 300.7902 -462.4786 -422.9532 29883.5690 -121.4655 -65.0418
TCL: Running FEP window  13: Lambda1 0.39999999999999963 Lambda2 0.34999999999999964 [dLambda -0.04999999999999999]
TCL: Setting parameter firsttimestep to 0
TCL: Setting parameter alchLambda to 0.39999999999999963
Info: NONBONDED TABLE R-SQUARED SPACING: 0.0625
Info: NONBONDED TABLE SIZE: 705 POINTS
TCL: Setting parameter alchLambda2 to 0.34999999999999964
Info: NONBONDED TABLE R-SQUARED SPACING: 0.0625
Info: NONBONDED TABLE SIZE: 705 POINTS
TCL: Running for 1500000 steps
ETITLE: TS BOND ANGLE DIHED IMPRP ELECT VDW BOUNDARY MISC KINETIC TOTAL TEMP POTENTIAL TOTALAVG TEMPAVG PRESSURE GPRESSURE VOLUME PRESSAVG GPRESSAVG
ENERGY: 0 2.9319 5.5485 2.9847 0.0000 -10566.3639 1370.5726 0.0000 0.0000 1726.6670 -7457.6592 294.8416 -9184.3261 -7457.6592 294.8416 -506.3141 -424.8296 29883.5690 -506.3141 -424.8296
ENERGY: 300000 3.0496 8.1789 2.7412 0.0000 -10597.4829 1456.4462 0.0000 0.0000 1722.0098 -7405.0571 294.0464 -9127.0670 -7389.5340 303.0330 288.0099 350.3928 30235.8530 -125.9601 -77.5439
ENERGY: 600000 6.4315 6.1711 4.0664 0.0000 -10548.4424 1387.4092 0.0000 0.0000 1714.1851 -7430.1792 292.7103 -9144.3643 -7370.9417 303.3650 -748.4813 -695.1481 30932.9709 -97.8629 -45.0469
ENERGY: 900000 5.0828 7.6368 4.8969 0.0000 -10415.3766 1322.5439 0.0000 0.0000 1768.0715 -7307.1447 301.9118 -9075.2162 -7381.7451 300.9707 -787.5915 -743.9216 30514.8568 -237.8003 -178.7865
ENERGY: 1200000 4.5918 11.8691 2.2646 0.0000 -10526.3242 1413.0187 0.0000 0.0000 1737.3830 -7357.1969 296.6715 -9094.5799 -7381.8951 300.2059 34.2690 33.4831 30281.7307 -69.3554 -15.6512
ENERGY: 1500000 6.4677 5.9977 1.6240 0.0000 -10751.4833 1497.2527 0.0000 0.0000 1713.4627 -7526.6786 292.5869 -9240.1413 -7395.9525 299.8142 61.4213 124.4265 30232.4316 -88.1777 -29.5428
TCL: Running FEP window  14: Lambda1 0.34999999999999964 Lambda2 0.29999999999999966 [dLambda -0.04999999999999999]
TCL: Setting parameter firsttimestep to 0
TCL: Setting parameter alchLambda to 0.34999999999999964
Info: NONBONDED TABLE R-SQUARED SPACING: 0.0625
Info: NONBONDED TABLE SIZE: 705 POINTS
TCL: Setting parameter alchLambda2 to 0.29999999999999966
Info: NONBONDED TABLE R-SQUARED SPACING: 0.0625
Info: NONBONDED TABLE SIZE: 705 POINTS
TCL: Running for 1500000 steps
ETITLE: TS BOND ANGLE DIHED IMPRP ELECT VDW BOUNDARY MISC KINETIC TOTAL TEMP POTENTIAL TOTALAVG TEMPAVG PRESSURE GPRESSURE VOLUME PRESSAVG GPRESSAVG
ENERGY: 0 6.4677 5.9977 1.6240 0.0000 -10751.4831 1497.0478 0.0000 0.0000 1712.5794 -7527.7665 292.4361 -9240.3459 -7527.7665 292.4361 23.8529 119.6665 30232.4316 23.8529 119.6665
ENERGY: 300000 4.1659 5.3969 1.5526 0.0000 -10632.5392 1450.3359 0.0000 0.0000 1756.9728 -7414.1151 300.0166 -9171.0879 -7409.0103 299.9948 -51.2060 76.5891 30238.1802 -98.0799 -9.0201
ENERGY: 600000 8.5653 5.3183 3.1939 0.0000 -10721.3919 1514.4063 0.0000 0.0000 1747.3850 -7442.5231 298.3794 -9189.9081 -7392.3273 301.8401 448.5833 406.4519 30275.3272 61.7265 119.0391
ENERGY: 900000 7.4348 8.9636 5.2593 0.0000 -10440.1635 1328.4960 0.0000 0.0000 1738.6611 -7351.3488 296.8897 -9090.0099 -7376.3977 301.8017 -717.0325 -707.6433 30599.2919 -235.9577 -179.7634
ENERGY: 1200000 3.4557 6.6332 3.9477 0.0000 -10555.9350 1433.3825 0.0000 0.0000 1712.2344 -7396.2814 292.3772 -9108.5159 -7375.4502 301.3423 102.4477 155.6149 30286.2720 -288.3832 -230.8062
ENERGY: 1500000 5.6347 6.6383 2.2886 0.0000 -10564.9409 1412.2001 0.0000 0.0000 1767.3468 -7370.8325 301.7880 -9138.1792 -7379.4717 300.7051 -176.5967 -133.9686 30275.2620 -212.6007 -159.8238
TCL: Running FEP window  15: Lambda1 0.29999999999999966 Lambda2 0.24999999999999967 [dLambda -0.04999999999999999]
TCL: Setting parameter firsttimestep to 0
TCL: Setting parameter alchLambda to 0.29999999999999966
Info: NONBONDED TABLE R-SQUARED SPACING: 0.0625
Info: NONBONDED TABLE SIZE: 705 POINTS
TCL: Setting parameter alchLambda2 to 0.24999999999999967
Info: NONBONDED TABLE R-SQUARED SPACING: 0.0625
Info: NONBONDED TABLE SIZE: 705 POINTS
TCL: Running for 1500000 steps
ETITLE: TS BOND ANGLE DIHED IMPRP ELECT VDW BOUNDARY MISC KINETIC TOTAL TEMP POTENTIAL TOTALAVG TEMPAVG PRESSURE GPRESSURE VOLUME PRESSAVG GPRESSAVG
ENERGY: 0 5.6347 6.6383 2.2886 0.0000 -10564.9410 1411.8266 0.0000 0.0000 1766.5055 -7372.0472 301.6444 -9138.5527 -7372.0472 301.6444 -237.5198 -140.1569 30275.2620 -237.5198 -140.1569
ENERGY: 300000 7.1459 11.1526 1.6260 0.0000 -10597.6545 1429.6981 0.0000 0.0000 1758.2466 -7389.7852 300.2341 -9148.0317 -7393.8562 301.0551 -26.6212 47.2615 30254.3431 183.1501 247.6632
ENERGY: 600000 10.6725 5.7091 4.4559 0.0000 -10579.5633 1390.7281 0.0000 0.0000 1788.3390 -7379.6586 305.3726 -9167.9976 -7371.5319 303.1751 -628.0132 -571.7478 30354.4936 93.9595 174.6784
ENERGY: 900000 6.5576 6.2533 2.7880 0.0000 -10582.5482 1404.9844 0.0000 0.0000 1789.0826 -7372.8822 305.4996 -9161.9648 -7380.6728 301.9197 -57.4060 -5.7947 29735.2579 -8.0114 54.4814
ENERGY: 1200000 6.0386 9.9556 1.0798 0.0000 -10784.3169 1546.7368 0.0000 0.0000 1772.0968 -7448.4093 302.5991 -9220.5061 -7387.5698 301.7060 890.8192 894.1126 29887.9256 30.2937 84.5963
ENERGY: 1500000 6.7086 9.0934 2.7611 0.0000 -10627.5341 1405.3102 0.0000 0.0000 1790.2086 -7413.4522 305.6919 -9203.6608 -7395.3389 302.5560 -300.4483 -203.4993 30356.8355 -72.9233 -7.2490
TCL: Running FEP window  16: Lambda1 0.24999999999999967 Lambda2 0.19999999999999968 [dLambda -0.04999999999999999]
TCL: Setting parameter firsttimestep to 0
TCL: Setting parameter alchLambda to 0.24999999999999967
Info: NONBONDED TABLE R-SQUARED SPACING: 0.0625
Info: NONBONDED TABLE SIZE: 705 POINTS
TCL: Setting parameter alchLambda2 to 0.19999999999999968
Info: NONBONDED TABLE R-SQUARED SPACING: 0.0625
Info: NONBONDED TABLE SIZE: 705 POINTS
TCL: Running for 1500000 steps
ETITLE: TS BOND ANGLE DIHED IMPRP ELECT VDW BOUNDARY MISC KINETIC TOTAL TEMP POTENTIAL TOTALAVG TEMPAVG PRESSURE GPRESSURE VOLUME PRESSAVG GPRESSAVG
ENERGY: 0 6.7086 9.0934 2.7611 0.0000 -10627.5349 1405.2247 0.0000 0.0000 1789.3420 -7414.4050 305.5439 -9203.7470 -7414.4050 305.5439 -288.1922 -208.8652 30356.8355 -288.1922 -208.8652
ENERGY: 300000 5.0367 10.2597 1.7131 0.0000 -10844.1132 1562.7579 0.0000 0.0000 1781.7644 -7482.5815 304.2500 -9264.3459 -7419.3862 302.2590 758.4226 851.2054 29843.4620 -6.3061 79.2968
ENERGY: 600000 5.1164 6.0751 5.1108 0.0000 -10629.9997 1486.7653 0.0000 0.0000 1756.3232 -7370.6088 299.9057 -9126.9321 -7407.0363 301.5359 340.6699 387.5789 30500.5636 -49.6199 20.8074
ENERGY: 900000 4.1167 7.1236 3.3282 0.0000 -10662.2181 1448.6320 0.0000 0.0000 1766.4077 -7432.6099 301.6277 -9199.0176 -7417.1042 300.4546 -43.3405 8.8082 30289.0969 -25.0379 44.0476
ENERGY: 1200000 6.2964 7.3638 1.4547 0.0000 -10699.1250 1507.9799 0.0000 0.0000 1713.2329 -7462.7972 292.5477 -9176.0302 -7422.6765 299.7836 410.5237 500.6498 29766.2751 -86.8300 -21.9598
ENERGY: 1500000 6.4332 5.5937 0.6746 0.0000 -10682.0185 1446.0270 0.0000 0.0000 1780.1350 -7443.1550 303.9717 -9223.2900 -7423.9564 300.1710 -48.1681 -15.7243 29868.0401 -102.2726 -42.8052
TCL: Running FEP window  17: Lambda1 0.19999999999999968 Lambda2 0.1499999999999997 [dLambda -0.04999999999999999]
TCL: Setting parameter firsttimestep to 0
TCL: Setting parameter alchLambda to 0.19999999999999968
Info: NONBONDED TABLE R-SQUARED SPACING: 0.0625
Info: NONBONDED TABLE SIZE: 705 POINTS
TCL: Setting parameter alchLambda2 to 0.1499999999999997
Info: NONBONDED TABLE R-SQUARED SPACING: 0.0625
Info: NONBONDED TABLE SIZE: 705 POINTS
TCL: Running for 1500000 steps
ETITLE: TS BOND ANGLE DIHED IMPRP ELECT VDW BOUNDARY MISC KINETIC TOTAL TEMP POTENTIAL TOTALAVG TEMPAVG PRESSURE GPRESSURE VOLUME PRESSAVG GPRESSAVG
ENERGY: 0 6.4333 5.5937 0.6746 0.0000 -10682.0180 1445.9670 0.0000 0.0000 1779.2849 -7444.0646 303.8266 -9223.3495 -7444.0646 303.8266 -92.4894 -21.7505 29868.0401 -92.4894 -21.7505
ENERGY: 300000 4.1323 5.9589 1.7594 0.0000 -10574.3786 1400.0525 0.0000 0.0000 1726.0029 -7436.4726 294.7283 -9162.4756 -7430.0428 298.0822 -468.5040 -398.5680 30426.3113 -11.6783 43.6162
ENERGY: 600000 3.0652 4.8873 2.3822 0.0000 -10580.6345 1428.1504 0.0000 0.0000 1755.4361 -7386.7134 299.7542 -9142.1495 -7396.8219 297.9853 375.6850 412.5403 29654.3726 -19.7294 28.0181
ENERGY: 900000 4.7335 7.5819 3.2138 0.0000 -10708.0307 1442.7865 0.0000 0.0000 1795.2108 -7454.5042 306.5460 -9249.7149 -7408.1137 298.2912 -108.6208 -115.7931 30140.8570 -63.6991 -12.1725
ENERGY: 1200000 2.7387 12.7741 1.0458 0.0000 -10533.7026 1398.6151 0.0000 0.0000 1736.3553 -7382.1737 296.4960 -9118.5290 -7391.7043 299.2929 -185.0732 -146.1291 30213.2493 -95.8339 -47.3742
ENERGY: 1500000 7.0158 5.2610 1.9579 0.0000 -10567.9780 1389.4374 0.0000 0.0000 1794.4128 -7369.8931 306.4098 -9164.3059 -7387.5299 299.5787 -584.0852 -517.6359 30453.9965 -79.8513 -35.6654
TCL: Running FEP window  18: Lambda1 0.1499999999999997 Lambda2 0.09999999999999969 [dLambda -0.05 ]
TCL: Setting parameter firsttimestep to 0
TCL: Setting parameter alchLambda to 0.1499999999999997
Info: NONBONDED TABLE R-SQUARED SPACING: 0.0625
Info: NONBONDED TABLE SIZE: 705 POINTS
TCL: Setting parameter alchLambda2 to 0.09999999999999969
Info: NONBONDED TABLE R-SQUARED SPACING: 0.0625
Info: NONBONDED TABLE SIZE: 705 POINTS
TCL: Running for 1500000 steps
ETITLE: TS BOND ANGLE DIHED IMPRP ELECT VDW BOUNDARY MISC KINETIC TOTAL TEMP POTENTIAL TOTALAVG TEMPAVG PRESSURE GPRESSURE VOLUME PRESSAVG GPRESSAVG
ENERGY: 0 7.0158 5.2610 1.9579 0.0000 -10567.9784 1390.0683 0.0000 0.0000 1793.5302 -7370.1452 306.2591 -9163.6754 -7370.1452 306.2591 -600.6600 -514.8732 30453.9965 -600.6600 -514.8732
ENERGY: 300000 1.5414 6.1704 4.6425 0.0000 -10711.4634 1501.4590 0.0000 0.0000 1802.5718 -7395.0783 307.8030 -9197.6501 -7409.0777 303.2229 750.8480 836.5123 29830.6701 -42.5766 20.9533
ENERGY: 600000 7.1284 6.9282 8.3709 0.0000 -10509.2098 1382.7764 0.0000 0.0000 1734.0722 -7369.9337 296.1061 -9104.0059 -7402.0529 301.9381 -353.5745 -329.3198 30573.5445 -90.8385 -27.6858
ENERGY: 900000 6.8037 3.6270 1.9961 0.0000 -10679.3398 1525.0466 0.0000 0.0000 1783.8160 -7358.0504 304.6003 -9141.8664 -7402.8279 301.4101 852.8280 955.6323 29951.8319 71.9594 145.3333
ENERGY: 1200000 5.3006 6.0184 5.6560 0.0000 -10602.1369 1408.3945 0.0000 0.0000 1777.2304 -7399.5370 303.4757 -9176.7674 -7407.6986 301.5995 -164.7070 -115.0018 29970.9413 6.8463 72.0544
ENERGY: 1500000 5.4832 7.1506 1.0658 0.0000 -10632.5242 1459.0075 0.0000 0.0000 1796.4244 -7363.3927 306.7533 -9159.8171 -7399.3668 301.0659 61.6888 70.6387 30016.0023 -43.0899 26.7181
TCL: Running FEP window  19: Lambda1 0.09999999999999969 Lambda2 0.049999999999999684 [dLambda -0.05 ]
TCL: Setting parameter firsttimestep to 0
TCL: Setting parameter alchLambda to 0.09999999999999969
Info: NONBONDED TABLE R-SQUARED SPACING: 0.0625
Info: NONBONDED TABLE SIZE: 705 POINTS
TCL: Setting parameter alchLambda2 to 0.049999999999999684
Info: NONBONDED TABLE R-SQUARED SPACING: 0.0625
Info: NONBONDED TABLE SIZE: 705 POINTS
TCL: Running for 1500000 steps
ETITLE: TS BOND ANGLE DIHED IMPRP ELECT VDW BOUNDARY MISC KINETIC TOTAL TEMP POTENTIAL TOTALAVG TEMPAVG PRESSURE GPRESSURE VOLUME PRESSAVG GPRESSAVG
ENERGY: 0 5.4832 7.1506 1.0658 0.0000 -10632.5236 1458.4085 0.0000 0.0000 1795.5306 -7364.8849 306.6006 -9160.4155 -7364.8849 306.6006 -14.3700 67.5600 30016.0023 -14.3700 67.5600
ENERGY: 300000 4.6112 9.3750 1.8743 0.0000 -10671.0773 1497.8179 0.0000 0.0000 1777.3104 -7380.0885 303.4894 -9157.3989 -7369.1792 301.8919 486.8997 549.0250 30415.5965 -227.8722 -172.3247
ENERGY: 600000 6.3861 6.5711 1.1834 0.0000 -10586.8572 1450.8253 0.0000 0.0000 1769.3228 -7352.5685 302.1255 -9121.8913 -7379.3821 301.5516 34.5762 124.0816 30244.0836 -205.0394 -152.8577
ENERGY: 900000 4.2522 3.3471 2.0636 0.0000 -10574.4860 1402.9895 0.0000 0.0000 1777.3241 -7384.5095 303.4917 -9161.8336 -7381.8196 302.3628 38.9789 74.0568 29781.3136 -88.3318 -32.9280
ENERGY: 1200000 7.8594 4.6099 1.4095 0.0000 -10693.8330 1496.8401 0.0000 0.0000 1779.1419 -7403.9722 303.8021 -9183.1141 -7391.7909 301.8321 349.3886 383.0501 30245.5386 -142.4847 -95.5311
ENERGY: 1500000 10.5192 8.7990 4.0517 0.0000 -10599.5374 1428.2890 0.0000 0.0000 1761.4800 -7386.3985 300.7862 -9147.8785 -7393.5877 301.0791 -84.1747 -47.4936 30057.3310 -109.5827 -61.7461
TCL: Running FEP window  20: Lambda1 0.049999999999999684 Lambda2 0.0    [dLambda -0.049999999999999684]
TCL: Setting parameter firsttimestep to 0
TCL: Setting parameter alchLambda to 0.049999999999999684
Info: NONBONDED TABLE R-SQUARED SPACING: 0.0625
Info: NONBONDED TABLE SIZE: 705 POINTS
TCL: Setting parameter alchLambda2 to 0.0
Info: NONBONDED TABLE R-SQUARED SPACING: 0.0625
Info: NONBONDED TABLE SIZE: 705 POINTS
TCL: Running for 1500000 steps
ETITLE: TS BOND ANGLE DIHED IMPRP ELECT VDW BOUNDARY MISC KINETIC TOTAL TEMP POTENTIAL TOTALAVG TEMPAVG PRESSURE GPRESSURE VOLUME PRESSAVG GPRESSAVG
ENERGY: 0 10.5192 8.7990 4.0517 0.0000 -10599.5372 1428.4654 0.0000 0.0000 1760.5676 -7387.1343 300.6304 -9147.7020 -7387.1343 300.6304 -133.1990 -46.4279 30057.3310 -133.1990 -46.4279
ENERGY: 300000 8.9654 7.1981 3.3266 0.0000 -10576.6565 1397.5482 0.0000 0.0000 1706.5865 -7453.0318 291.4127 -9159.6182 -7398.8492 298.1795 -149.2386 -91.7982 29841.6810 -199.1209 -152.4419
ENERGY: 600000 5.9884 10.4480 3.6177 0.0000 -10627.6692 1423.8353 0.0000 0.0000 1797.5692 -7386.2106 306.9487 -9183.7798 -7393.4575 300.5468 -334.0463 -235.2721 30019.2694 -149.7262 -98.8901
ENERGY: 900000 7.6083 7.9616 5.1004 0.0000 -10661.1004 1419.9379 0.0000 0.0000 1709.4919 -7511.0002 291.9089 -9220.4921 -7410.0814 299.9004 -603.8405 -592.2964 30390.1247 -123.3536 -76.5885
ENERGY: 1200000 3.0296 4.9851 2.7205 0.0000 -10751.5814 1501.5691 0.0000 0.0000 1797.1908 -7442.0863 306.8841 -9239.2770 -7404.5490 301.2566 381.8048 403.5791 29766.0830 -87.5809 -37.9251
ENERGY: 1500000 4.3998 6.8214 2.5760 0.0000 -10630.0628 1424.2649 0.0000 0.0000 1800.7414 -7391.2593 307.4904 -9192.0007 -7401.4664 301.7012 -134.4509 -69.3927 30215.3261 -108.1621 -61.5183
TCL: Exiting due to exit command.
