Info: SIMULATION PARAMETERS:
Info: TIMESTEP               2
Info: NUMBER OF STEPS        0
Info: STEPS PER CYCLE        10
Info: PERIODIC CELL BASIS 1  32.7568 0 0
Info: PERIODIC CELL BASIS 2  0 31.4134 0
Info: PERIODIC CELL BASIS 3  0 0 28.9956
Info: PERIODIC CELL CENTER   0 0 0
Info: WRAPPING WATERS AROUND PERIODIC BOUNDARIES ON OUTPUT.
Info: WRAPPING ALL CLUSTERS AROUND PERIODIC BOUNDARIES ON OUTPUT.
Info: FIRST LDB TIMESTEP     50
Info: LAST LDB TIMESTEP     -1
Info: HOM BACKGROUND SCALING 1
Info: PME BACKGROUND SCALING 1
Info: MIN ATOMS PER PATCH    40
Info: EMPTY PATCH LOAD       40 ATOMS
Info: VELOCITY FILE          mobley_7378987_equil.vel
Info: CENTER OF MASS MOVING INITIALLY? NO
Info: DIELECTRIC             1
Info: EXCLUDE                SCALED ONE-FOUR
Info: 1-4 ELECTROSTATICS SCALED BY 0.833333
Info: MODIFIED 1-4 VDW PARAMETERS WILL BE USED
Info: DCD FILENAME           mobley_7378987_prod.dcd
Info: DCD FREQUENCY          100000
Info: DCD FIRST STEP         100000
Info: DCD FILE WILL CONTAIN UNIT CELL DATA
Info: XST FILENAME           mobley_7378987_prod.xst
Info: XST FREQUENCY          100000
Info: NO VELOCITY DCD OUTPUT
Info: NO FORCE DCD OUTPUT
Info: OUTPUT FILENAME        mobley_7378987_prod
Info: BINARY OUTPUT FILES WILL BE USED
Info: RESTART FILENAME       mobley_7378987_prod.restart
Info: RESTART FREQUENCY      100000
Info: BINARY RESTART FILES WILL BE USED
Info: CUTOFF                 9
Info: PAIRLIST DISTANCE      11
Info: PAIRLIST SHRINK RATE   0.01
Info: PAIRLIST GROW RATE     0.01
Info: PAIRLIST TRIGGER       0.3
Info: PAIRLISTS PER CYCLE    2
Info: PAIRLISTS ENABLED
Info: MARGIN                 2
Info: HYDROGEN GROUP CUTOFF  2.5
Info: PATCH DIMENSION        15.5
Info: ENERGY OUTPUT STEPS    100000
Info: ENERGY EVALUATION STEPS    100000
Info: OUTPUT ENERGY PRECISION 4
Info: CROSSTERM ENERGY INCLUDED IN DIHEDRAL
Info: TIMING OUTPUT STEPS    1000000
Info: PRESSURE OUTPUT STEPS  100000
Info: ALCHEMICAL FEP ON
Info: FEP CURRENT LAMBDA VALUE     0
Info: FEP COMPARISON LAMBDA VALUE  0.05
Info: FEP INTRA-ALCHEMICAL NON-BONDED INTERACTIONS WILL BE RETAINED
Info: FEP INTRA-ALCHEMICAL BONDED INTERACTIONS WILL BE RETAINED
Info: FEP VDW SHIFTING COEFFICIENT 5
Info: FEP ELEC. ACTIVE FOR ANNIHILATED PARTICLES BETWEEN LAMBDA = 0 AND LAMBDA = 0.5
Info: FEP ELEC. ACTIVE FOR EXNIHILATED PARTICLES BETWEEN LAMBDA = 0.5 AND LAMBDA = 1
Info: FEP VDW ACTIVE FOR ANNIHILATED PARTICLES BETWEEN LAMBDA = 0 AND LAMBDA = 1
Info: FEP VDW ACTIVE FOR EXNIHILATED PARTICLES BETWEEN LAMBDA = 0 AND LAMBDA = 1
Info: FEP BOND ACTIVE FOR ANNIHILATED PARTICLES BETWEEN LAMBDA = 1 AND LAMBDA = 1
Info: FEP BOND ACTIVE FOR EXNIHILATED PARTICLES BETWEEN LAMBDA = 0 AND LAMBDA = 0
Info: LANGEVIN DYNAMICS ACTIVE
Info: LANGEVIN TEMPERATURE   300
Info: LANGEVIN USING BBK INTEGRATOR
Info: LANGEVIN DAMPING COEFFICIENT IS 1 INVERSE PS
Info: LANGEVIN DYNAMICS APPLIED TO HYDROGENS
Info: LANGEVIN PISTON PRESSURE CONTROL ACTIVE
Info:        TARGET PRESSURE IS 1.01325 BAR
Info:     OSCILLATION PERIOD IS 50 FS
Info:             DECAY TIME IS 25 FS
Info:     PISTON TEMPERATURE IS 300 K
Info:       PRESSURE CONTROL IS GROUP-BASED
Info:    INITIAL STRAIN RATE IS -0.000185957 -0.000185957 -0.000185957
Info:       CELL FLUCTUATION IS ISOTROPIC
Info: PARTICLE MESH EWALD (PME) ACTIVE
Info: PME TOLERANCE               1e-06
Info: PME EWALD COEFFICIENT       0.348832
Info: PME INTERPOLATION ORDER     4
Info: PME GRID DIMENSIONS         36 32 32
Info: PME MAXIMUM GRID SPACING    1
Info: PME CALCULATION WILL BE PERFORMED ON GPU
Info: FULL ELECTROSTATIC EVALUATION FREQUENCY      2
Info: USING VERLET I (r-RESPA) MTS SCHEME.
Info: C1 SPLITTING OF LONG RANGE ELECTROSTATICS
Info: PLACING ATOMS IN PATCHES BY HYDROGEN GROUPS
Info: RIGID BONDS TO HYDROGEN : ALL
Info:         ERROR TOLERANCE : 1e-08
Info:          MAX ITERATIONS : 100
Info: RIGID WATER USING SETTLE ALGORITHM
Info: RANDOM NUMBER SEED     1744248800
Info: USE HYDROGEN BONDS?    NO
Info: Using AMBER format force field!
Info: AMBER PARM FILE        mobley_7378987.prmtop
Info: COORDINATE PDB         mobley_7378987.pdb
Info: Exclusions will be read from PARM file!
Info: SCNB (VDW SCALING)     2
Info: USING ARITHMETIC MEAN TO COMBINE L-J SIGMA PARAMETERS
Info: BINARY COORDINATES     mobley_7378987_equil.coor
Info: SUMMARY OF PARAMETERS:
Info: 14 BONDS
Info: 23 ANGLES
Info:   23 HARMONIC
Info:   0 COSINE-BASED
Info: 9 DIHEDRAL
Info: 0 IMPROPER
Info: 0 CROSSTERM
Info: 0 VDW
Info: 36 VDW_PAIRS
Info: 0 NBTHOLE_PAIRS
Info: To read alchdata from file: mobley_7378987.pdb
Info: To read alchflag data from column: 5
Info: STRUCTURE SUMMARY:
Info: 2937 ATOMS
Info: 2938 BONDS
Info: 43 ANGLES
Info: 62 DIHEDRALS
Info: 0 IMPROPERS
Info: 0 CROSSTERMS
Info: 3027 EXCLUSIONS
Info: 2923 RIGID BONDS
Info: ALCH: 0 ATOMS TO DISAPPEAR IN FINAL STATE
Info: ALCH: 24 ATOMS TO APPEAR IN FINAL STATE
Info: 5888 DEGREES OF FREEDOM
Info: 985 HYDROGEN GROUPS
Info: 4 ATOMS IN LARGEST HYDROGEN GROUP
Info: 985 MIGRATION GROUPS
Info: 4 ATOMS IN LARGEST MIGRATION GROUP
Info: TOTAL MASS = 17687.7 amu
Info: TOTAL CHARGE = -0.000199961 e
Info: MASS DENSITY = 0.984427 g/cm^3
Info: ATOM DENSITY = 0.0984364 atoms/A^3
Info: ADDED 0 IMPLICIT EXCLUSIONS
Info: NONBONDED TABLE R-SQUARED SPACING: 0.0625
Info: NONBONDED TABLE SIZE: 705 POINTS
Info: REDUCING NUMBER OF PATCHES TO IMPROVE LOAD BALANCE
Info: REMOVING COM VELOCITY 0.0108956 0.0599921 -0.0525017
Info: Use 3D box decompostion in PME FFT.
Info: Updated CUDA force table with 4096 elements.
Info: Updated CUDA LJ table with 8 x 8 elements.
Info: Found 26 unique exclusion lists needing 72 bytes
TCL: Running for 1500000 steps
ETITLE: TS BOND ANGLE DIHED IMPRP ELECT VDW BOUNDARY MISC KINETIC TOTAL TEMP POTENTIAL TOTALAVG TEMPAVG PRESSURE GPRESSURE VOLUME PRESSAVG GPRESSAVG
ENERGY: 0 4.6984 13.7106 3.8509 0.0000 -10884.6820 1534.3382 0.0000 0.0000 1755.8256 -7572.2583 300.1262 -9328.0838 -7572.2583 300.1262 919.6819 1000.9650 29836.5205 919.6819 1000.9650
ENERGY: 300000 6.6648 11.1220 4.2987 0.0000 -10680.9481 1326.7594 0.0000 0.0000 1753.8538 -7578.2493 299.7892 -9332.1032 -7549.8168 302.7864 -1020.3286 -1032.7517 30377.2453 -12.1876 21.8660
ENERGY: 600000 3.3641 14.2060 3.6891 0.0000 -10721.1972 1363.6765 0.0000 0.0000 1719.9606 -7616.3010 293.9958 -9336.2615 -7583.7115 300.1041 -784.2749 -737.9816 30378.8539 -53.6698 -5.9862
ENERGY: 900000 4.8508 13.7521 2.2218 0.0000 -10750.3104 1478.2317 0.0000 0.0000 1730.9597 -7520.2943 295.8759 -9251.2540 -7578.4832 299.3538 657.3067 763.2271 29887.4502 86.3700 143.1776
ENERGY: 1200000 5.6210 12.4946 3.1029 0.0000 -10760.2234 1454.0583 0.0000 0.0000 1789.9144 -7495.0322 305.9531 -9284.9466 -7567.8919 300.2871 460.6763 538.8076 29649.7600 30.2415 77.7635
ENERGY: 1500000 5.1865 15.0336 4.9804 0.0000 -10635.2578 1336.9054 0.0000 0.0000 1725.7278 -7547.4242 294.9816 -9273.1520 -7566.6932 300.4561 -617.0422 -659.1035 29806.4383 -23.8165 22.5791
TCL: Running FEP window   2: Lambda1 0.05   Lambda2 0.1    [dLambda 0.05  ]
TCL: Setting parameter firsttimestep to 0
TCL: Setting parameter alchLambda to 0.05
Info: NONBONDED TABLE R-SQUARED SPACING: 0.0625
Info: NONBONDED TABLE SIZE: 705 POINTS
TCL: Setting parameter alchLambda2 to 0.1
Info: NONBONDED TABLE R-SQUARED SPACING: 0.0625
Info: NONBONDED TABLE SIZE: 705 POINTS
TCL: Running for 1500000 steps
ETITLE: TS BOND ANGLE DIHED IMPRP ELECT VDW BOUNDARY MISC KINETIC TOTAL TEMP POTENTIAL TOTALAVG TEMPAVG PRESSURE GPRESSURE VOLUME PRESSAVG GPRESSAVG
ENERGY: 0 5.1865 15.0336 4.9804 0.0000 -10635.2584 1341.8030 0.0000 0.0000 1724.8172 -7543.4379 294.8259 -9268.2550 -7543.4379 294.8259 -737.2450 -649.4474 29806.4383 -737.2450 -649.4474
ENERGY: 300000 9.8644 11.2837 4.5700 0.0000 -10731.3272 1412.2744 0.0000 0.0000 1807.3145 -7486.0203 308.9273 -9293.3348 -7526.0076 300.9371 -315.5464 -271.2857 30196.7733 -372.7551 -303.8748
ENERGY: 600000 6.4668 12.1592 2.6024 0.0000 -10886.1348 1488.8003 0.0000 0.0000 1757.6656 -7618.4404 300.4408 -9376.1060 -7518.9415 302.6211 241.6916 361.0678 30002.0198 -179.3305 -114.5794
ENERGY: 900000 3.6512 10.2226 3.8908 0.0000 -10739.7625 1479.7781 0.0000 0.0000 1730.1559 -7512.0638 295.7385 -9242.2198 -7517.2838 301.9404 810.5734 872.9835 29983.0627 53.3744 118.5701
ENERGY: 1200000 3.9789 12.6199 1.3749 0.0000 -10734.2970 1400.4743 0.0000 0.0000 1756.5241 -7559.3248 300.2456 -9315.8490 -7525.7343 300.9002 -208.3134 -191.2878 30080.9748 -36.3341 23.0034
ENERGY: 1500000 8.1252 12.4249 3.6647 0.0000 -10750.0753 1389.5143 0.0000 0.0000 1739.0726 -7597.2737 297.2626 -9336.3463 -7534.0424 300.0480 -593.2475 -495.9692 30041.1138 -77.4612 -15.4403
TCL: Running FEP window   3: Lambda1 0.1    Lambda2 0.15000000000000002 [dLambda 0.05000000000000002]
TCL: Setting parameter firsttimestep to 0
TCL: Setting parameter alchLambda to 0.1
Info: NONBONDED TABLE R-SQUARED SPACING: 0.0625
Info: NONBONDED TABLE SIZE: 705 POINTS
TCL: Setting parameter alchLambda2 to 0.15000000000000002
Info: NONBONDED TABLE R-SQUARED SPACING: 0.0625
Info: NONBONDED TABLE SIZE: 705 POINTS
TCL: Running for 1500000 steps
ETITLE: TS BOND ANGLE DIHED IMPRP ELECT VDW BOUNDARY MISC KINETIC TOTAL TEMP POTENTIAL TOTALAVG TEMPAVG PRESSURE GPRESSURE VOLUME PRESSAVG GPRESSAVG
ENERGY: 0 8.1252 12.4248 3.6647 0.0000 -10750.0740 1390.8480 0.0000 0.0000 1738.2237 -7596.7877 297.1175 -9335.0114 -7596.7877 297.1175 -576.6783 -487.6008 30041.1138 -576.6783 -487.6008
ENERGY: 300000 6.1291 12.0566 4.8336 0.0000 -10777.3060 1399.9497 0.0000 0.0000 1756.1707 -7598.1664 300.1852 -9354.3371 -7534.9684 300.1805 -643.7721 -546.6053 30339.3933 -592.3126 -518.5954
ENERGY: 600000 5.1295 13.3030 2.5259 0.0000 -10854.6749 1499.5442 0.0000 0.0000 1721.9474 -7612.2249 294.3354 -9334.1722 -7541.5752 298.5239 582.7740 642.9143 30081.0883 -158.7226 -81.9114
ENERGY: 900000 10.1858 12.5825 1.9091 0.0000 -10625.9472 1373.4908 0.0000 0.0000 1752.0100 -7475.7689 299.4740 -9227.7789 -7522.2175 299.3255 -660.9998 -582.7532 30327.3094 -115.7709 -51.6752
ENERGY: 1200000 2.3938 12.3435 5.3410 0.0000 -10925.6366 1514.3851 0.0000 0.0000 1740.6496 -7650.5237 297.5322 -9391.1733 -7539.4905 299.4749 439.3006 589.3904 29739.6314 5.9509 79.8605
ENERGY: 1500000 2.9066 14.5049 3.1053 0.0000 -10789.9211 1429.7181 0.0000 0.0000 1774.8832 -7564.8030 303.3838 -9339.6862 -7547.1622 299.4025 -10.4934 -39.0170 29942.9462 -15.1087 53.0589
TCL: Running FEP window   4: Lambda1 0.15000000000000002 Lambda2 0.2    [dLambda 0.04999999999999999]
TCL: Setting parameter firsttimestep to 0
TCL: Setting parameter alchLambda to 0.15000000000000002
Info: NONBONDED TABLE R-SQUARED SPACING: 0.0625
Info: NONBONDED TABLE SIZE: 705 POINTS
TCL: Setting parameter alchLambda2 to 0.2
Info: NONBONDED TABLE R-SQUARED SPACING: 0.0625
Info: NONBONDED TABLE SIZE: 705 POINTS
TCL: Running for 1500000 steps
ETITLE: TS BOND ANGLE DIHED IMPRP ELECT VDW BOUNDARY MISC KINETIC TOTAL TEMP POTENTIAL TOTALAVG TEMPAVG PRESSURE GPRESSURE VOLUME PRESSAVG GPRESSAVG
ENERGY: 0 2.9066 14.5049 3.1053 0.0000 -10789.9200 1430.8034 0.0000 0.0000 1773.9960 -7564.6038 303.2321 -9338.5998 -7564.6038 303.2321 -116.6564 -31.0753 29942.9462 -116.6564 -31.0753
ENERGY: 300000 6.1670 13.7903 5.5045 0.0000 -10781.4082 1425.7026 0.0000 0.0000 1755.3886 -7574.8552 300.0515 -9330.2438 -7552.0007 301.1657 -298.3279 -256.9383 29854.0570 122.2567 191.3433
ENERGY: 600000 2.7935 12.6970 3.2118 0.0000 -10777.6095 1474.0429 0.0000 0.0000 1790.0958 -7494.7686 305.9841 -9284.8644 -7527.1397 303.6951 204.2665 291.0757 30465.3487 77.5564 149.5647
ENERGY: 900000 4.6804 12.5730 1.3871 0.0000 -10728.4379 1357.0359 0.0000 0.0000 1772.2558 -7580.5058 302.9347 -9352.7616 -7540.9719 302.9439 -969.3241 -962.6278 30604.1107 66.6551 130.1645
ENERGY: 1200000 3.8681 11.2376 2.7226 0.0000 -10787.4616 1467.2233 0.0000 0.0000 1772.7457 -7529.6644 303.0184 -9302.4100 -7543.6722 303.8417 0.4374 124.0208 30264.5939 39.3245 104.7019
ENERGY: 1500000 6.0239 12.5172 5.7724 0.0000 -10844.4538 1442.6755 0.0000 0.0000 1719.6857 -7657.7791 293.9488 -9377.4649 -7549.6008 302.8529 -67.4663 18.9163 29810.4950 47.7391 113.5470
TCL: Running FEP window   5: Lambda1 0.2    Lambda2 0.25   [dLambda 0.04999999999999999]
TCL: Setting parameter firsttimestep to 0
TCL: Setting parameter alchLambda to 0.2
Info: NONBONDED TABLE R-SQUARED SPACING: 0.0625
Info: NONBONDED TABLE SIZE: 705 POINTS
TCL: Setting parameter alchLambda2 to 0.25
Info: NONBONDED TABLE R-SQUARED SPACING: 0.0625
Info: NONBONDED TABLE SIZE: 705 POINTS
TCL: Running for 1500000 steps
ETITLE: TS BOND ANGLE DIHED IMPRP ELECT VDW BOUNDARY MISC KINETIC TOTAL TEMP POTENTIAL TOTALAVG TEMPAVG PRESSURE GPRESSURE VOLUME PRESSAVG GPRESSAVG
ENERGY: 0 6.0239 12.5172 5.7724 0.0000 -10844.4558 1442.5897 0.0000 0.0000 1718.7918 -7658.7608 293.7960 -9377.5526 -7658.7608 293.7960 -69.6970 24.0140 29810.4950 -69.6970 24.0140
ENERGY: 300000 8.4325 12.2011 4.8144 0.0000 -10710.1985 1399.1847 0.0000 0.0000 1755.4986 -7530.0670 300.0703 -9285.5656 -7605.9872 297.8685 -494.1534 -400.3618 30215.6269 -242.4273 -165.3656
ENERGY: 600000 4.1684 13.2625 4.8603 0.0000 -10719.6311 1371.0669 0.0000 0.0000 1727.7502 -7598.5229 295.3273 -9326.2731 -7566.8521 301.6423 -501.3064 -378.2570 29870.2435 -179.9261 -94.9769
ENERGY: 900000 5.8303 12.6523 6.4852 0.0000 -10687.8453 1372.2435 0.0000 0.0000 1799.9728 -7490.6613 307.6724 -9290.6340 -7557.1445 302.0142 -561.1788 -486.1757 30282.9354 -119.7339 -43.1604
ENERGY: 1200000 3.4266 16.6638 2.2008 0.0000 -10662.6918 1386.8781 0.0000 0.0000 1755.7551 -7497.7674 300.1142 -9253.5226 -7541.2808 302.5599 -311.3251 -260.5569 30176.9248 -159.4564 -86.0227
ENERGY: 1500000 5.5232 10.2713 3.0190 0.0000 -10700.9570 1428.6783 0.0000 0.0000 1784.0472 -7469.4180 304.9502 -9253.4652 -7542.9960 302.4248 612.3747 661.0279 29668.5943 -19.1297 53.5241
TCL: Running FEP window   6: Lambda1 0.25   Lambda2 0.3    [dLambda 0.04999999999999999]
TCL: Setting parameter firsttimestep to 0
TCL: Setting parameter alchLambda to 0.25
Info: NONBONDED TABLE R-SQUARED SPACING: 0.0625
Info: NONBONDED TABLE SIZE: 705 POINTS
TCL: Setting parameter alchLambda2 to 0.3
Info: NONBONDED TABLE R-SQUARED SPACING: 0.0625
Info: NONBONDED TABLE SIZE: 705 POINTS
TCL: Running for 1500000 steps
ETITLE: TS BOND ANGLE DIHED IMPRP ELECT VDW BOUNDARY MISC KINETIC TOTAL TEMP POTENTIAL TOTALAVG TEMPAVG PRESSURE GPRESSURE VOLUME PRESSAVG GPRESSAVG
ENERGY: 0 5.5232 10.2713 3.0190 0.0000 -10700.9576 1428.6054 0.0000 0.0000 1783.2033 -7470.3354 304.8059 -9253.5387 -7470.3354 304.8059 584.9803 668.4700 29668.5943 584.9803 668.4700
ENERGY: 300000 6.5328 16.2495 3.1837 0.0000 -10889.2538 1468.5810 0.0000 0.0000 1777.7950 -7616.9118 303.8815 -9394.7068 -7523.3406 303.9392 -10.5404 85.9782 29857.1934 -82.2700 -6.4776
ENERGY: 600000 4.9334 12.2532 5.5200 0.0000 -10737.9743 1411.0993 0.0000 0.0000 1713.7016 -7590.4667 292.9259 -9304.1683 -7546.8649 301.4313 -527.2491 -447.2235 30586.1019 -131.7682 -54.9244
ENERGY: 900000 8.3564 11.3526 1.2112 0.0000 -10704.6074 1419.3222 0.0000 0.0000 1749.3898 -7514.9751 299.0262 -9264.3649 -7548.5847 300.7798 -279.4172 -200.2537 30776.7019 -152.5605 -69.1081
ENERGY: 1200000 5.2687 11.7376 6.0534 0.0000 -10633.4742 1349.9392 0.0000 0.0000 1728.6644 -7531.8108 295.4835 -9260.4752 -7543.2465 301.6503 -528.5161 -498.7246 30088.2167 -218.2512 -140.3816
ENERGY: 1500000 4.0225 18.4020 5.6976 0.0000 -10801.3722 1437.1632 0.0000 0.0000 1674.2296 -7661.8573 286.1789 -9336.0869 -7553.9785 300.5866 143.2140 218.6975 29953.8037 -186.9915 -109.7623
TCL: Running FEP window   7: Lambda1 0.3    Lambda2 0.35   [dLambda 0.04999999999999999]
TCL: Setting parameter firsttimestep to 0
TCL: Setting parameter alchLambda to 0.3
Info: NONBONDED TABLE R-SQUARED SPACING: 0.0625
Info: NONBONDED TABLE SIZE: 705 POINTS
TCL: Setting parameter alchLambda2 to 0.35
Info: NONBONDED TABLE R-SQUARED SPACING: 0.0625
Info: NONBONDED TABLE SIZE: 705 POINTS
TCL: Running for 1500000 steps
ETITLE: TS BOND ANGLE DIHED IMPRP ELECT VDW BOUNDARY MISC KINETIC TOTAL TEMP POTENTIAL TOTALAVG TEMPAVG PRESSURE GPRESSURE VOLUME PRESSAVG GPRESSAVG
ENERGY: 0 4.0225 18.4020 5.6976 0.0000 -10801.3717 1437.8959 0.0000 0.0000 1673.3395 -7662.0142 286.0267 -9335.3537 -7662.0142 286.0267 151.8454 226.3384 29953.8037 151.8454 226.3384
ENERGY: 300000 2.7139 9.7195 4.5778 0.0000 -10756.6561 1445.0450 0.0000 0.0000 1765.9681 -7528.6318 301.8599 -9294.5998 -7572.9201 296.2677 179.2975 198.8262 30225.2739 -9.6682 24.7872
ENERGY: 600000 5.9438 9.5236 3.5699 0.0000 -10897.0219 1514.0760 0.0000 0.0000 1758.6645 -7605.2440 300.6115 -9363.9085 -7580.9838 297.8946 407.1254 448.9488 30249.8910 -59.2883 -24.6888
ENERGY: 900000 4.6639 13.9090 1.1775 0.0000 -10771.4198 1416.8693 0.0000 0.0000 1773.8934 -7560.9066 303.2146 -9334.8000 -7566.9264 300.5766 -328.7896 -262.0117 29989.5394 -133.6242 -100.5691
ENERGY: 1200000 3.7267 10.6547 3.0386 0.0000 -10720.6448 1358.9771 0.0000 0.0000 1723.8057 -7620.4420 294.6530 -9344.2477 -7563.9706 300.4921 -516.9758 -494.9896 29774.5106 -174.9047 -140.8413
ENERGY: 1500000 9.1447 11.5962 2.3479 0.0000 -10711.5372 1390.8975 0.0000 0.0000 1765.6493 -7531.9016 301.8054 -9297.5509 -7563.0355 300.1677 -219.3661 -169.5800 30299.8108 -194.9662 -157.7457
TCL: Running FEP window   8: Lambda1 0.35   Lambda2 0.39999999999999997 [dLambda 0.04999999999999999]
TCL: Setting parameter firsttimestep to 0
TCL: Setting parameter alchLambda to 0.35
Info: NONBONDED TABLE R-SQUARED SPACING: 0.0625
Info: NONBONDED TABLE SIZE: 705 POINTS
TCL: Setting parameter alchLambda2 to 0.39999999999999997
Info: NONBONDED TABLE R-SQUARED SPACING: 0.0625
Info: NONBONDED TABLE SIZE: 705 POINTS
TCL: Running for 1500000 steps
ETITLE: TS BOND ANGLE DIHED IMPRP ELECT VDW BOUNDARY MISC KINETIC TOTAL TEMP POTENTIAL TOTALAVG TEMPAVG PRESSURE GPRESSURE VOLUME PRESSAVG GPRESSAVG
ENERGY: 0 9.1447 11.5962 2.3479 0.0000 -10711.5367 1390.1684 0.0000 0.0000 1764.8326 -7533.4469 301.6658 -9298.2796 -7533.4469 301.6658 -243.6060 -166.3558 30299.8108 -243.6060 -166.3558
ENERGY: 300000 5.0945 11.5494 4.4592 0.0000 -10792.0096 1446.1143 0.0000 0.0000 1795.5291 -7529.2631 306.9128 -9324.7922 -7563.2182 303.6768 558.8028 607.3294 29682.6087 140.6087 188.1159
ENERGY: 600000 5.3427 12.5604 6.0614 0.0000 -10734.4656 1373.4117 0.0000 0.0000 1759.4950 -7577.5943 300.7535 -9337.0893 -7565.2585 299.0146 -448.2178 -360.4205 29848.9505 -2.6829 43.8918
ENERGY: 900000 5.0333 13.0374 1.6849 0.0000 -10746.6993 1424.8159 0.0000 0.0000 1712.8843 -7589.2435 292.7862 -9302.1278 -7582.0002 298.6387 -178.2067 -64.3653 30376.9158 -91.7623 -32.0378
ENERGY: 1200000 7.5384 16.1046 2.8433 0.0000 -10859.0459 1469.8301 0.0000 0.0000 1682.9329 -7679.7965 287.6666 -9362.7295 -7579.5255 299.3231 154.6316 199.7799 29491.3880 -41.6284 19.9139
ENERGY: 1500000 3.7309 11.2563 3.3210 0.0000 -10796.3312 1422.8749 0.0000 0.0000 1772.4353 -7582.7128 302.9654 -9355.1481 -7580.5628 299.9509 -163.8795 -114.4202 30148.2513 -100.0550 -31.7773
TCL: Running FEP window   9: Lambda1 0.39999999999999997 Lambda2 0.44999999999999996 [dLambda 0.04999999999999999]
TCL: Setting parameter firsttimestep to 0
TCL: Setting parameter alchLambda to 0.39999999999999997
Info: NONBONDED TABLE R-SQUARED SPACING: 0.0625
Info: NONBONDED TABLE SIZE: 705 POINTS
TCL: Setting parameter alchLambda2 to 0.44999999999999996
Info: NONBONDED TABLE R-SQUARED SPACING: 0.0625
Info: NONBONDED TABLE SIZE: 705 POINTS
TCL: Running for 1500000 steps
ETITLE: TS BOND ANGLE DIHED IMPRP ELECT VDW BOUNDARY MISC KINETIC TOTAL TEMP POTENTIAL TOTALAVG TEMPAVG PRESSURE GPRESSURE VOLUME PRESSAVG GPRESSAVG
ENERGY: 0 3.7309 11.2563 3.3210 0.0000 -10796.3306 1422.7681 0.0000 0.0000 1771.5949 -7583.6593 302.8217 -9355.2542 -7583.6593 302.8217 -199.2724 -107.4185 30148.2513 -199.2724 -107.4185
ENERGY: 300000 3.4186 9.7096 2.4454 0.0000 -10585.8666 1308.1317 0.0000 0.0000 1729.5531 -7532.6082 295.6354 -9262.1613 -7545.2096 300.9231 -775.4801 -722.0538 30018.1228 -60.4261 16.4315
ENERGY: 600000 5.9099 13.3457 4.5239 0.0000 -10685.6670 1391.9792 0.0000 0.0000 1712.7759 -7557.1325 292.7677 -9269.9084 -7554.1487 299.3276 180.0254 218.8055 29725.8906 43.8429 108.8013
ENERGY: 900000 4.4018 13.0158 1.0874 0.0000 -10601.9137 1397.1315 0.0000 0.0000 1756.3804 -7429.8968 300.2211 -9186.2772 -7538.4462 299.4239 -76.4686 2.8318 30486.5830 17.3045 81.6687
ENERGY: 1200000 5.3445 13.4640 3.0824 0.0000 -10860.9033 1465.3784 0.0000 0.0000 1762.8038 -7610.8301 301.3190 -9373.6340 -7549.1302 299.6329 163.7441 211.2140 29997.4937 -49.7393 12.3507
ENERGY: 1500000 3.7421 12.2822 4.0490 0.0000 -10909.6414 1516.8890 0.0000 0.0000 1730.3565 -7642.3226 295.7728 -9372.6792 -7561.2667 299.3682 812.9027 849.0287 29637.7170 -7.8688 56.0286
TCL: Running FEP window  10: Lambda1 0.44999999999999996 Lambda2 0.49999999999999994 [dLambda 0.04999999999999999]
TCL: Setting parameter firsttimestep to 0
TCL: Setting parameter alchLambda to 0.44999999999999996
Info: NONBONDED TABLE R-SQUARED SPACING: 0.0625
Info: NONBONDED TABLE SIZE: 705 POINTS
TCL: Setting parameter alchLambda2 to 0.49999999999999994
Info: NONBONDED TABLE R-SQUARED SPACING: 0.0625
Info: NONBONDED TABLE SIZE: 705 POINTS
TCL: Running for 1500000 steps
ETITLE: TS BOND ANGLE DIHED IMPRP ELECT VDW BOUNDARY MISC KINETIC TOTAL TEMP POTENTIAL TOTALAVG TEMPAVG PRESSURE GPRESSURE VOLUME PRESSAVG GPRESSAVG
ENERGY: 0 3.7421 12.2822 4.0490 0.0000 -10909.6422 1516.9466 0.0000 0.0000 1729.4663 -7643.1559 295.6206 -9372.6223 -7643.1559 295.6206 780.3054 860.1924 29637.7170 780.3054 860.1924
ENERGY: 300000 2.9921 14.5257 4.5815 0.0000 -10647.8031 1360.1678 0.0000 0.0000 1786.6948 -7478.8412 305.4028 -9265.5360 -7549.6541 297.7991 -611.6357 -543.2101 30842.4921 195.7797 225.5103
ENERGY: 600000 4.6679 11.7894 5.6177 0.0000 -10836.5920 1523.2353 0.0000 0.0000 1789.6647 -7501.6169 305.9104 -9291.2817 -7532.4406 300.1241 859.8480 965.2114 30121.2601 189.8649 232.3495
ENERGY: 900000 8.3914 15.6882 1.7288 0.0000 -10763.5511 1407.0759 0.0000 0.0000 1727.2099 -7603.4569 295.2349 -9330.6668 -7553.9787 299.5208 -147.8815 -65.3878 29652.1937 9.7759 60.7386
ENERGY: 1200000 4.0785 12.4770 6.0900 0.0000 -10703.5359 1384.1715 0.0000 0.0000 1831.3729 -7465.3460 313.0397 -9296.7189 -7535.8630 301.2826 -61.6615 15.8070 29755.4514 -61.8209 -8.7258
ENERGY: 1500000 5.7619 12.8765 1.4470 0.0000 -10794.4379 1429.4190 0.0000 0.0000 1779.7495 -7565.1841 304.2156 -9344.9335 -7539.8916 301.8614 -322.3247 -336.0620 30449.0670 -70.5069 -24.9822
TCL: Running FEP window  11: Lambda1 0.49999999999999994 Lambda2 0.5499999999999999 [dLambda 0.04999999999999999]
TCL: Setting parameter firsttimestep to 0
TCL: Setting parameter alchLambda to 0.49999999999999994
Info: NONBONDED TABLE R-SQUARED SPACING: 0.0625
Info: NONBONDED TABLE SIZE: 705 POINTS
TCL: Setting parameter alchLambda2 to 0.5499999999999999
Info: NONBONDED TABLE R-SQUARED SPACING: 0.0625
Info: NONBONDED TABLE SIZE: 705 POINTS
TCL: Running for 1500000 steps
ETITLE: TS BOND ANGLE DIHED IMPRP ELECT VDW BOUNDARY MISC KINETIC TOTAL TEMP POTENTIAL TOTALAVG TEMPAVG PRESSURE GPRESSURE VOLUME PRESSAVG GPRESSAVG
ENERGY: 0 5.7619 12.8765 1.4470 0.0000 -10794.4380 1429.5254 0.0000 0.0000 1778.8386 -7565.9886 304.0599 -9344.8272 -7565.9886 304.0599 -407.8994 -325.4664 30449.0670 -407.8994 -325.4664
ENERGY: 300000 4.6281 10.7471 2.2180 0.0000 -10745.9988 1403.9429 0.0000 0.0000 1762.8565 -7561.6061 301.3280 -9324.4626 -7591.2124 299.2814 -286.1400 -275.7414 30246.9881 -171.7737 -104.7453
ENERGY: 600000 5.0975 12.3490 2.6823 0.0000 -10838.2852 1500.1641 0.0000 0.0000 1772.3589 -7545.6334 302.9523 -9317.9922 -7577.3141 300.1456 554.2022 611.6271 30075.4251 47.8048 105.5332
ENERGY: 900000 5.2891 10.4429 6.2467 0.0000 -10621.0222 1417.0589 0.0000 0.0000 1759.3822 -7422.6024 300.7342 -9181.9846 -7550.7452 301.2562 191.3363 218.8254 30751.8618 -13.9248 40.9962
ENERGY: 1200000 2.0447 14.3956 5.0379 0.0000 -10839.1086 1422.5615 0.0000 0.0000 1722.0905 -7672.9783 294.3598 -9395.0688 -7564.1410 299.5496 -351.3962 -262.1577 30147.3459 -21.2097 29.9802
ENERGY: 1500000 5.6788 13.3339 8.5809 0.0000 -10853.5627 1499.6008 0.0000 0.0000 1743.0102 -7583.3582 297.9357 -9326.3684 -7568.4403 299.2870 757.9410 828.0391 30096.6338 -29.4669 21.8450
TCL: Running FEP window  12: Lambda1 0.5499999999999999 Lambda2 0.6    [dLambda 0.050000000000000044]
TCL: Setting parameter firsttimestep to 0
TCL: Setting parameter alchLambda to 0.5499999999999999
Info: NONBONDED TABLE R-SQUARED SPACING: 0.0625
Info: NONBONDED TABLE SIZE: 705 POINTS
TCL: Setting parameter alchLambda2 to 0.6
Info: NONBONDED TABLE R-SQUARED SPACING: 0.0625
Info: NONBONDED TABLE SIZE: 705 POINTS
TCL: Running for 1500000 steps
ETITLE: TS BOND ANGLE DIHED IMPRP ELECT VDW BOUNDARY MISC KINETIC TOTAL TEMP POTENTIAL TOTALAVG TEMPAVG PRESSURE GPRESSURE VOLUME PRESSAVG GPRESSAVG
ENERGY: 0 5.6788 13.3339 8.5809 0.0000 -10853.4057 1499.5800 0.0000 0.0000 1742.1381 -7584.0941 297.7866 -9326.2322 -7584.0941 297.7866 757.3991 841.0847 30096.6338 757.3991 841.0847
ENERGY: 300000 3.8135 11.2328 2.8613 0.0000 -10860.8252 1465.9628 0.0000 0.0000 1758.1597 -7618.7951 300.5252 -9376.9548 -7605.1901 299.0456 244.1630 315.6945 30039.0403 156.5493 216.1840
ENERGY: 600000 6.4428 8.8031 4.5377 0.0000 -10679.0482 1386.8978 0.0000 0.0000 1760.8809 -7511.4859 300.9903 -9272.3668 -7579.8311 299.6474 -387.4711 -263.9672 30816.0314 112.2190 196.4751
ENERGY: 900000 6.0863 16.6151 5.2392 0.0000 -10648.5108 1368.5365 0.0000 0.0000 1733.5314 -7518.5024 296.3154 -9252.0338 -7569.7117 299.5631 -496.4381 -457.1374 30354.4223 94.3093 162.2106
ENERGY: 1200000 5.7550 12.9536 3.7383 0.0000 -10941.0525 1589.7449 0.0000 0.0000 1758.4229 -7570.4378 300.5702 -9328.8607 -7557.4590 300.7547 1257.5917 1405.8089 29871.8806 241.6538 307.1934
ENERGY: 1500000 3.2239 13.5098 6.4884 0.0000 -10675.7659 1395.6919 0.0000 0.0000 1757.5313 -7499.3206 300.4178 -9256.8519 -7554.0905 300.6976 -123.2491 -97.3283 30625.9479 203.5744 271.5372
TCL: Running FEP window  13: Lambda1 0.6    Lambda2 0.65   [dLambda 0.050000000000000044]
TCL: Setting parameter firsttimestep to 0
TCL: Setting parameter alchLambda to 0.6
Info: NONBONDED TABLE R-SQUARED SPACING: 0.0625
Info: NONBONDED TABLE SIZE: 705 POINTS
TCL: Setting parameter alchLambda2 to 0.65
Info: NONBONDED TABLE R-SQUARED SPACING: 0.0625
Info: NONBONDED TABLE SIZE: 705 POINTS
TCL: Running for 1500000 steps
ETITLE: TS BOND ANGLE DIHED IMPRP ELECT VDW BOUNDARY MISC KINETIC TOTAL TEMP POTENTIAL TOTALAVG TEMPAVG PRESSURE GPRESSURE VOLUME PRESSAVG GPRESSAVG
ENERGY: 0 3.2239 13.5098 6.4884 0.0000 -10676.7736 1395.7538 0.0000 0.0000 1756.6274 -7501.1704 300.2633 -9257.7978 -7501.1704 300.2633 -154.6739 -89.8544 30625.9479 -154.6739 -89.8544
ENERGY: 300000 1.7592 9.0415 3.5459 0.0000 -10867.0278 1489.2295 0.0000 0.0000 1740.6424 -7622.8093 297.5309 -9363.4517 -7536.8766 300.9094 304.9031 400.3754 30283.8655 -69.7225 -1.3903
ENERGY: 600000 5.0499 12.0562 2.0349 0.0000 -10901.1559 1505.1993 0.0000 0.0000 1742.7615 -7634.0540 297.8932 -9376.8155 -7562.2954 300.4535 516.3283 609.8962 30029.8935 232.7861 303.7293
ENERGY: 900000 1.7491 14.3276 6.7099 0.0000 -10964.7211 1538.2798 0.0000 0.0000 1763.2118 -7640.4430 301.3888 -9403.6548 -7570.2117 300.5759 742.4156 814.0390 29912.0341 182.3142 250.2713
ENERGY: 1200000 5.5835 13.2835 6.1213 0.0000 -10819.9611 1419.1103 0.0000 0.0000 1754.7077 -7621.1548 299.9352 -9375.8626 -7570.7957 300.3638 -258.1365 -87.6031 30089.5980 109.1129 179.7734
ENERGY: 1500000 11.6325 13.6802 6.2010 0.0000 -10859.5757 1454.5802 0.0000 0.0000 1733.5032 -7639.9785 296.3106 -9373.4817 -7578.2903 300.0517 217.4952 257.6878 29947.9845 107.1997 171.7030
TCL: Running FEP window  14: Lambda1 0.65   Lambda2 0.7000000000000001 [dLambda 0.050000000000000044]
TCL: Setting parameter firsttimestep to 0
TCL: Setting parameter alchLambda to 0.65
Info: NONBONDED TABLE R-SQUARED SPACING: 0.0625
Info: NONBONDED TABLE SIZE: 705 POINTS
TCL: Setting parameter alchLambda2 to 0.7000000000000001
Info: NONBONDED TABLE R-SQUARED SPACING: 0.0625
Info: NONBONDED TABLE SIZE: 705 POINTS
TCL: Running for 1500000 steps
ETITLE: TS BOND ANGLE DIHED IMPRP ELECT VDW BOUNDARY MISC KINETIC TOTAL TEMP POTENTIAL TOTALAVG TEMPAVG PRESSURE GPRESSURE VOLUME PRESSAVG GPRESSAVG
ENERGY: 0 11.6325 13.6802 6.2010 0.0000 -10861.5731 1454.6216 0.0000 0.0000 1732.6254 -7642.8123 296.1606 -9375.4378 -7642.8123 296.1606 189.7510 268.4101 29947.9845 189.7510 268.4101
ENERGY: 300000 4.0821 12.0006 2.9364 0.0000 -10775.3613 1378.1393 0.0000 0.0000 1691.1820 -7687.0210 289.0766 -9378.2029 -7643.0968 292.6948 -794.6613 -730.0330 30474.6864 -107.8464 -51.0328
ENERGY: 600000 3.5649 11.1631 1.5932 0.0000 -10698.5064 1375.7730 0.0000 0.0000 1747.5484 -7558.8638 298.7114 -9306.4122 -7600.5726 294.5425 -644.9513 -568.0984 30534.8159 -278.2893 -212.6587
ENERGY: 900000 3.2882 13.4699 2.5642 0.0000 -10808.0126 1409.2301 0.0000 0.0000 1786.7940 -7592.6662 305.4197 -9379.4602 -7590.1355 297.4869 -507.7020 -460.3372 30517.5855 -307.0615 -237.8411
ENERGY: 1200000 2.3025 13.4221 3.4944 0.0000 -10646.7468 1385.1125 0.0000 0.0000 1692.2232 -7550.1921 289.2546 -9242.4153 -7583.3393 297.5613 -41.1368 16.1472 30261.8291 -264.5460 -193.0267
ENERGY: 1500000 4.3230 15.8216 3.6753 0.0000 -10746.5740 1435.0792 0.0000 0.0000 1747.0496 -7540.6253 298.6261 -9287.6749 -7586.2437 298.2990 376.3330 456.8666 29987.1556 -148.0643 -82.0246
TCL: Running FEP window  15: Lambda1 0.7000000000000001 Lambda2 0.7500000000000001 [dLambda 0.050000000000000044]
TCL: Setting parameter firsttimestep to 0
TCL: Setting parameter alchLambda to 0.7000000000000001
Info: NONBONDED TABLE R-SQUARED SPACING: 0.0625
Info: NONBONDED TABLE SIZE: 705 POINTS
TCL: Setting parameter alchLambda2 to 0.7500000000000001
Info: NONBONDED TABLE R-SQUARED SPACING: 0.0625
Info: NONBONDED TABLE SIZE: 705 POINTS
TCL: Running for 1500000 steps
ETITLE: TS BOND ANGLE DIHED IMPRP ELECT VDW BOUNDARY MISC KINETIC TOTAL TEMP POTENTIAL TOTALAVG TEMPAVG PRESSURE GPRESSURE VOLUME PRESSAVG GPRESSAVG
ENERGY: 0 4.3230 15.8216 3.6753 0.0000 -10747.8863 1435.5902 0.0000 0.0000 1746.1636 -7542.3125 298.4747 -9288.4762 -7542.3125 298.4747 403.6115 473.3180 29987.1556 403.6115 473.3180
ENERGY: 300000 6.0508 13.4001 3.2583 0.0000 -10687.0767 1358.9390 0.0000 0.0000 1709.4438 -7595.9848 292.1981 -9305.4285 -7576.5913 296.3947 -642.4549 -596.0797 30440.1006 43.0904 95.8470
ENERGY: 600000 3.8340 12.5284 6.3435 0.0000 -10821.1436 1478.1107 0.0000 0.0000 1819.5285 -7500.7985 311.0151 -9320.3270 -7556.1216 299.3661 530.9967 628.1362 30284.6461 91.2921 139.3821
ENERGY: 900000 6.9982 10.1208 1.9395 0.0000 -10715.9708 1367.6963 0.0000 0.0000 1759.3512 -7569.8649 300.7289 -9329.2161 -7578.5526 297.9491 -523.5076 -496.4991 30608.7178 -26.8607 19.4277
ENERGY: 1200000 9.5160 13.1795 3.9779 0.0000 -10830.4817 1492.6633 0.0000 0.0000 1752.1276 -7559.0175 299.4941 -9311.1451 -7575.2499 299.3685 836.8404 866.1064 29576.6095 -7.9509 39.7871
ENERGY: 1500000 7.2897 11.7125 2.7314 0.0000 -10825.0353 1458.9399 0.0000 0.0000 1760.6077 -7583.7541 300.9437 -9344.3618 -7580.1741 300.0642 -12.1658 66.0794 29992.1519 57.6012 101.7250
TCL: Running FEP window  16: Lambda1 0.7500000000000001 Lambda2 0.8000000000000002 [dLambda 0.050000000000000044]
TCL: Setting parameter firsttimestep to 0
TCL: Setting parameter alchLambda to 0.7500000000000001
Info: NONBONDED TABLE R-SQUARED SPACING: 0.0625
Info: NONBONDED TABLE SIZE: 705 POINTS
TCL: Setting parameter alchLambda2 to 0.8000000000000002
Info: NONBONDED TABLE R-SQUARED SPACING: 0.0625
Info: NONBONDED TABLE SIZE: 705 POINTS
TCL: Running for 1500000 steps
ETITLE: TS BOND ANGLE DIHED IMPRP ELECT VDW BOUNDARY MISC KINETIC TOTAL TEMP POTENTIAL TOTALAVG TEMPAVG PRESSURE GPRESSURE VOLUME PRESSAVG GPRESSAVG
ENERGY: 0 7.2897 11.7125 2.7314 0.0000 -10826.3753 1459.4958 0.0000 0.0000 1759.7628 -7585.3832 300.7992 -9345.1460 -7585.3832 300.7992 17.6582 86.2513 29992.1519 17.6582 86.2513
ENERGY: 300000 4.2783 13.2691 3.7406 0.0000 -10695.7705 1354.2692 0.0000 0.0000 1727.6044 -7592.6090 295.3023 -9320.2134 -7577.6799 300.9848 -687.7535 -625.1836 30367.3926 -85.4484 -11.5066
ENERGY: 600000 5.5782 11.2284 3.2726 0.0000 -10671.6480 1325.3475 0.0000 0.0000 1780.0481 -7546.1733 304.2666 -9326.2214 -7568.8754 300.5273 -907.7093 -864.6377 30474.9881 -254.2974 -195.2387
ENERGY: 900000 16.4030 11.4434 4.6094 0.0000 -10763.1673 1388.5987 0.0000 0.0000 1772.2399 -7569.8729 302.9320 -9342.1128 -7571.9177 300.9387 -351.0134 -258.2101 30188.7955 -44.8353 17.4842
ENERGY: 1200000 8.0874 14.5072 3.9007 0.0000 -10714.3772 1393.6488 0.0000 0.0000 1776.4562 -7517.7767 303.6527 -9294.2330 -7577.3863 300.4255 252.3496 378.0389 29788.7470 -41.8663 25.2354
ENERGY: 1500000 5.4578 15.0063 3.0402 0.0000 -10728.4738 1359.6384 0.0000 0.0000 1767.7968 -7577.5343 302.1725 -9345.3312 -7582.2901 299.9556 -404.9617 -330.2643 30173.9584 -72.2937 -9.5769
TCL: Running FEP window  17: Lambda1 0.8000000000000002 Lambda2 0.8500000000000002 [dLambda 0.050000000000000044]
TCL: Setting parameter firsttimestep to 0
TCL: Setting parameter alchLambda to 0.8000000000000002
Info: NONBONDED TABLE R-SQUARED SPACING: 0.0625
Info: NONBONDED TABLE SIZE: 705 POINTS
TCL: Setting parameter alchLambda2 to 0.8500000000000002
Info: NONBONDED TABLE R-SQUARED SPACING: 0.0625
Info: NONBONDED TABLE SIZE: 705 POINTS
TCL: Running for 1500000 steps
ETITLE: TS BOND ANGLE DIHED IMPRP ELECT VDW BOUNDARY MISC KINETIC TOTAL TEMP POTENTIAL TOTALAVG TEMPAVG PRESSURE GPRESSURE VOLUME PRESSAVG GPRESSAVG
ENERGY: 0 5.4578 15.0063 3.0402 0.0000 -10733.1724 1364.2915 0.0000 0.0000 1766.8957 -7578.4810 302.0185 -9345.3767 -7578.4810 302.0185 -377.4401 -288.8283 30173.9584 -377.4401 -288.8283
ENERGY: 300000 5.8719 12.6009 2.8576 0.0000 -10786.1431 1410.7715 0.0000 0.0000 1718.9699 -7635.0713 293.8264 -9354.0412 -7649.1539 296.6856 -497.8176 -405.5388 30426.8828 -209.8458 -148.1140
ENERGY: 600000 3.0402 15.1887 1.9337 0.0000 -10662.9430 1374.5791 0.0000 0.0000 1774.2765 -7493.9248 303.2801 -9268.2013 -7607.5770 298.3579 -424.8395 -308.0397 30380.6235 -250.0494 -184.4921
ENERGY: 900000 2.7508 12.9091 6.1619 0.0000 -10896.3999 1551.9582 0.0000 0.0000 1769.7193 -7552.9005 302.5011 -9322.6199 -7589.0941 298.0727 1400.0699 1411.3183 29793.0485 -74.6188 -15.8776
ENERGY: 1200000 12.0292 11.0992 4.1404 0.0000 -10780.7009 1422.5312 0.0000 0.0000 1770.4852 -7560.4158 302.6320 -9330.9010 -7588.8976 298.7037 -230.0585 -206.6710 30160.5080 -4.2912 50.3440
ENERGY: 1500000 7.1470 10.8146 2.3316 0.0000 -10780.7719 1432.9213 0.0000 0.0000 1789.5968 -7537.9606 305.8988 -9327.5574 -7577.5432 299.4106 157.7512 218.2118 30134.6317 14.9154 69.2194
TCL: Running FEP window  18: Lambda1 0.8500000000000002 Lambda2 0.9000000000000002 [dLambda 0.050000000000000044]
TCL: Setting parameter firsttimestep to 0
TCL: Setting parameter alchLambda to 0.8500000000000002
Info: NONBONDED TABLE R-SQUARED SPACING: 0.0625
Info: NONBONDED TABLE SIZE: 705 POINTS
TCL: Setting parameter alchLambda2 to 0.9000000000000002
Info: NONBONDED TABLE R-SQUARED SPACING: 0.0625
Info: NONBONDED TABLE SIZE: 705 POINTS
TCL: Running for 1500000 steps
ETITLE: TS BOND ANGLE DIHED IMPRP ELECT VDW BOUNDARY MISC KINETIC TOTAL TEMP POTENTIAL TOTALAVG TEMPAVG PRESSURE GPRESSURE VOLUME PRESSAVG GPRESSAVG
ENERGY: 0 7.1470 10.8146 2.3316 0.0000 -10783.6264 1433.8738 0.0000 0.0000 1788.7373 -7540.7221 305.7519 -9329.4594 -7540.7221 305.7519 162.3043 241.7359 30134.6317 162.3043 241.7359
ENERGY: 300000 6.3523 10.1043 1.6065 0.0000 -10723.8095 1374.2188 0.0000 0.0000 1750.6599 -7580.8676 299.2433 -9331.5276 -7586.4397 300.0018 -470.1322 -380.2603 30459.5893 -221.7314 -143.6538
ENERGY: 600000 7.3806 10.8277 1.9955 0.0000 -10752.7910 1399.9741 0.0000 0.0000 1758.1819 -7574.4313 300.5290 -9332.6132 -7579.1935 299.6023 -74.7035 -82.4572 30077.9754 43.3149 110.7076
ENERGY: 900000 2.3034 11.4672 2.5881 0.0000 -10769.8726 1372.1030 0.0000 0.0000 1771.1276 -7610.2834 302.7418 -9381.4109 -7581.4598 299.4910 -689.1345 -622.4606 30733.4435 -69.3959 -11.0058
ENERGY: 1200000 4.1834 15.3394 4.7187 0.0000 -10945.5669 1487.7907 0.0000 0.0000 1747.5666 -7685.9681 298.7145 -9433.5348 -7578.6854 300.3503 375.1090 419.2462 29614.7206 -56.8116 7.7218
ENERGY: 1500000 7.2622 13.6287 4.9175 0.0000 -10736.8930 1402.8319 0.0000 0.0000 1713.4018 -7594.8509 292.8747 -9308.2527 -7580.7209 299.6961 207.4129 270.0781 30066.2436 73.6924 141.6873
TCL: Running FEP window  19: Lambda1 0.9000000000000002 Lambda2 0.9500000000000003 [dLambda 0.050000000000000044]
TCL: Setting parameter firsttimestep to 0
TCL: Setting parameter alchLambda to 0.9000000000000002
Info: NONBONDED TABLE R-SQUARED SPACING: 0.0625
Info: NONBONDED TABLE SIZE: 705 POINTS
TCL: Setting parameter alchLambda2 to 0.9500000000000003
Info: NONBONDED TABLE R-SQUARED SPACING: 0.0625
Info: NONBONDED TABLE SIZE: 705 POINTS
TCL: Running for 1500000 steps
ETITLE: TS BOND ANGLE DIHED IMPRP ELECT VDW BOUNDARY MISC KINETIC TOTAL TEMP POTENTIAL TOTALAVG TEMPAVG PRESSURE GPRESSURE VOLUME PRESSAVG GPRESSAVG
ENERGY: 0 7.2622 13.6287 4.9175 0.0000 -10740.1935 1403.8390 0.0000 0.0000 1712.5883 -7597.9578 292.7356 -9310.5461 -7597.9578 292.7356 203.2173 290.1847 30066.2436 203.2173 290.1847
ENERGY: 300000 3.2503 11.7325 4.1292 0.0000 -10765.3115 1414.6485 0.0000 0.0000 1766.3509 -7565.2001 301.9253 -9331.5509 -7597.0054 298.7753 140.9874 191.5548 29995.7919 98.5425 184.8197
ENERGY: 600000 5.3583 13.2062 3.3975 0.0000 -10655.2744 1383.9318 0.0000 0.0000 1752.0654 -7497.3152 299.4835 -9249.3806 -7587.1828 298.3322 -498.9638 -480.2228 30869.3550 -70.0056 -0.8222
ENERGY: 900000 6.2142 17.3130 2.0146 0.0000 -10732.3563 1352.3122 0.0000 0.0000 1778.8252 -7575.6771 304.0576 -9354.5023 -7583.1583 298.6145 -716.1237 -658.6757 30474.0527 -183.7074 -116.1130
ENERGY: 1200000 9.3092 12.0034 3.6883 0.0000 -10756.0662 1363.3196 0.0000 0.0000 1730.7290 -7637.0166 295.8364 -9367.7456 -7584.1308 299.1173 -634.0396 -634.2677 30214.8730 -193.7333 -135.2840
ENERGY: 1500000 3.6525 13.7807 5.3407 0.0000 -10820.3872 1433.8283 0.0000 0.0000 1744.6416 -7619.1434 298.2145 -9363.7850 -7595.2729 298.1828 -170.1256 -131.5427 30468.2538 -188.0598 -135.0376
TCL: Running FEP window  20: Lambda1 0.9500000000000003 Lambda2 1.0    [dLambda 0.04999999999999971]
TCL: Setting parameter firsttimestep to 0
TCL: Setting parameter alchLambda to 0.9500000000000003
Info: NONBONDED TABLE R-SQUARED SPACING: 0.0625
Info: NONBONDED TABLE SIZE: 705 POINTS
TCL: Setting parameter alchLambda2 to 1.0
Info: NONBONDED TABLE R-SQUARED SPACING: 0.0625
Info: NONBONDED TABLE SIZE: 705 POINTS
TCL: Running for 1500000 steps
ETITLE: TS BOND ANGLE DIHED IMPRP ELECT VDW BOUNDARY MISC KINETIC TOTAL TEMP POTENTIAL TOTALAVG TEMPAVG PRESSURE GPRESSURE VOLUME PRESSAVG GPRESSAVG
ENERGY: 0 3.6525 13.7807 5.3407 0.0000 -10823.7385 1434.5793 0.0000 0.0000 1743.7501 -7622.6352 298.0622 -9366.3853 -7622.6352 298.0622 -184.3867 -109.9364 30468.2538 -184.3867 -109.9364
ENERGY: 300000 6.5719 15.1790 4.5074 0.0000 -10963.2860 1491.2444 0.0000 0.0000 1755.0427 -7690.7406 299.9924 -9445.7833 -7646.5461 298.1167 508.5016 622.4070 29506.6984 60.0189 145.9603
ENERGY: 600000 6.6733 13.0398 5.3227 0.0000 -10615.0928 1369.6208 0.0000 0.0000 1779.7082 -7440.7280 304.2085 -9220.4362 -7612.7354 298.9237 -279.3673 -216.5995 30453.5179 26.7688 97.4829
ENERGY: 900000 6.8500 10.9057 1.9516 0.0000 -10776.2343 1329.5319 0.0000 0.0000 1743.8678 -7683.1273 298.0823 -9426.9951 -7621.1165 299.3275 -829.2741 -819.9352 30371.9006 -7.7221 62.1137
ENERGY: 1200000 5.2079 18.4220 4.0531 0.0000 -10791.9876 1498.6537 0.0000 0.0000 1776.5799 -7489.0710 303.6738 -9265.6510 -7620.0793 299.2264 603.4431 706.7496 30567.2258 38.9506 100.0098
ENERGY: 1500000 5.0092 10.1813 4.0144 0.0000 -10666.6150 1339.7847 0.0000 0.0000 1808.2703 -7499.3550 309.0907 -9307.6253 -7604.9341 300.0513 -533.6546 -501.1277 30474.2153 55.8316 115.4428
TCL: Exiting due to exit command.
