Info: SIMULATION PARAMETERS:
Info: TIMESTEP               2
Info: NUMBER OF STEPS        0
Info: STEPS PER CYCLE        10
Info: PERIODIC CELL BASIS 1  31.9382 0 0
Info: PERIODIC CELL BASIS 2  0 30.0183 0
Info: PERIODIC CELL BASIS 3  0 0 31.6002
Info: PERIODIC CELL CENTER   0 0 0
Info: WRAPPING WATERS AROUND PERIODIC BOUNDARIES ON OUTPUT.
Info: WRAPPING ALL CLUSTERS AROUND PERIODIC BOUNDARIES ON OUTPUT.
Info: FIRST LDB TIMESTEP     50
Info: LAST LDB TIMESTEP     -1
Info: HOM BACKGROUND SCALING 1
Info: PME BACKGROUND SCALING 1
Info: MIN ATOMS PER PATCH    40
Info: EMPTY PATCH LOAD       40 ATOMS
Info: VELOCITY FILE          mobley_2837389_equil.vel
Info: CENTER OF MASS MOVING INITIALLY? NO
Info: DIELECTRIC             1
Info: EXCLUDE                SCALED ONE-FOUR
Info: 1-4 ELECTROSTATICS SCALED BY 0.833333
Info: MODIFIED 1-4 VDW PARAMETERS WILL BE USED
Info: DCD FILENAME           mobley_2837389_prod.dcd
Info: DCD FREQUENCY          100000
Info: DCD FIRST STEP         100000
Info: DCD FILE WILL CONTAIN UNIT CELL DATA
Info: XST FILENAME           mobley_2837389_prod.xst
Info: XST FREQUENCY          100000
Info: NO VELOCITY DCD OUTPUT
Info: NO FORCE DCD OUTPUT
Info: OUTPUT FILENAME        mobley_2837389_prod
Info: BINARY OUTPUT FILES WILL BE USED
Info: RESTART FILENAME       mobley_2837389_prod.restart
Info: RESTART FREQUENCY      100000
Info: BINARY RESTART FILES WILL BE USED
Info: CUTOFF                 9
Info: PAIRLIST DISTANCE      11
Info: PAIRLIST SHRINK RATE   0.01
Info: PAIRLIST GROW RATE     0.01
Info: PAIRLIST TRIGGER       0.3
Info: PAIRLISTS PER CYCLE    2
Info: PAIRLISTS ENABLED
Info: MARGIN                 2
Info: HYDROGEN GROUP CUTOFF  2.5
Info: PATCH DIMENSION        15.5
Info: ENERGY OUTPUT STEPS    100000
Info: ENERGY EVALUATION STEPS    100000
Info: OUTPUT ENERGY PRECISION 4
Info: CROSSTERM ENERGY INCLUDED IN DIHEDRAL
Info: TIMING OUTPUT STEPS    1000000
Info: PRESSURE OUTPUT STEPS  100000
Info: ALCHEMICAL FEP ON
Info: FEP CURRENT LAMBDA VALUE     1
Info: FEP COMPARISON LAMBDA VALUE  0.95
Info: FEP INTRA-ALCHEMICAL NON-BONDED INTERACTIONS WILL BE RETAINED
Info: FEP INTRA-ALCHEMICAL BONDED INTERACTIONS WILL BE RETAINED
Info: FEP VDW SHIFTING COEFFICIENT 5
Info: FEP ELEC. ACTIVE FOR ANNIHILATED PARTICLES BETWEEN LAMBDA = 0 AND LAMBDA = 0.5
Info: FEP ELEC. ACTIVE FOR EXNIHILATED PARTICLES BETWEEN LAMBDA = 0.5 AND LAMBDA = 1
Info: FEP VDW ACTIVE FOR ANNIHILATED PARTICLES BETWEEN LAMBDA = 0 AND LAMBDA = 1
Info: FEP VDW ACTIVE FOR EXNIHILATED PARTICLES BETWEEN LAMBDA = 0 AND LAMBDA = 1
Info: FEP BOND ACTIVE FOR ANNIHILATED PARTICLES BETWEEN LAMBDA = 1 AND LAMBDA = 1
Info: FEP BOND ACTIVE FOR EXNIHILATED PARTICLES BETWEEN LAMBDA = 0 AND LAMBDA = 0
Info: LANGEVIN DYNAMICS ACTIVE
Info: LANGEVIN TEMPERATURE   300
Info: LANGEVIN USING BBK INTEGRATOR
Info: LANGEVIN DAMPING COEFFICIENT IS 1 INVERSE PS
Info: LANGEVIN DYNAMICS APPLIED TO HYDROGENS
Info: LANGEVIN PISTON PRESSURE CONTROL ACTIVE
Info:        TARGET PRESSURE IS 1.01325 BAR
Info:     OSCILLATION PERIOD IS 50 FS
Info:             DECAY TIME IS 25 FS
Info:     PISTON TEMPERATURE IS 300 K
Info:       PRESSURE CONTROL IS GROUP-BASED
Info:    INITIAL STRAIN RATE IS -4.06503e-05 -4.06503e-05 -4.06503e-05
Info:       CELL FLUCTUATION IS ISOTROPIC
Info: PARTICLE MESH EWALD (PME) ACTIVE
Info: PME TOLERANCE               1e-06
Info: PME EWALD COEFFICIENT       0.348832
Info: PME INTERPOLATION ORDER     4
Info: PME GRID DIMENSIONS         32 32 32
Info: PME MAXIMUM GRID SPACING    1
Info: PME CALCULATION WILL BE PERFORMED ON GPU
Info: FULL ELECTROSTATIC EVALUATION FREQUENCY      2
Info: USING VERLET I (r-RESPA) MTS SCHEME.
Info: C1 SPLITTING OF LONG RANGE ELECTROSTATICS
Info: PLACING ATOMS IN PATCHES BY HYDROGEN GROUPS
Info: RIGID BONDS TO HYDROGEN : ALL
Info:         ERROR TOLERANCE : 1e-08
Info:          MAX ITERATIONS : 100
Info: RIGID WATER USING SETTLE ALGORITHM
Info: RANDOM NUMBER SEED     1743520536
Info: USE HYDROGEN BONDS?    NO
Info: Using AMBER format force field!
Info: AMBER PARM FILE        mobley_2837389.prmtop
Info: COORDINATE PDB         mobley_2837389.pdb
Info: Exclusions will be read from PARM file!
Info: SCNB (VDW SCALING)     2
Info: USING ARITHMETIC MEAN TO COMBINE L-J SIGMA PARAMETERS
Info: BINARY COORDINATES     mobley_2837389_equil.coor
Info: SUMMARY OF PARAMETERS:
Info: 8 BONDS
Info: 8 ANGLES
Info:   8 HARMONIC
Info:   0 COSINE-BASED
Info: 3 DIHEDRAL
Info: 0 IMPROPER
Info: 0 CROSSTERM
Info: 0 VDW
Info: 28 VDW_PAIRS
Info: 0 NBTHOLE_PAIRS
Info: To read alchdata from file: mobley_2837389.pdb
Info: To read alchflag data from column: 5
Info: STRUCTURE SUMMARY:
Info: 2944 ATOMS
Info: 2944 BONDS
Info: 15 ANGLES
Info: 25 DIHEDRALS
Info: 0 IMPROPERS
Info: 0 CROSSTERMS
Info: 2974 EXCLUSIONS
Info: 2939 RIGID BONDS
Info: ALCH: 0 ATOMS TO DISAPPEAR IN FINAL STATE
Info: ALCH: 10 ATOMS TO APPEAR IN FINAL STATE
Info: 5893 DEGREES OF FREEDOM
Info: 983 HYDROGEN GROUPS
Info: 3 ATOMS IN LARGEST HYDROGEN GROUP
Info: 983 MIGRATION GROUPS
Info: 3 ATOMS IN LARGEST MIGRATION GROUP
Info: TOTAL MASS = 17686.7 amu
Info: TOTAL CHARGE = -0.000100017 e
Info: MASS DENSITY = 0.96944 g/cm^3
Info: ATOM DENSITY = 0.0971744 atoms/A^3
Info: ADDED 0 IMPLICIT EXCLUSIONS
Info: NONBONDED TABLE R-SQUARED SPACING: 0.0625
Info: NONBONDED TABLE SIZE: 705 POINTS
Info: REMOVING COM VELOCITY 0.137527 0.0134954 0.172472
Info: Use 3D box decompostion in PME FFT.
Info: Updated CUDA force table with 4096 elements.
Info: Updated CUDA LJ table with 7 x 7 elements.
Info: Found 11 unique exclusion lists needing 16 bytes
TCL: Running for 1500000 steps
ETITLE: TS BOND ANGLE DIHED IMPRP ELECT VDW BOUNDARY MISC KINETIC TOTAL TEMP POTENTIAL TOTALAVG TEMPAVG PRESSURE GPRESSURE VOLUME PRESSAVG GPRESSAVG
ENERGY: 0 0.3350 3.7272 1.6107 0.0000 -10571.5702 1348.5600 0.0000 0.0000 1806.3910 -7410.9462 308.5075 -9217.3373 -7410.9462 308.5075 -457.7059 -360.9372 30296.0502 -457.7059 -360.9372
ENERGY: 300000 3.5032 5.4456 3.4332 0.0000 -10684.7348 1451.2651 0.0000 0.0000 1743.4390 -7477.6488 297.7561 -9221.0878 -7472.2897 299.6070 -199.6788 -78.2578 30643.0203 105.7328 177.2279
ENERGY: 600000 4.7159 5.8132 1.6538 0.0000 -10839.7742 1550.1535 0.0000 0.0000 1728.9096 -7548.5282 295.2747 -9277.4378 -7505.8804 298.3972 858.5407 940.5722 30291.5425 314.2250 381.2738
ENERGY: 900000 0.2000 5.3370 3.7845 0.0000 -10802.9274 1446.4584 0.0000 0.0000 1723.3425 -7623.8049 294.3239 -9347.1474 -7515.4231 297.7700 -496.8571 -397.0371 30763.9298 184.0259 258.6667
ENERGY: 1200000 2.7837 6.3597 3.3783 0.0000 -10679.7162 1449.0291 0.0000 0.0000 1794.2748 -7423.8906 306.4382 -9218.1655 -7500.7534 298.8585 246.8410 261.7961 30536.9941 143.1714 206.7336
ENERGY: 1500000 2.2485 5.8594 4.3113 0.0000 -10645.3597 1369.5956 0.0000 0.0000 1766.4124 -7496.9325 301.6797 -9263.3450 -7503.7897 299.2087 -779.2709 -711.9238 30863.7861 30.0758 92.8857
TCL: Running FEP window   2: Lambda1 0.95   Lambda2 0.8999999999999999 [dLambda -0.050000000000000044]
TCL: Setting parameter firsttimestep to 0
TCL: Setting parameter alchLambda to 0.95
Info: NONBONDED TABLE R-SQUARED SPACING: 0.0625
Info: NONBONDED TABLE SIZE: 705 POINTS
TCL: Setting parameter alchLambda2 to 0.8999999999999999
Info: NONBONDED TABLE R-SQUARED SPACING: 0.0625
Info: NONBONDED TABLE SIZE: 705 POINTS
TCL: Running for 1500000 steps
ETITLE: TS BOND ANGLE DIHED IMPRP ELECT VDW BOUNDARY MISC KINETIC TOTAL TEMP POTENTIAL TOTALAVG TEMPAVG PRESSURE GPRESSURE VOLUME PRESSAVG GPRESSAVG
ENERGY: 0 2.2485 5.8594 4.3113 0.0000 -10643.8836 1369.4843 0.0000 0.0000 1765.5274 -7496.4528 301.5285 -9261.9802 -7496.4528 301.5285 -793.4421 -719.9515 30863.7861 -793.4421 -719.9515
ENERGY: 300000 3.6950 6.2862 1.5538 0.0000 -10597.6729 1382.7145 0.0000 0.0000 1722.7460 -7480.6774 294.2220 -9203.4233 -7485.9452 297.6949 -738.3144 -681.3561 30983.2093 -672.4922 -616.4695
ENERGY: 600000 2.7032 5.2896 4.9181 0.0000 -10560.2977 1426.8591 0.0000 0.0000 1789.3245 -7331.2032 305.5927 -9120.5277 -7483.3228 297.9693 251.6502 308.6215 30208.4864 -355.5427 -294.2554
ENERGY: 900000 2.2019 4.3384 3.2384 0.0000 -10586.5422 1378.8285 0.0000 0.0000 1794.3515 -7403.5833 306.4513 -9197.9348 -7475.4539 298.3541 -64.4779 -55.5281 30262.4520 -279.5276 -220.1216
ENERGY: 1200000 1.8599 8.4068 3.6790 0.0000 -10613.2699 1416.3120 0.0000 0.0000 1764.7318 -7418.2803 301.3927 -9183.0122 -7470.8039 299.5768 -173.4622 -111.3992 30748.8584 -247.1405 -186.1177
ENERGY: 1500000 0.6780 4.3462 2.5813 0.0000 -10890.4806 1585.2552 0.0000 0.0000 1749.9158 -7547.7041 298.8623 -9297.6199 -7468.7072 300.2020 1049.0473 1137.7312 29912.9517 -181.3997 -121.7881
TCL: Running FEP window   3: Lambda1 0.8999999999999999 Lambda2 0.8499999999999999 [dLambda -0.050000000000000044]
TCL: Setting parameter firsttimestep to 0
TCL: Setting parameter alchLambda to 0.8999999999999999
Info: NONBONDED TABLE R-SQUARED SPACING: 0.0625
Info: NONBONDED TABLE SIZE: 705 POINTS
TCL: Setting parameter alchLambda2 to 0.8499999999999999
Info: NONBONDED TABLE R-SQUARED SPACING: 0.0625
Info: NONBONDED TABLE SIZE: 705 POINTS
TCL: Running for 1500000 steps
ETITLE: TS BOND ANGLE DIHED IMPRP ELECT VDW BOUNDARY MISC KINETIC TOTAL TEMP POTENTIAL TOTALAVG TEMPAVG PRESSURE GPRESSURE VOLUME PRESSAVG GPRESSAVG
ENERGY: 0 0.6780 4.3462 2.5813 0.0000 -10889.5890 1585.5288 0.0000 0.0000 1749.0324 -7547.4223 298.7114 -9296.4547 -7547.4223 298.7114 1048.0200 1137.3605 29912.9517 1048.0200 1137.3605
ENERGY: 300000 1.4760 3.6367 3.8621 0.0000 -10798.5071 1485.6642 0.0000 0.0000 1678.4187 -7625.4493 286.6515 -9303.8680 -7530.6948 298.2587 419.2407 426.4612 29952.4199 144.9913 232.0560
ENERGY: 600000 1.5718 3.4204 1.3045 0.0000 -10643.3226 1441.2572 0.0000 0.0000 1764.8440 -7430.9247 301.4118 -9195.7687 -7499.1167 298.5488 -45.4251 -26.9843 30668.8084 182.4127 244.7828
ENERGY: 900000 1.9018 2.8637 3.8277 0.0000 -10691.5891 1418.5775 0.0000 0.0000 1741.9427 -7522.4758 297.5006 -9264.4185 -7503.6376 297.6926 -275.5748 -205.1993 30218.0864 123.2904 190.4790
ENERGY: 1200000 0.9380 3.8532 2.1117 0.0000 -10654.3365 1401.4718 0.0000 0.0000 1732.3965 -7513.5654 295.8702 -9245.9619 -7500.8278 297.8199 -221.3836 -195.3618 30084.8913 134.0868 197.7445
ENERGY: 1500000 2.6055 4.7121 2.2529 0.0000 -10643.0047 1461.4933 0.0000 0.0000 1805.4780 -7366.4629 308.3516 -9171.9409 -7494.7780 298.8455 232.8007 277.5747 30740.1659 190.3284 253.7583
TCL: Running FEP window   4: Lambda1 0.8499999999999999 Lambda2 0.7999999999999998 [dLambda -0.050000000000000044]
TCL: Setting parameter firsttimestep to 0
TCL: Setting parameter alchLambda to 0.8499999999999999
Info: NONBONDED TABLE R-SQUARED SPACING: 0.0625
Info: NONBONDED TABLE SIZE: 705 POINTS
TCL: Setting parameter alchLambda2 to 0.7999999999999998
Info: NONBONDED TABLE R-SQUARED SPACING: 0.0625
Info: NONBONDED TABLE SIZE: 705 POINTS
TCL: Running for 1500000 steps
ETITLE: TS BOND ANGLE DIHED IMPRP ELECT VDW BOUNDARY MISC KINETIC TOTAL TEMP POTENTIAL TOTALAVG TEMPAVG PRESSURE GPRESSURE VOLUME PRESSAVG GPRESSAVG
ENERGY: 0 2.6055 4.7121 2.2529 0.0000 -10641.7272 1461.5257 0.0000 0.0000 1804.5838 -7366.0471 308.1988 -9170.6310 -7366.0471 308.1988 182.2637 275.3021 30740.1659 182.2637 275.3021
ENERGY: 300000 1.8960 5.0625 3.0790 0.0000 -10703.7416 1467.0759 0.0000 0.0000 1701.9232 -7524.7049 290.6658 -9226.6282 -7450.8845 299.9874 108.6376 214.6291 30484.6373 197.6760 277.5613
ENERGY: 600000 0.3966 5.6582 1.6244 0.0000 -10694.3575 1484.0128 0.0000 0.0000 1816.6821 -7385.9836 310.2651 -9202.6656 -7465.7137 301.6343 445.4967 538.4970 30425.1090 115.9285 194.9206
ENERGY: 900000 1.4103 4.2996 5.3356 0.0000 -10767.6045 1529.6385 0.0000 0.0000 1776.7253 -7450.1952 303.4410 -9226.9205 -7467.9301 301.6869 697.2939 759.9889 30148.3484 123.1830 184.4104
ENERGY: 1200000 3.9263 4.0101 0.2273 0.0000 -10840.9321 1561.7250 0.0000 0.0000 1818.6634 -7452.3801 310.6034 -9271.0435 -7477.5723 301.6860 1063.6675 1141.2761 29647.0020 74.5825 137.4947
ENERGY: 1500000 0.2285 8.7760 2.9374 0.0000 -10749.7336 1454.7282 0.0000 0.0000 1793.9188 -7489.1447 306.3774 -9283.0635 -7482.0119 301.8417 65.6466 82.1926 30277.4122 37.3940 93.5556
TCL: Running FEP window   5: Lambda1 0.7999999999999998 Lambda2 0.7499999999999998 [dLambda -0.050000000000000044]
TCL: Setting parameter firsttimestep to 0
TCL: Setting parameter alchLambda to 0.7999999999999998
Info: NONBONDED TABLE R-SQUARED SPACING: 0.0625
Info: NONBONDED TABLE SIZE: 705 POINTS
TCL: Setting parameter alchLambda2 to 0.7499999999999998
Info: NONBONDED TABLE R-SQUARED SPACING: 0.0625
Info: NONBONDED TABLE SIZE: 705 POINTS
TCL: Running for 1500000 steps
ETITLE: TS BOND ANGLE DIHED IMPRP ELECT VDW BOUNDARY MISC KINETIC TOTAL TEMP POTENTIAL TOTALAVG TEMPAVG PRESSURE GPRESSURE VOLUME PRESSAVG GPRESSAVG
ENERGY: 0 0.2285 8.7760 2.9374 0.0000 -10748.2824 1454.4695 0.0000 0.0000 1793.0152 -7488.8559 306.2231 -9281.8711 -7488.8559 306.2231 -6.4722 74.5514 30277.4122 -6.4722 74.5514
ENERGY: 300000 2.9474 5.5614 3.0655 0.0000 -10802.9715 1472.5613 0.0000 0.0000 1731.1382 -7587.6979 295.6553 -9318.8360 -7541.8673 300.9588 -60.8024 -1.2816 30609.7461 459.3584 543.4679
ENERGY: 600000 1.0027 5.5732 1.7887 0.0000 -10667.2497 1423.0277 0.0000 0.0000 1714.6832 -7521.1742 292.8450 -9235.8574 -7528.8449 299.1196 -98.4085 -120.3409 30249.1960 183.4145 250.7978
ENERGY: 900000 0.6905 4.6132 3.4861 0.0000 -10713.2760 1435.1101 0.0000 0.0000 1758.9044 -7510.4717 300.3974 -9269.3761 -7523.3515 299.1488 -57.4828 37.8285 30194.8313 166.2810 241.1116
ENERGY: 1200000 3.7925 4.2064 1.8758 0.0000 -10699.1323 1376.0232 0.0000 0.0000 1739.0444 -7574.1899 297.0056 -9313.2343 -7520.1758 299.0283 -861.9651 -826.3655 30295.8351 27.8026 99.2607
ENERGY: 1500000 0.0879 5.2552 5.0137 0.0000 -10851.6865 1575.8370 0.0000 0.0000 1796.6733 -7468.8195 306.8478 -9265.4928 -7512.3709 299.3134 772.8884 858.1438 30737.4673 10.7610 82.4260
TCL: Running FEP window   6: Lambda1 0.7499999999999998 Lambda2 0.6999999999999997 [dLambda -0.050000000000000044]
TCL: Setting parameter firsttimestep to 0
TCL: Setting parameter alchLambda to 0.7499999999999998
Info: NONBONDED TABLE R-SQUARED SPACING: 0.0625
Info: NONBONDED TABLE SIZE: 705 POINTS
TCL: Setting parameter alchLambda2 to 0.6999999999999997
Info: NONBONDED TABLE R-SQUARED SPACING: 0.0625
Info: NONBONDED TABLE SIZE: 705 POINTS
TCL: Running for 1500000 steps
ETITLE: TS BOND ANGLE DIHED IMPRP ELECT VDW BOUNDARY MISC KINETIC TOTAL TEMP POTENTIAL TOTALAVG TEMPAVG PRESSURE GPRESSURE VOLUME PRESSAVG GPRESSAVG
ENERGY: 0 0.0879 5.2552 5.0137 0.0000 -10850.3780 1576.0011 0.0000 0.0000 1795.7927 -7468.2274 306.6974 -9264.0201 -7468.2274 306.6974 776.3256 860.3633 30737.4673 776.3256 860.3633
ENERGY: 300000 1.3394 7.4396 3.4627 0.0000 -10700.8562 1432.1424 0.0000 0.0000 1767.5309 -7488.9411 301.8707 -9256.4720 -7456.4744 304.0991 83.0734 94.4318 30012.9638 505.3869 549.3083
ENERGY: 600000 2.6133 4.1082 0.8624 0.0000 -10672.7937 1445.8729 0.0000 0.0000 1780.0605 -7439.2763 304.0106 -9219.3369 -7466.4712 302.9744 -138.6970 -99.1114 30503.6335 305.4890 360.8304
ENERGY: 900000 2.6843 3.5738 2.2429 0.0000 -10803.8955 1484.6683 0.0000 0.0000 1776.0260 -7534.7001 303.3215 -9310.7261 -7466.2103 301.9630 324.2105 329.0650 30334.9277 218.8043 276.3007
ENERGY: 1200000 2.0205 5.3442 1.2348 0.0000 -10719.4699 1502.6069 0.0000 0.0000 1796.3463 -7411.9172 306.7920 -9208.2635 -7459.4057 301.6992 910.5050 984.9345 29599.0814 197.5475 259.1919
ENERGY: 1500000 2.1543 4.5027 3.6489 0.0000 -10618.5435 1377.4471 0.0000 0.0000 1729.6437 -7501.1468 295.4001 -9230.7905 -7467.6675 301.0229 -378.0968 -282.4461 29979.3702 117.1181 180.6006
TCL: Running FEP window   7: Lambda1 0.6999999999999997 Lambda2 0.6499999999999997 [dLambda -0.050000000000000044]
TCL: Setting parameter firsttimestep to 0
TCL: Setting parameter alchLambda to 0.6999999999999997
Info: NONBONDED TABLE R-SQUARED SPACING: 0.0625
Info: NONBONDED TABLE SIZE: 705 POINTS
TCL: Setting parameter alchLambda2 to 0.6499999999999997
Info: NONBONDED TABLE R-SQUARED SPACING: 0.0625
Info: NONBONDED TABLE SIZE: 705 POINTS
TCL: Running for 1500000 steps
ETITLE: TS BOND ANGLE DIHED IMPRP ELECT VDW BOUNDARY MISC KINETIC TOTAL TEMP POTENTIAL TOTALAVG TEMPAVG PRESSURE GPRESSURE VOLUME PRESSAVG GPRESSAVG
ENERGY: 0 2.1543 4.5027 3.6489 0.0000 -10617.1285 1377.0370 0.0000 0.0000 1728.7281 -7501.0575 295.2437 -9229.7856 -7501.0575 295.2437 -364.8874 -289.2978 29979.3702 -364.8874 -289.2978
ENERGY: 300000 1.0429 6.4013 3.4209 0.0000 -10814.9491 1512.8472 0.0000 0.0000 1777.8819 -7513.3549 303.6385 -9291.2368 -7475.3944 302.7343 302.0163 377.1102 30395.2771 -155.8867 -76.5437
ENERGY: 600000 0.4638 6.0042 0.9329 0.0000 -10643.0851 1371.2990 0.0000 0.0000 1732.7971 -7531.5880 295.9386 -9264.3851 -7496.7919 299.4245 -673.7322 -549.1878 30473.8648 -247.6818 -167.8902
ENERGY: 900000 1.5294 7.1180 2.4489 0.0000 -10675.2669 1416.8655 0.0000 0.0000 1815.9215 -7431.3834 310.1352 -9247.3049 -7492.8329 299.8276 -357.9520 -297.5409 30839.2643 -165.3898 -92.5397
ENERGY: 1200000 1.1165 5.2205 2.2424 0.0000 -10580.0760 1378.8174 0.0000 0.0000 1699.0867 -7493.5926 290.1813 -9192.6792 -7486.5518 299.1127 -473.7116 -369.9236 30320.2926 -166.1881 -90.6422
ENERGY: 1500000 1.7375 5.5138 1.6177 0.0000 -10728.8263 1477.3828 0.0000 0.0000 1709.9610 -7532.6134 292.0385 -9242.5744 -7487.5729 298.7486 128.0984 257.4813 30248.4808 -221.5444 -138.8772
TCL: Running FEP window   8: Lambda1 0.6499999999999997 Lambda2 0.5999999999999996 [dLambda -0.050000000000000044]
TCL: Setting parameter firsttimestep to 0
TCL: Setting parameter alchLambda to 0.6499999999999997
Info: NONBONDED TABLE R-SQUARED SPACING: 0.0625
Info: NONBONDED TABLE SIZE: 705 POINTS
TCL: Setting parameter alchLambda2 to 0.5999999999999996
Info: NONBONDED TABLE R-SQUARED SPACING: 0.0625
Info: NONBONDED TABLE SIZE: 705 POINTS
TCL: Running for 1500000 steps
ETITLE: TS BOND ANGLE DIHED IMPRP ELECT VDW BOUNDARY MISC KINETIC TOTAL TEMP POTENTIAL TOTALAVG TEMPAVG PRESSURE GPRESSURE VOLUME PRESSAVG GPRESSAVG
ENERGY: 0 1.7375 5.5138 1.6177 0.0000 -10728.6029 1477.5347 0.0000 0.0000 1709.0856 -7533.1135 291.8890 -9242.1991 -7533.1135 291.8890 173.4837 254.6081 30248.4808 173.4837 254.6081
ENERGY: 300000 1.3454 5.5282 2.7390 0.0000 -10773.6787 1495.4012 0.0000 0.0000 1749.2905 -7519.3744 298.7555 -9268.6649 -7484.5836 297.9500 667.2198 720.5213 29839.3646 -9.6079 45.3476
ENERGY: 600000 0.4576 4.1150 2.7199 0.0000 -10655.6262 1422.6940 0.0000 0.0000 1728.6377 -7497.0019 295.2283 -9225.6396 -7493.9422 299.9236 -201.3126 -92.7046 30329.8474 35.8318 100.3158
ENERGY: 900000 0.9538 5.4551 1.8351 0.0000 -10787.4023 1483.9927 0.0000 0.0000 1746.4646 -7548.7011 298.2728 -9295.1657 -7499.5203 300.0057 -72.1966 28.1161 30611.1316 96.9775 160.6438
ENERGY: 1200000 0.2956 5.2801 3.3315 0.0000 -10690.7375 1453.3083 0.0000 0.0000 1723.7796 -7504.7423 294.3986 -9228.5219 -7496.1847 299.6835 239.6139 226.9793 30139.9387 93.1404 154.9611
ENERGY: 1500000 0.0870 6.0048 4.4725 0.0000 -10624.1676 1397.2155 0.0000 0.0000 1732.1518 -7484.2360 295.8284 -9216.3878 -7497.9101 298.6729 -357.6272 -270.8258 30465.3285 -39.4526 22.5097
TCL: Running FEP window   9: Lambda1 0.5999999999999996 Lambda2 0.5499999999999996 [dLambda -0.050000000000000044]
TCL: Setting parameter firsttimestep to 0
TCL: Setting parameter alchLambda to 0.5999999999999996
Info: NONBONDED TABLE R-SQUARED SPACING: 0.0625
Info: NONBONDED TABLE SIZE: 705 POINTS
TCL: Setting parameter alchLambda2 to 0.5499999999999996
Info: NONBONDED TABLE R-SQUARED SPACING: 0.0625
Info: NONBONDED TABLE SIZE: 705 POINTS
TCL: Running for 1500000 steps
ETITLE: TS BOND ANGLE DIHED IMPRP ELECT VDW BOUNDARY MISC KINETIC TOTAL TEMP POTENTIAL TOTALAVG TEMPAVG PRESSURE GPRESSURE VOLUME PRESSAVG GPRESSAVG
ENERGY: 0 0.0870 6.0048 4.4725 0.0000 -10623.4732 1397.0602 0.0000 0.0000 1731.2925 -7484.5562 295.6817 -9215.8487 -7484.5562 295.6817 -340.3580 -275.0774 30465.3285 -340.3580 -275.0774
ENERGY: 300000 3.3986 5.0977 1.6547 0.0000 -10812.1091 1470.3973 0.0000 0.0000 1785.7358 -7545.8250 304.9798 -9331.5608 -7487.6930 296.8708 0.5263 35.8875 30279.2376 -224.6817 -167.6791
ENERGY: 600000 0.5951 3.8952 1.7278 0.0000 -10690.9225 1452.9269 0.0000 0.0000 1759.3932 -7472.3841 300.4809 -9231.7774 -7485.7293 297.1840 87.9939 103.5592 30468.5696 -292.2046 -228.7023
ENERGY: 900000 1.6406 3.8291 4.1247 0.0000 -10739.6157 1535.1854 0.0000 0.0000 1762.3556 -7432.4803 300.9868 -9194.8359 -7476.0871 297.7988 806.7563 907.3837 30178.6217 -124.3680 -50.7404
ENERGY: 1200000 1.8463 7.1764 2.5530 0.0000 -10802.5715 1480.9284 0.0000 0.0000 1739.6904 -7570.3770 297.1159 -9310.0673 -7480.5728 298.3874 -19.6545 29.9251 30454.3153 -133.3452 -62.5924
ENERGY: 1500000 5.2594 2.3594 2.6737 0.0000 -10597.3930 1354.1999 0.0000 0.0000 1757.8076 -7475.0929 300.2101 -9232.9005 -7476.4942 299.4857 -1095.0688 -959.9152 30831.6841 -124.2854 -53.9131
TCL: Running FEP window  10: Lambda1 0.5499999999999996 Lambda2 0.4999999999999996 [dLambda -0.04999999999999999]
TCL: Setting parameter firsttimestep to 0
TCL: Setting parameter alchLambda to 0.5499999999999996
Info: NONBONDED TABLE R-SQUARED SPACING: 0.0625
Info: NONBONDED TABLE SIZE: 705 POINTS
TCL: Setting parameter alchLambda2 to 0.4999999999999996
Info: NONBONDED TABLE R-SQUARED SPACING: 0.0625
Info: NONBONDED TABLE SIZE: 705 POINTS
TCL: Running for 1500000 steps
ETITLE: TS BOND ANGLE DIHED IMPRP ELECT VDW BOUNDARY MISC KINETIC TOTAL TEMP POTENTIAL TOTALAVG TEMPAVG PRESSURE GPRESSURE VOLUME PRESSAVG GPRESSAVG
ENERGY: 0 5.2594 2.3594 2.6737 0.0000 -10597.1652 1353.6188 0.0000 0.0000 1756.9467 -7476.3072 300.0631 -9233.2539 -7476.3072 300.0631 -1053.8426 -968.4160 30831.6841 -1053.8426 -968.4160
ENERGY: 300000 0.7239 4.8748 3.4546 0.0000 -10580.7819 1395.8036 0.0000 0.0000 1781.9765 -7393.9484 304.3378 -9175.9249 -7450.7460 300.0335 201.7809 262.4844 29643.9731 -403.4831 -339.5409
ENERGY: 600000 0.7744 6.3486 1.5064 0.0000 -10571.3664 1389.5875 0.0000 0.0000 1782.6201 -7390.5293 304.4477 -9173.1494 -7462.1884 300.8982 -38.4602 42.6847 30218.4039 -266.9263 -216.5227
ENERGY: 900000 1.5280 4.4319 2.1967 0.0000 -10802.0533 1517.3880 0.0000 0.0000 1812.0665 -7464.4423 309.4768 -9276.5088 -7478.9373 301.0011 605.7463 737.4345 30089.3802 -170.3886 -114.0270
ENERGY: 1200000 1.9563 4.7216 2.7558 0.0000 -10542.2893 1339.6042 0.0000 0.0000 1701.0154 -7492.2360 290.5107 -9193.2515 -7493.8525 299.0939 -585.7561 -595.3137 30455.8665 -201.6904 -148.2474
ENERGY: 1500000 0.3263 8.0416 2.7120 0.0000 -10729.9177 1469.6514 0.0000 0.0000 1808.0701 -7441.1163 308.7943 -9249.1864 -7496.8578 299.9526 183.2855 223.2689 30427.4184 -204.8917 -145.5838
TCL: Running FEP window  11: Lambda1 0.4999999999999996 Lambda2 0.4499999999999996 [dLambda -0.04999999999999999]
TCL: Setting parameter firsttimestep to 0
TCL: Setting parameter alchLambda to 0.4999999999999996
Info: NONBONDED TABLE R-SQUARED SPACING: 0.0625
Info: NONBONDED TABLE SIZE: 705 POINTS
TCL: Setting parameter alchLambda2 to 0.4499999999999996
Info: NONBONDED TABLE R-SQUARED SPACING: 0.0625
Info: NONBONDED TABLE SIZE: 705 POINTS
TCL: Running for 1500000 steps
ETITLE: TS BOND ANGLE DIHED IMPRP ELECT VDW BOUNDARY MISC KINETIC TOTAL TEMP POTENTIAL TOTALAVG TEMPAVG PRESSURE GPRESSURE VOLUME PRESSAVG GPRESSAVG
ENERGY: 0 0.3263 8.0416 2.7120 0.0000 -10729.5575 1470.0251 0.0000 0.0000 1807.2383 -7441.2141 308.6522 -9248.4525 -7441.2141 308.6522 138.3515 221.6574 30427.4184 138.3515 221.6574
ENERGY: 300000 1.3870 4.4689 1.4699 0.0000 -10789.3194 1486.4346 0.0000 0.0000 1786.5977 -7508.9613 305.1271 -9295.5590 -7490.8394 299.5379 256.2687 328.5802 30085.6776 44.2532 119.9339
ENERGY: 600000 1.5198 7.2225 3.0856 0.0000 -10691.9408 1433.8487 0.0000 0.0000 1775.6823 -7470.5818 303.2628 -9246.2641 -7492.5889 302.1131 93.4497 100.8351 30219.7241 -114.5813 -46.4423
ENERGY: 900000 1.8821 4.7207 2.8431 0.0000 -10689.9345 1454.9286 0.0000 0.0000 1763.8606 -7461.6994 301.2439 -9225.5600 -7482.5051 301.7478 66.2295 163.0872 30169.8628 -33.5645 32.1910
ENERGY: 1200000 5.5065 4.3461 3.2442 0.0000 -10601.9213 1441.4974 0.0000 0.0000 1797.2807 -7350.0464 306.9516 -9147.3271 -7460.0627 302.8414 621.8219 616.2263 30152.0026 -32.7629 25.2672
ENERGY: 1500000 1.4755 4.9347 2.5205 0.0000 -10733.7435 1506.0243 0.0000 0.0000 1724.4488 -7494.3396 294.5129 -9218.7884 -7466.4274 301.9150 665.0911 689.7543 30032.6576 55.9392 107.7778
TCL: Running FEP window  12: Lambda1 0.4499999999999996 Lambda2 0.39999999999999963 [dLambda -0.04999999999999999]
TCL: Setting parameter firsttimestep to 0
TCL: Setting parameter alchLambda to 0.4499999999999996
Info: NONBONDED TABLE R-SQUARED SPACING: 0.0625
Info: NONBONDED TABLE SIZE: 705 POINTS
TCL: Setting parameter alchLambda2 to 0.39999999999999963
Info: NONBONDED TABLE R-SQUARED SPACING: 0.0625
Info: NONBONDED TABLE SIZE: 705 POINTS
TCL: Running for 1500000 steps
ETITLE: TS BOND ANGLE DIHED IMPRP ELECT VDW BOUNDARY MISC KINETIC TOTAL TEMP POTENTIAL TOTALAVG TEMPAVG PRESSURE GPRESSURE VOLUME PRESSAVG GPRESSAVG
ENERGY: 0 1.4755 4.9347 2.5205 0.0000 -10733.7435 1505.6878 0.0000 0.0000 1723.5330 -7495.5919 294.3564 -9219.1249 -7495.5919 294.3564 596.4825 683.1718 30032.6576 596.4825 683.1718
ENERGY: 300000 0.7144 4.0803 3.2958 0.0000 -10606.6657 1433.7196 0.0000 0.0000 1775.1891 -7389.6665 303.1786 -9164.8556 -7459.1178 302.9449 18.4459 -10.7157 30841.8401 342.8556 368.1800
ENERGY: 600000 2.6182 4.2343 1.9542 0.0000 -10696.5625 1455.6950 0.0000 0.0000 1753.3862 -7478.6746 299.4550 -9232.0608 -7460.2914 300.5397 268.7182 349.2507 30100.8474 446.5422 473.8798
ENERGY: 900000 1.4807 7.9183 2.4736 0.0000 -10690.7011 1465.8452 0.0000 0.0000 1767.1290 -7445.8543 301.8021 -9212.9833 -7457.4126 300.5267 140.3333 189.9072 30464.1156 359.7267 387.1333
ENERGY: 1200000 2.9078 3.1693 3.7916 0.0000 -10663.7080 1401.4885 0.0000 0.0000 1729.7564 -7522.5944 295.4193 -9252.3508 -7460.9057 300.4555 -226.2055 -142.2257 30015.1969 303.2051 336.6925
ENERGY: 1500000 0.8863 4.7539 1.9544 0.0000 -10606.5449 1420.6187 0.0000 0.0000 1726.9890 -7451.3426 294.9467 -9178.3316 -7463.9923 300.2213 -56.2787 -31.0934 30524.7746 200.0011 237.2608
TCL: Running FEP window  13: Lambda1 0.39999999999999963 Lambda2 0.34999999999999964 [dLambda -0.04999999999999999]
TCL: Setting parameter firsttimestep to 0
TCL: Setting parameter alchLambda to 0.39999999999999963
Info: NONBONDED TABLE R-SQUARED SPACING: 0.0625
Info: NONBONDED TABLE SIZE: 705 POINTS
TCL: Setting parameter alchLambda2 to 0.34999999999999964
Info: NONBONDED TABLE R-SQUARED SPACING: 0.0625
Info: NONBONDED TABLE SIZE: 705 POINTS
TCL: Running for 1500000 steps
ETITLE: TS BOND ANGLE DIHED IMPRP ELECT VDW BOUNDARY MISC KINETIC TOTAL TEMP POTENTIAL TOTALAVG TEMPAVG PRESSURE GPRESSURE VOLUME PRESSAVG GPRESSAVG
ENERGY: 0 0.8863 4.7539 1.9544 0.0000 -10606.5452 1420.1868 0.0000 0.0000 1726.1051 -7452.6587 294.7957 -9178.7638 -7452.6587 294.7957 -127.4530 -37.8261 30524.7746 -127.4530 -37.8261
ENERGY: 300000 1.5940 4.9795 1.3849 0.0000 -10694.6911 1512.2626 0.0000 0.0000 1767.5103 -7406.9599 301.8672 -9174.4702 -7476.8040 300.3926 579.8800 665.1943 30404.8071 191.7541 251.8208
ENERGY: 600000 0.4525 4.2275 2.4295 0.0000 -10785.6901 1522.1008 0.0000 0.0000 1752.1711 -7504.3088 299.2474 -9256.4799 -7480.9261 299.2125 465.1232 525.2323 30250.4166 176.4457 243.8085
ENERGY: 900000 1.0672 6.4095 1.3182 0.0000 -10516.3339 1353.9752 0.0000 0.0000 1777.3391 -7376.2246 303.5458 -9153.5637 -7470.6563 299.6041 -544.8581 -437.2788 30575.0887 58.3024 118.4889
ENERGY: 1200000 1.1731 4.1910 3.4762 0.0000 -10838.3122 1564.1788 0.0000 0.0000 1799.0329 -7466.2603 307.2508 -9265.2932 -7464.5237 300.3499 819.9788 932.8113 30073.5759 61.7127 131.0896
ENERGY: 1500000 2.0745 5.3799 2.2446 0.0000 -10811.2656 1455.1239 0.0000 0.0000 1750.9082 -7595.5346 299.0318 -9346.4428 -7482.6689 300.0368 -139.9277 -60.5219 30183.0308 -26.3244 45.2380
TCL: Running FEP window  14: Lambda1 0.34999999999999964 Lambda2 0.29999999999999966 [dLambda -0.04999999999999999]
TCL: Setting parameter firsttimestep to 0
TCL: Setting parameter alchLambda to 0.34999999999999964
Info: NONBONDED TABLE R-SQUARED SPACING: 0.0625
Info: NONBONDED TABLE SIZE: 705 POINTS
TCL: Setting parameter alchLambda2 to 0.29999999999999966
Info: NONBONDED TABLE R-SQUARED SPACING: 0.0625
Info: NONBONDED TABLE SIZE: 705 POINTS
TCL: Running for 1500000 steps
ETITLE: TS BOND ANGLE DIHED IMPRP ELECT VDW BOUNDARY MISC KINETIC TOTAL TEMP POTENTIAL TOTALAVG TEMPAVG PRESSURE GPRESSURE VOLUME PRESSAVG GPRESSAVG
ENERGY: 0 2.0745 5.3799 2.2446 0.0000 -10811.2679 1455.1172 0.0000 0.0000 1750.0423 -7596.4094 298.8839 -9346.4517 -7596.4094 298.8839 -155.2615 -64.1064 30183.0308 -155.2615 -64.1064
ENERGY: 300000 4.7758 5.0499 3.1329 0.0000 -10652.8074 1420.2547 0.0000 0.0000 1818.4650 -7401.1290 310.5696 -9219.5940 -7499.9436 301.6194 -246.1223 -189.2741 30587.6632 -198.2715 -129.4124
ENERGY: 600000 1.1676 5.0870 2.7751 0.0000 -10767.5705 1524.5138 0.0000 0.0000 1769.3288 -7464.6983 302.1778 -9234.0271 -7507.9746 298.4140 476.1350 479.7110 30576.8780 -142.4358 -73.9571
ENERGY: 900000 0.4862 6.4678 4.5500 0.0000 -10740.5770 1459.3247 0.0000 0.0000 1812.9922 -7456.7561 309.6349 -9269.7483 -7488.4715 299.2430 407.1148 461.9793 29480.3252 -191.0510 -133.1629
ENERGY: 1200000 1.2541 3.0653 2.1506 0.0000 -10566.9163 1358.5027 0.0000 0.0000 1775.3499 -7426.5938 303.2061 -9201.9437 -7474.8081 300.0565 -673.3780 -613.7525 30377.5267 -200.6371 -146.6025
ENERGY: 1500000 1.8308 4.5228 4.1506 0.0000 -10714.5268 1485.8665 0.0000 0.0000 1731.0661 -7487.0900 295.6430 -9218.1560 -7475.1995 299.1479 551.1586 587.8222 30063.9999 -29.2705 21.9607
TCL: Running FEP window  15: Lambda1 0.29999999999999966 Lambda2 0.24999999999999967 [dLambda -0.04999999999999999]
TCL: Setting parameter firsttimestep to 0
TCL: Setting parameter alchLambda to 0.29999999999999966
Info: NONBONDED TABLE R-SQUARED SPACING: 0.0625
Info: NONBONDED TABLE SIZE: 705 POINTS
TCL: Setting parameter alchLambda2 to 0.24999999999999967
Info: NONBONDED TABLE R-SQUARED SPACING: 0.0625
Info: NONBONDED TABLE SIZE: 705 POINTS
TCL: Running for 1500000 steps
ETITLE: TS BOND ANGLE DIHED IMPRP ELECT VDW BOUNDARY MISC KINETIC TOTAL TEMP POTENTIAL TOTALAVG TEMPAVG PRESSURE GPRESSURE VOLUME PRESSAVG GPRESSAVG
ENERGY: 0 1.8309 4.5228 4.1506 0.0000 -10714.5272 1486.1433 0.0000 0.0000 1730.1681 -7487.7115 295.4896 -9217.8797 -7487.7115 295.4896 493.6169 587.5111 30063.9999 493.6169 587.5111
ENERGY: 300000 2.4305 5.0323 3.5006 0.0000 -10752.2516 1523.6162 0.0000 0.0000 1780.8549 -7436.8172 304.1463 -9217.6721 -7425.2638 301.4535 725.9968 812.0523 29865.9469 304.5904 366.0424
ENERGY: 600000 4.1659 5.2917 1.5642 0.0000 -10683.8972 1441.8231 0.0000 0.0000 1757.3088 -7473.7435 300.1249 -9231.0523 -7445.3984 301.0494 -136.4854 -72.1302 30417.8445 227.2078 290.8421
ENERGY: 900000 1.2506 6.1157 2.8990 0.0000 -10699.4365 1438.3207 0.0000 0.0000 1869.1792 -7381.6713 319.2309 -9250.8505 -7438.9902 303.2988 -29.0787 25.5054 30124.7997 211.4204 270.2257
ENERGY: 1200000 3.6997 4.4366 1.8308 0.0000 -10568.7540 1397.2983 0.0000 0.0000 1767.2711 -7394.2175 301.8263 -9161.4886 -7439.8710 302.3125 182.4977 203.0568 30147.8516 178.5150 241.3431
ENERGY: 1500000 0.7196 4.0931 1.8506 0.0000 -10636.4241 1353.8400 0.0000 0.0000 1747.5617 -7528.3590 298.4602 -9275.9208 -7445.4653 303.0270 -820.8839 -707.2278 29986.6159 92.6804 156.0295
TCL: Running FEP window  16: Lambda1 0.24999999999999967 Lambda2 0.19999999999999968 [dLambda -0.04999999999999999]
TCL: Setting parameter firsttimestep to 0
TCL: Setting parameter alchLambda to 0.24999999999999967
Info: NONBONDED TABLE R-SQUARED SPACING: 0.0625
Info: NONBONDED TABLE SIZE: 705 POINTS
TCL: Setting parameter alchLambda2 to 0.19999999999999968
Info: NONBONDED TABLE R-SQUARED SPACING: 0.0625
Info: NONBONDED TABLE SIZE: 705 POINTS
TCL: Running for 1500000 steps
ETITLE: TS BOND ANGLE DIHED IMPRP ELECT VDW BOUNDARY MISC KINETIC TOTAL TEMP POTENTIAL TOTALAVG TEMPAVG PRESSURE GPRESSURE VOLUME PRESSAVG GPRESSAVG
ENERGY: 0 0.7196 4.0931 1.8506 0.0000 -10636.4246 1353.7876 0.0000 0.0000 1746.6884 -7529.2852 298.3111 -9275.9736 -7529.2852 298.3111 -802.1601 -709.6215 29986.6159 -802.1601 -709.6215
ENERGY: 300000 0.5689 4.7826 1.8395 0.0000 -10657.0731 1386.4295 0.0000 0.0000 1769.7815 -7493.6712 302.2551 -9263.4527 -7494.4735 298.7633 -340.6725 -290.3758 30151.9938 -309.2269 -254.7012
ENERGY: 600000 1.1566 5.3314 1.6515 0.0000 -10739.6032 1508.6169 0.0000 0.0000 1748.9380 -7473.9087 298.6953 -9222.8467 -7479.1449 298.3489 608.3125 648.7120 30054.3084 -133.2568 -70.4672
ENERGY: 900000 2.5422 4.6493 3.8158 0.0000 -10792.4619 1532.1284 0.0000 0.0000 1785.7358 -7463.5905 304.9798 -9249.3262 -7474.0705 299.2822 709.7714 771.0137 30319.8619 -63.2901 -1.5216
ENERGY: 1200000 2.4825 4.8915 2.1362 0.0000 -10645.4252 1464.5915 0.0000 0.0000 1751.1662 -7420.1573 299.0758 -9171.3236 -7475.0424 299.4788 328.2089 332.3801 30469.5150 85.2022 145.5949
ENERGY: 1500000 2.3634 3.8170 2.8116 0.0000 -10555.1439 1352.4668 0.0000 0.0000 1756.7321 -7436.9530 300.0264 -9193.6851 -7471.7815 299.5673 -720.3819 -670.4814 30755.4744 20.0252 80.7138
TCL: Running FEP window  17: Lambda1 0.19999999999999968 Lambda2 0.1499999999999997 [dLambda -0.04999999999999999]
TCL: Setting parameter firsttimestep to 0
TCL: Setting parameter alchLambda to 0.19999999999999968
Info: NONBONDED TABLE R-SQUARED SPACING: 0.0625
Info: NONBONDED TABLE SIZE: 705 POINTS
TCL: Setting parameter alchLambda2 to 0.1499999999999997
Info: NONBONDED TABLE R-SQUARED SPACING: 0.0625
Info: NONBONDED TABLE SIZE: 705 POINTS
TCL: Running for 1500000 steps
ETITLE: TS BOND ANGLE DIHED IMPRP ELECT VDW BOUNDARY MISC KINETIC TOTAL TEMP POTENTIAL TOTALAVG TEMPAVG PRESSURE GPRESSURE VOLUME PRESSAVG GPRESSAVG
ENERGY: 0 2.3634 3.8170 2.8116 0.0000 -10555.1459 1352.5487 0.0000 0.0000 1755.8538 -7437.7514 299.8764 -9193.6052 -7437.7514 299.8764 -771.3030 -672.5887 30755.4744 -771.3030 -672.5887
ENERGY: 300000 1.5626 3.3482 2.8963 0.0000 -10859.8089 1567.7897 0.0000 0.0000 1772.9531 -7511.2591 302.7967 -9284.2122 -7526.7135 301.6010 893.2086 996.0335 29903.7780 141.7844 226.1506
ENERGY: 600000 0.5002 6.3249 1.8682 0.0000 -10688.7839 1467.4767 0.0000 0.0000 1756.6248 -7455.9892 300.0081 -9212.6140 -7492.4693 302.0851 85.8084 231.0900 30554.1970 -68.8369 17.0538
ENERGY: 900000 0.9811 6.5047 2.8450 0.0000 -10546.0049 1327.6611 0.0000 0.0000 1754.5577 -7453.4554 299.6551 -9208.0131 -7481.5168 301.3763 -885.6356 -842.2059 30283.7683 -205.3429 -130.3110
ENERGY: 1200000 2.7378 7.0825 1.3390 0.0000 -10645.2003 1438.0254 0.0000 0.0000 1752.9342 -7443.0814 299.3778 -9196.0155 -7471.5362 300.1883 -100.7901 -29.0871 30533.1757 -204.9662 -138.8696
ENERGY: 1500000 1.7393 6.5483 1.0873 0.0000 -10568.2847 1418.2488 0.0000 0.0000 1703.2226 -7437.4382 290.8877 -9140.6609 -7464.3682 299.8788 79.4418 168.5886 30078.3771 -4.1050 62.3983
TCL: Running FEP window  18: Lambda1 0.1499999999999997 Lambda2 0.09999999999999969 [dLambda -0.05 ]
TCL: Setting parameter firsttimestep to 0
TCL: Setting parameter alchLambda to 0.1499999999999997
Info: NONBONDED TABLE R-SQUARED SPACING: 0.0625
Info: NONBONDED TABLE SIZE: 705 POINTS
TCL: Setting parameter alchLambda2 to 0.09999999999999969
Info: NONBONDED TABLE R-SQUARED SPACING: 0.0625
Info: NONBONDED TABLE SIZE: 705 POINTS
TCL: Running for 1500000 steps
ETITLE: TS BOND ANGLE DIHED IMPRP ELECT VDW BOUNDARY MISC KINETIC TOTAL TEMP POTENTIAL TOTALAVG TEMPAVG PRESSURE GPRESSURE VOLUME PRESSAVG GPRESSAVG
ENERGY: 0 1.7393 6.5483 1.0873 0.0000 -10568.2852 1418.0067 0.0000 0.0000 1702.3397 -7438.5637 290.7369 -9140.9034 -7438.5637 290.7369 82.9259 164.9909 30078.3771 82.9259 164.9909
ENERGY: 300000 3.6313 4.2465 2.1785 0.0000 -10568.6278 1444.3547 0.0000 0.0000 1760.2679 -7353.9488 300.6303 -9114.2167 -7437.6762 296.0306 349.7007 371.6058 29964.5512 -279.8231 -229.3748
ENERGY: 600000 2.2907 4.1850 5.4943 0.0000 -10611.5197 1413.0492 0.0000 0.0000 1770.2043 -7416.2962 302.3273 -9186.5005 -7440.9121 299.2887 73.3751 140.0729 30220.9217 -156.1354 -90.3796
ENERGY: 900000 0.7713 4.2918 1.0284 0.0000 -10747.3261 1379.6852 0.0000 0.0000 1740.3876 -7621.1617 297.2350 -9361.5494 -7457.5128 300.4986 -712.2108 -581.7615 29923.9332 -144.6261 -74.0551
ENERGY: 1200000 1.0516 4.3715 1.3272 0.0000 -10595.4705 1423.1862 0.0000 0.0000 1790.4651 -7375.0690 305.7875 -9165.5340 -7451.4938 300.9734 130.9961 159.5513 30219.6865 -82.6568 -13.1512
ENERGY: 1500000 1.1388 2.9790 0.9421 0.0000 -10705.8327 1453.8153 0.0000 0.0000 1862.3589 -7384.5985 318.0661 -9246.9574 -7443.9896 302.7269 9.6438 120.4508 30123.4692 -75.6367 -6.3127
TCL: Running FEP window  19: Lambda1 0.09999999999999969 Lambda2 0.049999999999999684 [dLambda -0.05 ]
TCL: Setting parameter firsttimestep to 0
TCL: Setting parameter alchLambda to 0.09999999999999969
Info: NONBONDED TABLE R-SQUARED SPACING: 0.0625
Info: NONBONDED TABLE SIZE: 705 POINTS
TCL: Setting parameter alchLambda2 to 0.049999999999999684
Info: NONBONDED TABLE R-SQUARED SPACING: 0.0625
Info: NONBONDED TABLE SIZE: 705 POINTS
TCL: Running for 1500000 steps
ETITLE: TS BOND ANGLE DIHED IMPRP ELECT VDW BOUNDARY MISC KINETIC TOTAL TEMP POTENTIAL TOTALAVG TEMPAVG PRESSURE GPRESSURE VOLUME PRESSAVG GPRESSAVG
ENERGY: 0 1.1388 2.9790 0.9421 0.0000 -10705.8302 1454.1953 0.0000 0.0000 1861.4962 -7385.0787 317.9187 -9246.5749 -7385.0787 317.9187 33.0764 122.5768 30123.4692 33.0764 122.5768
ENERGY: 300000 4.0047 3.5632 2.6984 0.0000 -10765.5664 1459.7896 0.0000 0.0000 1716.7736 -7578.7370 293.2020 -9295.5105 -7473.6507 302.4101 -37.4051 -18.7247 30072.1205 61.9039 130.6328
ENERGY: 600000 2.2341 6.4441 2.7216 0.0000 -10704.3904 1497.6745 0.0000 0.0000 1708.2743 -7487.0417 291.7505 -9195.3160 -7456.8137 301.8488 364.4488 415.3693 30463.3900 81.9901 141.9094
ENERGY: 900000 2.3091 4.1947 2.5208 0.0000 -10722.3985 1371.1199 0.0000 0.0000 1774.9505 -7567.3035 303.1379 -9342.2540 -7468.5328 302.5511 -842.3258 -711.0372 30015.2070 -55.4269 12.2569
ENERGY: 1200000 2.4231 5.6678 1.1560 0.0000 -10608.7661 1393.6666 0.0000 0.0000 1800.6744 -7405.1782 307.5312 -9205.8526 -7463.7354 303.4004 -360.8722 -340.6648 30582.7133 -26.4473 41.2165
ENERGY: 1500000 1.3890 4.3839 3.0816 0.0000 -10717.3626 1474.3618 0.0000 0.0000 1751.6962 -7482.4500 299.1663 -9234.1462 -7465.8604 302.6541 257.9711 379.9339 30247.6448 -58.0439 9.9122
TCL: Running FEP window  20: Lambda1 0.049999999999999684 Lambda2 0.0    [dLambda -0.049999999999999684]
TCL: Setting parameter firsttimestep to 0
TCL: Setting parameter alchLambda to 0.049999999999999684
Info: NONBONDED TABLE R-SQUARED SPACING: 0.0625
Info: NONBONDED TABLE SIZE: 705 POINTS
TCL: Setting parameter alchLambda2 to 0.0
Info: NONBONDED TABLE R-SQUARED SPACING: 0.0625
Info: NONBONDED TABLE SIZE: 705 POINTS
TCL: Running for 1500000 steps
ETITLE: TS BOND ANGLE DIHED IMPRP ELECT VDW BOUNDARY MISC KINETIC TOTAL TEMP POTENTIAL TOTALAVG TEMPAVG PRESSURE GPRESSURE VOLUME PRESSAVG GPRESSAVG
ENERGY: 0 1.3890 4.3839 3.0816 0.0000 -10717.3632 1474.4118 0.0000 0.0000 1750.8491 -7483.2478 299.0217 -9234.0969 -7483.2478 299.0217 278.6624 378.4024 30247.6448 278.6624 378.4024
ENERGY: 300000 2.0291 3.7810 2.3120 0.0000 -10680.9048 1411.3161 0.0000 0.0000 1736.1885 -7525.2781 296.5178 -9261.4666 -7517.2675 298.3704 -502.8872 -461.0234 30556.7177 231.6532 290.6715
ENERGY: 600000 0.8148 4.4393 4.5107 0.0000 -10683.4178 1430.0712 0.0000 0.0000 1803.2830 -7440.2987 307.9767 -9243.5817 -7475.0372 301.6935 124.1820 201.5848 29908.6317 126.6197 193.0207
ENERGY: 900000 0.6663 5.2630 3.7886 0.0000 -10610.0242 1381.9034 0.0000 0.0000 1784.0391 -7434.3639 304.6901 -9218.4029 -7474.7007 300.7548 -485.1179 -386.4515 30304.7557 83.4519 149.2338
ENERGY: 1200000 2.3174 3.9144 3.3978 0.0000 -10627.6197 1401.6603 0.0000 0.0000 1722.9815 -7493.3483 294.2623 -9216.3298 -7475.5686 299.6181 -263.9195 -179.6064 30178.3824 35.8560 103.1585
ENERGY: 1500000 1.1997 4.8877 1.4970 0.0000 -10718.4020 1378.8293 0.0000 0.0000 1714.1902 -7617.7981 292.7608 -9331.9883 -7491.6364 298.7641 -812.3158 -696.2694 29937.6747 73.4744 138.8483
TCL: Exiting due to exit command.
