Info: SIMULATION PARAMETERS:
Info: TIMESTEP               2
Info: NUMBER OF STEPS        0
Info: STEPS PER CYCLE        10
Info: PERIODIC CELL BASIS 1  30.8307 0 0
Info: PERIODIC CELL BASIS 2  0 31.1839 0
Info: PERIODIC CELL BASIS 3  0 0 31.389
Info: PERIODIC CELL CENTER   0 0 0
Info: WRAPPING WATERS AROUND PERIODIC BOUNDARIES ON OUTPUT.
Info: WRAPPING ALL CLUSTERS AROUND PERIODIC BOUNDARIES ON OUTPUT.
Info: FIRST LDB TIMESTEP     50
Info: LAST LDB TIMESTEP     -1
Info: HOM BACKGROUND SCALING 1
Info: PME BACKGROUND SCALING 1
Info: MIN ATOMS PER PATCH    40
Info: EMPTY PATCH LOAD       40 ATOMS
Info: VELOCITY FILE          mobley_7326982_equil.vel
Info: CENTER OF MASS MOVING INITIALLY? NO
Info: DIELECTRIC             1
Info: EXCLUDE                SCALED ONE-FOUR
Info: 1-4 ELECTROSTATICS SCALED BY 0.833333
Info: MODIFIED 1-4 VDW PARAMETERS WILL BE USED
Info: DCD FILENAME           mobley_7326982_prod.dcd
Info: DCD FREQUENCY          100000
Info: DCD FIRST STEP         100000
Info: DCD FILE WILL CONTAIN UNIT CELL DATA
Info: XST FILENAME           mobley_7326982_prod.xst
Info: XST FREQUENCY          100000
Info: NO VELOCITY DCD OUTPUT
Info: NO FORCE DCD OUTPUT
Info: OUTPUT FILENAME        mobley_7326982_prod
Info: BINARY OUTPUT FILES WILL BE USED
Info: RESTART FILENAME       mobley_7326982_prod.restart
Info: RESTART FREQUENCY      100000
Info: BINARY RESTART FILES WILL BE USED
Info: CUTOFF                 9
Info: PAIRLIST DISTANCE      11
Info: PAIRLIST SHRINK RATE   0.01
Info: PAIRLIST GROW RATE     0.01
Info: PAIRLIST TRIGGER       0.3
Info: PAIRLISTS PER CYCLE    2
Info: PAIRLISTS ENABLED
Info: MARGIN                 2
Info: HYDROGEN GROUP CUTOFF  2.5
Info: PATCH DIMENSION        15.5
Info: ENERGY OUTPUT STEPS    100000
Info: ENERGY EVALUATION STEPS    100000
Info: OUTPUT ENERGY PRECISION 4
Info: CROSSTERM ENERGY INCLUDED IN DIHEDRAL
Info: TIMING OUTPUT STEPS    1000000
Info: PRESSURE OUTPUT STEPS  100000
Info: ALCHEMICAL FEP ON
Info: FEP CURRENT LAMBDA VALUE     0
Info: FEP COMPARISON LAMBDA VALUE  0.05
Info: FEP INTRA-ALCHEMICAL NON-BONDED INTERACTIONS WILL BE RETAINED
Info: FEP INTRA-ALCHEMICAL BONDED INTERACTIONS WILL BE RETAINED
Info: FEP VDW SHIFTING COEFFICIENT 5
Info: FEP ELEC. ACTIVE FOR ANNIHILATED PARTICLES BETWEEN LAMBDA = 0 AND LAMBDA = 0.5
Info: FEP ELEC. ACTIVE FOR EXNIHILATED PARTICLES BETWEEN LAMBDA = 0.5 AND LAMBDA = 1
Info: FEP VDW ACTIVE FOR ANNIHILATED PARTICLES BETWEEN LAMBDA = 0 AND LAMBDA = 1
Info: FEP VDW ACTIVE FOR EXNIHILATED PARTICLES BETWEEN LAMBDA = 0 AND LAMBDA = 1
Info: FEP BOND ACTIVE FOR ANNIHILATED PARTICLES BETWEEN LAMBDA = 1 AND LAMBDA = 1
Info: FEP BOND ACTIVE FOR EXNIHILATED PARTICLES BETWEEN LAMBDA = 0 AND LAMBDA = 0
Info: LANGEVIN DYNAMICS ACTIVE
Info: LANGEVIN TEMPERATURE   300
Info: LANGEVIN USING BBK INTEGRATOR
Info: LANGEVIN DAMPING COEFFICIENT IS 1 INVERSE PS
Info: LANGEVIN DYNAMICS APPLIED TO HYDROGENS
Info: LANGEVIN PISTON PRESSURE CONTROL ACTIVE
Info:        TARGET PRESSURE IS 1.01325 BAR
Info:     OSCILLATION PERIOD IS 50 FS
Info:             DECAY TIME IS 25 FS
Info:     PISTON TEMPERATURE IS 300 K
Info:       PRESSURE CONTROL IS GROUP-BASED
Info:    INITIAL STRAIN RATE IS 3.83602e-05 3.83602e-05 3.83602e-05
Info:       CELL FLUCTUATION IS ISOTROPIC
Info: PARTICLE MESH EWALD (PME) ACTIVE
Info: PME TOLERANCE               1e-06
Info: PME EWALD COEFFICIENT       0.348832
Info: PME INTERPOLATION ORDER     4
Info: PME GRID DIMENSIONS         32 32 32
Info: PME MAXIMUM GRID SPACING    1
Info: PME CALCULATION WILL BE PERFORMED ON GPU
Info: FULL ELECTROSTATIC EVALUATION FREQUENCY      2
Info: USING VERLET I (r-RESPA) MTS SCHEME.
Info: C1 SPLITTING OF LONG RANGE ELECTROSTATICS
Info: PLACING ATOMS IN PATCHES BY HYDROGEN GROUPS
Info: RIGID BONDS TO HYDROGEN : ALL
Info:         ERROR TOLERANCE : 1e-08
Info:          MAX ITERATIONS : 100
Info: RIGID WATER USING SETTLE ALGORITHM
Info: RANDOM NUMBER SEED     1743537884
Info: USE HYDROGEN BONDS?    NO
Info: Using AMBER format force field!
Info: AMBER PARM FILE        mobley_7326982.prmtop
Info: COORDINATE PDB         mobley_7326982.pdb
Info: Exclusions will be read from PARM file!
Info: SCNB (VDW SCALING)     2
Info: USING ARITHMETIC MEAN TO COMBINE L-J SIGMA PARAMETERS
Info: BINARY COORDINATES     mobley_7326982_equil.coor
Info: SUMMARY OF PARAMETERS:
Info: 7 BONDS
Info: 7 ANGLES
Info:   7 HARMONIC
Info:   0 COSINE-BASED
Info: 5 DIHEDRAL
Info: 0 IMPROPER
Info: 0 CROSSTERM
Info: 0 VDW
Info: 21 VDW_PAIRS
Info: 0 NBTHOLE_PAIRS
Info: To read alchdata from file: mobley_7326982.pdb
Info: To read alchflag data from column: 5
Info: STRUCTURE SUMMARY:
Info: 2961 ATOMS
Info: 2960 BONDS
Info: 19 ANGLES
Info: 29 DIHEDRALS
Info: 0 IMPROPERS
Info: 0 CROSSTERMS
Info: 3000 EXCLUSIONS
Info: 2957 RIGID BONDS
Info: ALCH: 0 ATOMS TO DISAPPEAR IN FINAL STATE
Info: ALCH: 12 ATOMS TO APPEAR IN FINAL STATE
Info: 5926 DEGREES OF FREEDOM
Info: 987 HYDROGEN GROUPS
Info: 4 ATOMS IN LARGEST HYDROGEN GROUP
Info: 987 MIGRATION GROUPS
Info: 4 ATOMS IN LARGEST MIGRATION GROUP
Info: TOTAL MASS = 17769.8 amu
Info: TOTAL CHARGE = -0.000199985 e
Info: MASS DENSITY = 0.977802 g/cm^3
Info: ATOM DENSITY = 0.0981176 atoms/A^3
Info: ADDED 0 IMPLICIT EXCLUSIONS
Info: NONBONDED TABLE R-SQUARED SPACING: 0.0625
Info: NONBONDED TABLE SIZE: 705 POINTS
Info: REMOVING COM VELOCITY 0.129279 -0.0115502 -0.0763615
Info: Use 3D box decompostion in PME FFT.
Info: Updated CUDA force table with 4096 elements.
Info: Updated CUDA LJ table with 6 x 6 elements.
Info: Found 15 unique exclusion lists needing 28 bytes
TCL: Running for 1500000 steps
ETITLE: TS BOND ANGLE DIHED IMPRP ELECT VDW BOUNDARY MISC KINETIC TOTAL TEMP POTENTIAL TOTALAVG TEMPAVG PRESSURE GPRESSURE VOLUME PRESSAVG GPRESSAVG
ENERGY: 0 1.3572 6.7281 2.2806 0.0000 -10747.6487 1449.0280 0.0000 0.0000 1720.6990 -7567.5559 292.2359 -9288.2549 -7567.5559 292.2359 -41.8085 30.7178 30178.0723 -41.8085 30.7178
ENERGY: 300000 0.1556 3.8608 3.0327 0.0000 -10734.6853 1482.5702 0.0000 0.0000 1774.9852 -7470.0807 301.4557 -9245.0660 -7525.8381 295.0048 148.9541 186.7121 30697.7947 -36.4992 42.9215
ENERGY: 600000 0.0181 5.9073 2.5557 0.0000 -10603.7201 1311.3416 0.0000 0.0000 1764.8192 -7519.0782 299.7291 -9283.8974 -7506.7679 299.2489 -1301.3592 -1299.0392 31240.2874 -258.1194 -189.1419
ENERGY: 900000 1.9095 5.5610 2.2384 0.0000 -10788.5376 1420.7708 0.0000 0.0000 1777.6570 -7580.4009 301.9095 -9358.0580 -7520.1462 298.9373 -440.9209 -398.5525 30412.3221 -171.7098 -109.7273
ENERGY: 1200000 0.0461 4.9192 3.4570 0.0000 -10741.4086 1435.2828 0.0000 0.0000 1687.4109 -7610.2926 286.5824 -9297.7035 -7528.3826 298.9608 85.9611 121.5336 30035.9450 -167.5620 -99.6839
ENERGY: 1500000 0.0293 5.0853 3.3067 0.0000 -10883.4514 1520.4457 0.0000 0.0000 1770.5581 -7584.0264 300.7038 -9354.5845 -7534.1990 299.0596 313.9707 312.7151 30551.1092 -117.0219 -59.0592
TCL: Running FEP window   2: Lambda1 0.05   Lambda2 0.1    [dLambda 0.05  ]
TCL: Setting parameter firsttimestep to 0
TCL: Setting parameter alchLambda to 0.05
Info: NONBONDED TABLE R-SQUARED SPACING: 0.0625
Info: NONBONDED TABLE SIZE: 705 POINTS
TCL: Setting parameter alchLambda2 to 0.1
Info: NONBONDED TABLE R-SQUARED SPACING: 0.0625
Info: NONBONDED TABLE SIZE: 705 POINTS
TCL: Running for 1500000 steps
ETITLE: TS BOND ANGLE DIHED IMPRP ELECT VDW BOUNDARY MISC KINETIC TOTAL TEMP POTENTIAL TOTALAVG TEMPAVG PRESSURE GPRESSURE VOLUME PRESSAVG GPRESSAVG
ENERGY: 0 0.0293 5.0853 3.3067 0.0000 -10883.4515 1522.3866 0.0000 0.0000 1769.6514 -7582.9922 300.5498 -9352.6437 -7582.9922 300.5498 225.3929 317.1561 30551.1092 225.3929 317.1561
ENERGY: 300000 1.4292 4.7577 2.6685 0.0000 -10905.7317 1606.6286 0.0000 0.0000 1754.7224 -7535.5254 298.0143 -9290.2478 -7542.5737 300.5339 1369.3665 1397.6132 30060.6282 153.9269 209.1197
ENERGY: 600000 1.8053 7.7036 1.9076 0.0000 -10928.8961 1615.0374 0.0000 0.0000 1780.6571 -7521.7852 302.4190 -9302.4423 -7536.7296 301.3463 1334.6076 1398.4717 30170.1670 327.7282 379.3321
ENERGY: 900000 1.9620 5.6825 3.9042 0.0000 -10662.9289 1438.5535 0.0000 0.0000 1777.7224 -7435.1042 301.9206 -9212.8266 -7533.5804 301.0465 47.9464 43.5770 30525.1191 159.2262 208.3018
ENERGY: 1200000 0.4976 5.5849 3.4631 0.0000 -10822.4695 1487.0182 0.0000 0.0000 1701.7327 -7624.1729 289.0148 -9325.9057 -7539.5310 299.4154 121.3204 197.1569 30212.5118 73.1286 123.2127
ENERGY: 1500000 0.1608 3.2764 2.5754 0.0000 -10769.4922 1430.7938 0.0000 0.0000 1718.9770 -7613.7088 291.9435 -9332.6858 -7545.4320 299.3315 -63.2371 -79.3790 30241.8581 105.8137 149.7868
TCL: Running FEP window   3: Lambda1 0.1    Lambda2 0.15000000000000002 [dLambda 0.05000000000000002]
TCL: Setting parameter firsttimestep to 0
TCL: Setting parameter alchLambda to 0.1
Info: NONBONDED TABLE R-SQUARED SPACING: 0.0625
Info: NONBONDED TABLE SIZE: 705 POINTS
TCL: Setting parameter alchLambda2 to 0.15000000000000002
Info: NONBONDED TABLE R-SQUARED SPACING: 0.0625
Info: NONBONDED TABLE SIZE: 705 POINTS
TCL: Running for 1500000 steps
ETITLE: TS BOND ANGLE DIHED IMPRP ELECT VDW BOUNDARY MISC KINETIC TOTAL TEMP POTENTIAL TOTALAVG TEMPAVG PRESSURE GPRESSURE VOLUME PRESSAVG GPRESSAVG
ENERGY: 0 0.1608 3.2764 2.5754 0.0000 -10769.4913 1430.7880 0.0000 0.0000 1718.0970 -7614.5936 291.7940 -9332.6907 -7614.5936 291.7940 -152.4576 -77.6726 30241.8581 -152.4576 -77.6726
ENERGY: 300000 1.2123 3.5183 4.6622 0.0000 -10825.0634 1470.6291 0.0000 0.0000 1759.5158 -7585.5257 298.8284 -9345.0415 -7549.6694 298.0593 319.1697 359.3862 30010.5600 -397.3253 -352.1725
ENERGY: 600000 1.0420 5.8336 2.5498 0.0000 -10795.7066 1466.2619 0.0000 0.0000 1763.6655 -7556.3538 299.5332 -9320.0193 -7560.9581 296.8639 242.2995 336.8409 30005.1534 -270.1829 -213.5258
ENERGY: 900000 2.7656 4.0457 3.2143 0.0000 -10719.9485 1423.8204 0.0000 0.0000 1714.1798 -7571.9227 291.1288 -9286.1025 -7553.7076 297.6620 -450.2189 -428.6334 30846.9599 -125.4406 -78.0275
ENERGY: 1200000 0.9914 6.3634 3.1561 0.0000 -10731.9122 1395.0797 0.0000 0.0000 1780.6120 -7545.7097 302.4113 -9326.3216 -7549.9787 297.4635 -667.9609 -552.9022 30448.8175 -135.5356 -83.6813
ENERGY: 1500000 0.5137 3.7594 2.4799 0.0000 -10650.6028 1325.4081 0.0000 0.0000 1732.7914 -7585.6503 294.2897 -9318.4416 -7551.9426 297.5672 -1013.3960 -964.1500 30381.9484 -172.8615 -116.2442
TCL: Running FEP window   4: Lambda1 0.15000000000000002 Lambda2 0.2    [dLambda 0.04999999999999999]
TCL: Setting parameter firsttimestep to 0
TCL: Setting parameter alchLambda to 0.15000000000000002
Info: NONBONDED TABLE R-SQUARED SPACING: 0.0625
Info: NONBONDED TABLE SIZE: 705 POINTS
TCL: Setting parameter alchLambda2 to 0.2
Info: NONBONDED TABLE R-SQUARED SPACING: 0.0625
Info: NONBONDED TABLE SIZE: 705 POINTS
TCL: Running for 1500000 steps
ETITLE: TS BOND ANGLE DIHED IMPRP ELECT VDW BOUNDARY MISC KINETIC TOTAL TEMP POTENTIAL TOTALAVG TEMPAVG PRESSURE GPRESSURE VOLUME PRESSAVG GPRESSAVG
ENERGY: 0 0.5137 3.7594 2.4799 0.0000 -10650.6016 1325.7863 0.0000 0.0000 1731.9124 -7586.1499 294.1404 -9318.0623 -7586.1499 294.1404 -1051.3020 -962.2919 30381.9484 -1051.3020 -962.2919
ENERGY: 300000 0.1191 2.1900 2.2934 0.0000 -10714.1403 1524.8917 0.0000 0.0000 1747.2269 -7437.4191 296.7413 -9184.6461 -7510.4528 298.7673 673.6885 671.5932 30829.2701 105.0323 126.1755
ENERGY: 600000 0.9206 6.6344 2.7125 0.0000 -10772.2713 1421.1050 0.0000 0.0000 1723.8805 -7617.0184 292.7763 -9340.8989 -7517.3035 298.1599 -382.6287 -355.7202 30393.1407 -47.4309 -19.2714
ENERGY: 900000 1.7971 3.5526 2.6005 0.0000 -10726.3002 1412.7513 0.0000 0.0000 1773.0756 -7532.5230 301.1314 -9305.5986 -7501.9467 300.7879 -158.7304 -225.5021 30306.8165 -37.1871 -8.4050
ENERGY: 1200000 1.6502 4.7878 2.7539 0.0000 -10827.8151 1496.7941 0.0000 0.0000 1792.7421 -7529.0871 304.4714 -9321.8292 -7511.1000 301.2540 417.8816 452.0661 30293.9847 33.9168 66.9156
ENERGY: 1500000 0.4188 4.7862 2.3142 0.0000 -10668.4168 1395.7739 0.0000 0.0000 1781.9085 -7483.2152 302.6315 -9265.1237 -7507.7308 302.2216 -383.2808 -311.8123 30569.7528 -55.3592 -22.1182
TCL: Running FEP window   5: Lambda1 0.2    Lambda2 0.25   [dLambda 0.04999999999999999]
TCL: Setting parameter firsttimestep to 0
TCL: Setting parameter alchLambda to 0.2
Info: NONBONDED TABLE R-SQUARED SPACING: 0.0625
Info: NONBONDED TABLE SIZE: 705 POINTS
TCL: Setting parameter alchLambda2 to 0.25
Info: NONBONDED TABLE R-SQUARED SPACING: 0.0625
Info: NONBONDED TABLE SIZE: 705 POINTS
TCL: Running for 1500000 steps
ETITLE: TS BOND ANGLE DIHED IMPRP ELECT VDW BOUNDARY MISC KINETIC TOTAL TEMP POTENTIAL TOTALAVG TEMPAVG PRESSURE GPRESSURE VOLUME PRESSAVG GPRESSAVG
ENERGY: 0 0.4188 4.7862 2.3142 0.0000 -10668.4162 1395.8231 0.0000 0.0000 1781.0369 -7484.0370 302.4835 -9265.0739 -7484.0370 302.4835 -383.7886 -309.6325 30569.7528 -383.7886 -309.6325
ENERGY: 300000 0.4860 5.2469 3.2706 0.0000 -10661.9780 1377.2938 0.0000 0.0000 1764.5465 -7511.1342 299.6828 -9275.6807 -7517.7823 299.6313 -709.0899 -610.8692 30568.5318 -218.1016 -140.5836
ENERGY: 600000 1.1545 6.5560 2.6492 0.0000 -10621.5262 1370.4256 0.0000 0.0000 1818.3012 -7422.4397 308.8123 -9240.7409 -7503.6030 300.6070 -633.7421 -510.6847 30943.1518 -190.5950 -127.1317
ENERGY: 900000 0.5772 4.7043 3.5662 0.0000 -10776.9202 1451.8738 0.0000 0.0000 1750.2455 -7565.9531 297.2540 -9316.1987 -7512.5696 300.0870 17.4617 18.2047 30475.6420 -96.9376 -35.2938
ENERGY: 1200000 2.0364 7.2858 2.2453 0.0000 -10868.6234 1503.2818 0.0000 0.0000 1766.9327 -7586.8414 300.0881 -9353.7741 -7529.4327 299.4928 47.4859 120.4070 30400.3651 -191.5186 -129.3146
ENERGY: 1500000 0.4913 3.7753 2.4457 0.0000 -10475.0476 1261.6662 0.0000 0.0000 1739.6044 -7467.0648 295.4468 -9206.6691 -7522.9624 299.1625 -1458.1008 -1397.5872 31097.3237 -209.6389 -150.1545
TCL: Running FEP window   6: Lambda1 0.25   Lambda2 0.3    [dLambda 0.04999999999999999]
TCL: Setting parameter firsttimestep to 0
TCL: Setting parameter alchLambda to 0.25
Info: NONBONDED TABLE R-SQUARED SPACING: 0.0625
Info: NONBONDED TABLE SIZE: 705 POINTS
TCL: Setting parameter alchLambda2 to 0.3
Info: NONBONDED TABLE R-SQUARED SPACING: 0.0625
Info: NONBONDED TABLE SIZE: 705 POINTS
TCL: Running for 1500000 steps
ETITLE: TS BOND ANGLE DIHED IMPRP ELECT VDW BOUNDARY MISC KINETIC TOTAL TEMP POTENTIAL TOTALAVG TEMPAVG PRESSURE GPRESSURE VOLUME PRESSAVG GPRESSAVG
ENERGY: 0 0.4913 3.7753 2.4457 0.0000 -10475.0478 1261.9177 0.0000 0.0000 1738.7289 -7467.6889 295.2981 -9206.4178 -7467.6889 295.2981 -1468.2345 -1393.5507 31097.3237 -1468.2345 -1393.5507
ENERGY: 300000 1.5011 5.3053 2.1015 0.0000 -10873.5528 1520.8844 0.0000 0.0000 1801.0424 -7542.7181 305.8811 -9343.7605 -7446.8756 303.1392 558.0676 615.5595 29949.0309 -219.6596 -162.4867
ENERGY: 600000 0.7823 7.0030 2.2062 0.0000 -10908.0275 1511.1318 0.0000 0.0000 1790.1058 -7596.7984 304.0237 -9386.9042 -7490.7570 303.8989 94.4507 127.8445 30625.7218 -156.5690 -94.4605
ENERGY: 900000 0.1630 5.2454 4.4401 0.0000 -10696.7781 1406.7461 0.0000 0.0000 1819.1221 -7461.0613 308.9517 -9280.1834 -7487.9074 303.0941 -248.9504 -97.6553 30376.7016 -77.2261 -11.6633
ENERGY: 1200000 0.2977 9.6352 2.2872 0.0000 -10837.5498 1516.2954 0.0000 0.0000 1785.2824 -7523.7520 303.2045 -9309.0344 -7513.6447 301.6141 378.0247 424.5993 30432.5104 -111.5826 -45.1437
ENERGY: 1500000 0.8660 2.9466 3.1423 0.0000 -10842.4106 1536.8614 0.0000 0.0000 1804.7055 -7493.8888 306.5033 -9298.5944 -7507.0319 301.4774 608.0831 653.6931 30467.7803 -37.8942 24.6663
TCL: Running FEP window   7: Lambda1 0.3    Lambda2 0.35   [dLambda 0.04999999999999999]
TCL: Setting parameter firsttimestep to 0
TCL: Setting parameter alchLambda to 0.3
Info: NONBONDED TABLE R-SQUARED SPACING: 0.0625
Info: NONBONDED TABLE SIZE: 705 POINTS
TCL: Setting parameter alchLambda2 to 0.35
Info: NONBONDED TABLE R-SQUARED SPACING: 0.0625
Info: NONBONDED TABLE SIZE: 705 POINTS
TCL: Running for 1500000 steps
ETITLE: TS BOND ANGLE DIHED IMPRP ELECT VDW BOUNDARY MISC KINETIC TOTAL TEMP POTENTIAL TOTALAVG TEMPAVG PRESSURE GPRESSURE VOLUME PRESSAVG GPRESSAVG
ENERGY: 0 0.8660 2.9466 3.1423 0.0000 -10842.4104 1537.8673 0.0000 0.0000 1803.8690 -7493.7192 306.3612 -9297.5882 -7493.7192 306.3612 575.3734 663.1267 30467.7803 575.3734 663.1267
ENERGY: 300000 1.4965 3.3724 2.9624 0.0000 -10698.7026 1376.7694 0.0000 0.0000 1713.3022 -7600.7997 290.9797 -9314.1019 -7539.8467 298.3662 -517.3611 -483.2092 30149.0763 220.3013 270.6889
ENERGY: 600000 1.1124 8.6455 2.2744 0.0000 -10755.1462 1432.1433 0.0000 0.0000 1740.0975 -7570.8730 295.5305 -9310.9705 -7530.8420 298.3074 -133.2969 -150.6805 30557.3118 109.4106 136.0015
ENERGY: 900000 0.5186 3.2703 2.9526 0.0000 -10665.1504 1368.5494 0.0000 0.0000 1686.7106 -7603.1489 286.4635 -9289.8596 -7539.4474 296.7128 -761.9287 -675.2988 30601.9492 38.7586 76.0108
ENERGY: 1200000 1.2603 2.7592 2.2804 0.0000 -10643.5922 1417.8524 0.0000 0.0000 1786.3614 -7433.0786 303.3878 -9219.4400 -7527.8880 296.9670 -177.5737 -118.4258 30912.4127 105.0034 145.6092
ENERGY: 1500000 0.8730 3.1480 2.6750 0.0000 -10615.0667 1360.6084 0.0000 0.0000 1784.4862 -7463.2763 303.0693 -9247.7624 -7518.4090 298.4471 -735.0200 -698.5193 30858.6850 38.7830 82.6713
TCL: Running FEP window   8: Lambda1 0.35   Lambda2 0.39999999999999997 [dLambda 0.04999999999999999]
TCL: Setting parameter firsttimestep to 0
TCL: Setting parameter alchLambda to 0.35
Info: NONBONDED TABLE R-SQUARED SPACING: 0.0625
Info: NONBONDED TABLE SIZE: 705 POINTS
TCL: Setting parameter alchLambda2 to 0.39999999999999997
Info: NONBONDED TABLE R-SQUARED SPACING: 0.0625
Info: NONBONDED TABLE SIZE: 705 POINTS
TCL: Running for 1500000 steps
ETITLE: TS BOND ANGLE DIHED IMPRP ELECT VDW BOUNDARY MISC KINETIC TOTAL TEMP POTENTIAL TOTALAVG TEMPAVG PRESSURE GPRESSURE VOLUME PRESSAVG GPRESSAVG
ENERGY: 0 0.8730 3.1480 2.6750 0.0000 -10615.0661 1360.3196 0.0000 0.0000 1783.5829 -7464.4677 302.9159 -9248.0505 -7464.4677 302.9159 -783.0275 -695.7870 30858.6850 -783.0275 -695.7870
ENERGY: 300000 0.9615 6.9005 2.0774 0.0000 -10760.7135 1471.6369 0.0000 0.0000 1745.6412 -7533.4960 296.4720 -9279.1372 -7526.6714 296.3709 355.1450 392.8530 30065.0914 10.3008 70.2129
ENERGY: 600000 0.8492 4.4307 2.6581 0.0000 -10617.8546 1329.0213 0.0000 0.0000 1689.4831 -7591.4122 286.9344 -9280.8953 -7546.6946 295.9558 -632.7585 -637.8125 30149.7671 15.2165 62.3002
ENERGY: 900000 0.5544 3.0671 3.7380 0.0000 -10553.7301 1332.5591 0.0000 0.0000 1807.3726 -7406.4388 306.9562 -9213.8114 -7545.1719 297.8581 -600.5655 -493.3011 30492.1903 -175.5542 -120.2704
ENERGY: 1200000 0.8333 3.0946 2.6734 0.0000 -10774.5203 1479.9347 0.0000 0.0000 1783.9097 -7504.0747 302.9714 -9287.9844 -7545.4929 298.7480 98.5495 91.0344 30738.4821 -194.0867 -139.1401
ENERGY: 1500000 0.0530 7.7196 2.3942 0.0000 -10626.4729 1339.8785 0.0000 0.0000 1727.6700 -7548.7576 293.4199 -9276.4276 -7540.0519 298.1273 -902.8839 -772.3890 30594.8117 -156.5472 -94.4214
TCL: Running FEP window   9: Lambda1 0.39999999999999997 Lambda2 0.44999999999999996 [dLambda 0.04999999999999999]
TCL: Setting parameter firsttimestep to 0
TCL: Setting parameter alchLambda to 0.39999999999999997
Info: NONBONDED TABLE R-SQUARED SPACING: 0.0625
Info: NONBONDED TABLE SIZE: 705 POINTS
TCL: Setting parameter alchLambda2 to 0.44999999999999996
Info: NONBONDED TABLE R-SQUARED SPACING: 0.0625
Info: NONBONDED TABLE SIZE: 705 POINTS
TCL: Running for 1500000 steps
ETITLE: TS BOND ANGLE DIHED IMPRP ELECT VDW BOUNDARY MISC KINETIC TOTAL TEMP POTENTIAL TOTALAVG TEMPAVG PRESSURE GPRESSURE VOLUME PRESSAVG GPRESSAVG
ENERGY: 0 0.0530 7.7196 2.3942 0.0000 -10626.4725 1340.5322 0.0000 0.0000 1726.7835 -7548.9900 293.2693 -9275.7735 -7548.9900 293.2693 -856.3664 -764.9673 30594.8117 -856.3664 -764.9673
ENERGY: 300000 1.1563 9.4693 2.6755 0.0000 -10782.4640 1422.4948 0.0000 0.0000 1810.1103 -7536.5578 307.4212 -9346.6681 -7512.4369 300.3371 -423.6035 -406.9601 30447.3277 -87.6143 -37.6130
ENERGY: 600000 0.2414 5.9296 3.2678 0.0000 -10836.5216 1527.9857 0.0000 0.0000 1796.6827 -7502.4143 305.1407 -9299.0970 -7492.2047 303.2390 997.7567 1115.5132 29663.2916 15.0755 75.4709
ENERGY: 900000 0.4686 7.6087 3.3591 0.0000 -10900.4847 1533.2956 0.0000 0.0000 1765.2854 -7590.4673 299.8083 -9355.7527 -7497.4517 304.2181 399.0118 436.4320 30302.9407 67.2726 121.6582
ENERGY: 1200000 1.5630 4.6374 3.1247 0.0000 -10873.4581 1506.2544 0.0000 0.0000 1748.4595 -7609.4191 296.9507 -9357.8786 -7519.1709 301.4534 406.9797 407.5188 30283.0506 23.8559 71.9817
ENERGY: 1500000 0.4463 4.9463 2.3285 0.0000 -10831.2918 1446.5832 0.0000 0.0000 1714.4193 -7662.5682 291.1694 -9376.9875 -7532.7279 300.8731 -254.6953 -144.2210 30281.9056 61.1034 112.2242
TCL: Running FEP window  10: Lambda1 0.44999999999999996 Lambda2 0.49999999999999994 [dLambda 0.04999999999999999]
TCL: Setting parameter firsttimestep to 0
TCL: Setting parameter alchLambda to 0.44999999999999996
Info: NONBONDED TABLE R-SQUARED SPACING: 0.0625
Info: NONBONDED TABLE SIZE: 705 POINTS
TCL: Setting parameter alchLambda2 to 0.49999999999999994
Info: NONBONDED TABLE R-SQUARED SPACING: 0.0625
Info: NONBONDED TABLE SIZE: 705 POINTS
TCL: Running for 1500000 steps
ETITLE: TS BOND ANGLE DIHED IMPRP ELECT VDW BOUNDARY MISC KINETIC TOTAL TEMP POTENTIAL TOTALAVG TEMPAVG PRESSURE GPRESSURE VOLUME PRESSAVG GPRESSAVG
ENERGY: 0 0.4463 4.9463 2.3285 0.0000 -10831.2945 1446.3497 0.0000 0.0000 1713.5354 -7663.6883 291.0193 -9377.2237 -7663.6883 291.0193 -221.8895 -142.5714 30281.9056 -221.8895 -142.5714
ENERGY: 300000 0.0879 5.1721 4.2091 0.0000 -10857.7613 1547.3654 0.0000 0.0000 1725.7498 -7575.1770 293.0938 -9300.9268 -7590.2496 296.2330 850.3063 925.9797 30114.0554 360.9587 446.1555
ENERGY: 600000 0.4753 5.8034 2.7844 0.0000 -10845.2353 1456.8008 0.0000 0.0000 1762.2400 -7617.1315 299.2911 -9379.3714 -7582.4610 297.0341 105.1992 140.3989 30053.6820 182.5552 251.8074
ENERGY: 900000 0.7463 6.6330 4.2481 0.0000 -10792.2252 1482.9651 0.0000 0.0000 1784.9119 -7512.7209 303.1416 -9297.6327 -7570.9932 298.9627 182.0159 275.5628 30261.4874 80.6485 158.5717
ENERGY: 1200000 1.2529 3.1879 2.9088 0.0000 -10737.9875 1408.8472 0.0000 0.0000 1754.8901 -7566.9005 298.0428 -9321.7906 -7554.9882 299.9348 -309.0604 -186.9854 30287.7925 83.3881 166.0546
ENERGY: 1500000 0.3209 4.8801 2.8943 0.0000 -10835.2286 1479.7797 0.0000 0.0000 1738.7430 -7608.6107 295.3005 -9347.3537 -7547.7057 300.6420 191.8809 237.7013 30109.0652 121.3061 203.4990
TCL: Running FEP window  11: Lambda1 0.49999999999999994 Lambda2 0.5499999999999999 [dLambda 0.04999999999999999]
TCL: Setting parameter firsttimestep to 0
TCL: Setting parameter alchLambda to 0.49999999999999994
Info: NONBONDED TABLE R-SQUARED SPACING: 0.0625
Info: NONBONDED TABLE SIZE: 705 POINTS
TCL: Setting parameter alchLambda2 to 0.5499999999999999
Info: NONBONDED TABLE R-SQUARED SPACING: 0.0625
Info: NONBONDED TABLE SIZE: 705 POINTS
TCL: Running for 1500000 steps
ETITLE: TS BOND ANGLE DIHED IMPRP ELECT VDW BOUNDARY MISC KINETIC TOTAL TEMP POTENTIAL TOTALAVG TEMPAVG PRESSURE GPRESSURE VOLUME PRESSAVG GPRESSAVG
ENERGY: 0 0.3209 4.8801 2.8943 0.0000 -10835.2291 1480.2650 0.0000 0.0000 1737.8789 -7608.9899 295.1537 -9346.8689 -7608.9899 295.1537 166.9608 248.7809 30109.0652 166.9608 248.7809
ENERGY: 300000 0.1145 4.8441 2.1058 0.0000 -10726.9153 1425.6874 0.0000 0.0000 1808.1466 -7486.0168 307.0877 -9294.1634 -7579.6452 297.4106 -78.6618 -45.0046 30424.2392 -230.3079 -155.5193
ENERGY: 600000 1.8313 2.9339 2.4924 0.0000 -10744.0540 1410.9677 0.0000 0.0000 1780.4382 -7545.3905 302.3818 -9325.8287 -7559.3416 299.1621 -258.6504 -197.7481 30280.8687 3.4667 66.9409
ENERGY: 900000 0.3595 5.0988 3.3922 0.0000 -10823.6671 1463.2186 0.0000 0.0000 1734.3351 -7617.2629 294.5518 -9351.5980 -7554.6863 299.5716 -40.5337 79.7217 30228.2169 -46.9468 19.9984
ENERGY: 1200000 0.4326 3.6859 2.3580 0.0000 -10810.1775 1545.8175 0.0000 0.0000 1770.6340 -7487.2496 300.7167 -9257.8836 -7544.0150 299.7197 659.4250 732.5331 30748.3736 59.1923 125.8128
ENERGY: 1500000 0.8323 4.8981 2.7229 0.0000 -10737.3587 1433.0255 0.0000 0.0000 1735.4389 -7560.4410 294.7393 -9295.8799 -7542.1473 299.7698 88.9541 109.6792 30396.4615 19.9515 80.7493
TCL: Running FEP window  12: Lambda1 0.5499999999999999 Lambda2 0.6    [dLambda 0.050000000000000044]
TCL: Setting parameter firsttimestep to 0
TCL: Setting parameter alchLambda to 0.5499999999999999
Info: NONBONDED TABLE R-SQUARED SPACING: 0.0625
Info: NONBONDED TABLE SIZE: 705 POINTS
TCL: Setting parameter alchLambda2 to 0.6
Info: NONBONDED TABLE R-SQUARED SPACING: 0.0625
Info: NONBONDED TABLE SIZE: 705 POINTS
TCL: Running for 1500000 steps
ETITLE: TS BOND ANGLE DIHED IMPRP ELECT VDW BOUNDARY MISC KINETIC TOTAL TEMP POTENTIAL TOTALAVG TEMPAVG PRESSURE GPRESSURE VOLUME PRESSAVG GPRESSAVG
ENERGY: 0 0.8323 4.8982 2.7229 0.0000 -10737.0259 1433.1394 0.0000 0.0000 1734.5735 -7560.8596 294.5923 -9295.4332 -7560.8596 294.5923 30.1964 118.2528 30396.4615 30.1964 118.2528
ENERGY: 300000 0.4069 2.9844 2.1616 0.0000 -10845.4539 1427.8352 0.0000 0.0000 1763.9697 -7648.0961 299.5849 -9412.0658 -7593.4362 297.1815 -60.9210 -64.4824 29915.3050 116.7313 170.4794
ENERGY: 600000 0.3911 2.3976 2.7473 0.0000 -10707.2505 1411.3511 0.0000 0.0000 1742.6572 -7547.7062 295.9652 -9290.3633 -7575.8098 297.5345 -246.3514 -177.9864 30255.0298 -81.8253 -20.7728
ENERGY: 900000 0.6186 5.8032 2.4893 0.0000 -10542.2397 1334.4260 0.0000 0.0000 1761.1119 -7437.7906 299.0995 -9198.9025 -7549.5208 297.8175 -704.2628 -582.5897 30917.3465 -44.7405 14.6030
ENERGY: 1200000 0.7533 4.3149 2.5059 0.0000 -10776.1010 1473.2418 0.0000 0.0000 1773.2931 -7521.9921 301.1683 -9295.2851 -7540.6184 298.5780 270.8184 315.2828 30263.0867 -60.3582 -0.7092
ENERGY: 1500000 1.3106 2.1939 2.0839 0.0000 -10642.2870 1414.7456 0.0000 0.0000 1779.0727 -7442.8804 302.1499 -9221.9530 -7527.8322 299.0547 -98.4435 32.5003 30279.3157 -49.9382 17.4620
TCL: Running FEP window  13: Lambda1 0.6    Lambda2 0.65   [dLambda 0.050000000000000044]
TCL: Setting parameter firsttimestep to 0
TCL: Setting parameter alchLambda to 0.6
Info: NONBONDED TABLE R-SQUARED SPACING: 0.0625
Info: NONBONDED TABLE SIZE: 705 POINTS
TCL: Setting parameter alchLambda2 to 0.65
Info: NONBONDED TABLE R-SQUARED SPACING: 0.0625
Info: NONBONDED TABLE SIZE: 705 POINTS
TCL: Running for 1500000 steps
ETITLE: TS BOND ANGLE DIHED IMPRP ELECT VDW BOUNDARY MISC KINETIC TOTAL TEMP POTENTIAL TOTALAVG TEMPAVG PRESSURE GPRESSURE VOLUME PRESSAVG GPRESSAVG
ENERGY: 0 1.3106 2.1939 2.0839 0.0000 -10642.7396 1414.5031 0.0000 0.0000 1778.1842 -7444.4639 301.9990 -9222.6481 -7444.4639 301.9990 -51.7226 35.0583 30279.3157 -51.7226 35.0583
ENERGY: 300000 0.7211 5.6574 2.0419 0.0000 -10783.6173 1506.9614 0.0000 0.0000 1789.1154 -7479.1202 303.8555 -9268.2355 -7492.3536 300.2911 419.1314 475.5646 30733.3160 -65.9767 5.4296
ENERGY: 600000 1.1077 5.9292 2.8600 0.0000 -10759.4992 1458.8939 0.0000 0.0000 1754.8297 -7535.8786 298.0326 -9290.7084 -7508.7217 300.2887 10.5087 104.8958 30484.0962 -31.4349 42.9932
ENERGY: 900000 0.3016 1.9386 2.7189 0.0000 -10729.7170 1484.3797 0.0000 0.0000 1773.4639 -7466.9142 301.1973 -9240.3782 -7502.3443 301.4393 331.1654 328.3629 30849.7217 73.0102 131.6371
ENERGY: 1200000 0.7856 3.5962 3.9191 0.0000 -10873.0053 1545.7247 0.0000 0.0000 1737.4921 -7581.4875 295.0880 -9318.9797 -7518.0012 300.9951 692.7029 784.3233 30173.6583 100.1090 163.4558
ENERGY: 1500000 0.0458 4.1320 2.2026 0.0000 -10724.8209 1450.8200 0.0000 0.0000 1739.9125 -7527.7081 295.4991 -9267.6206 -7521.6330 300.2637 346.8635 284.2904 30467.0122 105.7322 160.1417
TCL: Running FEP window  14: Lambda1 0.65   Lambda2 0.7000000000000001 [dLambda 0.050000000000000044]
TCL: Setting parameter firsttimestep to 0
TCL: Setting parameter alchLambda to 0.65
Info: NONBONDED TABLE R-SQUARED SPACING: 0.0625
Info: NONBONDED TABLE SIZE: 705 POINTS
TCL: Setting parameter alchLambda2 to 0.7000000000000001
Info: NONBONDED TABLE R-SQUARED SPACING: 0.0625
Info: NONBONDED TABLE SIZE: 705 POINTS
TCL: Running for 1500000 steps
ETITLE: TS BOND ANGLE DIHED IMPRP ELECT VDW BOUNDARY MISC KINETIC TOTAL TEMP POTENTIAL TOTALAVG TEMPAVG PRESSURE GPRESSURE VOLUME PRESSAVG GPRESSAVG
ENERGY: 0 0.0458 4.1320 2.2026 0.0000 -10725.0880 1450.8158 0.0000 0.0000 1739.0354 -7528.8564 295.3501 -9267.8917 -7528.8564 295.3501 220.0873 287.6934 30467.0122 220.0873 287.6934
ENERGY: 300000 0.6171 6.6644 1.9408 0.0000 -10837.5722 1509.3064 0.0000 0.0000 1747.4235 -7571.6201 296.7747 -9319.0435 -7574.2893 301.6793 346.5388 379.4627 30649.4552 355.3906 399.1455
ENERGY: 600000 0.2482 7.1597 2.6495 0.0000 -10874.1242 1491.1054 0.0000 0.0000 1764.5528 -7608.4085 299.6839 -9372.9613 -7568.0329 302.0181 262.2187 339.0518 30068.0717 82.6095 143.5297
ENERGY: 900000 2.2251 3.1131 3.9890 0.0000 -10817.1461 1468.4952 0.0000 0.0000 1754.7322 -7584.5914 298.0160 -9339.3237 -7557.4981 301.6519 68.8952 138.1654 30319.0043 -46.9412 19.6602
ENERGY: 1200000 0.5498 4.1742 2.6096 0.0000 -10848.6773 1482.5497 0.0000 0.0000 1773.0490 -7585.7450 301.1268 -9358.7940 -7543.6847 301.3763 -185.1118 -123.8506 30792.4834 -95.5112 -27.2416
ENERGY: 1500000 0.0963 3.0084 2.7535 0.0000 -10838.0428 1440.8802 0.0000 0.0000 1771.6356 -7619.6689 300.8868 -9391.3045 -7540.7708 301.4120 -127.9041 -114.1821 30440.0053 -107.8673 -44.3504
TCL: Running FEP window  15: Lambda1 0.7000000000000001 Lambda2 0.7500000000000001 [dLambda 0.050000000000000044]
TCL: Setting parameter firsttimestep to 0
TCL: Setting parameter alchLambda to 0.7000000000000001
Info: NONBONDED TABLE R-SQUARED SPACING: 0.0625
Info: NONBONDED TABLE SIZE: 705 POINTS
TCL: Setting parameter alchLambda2 to 0.7500000000000001
Info: NONBONDED TABLE R-SQUARED SPACING: 0.0625
Info: NONBONDED TABLE SIZE: 705 POINTS
TCL: Running for 1500000 steps
ETITLE: TS BOND ANGLE DIHED IMPRP ELECT VDW BOUNDARY MISC KINETIC TOTAL TEMP POTENTIAL TOTALAVG TEMPAVG PRESSURE GPRESSURE VOLUME PRESSAVG GPRESSAVG
ENERGY: 0 0.0963 3.0084 2.7535 0.0000 -10838.7342 1440.5592 0.0000 0.0000 1770.7780 -7621.5388 300.7411 -9392.3168 -7621.5388 300.7411 -204.2368 -112.5578 30440.0053 -204.2368 -112.5578
ENERGY: 300000 0.9401 4.1709 2.6484 0.0000 -10747.5821 1448.8879 0.0000 0.0000 1783.7870 -7507.1479 302.9505 -9290.9349 -7586.8066 299.5591 -57.2196 70.6421 30451.5234 -40.8754 46.7072
ENERGY: 600000 0.2047 4.0286 2.9799 0.0000 -10800.3711 1449.6296 0.0000 0.0000 1753.5582 -7589.9702 297.8166 -9343.5284 -7584.6148 299.6556 -282.4159 -203.2067 30769.5271 -68.8613 6.9998
ENERGY: 900000 0.8978 3.1606 3.0885 0.0000 -10794.2792 1408.8846 0.0000 0.0000 1756.7339 -7621.5138 298.3560 -9378.2477 -7575.9045 300.8004 -210.5849 -186.9225 29907.2457 -44.6736 13.6706
ENERGY: 1200000 0.2850 4.4990 3.2438 0.0000 -10533.8441 1341.6559 0.0000 0.0000 1761.4207 -7422.7398 299.1519 -9184.1604 -7571.9370 299.0061 -577.0477 -505.5151 30875.5529 -173.5989 -112.3403
ENERGY: 1500000 1.3639 4.2923 2.3071 0.0000 -10748.4785 1422.3757 0.0000 0.0000 1782.2139 -7535.9256 302.6834 -9318.1395 -7565.7359 299.8533 -226.3055 -203.2404 30639.3666 -114.1414 -59.1726
TCL: Running FEP window  16: Lambda1 0.7500000000000001 Lambda2 0.8000000000000002 [dLambda 0.050000000000000044]
TCL: Setting parameter firsttimestep to 0
TCL: Setting parameter alchLambda to 0.7500000000000001
Info: NONBONDED TABLE R-SQUARED SPACING: 0.0625
Info: NONBONDED TABLE SIZE: 705 POINTS
TCL: Setting parameter alchLambda2 to 0.8000000000000002
Info: NONBONDED TABLE R-SQUARED SPACING: 0.0625
Info: NONBONDED TABLE SIZE: 705 POINTS
TCL: Running for 1500000 steps
ETITLE: TS BOND ANGLE DIHED IMPRP ELECT VDW BOUNDARY MISC KINETIC TOTAL TEMP POTENTIAL TOTALAVG TEMPAVG PRESSURE GPRESSURE VOLUME PRESSAVG GPRESSAVG
ENERGY: 0 1.3639 4.2923 2.3071 0.0000 -10749.8727 1422.9806 0.0000 0.0000 1781.2850 -7537.6438 302.5256 -9318.9288 -7537.6438 302.5256 -275.0472 -192.9417 30639.3666 -275.0472 -192.9417
ENERGY: 300000 1.3566 3.8309 2.3275 0.0000 -10926.0856 1517.2476 0.0000 0.0000 1742.0430 -7659.2799 295.8609 -9401.3230 -7572.7284 299.9154 580.2466 698.2639 29861.3110 215.0766 306.8752
ENERGY: 600000 0.1930 7.3573 2.9810 0.0000 -10696.7728 1418.4132 0.0000 0.0000 1757.7497 -7510.0786 298.5285 -9267.8283 -7552.5769 300.9586 -98.4681 -18.5267 30463.7463 127.3243 213.3125
ENERGY: 900000 2.2846 5.5121 4.4728 0.0000 -10779.1286 1408.7513 0.0000 0.0000 1741.7752 -7616.3326 295.8154 -9358.1078 -7569.5813 298.9126 -617.6184 -555.0767 30527.8147 59.1538 131.9311
ENERGY: 1200000 0.0538 6.1338 2.6766 0.0000 -10581.1102 1306.6796 0.0000 0.0000 1779.0319 -7486.5345 302.1430 -9265.5665 -7555.0269 299.5282 -1000.7429 -953.7315 30490.5338 81.5988 154.9220
ENERGY: 1500000 0.2341 5.4263 2.2013 0.0000 -10762.7514 1502.3533 0.0000 0.0000 1754.2404 -7498.2959 297.9325 -9252.5363 -7558.5505 300.5721 635.8024 720.5935 30437.2944 67.4984 137.9594
TCL: Running FEP window  17: Lambda1 0.8000000000000002 Lambda2 0.8500000000000002 [dLambda 0.050000000000000044]
TCL: Setting parameter firsttimestep to 0
TCL: Setting parameter alchLambda to 0.8000000000000002
Info: NONBONDED TABLE R-SQUARED SPACING: 0.0625
Info: NONBONDED TABLE SIZE: 705 POINTS
TCL: Setting parameter alchLambda2 to 0.8500000000000002
Info: NONBONDED TABLE R-SQUARED SPACING: 0.0625
Info: NONBONDED TABLE SIZE: 705 POINTS
TCL: Running for 1500000 steps
ETITLE: TS BOND ANGLE DIHED IMPRP ELECT VDW BOUNDARY MISC KINETIC TOTAL TEMP POTENTIAL TOTALAVG TEMPAVG PRESSURE GPRESSURE VOLUME PRESSAVG GPRESSAVG
ENERGY: 0 0.2341 5.4263 2.2013 0.0000 -10764.0448 1503.1767 0.0000 0.0000 1753.4027 -7499.6036 297.7902 -9253.0063 -7499.6036 297.7902 647.2270 733.5971 30437.2944 647.2270 733.5971
ENERGY: 300000 1.3546 4.3477 2.8028 0.0000 -10677.2879 1352.0561 0.0000 0.0000 1783.5847 -7533.1421 302.9162 -9316.7268 -7496.8337 301.3771 -788.3879 -737.7086 30608.8512 -213.6202 -174.1353
ENERGY: 600000 0.7802 6.2767 3.1639 0.0000 -10669.8176 1376.3793 0.0000 0.0000 1746.5583 -7536.6593 296.6278 -9283.2175 -7510.9723 300.7484 -799.0130 -732.9189 31039.7242 -263.1733 -197.5337
ENERGY: 900000 2.6182 3.9564 2.1758 0.0000 -10838.3683 1506.7718 0.0000 0.0000 1792.7870 -7530.0592 304.4791 -9322.8462 -7500.4614 302.0915 534.9811 547.3414 30577.1024 -84.2331 -21.5162
ENERGY: 1200000 1.0207 6.0723 2.1764 0.0000 -10802.0508 1428.4833 0.0000 0.0000 1772.5465 -7591.7516 301.0415 -9364.2981 -7531.7374 299.6519 -661.5578 -583.8821 30882.6381 -208.9383 -134.1489
ENERGY: 1500000 1.0080 4.6917 2.9297 0.0000 -10796.9961 1511.1907 0.0000 0.0000 1761.3623 -7515.8137 299.1420 -9277.1759 -7527.6306 299.1908 630.7768 659.2261 30310.1529 -185.4231 -117.6218
TCL: Running FEP window  18: Lambda1 0.8500000000000002 Lambda2 0.9000000000000002 [dLambda 0.050000000000000044]
TCL: Setting parameter firsttimestep to 0
TCL: Setting parameter alchLambda to 0.8500000000000002
Info: NONBONDED TABLE R-SQUARED SPACING: 0.0625
Info: NONBONDED TABLE SIZE: 705 POINTS
TCL: Setting parameter alchLambda2 to 0.9000000000000002
Info: NONBONDED TABLE R-SQUARED SPACING: 0.0625
Info: NONBONDED TABLE SIZE: 705 POINTS
TCL: Running for 1500000 steps
ETITLE: TS BOND ANGLE DIHED IMPRP ELECT VDW BOUNDARY MISC KINETIC TOTAL TEMP POTENTIAL TOTALAVG TEMPAVG PRESSURE GPRESSURE VOLUME PRESSAVG GPRESSAVG
ENERGY: 0 1.0080 4.6917 2.9297 0.0000 -10798.2228 1511.8423 0.0000 0.0000 1760.4779 -7517.2731 298.9918 -9277.7510 -7517.2731 298.9918 582.4659 670.9038 30310.1529 582.4659 670.9038
ENERGY: 300000 0.7789 3.8768 2.1633 0.0000 -10792.0461 1463.9375 0.0000 0.0000 1778.2605 -7543.0290 302.0120 -9321.2896 -7583.6434 293.6270 195.8406 196.7372 30468.4099 10.7930 46.6024
ENERGY: 600000 0.3680 2.1190 3.8186 0.0000 -10618.7465 1420.9666 0.0000 0.0000 1775.0191 -7416.4553 301.4614 -9191.4744 -7557.2521 294.9924 71.0991 134.9377 30681.4375 -80.3698 -26.1800
ENERGY: 900000 0.3944 2.3976 2.8789 0.0000 -10680.6840 1419.3091 0.0000 0.0000 1728.0272 -7527.6768 293.4805 -9255.7040 -7537.4867 296.2152 -182.9287 -93.0287 30576.7624 -144.4544 -84.5581
ENERGY: 1200000 0.8036 8.0777 3.5890 0.0000 -10807.8854 1446.6632 0.0000 0.0000 1773.1527 -7575.5992 301.1445 -9348.7519 -7548.7431 295.5585 -48.9879 24.7854 30076.9574 -175.3021 -118.7341
ENERGY: 1500000 0.5103 3.6658 2.8341 0.0000 -10827.2147 1463.4430 0.0000 0.0000 1759.9201 -7596.8414 298.8971 -9356.7615 -7544.2831 296.0768 81.3738 154.1151 30308.8937 -148.9215 -89.4040
TCL: Running FEP window  19: Lambda1 0.9000000000000002 Lambda2 0.9500000000000003 [dLambda 0.050000000000000044]
TCL: Setting parameter firsttimestep to 0
TCL: Setting parameter alchLambda to 0.9000000000000002
Info: NONBONDED TABLE R-SQUARED SPACING: 0.0625
Info: NONBONDED TABLE SIZE: 705 POINTS
TCL: Setting parameter alchLambda2 to 0.9500000000000003
Info: NONBONDED TABLE R-SQUARED SPACING: 0.0625
Info: NONBONDED TABLE SIZE: 705 POINTS
TCL: Running for 1500000 steps
ETITLE: TS BOND ANGLE DIHED IMPRP ELECT VDW BOUNDARY MISC KINETIC TOTAL TEMP POTENTIAL TOTALAVG TEMPAVG PRESSURE GPRESSURE VOLUME PRESSAVG GPRESSAVG
ENERGY: 0 0.5103 3.6658 2.8341 0.0000 -10828.8559 1464.2270 0.0000 0.0000 1759.0586 -7598.5600 298.7508 -9357.6186 -7598.5600 298.7508 73.5229 166.9369 30308.8937 73.5229 166.9369
ENERGY: 300000 0.7887 5.4354 2.5121 0.0000 -10681.8314 1432.1881 0.0000 0.0000 1736.0586 -7504.8485 294.8446 -9240.9071 -7533.8195 297.4613 150.7197 189.4161 30170.7014 -47.4644 12.6258
ENERGY: 600000 1.5771 4.3965 2.5389 0.0000 -10803.4164 1429.5183 0.0000 0.0000 1728.7923 -7636.5934 293.6105 -9365.3856 -7535.8908 298.1667 -476.4195 -417.7744 30775.2550 -140.9453 -70.8320
ENERGY: 900000 3.0014 6.2816 3.0565 0.0000 -10907.2572 1578.2571 0.0000 0.0000 1775.6118 -7541.0488 301.5621 -9316.6606 -7540.8691 299.1580 1041.7944 1152.5894 30005.9606 35.0033 110.5880
ENERGY: 1200000 1.0137 3.9301 2.3832 0.0000 -10773.7162 1468.3206 0.0000 0.0000 1744.8171 -7553.2515 296.3321 -9298.0686 -7527.4996 299.1460 113.2597 183.4373 30471.5309 -16.1254 50.6529
ENERGY: 1500000 0.1819 2.4434 3.6848 0.0000 -10756.1437 1478.5134 0.0000 0.0000 1765.0582 -7506.2619 299.7697 -9271.3201 -7528.8264 299.5699 409.6805 454.8773 30520.3274 -26.7878 41.4819
TCL: Running FEP window  20: Lambda1 0.9500000000000003 Lambda2 1.0    [dLambda 0.04999999999999971]
TCL: Setting parameter firsttimestep to 0
TCL: Setting parameter alchLambda to 0.9500000000000003
Info: NONBONDED TABLE R-SQUARED SPACING: 0.0625
Info: NONBONDED TABLE SIZE: 705 POINTS
TCL: Setting parameter alchLambda2 to 1.0
Info: NONBONDED TABLE R-SQUARED SPACING: 0.0625
Info: NONBONDED TABLE SIZE: 705 POINTS
TCL: Running for 1500000 steps
ETITLE: TS BOND ANGLE DIHED IMPRP ELECT VDW BOUNDARY MISC KINETIC TOTAL TEMP POTENTIAL TOTALAVG TEMPAVG PRESSURE GPRESSURE VOLUME PRESSAVG GPRESSAVG
ENERGY: 0 0.1819 2.4434 3.6848 0.0000 -10757.9390 1480.3258 0.0000 0.0000 1764.1982 -7507.1048 299.6237 -9271.3031 -7507.1048 299.6237 408.1518 478.9080 30520.3274 408.1518 478.9080
ENERGY: 300000 1.2657 5.4265 2.7596 0.0000 -10860.1008 1442.6334 0.0000 0.0000 1753.3681 -7654.6475 297.7843 -9408.0157 -7519.0164 301.4558 -247.4769 -261.3330 30164.4861 188.3974 231.8248
ENERGY: 600000 0.3881 3.2598 2.5779 0.0000 -10747.7778 1451.5493 0.0000 0.0000 1765.4448 -7524.5580 299.8354 -9290.0027 -7530.4658 300.3473 39.1394 115.1136 30423.6600 102.9811 162.0175
ENERGY: 900000 1.0912 4.0404 3.0984 0.0000 -10611.6113 1380.2642 0.0000 0.0000 1744.6217 -7478.4953 296.2989 -9223.1170 -7529.9612 299.7449 -530.5238 -459.0641 31301.5880 -17.3116 45.3812
ENERGY: 1200000 0.8747 3.1734 2.4681 0.0000 -10641.3999 1419.9369 0.0000 0.0000 1702.2741 -7512.6727 289.1068 -9214.9468 -7536.1375 298.2194 -472.1471 -460.2647 31520.3025 -83.0752 -21.9195
ENERGY: 1500000 2.9715 3.0240 2.7187 0.0000 -10816.6457 1467.8509 0.0000 0.0000 1780.5275 -7559.5531 302.3970 -9340.0806 -7538.3019 298.7443 74.8026 142.9873 30557.8557 -23.1993 37.5787
TCL: Exiting due to exit command.
