Info: SIMULATION PARAMETERS:
Info: TIMESTEP               2
Info: NUMBER OF STEPS        0
Info: STEPS PER CYCLE        10
Info: PERIODIC CELL BASIS 1  31.5904 0 0
Info: PERIODIC CELL BASIS 2  0 30.5394 0
Info: PERIODIC CELL BASIS 3  0 0 31.3739
Info: PERIODIC CELL CENTER   0 0 0
Info: WRAPPING WATERS AROUND PERIODIC BOUNDARIES ON OUTPUT.
Info: WRAPPING ALL CLUSTERS AROUND PERIODIC BOUNDARIES ON OUTPUT.
Info: FIRST LDB TIMESTEP     50
Info: LAST LDB TIMESTEP     -1
Info: HOM BACKGROUND SCALING 1
Info: PME BACKGROUND SCALING 1
Info: MIN ATOMS PER PATCH    40
Info: EMPTY PATCH LOAD       40 ATOMS
Info: VELOCITY FILE          mobley_6632459_equil.vel
Info: CENTER OF MASS MOVING INITIALLY? NO
Info: DIELECTRIC             1
Info: EXCLUDE                SCALED ONE-FOUR
Info: 1-4 ELECTROSTATICS SCALED BY 0.833333
Info: MODIFIED 1-4 VDW PARAMETERS WILL BE USED
Info: DCD FILENAME           mobley_6632459_prod.dcd
Info: DCD FREQUENCY          100000
Info: DCD FIRST STEP         100000
Info: DCD FILE WILL CONTAIN UNIT CELL DATA
Info: XST FILENAME           mobley_6632459_prod.xst
Info: XST FREQUENCY          100000
Info: NO VELOCITY DCD OUTPUT
Info: NO FORCE DCD OUTPUT
Info: OUTPUT FILENAME        mobley_6632459_prod
Info: BINARY OUTPUT FILES WILL BE USED
Info: RESTART FILENAME       mobley_6632459_prod.restart
Info: RESTART FREQUENCY      100000
Info: BINARY RESTART FILES WILL BE USED
Info: CUTOFF                 9
Info: PAIRLIST DISTANCE      11
Info: PAIRLIST SHRINK RATE   0.01
Info: PAIRLIST GROW RATE     0.01
Info: PAIRLIST TRIGGER       0.3
Info: PAIRLISTS PER CYCLE    2
Info: PAIRLISTS ENABLED
Info: MARGIN                 2
Info: HYDROGEN GROUP CUTOFF  2.5
Info: PATCH DIMENSION        15.5
Info: ENERGY OUTPUT STEPS    100000
Info: ENERGY EVALUATION STEPS    100000
Info: OUTPUT ENERGY PRECISION 4
Info: CROSSTERM ENERGY INCLUDED IN DIHEDRAL
Info: TIMING OUTPUT STEPS    1000000
Info: PRESSURE OUTPUT STEPS  100000
Info: ALCHEMICAL FEP ON
Info: FEP CURRENT LAMBDA VALUE     0
Info: FEP COMPARISON LAMBDA VALUE  0.05
Info: FEP INTRA-ALCHEMICAL NON-BONDED INTERACTIONS WILL BE RETAINED
Info: FEP INTRA-ALCHEMICAL BONDED INTERACTIONS WILL BE RETAINED
Info: FEP VDW SHIFTING COEFFICIENT 5
Info: FEP ELEC. ACTIVE FOR ANNIHILATED PARTICLES BETWEEN LAMBDA = 0 AND LAMBDA = 0.5
Info: FEP ELEC. ACTIVE FOR EXNIHILATED PARTICLES BETWEEN LAMBDA = 0.5 AND LAMBDA = 1
Info: FEP VDW ACTIVE FOR ANNIHILATED PARTICLES BETWEEN LAMBDA = 0 AND LAMBDA = 1
Info: FEP VDW ACTIVE FOR EXNIHILATED PARTICLES BETWEEN LAMBDA = 0 AND LAMBDA = 1
Info: FEP BOND ACTIVE FOR ANNIHILATED PARTICLES BETWEEN LAMBDA = 1 AND LAMBDA = 1
Info: FEP BOND ACTIVE FOR EXNIHILATED PARTICLES BETWEEN LAMBDA = 0 AND LAMBDA = 0
Info: LANGEVIN DYNAMICS ACTIVE
Info: LANGEVIN TEMPERATURE   300
Info: LANGEVIN USING BBK INTEGRATOR
Info: LANGEVIN DAMPING COEFFICIENT IS 1 INVERSE PS
Info: LANGEVIN DYNAMICS APPLIED TO HYDROGENS
Info: LANGEVIN PISTON PRESSURE CONTROL ACTIVE
Info:        TARGET PRESSURE IS 1.01325 BAR
Info:     OSCILLATION PERIOD IS 50 FS
Info:             DECAY TIME IS 25 FS
Info:     PISTON TEMPERATURE IS 300 K
Info:       PRESSURE CONTROL IS GROUP-BASED
Info:    INITIAL STRAIN RATE IS 0.000706954 0.000706954 0.000706954
Info:       CELL FLUCTUATION IS ISOTROPIC
Info: PARTICLE MESH EWALD (PME) ACTIVE
Info: PME TOLERANCE               1e-06
Info: PME EWALD COEFFICIENT       0.348832
Info: PME INTERPOLATION ORDER     4
Info: PME GRID DIMENSIONS         32 32 32
Info: PME MAXIMUM GRID SPACING    1
Info: PME CALCULATION WILL BE PERFORMED ON GPU
Info: FULL ELECTROSTATIC EVALUATION FREQUENCY      2
Info: USING VERLET I (r-RESPA) MTS SCHEME.
Info: C1 SPLITTING OF LONG RANGE ELECTROSTATICS
Info: PLACING ATOMS IN PATCHES BY HYDROGEN GROUPS
Info: RIGID BONDS TO HYDROGEN : ALL
Info:         ERROR TOLERANCE : 1e-08
Info:          MAX ITERATIONS : 100
Info: RIGID WATER USING SETTLE ALGORITHM
Info: RANDOM NUMBER SEED     1743676007
Info: USE HYDROGEN BONDS?    NO
Info: Using AMBER format force field!
Info: AMBER PARM FILE        mobley_6632459.prmtop
Info: COORDINATE PDB         mobley_6632459.pdb
Info: Exclusions will be read from PARM file!
Info: SCNB (VDW SCALING)     2
Info: USING ARITHMETIC MEAN TO COMBINE L-J SIGMA PARAMETERS
Info: BINARY COORDINATES     mobley_6632459_equil.coor
Info: SUMMARY OF PARAMETERS:
Info: 7 BONDS
Info: 7 ANGLES
Info:   7 HARMONIC
Info:   0 COSINE-BASED
Info: 7 DIHEDRAL
Info: 0 IMPROPER
Info: 0 CROSSTERM
Info: 0 VDW
Info: 28 VDW_PAIRS
Info: 0 NBTHOLE_PAIRS
Info: To read alchdata from file: mobley_6632459.pdb
Info: To read alchflag data from column: 5
Info: STRUCTURE SUMMARY:
Info: 2911 ATOMS
Info: 2910 BONDS
Info: 15 ANGLES
Info: 20 DIHEDRALS
Info: 0 IMPROPERS
Info: 0 CROSSTERMS
Info: 2940 EXCLUSIONS
Info: 2907 RIGID BONDS
Info: ALCH: 0 ATOMS TO DISAPPEAR IN FINAL STATE
Info: ALCH: 10 ATOMS TO APPEAR IN FINAL STATE
Info: 5826 DEGREES OF FREEDOM
Info: 971 HYDROGEN GROUPS
Info: 4 ATOMS IN LARGEST HYDROGEN GROUP
Info: 971 MIGRATION GROUPS
Info: 4 ATOMS IN LARGEST MIGRATION GROUP
Info: TOTAL MASS = 17479.6 amu
Info: TOTAL CHARGE = 9.99989e-05 e
Info: MASS DENSITY = 0.958972 g/cm^3
Info: ATOM DENSITY = 0.0961742 atoms/A^3
Info: ADDED 0 IMPLICIT EXCLUSIONS
Info: NONBONDED TABLE R-SQUARED SPACING: 0.0625
Info: NONBONDED TABLE SIZE: 705 POINTS
Info: REMOVING COM VELOCITY -0.108753 -0.0759831 0.119897
Info: Use 3D box decompostion in PME FFT.
Info: Updated CUDA force table with 4096 elements.
Info: Updated CUDA LJ table with 7 x 7 elements.
Info: Found 13 unique exclusion lists needing 20 bytes
TCL: Running for 1500000 steps
ETITLE: TS BOND ANGLE DIHED IMPRP ELECT VDW BOUNDARY MISC KINETIC TOTAL TEMP POTENTIAL TOTALAVG TEMPAVG PRESSURE GPRESSURE VOLUME PRESSAVG GPRESSAVG
ENERGY: 0 1.0878 3.2063 1.0239 0.0000 -10467.7250 1343.8010 0.0000 0.0000 1711.3131 -7407.2930 295.6306 -9118.6062 -7407.2930 295.6306 -755.6367 -686.3232 30268.0039 -755.6367 -686.3232
ENERGY: 300000 1.0985 2.7687 2.4975 0.0000 -10509.7999 1411.5778 0.0000 0.0000 1773.3728 -7318.4845 306.3514 -9091.8573 -7417.8430 300.3104 -157.7528 -66.0250 30368.9578 -245.1883 -149.1881
ENERGY: 600000 0.7637 4.7415 1.4173 0.0000 -10665.7555 1463.9031 0.0000 0.0000 1774.3687 -7420.5613 306.5235 -9194.9300 -7410.9766 299.4965 -160.7453 -113.9378 30104.1674 -166.0974 -93.5492
ENERGY: 900000 1.5109 3.0896 2.1922 0.0000 -10458.3595 1358.5045 0.0000 0.0000 1752.1865 -7340.8758 302.6915 -9093.0623 -7394.6170 301.3018 -719.5904 -695.8119 30567.9388 -65.8198 -4.5730
ENERGY: 1200000 1.2984 1.7635 1.6240 0.0000 -10511.0747 1451.5965 0.0000 0.0000 1731.4238 -7323.3685 299.1047 -9054.7923 -7395.4603 300.5646 62.7308 134.2709 30282.2877 -63.0946 -0.5793
ENERGY: 1500000 1.0111 1.9818 0.8234 0.0000 -10418.8755 1401.7471 0.0000 0.0000 1777.0497 -7236.2624 306.9866 -9013.3121 -7375.9096 300.6212 16.3882 42.6701 30250.9388 -132.5852 -70.7799
TCL: Running FEP window   2: Lambda1 0.05   Lambda2 0.1    [dLambda 0.05  ]
TCL: Setting parameter firsttimestep to 0
TCL: Setting parameter alchLambda to 0.05
Info: NONBONDED TABLE R-SQUARED SPACING: 0.0625
Info: NONBONDED TABLE SIZE: 705 POINTS
TCL: Setting parameter alchLambda2 to 0.1
Info: NONBONDED TABLE R-SQUARED SPACING: 0.0625
Info: NONBONDED TABLE SIZE: 705 POINTS
TCL: Running for 1500000 steps
ETITLE: TS BOND ANGLE DIHED IMPRP ELECT VDW BOUNDARY MISC KINETIC TOTAL TEMP POTENTIAL TOTALAVG TEMPAVG PRESSURE GPRESSURE VOLUME PRESSAVG GPRESSAVG
ENERGY: 0 1.0111 1.9818 0.8234 0.0000 -10418.8771 1404.5671 0.0000 0.0000 1776.1798 -7234.3138 306.8364 -9010.4936 -7234.3138 306.8364 -23.2962 48.5910 30250.9388 -23.2962 48.5910
ENERGY: 300000 0.5337 5.2606 3.0895 0.0000 -10493.2340 1292.4957 0.0000 0.0000 1747.5120 -7444.3425 301.8840 -9191.8545 -7347.2323 304.0867 -1287.2065 -1158.2004 29956.7623 18.7487 90.3629
ENERGY: 600000 1.1903 5.1198 1.1942 0.0000 -10453.8207 1347.3202 0.0000 0.0000 1700.7784 -7398.2178 293.8107 -9098.9962 -7371.5745 301.3463 -632.5597 -514.6813 30111.1321 -196.4345 -131.9371
ENERGY: 900000 0.2143 2.9062 2.9751 0.0000 -10634.9924 1441.0514 0.0000 0.0000 1711.0862 -7476.7592 295.5914 -9187.8453 -7388.2762 301.2204 -182.6870 -9.4770 29749.4153 -231.3981 -164.7894
ENERGY: 1200000 2.1161 1.3600 1.5836 0.0000 -10609.2100 1413.9077 0.0000 0.0000 1704.9051 -7485.3375 294.5236 -9190.2426 -7401.5148 300.5691 -415.5522 -370.7780 30063.6208 -198.5344 -130.6538
ENERGY: 1500000 1.6273 4.8150 2.2544 0.0000 -10571.3494 1400.3864 0.0000 0.0000 1739.6074 -7422.6589 300.5185 -9162.2663 -7404.4010 300.7327 -415.5711 -374.8534 30282.4372 -174.7138 -109.8889
TCL: Running FEP window   3: Lambda1 0.1    Lambda2 0.15000000000000002 [dLambda 0.05000000000000002]
TCL: Setting parameter firsttimestep to 0
TCL: Setting parameter alchLambda to 0.1
Info: NONBONDED TABLE R-SQUARED SPACING: 0.0625
Info: NONBONDED TABLE SIZE: 705 POINTS
TCL: Setting parameter alchLambda2 to 0.15000000000000002
Info: NONBONDED TABLE R-SQUARED SPACING: 0.0625
Info: NONBONDED TABLE SIZE: 705 POINTS
TCL: Running for 1500000 steps
ETITLE: TS BOND ANGLE DIHED IMPRP ELECT VDW BOUNDARY MISC KINETIC TOTAL TEMP POTENTIAL TOTALAVG TEMPAVG PRESSURE GPRESSURE VOLUME PRESSAVG GPRESSAVG
ENERGY: 0 1.6273 4.8150 2.2544 0.0000 -10571.3494 1400.5777 0.0000 0.0000 1738.7275 -7423.3475 300.3665 -9162.0750 -7423.3475 300.3665 -460.4594 -372.6090 30282.4372 -460.4594 -372.6090
ENERGY: 300000 0.4232 4.5563 2.1583 0.0000 -10468.7196 1328.9215 0.0000 0.0000 1701.0172 -7431.6432 293.8520 -9132.6604 -7427.8325 300.6556 -842.6404 -809.0278 30121.5992 -88.5184 -6.4828
ENERGY: 600000 1.2834 4.6730 1.2920 0.0000 -10681.2130 1467.2123 0.0000 0.0000 1742.2800 -7464.4722 300.9802 -9206.7522 -7408.2775 302.9832 268.4885 363.2802 29588.5193 113.1130 185.6403
ENERGY: 900000 1.3934 1.9733 2.7073 0.0000 -10416.2556 1335.4750 0.0000 0.0000 1704.1139 -7370.5929 294.3869 -9074.7067 -7410.9789 301.3873 -472.2080 -455.5812 29964.1728 -19.8761 54.3535
ENERGY: 1200000 1.8071 4.4305 1.1757 0.0000 -10582.4153 1473.9639 0.0000 0.0000 1705.0591 -7395.9791 294.5502 -9101.0382 -7409.6109 300.9114 357.8053 404.1738 30330.9860 -44.9316 26.7439
ENERGY: 1500000 0.9041 2.6729 1.4598 0.0000 -10511.7733 1417.2647 0.0000 0.0000 1699.4194 -7390.0524 293.5759 -9089.4718 -7405.2392 300.7890 -181.7718 -121.9208 30362.1385 -77.0467 -9.4093
TCL: Running FEP window   4: Lambda1 0.15000000000000002 Lambda2 0.2    [dLambda 0.04999999999999999]
TCL: Setting parameter firsttimestep to 0
TCL: Setting parameter alchLambda to 0.15000000000000002
Info: NONBONDED TABLE R-SQUARED SPACING: 0.0625
Info: NONBONDED TABLE SIZE: 705 POINTS
TCL: Setting parameter alchLambda2 to 0.2
Info: NONBONDED TABLE R-SQUARED SPACING: 0.0625
Info: NONBONDED TABLE SIZE: 705 POINTS
TCL: Running for 1500000 steps
ETITLE: TS BOND ANGLE DIHED IMPRP ELECT VDW BOUNDARY MISC KINETIC TOTAL TEMP POTENTIAL TOTALAVG TEMPAVG PRESSURE GPRESSURE VOLUME PRESSAVG GPRESSAVG
ENERGY: 0 0.9040 2.6729 1.4598 0.0000 -10511.7733 1418.0854 0.0000 0.0000 1698.5498 -7390.1014 293.4257 -9088.6511 -7390.1014 293.4257 -206.4667 -116.1933 30362.1385 -206.4667 -116.1933
ENERGY: 300000 0.3868 3.0529 2.4683 0.0000 -10607.4242 1444.5817 0.0000 0.0000 1674.9170 -7482.0176 289.3431 -9156.9346 -7410.5847 295.5601 1.4714 86.6377 29781.9573 -151.3718 -51.3488
ENERGY: 600000 0.6658 7.7711 1.6225 0.0000 -10697.2253 1470.2657 0.0000 0.0000 1804.0578 -7412.8423 311.6523 -9216.9002 -7437.3456 297.6761 156.6439 206.7625 29719.1786 -4.4302 77.7840
ENERGY: 900000 0.0701 3.0564 2.6356 0.0000 -10446.7578 1323.4093 0.0000 0.0000 1747.7551 -7369.8314 301.9260 -9117.5865 -7424.8425 299.4592 -537.0291 -503.2904 29554.4175 -57.1978 13.2982
ENERGY: 1200000 0.2042 2.5519 2.6755 0.0000 -10513.2569 1450.3178 0.0000 0.0000 1736.0438 -7321.4637 299.9028 -9057.5075 -7410.6830 300.7204 355.2640 410.6120 30234.6537 -61.5147 2.4957
ENERGY: 1500000 0.8190 4.6756 2.1431 0.0000 -10641.9318 1427.2700 0.0000 0.0000 1738.7041 -7468.3201 300.3624 -9207.0242 -7417.3235 300.6460 -23.0260 103.7283 29499.4878 -46.5789 21.0290
TCL: Running FEP window   5: Lambda1 0.2    Lambda2 0.25   [dLambda 0.04999999999999999]
TCL: Setting parameter firsttimestep to 0
TCL: Setting parameter alchLambda to 0.2
Info: NONBONDED TABLE R-SQUARED SPACING: 0.0625
Info: NONBONDED TABLE SIZE: 705 POINTS
TCL: Setting parameter alchLambda2 to 0.25
Info: NONBONDED TABLE R-SQUARED SPACING: 0.0625
Info: NONBONDED TABLE SIZE: 705 POINTS
TCL: Running for 1500000 steps
ETITLE: TS BOND ANGLE DIHED IMPRP ELECT VDW BOUNDARY MISC KINETIC TOTAL TEMP POTENTIAL TOTALAVG TEMPAVG PRESSURE GPRESSURE VOLUME PRESSAVG GPRESSAVG
ENERGY: 0 0.8190 4.6756 2.1431 0.0000 -10641.9313 1426.9998 0.0000 0.0000 1737.8329 -7469.4611 300.2119 -9207.2940 -7469.4611 300.2119 23.2937 104.5169 29499.4878 23.2937 104.5169
ENERGY: 300000 0.2340 3.4199 1.4189 0.0000 -10731.0445 1517.3833 0.0000 0.0000 1752.2464 -7456.3420 302.7019 -9208.5884 -7402.9037 301.2036 629.7122 735.9899 29608.7949 52.3791 117.3740
ENERGY: 600000 2.7672 3.4206 1.3033 0.0000 -10436.2152 1376.7913 0.0000 0.0000 1722.8804 -7329.0523 297.6289 -9051.9327 -7403.1192 300.0290 -553.2118 -440.0786 30335.2505 0.8154 68.5487
ENERGY: 900000 1.4809 4.7896 1.5415 0.0000 -10500.6964 1356.9302 0.0000 0.0000 1696.3210 -7439.6332 293.0407 -9135.9542 -7399.2483 299.2012 -727.3297 -658.1223 29968.0799 -57.3485 -0.0179
ENERGY: 1200000 3.2627 1.9722 0.9804 0.0000 -10552.8770 1432.2264 0.0000 0.0000 1790.8175 -7323.6178 309.3650 -9114.4353 -7385.7623 300.7307 136.8136 172.0567 30116.8006 -68.0439 -11.8555
ENERGY: 1500000 0.9883 2.6958 1.0337 0.0000 -10529.0068 1366.4874 0.0000 0.0000 1699.2155 -7458.5860 293.5407 -9157.8015 -7392.1454 299.9471 -476.8216 -417.6050 29874.2181 -81.6655 -29.1631
TCL: Running FEP window   6: Lambda1 0.25   Lambda2 0.3    [dLambda 0.04999999999999999]
TCL: Setting parameter firsttimestep to 0
TCL: Setting parameter alchLambda to 0.25
Info: NONBONDED TABLE R-SQUARED SPACING: 0.0625
Info: NONBONDED TABLE SIZE: 705 POINTS
TCL: Setting parameter alchLambda2 to 0.3
Info: NONBONDED TABLE R-SQUARED SPACING: 0.0625
Info: NONBONDED TABLE SIZE: 705 POINTS
TCL: Running for 1500000 steps
ETITLE: TS BOND ANGLE DIHED IMPRP ELECT VDW BOUNDARY MISC KINETIC TOTAL TEMP POTENTIAL TOTALAVG TEMPAVG PRESSURE GPRESSURE VOLUME PRESSAVG GPRESSAVG
ENERGY: 0 0.9883 2.6958 1.0337 0.0000 -10529.0060 1366.4172 0.0000 0.0000 1698.3690 -7459.5020 293.3945 -9157.8711 -7459.5020 293.3945 -488.9512 -410.7829 29874.2181 -488.9512 -410.7829
ENERGY: 300000 0.2455 2.4745 1.0523 0.0000 -10526.3281 1442.0394 0.0000 0.0000 1806.4154 -7274.1010 312.0596 -9080.5164 -7356.8086 300.9503 177.5509 258.4300 30001.8471 -192.2048 -124.0602
ENERGY: 600000 0.0507 3.6003 2.3365 0.0000 -10594.3494 1438.2346 0.0000 0.0000 1652.0022 -7498.1250 285.3846 -9150.1273 -7404.4364 296.5513 11.7970 116.0924 29776.8068 -102.4702 -31.0422
ENERGY: 900000 1.6379 5.5340 3.9970 0.0000 -10405.2162 1317.8047 0.0000 0.0000 1730.0601 -7346.1825 298.8692 -9076.2426 -7392.1376 299.4018 -495.7182 -459.7073 29520.6060 -211.7035 -139.1759
ENERGY: 1200000 2.2158 3.4134 1.7323 0.0000 -10480.5645 1355.8209 0.0000 0.0000 1860.1779 -7257.2041 321.3471 -9117.3820 -7382.8564 301.1727 -343.8006 -358.9269 30026.6199 -209.4441 -142.5785
ENERGY: 1500000 0.5612 2.7037 0.8477 0.0000 -10570.2495 1381.8590 0.0000 0.0000 1756.5313 -7427.7467 303.4421 -9184.2780 -7380.5513 301.0118 -502.5676 -461.6406 30039.1701 -244.9520 -181.5071
TCL: Running FEP window   7: Lambda1 0.3    Lambda2 0.35   [dLambda 0.04999999999999999]
TCL: Setting parameter firsttimestep to 0
TCL: Setting parameter alchLambda to 0.3
Info: NONBONDED TABLE R-SQUARED SPACING: 0.0625
Info: NONBONDED TABLE SIZE: 705 POINTS
TCL: Setting parameter alchLambda2 to 0.35
Info: NONBONDED TABLE R-SQUARED SPACING: 0.0625
Info: NONBONDED TABLE SIZE: 705 POINTS
TCL: Running for 1500000 steps
ETITLE: TS BOND ANGLE DIHED IMPRP ELECT VDW BOUNDARY MISC KINETIC TOTAL TEMP POTENTIAL TOTALAVG TEMPAVG PRESSURE GPRESSURE VOLUME PRESSAVG GPRESSAVG
ENERGY: 0 0.5612 2.7037 0.8477 0.0000 -10570.2486 1382.4059 0.0000 0.0000 1755.6712 -7428.0588 303.2935 -9183.7301 -7428.0588 303.2935 -508.8200 -454.5794 30039.1701 -508.8200 -454.5794
ENERGY: 300000 1.2897 6.3095 2.1308 0.0000 -10487.5501 1427.5461 0.0000 0.0000 1780.0644 -7270.2096 307.5074 -9050.2740 -7384.8476 301.6181 127.5281 109.5494 30320.6373 194.6528 241.6592
ENERGY: 600000 0.3298 7.9716 3.0790 0.0000 -10386.8355 1234.0062 0.0000 0.0000 1732.3156 -7409.1333 299.2588 -9141.4490 -7412.1565 299.0977 -1700.7716 -1660.8003 30489.9147 -176.1153 -116.9948
ENERGY: 900000 2.5130 5.8050 1.7341 0.0000 -10532.7141 1355.0841 0.0000 0.0000 1716.7942 -7450.7837 296.5775 -9167.5779 -7413.6008 298.8269 -627.1256 -512.2222 29540.6428 -280.7616 -219.7222
ENERGY: 1200000 1.5984 5.7453 1.8774 0.0000 -10537.4772 1370.5028 0.0000 0.0000 1697.3563 -7460.3969 293.2195 -9157.7532 -7427.7387 298.3469 -605.4066 -594.2466 30188.5927 -165.4151 -108.2268
ENERGY: 1500000 0.8111 4.1576 1.9591 0.0000 -10574.8577 1494.0058 0.0000 0.0000 1725.5261 -7348.3981 298.0859 -9073.9242 -7414.5052 298.6095 608.6444 712.5141 30045.1199 -65.7364 -6.0550
TCL: Running FEP window   8: Lambda1 0.35   Lambda2 0.39999999999999997 [dLambda 0.04999999999999999]
TCL: Setting parameter firsttimestep to 0
TCL: Setting parameter alchLambda to 0.35
Info: NONBONDED TABLE R-SQUARED SPACING: 0.0625
Info: NONBONDED TABLE SIZE: 705 POINTS
TCL: Setting parameter alchLambda2 to 0.39999999999999997
Info: NONBONDED TABLE R-SQUARED SPACING: 0.0625
Info: NONBONDED TABLE SIZE: 705 POINTS
TCL: Running for 1500000 steps
ETITLE: TS BOND ANGLE DIHED IMPRP ELECT VDW BOUNDARY MISC KINETIC TOTAL TEMP POTENTIAL TOTALAVG TEMPAVG PRESSURE GPRESSURE VOLUME PRESSAVG GPRESSAVG
ENERGY: 0 0.8111 4.1576 1.9591 0.0000 -10574.8578 1495.1905 0.0000 0.0000 1724.6544 -7348.0851 297.9353 -9072.7395 -7348.0851 297.9353 637.4201 723.4570 30045.1199 637.4201 723.4570
ENERGY: 300000 0.6447 2.8522 2.1001 0.0000 -10494.0732 1357.0816 0.0000 0.0000 1772.7944 -7358.6002 306.2515 -9131.3946 -7360.9404 303.6590 -492.2738 -434.3063 29791.4289 105.4004 180.8163
ENERGY: 600000 1.6114 2.2022 1.0808 0.0000 -10558.3582 1415.6809 0.0000 0.0000 1791.3459 -7346.4370 309.4563 -9137.7829 -7367.1868 303.5382 -90.9733 2.3813 29914.7646 143.5346 207.8737
ENERGY: 900000 1.5390 5.5674 1.2702 0.0000 -10617.2252 1482.0435 0.0000 0.0000 1776.9759 -7349.8291 306.9739 -9126.8050 -7356.7179 303.3559 325.7840 381.2323 30018.5594 95.9106 156.2459
ENERGY: 1200000 1.1722 3.3736 2.4921 0.0000 -10543.1523 1427.6104 0.0000 0.0000 1730.2767 -7378.2274 298.9066 -9108.5041 -7360.9207 302.8816 -75.9259 7.2759 30184.1886 29.3228 91.0927
ENERGY: 1500000 0.6456 4.8598 1.8825 0.0000 -10507.2443 1360.5527 0.0000 0.0000 1715.0023 -7424.3013 296.2679 -9139.3036 -7371.4095 301.9940 -419.2334 -325.7708 29632.9840 -3.0839 63.2725
TCL: Running FEP window   9: Lambda1 0.39999999999999997 Lambda2 0.44999999999999996 [dLambda 0.04999999999999999]
TCL: Setting parameter firsttimestep to 0
TCL: Setting parameter alchLambda to 0.39999999999999997
Info: NONBONDED TABLE R-SQUARED SPACING: 0.0625
Info: NONBONDED TABLE SIZE: 705 POINTS
TCL: Setting parameter alchLambda2 to 0.44999999999999996
Info: NONBONDED TABLE R-SQUARED SPACING: 0.0625
Info: NONBONDED TABLE SIZE: 705 POINTS
TCL: Running for 1500000 steps
ETITLE: TS BOND ANGLE DIHED IMPRP ELECT VDW BOUNDARY MISC KINETIC TOTAL TEMP POTENTIAL TOTALAVG TEMPAVG PRESSURE GPRESSURE VOLUME PRESSAVG GPRESSAVG
ENERGY: 0 0.6455 4.8598 1.8825 0.0000 -10507.2437 1361.1793 0.0000 0.0000 1714.1017 -7424.5749 296.1123 -9138.6765 -7424.5749 296.1123 -399.1436 -314.4064 29632.9840 -399.1436 -314.4064
ENERGY: 300000 0.7406 1.3571 2.6983 0.0000 -10509.3579 1410.5068 0.0000 0.0000 1731.9742 -7362.0809 299.1998 -9094.0552 -7401.3991 300.0480 116.6583 194.4614 29921.8691 -145.1486 -68.2530
ENERGY: 600000 0.5458 4.3075 1.7773 0.0000 -10641.3706 1489.2101 0.0000 0.0000 1729.2824 -7416.2474 298.7348 -9145.5298 -7387.8599 301.5786 566.3448 578.3417 29869.5322 -109.4816 -49.7354
ENERGY: 900000 0.9825 4.5795 1.0675 0.0000 -10553.4754 1434.4653 0.0000 0.0000 1751.4511 -7360.9295 302.5645 -9112.3806 -7383.1706 301.9999 136.4940 189.2465 29966.3116 -62.5422 -4.1113
ENERGY: 1200000 1.8154 6.0954 2.9893 0.0000 -10456.5678 1313.1715 0.0000 0.0000 1744.9713 -7387.5250 301.4451 -9132.4963 -7387.2390 302.1875 -1362.1224 -1269.9345 30605.6750 -125.6031 -64.3902
ENERGY: 1500000 0.2951 3.4460 2.0640 0.0000 -10349.4188 1331.5349 0.0000 0.0000 1706.2500 -7305.8287 294.7559 -9012.0788 -7390.0457 300.8129 -532.7291 -444.8200 30132.8739 -160.2371 -94.3052
TCL: Running FEP window  10: Lambda1 0.44999999999999996 Lambda2 0.49999999999999994 [dLambda 0.04999999999999999]
TCL: Setting parameter firsttimestep to 0
TCL: Setting parameter alchLambda to 0.44999999999999996
Info: NONBONDED TABLE R-SQUARED SPACING: 0.0625
Info: NONBONDED TABLE SIZE: 705 POINTS
TCL: Setting parameter alchLambda2 to 0.49999999999999994
Info: NONBONDED TABLE R-SQUARED SPACING: 0.0625
Info: NONBONDED TABLE SIZE: 705 POINTS
TCL: Running for 1500000 steps
ETITLE: TS BOND ANGLE DIHED IMPRP ELECT VDW BOUNDARY MISC KINETIC TOTAL TEMP POTENTIAL TOTALAVG TEMPAVG PRESSURE GPRESSURE VOLUME PRESSAVG GPRESSAVG
ENERGY: 0 0.2951 3.4460 2.0640 0.0000 -10349.4176 1332.3505 0.0000 0.0000 1705.3698 -7305.8921 294.6039 -9011.2619 -7305.8921 294.6039 -520.4470 -433.3991 30132.8739 -520.4470 -433.3991
ENERGY: 300000 1.1251 2.2902 1.9337 0.0000 -10500.9139 1400.7313 0.0000 0.0000 1704.5421 -7390.2914 294.4609 -9094.8335 -7377.9169 295.8750 191.2571 245.7909 29516.6777 -370.6603 -287.3876
ENERGY: 600000 1.2367 2.5465 1.7218 0.0000 -10689.4707 1500.2748 0.0000 0.0000 1705.2422 -7478.4487 294.5818 -9183.6909 -7407.2960 295.9663 632.3349 645.1180 29430.0452 -142.1871 -66.8942
ENERGY: 900000 0.5687 2.4251 2.4195 0.0000 -10431.9128 1336.4535 0.0000 0.0000 1764.6476 -7325.3984 304.8442 -9090.0460 -7396.9285 298.1220 -442.7311 -470.6431 30244.5838 -158.7430 -83.4916
ENERGY: 1200000 2.3956 3.6651 1.5840 0.0000 -10613.3789 1494.7758 0.0000 0.0000 1780.6753 -7330.2831 307.6130 -9110.9583 -7381.5310 298.7840 576.4706 639.6665 30212.1176 -147.4652 -80.2101
ENERGY: 1500000 0.4713 1.2219 1.1155 0.0000 -10736.1452 1513.5066 0.0000 0.0000 1758.2190 -7461.6109 303.7336 -9219.8299 -7397.2128 298.8942 735.8124 806.8691 29413.2307 -48.3909 16.8670
TCL: Running FEP window  11: Lambda1 0.49999999999999994 Lambda2 0.5499999999999999 [dLambda 0.04999999999999999]
TCL: Setting parameter firsttimestep to 0
TCL: Setting parameter alchLambda to 0.49999999999999994
Info: NONBONDED TABLE R-SQUARED SPACING: 0.0625
Info: NONBONDED TABLE SIZE: 705 POINTS
TCL: Setting parameter alchLambda2 to 0.5499999999999999
Info: NONBONDED TABLE R-SQUARED SPACING: 0.0625
Info: NONBONDED TABLE SIZE: 705 POINTS
TCL: Running for 1500000 steps
ETITLE: TS BOND ANGLE DIHED IMPRP ELECT VDW BOUNDARY MISC KINETIC TOTAL TEMP POTENTIAL TOTALAVG TEMPAVG PRESSURE GPRESSURE VOLUME PRESSAVG GPRESSAVG
ENERGY: 0 0.4713 1.2219 1.1155 0.0000 -10736.1456 1514.0224 0.0000 0.0000 1757.3138 -7462.0007 303.5773 -9219.3145 -7462.0007 303.5773 723.3563 814.4352 29413.2307 723.3563 814.4352
ENERGY: 300000 0.4170 4.6813 3.0956 0.0000 -10527.4330 1332.0628 0.0000 0.0000 1669.3886 -7517.7877 288.3881 -9187.1763 -7428.6372 301.2023 -1033.6644 -949.5566 30070.5461 -114.1904 -44.2840
ENERGY: 600000 0.0362 4.3645 2.1015 0.0000 -10493.3156 1342.0896 0.0000 0.0000 1715.8331 -7428.8906 296.4114 -9144.7237 -7415.3196 299.8914 -754.5487 -700.3447 30294.9478 -286.3613 -218.3904
ENERGY: 900000 1.8320 3.9104 2.1316 0.0000 -10577.5691 1471.1550 0.0000 0.0000 1794.4013 -7304.1387 309.9841 -9098.5400 -7411.3530 299.7328 252.2984 372.9466 30239.7839 -163.5916 -81.9819
ENERGY: 1200000 1.6946 3.8915 1.6083 0.0000 -10572.2221 1431.0605 0.0000 0.0000 1684.4067 -7449.5606 290.9825 -9133.9673 -7411.3325 298.3198 -255.3252 -207.4553 30373.1732 -209.9472 -142.9075
ENERGY: 1500000 1.0008 4.1597 2.0182 0.0000 -10362.7080 1304.0269 0.0000 0.0000 1799.6303 -7251.8721 310.8875 -9051.5024 -7394.8304 299.5814 -988.9419 -949.7847 30709.6216 -280.1222 -214.1054
TCL: Running FEP window  12: Lambda1 0.5499999999999999 Lambda2 0.6    [dLambda 0.050000000000000044]
TCL: Setting parameter firsttimestep to 0
TCL: Setting parameter alchLambda to 0.5499999999999999
Info: NONBONDED TABLE R-SQUARED SPACING: 0.0625
Info: NONBONDED TABLE SIZE: 705 POINTS
TCL: Setting parameter alchLambda2 to 0.6
Info: NONBONDED TABLE R-SQUARED SPACING: 0.0625
Info: NONBONDED TABLE SIZE: 705 POINTS
TCL: Running for 1500000 steps
ETITLE: TS BOND ANGLE DIHED IMPRP ELECT VDW BOUNDARY MISC KINETIC TOTAL TEMP POTENTIAL TOTALAVG TEMPAVG PRESSURE GPRESSURE VOLUME PRESSAVG GPRESSAVG
ENERGY: 0 1.0008 4.1597 2.0182 0.0000 -10363.1286 1303.9304 0.0000 0.0000 1798.7521 -7253.2673 310.7358 -9052.0195 -7253.2673 310.7358 -1021.6714 -942.8975 30709.6216 -1021.6714 -942.8975
ENERGY: 300000 0.2756 4.3848 1.7963 0.0000 -10483.5329 1363.8241 0.0000 0.0000 1714.5406 -7398.7114 296.1882 -9113.2520 -7355.3971 302.3637 -358.5498 -286.3004 29857.2109 -152.7329 -79.0046
ENERGY: 600000 0.7339 3.6979 1.7951 0.0000 -10437.1991 1371.7332 0.0000 0.0000 1703.5150 -7355.7240 294.2835 -9059.2390 -7372.2016 301.3859 -337.0493 -204.0603 30196.7068 -88.8576 -4.4541
ENERGY: 900000 0.4892 2.9614 2.1612 0.0000 -10584.2253 1401.7832 0.0000 0.0000 1723.0657 -7453.7648 297.6609 -9176.8304 -7386.5261 299.3373 -472.5785 -413.5250 30130.2102 -163.1676 -85.1618
ENERGY: 1200000 1.8292 3.4480 1.6074 0.0000 -10611.1763 1373.3675 0.0000 0.0000 1712.4266 -7518.4975 295.8230 -9230.9241 -7396.4272 299.4786 -607.0724 -554.5699 29619.6163 -253.7420 -178.7840
ENERGY: 1500000 1.0851 3.5397 2.2865 0.0000 -10647.7630 1436.8787 0.0000 0.0000 1681.3868 -7522.5862 290.4608 -9203.9730 -7397.7468 298.8994 -141.7604 -71.5522 29814.6481 -272.1667 -202.0000
TCL: Running FEP window  13: Lambda1 0.6    Lambda2 0.65   [dLambda 0.050000000000000044]
TCL: Setting parameter firsttimestep to 0
TCL: Setting parameter alchLambda to 0.6
Info: NONBONDED TABLE R-SQUARED SPACING: 0.0625
Info: NONBONDED TABLE SIZE: 705 POINTS
TCL: Setting parameter alchLambda2 to 0.65
Info: NONBONDED TABLE R-SQUARED SPACING: 0.0625
Info: NONBONDED TABLE SIZE: 705 POINTS
TCL: Running for 1500000 steps
ETITLE: TS BOND ANGLE DIHED IMPRP ELECT VDW BOUNDARY MISC KINETIC TOTAL TEMP POTENTIAL TOTALAVG TEMPAVG PRESSURE GPRESSURE VOLUME PRESSAVG GPRESSAVG
ENERGY: 0 1.0851 3.5397 2.2865 0.0000 -10647.9680 1436.5565 0.0000 0.0000 1680.5273 -7523.9729 290.3123 -9204.5002 -7523.9729 290.3123 -135.4165 -72.3599 29814.6481 -135.4165 -72.3599
ENERGY: 300000 2.5625 1.6150 3.1316 0.0000 -10603.9552 1411.6134 0.0000 0.0000 1758.8644 -7426.1683 303.8451 -9185.0327 -7420.4464 300.2881 -115.1300 34.0316 29515.5818 -16.3417 49.7584
ENERGY: 600000 1.1336 2.7090 0.9774 0.0000 -10726.5392 1519.5136 0.0000 0.0000 1793.1222 -7409.0834 309.7632 -9202.2056 -7423.3444 301.7151 598.1315 710.7567 29661.1647 36.5010 116.2668
ENERGY: 900000 0.2643 4.9907 2.5447 0.0000 -10615.5301 1447.3816 0.0000 0.0000 1710.4149 -7449.9339 295.4754 -9160.3488 -7424.5255 300.2906 55.1327 62.0821 29989.4003 -104.7889 -40.3183
ENERGY: 1200000 0.2394 1.9497 1.5881 0.0000 -10518.6268 1401.5874 0.0000 0.0000 1798.9335 -7314.3286 310.7671 -9113.2622 -7419.2601 300.7575 -169.5816 -62.6474 30192.4592 -8.6209 61.6813
ENERGY: 1500000 1.5881 6.9146 2.7654 0.0000 -10582.8162 1462.0593 0.0000 0.0000 1789.8365 -7319.6524 309.1956 -9109.4888 -7416.0102 300.9756 558.0106 597.6604 29542.7517 45.3722 112.4945
TCL: Running FEP window  14: Lambda1 0.65   Lambda2 0.7000000000000001 [dLambda 0.050000000000000044]
TCL: Setting parameter firsttimestep to 0
TCL: Setting parameter alchLambda to 0.65
Info: NONBONDED TABLE R-SQUARED SPACING: 0.0625
Info: NONBONDED TABLE SIZE: 705 POINTS
TCL: Setting parameter alchLambda2 to 0.7000000000000001
Info: NONBONDED TABLE R-SQUARED SPACING: 0.0625
Info: NONBONDED TABLE SIZE: 705 POINTS
TCL: Running for 1500000 steps
ETITLE: TS BOND ANGLE DIHED IMPRP ELECT VDW BOUNDARY MISC KINETIC TOTAL TEMP POTENTIAL TOTALAVG TEMPAVG PRESSURE GPRESSURE VOLUME PRESSAVG GPRESSAVG
ENERGY: 0 1.5881 6.9146 2.7654 0.0000 -10583.3515 1462.6398 0.0000 0.0000 1788.9553 -7320.4883 309.0433 -9109.4436 -7320.4883 309.0433 526.3339 606.9523 29542.7517 526.3339 606.9523
ENERGY: 300000 2.9465 4.7718 2.1608 0.0000 -10592.3176 1489.3726 0.0000 0.0000 1735.9624 -7357.1035 299.8888 -9093.0658 -7364.6262 304.0798 669.8765 730.3178 30028.1414 404.3429 460.3417
ENERGY: 600000 1.3864 6.5925 2.7216 0.0000 -10494.6550 1390.5809 0.0000 0.0000 1744.7668 -7348.6068 301.4098 -9093.3736 -7361.4124 303.3278 -188.7529 -92.3192 30069.3154 167.9969 224.9841
ENERGY: 900000 0.0287 4.2916 0.9667 0.0000 -10518.1233 1412.2676 0.0000 0.0000 1783.2376 -7317.3311 308.0556 -9100.5687 -7365.6899 303.5796 123.6308 152.9279 29818.5583 273.3570 338.3692
ENERGY: 1200000 1.6092 2.8845 2.7072 0.0000 -10510.5444 1383.3946 0.0000 0.0000 1739.0821 -7380.8669 300.4277 -9119.9490 -7377.3101 301.9544 -155.9013 -150.7206 29703.2632 185.4170 241.2198
ENERGY: 1500000 0.0030 7.1883 1.8133 0.0000 -10520.7229 1363.0890 0.0000 0.0000 1704.5470 -7444.0823 294.4617 -9148.6293 -7376.5786 301.1298 -537.8980 -504.8088 30033.7461 144.8312 194.2774
TCL: Running FEP window  15: Lambda1 0.7000000000000001 Lambda2 0.7500000000000001 [dLambda 0.050000000000000044]
TCL: Setting parameter firsttimestep to 0
TCL: Setting parameter alchLambda to 0.7000000000000001
Info: NONBONDED TABLE R-SQUARED SPACING: 0.0625
Info: NONBONDED TABLE SIZE: 705 POINTS
TCL: Setting parameter alchLambda2 to 0.7500000000000001
Info: NONBONDED TABLE R-SQUARED SPACING: 0.0625
Info: NONBONDED TABLE SIZE: 705 POINTS
TCL: Running for 1500000 steps
ETITLE: TS BOND ANGLE DIHED IMPRP ELECT VDW BOUNDARY MISC KINETIC TOTAL TEMP POTENTIAL TOTALAVG TEMPAVG PRESSURE GPRESSURE VOLUME PRESSAVG GPRESSAVG
ENERGY: 0 0.0030 7.1883 1.8133 0.0000 -10521.5444 1363.5151 0.0000 0.0000 1703.6715 -7445.3532 294.3105 -9149.0247 -7445.3532 294.3105 -568.1158 -497.0558 30033.7461 -568.1158 -497.0558
ENERGY: 300000 0.7018 6.2535 2.3902 0.0000 -10570.0975 1392.5122 0.0000 0.0000 1753.2195 -7415.0203 302.8700 -9168.2398 -7388.0142 300.5326 -252.9061 -187.1756 29874.3254 -262.3621 -174.2521
ENERGY: 600000 2.9214 3.8546 2.8159 0.0000 -10549.9435 1467.4778 0.0000 0.0000 1786.6066 -7286.2673 308.6376 -9072.8739 -7376.8610 302.4762 559.6313 598.1650 29836.3321 8.1004 71.6424
ENERGY: 900000 0.6676 2.2477 1.8506 0.0000 -10533.2146 1396.9854 0.0000 0.0000 1738.3120 -7393.1512 300.2947 -9131.4633 -7392.8670 302.1760 -376.9590 -314.4996 30325.4587 -45.5995 21.9368
ENERGY: 1200000 2.1026 5.2049 2.9740 0.0000 -10469.3091 1397.3591 0.0000 0.0000 1749.0898 -7312.5787 302.1565 -9061.6685 -7382.5956 302.1204 -165.5396 -50.5645 30339.5299 -101.7110 -33.1563
ENERGY: 1500000 2.2651 4.2563 1.2318 0.0000 -10528.6914 1381.5559 0.0000 0.0000 1712.0408 -7427.3415 295.7563 -9139.3823 -7385.5484 301.4157 -486.7456 -367.2459 30051.5071 -167.4760 -91.5482
TCL: Running FEP window  16: Lambda1 0.7500000000000001 Lambda2 0.8000000000000002 [dLambda 0.050000000000000044]
TCL: Setting parameter firsttimestep to 0
TCL: Setting parameter alchLambda to 0.7500000000000001
Info: NONBONDED TABLE R-SQUARED SPACING: 0.0625
Info: NONBONDED TABLE SIZE: 705 POINTS
TCL: Setting parameter alchLambda2 to 0.8000000000000002
Info: NONBONDED TABLE R-SQUARED SPACING: 0.0625
Info: NONBONDED TABLE SIZE: 705 POINTS
TCL: Running for 1500000 steps
ETITLE: TS BOND ANGLE DIHED IMPRP ELECT VDW BOUNDARY MISC KINETIC TOTAL TEMP POTENTIAL TOTALAVG TEMPAVG PRESSURE GPRESSURE VOLUME PRESSAVG GPRESSAVG
ENERGY: 0 2.2651 4.2563 1.2318 0.0000 -10529.5523 1382.4309 0.0000 0.0000 1711.1294 -7428.2388 295.5989 -9139.3682 -7428.2388 295.5989 -436.3801 -353.9218 30051.5071 -436.3801 -353.9218
ENERGY: 300000 1.7168 3.5578 1.9004 0.0000 -10539.6320 1426.4260 0.0000 0.0000 1752.8006 -7353.2304 302.7976 -9106.0310 -7375.1649 299.4427 348.2848 379.9757 29892.5210 -60.5881 -3.8487
ENERGY: 600000 1.9337 4.5409 1.1808 0.0000 -10670.2309 1450.6550 0.0000 0.0000 1767.3342 -7444.5863 305.3083 -9211.9205 -7361.5238 303.8096 183.6218 254.6307 29417.8179 -30.7560 12.5969
ENERGY: 900000 0.3811 4.2234 4.4212 0.0000 -10591.9238 1439.9796 0.0000 0.0000 1734.3834 -7408.5351 299.6160 -9142.9186 -7368.0612 301.6565 65.8134 193.1004 29673.8919 -13.7692 42.1020
ENERGY: 1200000 1.0947 3.5054 1.9536 0.0000 -10654.9757 1583.1128 0.0000 0.0000 1783.9411 -7281.3680 308.1771 -9065.3091 -7376.6847 301.4255 1467.3538 1478.6212 30057.1491 75.5015 128.4708
ENERGY: 1500000 0.4979 5.7878 2.0208 0.0000 -10524.9657 1418.7894 0.0000 0.0000 1740.3425 -7357.5272 300.6454 -9097.8697 -7376.0874 302.1799 -53.5972 15.9201 30345.0386 30.0485 86.1913
TCL: Running FEP window  17: Lambda1 0.8000000000000002 Lambda2 0.8500000000000002 [dLambda 0.050000000000000044]
TCL: Setting parameter firsttimestep to 0
TCL: Setting parameter alchLambda to 0.8000000000000002
Info: NONBONDED TABLE R-SQUARED SPACING: 0.0625
Info: NONBONDED TABLE SIZE: 705 POINTS
TCL: Setting parameter alchLambda2 to 0.8500000000000002
Info: NONBONDED TABLE R-SQUARED SPACING: 0.0625
Info: NONBONDED TABLE SIZE: 705 POINTS
TCL: Running for 1500000 steps
ETITLE: TS BOND ANGLE DIHED IMPRP ELECT VDW BOUNDARY MISC KINETIC TOTAL TEMP POTENTIAL TOTALAVG TEMPAVG PRESSURE GPRESSURE VOLUME PRESSAVG GPRESSAVG
ENERGY: 0 0.4979 5.7878 2.0208 0.0000 -10526.0553 1419.0075 0.0000 0.0000 1739.4767 -7359.2645 300.4959 -9098.7412 -7359.2645 300.4959 -40.4652 24.8626 30345.0386 -40.4652 24.8626
ENERGY: 300000 1.2488 4.5771 1.4953 0.0000 -10510.5417 1401.8699 0.0000 0.0000 1775.9233 -7325.4273 306.7920 -9101.3506 -7376.3333 302.5752 -70.0621 -27.2489 30012.7087 7.7858 64.9161
ENERGY: 600000 1.0132 3.0496 1.8664 0.0000 -10476.9680 1381.3168 0.0000 0.0000 1716.8331 -7372.8889 296.5842 -9089.7221 -7381.4353 303.4579 -276.7633 -210.1369 30204.3295 -81.4974 -19.7113
ENERGY: 900000 2.0704 5.0040 0.8357 0.0000 -10352.3211 1285.3542 0.0000 0.0000 1691.9821 -7367.0748 292.2912 -9059.0569 -7387.7334 301.4793 -890.4916 -858.1251 30056.2228 -21.3393 36.0934
ENERGY: 1200000 1.3005 3.3428 1.7683 0.0000 -10393.9123 1352.5223 0.0000 0.0000 1712.8080 -7322.1704 295.8888 -9034.9784 -7379.9126 301.5274 -123.7391 -100.3137 30011.9590 -53.1432 4.0418
ENERGY: 1500000 1.1732 2.7612 1.8562 0.0000 -10511.4050 1343.3867 0.0000 0.0000 1754.4790 -7407.7487 303.0875 -9162.2277 -7377.2648 302.0710 -519.7725 -421.8672 29684.4994 22.7032 81.7399
TCL: Running FEP window  18: Lambda1 0.8500000000000002 Lambda2 0.9000000000000002 [dLambda 0.050000000000000044]
TCL: Setting parameter firsttimestep to 0
TCL: Setting parameter alchLambda to 0.8500000000000002
Info: NONBONDED TABLE R-SQUARED SPACING: 0.0625
Info: NONBONDED TABLE SIZE: 705 POINTS
TCL: Setting parameter alchLambda2 to 0.9000000000000002
Info: NONBONDED TABLE R-SQUARED SPACING: 0.0625
Info: NONBONDED TABLE SIZE: 705 POINTS
TCL: Running for 1500000 steps
ETITLE: TS BOND ANGLE DIHED IMPRP ELECT VDW BOUNDARY MISC KINETIC TOTAL TEMP POTENTIAL TOTALAVG TEMPAVG PRESSURE GPRESSURE VOLUME PRESSAVG GPRESSAVG
ENERGY: 0 1.1732 2.7612 1.8562 0.0000 -10512.5665 1343.5516 0.0000 0.0000 1753.5948 -7409.6295 302.9348 -9163.2243 -7409.6295 302.9348 -506.9516 -416.7765 29684.4994 -506.9516 -416.7765
ENERGY: 300000 1.2360 1.5937 1.6244 0.0000 -10551.4056 1365.5686 0.0000 0.0000 1777.0970 -7404.2861 306.9948 -9181.3830 -7392.2953 306.7145 -455.1122 -449.1683 29862.8746 -500.3053 -439.2117
ENERGY: 600000 1.8975 3.5129 2.4214 0.0000 -10339.5430 1259.3927 0.0000 0.0000 1788.1617 -7284.1568 308.9063 -9072.3185 -7382.4100 306.0773 -1049.0088 -999.1857 30275.6928 -360.9366 -306.2062
ENERGY: 900000 0.1963 5.3862 1.6912 0.0000 -10518.9764 1389.3172 0.0000 0.0000 1705.1116 -7417.2740 294.5593 -9122.3856 -7399.4316 303.0407 -288.5165 -246.2922 30091.1221 -225.6480 -171.5649
ENERGY: 1200000 0.1769 1.4992 1.4084 0.0000 -10462.0837 1353.1079 0.0000 0.0000 1713.7838 -7392.1074 296.0574 -9105.8912 -7395.8810 302.5347 -654.4922 -631.4194 30651.7393 -234.7114 -180.3773
ENERGY: 1500000 0.1348 2.1357 1.2949 0.0000 -10631.3149 1450.1428 0.0000 0.0000 1812.2572 -7365.3494 313.0688 -9177.6066 -7392.9621 302.6166 133.8492 161.2186 30045.2434 -171.3989 -110.1590
TCL: Running FEP window  19: Lambda1 0.9000000000000002 Lambda2 0.9500000000000003 [dLambda 0.050000000000000044]
TCL: Setting parameter firsttimestep to 0
TCL: Setting parameter alchLambda to 0.9000000000000002
Info: NONBONDED TABLE R-SQUARED SPACING: 0.0625
Info: NONBONDED TABLE SIZE: 705 POINTS
TCL: Setting parameter alchLambda2 to 0.9500000000000003
Info: NONBONDED TABLE R-SQUARED SPACING: 0.0625
Info: NONBONDED TABLE SIZE: 705 POINTS
TCL: Running for 1500000 steps
ETITLE: TS BOND ANGLE DIHED IMPRP ELECT VDW BOUNDARY MISC KINETIC TOTAL TEMP POTENTIAL TOTALAVG TEMPAVG PRESSURE GPRESSURE VOLUME PRESSAVG GPRESSAVG
ENERGY: 0 0.1348 2.1358 1.2949 0.0000 -10632.5986 1451.7793 0.0000 0.0000 1811.3951 -7365.8587 312.9198 -9177.2538 -7365.8587 312.9198 94.9560 183.4307 30045.2434 94.9560 183.4307
ENERGY: 300000 2.6806 3.2858 1.8203 0.0000 -10665.6021 1489.9959 0.0000 0.0000 1766.0525 -7401.7670 305.0869 -9167.8195 -7388.6067 305.8522 602.4576 620.8285 29838.9254 -28.1300 24.3699
ENERGY: 600000 0.0884 2.7586 1.9531 0.0000 -10797.2502 1538.0593 0.0000 0.0000 1728.9579 -7525.4329 298.6788 -9254.3909 -7418.0287 303.7408 644.2232 706.4939 29528.2084 150.6974 201.9651
ENERGY: 900000 0.1930 4.7207 1.9149 0.0000 -10676.2682 1464.3909 0.0000 0.0000 1758.8150 -7446.2337 303.8366 -9205.0486 -7416.2742 302.8456 434.2781 454.6909 29392.9694 139.7113 186.6268
ENERGY: 1200000 1.3560 5.7530 1.0010 0.0000 -10503.4512 1382.3793 0.0000 0.0000 1717.7431 -7395.2189 296.7414 -9112.9619 -7424.0850 301.7073 -437.1034 -362.6760 30478.4078 84.1850 142.0048
ENERGY: 1500000 2.9124 8.1379 1.9210 0.0000 -10768.9234 1501.4411 0.0000 0.0000 1807.1434 -7447.3677 312.1853 -9254.5111 -7425.7386 301.6154 728.1309 781.2239 29381.5617 121.4631 174.1361
TCL: Running FEP window  20: Lambda1 0.9500000000000003 Lambda2 1.0    [dLambda 0.04999999999999971]
TCL: Setting parameter firsttimestep to 0
TCL: Setting parameter alchLambda to 0.9500000000000003
Info: NONBONDED TABLE R-SQUARED SPACING: 0.0625
Info: NONBONDED TABLE SIZE: 705 POINTS
TCL: Setting parameter alchLambda2 to 1.0
Info: NONBONDED TABLE R-SQUARED SPACING: 0.0625
Info: NONBONDED TABLE SIZE: 705 POINTS
TCL: Running for 1500000 steps
ETITLE: TS BOND ANGLE DIHED IMPRP ELECT VDW BOUNDARY MISC KINETIC TOTAL TEMP POTENTIAL TOTALAVG TEMPAVG PRESSURE GPRESSURE VOLUME PRESSAVG GPRESSAVG
ENERGY: 0 2.9124 8.1379 1.9210 0.0000 -10770.1829 1502.8298 0.0000 0.0000 1806.2793 -7448.1026 312.0361 -9254.3819 -7448.1026 312.0361 726.0432 802.5075 29381.5617 726.0432 802.5075
ENERGY: 300000 0.4818 6.4299 2.6919 0.0000 -10586.7063 1499.2903 0.0000 0.0000 1719.1593 -7358.6531 296.9860 -9077.8124 -7388.6646 303.3573 749.7045 796.3761 30105.9896 274.8317 333.8026
ENERGY: 600000 1.3709 4.6708 3.3517 0.0000 -10557.0960 1372.9190 0.0000 0.0000 1764.6363 -7410.1473 304.8422 -9174.7836 -7408.8340 302.8949 -284.8287 -252.2875 29803.2782 97.2091 153.8646
ENERGY: 900000 1.7729 2.8826 2.0235 0.0000 -10718.8561 1514.4017 0.0000 0.0000 1758.3943 -7439.3809 303.7639 -9197.7753 -7417.0926 303.4741 747.3367 805.8137 29431.9723 105.9448 163.2357
ENERGY: 1200000 0.7860 3.9705 1.3331 0.0000 -10543.0716 1362.4187 0.0000 0.0000 1719.3413 -7455.2219 297.0175 -9174.5632 -7411.6307 303.0194 -722.9055 -701.6386 30677.6536 9.8354 73.7156
ENERGY: 1500000 0.6586 3.5690 2.8338 0.0000 -10642.5606 1443.9206 0.0000 0.0000 1750.6891 -7440.8897 302.4328 -9191.5788 -7406.1627 302.0242 384.4795 410.1175 29235.5220 -35.2165 21.7741
TCL: Exiting due to exit command.
