Info: SIMULATION PARAMETERS:
Info: TIMESTEP               2
Info: NUMBER OF STEPS        0
Info: STEPS PER CYCLE        10
Info: PERIODIC CELL BASIS 1  31.7791 0 0
Info: PERIODIC CELL BASIS 2  0 30.0977 0
Info: PERIODIC CELL BASIS 3  0 0 31.9503
Info: PERIODIC CELL CENTER   0 0 0
Info: WRAPPING WATERS AROUND PERIODIC BOUNDARIES ON OUTPUT.
Info: WRAPPING ALL CLUSTERS AROUND PERIODIC BOUNDARIES ON OUTPUT.
Info: FIRST LDB TIMESTEP     50
Info: LAST LDB TIMESTEP     -1
Info: HOM BACKGROUND SCALING 1
Info: PME BACKGROUND SCALING 1
Info: MIN ATOMS PER PATCH    40
Info: EMPTY PATCH LOAD       40 ATOMS
Info: VELOCITY FILE          mobley_1424265_equil.vel
Info: CENTER OF MASS MOVING INITIALLY? NO
Info: DIELECTRIC             1
Info: EXCLUDE                SCALED ONE-FOUR
Info: 1-4 ELECTROSTATICS SCALED BY 0.833333
Info: MODIFIED 1-4 VDW PARAMETERS WILL BE USED
Info: DCD FILENAME           mobley_1424265_prod.dcd
Info: DCD FREQUENCY          100000
Info: DCD FIRST STEP         100000
Info: DCD FILE WILL CONTAIN UNIT CELL DATA
Info: XST FILENAME           mobley_1424265_prod.xst
Info: XST FREQUENCY          100000
Info: NO VELOCITY DCD OUTPUT
Info: NO FORCE DCD OUTPUT
Info: OUTPUT FILENAME        mobley_1424265_prod
Info: BINARY OUTPUT FILES WILL BE USED
Info: RESTART FILENAME       mobley_1424265_prod.restart
Info: RESTART FREQUENCY      100000
Info: BINARY RESTART FILES WILL BE USED
Info: CUTOFF                 9
Info: PAIRLIST DISTANCE      11
Info: PAIRLIST SHRINK RATE   0.01
Info: PAIRLIST GROW RATE     0.01
Info: PAIRLIST TRIGGER       0.3
Info: PAIRLISTS PER CYCLE    2
Info: PAIRLISTS ENABLED
Info: MARGIN                 2
Info: HYDROGEN GROUP CUTOFF  2.5
Info: PATCH DIMENSION        15.5
Info: ENERGY OUTPUT STEPS    100000
Info: ENERGY EVALUATION STEPS    100000
Info: OUTPUT ENERGY PRECISION 4
Info: CROSSTERM ENERGY INCLUDED IN DIHEDRAL
Info: TIMING OUTPUT STEPS    1000000
Info: PRESSURE OUTPUT STEPS  100000
Info: ALCHEMICAL FEP ON
Info: FEP CURRENT LAMBDA VALUE     1
Info: FEP COMPARISON LAMBDA VALUE  0.95
Info: FEP INTRA-ALCHEMICAL NON-BONDED INTERACTIONS WILL BE RETAINED
Info: FEP INTRA-ALCHEMICAL BONDED INTERACTIONS WILL BE RETAINED
Info: FEP VDW SHIFTING COEFFICIENT 5
Info: FEP ELEC. ACTIVE FOR ANNIHILATED PARTICLES BETWEEN LAMBDA = 0 AND LAMBDA = 0.5
Info: FEP ELEC. ACTIVE FOR EXNIHILATED PARTICLES BETWEEN LAMBDA = 0.5 AND LAMBDA = 1
Info: FEP VDW ACTIVE FOR ANNIHILATED PARTICLES BETWEEN LAMBDA = 0 AND LAMBDA = 1
Info: FEP VDW ACTIVE FOR EXNIHILATED PARTICLES BETWEEN LAMBDA = 0 AND LAMBDA = 1
Info: FEP BOND ACTIVE FOR ANNIHILATED PARTICLES BETWEEN LAMBDA = 1 AND LAMBDA = 1
Info: FEP BOND ACTIVE FOR EXNIHILATED PARTICLES BETWEEN LAMBDA = 0 AND LAMBDA = 0
Info: LANGEVIN DYNAMICS ACTIVE
Info: LANGEVIN TEMPERATURE   300
Info: LANGEVIN USING BBK INTEGRATOR
Info: LANGEVIN DAMPING COEFFICIENT IS 1 INVERSE PS
Info: LANGEVIN DYNAMICS APPLIED TO HYDROGENS
Info: LANGEVIN PISTON PRESSURE CONTROL ACTIVE
Info:        TARGET PRESSURE IS 1.01325 BAR
Info:     OSCILLATION PERIOD IS 50 FS
Info:             DECAY TIME IS 25 FS
Info:     PISTON TEMPERATURE IS 300 K
Info:       PRESSURE CONTROL IS GROUP-BASED
Info:    INITIAL STRAIN RATE IS -0.000104719 -0.000104719 -0.000104719
Info:       CELL FLUCTUATION IS ISOTROPIC
Info: PARTICLE MESH EWALD (PME) ACTIVE
Info: PME TOLERANCE               1e-06
Info: PME EWALD COEFFICIENT       0.348832
Info: PME INTERPOLATION ORDER     4
Info: PME GRID DIMENSIONS         32 32 32
Info: PME MAXIMUM GRID SPACING    1
Info: PME CALCULATION WILL BE PERFORMED ON GPU
Info: FULL ELECTROSTATIC EVALUATION FREQUENCY      2
Info: USING VERLET I (r-RESPA) MTS SCHEME.
Info: C1 SPLITTING OF LONG RANGE ELECTROSTATICS
Info: PLACING ATOMS IN PATCHES BY HYDROGEN GROUPS
Info: RIGID BONDS TO HYDROGEN : ALL
Info:         ERROR TOLERANCE : 1e-08
Info:          MAX ITERATIONS : 100
Info: RIGID WATER USING SETTLE ALGORITHM
Info: RANDOM NUMBER SEED     1743611251
Info: USE HYDROGEN BONDS?    NO
Info: Using AMBER format force field!
Info: AMBER PARM FILE        mobley_1424265.prmtop
Info: COORDINATE PDB         mobley_1424265.pdb
Info: Exclusions will be read from PARM file!
Info: SCNB (VDW SCALING)     2
Info: USING ARITHMETIC MEAN TO COMBINE L-J SIGMA PARAMETERS
Info: BINARY COORDINATES     mobley_1424265_equil.coor
Info: SUMMARY OF PARAMETERS:
Info: 6 BONDS
Info: 5 ANGLES
Info:   5 HARMONIC
Info:   0 COSINE-BASED
Info: 3 DIHEDRAL
Info: 0 IMPROPER
Info: 0 CROSSTERM
Info: 0 VDW
Info: 21 VDW_PAIRS
Info: 0 NBTHOLE_PAIRS
Info: To read alchdata from file: mobley_1424265.pdb
Info: To read alchflag data from column: 5
Info: STRUCTURE SUMMARY:
Info: 2976 ATOMS
Info: 2976 BONDS
Info: 30 ANGLES
Info: 42 DIHEDRALS
Info: 0 IMPROPERS
Info: 0 CROSSTERMS
Info: 3039 EXCLUSIONS
Info: 2968 RIGID BONDS
Info: ALCH: 0 ATOMS TO DISAPPEAR IN FINAL STATE
Info: ALCH: 18 ATOMS TO APPEAR IN FINAL STATE
Info: 5960 DEGREES OF FREEDOM
Info: 994 HYDROGEN GROUPS
Info: 4 ATOMS IN LARGEST HYDROGEN GROUP
Info: 994 MIGRATION GROUPS
Info: 4 ATOMS IN LARGEST MIGRATION GROUP
Info: TOTAL MASS = 17869.9 amu
Info: TOTAL CHARGE = 3.72529e-08 e
Info: MASS DENSITY = 0.971028 g/cm^3
Info: ATOM DENSITY = 0.0973829 atoms/A^3
Info: ADDED 0 IMPLICIT EXCLUSIONS
Info: NONBONDED TABLE R-SQUARED SPACING: 0.0625
Info: NONBONDED TABLE SIZE: 705 POINTS
Info: REMOVING COM VELOCITY -0.0637094 -0.00377608 0.114711
Info: Use 3D box decompostion in PME FFT.
Info: Updated CUDA force table with 4096 elements.
Info: Updated CUDA LJ table with 6 x 6 elements.
Info: Found 19 unique exclusion lists needing 48 bytes
TCL: Running for 1500000 steps
ETITLE: TS BOND ANGLE DIHED IMPRP ELECT VDW BOUNDARY MISC KINETIC TOTAL TEMP POTENTIAL TOTALAVG TEMPAVG PRESSURE GPRESSURE VOLUME PRESSAVG GPRESSAVG
ENERGY: 0 2.8848 7.1615 2.1414 0.0000 -10692.4107 1409.3933 0.0000 0.0000 1708.4415 -7562.3882 288.4989 -9270.8297 -7562.3882 288.4989 -160.6146 -76.9176 30559.7907 -160.6146 -76.9176
ENERGY: 300000 2.0698 5.3038 2.6374 0.0000 -10902.6617 1526.3302 0.0000 0.0000 1797.0605 -7569.2600 303.4638 -9366.3205 -7560.7003 296.6818 536.2780 625.4548 30745.4999 370.3113 453.7613
ENERGY: 600000 0.8417 6.4576 1.1384 0.0000 -10730.2105 1429.2513 0.0000 0.0000 1823.1861 -7469.3354 307.8755 -9292.5214 -7535.9699 298.0743 221.1243 296.0270 30294.7484 273.1515 337.6564
ENERGY: 900000 3.8615 7.1340 4.7399 0.0000 -10868.4871 1452.4400 0.0000 0.0000 1740.8353 -7659.4764 293.9692 -9400.3117 -7557.1689 297.5616 -49.1316 7.4898 30262.9941 211.8355 264.4350
ENERGY: 1200000 5.5479 5.1842 4.5217 0.0000 -10660.8164 1357.9519 0.0000 0.0000 1810.6812 -7476.9294 305.7638 -9287.6107 -7544.0859 299.2019 -504.2171 -563.5560 30844.9924 159.9672 208.7629
ENERGY: 1500000 3.2821 2.6397 0.6016 0.0000 -10653.7661 1377.3554 0.0000 0.0000 1753.9982 -7515.8892 296.1920 -9269.8874 -7553.6637 298.7229 -604.7715 -499.2152 30941.4744 108.4199 159.1680
TCL: Running FEP window   2: Lambda1 0.95   Lambda2 0.8999999999999999 [dLambda -0.050000000000000044]
TCL: Setting parameter firsttimestep to 0
TCL: Setting parameter alchLambda to 0.95
Info: NONBONDED TABLE R-SQUARED SPACING: 0.0625
Info: NONBONDED TABLE SIZE: 705 POINTS
TCL: Setting parameter alchLambda2 to 0.8999999999999999
Info: NONBONDED TABLE R-SQUARED SPACING: 0.0625
Info: NONBONDED TABLE SIZE: 705 POINTS
TCL: Running for 1500000 steps
ETITLE: TS BOND ANGLE DIHED IMPRP ELECT VDW BOUNDARY MISC KINETIC TOTAL TEMP POTENTIAL TOTALAVG TEMPAVG PRESSURE GPRESSURE VOLUME PRESSAVG GPRESSAVG
ENERGY: 0 3.2821 2.6397 0.6016 0.0000 -10652.9012 1377.3667 0.0000 0.0000 1753.1366 -7515.8745 296.0465 -9269.0111 -7515.8745 296.0465 -581.1760 -506.7905 30941.4744 -581.1760 -506.7905
ENERGY: 300000 1.0402 4.3820 1.0319 0.0000 -10698.8540 1462.9303 0.0000 0.0000 1788.0562 -7441.4135 301.9432 -9229.4697 -7510.2764 300.7668 122.9233 170.4762 31003.5035 -227.3418 -141.6883
ENERGY: 600000 2.0231 5.7102 2.3055 0.0000 -10743.8616 1447.7054 0.0000 0.0000 1799.6413 -7486.4761 303.8996 -9286.1174 -7500.2975 303.8284 107.2766 159.6553 30672.1868 -287.0966 -222.6712
ENERGY: 900000 5.9546 7.8343 2.3742 0.0000 -10769.9815 1467.5116 0.0000 0.0000 1766.4551 -7519.8516 298.2955 -9286.3067 -7498.7385 303.3116 146.8957 227.0399 30944.8637 -221.0559 -152.5685
ENERGY: 1200000 3.4198 5.1082 3.5509 0.0000 -10846.6928 1464.0997 0.0000 0.0000 1743.1815 -7627.3328 294.3654 -9370.5142 -7517.4080 301.8724 8.6728 68.5063 30519.2110 -138.9367 -77.6858
ENERGY: 1500000 0.7930 6.8857 1.4464 0.0000 -10706.8569 1451.7001 0.0000 0.0000 1803.3160 -7442.7156 304.5201 -9246.0316 -7521.1081 301.1868 34.2410 77.4212 31154.1785 -96.3486 -35.0045
TCL: Running FEP window   3: Lambda1 0.8999999999999999 Lambda2 0.8499999999999999 [dLambda -0.050000000000000044]
TCL: Setting parameter firsttimestep to 0
TCL: Setting parameter alchLambda to 0.8999999999999999
Info: NONBONDED TABLE R-SQUARED SPACING: 0.0625
Info: NONBONDED TABLE SIZE: 705 POINTS
TCL: Setting parameter alchLambda2 to 0.8499999999999999
Info: NONBONDED TABLE R-SQUARED SPACING: 0.0625
Info: NONBONDED TABLE SIZE: 705 POINTS
TCL: Running for 1500000 steps
ETITLE: TS BOND ANGLE DIHED IMPRP ELECT VDW BOUNDARY MISC KINETIC TOTAL TEMP POTENTIAL TOTALAVG TEMPAVG PRESSURE GPRESSURE VOLUME PRESSAVG GPRESSAVG
ENERGY: 0 0.7930 6.8857 1.4464 0.0000 -10705.8171 1451.7939 0.0000 0.0000 1802.4468 -7442.4512 304.3733 -9244.8980 -7442.4512 304.3733 -9.0382 68.0888 31154.1785 -9.0382 68.0888
ENERGY: 300000 1.1640 4.7730 3.2373 0.0000 -10712.2388 1430.2135 0.0000 0.0000 1773.1810 -7499.6702 299.4313 -9272.8511 -7544.8544 298.1960 -86.3149 27.0362 30645.5405 -12.6449 88.2199
ENERGY: 600000 2.0502 4.4391 3.7712 0.0000 -10713.7886 1421.0064 0.0000 0.0000 1795.8877 -7486.6340 303.2657 -9282.5216 -7549.8826 298.0276 -129.5337 -81.5571 30608.7710 -39.2176 47.4919
ENERGY: 900000 0.8395 5.5240 2.6005 0.0000 -10881.2933 1410.6373 0.0000 0.0000 1793.7753 -7667.9167 302.9090 -9461.6921 -7558.1767 298.9896 -516.1477 -449.3196 30255.4249 -170.6206 -87.8972
ENERGY: 1200000 2.7783 4.9129 3.5855 0.0000 -10892.9039 1489.8931 0.0000 0.0000 1768.8183 -7622.9158 298.6946 -9391.7341 -7554.0288 298.6466 -21.5964 72.3890 30352.5427 -123.2125 -40.3572
ENERGY: 1500000 4.2692 6.8289 3.8421 0.0000 -10826.9434 1454.3812 0.0000 0.0000 1719.9774 -7637.6445 290.4470 -9357.6219 -7557.4223 297.6563 -260.4473 -251.2874 30726.0631 -132.7981 -61.5357
TCL: Running FEP window   4: Lambda1 0.8499999999999999 Lambda2 0.7999999999999998 [dLambda -0.050000000000000044]
TCL: Setting parameter firsttimestep to 0
TCL: Setting parameter alchLambda to 0.8499999999999999
Info: NONBONDED TABLE R-SQUARED SPACING: 0.0625
Info: NONBONDED TABLE SIZE: 705 POINTS
TCL: Setting parameter alchLambda2 to 0.7999999999999998
Info: NONBONDED TABLE R-SQUARED SPACING: 0.0625
Info: NONBONDED TABLE SIZE: 705 POINTS
TCL: Running for 1500000 steps
ETITLE: TS BOND ANGLE DIHED IMPRP ELECT VDW BOUNDARY MISC KINETIC TOTAL TEMP POTENTIAL TOTALAVG TEMPAVG PRESSURE GPRESSURE VOLUME PRESSAVG GPRESSAVG
ENERGY: 0 4.2692 6.8289 3.8421 0.0000 -10826.3670 1454.8532 0.0000 0.0000 1719.0875 -7637.4861 290.2967 -9356.5736 -7637.4861 290.2967 -326.4281 -254.0796 30726.0631 -326.4281 -254.0796
ENERGY: 300000 4.8673 10.1473 2.9548 0.0000 -10790.0410 1464.9374 0.0000 0.0000 1747.8321 -7559.3020 295.1507 -9307.1341 -7582.7190 296.3979 175.2248 263.8903 30438.2095 -143.7408 -74.6231
ENERGY: 600000 1.9820 11.0432 2.4289 0.0000 -10878.7668 1499.0227 0.0000 0.0000 1730.7256 -7633.5644 292.2620 -9364.2900 -7555.8695 297.5903 321.1248 394.9666 30196.1401 -139.3312 -79.8969
ENERGY: 900000 2.4922 4.5893 3.1467 0.0000 -10737.7065 1430.1204 0.0000 0.0000 1783.3125 -7514.0455 301.1422 -9297.3581 -7559.3842 297.1965 85.6679 81.5775 30548.2510 -92.7553 -37.7404
ENERGY: 1200000 3.7397 4.6976 2.0540 0.0000 -10777.7487 1390.0889 0.0000 0.0000 1809.4990 -7567.6695 305.5642 -9377.1685 -7548.4125 298.2455 -686.2483 -631.1813 30767.0636 -132.4681 -76.5758
ENERGY: 1500000 2.9181 8.2577 4.5874 0.0000 -10795.1114 1470.5879 0.0000 0.0000 1777.7521 -7531.0082 300.2032 -9308.7603 -7541.7087 298.2496 228.7451 242.2714 30456.8560 -120.3806 -63.7256
TCL: Running FEP window   5: Lambda1 0.7999999999999998 Lambda2 0.7499999999999998 [dLambda -0.050000000000000044]
TCL: Setting parameter firsttimestep to 0
TCL: Setting parameter alchLambda to 0.7999999999999998
Info: NONBONDED TABLE R-SQUARED SPACING: 0.0625
Info: NONBONDED TABLE SIZE: 705 POINTS
TCL: Setting parameter alchLambda2 to 0.7499999999999998
Info: NONBONDED TABLE R-SQUARED SPACING: 0.0625
Info: NONBONDED TABLE SIZE: 705 POINTS
TCL: Running for 1500000 steps
ETITLE: TS BOND ANGLE DIHED IMPRP ELECT VDW BOUNDARY MISC KINETIC TOTAL TEMP POTENTIAL TOTALAVG TEMPAVG PRESSURE GPRESSURE VOLUME PRESSAVG GPRESSAVG
ENERGY: 0 2.9181 8.2577 4.5874 0.0000 -10794.1134 1470.1665 0.0000 0.0000 1776.8262 -7531.3575 300.0469 -9308.1837 -7531.3575 300.0469 152.7420 230.1431 30456.8560 152.7420 230.1431
ENERGY: 300000 6.2218 10.5912 3.5023 0.0000 -10780.5532 1445.0079 0.0000 0.0000 1781.2654 -7533.9646 300.7965 -9315.2300 -7581.1116 298.0487 198.1921 210.8475 30544.4034 178.6766 245.0485
ENERGY: 600000 2.2536 5.4552 4.4727 0.0000 -10781.4504 1443.4207 0.0000 0.0000 1750.1470 -7575.7012 295.5416 -9325.8482 -7572.6705 297.4330 -265.9546 -94.0066 30820.9691 -24.2552 52.8411
ENERGY: 900000 2.3455 5.3767 2.9916 0.0000 -10784.5435 1475.9179 0.0000 0.0000 1784.1192 -7513.7926 301.2784 -9297.9118 -7561.5894 297.9220 -8.9728 73.7066 30831.0771 -96.1648 -20.4043
ENERGY: 1200000 1.2709 4.8197 1.1629 0.0000 -10819.1207 1442.8251 0.0000 0.0000 1797.5134 -7571.5287 303.5402 -9369.0421 -7562.5448 298.1549 36.2623 76.0474 30216.1011 -143.4253 -68.9193
ENERGY: 1500000 0.7532 5.4119 1.3888 0.0000 -10799.1829 1509.7027 0.0000 0.0000 1767.6244 -7514.3020 298.4930 -9281.9263 -7560.4295 298.7042 654.3221 700.6128 30566.7977 -103.6360 -36.5290
TCL: Running FEP window   6: Lambda1 0.7499999999999998 Lambda2 0.6999999999999997 [dLambda -0.050000000000000044]
TCL: Setting parameter firsttimestep to 0
TCL: Setting parameter alchLambda to 0.7499999999999998
Info: NONBONDED TABLE R-SQUARED SPACING: 0.0625
Info: NONBONDED TABLE SIZE: 705 POINTS
TCL: Setting parameter alchLambda2 to 0.6999999999999997
Info: NONBONDED TABLE R-SQUARED SPACING: 0.0625
Info: NONBONDED TABLE SIZE: 705 POINTS
TCL: Running for 1500000 steps
ETITLE: TS BOND ANGLE DIHED IMPRP ELECT VDW BOUNDARY MISC KINETIC TOTAL TEMP POTENTIAL TOTALAVG TEMPAVG PRESSURE GPRESSURE VOLUME PRESSAVG GPRESSAVG
ENERGY: 0 0.7532 5.4119 1.3888 0.0000 -10799.2701 1509.3551 0.0000 0.0000 1766.7472 -7515.6139 298.3448 -9282.3611 -7515.6139 298.3448 604.9206 685.2296 30566.7977 604.9206 685.2296
ENERGY: 300000 3.0920 9.2709 2.7374 0.0000 -10700.9427 1358.2047 0.0000 0.0000 1780.9810 -7546.6567 300.7485 -9327.6376 -7514.8015 301.9712 -1012.5661 -902.4090 30704.8347 -168.0276 -80.3762
ENERGY: 600000 5.2156 3.3639 3.1610 0.0000 -10757.3451 1428.2963 0.0000 0.0000 1760.6957 -7556.6127 297.3229 -9317.3084 -7522.6294 300.2437 121.6312 197.5403 29915.9025 -69.2650 6.6816
ENERGY: 900000 1.9712 4.7837 2.3739 0.0000 -10777.4675 1412.3967 0.0000 0.0000 1779.7728 -7576.1692 300.5444 -9355.9420 -7530.8288 299.7090 -323.9626 -279.3013 30487.1315 -124.9914 -56.2737
ENERGY: 1200000 4.7455 3.1028 2.2120 0.0000 -10815.0299 1489.3054 0.0000 0.0000 1776.5134 -7539.1507 299.9940 -9315.6641 -7527.8861 299.3043 190.3839 254.3077 30629.0171 -203.7324 -132.4849
ENERGY: 1500000 2.8961 10.4329 1.6696 0.0000 -10804.0803 1422.5355 0.0000 0.0000 1738.5435 -7628.0028 293.5822 -9366.5463 -7528.2877 298.8370 -178.6027 -143.2174 30265.5302 -187.1387 -112.1567
TCL: Running FEP window   7: Lambda1 0.6999999999999997 Lambda2 0.6499999999999997 [dLambda -0.050000000000000044]
TCL: Setting parameter firsttimestep to 0
TCL: Setting parameter alchLambda to 0.6999999999999997
Info: NONBONDED TABLE R-SQUARED SPACING: 0.0625
Info: NONBONDED TABLE SIZE: 705 POINTS
TCL: Setting parameter alchLambda2 to 0.6499999999999997
Info: NONBONDED TABLE R-SQUARED SPACING: 0.0625
Info: NONBONDED TABLE SIZE: 705 POINTS
TCL: Running for 1500000 steps
ETITLE: TS BOND ANGLE DIHED IMPRP ELECT VDW BOUNDARY MISC KINETIC TOTAL TEMP POTENTIAL TOTALAVG TEMPAVG PRESSURE GPRESSURE VOLUME PRESSAVG GPRESSAVG
ENERGY: 0 2.8961 10.4329 1.6696 0.0000 -10804.0376 1423.1789 0.0000 0.0000 1737.6626 -7628.1976 293.4334 -9365.8602 -7628.1976 293.4334 -228.1404 -148.6346 30265.5302 -228.1404 -148.6346
ENERGY: 300000 1.8658 6.6024 5.3689 0.0000 -10774.3408 1435.9767 0.0000 0.0000 1756.0137 -7568.5133 296.5323 -9324.5270 -7553.4382 296.7805 -339.2607 -219.9354 31028.6619 246.3927 311.0313
ENERGY: 600000 1.0511 5.3272 2.4894 0.0000 -10895.5291 1567.4030 0.0000 0.0000 1793.5901 -7525.6682 302.8777 -9319.2583 -7546.5306 296.7568 1077.6953 1128.6012 30390.5835 245.8639 318.1702
ENERGY: 900000 1.8659 5.0269 1.5462 0.0000 -10813.2506 1448.5033 0.0000 0.0000 1808.0298 -7548.2785 305.3161 -9356.3082 -7541.3074 298.9622 35.4194 85.5793 30364.4025 43.3781 109.5191
ENERGY: 1200000 3.3658 5.9074 0.8681 0.0000 -10701.5359 1413.5982 0.0000 0.0000 1780.1012 -7497.6952 300.5999 -9277.7964 -7540.4995 298.5415 -419.7555 -354.6405 30981.8052 -9.3388 47.7549
ENERGY: 1500000 3.2376 8.3092 3.4050 0.0000 -10644.7838 1371.1539 0.0000 0.0000 1744.1905 -7514.4875 294.5358 -9258.6781 -7545.6455 297.9830 -578.9880 -572.6657 31043.1666 20.7120 70.6390
TCL: Running FEP window   8: Lambda1 0.6499999999999997 Lambda2 0.5999999999999996 [dLambda -0.050000000000000044]
TCL: Setting parameter firsttimestep to 0
TCL: Setting parameter alchLambda to 0.6499999999999997
Info: NONBONDED TABLE R-SQUARED SPACING: 0.0625
Info: NONBONDED TABLE SIZE: 705 POINTS
TCL: Setting parameter alchLambda2 to 0.5999999999999996
Info: NONBONDED TABLE R-SQUARED SPACING: 0.0625
Info: NONBONDED TABLE SIZE: 705 POINTS
TCL: Running for 1500000 steps
ETITLE: TS BOND ANGLE DIHED IMPRP ELECT VDW BOUNDARY MISC KINETIC TOTAL TEMP POTENTIAL TOTALAVG TEMPAVG PRESSURE GPRESSURE VOLUME PRESSAVG GPRESSAVG
ENERGY: 0 3.2376 8.3092 3.4050 0.0000 -10644.5357 1371.0178 0.0000 0.0000 1743.3009 -7515.2652 294.3855 -9258.5661 -7515.2652 294.3855 -666.8000 -579.9917 31043.1666 -666.8000 -579.9917
ENERGY: 300000 2.8713 4.9044 2.5611 0.0000 -10726.2183 1399.2331 0.0000 0.0000 1774.4571 -7542.1913 299.6468 -9316.6484 -7547.7204 296.6068 -392.3123 -323.6241 30615.4049 -394.9352 -328.8476
ENERGY: 600000 2.2652 5.4780 2.2635 0.0000 -10753.2036 1378.7664 0.0000 0.0000 1755.3894 -7609.0412 296.4269 -9364.4306 -7541.6751 296.9279 -428.0649 -325.4572 29974.8321 -326.3265 -247.7139
ENERGY: 900000 3.2393 3.0214 1.2692 0.0000 -10850.2259 1493.2571 0.0000 0.0000 1743.3795 -7606.0594 294.3988 -9349.4390 -7542.3787 297.4217 202.4453 215.2502 30271.3984 -179.4891 -106.0884
ENERGY: 1200000 6.0648 6.6777 3.7192 0.0000 -10662.5449 1399.3312 0.0000 0.0000 1835.7514 -7411.0006 309.9974 -9246.7521 -7524.8213 299.6234 -549.4626 -387.9968 30936.9193 -251.6184 -173.4251
ENERGY: 1500000 2.9785 5.1747 1.3674 0.0000 -10718.8206 1423.1944 0.0000 0.0000 1714.1002 -7572.0055 289.4545 -9286.1056 -7523.9255 299.2920 -359.4961 -342.4258 30787.3890 -215.3659 -146.2682
TCL: Running FEP window   9: Lambda1 0.5999999999999996 Lambda2 0.5499999999999996 [dLambda -0.050000000000000044]
TCL: Setting parameter firsttimestep to 0
TCL: Setting parameter alchLambda to 0.5999999999999996
Info: NONBONDED TABLE R-SQUARED SPACING: 0.0625
Info: NONBONDED TABLE SIZE: 705 POINTS
TCL: Setting parameter alchLambda2 to 0.5499999999999996
Info: NONBONDED TABLE R-SQUARED SPACING: 0.0625
Info: NONBONDED TABLE SIZE: 705 POINTS
TCL: Running for 1500000 steps
ETITLE: TS BOND ANGLE DIHED IMPRP ELECT VDW BOUNDARY MISC KINETIC TOTAL TEMP POTENTIAL TOTALAVG TEMPAVG PRESSURE GPRESSURE VOLUME PRESSAVG GPRESSAVG
ENERGY: 0 2.9785 5.1746 1.3674 0.0000 -10718.6107 1423.3216 0.0000 0.0000 1713.2258 -7572.5427 289.3069 -9285.7686 -7572.5427 289.3069 -425.0978 -348.7079 30787.3890 -425.0978 -348.7079
ENERGY: 300000 1.5870 4.9301 3.3421 0.0000 -10734.6111 1488.3575 0.0000 0.0000 1775.6201 -7460.7742 299.8432 -9236.3944 -7544.8563 294.5311 382.4000 486.9135 30840.1452 -336.5008 -255.1285
ENERGY: 600000 1.0330 10.5364 1.8561 0.0000 -10749.9748 1468.1689 0.0000 0.0000 1770.1446 -7498.2358 298.9186 -9268.3805 -7549.5489 294.0402 -51.9796 55.1143 30879.6474 -258.6937 -175.1213
ENERGY: 900000 3.2306 9.6436 3.6214 0.0000 -10790.5637 1490.8939 0.0000 0.0000 1785.4926 -7497.6816 301.5103 -9283.1742 -7526.7987 295.8723 458.1342 438.9320 30498.7046 -202.6894 -135.3264
ENERGY: 1200000 6.2043 6.5609 1.5500 0.0000 -10616.4830 1350.9890 0.0000 0.0000 1837.1202 -7414.0587 310.2285 -9251.1789 -7510.0652 298.1593 -825.3534 -810.9830 31030.9983 -238.7597 -168.7936
ENERGY: 1500000 1.0150 5.5843 1.7890 0.0000 -10742.5169 1455.1814 0.0000 0.0000 1819.1087 -7459.8385 307.1870 -9278.9472 -7519.1704 298.8829 309.5154 359.5818 30516.2571 -180.0598 -107.6310
TCL: Running FEP window  10: Lambda1 0.5499999999999996 Lambda2 0.4999999999999996 [dLambda -0.04999999999999999]
TCL: Setting parameter firsttimestep to 0
TCL: Setting parameter alchLambda to 0.5499999999999996
Info: NONBONDED TABLE R-SQUARED SPACING: 0.0625
Info: NONBONDED TABLE SIZE: 705 POINTS
TCL: Setting parameter alchLambda2 to 0.4999999999999996
Info: NONBONDED TABLE R-SQUARED SPACING: 0.0625
Info: NONBONDED TABLE SIZE: 705 POINTS
TCL: Running for 1500000 steps
ETITLE: TS BOND ANGLE DIHED IMPRP ELECT VDW BOUNDARY MISC KINETIC TOTAL TEMP POTENTIAL TOTALAVG TEMPAVG PRESSURE GPRESSURE VOLUME PRESSAVG GPRESSAVG
ENERGY: 0 1.0150 5.5843 1.7890 0.0000 -10741.9021 1455.6953 0.0000 0.0000 1818.2280 -7459.5904 307.0382 -9277.8185 -7459.5904 307.0382 275.4199 359.8256 30516.2571 275.4199 359.8256
ENERGY: 300000 2.7839 6.5943 2.7748 0.0000 -10693.4819 1431.8740 0.0000 0.0000 1741.2835 -7508.1715 294.0449 -9249.4549 -7531.4304 298.8361 -445.5421 -338.9790 31243.5960 87.5832 158.8510
ENERGY: 600000 3.4009 4.1273 1.4021 0.0000 -10701.6014 1379.9729 0.0000 0.0000 1744.4938 -7568.2044 294.5870 -9312.6981 -7541.8905 297.5257 -739.5736 -687.1268 30635.7855 -19.3860 49.8838
ENERGY: 900000 2.8355 5.1162 2.9401 0.0000 -10962.6172 1513.1136 0.0000 0.0000 1723.2079 -7715.4039 290.9925 -9438.6118 -7545.7585 298.4098 157.0805 168.4356 30435.9968 60.7944 126.3285
ENERGY: 1200000 2.7039 8.7625 6.8484 0.0000 -10686.8374 1390.9780 0.0000 0.0000 1791.9968 -7485.5478 302.6087 -9277.5446 -7550.0647 298.1933 -439.2936 -398.4677 30962.1669 9.5123 72.6551
ENERGY: 1500000 1.8093 3.8199 1.8781 0.0000 -10812.8611 1505.5106 0.0000 0.0000 1767.9426 -7531.9005 298.5467 -9299.8431 -7543.5482 297.9718 580.3241 655.5867 30307.6178 53.1617 110.4739
TCL: Running FEP window  11: Lambda1 0.4999999999999996 Lambda2 0.4499999999999996 [dLambda -0.04999999999999999]
TCL: Setting parameter firsttimestep to 0
TCL: Setting parameter alchLambda to 0.4999999999999996
Info: NONBONDED TABLE R-SQUARED SPACING: 0.0625
Info: NONBONDED TABLE SIZE: 705 POINTS
TCL: Setting parameter alchLambda2 to 0.4499999999999996
Info: NONBONDED TABLE R-SQUARED SPACING: 0.0625
Info: NONBONDED TABLE SIZE: 705 POINTS
TCL: Running for 1500000 steps
ETITLE: TS BOND ANGLE DIHED IMPRP ELECT VDW BOUNDARY MISC KINETIC TOTAL TEMP POTENTIAL TOTALAVG TEMPAVG PRESSURE GPRESSURE VOLUME PRESSAVG GPRESSAVG
ENERGY: 0 1.8093 3.8199 1.8781 0.0000 -10812.9522 1505.9391 0.0000 0.0000 1767.0283 -7532.4774 298.3923 -9299.5057 -7532.4774 298.3923 568.4673 653.7694 30307.6178 568.4673 653.7694
ENERGY: 300000 0.4914 8.9974 4.1893 0.0000 -10685.7285 1397.1213 0.0000 0.0000 1806.5278 -7468.4013 305.0625 -9274.9292 -7534.7803 300.2365 -326.6926 -249.1655 30481.4058 -43.9483 6.2404
ENERGY: 600000 2.0243 2.8584 3.4131 0.0000 -10871.4411 1542.6464 0.0000 0.0000 1755.2702 -7565.2288 296.4068 -9320.4989 -7527.0532 300.9009 373.5701 461.7204 30917.5225 -62.9852 1.1850
ENERGY: 900000 2.8608 4.0044 2.0857 0.0000 -10696.6055 1448.0357 0.0000 0.0000 1802.3707 -7437.2484 304.3605 -9239.6190 -7517.8976 301.6321 134.7428 249.3659 30546.1099 -38.7140 27.5332
ENERGY: 1200000 0.9104 5.8847 1.1976 0.0000 -10752.9317 1428.3304 0.0000 0.0000 1819.3828 -7497.2258 307.2332 -9316.6086 -7522.8650 302.1000 -400.9595 -287.4303 31051.9179 -93.4978 -24.5891
ENERGY: 1500000 0.8067 5.6198 4.0088 0.0000 -10682.6502 1347.6295 0.0000 0.0000 1798.1017 -7526.4837 303.6396 -9324.5854 -7520.2764 302.4610 -786.8967 -750.7637 30743.6935 -113.4991 -46.9612
TCL: Running FEP window  12: Lambda1 0.4499999999999996 Lambda2 0.39999999999999963 [dLambda -0.04999999999999999]
TCL: Setting parameter firsttimestep to 0
TCL: Setting parameter alchLambda to 0.4499999999999996
Info: NONBONDED TABLE R-SQUARED SPACING: 0.0625
Info: NONBONDED TABLE SIZE: 705 POINTS
TCL: Setting parameter alchLambda2 to 0.39999999999999963
Info: NONBONDED TABLE R-SQUARED SPACING: 0.0625
Info: NONBONDED TABLE SIZE: 705 POINTS
TCL: Running for 1500000 steps
ETITLE: TS BOND ANGLE DIHED IMPRP ELECT VDW BOUNDARY MISC KINETIC TOTAL TEMP POTENTIAL TOTALAVG TEMPAVG PRESSURE GPRESSURE VOLUME PRESSAVG GPRESSAVG
ENERGY: 0 0.8067 5.6198 4.0087 0.0000 -10682.6506 1348.0574 0.0000 0.0000 1797.1602 -7526.9978 303.4806 -9324.1580 -7526.9978 303.4806 -832.8920 -752.9031 30743.6935 -832.8920 -752.9031
ENERGY: 300000 2.3300 5.3229 1.1237 0.0000 -10809.8362 1434.3380 0.0000 0.0000 1769.2233 -7597.4983 298.7630 -9366.7216 -7545.0327 300.7932 -424.3941 -427.0166 30675.7313 -395.4383 -356.3756
ENERGY: 600000 2.1926 7.1654 3.2289 0.0000 -10814.8999 1489.0041 0.0000 0.0000 1843.3976 -7469.9114 311.2885 -9313.3090 -7523.5408 303.3457 483.9831 513.7269 30435.1118 -262.0383 -217.1570
ENERGY: 900000 2.0094 5.1933 4.0339 0.0000 -10859.6318 1488.1581 0.0000 0.0000 1747.6905 -7612.5466 295.1268 -9360.2371 -7536.8963 302.6939 18.0593 105.1753 30434.1841 -111.7683 -54.5912
ENERGY: 1200000 5.4466 8.6844 1.6775 0.0000 -10658.6352 1378.5918 0.0000 0.0000 1716.9040 -7547.3308 289.9280 -9264.2348 -7535.1433 301.8201 -872.0289 -778.6045 31194.9119 -178.9968 -114.4849
ENERGY: 1500000 2.9062 5.9718 1.8136 0.0000 -10750.3728 1435.4035 0.0000 0.0000 1720.6353 -7583.6424 290.5581 -9304.2777 -7535.1068 301.3324 -382.7652 -247.0068 30587.6322 -151.1520 -83.3247
TCL: Running FEP window  13: Lambda1 0.39999999999999963 Lambda2 0.34999999999999964 [dLambda -0.04999999999999999]
TCL: Setting parameter firsttimestep to 0
TCL: Setting parameter alchLambda to 0.39999999999999963
Info: NONBONDED TABLE R-SQUARED SPACING: 0.0625
Info: NONBONDED TABLE SIZE: 705 POINTS
TCL: Setting parameter alchLambda2 to 0.34999999999999964
Info: NONBONDED TABLE R-SQUARED SPACING: 0.0625
Info: NONBONDED TABLE SIZE: 705 POINTS
TCL: Running for 1500000 steps
ETITLE: TS BOND ANGLE DIHED IMPRP ELECT VDW BOUNDARY MISC KINETIC TOTAL TEMP POTENTIAL TOTALAVG TEMPAVG PRESSURE GPRESSURE VOLUME PRESSAVG GPRESSAVG
ENERGY: 0 2.9062 5.9718 1.8136 0.0000 -10750.3728 1435.5786 0.0000 0.0000 1719.7708 -7584.3318 290.4121 -9304.1026 -7584.3318 290.4121 -346.2451 -252.1897 30587.6322 -346.2451 -252.1897
ENERGY: 300000 2.6653 8.1398 1.8710 0.0000 -10783.6480 1478.8782 0.0000 0.0000 1724.1959 -7567.8978 291.1593 -9292.0937 -7579.6662 294.0330 220.9448 314.1993 30714.6349 -166.2040 -94.6455
ENERGY: 600000 2.4432 6.7653 2.9218 0.0000 -10760.8661 1460.6038 0.0000 0.0000 1811.0470 -7477.0849 305.8256 -9288.1320 -7569.5678 296.1488 356.5211 366.0953 30246.6049 -243.8770 -191.5748
ENERGY: 900000 2.4559 4.1137 3.5520 0.0000 -10755.1034 1423.8480 0.0000 0.0000 1733.3053 -7587.8285 292.6976 -9321.1338 -7546.7441 297.7490 -73.1141 -15.3085 30481.1754 -285.8420 -229.9670
ENERGY: 1200000 0.8207 3.3753 2.6777 0.0000 -10805.2814 1456.7359 0.0000 0.0000 1807.4085 -7534.2633 305.2112 -9341.6717 -7552.4565 298.8071 78.4447 121.2914 30376.6528 -298.0500 -245.1021
ENERGY: 1500000 2.7558 3.8514 3.1805 0.0000 -10762.7241 1403.5232 0.0000 0.0000 1794.0096 -7555.4037 302.9486 -9349.4133 -7546.4857 300.1832 -445.9817 -369.0317 30486.1776 -218.0881 -158.7457
TCL: Running FEP window  14: Lambda1 0.34999999999999964 Lambda2 0.29999999999999966 [dLambda -0.04999999999999999]
TCL: Setting parameter firsttimestep to 0
TCL: Setting parameter alchLambda to 0.34999999999999964
Info: NONBONDED TABLE R-SQUARED SPACING: 0.0625
Info: NONBONDED TABLE SIZE: 705 POINTS
TCL: Setting parameter alchLambda2 to 0.29999999999999966
Info: NONBONDED TABLE R-SQUARED SPACING: 0.0625
Info: NONBONDED TABLE SIZE: 705 POINTS
TCL: Running for 1500000 steps
ETITLE: TS BOND ANGLE DIHED IMPRP ELECT VDW BOUNDARY MISC KINETIC TOTAL TEMP POTENTIAL TOTALAVG TEMPAVG PRESSURE GPRESSURE VOLUME PRESSAVG GPRESSAVG
ENERGY: 0 2.7558 3.8514 3.1805 0.0000 -10762.7239 1403.4107 0.0000 0.0000 1793.1143 -7556.4112 302.7974 -9349.5255 -7556.4112 302.7974 -460.9638 -377.5889 30486.1776 -460.9638 -377.5889
ENERGY: 300000 2.1844 4.7380 5.9316 0.0000 -10740.1242 1405.1167 0.0000 0.0000 1818.2143 -7503.9392 307.0359 -9322.1535 -7573.5099 300.4842 -310.8811 -268.6760 30566.3337 -409.0394 -365.4852
ENERGY: 600000 4.0148 5.1855 5.1722 0.0000 -10726.0430 1386.1210 0.0000 0.0000 1756.3952 -7569.1545 296.5967 -9325.5496 -7579.2478 298.5334 -370.6999 -279.3525 30094.2097 -205.8960 -142.8495
ENERGY: 900000 4.3551 4.1515 3.8256 0.0000 -10690.2451 1431.6813 0.0000 0.0000 1757.8248 -7488.4068 296.8381 -9246.2316 -7551.6929 299.2757 113.3459 164.9096 30610.6637 -96.8217 -30.6628
ENERGY: 1200000 2.3430 5.3774 4.1334 0.0000 -10514.1090 1331.7153 0.0000 0.0000 1758.0503 -7412.4896 296.8762 -9170.5398 -7537.2444 300.0885 -760.8440 -649.1458 30518.2204 -166.0632 -92.1726
ENERGY: 1500000 2.3839 11.0624 1.7923 0.0000 -10904.3593 1554.2654 0.0000 0.0000 1816.5290 -7518.3262 306.7513 -9334.8552 -7537.5107 300.4588 849.9418 901.7873 30483.9791 -107.8704 -31.8523
TCL: Running FEP window  15: Lambda1 0.29999999999999966 Lambda2 0.24999999999999967 [dLambda -0.04999999999999999]
TCL: Setting parameter firsttimestep to 0
TCL: Setting parameter alchLambda to 0.29999999999999966
Info: NONBONDED TABLE R-SQUARED SPACING: 0.0625
Info: NONBONDED TABLE SIZE: 705 POINTS
TCL: Setting parameter alchLambda2 to 0.24999999999999967
Info: NONBONDED TABLE R-SQUARED SPACING: 0.0625
Info: NONBONDED TABLE SIZE: 705 POINTS
TCL: Running for 1500000 steps
ETITLE: TS BOND ANGLE DIHED IMPRP ELECT VDW BOUNDARY MISC KINETIC TOTAL TEMP POTENTIAL TOTALAVG TEMPAVG PRESSURE GPRESSURE VOLUME PRESSAVG GPRESSAVG
ENERGY: 0 2.3839 11.0624 1.7923 0.0000 -10904.3592 1554.5311 0.0000 0.0000 1815.6373 -7518.9522 306.6007 -9334.5894 -7518.9522 306.6007 827.5420 899.7607 30483.9791 827.5420 899.7607
ENERGY: 300000 1.9785 4.6001 5.1730 0.0000 -10770.5643 1497.9744 0.0000 0.0000 1806.0994 -7454.7388 304.9901 -9260.8383 -7505.9052 301.3586 725.3694 779.0457 30414.4859 427.1852 469.8452
ENERGY: 600000 1.6559 2.6208 2.1197 0.0000 -10625.0437 1374.5342 0.0000 0.0000 1776.1117 -7468.0013 299.9262 -9244.1130 -7505.7997 301.1979 -454.1247 -421.0543 30837.1172 141.6429 176.0318
ENERGY: 900000 3.4716 6.0074 5.3578 0.0000 -10773.5547 1383.4525 0.0000 0.0000 1771.5772 -7603.6882 299.1605 -9375.2654 -7527.6226 301.3128 -746.5970 -664.4809 30658.1329 114.8058 157.5731
ENERGY: 1200000 1.3770 3.4427 3.2295 0.0000 -10825.8988 1491.8153 0.0000 0.0000 1725.5918 -7600.4426 291.3951 -9326.0343 -7544.8350 299.3256 262.7415 377.5869 30417.5225 149.1466 206.5907
ENERGY: 1500000 2.0457 7.2233 1.2700 0.0000 -10908.9674 1508.2119 0.0000 0.0000 1754.9135 -7635.3030 296.3465 -9390.2165 -7550.3048 299.4571 511.6569 538.2816 29885.1579 195.0653 249.6219
TCL: Running FEP window  16: Lambda1 0.24999999999999967 Lambda2 0.19999999999999968 [dLambda -0.04999999999999999]
TCL: Setting parameter firsttimestep to 0
TCL: Setting parameter alchLambda to 0.24999999999999967
Info: NONBONDED TABLE R-SQUARED SPACING: 0.0625
Info: NONBONDED TABLE SIZE: 705 POINTS
TCL: Setting parameter alchLambda2 to 0.19999999999999968
Info: NONBONDED TABLE R-SQUARED SPACING: 0.0625
Info: NONBONDED TABLE SIZE: 705 POINTS
TCL: Running for 1500000 steps
ETITLE: TS BOND ANGLE DIHED IMPRP ELECT VDW BOUNDARY MISC KINETIC TOTAL TEMP POTENTIAL TOTALAVG TEMPAVG PRESSURE GPRESSURE VOLUME PRESSAVG GPRESSAVG
ENERGY: 0 2.0457 7.2233 1.2700 0.0000 -10908.9655 1508.4653 0.0000 0.0000 1754.0365 -7635.9248 296.1984 -9389.9613 -7635.9248 296.1984 460.0052 537.6650 29885.1579 460.0052 537.6650
ENERGY: 300000 1.3191 8.0904 2.6167 0.0000 -10768.8618 1469.2187 0.0000 0.0000 1840.4448 -7447.1720 310.7899 -9287.6169 -7508.4738 301.4326 420.7602 451.0197 30463.1348 284.1316 338.1187
ENERGY: 600000 2.6472 8.0347 3.2030 0.0000 -10769.7249 1420.6709 0.0000 0.0000 1817.7955 -7517.3735 306.9652 -9335.1690 -7499.6642 301.8692 -285.5640 -244.8666 30310.4985 -27.4436 24.9142
ENERGY: 900000 3.4339 2.5672 2.5659 0.0000 -10737.0673 1427.0560 0.0000 0.0000 1731.7204 -7569.7239 292.4300 -9301.4443 -7517.0075 301.1643 -105.0937 -49.2364 30381.3182 20.6499 77.3132
ENERGY: 1200000 4.2188 6.9207 4.7090 0.0000 -10680.3049 1448.5772 0.0000 0.0000 1738.6481 -7477.2311 293.5998 -9215.8792 -7522.3829 300.7139 31.9818 133.2224 30756.4946 86.5696 144.3755
ENERGY: 1500000 1.5365 6.2572 2.5261 0.0000 -10637.2687 1403.3063 0.0000 0.0000 1828.8248 -7394.8178 308.8277 -9223.6426 -7520.8966 301.6840 -73.2733 -41.5719 30678.3638 96.3480 152.7678
TCL: Running FEP window  17: Lambda1 0.19999999999999968 Lambda2 0.1499999999999997 [dLambda -0.04999999999999999]
TCL: Setting parameter firsttimestep to 0
TCL: Setting parameter alchLambda to 0.19999999999999968
Info: NONBONDED TABLE R-SQUARED SPACING: 0.0625
Info: NONBONDED TABLE SIZE: 705 POINTS
TCL: Setting parameter alchLambda2 to 0.1499999999999997
Info: NONBONDED TABLE R-SQUARED SPACING: 0.0625
Info: NONBONDED TABLE SIZE: 705 POINTS
TCL: Running for 1500000 steps
ETITLE: TS BOND ANGLE DIHED IMPRP ELECT VDW BOUNDARY MISC KINETIC TOTAL TEMP POTENTIAL TOTALAVG TEMPAVG PRESSURE GPRESSURE VOLUME PRESSAVG GPRESSAVG
ENERGY: 0 1.5365 6.2572 2.5261 0.0000 -10637.2694 1403.1642 0.0000 0.0000 1827.9544 -7395.8311 308.6807 -9223.7855 -7395.8311 308.6807 -144.2128 -43.8576 30678.3638 -144.2128 -43.8576
ENERGY: 300000 4.3976 6.3176 3.0878 0.0000 -10917.9595 1534.5442 0.0000 0.0000 1778.2689 -7591.3436 300.2905 -9369.6124 -7505.1504 304.7263 566.3787 649.1674 30085.0979 270.9805 323.2875
ENERGY: 600000 1.9140 4.9309 3.3851 0.0000 -10702.9893 1414.4973 0.0000 0.0000 1766.4230 -7511.8390 298.2901 -9278.2620 -7511.6612 302.7331 -229.4704 -180.0815 30901.4872 106.4549 170.6529
ENERGY: 900000 3.3276 3.2902 3.5974 0.0000 -10813.8314 1478.4088 0.0000 0.0000 1812.7481 -7512.4593 306.1129 -9325.2074 -7503.0907 302.7516 -48.1282 24.9683 30362.8968 124.2275 192.4345
ENERGY: 1200000 4.5114 3.5726 3.8772 0.0000 -10744.8391 1474.8848 0.0000 0.0000 1764.8169 -7493.1761 298.0189 -9257.9931 -7508.9241 301.9545 -24.0789 97.9339 30940.7093 69.3225 139.6891
ENERGY: 1500000 1.8993 4.7526 3.8928 0.0000 -10930.4417 1514.1666 0.0000 0.0000 1813.5188 -7592.2117 306.2430 -9405.7305 -7517.7307 301.4479 578.2809 645.8647 29842.3378 76.4192 143.2965
TCL: Running FEP window  18: Lambda1 0.1499999999999997 Lambda2 0.09999999999999969 [dLambda -0.05 ]
TCL: Setting parameter firsttimestep to 0
TCL: Setting parameter alchLambda to 0.1499999999999997
Info: NONBONDED TABLE R-SQUARED SPACING: 0.0625
Info: NONBONDED TABLE SIZE: 705 POINTS
TCL: Setting parameter alchLambda2 to 0.09999999999999969
Info: NONBONDED TABLE R-SQUARED SPACING: 0.0625
Info: NONBONDED TABLE SIZE: 705 POINTS
TCL: Running for 1500000 steps
ETITLE: TS BOND ANGLE DIHED IMPRP ELECT VDW BOUNDARY MISC KINETIC TOTAL TEMP POTENTIAL TOTALAVG TEMPAVG PRESSURE GPRESSURE VOLUME PRESSAVG GPRESSAVG
ENERGY: 0 1.8993 4.7526 3.8928 0.0000 -10930.4411 1513.6798 0.0000 0.0000 1812.6349 -7593.5818 306.0938 -9406.2167 -7593.5818 306.0938 558.2583 641.9963 29842.3378 558.2583 641.9963
ENERGY: 300000 4.0143 5.6359 1.5066 0.0000 -10674.5827 1427.0218 0.0000 0.0000 1721.2927 -7515.1114 290.6691 -9236.4041 -7539.1705 302.0120 -565.5572 -478.1414 30932.2125 -13.6506 83.2135
ENERGY: 600000 1.7226 5.9661 3.9078 0.0000 -10777.1500 1409.5757 0.0000 0.0000 1828.0788 -7527.8990 308.7017 -9355.9778 -7538.5012 301.8752 -374.2857 -333.6479 30049.7178 -185.3811 -99.4862
ENERGY: 900000 2.5642 4.9983 1.0478 0.0000 -10706.0023 1414.0567 0.0000 0.0000 1735.2730 -7548.0623 293.0299 -9283.3353 -7545.5150 301.3767 -439.2944 -424.3035 30838.5075 -179.6550 -105.1371
ENERGY: 1200000 1.0743 2.5498 4.3724 0.0000 -10781.6103 1443.0413 0.0000 0.0000 1802.8828 -7527.6896 304.4469 -9330.5724 -7547.1834 301.7301 -82.4100 -41.0657 30687.1225 -189.4690 -117.3051
ENERGY: 1500000 4.0298 4.7218 2.1656 0.0000 -10631.8703 1331.6858 0.0000 0.0000 1727.5828 -7561.6845 291.7313 -9289.2673 -7548.8382 301.4653 -1085.4399 -1035.9616 30755.0704 -221.7153 -147.9157
TCL: Running FEP window  19: Lambda1 0.09999999999999969 Lambda2 0.049999999999999684 [dLambda -0.05 ]
TCL: Setting parameter firsttimestep to 0
TCL: Setting parameter alchLambda to 0.09999999999999969
Info: NONBONDED TABLE R-SQUARED SPACING: 0.0625
Info: NONBONDED TABLE SIZE: 705 POINTS
TCL: Setting parameter alchLambda2 to 0.049999999999999684
Info: NONBONDED TABLE R-SQUARED SPACING: 0.0625
Info: NONBONDED TABLE SIZE: 705 POINTS
TCL: Running for 1500000 steps
ETITLE: TS BOND ANGLE DIHED IMPRP ELECT VDW BOUNDARY MISC KINETIC TOTAL TEMP POTENTIAL TOTALAVG TEMPAVG PRESSURE GPRESSURE VOLUME PRESSAVG GPRESSAVG
ENERGY: 0 4.0298 4.7218 2.1656 0.0000 -10631.8731 1331.8778 0.0000 0.0000 1726.6596 -7562.4184 291.5754 -9289.0780 -7562.4184 291.5754 -1112.8379 -1037.1868 30755.0704 -1112.8379 -1037.1868
ENERGY: 300000 3.4481 5.7833 3.5945 0.0000 -10774.3501 1444.5085 0.0000 0.0000 1758.3128 -7558.7028 296.9206 -9317.0156 -7553.3932 296.3298 68.3324 111.8620 30148.4383 -303.2378 -237.7695
ENERGY: 600000 1.3219 4.9645 5.7283 0.0000 -10728.4765 1460.6000 0.0000 0.0000 1773.0696 -7482.7922 299.4125 -9255.8619 -7534.2015 297.5592 16.2359 74.4837 30740.0478 -268.4506 -205.9804
ENERGY: 900000 1.9334 7.1537 1.7939 0.0000 -10816.6718 1469.4305 0.0000 0.0000 1756.4822 -7579.8780 296.6114 -9336.3602 -7536.0925 298.7361 -158.6953 -97.0698 30586.1519 -297.9527 -246.0591
ENERGY: 1200000 4.4002 5.0997 1.9181 0.0000 -10737.9121 1441.9441 0.0000 0.0000 1763.7246 -7520.8255 297.8344 -9284.5501 -7548.2312 299.0343 -91.8886 -86.1909 30386.9046 -266.3174 -215.5318
ENERGY: 1500000 2.2154 5.6181 3.5738 0.0000 -10823.6134 1537.1804 0.0000 0.0000 1834.3226 -7440.7032 309.7561 -9275.0258 -7542.2198 299.7206 866.3486 880.8047 30574.2995 -184.4313 -136.4753
TCL: Running FEP window  20: Lambda1 0.049999999999999684 Lambda2 0.0    [dLambda -0.049999999999999684]
TCL: Setting parameter firsttimestep to 0
TCL: Setting parameter alchLambda to 0.049999999999999684
Info: NONBONDED TABLE R-SQUARED SPACING: 0.0625
Info: NONBONDED TABLE SIZE: 705 POINTS
TCL: Setting parameter alchLambda2 to 0.0
Info: NONBONDED TABLE R-SQUARED SPACING: 0.0625
Info: NONBONDED TABLE SIZE: 705 POINTS
TCL: Running for 1500000 steps
ETITLE: TS BOND ANGLE DIHED IMPRP ELECT VDW BOUNDARY MISC KINETIC TOTAL TEMP POTENTIAL TOTALAVG TEMPAVG PRESSURE GPRESSURE VOLUME PRESSAVG GPRESSAVG
ENERGY: 0 2.2154 5.6181 3.5738 0.0000 -10823.6134 1537.2017 0.0000 0.0000 1833.4286 -7441.5758 309.6051 -9275.0044 -7441.5758 309.6051 800.7313 881.2051 30574.2995 800.7313 881.2051
ENERGY: 300000 5.8145 4.4760 1.6399 0.0000 -10788.9220 1414.4117 0.0000 0.0000 1715.8032 -7646.7768 289.7421 -9362.5800 -7521.4268 303.7235 -425.7666 -351.3133 30263.4299 189.5502 272.1432
ENERGY: 600000 2.3093 3.7208 1.7297 0.0000 -10809.8022 1475.5015 0.0000 0.0000 1747.0092 -7579.5316 295.0118 -9326.5408 -7547.3852 299.6979 273.1770 361.8946 30260.7370 24.7461 97.1629
ENERGY: 900000 1.8949 5.0381 0.7940 0.0000 -10826.9819 1466.7692 0.0000 0.0000 1828.4368 -7524.0488 308.7622 -9352.4857 -7554.1528 300.1111 107.9434 158.1725 30135.0388 -37.9998 33.0726
ENERGY: 1200000 1.5348 8.1517 1.3390 0.0000 -10797.5462 1462.4839 0.0000 0.0000 1797.6416 -7526.3953 303.5619 -9324.0369 -7543.5518 300.4898 26.7112 103.3529 30672.3249 92.8313 158.3104
ENERGY: 1500000 4.2002 5.7502 2.7600 0.0000 -10654.5624 1363.4797 0.0000 0.0000 1833.6312 -7444.7411 309.6393 -9278.3723 -7528.5824 301.4055 -593.6383 -549.2764 30593.6944 76.1363 137.3039
TCL: Exiting due to exit command.
