Info: SIMULATION PARAMETERS:
Info: TIMESTEP               2
Info: NUMBER OF STEPS        0
Info: STEPS PER CYCLE        10
Info: PERIODIC CELL BASIS 1  33.1269 0 0
Info: PERIODIC CELL BASIS 2  0 33.4956 0
Info: PERIODIC CELL BASIS 3  0 0 27.7821
Info: PERIODIC CELL CENTER   0 0 0
Info: WRAPPING WATERS AROUND PERIODIC BOUNDARIES ON OUTPUT.
Info: WRAPPING ALL CLUSTERS AROUND PERIODIC BOUNDARIES ON OUTPUT.
Info: FIRST LDB TIMESTEP     50
Info: LAST LDB TIMESTEP     -1
Info: HOM BACKGROUND SCALING 1
Info: PME BACKGROUND SCALING 1
Info: MIN ATOMS PER PATCH    40
Info: EMPTY PATCH LOAD       40 ATOMS
Info: VELOCITY FILE          mobley_1469079_equil.vel
Info: CENTER OF MASS MOVING INITIALLY? NO
Info: DIELECTRIC             1
Info: EXCLUDE                SCALED ONE-FOUR
Info: 1-4 ELECTROSTATICS SCALED BY 0.833333
Info: MODIFIED 1-4 VDW PARAMETERS WILL BE USED
Info: DCD FILENAME           mobley_1469079_prod.dcd
Info: DCD FREQUENCY          100000
Info: DCD FIRST STEP         100000
Info: DCD FILE WILL CONTAIN UNIT CELL DATA
Info: XST FILENAME           mobley_1469079_prod.xst
Info: XST FREQUENCY          100000
Info: NO VELOCITY DCD OUTPUT
Info: NO FORCE DCD OUTPUT
Info: OUTPUT FILENAME        mobley_1469079_prod
Info: BINARY OUTPUT FILES WILL BE USED
Info: RESTART FILENAME       mobley_1469079_prod.restart
Info: RESTART FREQUENCY      100000
Info: BINARY RESTART FILES WILL BE USED
Info: CUTOFF                 9
Info: PAIRLIST DISTANCE      11
Info: PAIRLIST SHRINK RATE   0.01
Info: PAIRLIST GROW RATE     0.01
Info: PAIRLIST TRIGGER       0.3
Info: PAIRLISTS PER CYCLE    2
Info: PAIRLISTS ENABLED
Info: MARGIN                 2
Info: HYDROGEN GROUP CUTOFF  2.5
Info: PATCH DIMENSION        15.5
Info: ENERGY OUTPUT STEPS    100000
Info: ENERGY EVALUATION STEPS    100000
Info: OUTPUT ENERGY PRECISION 4
Info: CROSSTERM ENERGY INCLUDED IN DIHEDRAL
Info: TIMING OUTPUT STEPS    1000000
Info: PRESSURE OUTPUT STEPS  100000
Info: ALCHEMICAL FEP ON
Info: FEP CURRENT LAMBDA VALUE     1
Info: FEP COMPARISON LAMBDA VALUE  0.95
Info: FEP INTRA-ALCHEMICAL NON-BONDED INTERACTIONS WILL BE RETAINED
Info: FEP INTRA-ALCHEMICAL BONDED INTERACTIONS WILL BE RETAINED
Info: FEP VDW SHIFTING COEFFICIENT 5
Info: FEP ELEC. ACTIVE FOR ANNIHILATED PARTICLES BETWEEN LAMBDA = 0 AND LAMBDA = 0.5
Info: FEP ELEC. ACTIVE FOR EXNIHILATED PARTICLES BETWEEN LAMBDA = 0.5 AND LAMBDA = 1
Info: FEP VDW ACTIVE FOR ANNIHILATED PARTICLES BETWEEN LAMBDA = 0 AND LAMBDA = 1
Info: FEP VDW ACTIVE FOR EXNIHILATED PARTICLES BETWEEN LAMBDA = 0 AND LAMBDA = 1
Info: FEP BOND ACTIVE FOR ANNIHILATED PARTICLES BETWEEN LAMBDA = 1 AND LAMBDA = 1
Info: FEP BOND ACTIVE FOR EXNIHILATED PARTICLES BETWEEN LAMBDA = 0 AND LAMBDA = 0
Info: LANGEVIN DYNAMICS ACTIVE
Info: LANGEVIN TEMPERATURE   300
Info: LANGEVIN USING BBK INTEGRATOR
Info: LANGEVIN DAMPING COEFFICIENT IS 1 INVERSE PS
Info: LANGEVIN DYNAMICS APPLIED TO HYDROGENS
Info: LANGEVIN PISTON PRESSURE CONTROL ACTIVE
Info:        TARGET PRESSURE IS 1.01325 BAR
Info:     OSCILLATION PERIOD IS 50 FS
Info:             DECAY TIME IS 25 FS
Info:     PISTON TEMPERATURE IS 300 K
Info:       PRESSURE CONTROL IS GROUP-BASED
Info:    INITIAL STRAIN RATE IS -8.02894e-05 -8.02894e-05 -8.02894e-05
Info:       CELL FLUCTUATION IS ISOTROPIC
Info: PARTICLE MESH EWALD (PME) ACTIVE
Info: PME TOLERANCE               1e-06
Info: PME EWALD COEFFICIENT       0.348832
Info: PME INTERPOLATION ORDER     4
Info: PME GRID DIMENSIONS         36 36 28
Info: PME MAXIMUM GRID SPACING    1
Info: PME CALCULATION WILL BE PERFORMED ON GPU
Info: FULL ELECTROSTATIC EVALUATION FREQUENCY      2
Info: USING VERLET I (r-RESPA) MTS SCHEME.
Info: C1 SPLITTING OF LONG RANGE ELECTROSTATICS
Info: PLACING ATOMS IN PATCHES BY HYDROGEN GROUPS
Info: RIGID BONDS TO HYDROGEN : ALL
Info:         ERROR TOLERANCE : 1e-08
Info:          MAX ITERATIONS : 100
Info: RIGID WATER USING SETTLE ALGORITHM
Info: RANDOM NUMBER SEED     1743641964
Info: USE HYDROGEN BONDS?    NO
Info: Using AMBER format force field!
Info: AMBER PARM FILE        mobley_1469079.prmtop
Info: COORDINATE PDB         mobley_1469079.pdb
Info: Exclusions will be read from PARM file!
Info: SCNB (VDW SCALING)     2
Info: USING ARITHMETIC MEAN TO COMBINE L-J SIGMA PARAMETERS
Info: BINARY COORDINATES     mobley_1469079_equil.coor
Info: SUMMARY OF PARAMETERS:
Info: 6 BONDS
Info: 5 ANGLES
Info:   5 HARMONIC
Info:   0 COSINE-BASED
Info: 3 DIHEDRAL
Info: 0 IMPROPER
Info: 0 CROSSTERM
Info: 0 VDW
Info: 21 VDW_PAIRS
Info: 0 NBTHOLE_PAIRS
Info: To read alchdata from file: mobley_1469079.pdb
Info: To read alchflag data from column: 5
Info: STRUCTURE SUMMARY:
Info: 2959 ATOMS
Info: 2961 BONDS
Info: 38 ANGLES
Info: 68 DIHEDRALS
Info: 0 IMPROPERS
Info: 0 CROSSTERMS
Info: 3046 EXCLUSIONS
Info: 2943 RIGID BONDS
Info: ALCH: 0 ATOMS TO DISAPPEAR IN FINAL STATE
Info: ALCH: 22 ATOMS TO APPEAR IN FINAL STATE
Info: 5934 DEGREES OF FREEDOM
Info: 995 HYDROGEN GROUPS
Info: 3 ATOMS IN LARGEST HYDROGEN GROUP
Info: 995 MIGRATION GROUPS
Info: 3 ATOMS IN LARGEST MIGRATION GROUP
Info: TOTAL MASS = 17890.7 amu
Info: TOTAL CHARGE = 0.000100005 e
Info: MASS DENSITY = 0.963724 g/cm^3
Info: ATOM DENSITY = 0.0959865 atoms/A^3
Info: ADDED 0 IMPLICIT EXCLUSIONS
Info: NONBONDED TABLE R-SQUARED SPACING: 0.0625
Info: NONBONDED TABLE SIZE: 705 POINTS
Info: REDUCING NUMBER OF PATCHES TO IMPROVE LOAD BALANCE
Info: REMOVING COM VELOCITY 0.233812 -0.0344944 0.181626
Info: Use 3D box decompostion in PME FFT.
Info: Updated CUDA force table with 4096 elements.
Info: Updated CUDA LJ table with 6 x 6 elements.
Info: Found 24 unique exclusion lists needing 72 bytes
TCL: Running for 1500000 steps
ETITLE: TS BOND ANGLE DIHED IMPRP ELECT VDW BOUNDARY MISC KINETIC TOTAL TEMP POTENTIAL TOTALAVG TEMPAVG PRESSURE GPRESSURE VOLUME PRESSAVG GPRESSAVG
ENERGY: 0 6.2230 8.1445 3.3888 0.0000 -10740.6875 1463.4999 0.0000 0.0000 1771.7258 -7487.7054 300.4965 -9259.4312 -7487.7054 300.4965 -148.6757 -75.7031 30827.2446 -148.6757 -75.7031
ENERGY: 300000 5.1923 4.1957 6.7591 0.0000 -10629.9699 1391.0864 0.0000 0.0000 1734.2166 -7488.5198 294.1347 -9222.7364 -7457.8742 300.0410 -33.7029 9.7826 30205.0654 208.7379 263.8970
ENERGY: 600000 6.5666 2.1077 4.6681 0.0000 -10617.1697 1370.1911 0.0000 0.0000 1763.1412 -7470.4949 299.0404 -9233.6361 -7459.1938 299.7961 -434.0134 -419.5557 30697.5204 -98.5764 -44.6178
ENERGY: 900000 7.5556 4.6110 7.7624 0.0000 -10783.8101 1543.8509 0.0000 0.0000 1724.7111 -7495.3189 292.5225 -9220.0301 -7471.6118 299.4433 581.1591 684.9961 30837.0937 65.9107 129.4507
ENERGY: 1200000 5.2271 4.2487 6.2579 0.0000 -10683.6184 1407.8187 0.0000 0.0000 1774.4650 -7485.6010 300.9610 -9260.0660 -7470.8597 299.9058 100.8112 135.4423 30073.7238 98.7926 161.2129
ENERGY: 1500000 7.5127 4.8300 7.3224 0.0000 -10708.8437 1434.9393 0.0000 0.0000 1812.4194 -7441.8199 307.3984 -9254.2392 -7466.6455 300.3834 -37.8400 -45.1117 30585.6376 44.0322 101.5773
TCL: Running FEP window   2: Lambda1 0.95   Lambda2 0.8999999999999999 [dLambda -0.050000000000000044]
TCL: Setting parameter firsttimestep to 0
TCL: Setting parameter alchLambda to 0.95
Info: NONBONDED TABLE R-SQUARED SPACING: 0.0625
Info: NONBONDED TABLE SIZE: 705 POINTS
TCL: Setting parameter alchLambda2 to 0.8999999999999999
Info: NONBONDED TABLE R-SQUARED SPACING: 0.0625
Info: NONBONDED TABLE SIZE: 705 POINTS
TCL: Running for 1500000 steps
ETITLE: TS BOND ANGLE DIHED IMPRP ELECT VDW BOUNDARY MISC KINETIC TOTAL TEMP POTENTIAL TOTALAVG TEMPAVG PRESSURE GPRESSURE VOLUME PRESSAVG GPRESSAVG
ENERGY: 0 7.5127 4.8300 7.3224 0.0000 -10708.6554 1436.1141 0.0000 0.0000 1811.5537 -7441.3225 307.2515 -9252.8762 -7441.3225 307.2515 -125.1971 -52.7371 30585.6376 -125.1971 -52.7371
ENERGY: 300000 2.8255 5.4424 4.8597 0.0000 -10729.1191 1486.4136 0.0000 0.0000 1767.2448 -7462.3333 299.7364 -9229.5781 -7465.1610 301.0144 394.4441 424.5717 30579.2947 215.7447 286.5939
ENERGY: 600000 3.7912 2.4144 5.0355 0.0000 -10627.5235 1350.9427 0.0000 0.0000 1805.2884 -7460.0514 306.1889 -9265.3397 -7469.2144 301.7564 -588.8243 -534.1088 30507.6451 213.5481 276.0013
ENERGY: 900000 5.2676 3.8816 4.5566 0.0000 -10598.7038 1369.5363 0.0000 0.0000 1842.0939 -7373.3678 312.4314 -9215.4618 -7463.3720 302.5110 -759.3885 -701.9507 31270.4221 39.8999 103.8564
ENERGY: 1200000 5.8697 6.2831 8.7576 0.0000 -10719.2557 1414.5559 0.0000 0.0000 1764.3940 -7519.3953 299.2529 -9283.7894 -7457.3400 302.4200 -87.0546 -15.8063 30131.8937 78.6333 142.6727
ENERGY: 1500000 7.0614 2.4499 7.9200 0.0000 -10620.5157 1372.7313 0.0000 0.0000 1807.7037 -7422.6495 306.5985 -9230.3532 -7443.7687 303.0994 -609.3006 -518.1781 30685.2559 -30.3029 41.6718
TCL: Running FEP window   3: Lambda1 0.8999999999999999 Lambda2 0.8499999999999999 [dLambda -0.050000000000000044]
TCL: Setting parameter firsttimestep to 0
TCL: Setting parameter alchLambda to 0.8999999999999999
Info: NONBONDED TABLE R-SQUARED SPACING: 0.0625
Info: NONBONDED TABLE SIZE: 705 POINTS
TCL: Setting parameter alchLambda2 to 0.8499999999999999
Info: NONBONDED TABLE R-SQUARED SPACING: 0.0625
Info: NONBONDED TABLE SIZE: 705 POINTS
TCL: Running for 1500000 steps
ETITLE: TS BOND ANGLE DIHED IMPRP ELECT VDW BOUNDARY MISC KINETIC TOTAL TEMP POTENTIAL TOTALAVG TEMPAVG PRESSURE GPRESSURE VOLUME PRESSAVG GPRESSAVG
ENERGY: 0 7.0614 2.4499 7.9200 0.0000 -10619.5025 1372.9192 0.0000 0.0000 1806.8412 -7422.3109 306.4523 -9229.1521 -7422.3109 306.4523 -623.9572 -533.4036 30685.2559 -623.9572 -533.4036
ENERGY: 300000 3.2441 7.0383 6.7346 0.0000 -10777.0782 1518.1315 0.0000 0.0000 1795.3455 -7446.5841 304.5025 -9241.9296 -7461.3096 302.3262 812.0714 912.4624 30358.3043 183.6547 258.2136
ENERGY: 600000 6.2017 4.8166 3.9823 0.0000 -10677.7354 1416.5294 0.0000 0.0000 1774.9682 -7471.2372 301.0464 -9246.2054 -7467.3366 301.0953 -678.0219 -602.3547 30945.7145 2.3157 78.7485
ENERGY: 900000 7.7664 6.1145 7.0400 0.0000 -10830.8401 1541.7995 0.0000 0.0000 1796.8513 -7471.2684 304.7579 -9268.1197 -7470.2582 300.1092 548.3941 660.4214 30252.0251 -58.9810 19.1254
ENERGY: 1200000 4.8517 6.5352 5.4088 0.0000 -10623.5924 1402.4766 0.0000 0.0000 1763.0602 -7441.2599 299.0267 -9204.3201 -7477.8143 299.0897 -336.8195 -297.7128 30604.0572 -49.9090 27.2092
ENERGY: 1500000 4.4464 7.0841 7.7347 0.0000 -10680.6215 1406.9994 0.0000 0.0000 1799.0421 -7455.3148 305.1295 -9254.3569 -7470.4768 299.8947 -229.8541 -182.8279 30486.0258 -36.1085 36.1960
TCL: Running FEP window   4: Lambda1 0.8499999999999999 Lambda2 0.7999999999999998 [dLambda -0.050000000000000044]
TCL: Setting parameter firsttimestep to 0
TCL: Setting parameter alchLambda to 0.8499999999999999
Info: NONBONDED TABLE R-SQUARED SPACING: 0.0625
Info: NONBONDED TABLE SIZE: 705 POINTS
TCL: Setting parameter alchLambda2 to 0.7999999999999998
Info: NONBONDED TABLE R-SQUARED SPACING: 0.0625
Info: NONBONDED TABLE SIZE: 705 POINTS
TCL: Running for 1500000 steps
ETITLE: TS BOND ANGLE DIHED IMPRP ELECT VDW BOUNDARY MISC KINETIC TOTAL TEMP POTENTIAL TOTALAVG TEMPAVG PRESSURE GPRESSURE VOLUME PRESSAVG GPRESSAVG
ENERGY: 0 4.4464 7.0841 7.7347 0.0000 -10680.0108 1406.8460 0.0000 0.0000 1798.1006 -7455.7990 304.9698 -9253.8996 -7455.7990 304.9698 -287.2509 -201.5763 30486.0258 -287.2509 -201.5763
ENERGY: 300000 8.8882 6.3502 7.3847 0.0000 -10566.5937 1395.1222 0.0000 0.0000 1774.9461 -7373.9024 301.0426 -9148.8485 -7444.2252 301.0634 -179.1965 -178.6292 30739.6112 -113.8274 -81.0970
ENERGY: 600000 3.0357 3.4460 5.5359 0.0000 -10594.1498 1371.1632 0.0000 0.0000 1798.1109 -7412.8582 304.9715 -9210.9690 -7464.4463 301.5786 -481.4711 -424.6167 30620.4324 -198.5597 -153.9999
ENERGY: 900000 3.4396 5.5669 4.6245 0.0000 -10755.9599 1465.4730 0.0000 0.0000 1786.8131 -7490.0427 303.0554 -9276.8558 -7471.5463 301.0492 223.0539 214.0611 30363.2154 -185.6574 -142.8246
ENERGY: 1200000 5.6327 4.6958 6.2005 0.0000 -10780.2723 1536.8932 0.0000 0.0000 1799.6964 -7427.1538 305.2404 -9226.8501 -7464.4878 301.0068 823.0257 915.0549 30378.8289 -46.9131 10.7207
ENERGY: 1500000 6.8361 8.0119 3.8102 0.0000 -10874.3293 1538.4364 0.0000 0.0000 1767.1022 -7550.1325 299.7123 -9317.2347 -7468.6052 300.3231 597.8036 672.7051 30240.1822 -43.0337 16.7237
TCL: Running FEP window   5: Lambda1 0.7999999999999998 Lambda2 0.7499999999999998 [dLambda -0.050000000000000044]
TCL: Setting parameter firsttimestep to 0
TCL: Setting parameter alchLambda to 0.7999999999999998
Info: NONBONDED TABLE R-SQUARED SPACING: 0.0625
Info: NONBONDED TABLE SIZE: 705 POINTS
TCL: Setting parameter alchLambda2 to 0.7499999999999998
Info: NONBONDED TABLE R-SQUARED SPACING: 0.0625
Info: NONBONDED TABLE SIZE: 705 POINTS
TCL: Running for 1500000 steps
ETITLE: TS BOND ANGLE DIHED IMPRP ELECT VDW BOUNDARY MISC KINETIC TOTAL TEMP POTENTIAL TOTALAVG TEMPAVG PRESSURE GPRESSURE VOLUME PRESSAVG GPRESSAVG
ENERGY: 0 6.8361 8.0119 3.8102 0.0000 -10873.7206 1539.2633 0.0000 0.0000 1766.2220 -7549.5770 299.5630 -9315.7990 -7549.5770 299.5630 591.2984 669.3802 30240.1822 591.2984 669.3802
ENERGY: 300000 6.0158 6.2618 5.1797 0.0000 -10809.4942 1465.2587 0.0000 0.0000 1804.8684 -7521.9098 306.1177 -9326.7783 -7520.3415 302.2564 134.3131 161.0162 30109.6143 37.6740 97.7574
ENERGY: 600000 6.5544 3.8020 3.7000 0.0000 -10701.4941 1426.8852 0.0000 0.0000 1846.6698 -7413.8827 313.2075 -9260.5525 -7478.8845 305.1089 -142.0161 -127.8682 30602.8573 -271.3394 -219.9418
ENERGY: 900000 5.9978 4.1820 6.5636 0.0000 -10771.9915 1492.2967 0.0000 0.0000 1731.2113 -7531.7400 293.6249 -9262.9513 -7476.3923 303.5464 292.3609 391.9568 30630.4312 -96.2887 -44.2003
ENERGY: 1200000 5.5490 4.5403 6.3710 0.0000 -10768.2592 1476.9256 0.0000 0.0000 1744.6608 -7530.2124 295.9060 -9274.8732 -7488.9920 301.7967 -31.0258 40.2003 30859.6188 -126.5685 -67.0868
ENERGY: 1500000 9.2326 9.3205 11.5434 0.0000 -10613.5082 1369.6100 0.0000 0.0000 1721.0029 -7492.7988 291.8935 -9213.8018 -7482.1839 300.4417 -576.1406 -501.7024 30821.6908 -187.1037 -120.2077
TCL: Running FEP window   6: Lambda1 0.7499999999999998 Lambda2 0.6999999999999997 [dLambda -0.050000000000000044]
TCL: Setting parameter firsttimestep to 0
TCL: Setting parameter alchLambda to 0.7499999999999998
Info: NONBONDED TABLE R-SQUARED SPACING: 0.0625
Info: NONBONDED TABLE SIZE: 705 POINTS
TCL: Setting parameter alchLambda2 to 0.6999999999999997
Info: NONBONDED TABLE R-SQUARED SPACING: 0.0625
Info: NONBONDED TABLE SIZE: 705 POINTS
TCL: Running for 1500000 steps
ETITLE: TS BOND ANGLE DIHED IMPRP ELECT VDW BOUNDARY MISC KINETIC TOTAL TEMP POTENTIAL TOTALAVG TEMPAVG PRESSURE GPRESSURE VOLUME PRESSAVG GPRESSAVG
ENERGY: 0 9.2326 9.3205 11.5434 0.0000 -10612.9321 1370.6056 0.0000 0.0000 1720.1342 -7492.0958 291.7462 -9212.2300 -7492.0958 291.7462 -580.6897 -505.9019 30821.6908 -580.6897 -505.9019
ENERGY: 300000 3.8723 5.8152 7.6213 0.0000 -10753.0381 1543.0206 0.0000 0.0000 1764.5549 -7428.1538 299.2802 -9192.7087 -7465.0310 297.7985 938.4123 1010.3530 30376.2163 22.9870 108.3384
ENERGY: 600000 5.9253 4.2594 4.7393 0.0000 -10766.9985 1485.3572 0.0000 0.0000 1744.0024 -7522.7149 295.7944 -9266.7173 -7471.0318 298.6015 135.2089 243.9321 30533.0848 114.0650 185.5429
ENERGY: 900000 4.9219 8.8926 3.8262 0.0000 -10796.1552 1564.2458 0.0000 0.0000 1795.3262 -7418.9425 304.4992 -9214.2687 -7456.6858 299.6206 1150.4636 1182.6502 30215.1420 182.9498 242.3799
ENERGY: 1200000 5.8569 5.1757 5.9074 0.0000 -10811.0051 1502.5085 0.0000 0.0000 1780.4575 -7511.0991 301.9774 -9291.5565 -7460.4603 300.3092 344.1208 378.4495 30349.7631 165.0542 218.9116
ENERGY: 1500000 7.3479 4.6452 2.7049 0.0000 -10570.7001 1348.9901 0.0000 0.0000 1756.4825 -7450.5294 297.9111 -9207.0119 -7455.8084 300.1854 -177.5651 -129.1166 30142.4679 112.5692 161.2976
TCL: Running FEP window   7: Lambda1 0.6999999999999997 Lambda2 0.6499999999999997 [dLambda -0.050000000000000044]
TCL: Setting parameter firsttimestep to 0
TCL: Setting parameter alchLambda to 0.6999999999999997
Info: NONBONDED TABLE R-SQUARED SPACING: 0.0625
Info: NONBONDED TABLE SIZE: 705 POINTS
TCL: Setting parameter alchLambda2 to 0.6499999999999997
Info: NONBONDED TABLE R-SQUARED SPACING: 0.0625
Info: NONBONDED TABLE SIZE: 705 POINTS
TCL: Running for 1500000 steps
ETITLE: TS BOND ANGLE DIHED IMPRP ELECT VDW BOUNDARY MISC KINETIC TOTAL TEMP POTENTIAL TOTALAVG TEMPAVG PRESSURE GPRESSURE VOLUME PRESSAVG GPRESSAVG
ENERGY: 0 7.3479 4.6452 2.7049 0.0000 -10570.0378 1349.1990 0.0000 0.0000 1755.6002 -7450.5405 297.7614 -9206.1407 -7450.5405 297.7614 -234.0970 -142.7854 30142.4679 -234.0970 -142.7854
ENERGY: 300000 5.9584 7.6901 3.9355 0.0000 -10671.3314 1477.6948 0.0000 0.0000 1808.4104 -7367.6422 306.7184 -9176.0526 -7451.8837 299.1843 268.3801 385.8738 31097.0508 35.5372 110.8198
ENERGY: 600000 7.5232 10.3172 1.3118 0.0000 -10756.2070 1484.1115 0.0000 0.0000 1754.0900 -7498.8534 297.5053 -9252.9434 -7443.2679 298.5329 204.1399 240.1815 30645.9246 -16.0839 43.7506
ENERGY: 900000 6.0994 6.9898 5.1923 0.0000 -10670.9725 1380.8245 0.0000 0.0000 1777.1801 -7494.6864 301.4215 -9271.8665 -7450.9393 299.8771 -469.3689 -446.6020 30503.9011 -107.7074 -50.7107
ENERGY: 1200000 6.0587 3.8025 4.7528 0.0000 -10700.5861 1421.4563 0.0000 0.0000 1775.7751 -7488.7408 301.1832 -9264.5159 -7444.9833 300.8342 -342.0791 -230.8568 30380.1022 -185.4204 -118.4686
ENERGY: 1500000 6.3495 4.4102 5.3154 0.0000 -10581.3746 1358.8068 0.0000 0.0000 1796.6510 -7409.8416 304.7239 -9206.4927 -7447.5434 300.4673 -718.4528 -701.2850 30995.9348 -152.6793 -89.2293
TCL: Running FEP window   8: Lambda1 0.6499999999999997 Lambda2 0.5999999999999996 [dLambda -0.050000000000000044]
TCL: Setting parameter firsttimestep to 0
TCL: Setting parameter alchLambda to 0.6499999999999997
Info: NONBONDED TABLE R-SQUARED SPACING: 0.0625
Info: NONBONDED TABLE SIZE: 705 POINTS
TCL: Setting parameter alchLambda2 to 0.5999999999999996
Info: NONBONDED TABLE R-SQUARED SPACING: 0.0625
Info: NONBONDED TABLE SIZE: 705 POINTS
TCL: Running for 1500000 steps
ETITLE: TS BOND ANGLE DIHED IMPRP ELECT VDW BOUNDARY MISC KINETIC TOTAL TEMP POTENTIAL TOTALAVG TEMPAVG PRESSURE GPRESSURE VOLUME PRESSAVG GPRESSAVG
ENERGY: 0 6.3495 4.4102 5.3154 0.0000 -10580.5974 1359.3086 0.0000 0.0000 1795.7804 -7409.4333 304.5763 -9205.2137 -7409.4333 304.5763 -788.9593 -708.4765 30995.9348 -788.9593 -708.4765
ENERGY: 300000 7.3632 6.6667 4.8322 0.0000 -10615.7229 1294.2853 0.0000 0.0000 1745.0260 -7557.5494 295.9680 -9302.5754 -7480.9301 303.1061 -1307.3843 -1252.6633 30435.5571 -371.6918 -307.8271
ENERGY: 600000 2.9025 3.6071 7.4954 0.0000 -10606.1810 1382.4956 0.0000 0.0000 1762.9422 -7446.7381 299.0067 -9209.6803 -7481.6365 300.0561 -214.6565 -179.6551 30530.2696 -176.5927 -118.3026
ENERGY: 900000 4.7507 6.2223 4.7170 0.0000 -10752.8243 1503.2301 0.0000 0.0000 1797.6638 -7436.2405 304.8957 -9233.9043 -7485.8895 300.0229 754.1212 783.2682 30212.5253 -8.0812 49.5968
ENERGY: 1200000 9.3333 6.2102 8.6645 0.0000 -10521.1873 1373.8787 0.0000 0.0000 1727.8672 -7395.2333 293.0577 -9123.1005 -7472.3631 300.2713 -298.4144 -260.6009 30759.9192 -27.7261 34.1389
ENERGY: 1500000 7.5445 7.0140 3.5394 0.0000 -10720.9218 1448.9460 0.0000 0.0000 1704.9023 -7548.9756 289.1627 -9253.8779 -7478.2998 299.2251 -440.1491 -385.5327 31194.3462 -83.4697 -23.1809
TCL: Running FEP window   9: Lambda1 0.5999999999999996 Lambda2 0.5499999999999996 [dLambda -0.050000000000000044]
TCL: Setting parameter firsttimestep to 0
TCL: Setting parameter alchLambda to 0.5999999999999996
Info: NONBONDED TABLE R-SQUARED SPACING: 0.0625
Info: NONBONDED TABLE SIZE: 705 POINTS
TCL: Setting parameter alchLambda2 to 0.5499999999999996
Info: NONBONDED TABLE R-SQUARED SPACING: 0.0625
Info: NONBONDED TABLE SIZE: 705 POINTS
TCL: Running for 1500000 steps
ETITLE: TS BOND ANGLE DIHED IMPRP ELECT VDW BOUNDARY MISC KINETIC TOTAL TEMP POTENTIAL TOTALAVG TEMPAVG PRESSURE GPRESSURE VOLUME PRESSAVG GPRESSAVG
ENERGY: 0 7.5445 7.0140 3.5394 0.0000 -10720.4298 1448.5065 0.0000 0.0000 1704.0311 -7549.7943 289.0150 -9253.8253 -7549.7943 289.0150 -484.3290 -396.9696 31194.3462 -484.3290 -396.9696
ENERGY: 300000 3.2474 7.2999 5.0746 0.0000 -10672.7565 1439.9514 0.0000 0.0000 1800.0737 -7417.1096 305.3044 -9217.1833 -7453.2015 298.1707 26.6471 109.6211 30546.0292 -388.1305 -309.8217
ENERGY: 600000 6.4909 8.2902 4.4484 0.0000 -10522.6935 1403.3584 0.0000 0.0000 1730.6020 -7369.5036 293.5216 -9100.1056 -7422.4315 299.5759 41.4472 69.5922 30248.0341 -307.8988 -241.3767
ENERGY: 900000 6.1944 7.6435 5.4332 0.0000 -10541.4370 1367.2122 0.0000 0.0000 1766.5235 -7388.4302 299.6141 -9154.9537 -7437.6836 298.9003 -616.8396 -566.6343 31051.1385 -203.3610 -147.6055
ENERGY: 1200000 9.8440 4.3231 6.1204 0.0000 -10625.2385 1427.1014 0.0000 0.0000 1797.6968 -7380.1528 304.9013 -9177.8497 -7440.3537 299.6838 -34.5916 52.1079 30792.9086 -179.9887 -110.5905
ENERGY: 1500000 7.2437 5.9652 6.9980 0.0000 -10538.1159 1361.7613 0.0000 0.0000 1769.6938 -7386.4538 300.1518 -9156.1476 -7430.5875 299.5374 -627.1744 -569.0845 30896.1860 -202.5721 -135.8801
TCL: Running FEP window  10: Lambda1 0.5499999999999996 Lambda2 0.4999999999999996 [dLambda -0.04999999999999999]
TCL: Setting parameter firsttimestep to 0
TCL: Setting parameter alchLambda to 0.5499999999999996
Info: NONBONDED TABLE R-SQUARED SPACING: 0.0625
Info: NONBONDED TABLE SIZE: 705 POINTS
TCL: Setting parameter alchLambda2 to 0.4999999999999996
Info: NONBONDED TABLE R-SQUARED SPACING: 0.0625
Info: NONBONDED TABLE SIZE: 705 POINTS
TCL: Running for 1500000 steps
ETITLE: TS BOND ANGLE DIHED IMPRP ELECT VDW BOUNDARY MISC KINETIC TOTAL TEMP POTENTIAL TOTALAVG TEMPAVG PRESSURE GPRESSURE VOLUME PRESSAVG GPRESSAVG
ENERGY: 0 7.2437 5.9652 6.9980 0.0000 -10538.2488 1362.6526 0.0000 0.0000 1768.8099 -7386.5792 300.0019 -9155.3891 -7386.5792 300.0019 -644.6102 -573.5840 30896.1860 -644.6102 -573.5840
ENERGY: 300000 5.5009 4.5854 9.6163 0.0000 -10635.4367 1375.6779 0.0000 0.0000 1809.2591 -7430.7972 306.8623 -9240.0562 -7442.8101 300.1802 -699.7982 -610.2361 30599.6822 -76.3243 -15.6908
ENERGY: 600000 6.2260 4.8633 4.8230 0.0000 -10701.8297 1408.9519 0.0000 0.0000 1777.5640 -7499.4015 301.4866 -9276.9654 -7473.0804 301.5895 -553.1335 -562.3971 30679.6569 -61.8108 -14.4381
ENERGY: 900000 7.6585 4.0782 4.7589 0.0000 -10797.7939 1491.4538 0.0000 0.0000 1801.6063 -7488.2382 305.5644 -9289.8446 -7472.5429 301.4963 33.7458 71.9556 30427.1006 47.0777 93.1623
ENERGY: 1200000 5.9403 5.4148 6.5945 0.0000 -10774.8743 1530.0237 0.0000 0.0000 1823.7456 -7403.1554 309.3194 -9226.9010 -7468.7852 302.1925 774.8957 760.7236 30167.7872 63.7062 116.2485
ENERGY: 1500000 6.1666 3.1305 4.6614 0.0000 -10507.4656 1329.6861 0.0000 0.0000 1803.8890 -7359.9320 305.9515 -9163.8210 -7458.8955 301.5479 -928.1014 -873.1302 30943.9834 24.4684 76.6560
TCL: Running FEP window  11: Lambda1 0.4999999999999996 Lambda2 0.4499999999999996 [dLambda -0.04999999999999999]
TCL: Setting parameter firsttimestep to 0
TCL: Setting parameter alchLambda to 0.4999999999999996
Info: NONBONDED TABLE R-SQUARED SPACING: 0.0625
Info: NONBONDED TABLE SIZE: 705 POINTS
TCL: Setting parameter alchLambda2 to 0.4499999999999996
Info: NONBONDED TABLE R-SQUARED SPACING: 0.0625
Info: NONBONDED TABLE SIZE: 705 POINTS
TCL: Running for 1500000 steps
ETITLE: TS BOND ANGLE DIHED IMPRP ELECT VDW BOUNDARY MISC KINETIC TOTAL TEMP POTENTIAL TOTALAVG TEMPAVG PRESSURE GPRESSURE VOLUME PRESSAVG GPRESSAVG
ENERGY: 0 6.1666 3.1305 4.6614 0.0000 -10507.4460 1330.0754 0.0000 0.0000 1803.0050 -7360.4070 305.8016 -9163.4120 -7360.4070 305.8016 -968.9397 -881.5564 30943.9834 -968.9397 -881.5564
ENERGY: 300000 6.7537 5.0774 2.8281 0.0000 -10714.8282 1454.9515 0.0000 0.0000 1728.3646 -7516.8529 293.1421 -9245.2175 -7493.5186 297.1535 -189.8288 -115.4935 30343.1325 -331.5847 -266.5146
ENERGY: 600000 4.1981 9.3732 4.6870 0.0000 -10674.3973 1488.2668 0.0000 0.0000 1735.3563 -7432.5160 294.3279 -9167.8722 -7467.2650 296.8523 349.2094 412.8953 30533.7228 -177.6601 -109.9412
ENERGY: 900000 3.6291 8.3150 6.9939 0.0000 -10711.3948 1482.4641 0.0000 0.0000 1749.4968 -7460.4959 296.7263 -9209.9927 -7465.2199 296.9322 813.8132 902.7564 30096.4717 -94.7232 -9.1353
ENERGY: 1200000 4.3240 4.8341 4.8360 0.0000 -10683.6354 1414.1393 0.0000 0.0000 1775.4026 -7480.0993 301.1201 -9255.5020 -7477.3605 297.1864 -257.9300 -238.2333 30726.4365 -53.7920 23.1647
ENERGY: 1500000 6.3242 7.4317 4.7644 0.0000 -10562.4043 1400.3876 0.0000 0.0000 1887.0056 -7256.4908 320.0487 -9143.4964 -7458.8585 299.1290 2.7407 71.9741 30503.9215 -77.8246 -0.4747
TCL: Running FEP window  12: Lambda1 0.4499999999999996 Lambda2 0.39999999999999963 [dLambda -0.04999999999999999]
TCL: Setting parameter firsttimestep to 0
TCL: Setting parameter alchLambda to 0.4499999999999996
Info: NONBONDED TABLE R-SQUARED SPACING: 0.0625
Info: NONBONDED TABLE SIZE: 705 POINTS
TCL: Setting parameter alchLambda2 to 0.39999999999999963
Info: NONBONDED TABLE R-SQUARED SPACING: 0.0625
Info: NONBONDED TABLE SIZE: 705 POINTS
TCL: Running for 1500000 steps
ETITLE: TS BOND ANGLE DIHED IMPRP ELECT VDW BOUNDARY MISC KINETIC TOTAL TEMP POTENTIAL TOTALAVG TEMPAVG PRESSURE GPRESSURE VOLUME PRESSAVG GPRESSAVG
ENERGY: 0 6.3242 7.4317 4.7644 0.0000 -10562.4024 1401.1682 0.0000 0.0000 1886.1448 -7256.5690 319.9027 -9142.7138 -7256.5690 319.9027 -20.2384 66.9734 30503.9215 -20.2384 66.9734
ENERGY: 300000 6.2738 4.9903 8.0130 0.0000 -10561.2871 1409.9110 0.0000 0.0000 1805.3434 -7326.7557 306.1982 -9132.0990 -7394.1124 306.1297 4.7556 84.0830 30873.2969 -57.0102 7.3578
ENERGY: 600000 5.6114 4.4215 4.4870 0.0000 -10402.8271 1223.8195 0.0000 0.0000 1791.0806 -7373.4071 303.7791 -9164.4876 -7387.2187 303.8334 -1522.2550 -1430.2307 30707.7976 -158.7612 -91.7869
ENERGY: 900000 4.5350 9.1449 5.9453 0.0000 -10571.3725 1383.2054 0.0000 0.0000 1717.1653 -7451.3766 291.2426 -9168.5419 -7400.3313 302.5133 -472.5784 -415.5370 30756.9667 -239.3252 -170.3072
ENERGY: 1200000 5.2249 9.5537 4.6997 0.0000 -10621.8268 1430.4643 0.0000 0.0000 1720.2969 -7451.5874 291.7738 -9171.8843 -7411.3052 301.5722 -174.8669 -96.4188 30994.9643 -269.1039 -201.6960
ENERGY: 1500000 7.4399 6.9025 6.4931 0.0000 -10715.7733 1449.5955 0.0000 0.0000 1737.9549 -7507.3874 294.7687 -9245.3423 -7420.2822 300.9319 -31.2557 24.2645 30277.7627 -206.0348 -135.7762
TCL: Running FEP window  13: Lambda1 0.39999999999999963 Lambda2 0.34999999999999964 [dLambda -0.04999999999999999]
TCL: Setting parameter firsttimestep to 0
TCL: Setting parameter alchLambda to 0.39999999999999963
Info: NONBONDED TABLE R-SQUARED SPACING: 0.0625
Info: NONBONDED TABLE SIZE: 705 POINTS
TCL: Setting parameter alchLambda2 to 0.34999999999999964
Info: NONBONDED TABLE R-SQUARED SPACING: 0.0625
Info: NONBONDED TABLE SIZE: 705 POINTS
TCL: Running for 1500000 steps
ETITLE: TS BOND ANGLE DIHED IMPRP ELECT VDW BOUNDARY MISC KINETIC TOTAL TEMP POTENTIAL TOTALAVG TEMPAVG PRESSURE GPRESSURE VOLUME PRESSAVG GPRESSAVG
ENERGY: 0 7.4399 6.9025 6.4931 0.0000 -10715.7730 1448.5734 0.0000 0.0000 1737.0631 -7509.3011 294.6174 -9246.3642 -7509.3011 294.6174 -81.2811 5.8823 30277.7627 -81.2811 5.8823
ENERGY: 300000 6.8195 9.6633 4.9911 0.0000 -10751.7591 1525.1664 0.0000 0.0000 1758.2621 -7446.8566 298.2129 -9205.1187 -7495.3925 298.0517 576.9304 617.0597 30569.1636 -96.8746 -16.6124
ENERGY: 600000 6.3162 6.5147 6.0044 0.0000 -10643.4866 1431.2358 0.0000 0.0000 1709.9223 -7483.4934 290.0142 -9193.4157 -7491.0853 295.8529 92.1343 140.9008 30261.2082 4.4609 82.2416
ENERGY: 900000 2.6541 5.6728 6.9629 0.0000 -10822.5851 1540.8496 0.0000 0.0000 1739.3811 -7527.0645 295.0106 -9266.4456 -7476.7536 296.1858 728.8708 760.8551 30121.8515 26.6794 102.5486
ENERGY: 1200000 2.9540 5.4754 7.6493 0.0000 -10729.9026 1484.1078 0.0000 0.0000 1756.6251 -7473.0910 297.9353 -9229.7161 -7474.8662 296.1306 288.5755 394.2234 30544.7333 5.6473 82.6032
ENERGY: 1500000 9.2586 7.1768 3.6546 0.0000 -10505.7229 1384.2731 0.0000 0.0000 1757.7050 -7343.6547 298.1184 -9101.3597 -7455.0180 297.6055 -63.0286 -12.9136 30241.9354 14.4070 84.8899
TCL: Running FEP window  14: Lambda1 0.34999999999999964 Lambda2 0.29999999999999966 [dLambda -0.04999999999999999]
TCL: Setting parameter firsttimestep to 0
TCL: Setting parameter alchLambda to 0.34999999999999964
Info: NONBONDED TABLE R-SQUARED SPACING: 0.0625
Info: NONBONDED TABLE SIZE: 705 POINTS
TCL: Setting parameter alchLambda2 to 0.29999999999999966
Info: NONBONDED TABLE R-SQUARED SPACING: 0.0625
Info: NONBONDED TABLE SIZE: 705 POINTS
TCL: Running for 1500000 steps
ETITLE: TS BOND ANGLE DIHED IMPRP ELECT VDW BOUNDARY MISC KINETIC TOTAL TEMP POTENTIAL TOTALAVG TEMPAVG PRESSURE GPRESSURE VOLUME PRESSAVG GPRESSAVG
ENERGY: 0 9.2586 7.1768 3.6546 0.0000 -10505.7244 1384.8785 0.0000 0.0000 1756.8353 -7343.9207 297.9709 -9100.7559 -7343.9207 297.9709 -107.6475 -18.3908 30241.9354 -107.6475 -18.3908
ENERGY: 300000 7.9333 7.6741 3.2771 0.0000 -10686.4326 1486.0118 0.0000 0.0000 1757.8917 -7423.6447 298.1501 -9181.5363 -7441.9447 299.7016 298.3183 398.2473 30643.1782 -24.7238 74.3435
ENERGY: 600000 6.3203 3.9521 6.5484 0.0000 -10515.6359 1383.2758 0.0000 0.0000 1798.6330 -7316.9063 305.0601 -9115.5393 -7426.4366 300.7804 92.9541 131.2752 30155.6160 -187.4717 -109.1017
ENERGY: 900000 6.8909 5.8679 6.2237 0.0000 -10655.7552 1390.6856 0.0000 0.0000 1787.2772 -7458.8099 303.1341 -9246.0871 -7438.1772 301.0175 -653.6500 -623.3890 30592.9101 -122.9495 -54.7649
ENERGY: 1200000 3.8470 3.3975 2.0909 0.0000 -10652.7832 1367.7888 0.0000 0.0000 1786.1443 -7489.5146 302.9419 -9275.6589 -7443.1806 300.3365 -702.5919 -640.8156 30428.9683 -145.7258 -79.0033
ENERGY: 1500000 3.8398 5.8512 4.6135 0.0000 -10650.5447 1426.4968 0.0000 0.0000 1757.8680 -7451.8754 298.1461 -9209.7434 -7437.9308 300.8622 -286.4582 -277.3968 30831.5039 -104.5856 -34.4426
TCL: Running FEP window  15: Lambda1 0.29999999999999966 Lambda2 0.24999999999999967 [dLambda -0.04999999999999999]
TCL: Setting parameter firsttimestep to 0
TCL: Setting parameter alchLambda to 0.29999999999999966
Info: NONBONDED TABLE R-SQUARED SPACING: 0.0625
Info: NONBONDED TABLE SIZE: 705 POINTS
TCL: Setting parameter alchLambda2 to 0.24999999999999967
Info: NONBONDED TABLE R-SQUARED SPACING: 0.0625
Info: NONBONDED TABLE SIZE: 705 POINTS
TCL: Running for 1500000 steps
ETITLE: TS BOND ANGLE DIHED IMPRP ELECT VDW BOUNDARY MISC KINETIC TOTAL TEMP POTENTIAL TOTALAVG TEMPAVG PRESSURE GPRESSURE VOLUME PRESSAVG GPRESSAVG
ENERGY: 0 3.8398 5.8512 4.6135 0.0000 -10650.5450 1426.8564 0.0000 0.0000 1756.9645 -7452.4197 297.9928 -9209.3842 -7452.4197 297.9928 -352.5286 -280.3129 30831.5039 -352.5286 -280.3129
ENERGY: 300000 7.8539 7.1053 6.9385 0.0000 -10577.9484 1450.6476 0.0000 0.0000 1711.5265 -7393.8767 290.2862 -9105.4032 -7474.3751 298.8344 30.8005 105.8011 30928.2999 -329.6894 -274.0950
ENERGY: 600000 5.4333 4.1479 9.0836 0.0000 -10722.5002 1476.6610 0.0000 0.0000 1745.4065 -7481.7679 296.0325 -9227.1744 -7485.4272 297.7488 77.2879 135.4519 30539.3777 -333.4148 -285.9612
ENERGY: 900000 5.2339 6.3044 4.9793 0.0000 -10655.2057 1454.3705 0.0000 0.0000 1754.7941 -7429.5235 297.6247 -9184.3176 -7463.0876 298.2488 74.6286 189.9606 30588.6079 -244.7243 -184.9817
ENERGY: 1200000 7.0616 7.1128 5.3174 0.0000 -10743.9134 1431.6708 0.0000 0.0000 1756.8800 -7535.8708 297.9785 -9292.7508 -7466.2522 298.7777 -342.0404 -364.0722 30346.7545 -165.5885 -106.9042
ENERGY: 1500000 4.9740 4.0724 6.6679 0.0000 -10766.4633 1490.9721 0.0000 0.0000 1788.4512 -7471.3256 303.3332 -9259.7768 -7466.7563 299.6922 371.1781 442.3370 30243.8115 -55.3282 7.9805
TCL: Running FEP window  16: Lambda1 0.24999999999999967 Lambda2 0.19999999999999968 [dLambda -0.04999999999999999]
TCL: Setting parameter firsttimestep to 0
TCL: Setting parameter alchLambda to 0.24999999999999967
Info: NONBONDED TABLE R-SQUARED SPACING: 0.0625
Info: NONBONDED TABLE SIZE: 705 POINTS
TCL: Setting parameter alchLambda2 to 0.19999999999999968
Info: NONBONDED TABLE R-SQUARED SPACING: 0.0625
Info: NONBONDED TABLE SIZE: 705 POINTS
TCL: Running for 1500000 steps
ETITLE: TS BOND ANGLE DIHED IMPRP ELECT VDW BOUNDARY MISC KINETIC TOTAL TEMP POTENTIAL TOTALAVG TEMPAVG PRESSURE GPRESSURE VOLUME PRESSAVG GPRESSAVG
ENERGY: 0 4.9740 4.0724 6.6679 0.0000 -10766.4631 1491.7184 0.0000 0.0000 1787.5825 -7471.4478 303.1858 -9259.0303 -7471.4478 303.1858 357.9005 438.8245 30243.8115 357.9005 438.8245
ENERGY: 300000 8.6820 3.6045 7.7685 0.0000 -10693.3351 1448.3401 0.0000 0.0000 1722.8027 -7502.1372 292.1988 -9224.9400 -7435.3899 298.5319 58.5590 162.8576 29911.0916 -89.5510 -28.3479
ENERGY: 600000 6.6401 4.0212 4.1150 0.0000 -10898.9646 1581.6248 0.0000 0.0000 1794.2880 -7508.2755 304.3232 -9302.5635 -7437.1221 300.8428 538.4206 650.7370 30389.6749 98.0888 160.9621
ENERGY: 900000 4.7832 6.2992 5.3129 0.0000 -10622.7116 1408.6510 0.0000 0.0000 1775.1026 -7422.5627 301.0692 -9197.6654 -7431.6570 299.9908 -613.6933 -493.1679 30795.2464 -15.4959 49.9194
ENERGY: 1200000 3.9313 7.4002 6.5279 0.0000 -10627.4629 1407.4635 0.0000 0.0000 1793.8464 -7408.2936 304.2483 -9202.1400 -7425.0212 300.9977 -202.6315 -173.9283 30605.8825 -33.1714 29.0018
ENERGY: 1500000 5.6255 4.4243 2.7934 0.0000 -10471.3078 1306.4132 0.0000 0.0000 1780.8821 -7371.1692 302.0494 -9152.0513 -7427.0099 300.9687 -627.5441 -564.2392 30395.9660 -38.9910 20.0367
TCL: Running FEP window  17: Lambda1 0.19999999999999968 Lambda2 0.1499999999999997 [dLambda -0.04999999999999999]
TCL: Setting parameter firsttimestep to 0
TCL: Setting parameter alchLambda to 0.19999999999999968
Info: NONBONDED TABLE R-SQUARED SPACING: 0.0625
Info: NONBONDED TABLE SIZE: 705 POINTS
TCL: Setting parameter alchLambda2 to 0.1499999999999997
Info: NONBONDED TABLE R-SQUARED SPACING: 0.0625
Info: NONBONDED TABLE SIZE: 705 POINTS
TCL: Running for 1500000 steps
ETITLE: TS BOND ANGLE DIHED IMPRP ELECT VDW BOUNDARY MISC KINETIC TOTAL TEMP POTENTIAL TOTALAVG TEMPAVG PRESSURE GPRESSURE VOLUME PRESSAVG GPRESSAVG
ENERGY: 0 5.6255 4.4243 2.7934 0.0000 -10471.3061 1306.7282 0.0000 0.0000 1780.0079 -7371.7266 301.9012 -9151.7346 -7371.7266 301.9012 -640.4586 -569.3525 30395.9660 -640.4586 -569.3525
ENERGY: 300000 7.8093 2.6755 3.4826 0.0000 -10669.5140 1490.1060 0.0000 0.0000 1724.8234 -7440.6172 292.5415 -9165.4406 -7389.3163 300.6823 73.2709 157.2815 30797.6776 -370.6435 -285.2962
ENERGY: 600000 3.9152 6.1492 4.7382 0.0000 -10613.8122 1401.8825 0.0000 0.0000 1772.8994 -7424.2276 300.6955 -9197.1271 -7433.4942 299.4512 -414.4524 -330.6036 30811.2575 -287.0141 -202.0559
ENERGY: 900000 2.6210 4.8666 4.0701 0.0000 -10610.7259 1404.7971 0.0000 0.0000 1799.3467 -7395.0244 305.1811 -9194.3711 -7440.0571 300.5947 -52.2812 -79.7631 30741.7718 -115.6390 -48.6908
ENERGY: 1200000 3.1676 6.6128 3.1159 0.0000 -10689.1102 1456.4990 0.0000 0.0000 1821.0693 -7398.6457 308.8654 -9219.7150 -7434.0544 300.6430 70.4188 169.2889 30207.6741 -101.3668 -33.2663
ENERGY: 1500000 4.4873 6.0505 7.3616 0.0000 -10550.8870 1358.6664 0.0000 0.0000 1787.6428 -7386.6784 303.1961 -9174.3212 -7424.1407 301.1355 -593.7040 -536.2935 30570.3953 -88.3208 -19.5754
TCL: Running FEP window  18: Lambda1 0.1499999999999997 Lambda2 0.09999999999999969 [dLambda -0.05 ]
TCL: Setting parameter firsttimestep to 0
TCL: Setting parameter alchLambda to 0.1499999999999997
Info: NONBONDED TABLE R-SQUARED SPACING: 0.0625
Info: NONBONDED TABLE SIZE: 705 POINTS
TCL: Setting parameter alchLambda2 to 0.09999999999999969
Info: NONBONDED TABLE R-SQUARED SPACING: 0.0625
Info: NONBONDED TABLE SIZE: 705 POINTS
TCL: Running for 1500000 steps
ETITLE: TS BOND ANGLE DIHED IMPRP ELECT VDW BOUNDARY MISC KINETIC TOTAL TEMP POTENTIAL TOTALAVG TEMPAVG PRESSURE GPRESSURE VOLUME PRESSAVG GPRESSAVG
ENERGY: 0 4.4873 6.0505 7.3616 0.0000 -10550.8859 1359.1999 0.0000 0.0000 1786.7794 -7387.0072 303.0497 -9173.7866 -7387.0072 303.0497 -620.5077 -534.9003 30570.3953 -620.5077 -534.9003
ENERGY: 300000 4.6312 8.0339 6.1429 0.0000 -10712.5031 1481.1630 0.0000 0.0000 1716.5483 -7495.9839 291.1380 -9212.5321 -7452.7224 299.2215 178.9830 204.3144 30207.1609 -225.2584 -165.1926
ENERGY: 600000 3.6801 5.0918 7.2507 0.0000 -10542.4857 1431.0817 0.0000 0.0000 1786.2917 -7309.0899 302.9669 -9095.3815 -7411.4791 301.9499 113.1503 147.8248 30909.1808 -163.6356 -103.0473
ENERGY: 900000 5.5885 5.4937 5.9870 0.0000 -10589.2455 1397.3737 0.0000 0.0000 1777.1537 -7397.6488 301.4171 -9174.8025 -7423.0160 300.7773 -432.9660 -309.4256 30537.7585 -111.9237 -40.1103
ENERGY: 1200000 4.6523 4.0871 4.6812 0.0000 -10606.7915 1405.6214 0.0000 0.0000 1767.8535 -7419.8961 299.8397 -9187.7496 -7424.7971 301.3756 -367.3294 -277.2754 30635.9430 -98.5835 -22.9431
ENERGY: 1500000 4.3139 5.8383 8.6457 0.0000 -10607.9690 1395.3738 0.0000 0.0000 1673.7071 -7520.0902 283.8718 -9193.7973 -7436.7657 300.0867 -623.8494 -635.0115 30659.0756 -107.3284 -37.9382
TCL: Running FEP window  19: Lambda1 0.09999999999999969 Lambda2 0.049999999999999684 [dLambda -0.05 ]
TCL: Setting parameter firsttimestep to 0
TCL: Setting parameter alchLambda to 0.09999999999999969
Info: NONBONDED TABLE R-SQUARED SPACING: 0.0625
Info: NONBONDED TABLE SIZE: 705 POINTS
TCL: Setting parameter alchLambda2 to 0.049999999999999684
Info: NONBONDED TABLE R-SQUARED SPACING: 0.0625
Info: NONBONDED TABLE SIZE: 705 POINTS
TCL: Running for 1500000 steps
ETITLE: TS BOND ANGLE DIHED IMPRP ELECT VDW BOUNDARY MISC KINETIC TOTAL TEMP POTENTIAL TOTALAVG TEMPAVG PRESSURE GPRESSURE VOLUME PRESSAVG GPRESSAVG
ENERGY: 0 4.3139 5.8383 8.6457 0.0000 -10607.9690 1395.3605 0.0000 0.0000 1672.8247 -7520.9860 283.7222 -9193.8107 -7520.9860 283.7222 -713.5853 -641.2722 30659.0756 -713.5853 -641.2722
ENERGY: 300000 4.8643 5.3658 9.8097 0.0000 -10722.1225 1400.9188 0.0000 0.0000 1770.0437 -7531.1201 300.2112 -9301.1638 -7494.4274 296.3112 -551.2045 -492.4796 30143.2203 -609.8033 -541.9213
ENERGY: 600000 4.9984 6.0894 4.1006 0.0000 -10736.3545 1477.9255 0.0000 0.0000 1765.6246 -7477.6159 299.4617 -9243.2406 -7497.9534 297.9089 304.2781 373.5330 30130.1445 -413.6677 -349.0392
ENERGY: 900000 8.0939 3.7524 5.9870 0.0000 -10671.5165 1415.6694 0.0000 0.0000 1808.8684 -7429.1454 306.7961 -9238.0139 -7487.7797 298.9098 -333.3338 -291.9668 30355.4841 -376.3875 -310.8509
ENERGY: 1200000 4.5861 3.6240 5.8396 0.0000 -10646.5205 1422.9684 0.0000 0.0000 1755.0845 -7454.4179 297.6740 -9209.5024 -7481.1293 298.3939 -341.6943 -262.1889 30623.8767 -224.5343 -154.5589
ENERGY: 1500000 6.4458 2.6919 6.8458 0.0000 -10786.7411 1482.3585 0.0000 0.0000 1748.8085 -7539.5906 296.6095 -9288.3991 -7486.9527 298.3227 44.2146 100.3857 30171.3442 -118.0852 -52.6926
TCL: Running FEP window  20: Lambda1 0.049999999999999684 Lambda2 0.0    [dLambda -0.049999999999999684]
TCL: Setting parameter firsttimestep to 0
TCL: Setting parameter alchLambda to 0.049999999999999684
Info: NONBONDED TABLE R-SQUARED SPACING: 0.0625
Info: NONBONDED TABLE SIZE: 705 POINTS
TCL: Setting parameter alchLambda2 to 0.0
Info: NONBONDED TABLE R-SQUARED SPACING: 0.0625
Info: NONBONDED TABLE SIZE: 705 POINTS
TCL: Running for 1500000 steps
ETITLE: TS BOND ANGLE DIHED IMPRP ELECT VDW BOUNDARY MISC KINETIC TOTAL TEMP POTENTIAL TOTALAVG TEMPAVG PRESSURE GPRESSURE VOLUME PRESSAVG GPRESSAVG
ENERGY: 0 6.4458 2.6919 6.8458 0.0000 -10786.7406 1481.2665 0.0000 0.0000 1747.9411 -7541.5495 296.4624 -9289.4906 -7541.5495 296.4624 18.7881 94.7056 30171.3442 18.7881 94.7056
ENERGY: 300000 3.6142 6.0244 7.8823 0.0000 -10655.5227 1338.8630 0.0000 0.0000 1776.7388 -7522.3999 301.3467 -9299.1388 -7478.9549 301.4184 -1061.1821 -982.6951 30017.5304 -244.8309 -166.1809
ENERGY: 600000 4.0310 6.1294 2.8678 0.0000 -10704.6879 1508.5612 0.0000 0.0000 1746.3034 -7436.7951 296.1847 -9183.0986 -7449.6944 302.3552 433.0718 467.9212 30519.4905 -233.2710 -166.0972
ENERGY: 900000 8.6555 5.9002 4.4935 0.0000 -10707.0725 1411.9097 0.0000 0.0000 1779.7630 -7496.3506 301.8596 -9276.1136 -7464.7333 301.9659 -642.2996 -595.1043 30262.8879 -231.9784 -168.2603
ENERGY: 1200000 9.9901 6.3502 6.7371 0.0000 -10711.3249 1465.7675 0.0000 0.0000 1752.5145 -7469.9654 297.2381 -9222.4799 -7463.0428 301.0297 263.0306 239.3930 29934.6906 -233.4034 -175.8816
ENERGY: 1500000 3.7807 3.8285 5.6836 0.0000 -10773.1166 1517.2191 0.0000 0.0000 1787.7596 -7454.8451 303.2159 -9242.6047 -7460.2874 300.2595 571.7182 592.5413 29952.8525 -177.6756 -116.4941
TCL: Exiting due to exit command.
