Info: SIMULATION PARAMETERS:
Info: TIMESTEP               2
Info: NUMBER OF STEPS        0
Info: STEPS PER CYCLE        10
Info: PERIODIC CELL BASIS 1  31.529 0 0
Info: PERIODIC CELL BASIS 2  0 29.9565 0
Info: PERIODIC CELL BASIS 3  0 0 31.8004
Info: PERIODIC CELL CENTER   0 0 0
Info: WRAPPING WATERS AROUND PERIODIC BOUNDARIES ON OUTPUT.
Info: WRAPPING ALL CLUSTERS AROUND PERIODIC BOUNDARIES ON OUTPUT.
Info: FIRST LDB TIMESTEP     50
Info: LAST LDB TIMESTEP     -1
Info: HOM BACKGROUND SCALING 1
Info: PME BACKGROUND SCALING 1
Info: MIN ATOMS PER PATCH    40
Info: EMPTY PATCH LOAD       40 ATOMS
Info: VELOCITY FILE          mobley_1363784_equil.vel
Info: CENTER OF MASS MOVING INITIALLY? NO
Info: DIELECTRIC             1
Info: EXCLUDE                SCALED ONE-FOUR
Info: 1-4 ELECTROSTATICS SCALED BY 0.833333
Info: MODIFIED 1-4 VDW PARAMETERS WILL BE USED
Info: DCD FILENAME           mobley_1363784_prod.dcd
Info: DCD FREQUENCY          100000
Info: DCD FIRST STEP         100000
Info: DCD FILE WILL CONTAIN UNIT CELL DATA
Info: XST FILENAME           mobley_1363784_prod.xst
Info: XST FREQUENCY          100000
Info: NO VELOCITY DCD OUTPUT
Info: NO FORCE DCD OUTPUT
Info: OUTPUT FILENAME        mobley_1363784_prod
Info: BINARY OUTPUT FILES WILL BE USED
Info: RESTART FILENAME       mobley_1363784_prod.restart
Info: RESTART FREQUENCY      100000
Info: BINARY RESTART FILES WILL BE USED
Info: CUTOFF                 9
Info: PAIRLIST DISTANCE      11
Info: PAIRLIST SHRINK RATE   0.01
Info: PAIRLIST GROW RATE     0.01
Info: PAIRLIST TRIGGER       0.3
Info: PAIRLISTS PER CYCLE    2
Info: PAIRLISTS ENABLED
Info: MARGIN                 2
Info: HYDROGEN GROUP CUTOFF  2.5
Info: PATCH DIMENSION        15.5
Info: ENERGY OUTPUT STEPS    100000
Info: ENERGY EVALUATION STEPS    100000
Info: OUTPUT ENERGY PRECISION 4
Info: CROSSTERM ENERGY INCLUDED IN DIHEDRAL
Info: TIMING OUTPUT STEPS    1000000
Info: PRESSURE OUTPUT STEPS  100000
Info: ALCHEMICAL FEP ON
Info: FEP CURRENT LAMBDA VALUE     0
Info: FEP COMPARISON LAMBDA VALUE  0.05
Info: FEP INTRA-ALCHEMICAL NON-BONDED INTERACTIONS WILL BE RETAINED
Info: FEP INTRA-ALCHEMICAL BONDED INTERACTIONS WILL BE RETAINED
Info: FEP VDW SHIFTING COEFFICIENT 5
Info: FEP ELEC. ACTIVE FOR ANNIHILATED PARTICLES BETWEEN LAMBDA = 0 AND LAMBDA = 0.5
Info: FEP ELEC. ACTIVE FOR EXNIHILATED PARTICLES BETWEEN LAMBDA = 0.5 AND LAMBDA = 1
Info: FEP VDW ACTIVE FOR ANNIHILATED PARTICLES BETWEEN LAMBDA = 0 AND LAMBDA = 1
Info: FEP VDW ACTIVE FOR EXNIHILATED PARTICLES BETWEEN LAMBDA = 0 AND LAMBDA = 1
Info: FEP BOND ACTIVE FOR ANNIHILATED PARTICLES BETWEEN LAMBDA = 1 AND LAMBDA = 1
Info: FEP BOND ACTIVE FOR EXNIHILATED PARTICLES BETWEEN LAMBDA = 0 AND LAMBDA = 0
Info: LANGEVIN DYNAMICS ACTIVE
Info: LANGEVIN TEMPERATURE   300
Info: LANGEVIN USING BBK INTEGRATOR
Info: LANGEVIN DAMPING COEFFICIENT IS 1 INVERSE PS
Info: LANGEVIN DYNAMICS APPLIED TO HYDROGENS
Info: LANGEVIN PISTON PRESSURE CONTROL ACTIVE
Info:        TARGET PRESSURE IS 1.01325 BAR
Info:     OSCILLATION PERIOD IS 50 FS
Info:             DECAY TIME IS 25 FS
Info:     PISTON TEMPERATURE IS 300 K
Info:       PRESSURE CONTROL IS GROUP-BASED
Info:    INITIAL STRAIN RATE IS -0.000402881 -0.000402881 -0.000402881
Info:       CELL FLUCTUATION IS ISOTROPIC
Info: PARTICLE MESH EWALD (PME) ACTIVE
Info: PME TOLERANCE               1e-06
Info: PME EWALD COEFFICIENT       0.348832
Info: PME INTERPOLATION ORDER     4
Info: PME GRID DIMENSIONS         32 32 32
Info: PME MAXIMUM GRID SPACING    1
Info: PME CALCULATION WILL BE PERFORMED ON GPU
Info: FULL ELECTROSTATIC EVALUATION FREQUENCY      2
Info: USING VERLET I (r-RESPA) MTS SCHEME.
Info: C1 SPLITTING OF LONG RANGE ELECTROSTATICS
Info: PLACING ATOMS IN PATCHES BY HYDROGEN GROUPS
Info: RIGID BONDS TO HYDROGEN : ALL
Info:         ERROR TOLERANCE : 1e-08
Info:          MAX ITERATIONS : 100
Info: RIGID WATER USING SETTLE ALGORITHM
Info: RANDOM NUMBER SEED     1743587858
Info: USE HYDROGEN BONDS?    NO
Info: Using AMBER format force field!
Info: AMBER PARM FILE        mobley_1363784.prmtop
Info: COORDINATE PDB         mobley_1363784.pdb
Info: Exclusions will be read from PARM file!
Info: SCNB (VDW SCALING)     2
Info: USING ARITHMETIC MEAN TO COMBINE L-J SIGMA PARAMETERS
Info: BINARY COORDINATES     mobley_1363784_equil.coor
Info: SUMMARY OF PARAMETERS:
Info: 8 BONDS
Info: 9 ANGLES
Info:   9 HARMONIC
Info:   0 COSINE-BASED
Info: 4 DIHEDRAL
Info: 0 IMPROPER
Info: 0 CROSSTERM
Info: 0 VDW
Info: 36 VDW_PAIRS
Info: 0 NBTHOLE_PAIRS
Info: To read alchdata from file: mobley_1363784.pdb
Info: To read alchflag data from column: 5
Info: STRUCTURE SUMMARY:
Info: 2930 ATOMS
Info: 2930 BONDS
Info: 28 ANGLES
Info: 37 DIHEDRALS
Info: 0 IMPROPERS
Info: 0 CROSSTERMS
Info: 2987 EXCLUSIONS
Info: 2922 RIGID BONDS
Info: ALCH: 0 ATOMS TO DISAPPEAR IN FINAL STATE
Info: ALCH: 17 ATOMS TO APPEAR IN FINAL STATE
Info: 5868 DEGREES OF FREEDOM
Info: 979 HYDROGEN GROUPS
Info: 4 ATOMS IN LARGEST HYDROGEN GROUP
Info: 979 MIGRATION GROUPS
Info: 4 ATOMS IN LARGEST MIGRATION GROUP
Info: TOTAL MASS = 17600.7 amu
Info: TOTAL CHARGE = 0.000400014 e
Info: MASS DENSITY = 0.973094 g/cm^3
Info: ATOM DENSITY = 0.0975514 atoms/A^3
Info: ADDED 0 IMPLICIT EXCLUSIONS
Info: NONBONDED TABLE R-SQUARED SPACING: 0.0625
Info: NONBONDED TABLE SIZE: 705 POINTS
Info: REMOVING COM VELOCITY 0.153487 0.0270218 0.194865
Info: Use 3D box decompostion in PME FFT.
Info: Updated CUDA force table with 4096 elements.
Info: Updated CUDA LJ table with 8 x 8 elements.
Info: Found 20 unique exclusion lists needing 48 bytes
TCL: Running for 1500000 steps
ETITLE: TS BOND ANGLE DIHED IMPRP ELECT VDW BOUNDARY MISC KINETIC TOTAL TEMP POTENTIAL TOTALAVG TEMPAVG PRESSURE GPRESSURE VOLUME PRESSAVG GPRESSAVG
ENERGY: 0 2.8515 4.7995 3.1474 0.0000 -10636.7527 1417.3914 0.0000 0.0000 1757.4421 -7451.1209 301.4264 -9208.5630 -7451.1209 301.4264 -293.8441 -195.3093 30035.4488 -293.8441 -195.3093
ENERGY: 300000 2.2661 8.6449 2.6025 0.0000 -10630.1298 1443.9154 0.0000 0.0000 1765.7106 -7406.9902 302.8446 -9172.7009 -7406.9065 300.7094 111.5475 177.0008 29869.4195 237.0343 296.2804
ENERGY: 600000 5.3381 2.6660 0.9674 0.0000 -10658.9996 1440.5503 0.0000 0.0000 1746.6125 -7462.8654 299.5690 -9209.4779 -7429.6268 302.1410 -121.9403 8.6907 29927.5651 149.2505 220.3994
ENERGY: 900000 3.1654 3.9974 2.8450 0.0000 -10702.3194 1500.5370 0.0000 0.0000 1810.6647 -7381.1098 310.5549 -9191.7745 -7410.4508 302.9119 753.8943 806.4943 29555.3064 197.1445 259.1178
ENERGY: 1200000 2.8434 4.0033 1.3411 0.0000 -10548.6672 1396.0657 0.0000 0.0000 1665.9826 -7478.4311 285.7398 -9144.4137 -7415.8617 301.1571 -466.9524 -391.5250 30329.0864 123.9459 183.1905
ENERGY: 1500000 3.8987 8.6458 3.4579 0.0000 -10613.3129 1485.3964 0.0000 0.0000 1785.2430 -7326.6712 306.1947 -9111.9141 -7404.6474 301.6637 410.1478 474.0395 30045.5998 49.7587 105.7936
TCL: Running FEP window   2: Lambda1 0.05   Lambda2 0.1    [dLambda 0.05  ]
TCL: Setting parameter firsttimestep to 0
TCL: Setting parameter alchLambda to 0.05
Info: NONBONDED TABLE R-SQUARED SPACING: 0.0625
Info: NONBONDED TABLE SIZE: 705 POINTS
TCL: Setting parameter alchLambda2 to 0.1
Info: NONBONDED TABLE R-SQUARED SPACING: 0.0625
Info: NONBONDED TABLE SIZE: 705 POINTS
TCL: Running for 1500000 steps
ETITLE: TS BOND ANGLE DIHED IMPRP ELECT VDW BOUNDARY MISC KINETIC TOTAL TEMP POTENTIAL TOTALAVG TEMPAVG PRESSURE GPRESSURE VOLUME PRESSAVG GPRESSAVG
ENERGY: 0 3.8987 8.6458 3.4579 0.0000 -10613.3147 1485.3419 0.0000 0.0000 1784.3633 -7327.6070 306.0438 -9111.9703 -7327.6070 306.0438 396.3979 473.3876 30045.5998 396.3979 473.3876
ENERGY: 300000 0.7223 6.6060 1.6311 0.0000 -10566.7756 1363.5167 0.0000 0.0000 1715.7089 -7478.5907 294.2686 -9194.2996 -7402.0792 300.6595 -463.9714 -408.5638 30008.3216 80.2904 143.1630
ENERGY: 600000 3.4362 5.4568 4.5452 0.0000 -10705.0055 1482.9697 0.0000 0.0000 1778.5429 -7430.0547 305.0455 -9208.5976 -7415.2310 300.7917 100.2111 138.4714 30191.8014 -54.1164 -7.5827
ENERGY: 900000 3.5027 6.2511 6.7369 0.0000 -10504.1892 1342.0257 0.0000 0.0000 1699.1241 -7446.5487 291.4240 -9145.6728 -7432.1633 299.6047 -1159.7989 -1111.5101 30805.4540 46.1916 98.6979
ENERGY: 1200000 2.6360 6.5851 3.1020 0.0000 -10657.4579 1450.8998 0.0000 0.0000 1772.4190 -7421.8161 303.9952 -9194.2351 -7426.2240 300.5723 349.8034 349.5601 29469.4936 75.1944 129.7764
ENERGY: 1500000 3.3077 3.7288 4.4009 0.0000 -10620.6673 1472.9111 0.0000 0.0000 1703.6949 -7432.6238 292.2080 -9136.3187 -7423.8909 300.3194 264.4109 341.4766 29899.7061 76.4998 134.9410
TCL: Running FEP window   3: Lambda1 0.1    Lambda2 0.15000000000000002 [dLambda 0.05000000000000002]
TCL: Setting parameter firsttimestep to 0
TCL: Setting parameter alchLambda to 0.1
Info: NONBONDED TABLE R-SQUARED SPACING: 0.0625
Info: NONBONDED TABLE SIZE: 705 POINTS
TCL: Setting parameter alchLambda2 to 0.15000000000000002
Info: NONBONDED TABLE R-SQUARED SPACING: 0.0625
Info: NONBONDED TABLE SIZE: 705 POINTS
TCL: Running for 1500000 steps
ETITLE: TS BOND ANGLE DIHED IMPRP ELECT VDW BOUNDARY MISC KINETIC TOTAL TEMP POTENTIAL TOTALAVG TEMPAVG PRESSURE GPRESSURE VOLUME PRESSAVG GPRESSAVG
ENERGY: 0 3.3077 3.7288 4.4009 0.0000 -10620.6674 1472.5284 0.0000 0.0000 1702.8617 -7433.8399 292.0651 -9136.7016 -7433.8399 292.0651 253.0305 341.1003 29899.7061 253.0305 341.1003
ENERGY: 300000 1.5651 4.4425 4.3697 0.0000 -10580.6798 1372.8164 0.0000 0.0000 1720.4285 -7477.0576 295.0780 -9197.4860 -7400.2498 299.9887 -549.9115 -454.4322 30280.7647 -299.6248 -231.4816
ENERGY: 600000 2.1333 5.4530 4.1870 0.0000 -10632.3465 1475.0926 0.0000 0.0000 1740.0947 -7405.3860 298.4511 -9145.4806 -7422.1809 299.8406 383.1602 435.2522 30089.0713 -6.4461 68.7216
ENERGY: 900000 1.4149 6.5225 1.9370 0.0000 -10753.0398 1527.0078 0.0000 0.0000 1721.0985 -7495.0590 295.1930 -9216.1576 -7431.9247 299.8212 485.7269 581.6959 29987.9393 -10.4052 58.6827
ENERGY: 1200000 1.5531 4.9145 3.6694 0.0000 -10810.6332 1589.2557 0.0000 0.0000 1754.4332 -7456.8074 300.9103 -9211.2406 -7432.7603 299.7679 1346.9431 1435.0708 29347.2434 69.5006 137.7635
ENERGY: 1500000 2.3790 9.6273 3.3304 0.0000 -10500.4313 1372.9593 0.0000 0.0000 1735.1939 -7376.9415 297.6105 -9112.1354 -7428.8343 299.8704 -657.4385 -577.5179 30387.7202 38.0270 110.3206
TCL: Running FEP window   4: Lambda1 0.15000000000000002 Lambda2 0.2    [dLambda 0.04999999999999999]
TCL: Setting parameter firsttimestep to 0
TCL: Setting parameter alchLambda to 0.15000000000000002
Info: NONBONDED TABLE R-SQUARED SPACING: 0.0625
Info: NONBONDED TABLE SIZE: 705 POINTS
TCL: Setting parameter alchLambda2 to 0.2
Info: NONBONDED TABLE R-SQUARED SPACING: 0.0625
Info: NONBONDED TABLE SIZE: 705 POINTS
TCL: Running for 1500000 steps
ETITLE: TS BOND ANGLE DIHED IMPRP ELECT VDW BOUNDARY MISC KINETIC TOTAL TEMP POTENTIAL TOTALAVG TEMPAVG PRESSURE GPRESSURE VOLUME PRESSAVG GPRESSAVG
ENERGY: 0 2.3790 9.6273 3.3304 0.0000 -10500.4310 1375.2601 0.0000 0.0000 1734.2820 -7375.5523 297.4541 -9109.8343 -7375.5523 297.4541 -641.4660 -562.9096 30387.7202 -641.4660 -562.9096
ENERGY: 300000 0.9282 5.6410 4.0930 0.0000 -10662.8302 1515.6511 0.0000 0.0000 1739.4756 -7397.0412 298.3449 -9136.5168 -7458.0229 295.0431 648.1841 729.4459 30064.6339 33.0402 98.3780
ENERGY: 600000 2.3839 2.9545 1.4078 0.0000 -10509.6483 1355.3166 0.0000 0.0000 1792.8075 -7354.7780 307.4921 -9147.5856 -7435.1937 300.3786 -553.9796 -496.1412 30144.3678 103.9264 169.5339
ENERGY: 900000 2.6417 6.3183 1.4683 0.0000 -10698.2398 1518.7720 0.0000 0.0000 1763.2875 -7405.7519 302.4290 -9169.0394 -7426.4998 302.3598 690.4372 698.6473 30031.7142 227.5268 278.0199
ENERGY: 1200000 1.5249 5.1705 1.6906 0.0000 -10547.5091 1365.1254 0.0000 0.0000 1777.8839 -7396.1139 304.9325 -9173.9977 -7426.4731 301.5091 -704.3177 -638.1868 30348.3034 101.4231 150.9343
ENERGY: 1500000 2.9847 4.4278 4.8701 0.0000 -10761.8338 1469.1116 0.0000 0.0000 1757.4591 -7522.9804 301.4293 -9280.4396 -7429.9523 300.7739 249.1818 268.0047 29727.2310 54.6995 103.5615
TCL: Running FEP window   5: Lambda1 0.2    Lambda2 0.25   [dLambda 0.04999999999999999]
TCL: Setting parameter firsttimestep to 0
TCL: Setting parameter alchLambda to 0.2
Info: NONBONDED TABLE R-SQUARED SPACING: 0.0625
Info: NONBONDED TABLE SIZE: 705 POINTS
TCL: Setting parameter alchLambda2 to 0.25
Info: NONBONDED TABLE R-SQUARED SPACING: 0.0625
Info: NONBONDED TABLE SIZE: 705 POINTS
TCL: Running for 1500000 steps
ETITLE: TS BOND ANGLE DIHED IMPRP ELECT VDW BOUNDARY MISC KINETIC TOTAL TEMP POTENTIAL TOTALAVG TEMPAVG PRESSURE GPRESSURE VOLUME PRESSAVG GPRESSAVG
ENERGY: 0 2.9847 4.4278 4.8701 0.0000 -10761.8341 1468.9311 0.0000 0.0000 1756.5557 -7524.0647 301.2744 -9280.6204 -7524.0647 301.2744 186.9243 268.5369 29727.2310 186.9243 268.5369
ENERGY: 300000 5.0075 5.1164 1.8810 0.0000 -10622.7238 1378.7797 0.0000 0.0000 1697.5680 -7534.3711 291.1571 -9231.9391 -7488.2850 295.7454 -799.8965 -714.8887 30258.8486 -344.2475 -284.2196
ENERGY: 600000 1.7749 6.7813 3.0310 0.0000 -10831.0875 1528.0073 0.0000 0.0000 1750.7972 -7540.6959 300.2867 -9291.4931 -7484.2656 296.1836 497.2978 621.9424 29456.4103 -36.5134 39.2118
ENERGY: 900000 2.1903 8.2386 1.9333 0.0000 -10573.3728 1435.4866 0.0000 0.0000 1754.4558 -7371.0682 300.9142 -9125.5240 -7460.1012 297.5799 434.3170 490.1602 29717.9223 -175.5353 -113.7345
ENERGY: 1200000 2.6410 4.6785 1.4816 0.0000 -10572.4481 1471.5535 0.0000 0.0000 1766.9754 -7325.1182 303.0615 -9092.0935 -7451.9978 298.0583 853.1158 855.8228 29769.3660 -176.9243 -119.4543
ENERGY: 1500000 3.8530 7.9071 1.5287 0.0000 -10729.0068 1461.6501 0.0000 0.0000 1762.1370 -7491.9310 302.2317 -9254.0680 -7451.4441 298.2761 -140.3802 -56.5115 30026.1346 -165.8578 -107.5006
TCL: Running FEP window   6: Lambda1 0.25   Lambda2 0.3    [dLambda 0.04999999999999999]
TCL: Setting parameter firsttimestep to 0
TCL: Setting parameter alchLambda to 0.25
Info: NONBONDED TABLE R-SQUARED SPACING: 0.0625
Info: NONBONDED TABLE SIZE: 705 POINTS
TCL: Setting parameter alchLambda2 to 0.3
Info: NONBONDED TABLE R-SQUARED SPACING: 0.0625
Info: NONBONDED TABLE SIZE: 705 POINTS
TCL: Running for 1500000 steps
ETITLE: TS BOND ANGLE DIHED IMPRP ELECT VDW BOUNDARY MISC KINETIC TOTAL TEMP POTENTIAL TOTALAVG TEMPAVG PRESSURE GPRESSURE VOLUME PRESSAVG GPRESSAVG
ENERGY: 0 3.8530 7.9071 1.5287 0.0000 -10729.0064 1461.5826 0.0000 0.0000 1761.3353 -7492.7998 302.0941 -9254.1350 -7492.7998 302.0941 -124.7347 -53.1518 30026.1346 -124.7347 -53.1518
ENERGY: 300000 3.9532 3.6646 1.3599 0.0000 -10625.4645 1450.4132 0.0000 0.0000 1730.6753 -7435.3983 296.8355 -9166.0736 -7467.3969 297.4971 -33.5020 8.0426 30266.3714 -298.4386 -246.9880
ENERGY: 600000 2.0264 8.3974 1.5736 0.0000 -10586.6069 1428.5880 0.0000 0.0000 1800.1673 -7345.8543 308.7544 -9146.0216 -7443.5917 300.2788 11.5667 101.0697 30164.7781 -83.6456 -13.2418
ENERGY: 900000 2.6675 4.3015 1.9298 0.0000 -10564.9420 1394.0455 0.0000 0.0000 1714.6398 -7447.3579 294.0852 -9161.9977 -7448.2728 299.2336 -552.3762 -526.2701 30542.3941 -173.4036 -98.2356
ENERGY: 1200000 2.2048 6.5361 1.7673 0.0000 -10639.0950 1478.9891 0.0000 0.0000 1729.8943 -7419.7033 296.7016 -9149.5976 -7439.5176 299.1464 607.1207 636.0614 29570.8178 -83.1278 -11.7325
ENERGY: 1500000 2.2458 3.4347 2.5655 0.0000 -10504.5475 1395.6817 0.0000 0.0000 1760.1022 -7340.5178 301.8827 -9100.6199 -7439.9236 299.3729 -206.9852 -148.9572 30502.8463 -93.5160 -25.5687
TCL: Running FEP window   7: Lambda1 0.3    Lambda2 0.35   [dLambda 0.04999999999999999]
TCL: Setting parameter firsttimestep to 0
TCL: Setting parameter alchLambda to 0.3
Info: NONBONDED TABLE R-SQUARED SPACING: 0.0625
Info: NONBONDED TABLE SIZE: 705 POINTS
TCL: Setting parameter alchLambda2 to 0.35
Info: NONBONDED TABLE R-SQUARED SPACING: 0.0625
Info: NONBONDED TABLE SIZE: 705 POINTS
TCL: Running for 1500000 steps
ETITLE: TS BOND ANGLE DIHED IMPRP ELECT VDW BOUNDARY MISC KINETIC TOTAL TEMP POTENTIAL TOTALAVG TEMPAVG PRESSURE GPRESSURE VOLUME PRESSAVG GPRESSAVG
ENERGY: 0 2.2458 3.4347 2.5655 0.0000 -10504.5472 1395.4971 0.0000 0.0000 1759.2288 -7341.5755 301.7329 -9100.8043 -7341.5755 301.7329 -225.2625 -146.5358 30502.8463 -225.2625 -146.5358
ENERGY: 300000 1.2231 5.8509 1.0018 0.0000 -10588.5338 1457.5056 0.0000 0.0000 1720.6231 -7402.3292 295.1114 -9122.9523 -7365.9246 301.9461 301.6400 379.5755 29989.1583 -132.5664 -46.3528
ENERGY: 600000 2.9223 6.6339 5.2564 0.0000 -10747.5246 1484.4447 0.0000 0.0000 1716.9917 -7531.2757 294.4886 -9248.2674 -7389.4974 301.7988 -113.3126 -5.3794 30141.9884 -63.6694 14.4953
ENERGY: 900000 1.8229 4.7749 2.4178 0.0000 -10470.6252 1301.8266 0.0000 0.0000 1821.9750 -7337.8080 312.4947 -9159.7830 -7381.3016 303.3636 -944.7812 -907.0142 30228.4157 -200.4331 -129.2873
ENERGY: 1200000 3.8705 8.5693 2.4010 0.0000 -10554.3201 1401.4727 0.0000 0.0000 1780.6793 -7357.3273 305.4119 -9138.0066 -7387.5375 302.7352 -282.5570 -288.8600 30359.5723 -207.1336 -147.0947
ENERGY: 1500000 3.4704 7.1929 1.5392 0.0000 -10783.6037 1512.2425 0.0000 0.0000 1798.6754 -7460.4834 308.4985 -9259.1588 -7390.9017 302.9954 682.7797 729.9698 29492.4596 -127.3314 -65.8569
TCL: Running FEP window   8: Lambda1 0.35   Lambda2 0.39999999999999997 [dLambda 0.04999999999999999]
TCL: Setting parameter firsttimestep to 0
TCL: Setting parameter alchLambda to 0.35
Info: NONBONDED TABLE R-SQUARED SPACING: 0.0625
Info: NONBONDED TABLE SIZE: 705 POINTS
TCL: Setting parameter alchLambda2 to 0.39999999999999997
Info: NONBONDED TABLE R-SQUARED SPACING: 0.0625
Info: NONBONDED TABLE SIZE: 705 POINTS
TCL: Running for 1500000 steps
ETITLE: TS BOND ANGLE DIHED IMPRP ELECT VDW BOUNDARY MISC KINETIC TOTAL TEMP POTENTIAL TOTALAVG TEMPAVG PRESSURE GPRESSURE VOLUME PRESSAVG GPRESSAVG
ENERGY: 0 3.4704 7.1929 1.5392 0.0000 -10783.6033 1512.1562 0.0000 0.0000 1797.8247 -7461.4199 308.3526 -9259.2446 -7461.4199 308.3526 650.3415 733.5543 29492.4596 650.3415 733.5543
ENERGY: 300000 3.6021 4.3721 2.1258 0.0000 -10473.1990 1349.4287 0.0000 0.0000 1715.9757 -7397.6946 294.3143 -9113.6703 -7417.0383 299.9132 -911.1008 -834.7447 30886.1974 188.0822 253.5022
ENERGY: 600000 5.7857 6.8444 2.0245 0.0000 -10620.6498 1461.5594 0.0000 0.0000 1806.4037 -7338.0322 309.8240 -9144.4359 -7407.3478 299.7075 233.1174 306.3859 30123.5161 54.8944 124.3911
ENERGY: 900000 2.0655 8.7663 2.7618 0.0000 -10688.6156 1506.0163 0.0000 0.0000 1762.3491 -7406.6565 302.2680 -9169.0056 -7410.7217 299.4403 530.0496 594.9174 30147.8339 153.3191 224.3176
ENERGY: 1200000 4.5988 7.6941 2.9290 0.0000 -10556.7010 1413.5127 0.0000 0.0000 1758.3707 -7369.5956 301.5857 -9127.9663 -7405.1452 299.5110 -174.4477 -105.3653 30419.5017 55.0494 121.1044
ENERGY: 1500000 1.0118 3.8973 2.7816 0.0000 -10674.1375 1473.1052 0.0000 0.0000 1744.3367 -7449.0049 299.1786 -9193.3416 -7421.3256 298.7109 711.0708 671.5347 29416.4909 79.4034 135.9397
TCL: Running FEP window   9: Lambda1 0.39999999999999997 Lambda2 0.44999999999999996 [dLambda 0.04999999999999999]
TCL: Setting parameter firsttimestep to 0
TCL: Setting parameter alchLambda to 0.39999999999999997
Info: NONBONDED TABLE R-SQUARED SPACING: 0.0625
Info: NONBONDED TABLE SIZE: 705 POINTS
TCL: Setting parameter alchLambda2 to 0.44999999999999996
Info: NONBONDED TABLE R-SQUARED SPACING: 0.0625
Info: NONBONDED TABLE SIZE: 705 POINTS
TCL: Running for 1500000 steps
ETITLE: TS BOND ANGLE DIHED IMPRP ELECT VDW BOUNDARY MISC KINETIC TOTAL TEMP POTENTIAL TOTALAVG TEMPAVG PRESSURE GPRESSURE VOLUME PRESSAVG GPRESSAVG
ENERGY: 0 1.0118 3.8973 2.7816 0.0000 -10674.1390 1474.9460 0.0000 0.0000 1743.4431 -7448.0592 299.0254 -9191.5023 -7448.0592 299.0254 608.3343 693.0941 29416.4909 608.3343 693.0941
ENERGY: 300000 5.0634 4.4516 1.9088 0.0000 -10566.1426 1385.6759 0.0000 0.0000 1758.5980 -7410.4449 301.6247 -9169.0429 -7412.5177 298.1461 -446.2312 -317.3023 29896.4203 211.1468 302.4605
ENERGY: 600000 1.1185 4.9317 3.3019 0.0000 -10837.5147 1584.0137 0.0000 0.0000 1730.0293 -7514.1196 296.7247 -9244.1488 -7428.1476 299.9466 1060.8336 1171.0938 29878.5259 258.0705 353.4442
ENERGY: 900000 3.3221 10.8393 2.7492 0.0000 -10496.6359 1373.3181 0.0000 0.0000 1745.2743 -7361.1331 299.3395 -9106.4073 -7424.7739 298.6965 -184.5959 -174.2210 30370.8716 79.2871 162.1055
ENERGY: 1200000 3.7055 4.3605 3.1813 0.0000 -10719.1204 1485.3162 0.0000 0.0000 1771.8821 -7450.6748 303.9031 -9222.5569 -7425.1287 299.6682 328.7905 385.1486 29902.4818 131.4986 206.4642
ENERGY: 1500000 2.6344 6.0726 2.7672 0.0000 -10570.3541 1442.3229 0.0000 0.0000 1712.0648 -7404.4920 293.6436 -9116.5568 -7420.8714 299.7010 94.6858 112.8772 30276.1006 164.4092 234.8310
TCL: Running FEP window  10: Lambda1 0.44999999999999996 Lambda2 0.49999999999999994 [dLambda 0.04999999999999999]
TCL: Setting parameter firsttimestep to 0
TCL: Setting parameter alchLambda to 0.44999999999999996
Info: NONBONDED TABLE R-SQUARED SPACING: 0.0625
Info: NONBONDED TABLE SIZE: 705 POINTS
TCL: Setting parameter alchLambda2 to 0.49999999999999994
Info: NONBONDED TABLE R-SQUARED SPACING: 0.0625
Info: NONBONDED TABLE SIZE: 705 POINTS
TCL: Running for 1500000 steps
ETITLE: TS BOND ANGLE DIHED IMPRP ELECT VDW BOUNDARY MISC KINETIC TOTAL TEMP POTENTIAL TOTALAVG TEMPAVG PRESSURE GPRESSURE VOLUME PRESSAVG GPRESSAVG
ENERGY: 0 2.6344 6.0726 2.7672 0.0000 -10570.3535 1442.4134 0.0000 0.0000 1711.1918 -7405.2740 293.4938 -9116.4658 -7405.2740 293.4938 49.7099 121.8867 30276.1006 49.7099 121.8867
ENERGY: 300000 2.5158 5.6629 2.6188 0.0000 -10590.7897 1443.9693 0.0000 0.0000 1768.5023 -7367.5205 303.3234 -9136.0228 -7382.6786 300.8963 331.0793 388.5862 29864.1908 26.1181 65.5181
ENERGY: 600000 1.4557 5.3797 2.2939 0.0000 -10617.7323 1454.9175 0.0000 0.0000 1746.8750 -7406.8104 299.6140 -9153.6854 -7388.9776 300.0859 151.0837 303.8793 30129.7986 -123.0082 -53.9762
ENERGY: 900000 4.5592 6.2858 1.1653 0.0000 -10655.6015 1481.2952 0.0000 0.0000 1742.6903 -7419.6058 298.8963 -9162.2961 -7391.1861 300.0091 188.4152 248.9110 30455.7915 -74.5478 -8.0369
ENERGY: 1200000 2.0069 4.9360 1.4853 0.0000 -10616.8300 1421.3464 0.0000 0.0000 1773.7833 -7413.2721 304.2292 -9187.0555 -7389.7242 299.9871 -138.5562 -83.2616 30233.3848 -32.5516 31.4837
ENERGY: 1500000 1.0917 4.7808 2.5991 0.0000 -10490.7752 1347.1156 0.0000 0.0000 1827.9081 -7307.2798 313.5123 -9135.1880 -7386.2335 301.0211 -728.3495 -627.9236 30439.1836 -60.3545 3.0582
TCL: Running FEP window  11: Lambda1 0.49999999999999994 Lambda2 0.5499999999999999 [dLambda 0.04999999999999999]
TCL: Setting parameter firsttimestep to 0
TCL: Setting parameter alchLambda to 0.49999999999999994
Info: NONBONDED TABLE R-SQUARED SPACING: 0.0625
Info: NONBONDED TABLE SIZE: 705 POINTS
TCL: Setting parameter alchLambda2 to 0.5499999999999999
Info: NONBONDED TABLE R-SQUARED SPACING: 0.0625
Info: NONBONDED TABLE SIZE: 705 POINTS
TCL: Running for 1500000 steps
ETITLE: TS BOND ANGLE DIHED IMPRP ELECT VDW BOUNDARY MISC KINETIC TOTAL TEMP POTENTIAL TOTALAVG TEMPAVG PRESSURE GPRESSURE VOLUME PRESSAVG GPRESSAVG
ENERGY: 0 1.0917 4.7808 2.5991 0.0000 -10490.7752 1346.5561 0.0000 0.0000 1827.0327 -7308.7148 313.3622 -9135.7475 -7308.7148 313.3622 -718.6172 -629.8228 30439.1836 -718.6172 -629.8228
ENERGY: 300000 1.8323 7.4395 1.7509 0.0000 -10527.2396 1417.2243 0.0000 0.0000 1728.8811 -7370.1114 296.5278 -9098.9926 -7371.7967 301.4402 18.5033 15.3201 30207.0498 96.3210 136.1802
ENERGY: 600000 4.7703 8.8202 4.5053 0.0000 -10516.2991 1399.4857 0.0000 0.0000 1729.3934 -7369.3241 296.6157 -9098.7175 -7384.9761 299.0733 -276.7936 -216.5540 30595.8852 71.5389 114.9558
ENERGY: 900000 3.2917 3.8424 4.0988 0.0000 -10565.2347 1427.4664 0.0000 0.0000 1720.1093 -7406.4261 295.0233 -9126.5354 -7398.1980 300.2393 19.8828 -3.3776 30274.6067 91.5503 144.8736
ENERGY: 1200000 1.1893 8.8947 1.6343 0.0000 -10638.3176 1418.6848 0.0000 0.0000 1722.0245 -7485.8900 295.3518 -9207.9145 -7413.9344 298.3688 -271.4236 -177.1861 30116.6274 -33.7962 21.8896
ENERGY: 1500000 2.0047 2.7700 2.1169 0.0000 -10639.0317 1417.4951 0.0000 0.0000 1757.1376 -7457.5075 301.3742 -9214.6451 -7406.3646 298.8366 -203.4231 -114.6846 30078.8940 -65.9185 -7.8037
TCL: Running FEP window  12: Lambda1 0.5499999999999999 Lambda2 0.6    [dLambda 0.050000000000000044]
TCL: Setting parameter firsttimestep to 0
TCL: Setting parameter alchLambda to 0.5499999999999999
Info: NONBONDED TABLE R-SQUARED SPACING: 0.0625
Info: NONBONDED TABLE SIZE: 705 POINTS
TCL: Setting parameter alchLambda2 to 0.6
Info: NONBONDED TABLE R-SQUARED SPACING: 0.0625
Info: NONBONDED TABLE SIZE: 705 POINTS
TCL: Running for 1500000 steps
ETITLE: TS BOND ANGLE DIHED IMPRP ELECT VDW BOUNDARY MISC KINETIC TOTAL TEMP POTENTIAL TOTALAVG TEMPAVG PRESSURE GPRESSURE VOLUME PRESSAVG GPRESSAVG
ENERGY: 0 2.0047 2.7700 2.1169 0.0000 -10639.0164 1417.3054 0.0000 0.0000 1756.2334 -7458.5860 301.2191 -9214.8195 -7458.5860 301.2191 -195.5358 -110.6272 30078.8940 -195.5358 -110.6272
ENERGY: 300000 2.6111 5.8756 2.1127 0.0000 -10504.6627 1332.6885 0.0000 0.0000 1682.4536 -7478.9213 288.5648 -9161.3748 -7417.5549 302.7019 -850.7386 -770.8119 30162.2473 -593.3513 -487.2235
ENERGY: 600000 5.7441 7.5032 2.4861 0.0000 -10639.9155 1434.3916 0.0000 0.0000 1741.7081 -7448.0823 298.7278 -9189.7904 -7437.4941 300.8017 -205.8593 -221.4492 30187.1458 -462.2921 -380.2479
ENERGY: 900000 2.3073 4.2871 0.6806 0.0000 -10834.6132 1558.0945 0.0000 0.0000 1748.4572 -7520.7865 299.8854 -9269.2436 -7437.3220 300.4339 893.2625 862.0290 29829.5825 -304.7244 -243.6668
ENERGY: 1200000 2.1299 4.1758 1.4612 0.0000 -10617.8331 1460.5155 0.0000 0.0000 1744.6820 -7404.8688 299.2379 -9149.5507 -7436.9015 299.4909 413.0836 490.0353 29871.5415 -194.0946 -125.8805
ENERGY: 1500000 1.6471 9.7921 2.9207 0.0000 -10599.3658 1415.8967 0.0000 0.0000 1769.3337 -7399.7755 303.4660 -9169.1091 -7436.1495 299.9940 94.3840 145.8698 29937.4375 -162.0130 -98.7670
TCL: Running FEP window  13: Lambda1 0.6    Lambda2 0.65   [dLambda 0.050000000000000044]
TCL: Setting parameter firsttimestep to 0
TCL: Setting parameter alchLambda to 0.6
Info: NONBONDED TABLE R-SQUARED SPACING: 0.0625
Info: NONBONDED TABLE SIZE: 705 POINTS
TCL: Setting parameter alchLambda2 to 0.65
Info: NONBONDED TABLE R-SQUARED SPACING: 0.0625
Info: NONBONDED TABLE SIZE: 705 POINTS
TCL: Running for 1500000 steps
ETITLE: TS BOND ANGLE DIHED IMPRP ELECT VDW BOUNDARY MISC KINETIC TOTAL TEMP POTENTIAL TOTALAVG TEMPAVG PRESSURE GPRESSURE VOLUME PRESSAVG GPRESSAVG
ENERGY: 0 1.6471 9.7921 2.9207 0.0000 -10599.8271 1415.7620 0.0000 0.0000 1768.4583 -7401.2469 303.3158 -9169.7051 -7401.2469 303.3158 59.0067 152.7442 29937.4375 59.0067 152.7442
ENERGY: 300000 2.3282 11.7449 6.7191 0.0000 -10661.4058 1466.1464 0.0000 0.0000 1738.6100 -7435.8572 298.1964 -9174.4672 -7426.3199 298.9175 218.7180 243.0703 30521.8355 33.6101 60.0455
ENERGY: 600000 1.7476 6.0827 2.5160 0.0000 -10555.0761 1407.5516 0.0000 0.0000 1795.6697 -7341.5085 307.9830 -9137.1782 -7418.7580 301.0580 -9.3438 56.3767 30028.2394 -71.1139 -32.0882
ENERGY: 900000 3.2079 5.9669 1.6875 0.0000 -10599.3903 1458.6442 0.0000 0.0000 1728.5606 -7401.3232 296.4728 -9129.8838 -7410.9335 300.8901 358.0460 390.9038 29917.1671 49.8843 90.5405
ENERGY: 1200000 2.6431 6.2691 2.2392 0.0000 -10599.2971 1444.9501 0.0000 0.0000 1756.8261 -7386.3695 301.3208 -9143.1956 -7415.7144 300.9101 113.2755 171.9215 29966.1198 25.1119 80.8661
ENERGY: 1500000 2.3817 4.2958 1.4957 0.0000 -10707.7266 1498.5903 0.0000 0.0000 1700.0656 -7500.8975 291.5855 -9200.9631 -7420.3932 299.8245 447.3625 475.3048 29954.8010 33.7919 86.2970
TCL: Running FEP window  14: Lambda1 0.65   Lambda2 0.7000000000000001 [dLambda 0.050000000000000044]
TCL: Setting parameter firsttimestep to 0
TCL: Setting parameter alchLambda to 0.65
Info: NONBONDED TABLE R-SQUARED SPACING: 0.0625
Info: NONBONDED TABLE SIZE: 705 POINTS
TCL: Setting parameter alchLambda2 to 0.7000000000000001
Info: NONBONDED TABLE R-SQUARED SPACING: 0.0625
Info: NONBONDED TABLE SIZE: 705 POINTS
TCL: Running for 1500000 steps
ETITLE: TS BOND ANGLE DIHED IMPRP ELECT VDW BOUNDARY MISC KINETIC TOTAL TEMP POTENTIAL TOTALAVG TEMPAVG PRESSURE GPRESSURE VOLUME PRESSAVG GPRESSAVG
ENERGY: 0 2.3817 4.2958 1.4957 0.0000 -10707.8495 1498.6313 0.0000 0.0000 1699.2078 -7501.8373 291.4384 -9201.0450 -7501.8373 291.4384 400.8891 485.5083 29954.8010 400.8891 485.5083
ENERGY: 300000 2.8846 6.6236 0.3321 0.0000 -10600.1830 1370.8935 0.0000 0.0000 1745.8579 -7473.5912 299.4396 -9219.4492 -7448.0304 294.9832 -519.9157 -450.0443 29940.6797 -326.8493 -221.9348
ENERGY: 600000 2.3116 8.7565 0.4509 0.0000 -10658.0319 1452.5699 0.0000 0.0000 1805.2881 -7388.6549 309.6327 -9193.9430 -7440.8209 297.7635 127.4340 146.3047 30199.6882 -267.8001 -188.9418
ENERGY: 900000 3.2939 4.5071 2.0979 0.0000 -10493.3868 1292.4501 0.0000 0.0000 1737.0695 -7453.9683 297.9322 -9191.0378 -7438.1774 297.9886 -1118.7217 -1055.6352 30241.9083 -201.8882 -123.6017
ENERGY: 1200000 3.1469 4.9859 3.5799 0.0000 -10687.6228 1541.8684 0.0000 0.0000 1785.0477 -7348.9940 306.1612 -9134.0417 -7422.6150 299.1027 987.1661 1041.0568 30019.0585 -15.5541 59.8625
ENERGY: 1500000 0.9024 4.8242 3.5824 0.0000 -10603.4234 1461.9610 0.0000 0.0000 1754.2205 -7377.9329 300.8739 -9132.1534 -7423.1869 299.4764 107.0575 199.0164 30639.6812 -69.6261 5.4590
TCL: Running FEP window  15: Lambda1 0.7000000000000001 Lambda2 0.7500000000000001 [dLambda 0.050000000000000044]
TCL: Setting parameter firsttimestep to 0
TCL: Setting parameter alchLambda to 0.7000000000000001
Info: NONBONDED TABLE R-SQUARED SPACING: 0.0625
Info: NONBONDED TABLE SIZE: 705 POINTS
TCL: Setting parameter alchLambda2 to 0.7500000000000001
Info: NONBONDED TABLE R-SQUARED SPACING: 0.0625
Info: NONBONDED TABLE SIZE: 705 POINTS
TCL: Running for 1500000 steps
ETITLE: TS BOND ANGLE DIHED IMPRP ELECT VDW BOUNDARY MISC KINETIC TOTAL TEMP POTENTIAL TOTALAVG TEMPAVG PRESSURE GPRESSURE VOLUME PRESSAVG GPRESSAVG
ENERGY: 0 0.9024 4.8242 3.5824 0.0000 -10603.8014 1461.4521 0.0000 0.0000 1753.3759 -7379.6643 300.7290 -9133.0403 -7379.6643 300.7290 122.8791 199.7951 30639.6812 122.8791 199.7951
ENERGY: 300000 2.4889 4.9292 3.9525 0.0000 -10458.2068 1364.3045 0.0000 0.0000 1767.0481 -7315.4836 303.0740 -9082.5317 -7329.9196 303.5427 -662.9642 -564.5734 30708.3634 -70.6821 11.1604
ENERGY: 600000 3.0543 5.0993 2.7423 0.0000 -10559.9593 1437.1182 0.0000 0.0000 1699.6584 -7412.2868 291.5157 -9111.9452 -7359.5774 300.8513 -123.2867 -30.5871 30369.7746 -9.9691 65.0109
ENERGY: 900000 2.0778 4.8683 1.5703 0.0000 -10764.1717 1513.2682 0.0000 0.0000 1769.7680 -7472.6190 303.5405 -9242.3871 -7369.2660 301.8914 353.6745 395.9764 30261.6558 -80.5928 -16.3576
ENERGY: 1200000 5.0393 4.8714 1.6921 0.0000 -10715.0087 1455.9375 0.0000 0.0000 1785.1553 -7462.3130 306.1796 -9247.4684 -7370.1952 301.9440 60.7306 98.4414 29953.0936 -98.4051 -37.3346
ENERGY: 1500000 7.3204 4.4222 2.6088 0.0000 -10616.8518 1399.2810 0.0000 0.0000 1740.6529 -7462.5664 298.5468 -9203.2194 -7372.2162 302.6504 -302.6250 -248.9348 30124.6375 -149.3353 -83.5549
TCL: Running FEP window  16: Lambda1 0.7500000000000001 Lambda2 0.8000000000000002 [dLambda 0.050000000000000044]
TCL: Setting parameter firsttimestep to 0
TCL: Setting parameter alchLambda to 0.7500000000000001
Info: NONBONDED TABLE R-SQUARED SPACING: 0.0625
Info: NONBONDED TABLE SIZE: 705 POINTS
TCL: Setting parameter alchLambda2 to 0.8000000000000002
Info: NONBONDED TABLE R-SQUARED SPACING: 0.0625
Info: NONBONDED TABLE SIZE: 705 POINTS
TCL: Running for 1500000 steps
ETITLE: TS BOND ANGLE DIHED IMPRP ELECT VDW BOUNDARY MISC KINETIC TOTAL TEMP POTENTIAL TOTALAVG TEMPAVG PRESSURE GPRESSURE VOLUME PRESSAVG GPRESSAVG
ENERGY: 0 7.3204 4.4222 2.6088 0.0000 -10617.4019 1399.4952 0.0000 0.0000 1739.7691 -7463.7861 298.3952 -9203.5552 -7463.7861 298.3952 -321.1958 -237.9043 30124.6375 -321.1958 -237.9043
ENERGY: 300000 1.9571 3.5315 2.4889 0.0000 -10608.0299 1459.2755 0.0000 0.0000 1783.3068 -7357.4701 305.8626 -9140.7770 -7417.4170 301.3738 29.9811 129.7152 30868.3746 -38.3902 45.0960
ENERGY: 600000 3.0325 7.6722 1.5664 0.0000 -10632.6408 1458.6866 0.0000 0.0000 1696.1104 -7465.5729 290.9072 -9161.6833 -7421.3221 299.3431 274.9678 311.2977 30074.8695 109.4347 185.5227
ENERGY: 900000 3.6786 3.5625 1.1488 0.0000 -10758.8817 1514.2009 0.0000 0.0000 1750.9618 -7485.3292 300.3149 -9236.2910 -7435.3148 299.1910 516.5207 563.5315 30441.0149 99.1963 169.8908
ENERGY: 1200000 1.5295 10.2676 3.3801 0.0000 -10538.8288 1382.6280 0.0000 0.0000 1753.8050 -7387.2186 300.8026 -9141.0235 -7435.6628 298.9136 -445.7610 -333.9386 30387.0574 63.7551 137.0277
ENERGY: 1500000 1.9176 6.4056 2.9955 0.0000 -10605.8859 1397.1114 0.0000 0.0000 1799.9813 -7397.4744 308.7225 -9197.4557 -7431.3639 299.1585 -384.2664 -306.6947 30272.6455 28.4613 101.2535
TCL: Running FEP window  17: Lambda1 0.8000000000000002 Lambda2 0.8500000000000002 [dLambda 0.050000000000000044]
TCL: Setting parameter firsttimestep to 0
TCL: Setting parameter alchLambda to 0.8000000000000002
Info: NONBONDED TABLE R-SQUARED SPACING: 0.0625
Info: NONBONDED TABLE SIZE: 705 POINTS
TCL: Setting parameter alchLambda2 to 0.8500000000000002
Info: NONBONDED TABLE R-SQUARED SPACING: 0.0625
Info: NONBONDED TABLE SIZE: 705 POINTS
TCL: Running for 1500000 steps
ETITLE: TS BOND ANGLE DIHED IMPRP ELECT VDW BOUNDARY MISC KINETIC TOTAL TEMP POTENTIAL TOTALAVG TEMPAVG PRESSURE GPRESSURE VOLUME PRESSAVG GPRESSAVG
ENERGY: 0 1.9176 6.4056 2.9955 0.0000 -10606.3812 1396.4739 0.0000 0.0000 1799.0697 -7399.5188 308.5661 -9198.5885 -7399.5188 308.5661 -385.3561 -305.3108 30272.6455 -385.3561 -305.3108
ENERGY: 300000 1.9216 2.2240 2.6071 0.0000 -10628.4014 1447.7010 0.0000 0.0000 1786.8854 -7387.0622 306.4764 -9173.9476 -7391.0023 303.6394 182.2141 270.6138 30196.5337 148.9175 228.8884
ENERGY: 600000 2.3132 3.1748 2.0523 0.0000 -10442.4488 1381.7035 0.0000 0.0000 1730.1746 -7323.0304 296.7496 -9053.2050 -7392.5286 301.4270 -172.7778 -89.3859 30440.9519 -109.1562 -34.4015
ENERGY: 900000 0.6638 3.0050 1.9014 0.0000 -10583.6816 1379.2914 0.0000 0.0000 1783.0684 -7415.7517 305.8217 -9198.8201 -7403.6013 301.1728 -470.2687 -423.2361 30354.9097 -196.3235 -129.2718
ENERGY: 1200000 2.4899 7.0799 4.4369 0.0000 -10642.5686 1427.8830 0.0000 0.0000 1729.6950 -7470.9839 296.6674 -9200.6790 -7406.9170 300.4537 0.1617 55.0765 30185.9884 -220.5710 -155.7150
ENERGY: 1500000 2.7566 3.8778 1.3795 0.0000 -10739.2186 1445.5168 0.0000 0.0000 1688.0910 -7597.5969 289.5317 -9285.6880 -7424.3393 299.2093 -15.5242 90.9936 29799.9265 -206.1433 -138.0347
TCL: Running FEP window  18: Lambda1 0.8500000000000002 Lambda2 0.9000000000000002 [dLambda 0.050000000000000044]
TCL: Setting parameter firsttimestep to 0
TCL: Setting parameter alchLambda to 0.8500000000000002
Info: NONBONDED TABLE R-SQUARED SPACING: 0.0625
Info: NONBONDED TABLE SIZE: 705 POINTS
TCL: Setting parameter alchLambda2 to 0.9000000000000002
Info: NONBONDED TABLE R-SQUARED SPACING: 0.0625
Info: NONBONDED TABLE SIZE: 705 POINTS
TCL: Running for 1500000 steps
ETITLE: TS BOND ANGLE DIHED IMPRP ELECT VDW BOUNDARY MISC KINETIC TOTAL TEMP POTENTIAL TOTALAVG TEMPAVG PRESSURE GPRESSURE VOLUME PRESSAVG GPRESSAVG
ENERGY: 0 2.7566 3.8778 1.3795 0.0000 -10740.0715 1445.5444 0.0000 0.0000 1687.2309 -7599.2824 289.3842 -9286.5133 -7599.2824 289.3842 6.9538 102.5706 29799.9265 6.9538 102.5706
ENERGY: 300000 4.1852 7.0971 2.8640 0.0000 -10806.0334 1532.0920 0.0000 0.0000 1779.3445 -7480.4506 305.1830 -9259.7950 -7444.2518 299.7040 536.1689 636.4362 30086.0503 -13.9472 49.2463
ENERGY: 600000 2.5629 5.3024 2.6393 0.0000 -10546.6654 1427.2116 0.0000 0.0000 1707.3265 -7401.6227 292.8309 -9108.9492 -7438.6438 297.9368 56.9285 154.1449 30429.7742 -152.6324 -87.3595
ENERGY: 900000 2.7518 6.3404 2.0323 0.0000 -10749.1340 1506.7000 0.0000 0.0000 1752.9955 -7478.3140 300.6638 -9231.3095 -7439.5070 298.5175 752.2849 814.3483 29609.4621 -78.6046 -9.3469
ENERGY: 1200000 1.7262 4.3324 0.8248 0.0000 -10753.9975 1500.5605 0.0000 0.0000 1759.3951 -7487.1584 301.7614 -9246.5536 -7440.2232 299.4572 717.1241 705.0720 30087.0128 12.1646 73.6705
ENERGY: 1500000 1.1163 4.7754 1.2352 0.0000 -10538.9172 1351.8958 0.0000 0.0000 1773.8409 -7406.0536 304.2390 -9179.8945 -7441.1996 299.3722 -434.8574 -341.2973 30151.9602 -27.3486 39.7488
TCL: Running FEP window  19: Lambda1 0.9000000000000002 Lambda2 0.9500000000000003 [dLambda 0.050000000000000044]
TCL: Setting parameter firsttimestep to 0
TCL: Setting parameter alchLambda to 0.9000000000000002
Info: NONBONDED TABLE R-SQUARED SPACING: 0.0625
Info: NONBONDED TABLE SIZE: 705 POINTS
TCL: Setting parameter alchLambda2 to 0.9500000000000003
Info: NONBONDED TABLE R-SQUARED SPACING: 0.0625
Info: NONBONDED TABLE SIZE: 705 POINTS
TCL: Running for 1500000 steps
ETITLE: TS BOND ANGLE DIHED IMPRP ELECT VDW BOUNDARY MISC KINETIC TOTAL TEMP POTENTIAL TOTALAVG TEMPAVG PRESSURE GPRESSURE VOLUME PRESSAVG GPRESSAVG
ENERGY: 0 1.1163 4.7754 1.2352 0.0000 -10539.6717 1351.8299 0.0000 0.0000 1772.9663 -7407.7486 304.0890 -9180.7149 -7407.7486 304.0890 -400.9067 -330.4368 30151.9602 -400.9067 -330.4368
ENERGY: 300000 2.6502 2.9500 0.7871 0.0000 -10669.8289 1479.5410 0.0000 0.0000 1710.6385 -7473.2621 293.3989 -9183.9006 -7438.7629 301.5800 366.9519 415.6430 29902.5871 -70.8694 -25.4820
ENERGY: 600000 2.8106 5.4386 2.3239 0.0000 -10627.4278 1420.6905 0.0000 0.0000 1736.1068 -7460.0574 297.7671 -9196.1642 -7440.6558 302.4173 -430.7534 -341.5408 30582.0496 23.4137 84.1161
ENERGY: 900000 0.9430 3.4293 1.6898 0.0000 -10748.7763 1469.3281 0.0000 0.0000 1739.2878 -7534.0984 298.3127 -9273.3862 -7435.2480 302.5961 97.8796 139.8954 30076.7654 -34.2835 27.0770
ENERGY: 1200000 1.7784 4.9934 1.6145 0.0000 -10721.5280 1509.1230 0.0000 0.0000 1803.6811 -7400.3377 309.3571 -9204.0188 -7438.1873 302.8766 573.3592 642.8741 29986.6068 -11.9226 58.0817
ENERGY: 1500000 5.2683 4.3644 3.6271 0.0000 -10671.5480 1466.6639 0.0000 0.0000 1755.3503 -7436.2740 301.0676 -9191.6243 -7434.7521 302.2109 387.6924 353.6071 30036.7757 15.5779 78.1180
TCL: Running FEP window  20: Lambda1 0.9500000000000003 Lambda2 1.0    [dLambda 0.04999999999999971]
TCL: Setting parameter firsttimestep to 0
TCL: Setting parameter alchLambda to 0.9500000000000003
Info: NONBONDED TABLE R-SQUARED SPACING: 0.0625
Info: NONBONDED TABLE SIZE: 705 POINTS
TCL: Setting parameter alchLambda2 to 1.0
Info: NONBONDED TABLE R-SQUARED SPACING: 0.0625
Info: NONBONDED TABLE SIZE: 705 POINTS
TCL: Running for 1500000 steps
ETITLE: TS BOND ANGLE DIHED IMPRP ELECT VDW BOUNDARY MISC KINETIC TOTAL TEMP POTENTIAL TOTALAVG TEMPAVG PRESSURE GPRESSURE VOLUME PRESSAVG GPRESSAVG
ENERGY: 0 5.2683 4.3644 3.6271 0.0000 -10673.2190 1468.5534 0.0000 0.0000 1754.5070 -7436.8988 300.9230 -9191.4058 -7436.8988 300.9230 315.8694 387.8267 30036.7757 315.8694 387.8267
ENERGY: 300000 4.9555 5.3672 2.7422 0.0000 -10528.1704 1347.0342 0.0000 0.0000 1738.8817 -7429.1895 298.2430 -9168.0713 -7397.8105 300.0009 -557.2668 -532.7855 30194.3567 7.5867 64.6504
ENERGY: 600000 2.2613 5.0246 2.0226 0.0000 -10575.9073 1420.6240 0.0000 0.0000 1712.4472 -7433.5276 293.7091 -9145.9748 -7402.0246 299.6541 -21.5564 -17.3009 30254.2846 -37.3376 15.2712
ENERGY: 900000 3.6175 6.2949 3.0803 0.0000 -10505.4594 1397.6593 0.0000 0.0000 1769.8115 -7324.9959 303.5479 -9094.8074 -7399.1030 299.7613 -227.7212 -111.6480 30416.0788 -80.3884 -17.6262
ENERGY: 1200000 3.9331 9.0808 3.8220 0.0000 -10599.3763 1387.8304 0.0000 0.0000 1791.7050 -7403.0050 307.3030 -9194.7100 -7399.7100 299.9639 -236.6312 -187.7390 30256.0488 -184.2481 -118.7816
ENERGY: 1500000 6.4964 2.8743 4.1578 0.0000 -10530.2069 1411.8739 0.0000 0.0000 1806.6884 -7298.1161 309.8729 -9104.8045 -7388.8870 301.0728 -75.2283 -5.8588 30148.8609 -148.9329 -88.0355
TCL: Exiting due to exit command.
