Info: SIMULATION PARAMETERS:
Info: TIMESTEP               2
Info: NUMBER OF STEPS        0
Info: STEPS PER CYCLE        10
Info: PERIODIC CELL BASIS 1  31.5997 0 0
Info: PERIODIC CELL BASIS 2  0 29.5324 0
Info: PERIODIC CELL BASIS 3  0 0 31.8718
Info: PERIODIC CELL CENTER   0 0 0
Info: WRAPPING WATERS AROUND PERIODIC BOUNDARIES ON OUTPUT.
Info: WRAPPING ALL CLUSTERS AROUND PERIODIC BOUNDARIES ON OUTPUT.
Info: FIRST LDB TIMESTEP     50
Info: LAST LDB TIMESTEP     -1
Info: HOM BACKGROUND SCALING 1
Info: PME BACKGROUND SCALING 1
Info: MIN ATOMS PER PATCH    40
Info: EMPTY PATCH LOAD       40 ATOMS
Info: VELOCITY FILE          mobley_9257453_equil.vel
Info: CENTER OF MASS MOVING INITIALLY? NO
Info: DIELECTRIC             1
Info: EXCLUDE                SCALED ONE-FOUR
Info: 1-4 ELECTROSTATICS SCALED BY 0.833333
Info: MODIFIED 1-4 VDW PARAMETERS WILL BE USED
Info: DCD FILENAME           mobley_9257453_prod.dcd
Info: DCD FREQUENCY          100000
Info: DCD FIRST STEP         100000
Info: DCD FILE WILL CONTAIN UNIT CELL DATA
Info: XST FILENAME           mobley_9257453_prod.xst
Info: XST FREQUENCY          100000
Info: NO VELOCITY DCD OUTPUT
Info: NO FORCE DCD OUTPUT
Info: OUTPUT FILENAME        mobley_9257453_prod
Info: BINARY OUTPUT FILES WILL BE USED
Info: RESTART FILENAME       mobley_9257453_prod.restart
Info: RESTART FREQUENCY      100000
Info: BINARY RESTART FILES WILL BE USED
Info: CUTOFF                 9
Info: PAIRLIST DISTANCE      11
Info: PAIRLIST SHRINK RATE   0.01
Info: PAIRLIST GROW RATE     0.01
Info: PAIRLIST TRIGGER       0.3
Info: PAIRLISTS PER CYCLE    2
Info: PAIRLISTS ENABLED
Info: MARGIN                 2
Info: HYDROGEN GROUP CUTOFF  2.5
Info: PATCH DIMENSION        15.5
Info: ENERGY OUTPUT STEPS    100000
Info: ENERGY EVALUATION STEPS    100000
Info: OUTPUT ENERGY PRECISION 4
Info: CROSSTERM ENERGY INCLUDED IN DIHEDRAL
Info: TIMING OUTPUT STEPS    1000000
Info: PRESSURE OUTPUT STEPS  100000
Info: ALCHEMICAL FEP ON
Info: FEP CURRENT LAMBDA VALUE     0
Info: FEP COMPARISON LAMBDA VALUE  0.05
Info: FEP INTRA-ALCHEMICAL NON-BONDED INTERACTIONS WILL BE RETAINED
Info: FEP INTRA-ALCHEMICAL BONDED INTERACTIONS WILL BE RETAINED
Info: FEP VDW SHIFTING COEFFICIENT 5
Info: FEP ELEC. ACTIVE FOR ANNIHILATED PARTICLES BETWEEN LAMBDA = 0 AND LAMBDA = 0.5
Info: FEP ELEC. ACTIVE FOR EXNIHILATED PARTICLES BETWEEN LAMBDA = 0.5 AND LAMBDA = 1
Info: FEP VDW ACTIVE FOR ANNIHILATED PARTICLES BETWEEN LAMBDA = 0 AND LAMBDA = 1
Info: FEP VDW ACTIVE FOR EXNIHILATED PARTICLES BETWEEN LAMBDA = 0 AND LAMBDA = 1
Info: FEP BOND ACTIVE FOR ANNIHILATED PARTICLES BETWEEN LAMBDA = 1 AND LAMBDA = 1
Info: FEP BOND ACTIVE FOR EXNIHILATED PARTICLES BETWEEN LAMBDA = 0 AND LAMBDA = 0
Info: LANGEVIN DYNAMICS ACTIVE
Info: LANGEVIN TEMPERATURE   300
Info: LANGEVIN USING BBK INTEGRATOR
Info: LANGEVIN DAMPING COEFFICIENT IS 1 INVERSE PS
Info: LANGEVIN DYNAMICS APPLIED TO HYDROGENS
Info: LANGEVIN PISTON PRESSURE CONTROL ACTIVE
Info:        TARGET PRESSURE IS 1.01325 BAR
Info:     OSCILLATION PERIOD IS 50 FS
Info:             DECAY TIME IS 25 FS
Info:     PISTON TEMPERATURE IS 300 K
Info:       PRESSURE CONTROL IS GROUP-BASED
Info:    INITIAL STRAIN RATE IS -0.000254296 -0.000254296 -0.000254296
Info:       CELL FLUCTUATION IS ISOTROPIC
Info: PARTICLE MESH EWALD (PME) ACTIVE
Info: PME TOLERANCE               1e-06
Info: PME EWALD COEFFICIENT       0.348832
Info: PME INTERPOLATION ORDER     4
Info: PME GRID DIMENSIONS         32 32 32
Info: PME MAXIMUM GRID SPACING    1
Info: PME CALCULATION WILL BE PERFORMED ON GPU
Info: FULL ELECTROSTATIC EVALUATION FREQUENCY      2
Info: USING VERLET I (r-RESPA) MTS SCHEME.
Info: C1 SPLITTING OF LONG RANGE ELECTROSTATICS
Info: PLACING ATOMS IN PATCHES BY HYDROGEN GROUPS
Info: RIGID BONDS TO HYDROGEN : ALL
Info:         ERROR TOLERANCE : 1e-08
Info:          MAX ITERATIONS : 100
Info: RIGID WATER USING SETTLE ALGORITHM
Info: RANDOM NUMBER SEED     1743555220
Info: USE HYDROGEN BONDS?    NO
Info: Using AMBER format force field!
Info: AMBER PARM FILE        mobley_9257453.prmtop
Info: COORDINATE PDB         mobley_9257453.pdb
Info: Exclusions will be read from PARM file!
Info: SCNB (VDW SCALING)     2
Info: USING ARITHMETIC MEAN TO COMBINE L-J SIGMA PARAMETERS
Info: BINARY COORDINATES     mobley_9257453_equil.coor
Info: SUMMARY OF PARAMETERS:
Info: 7 BONDS
Info: 5 ANGLES
Info:   5 HARMONIC
Info:   0 COSINE-BASED
Info: 3 DIHEDRAL
Info: 0 IMPROPER
Info: 0 CROSSTERM
Info: 0 VDW
Info: 21 VDW_PAIRS
Info: 0 NBTHOLE_PAIRS
Info: To read alchdata from file: mobley_9257453.pdb
Info: To read alchflag data from column: 5
Info: STRUCTURE SUMMARY:
Info: 2926 ATOMS
Info: 2926 BONDS
Info: 19 ANGLES
Info: 32 DIHEDRALS
Info: 0 IMPROPERS
Info: 0 CROSSTERMS
Info: 2968 EXCLUSIONS
Info: 2917 RIGID BONDS
Info: ALCH: 0 ATOMS TO DISAPPEAR IN FINAL STATE
Info: ALCH: 13 ATOMS TO APPEAR IN FINAL STATE
Info: 5861 DEGREES OF FREEDOM
Info: 980 HYDROGEN GROUPS
Info: 3 ATOMS IN LARGEST HYDROGEN GROUP
Info: 980 MIGRATION GROUPS
Info: 3 ATOMS IN LARGEST MIGRATION GROUP
Info: TOTAL MASS = 17656.5 amu
Info: TOTAL CHARGE = 2.42144e-08 e
Info: MASS DENSITY = 0.985769 g/cm^3
Info: ATOM DENSITY = 0.098375 atoms/A^3
Info: ADDED 0 IMPLICIT EXCLUSIONS
Info: NONBONDED TABLE R-SQUARED SPACING: 0.0625
Info: NONBONDED TABLE SIZE: 705 POINTS
Info: REMOVING COM VELOCITY 0.162705 0.0421671 -0.00462909
Info: Use 3D box decompostion in PME FFT.
Info: Updated CUDA force table with 4096 elements.
Info: Updated CUDA LJ table with 6 x 6 elements.
Info: Found 16 unique exclusion lists needing 32 bytes
TCL: Running for 1500000 steps
ETITLE: TS BOND ANGLE DIHED IMPRP ELECT VDW BOUNDARY MISC KINETIC TOTAL TEMP POTENTIAL TOTALAVG TEMPAVG PRESSURE GPRESSURE VOLUME PRESSAVG GPRESSAVG
ENERGY: 0 3.0507 3.8261 1.6298 0.0000 -10679.7405 1427.9395 0.0000 0.0000 1756.8645 -7486.4299 301.6872 -9243.2944 -7486.4299 301.6872 -208.2357 -129.8268 29743.3198 -208.2357 -129.8268
ENERGY: 300000 1.4274 5.0307 2.5542 0.0000 -10692.3828 1492.9378 0.0000 0.0000 1792.4221 -7398.0106 307.7932 -9190.4327 -7452.5372 301.1866 137.9010 180.2417 30703.9697 244.3786 314.1639
ENERGY: 600000 7.1705 2.8618 2.4672 0.0000 -10416.0548 1285.8512 0.0000 0.0000 1807.0064 -7310.6975 310.2976 -9117.7040 -7424.7338 302.2488 -1044.4272 -972.7836 30220.9243 33.8327 103.0311
ENERGY: 900000 2.7693 2.1770 4.7576 0.0000 -10624.1866 1408.2957 0.0000 0.0000 1761.9634 -7444.2235 302.5628 -9206.1869 -7421.6345 301.5349 -214.4608 -109.4806 29972.2874 17.2776 84.1220
ENERGY: 1200000 4.8163 4.4282 5.2543 0.0000 -10528.3977 1422.8124 0.0000 0.0000 1748.4849 -7342.6016 300.2483 -9091.0865 -7412.7493 301.4852 184.5206 192.6920 30187.3288 -32.1020 27.9362
ENERGY: 1500000 1.7519 4.9892 0.8393 0.0000 -10584.0153 1410.9834 0.0000 0.0000 1771.9136 -7393.5379 304.2714 -9165.4515 -7422.9873 300.8458 -1.6515 44.4901 29976.1139 -29.0071 32.2525
TCL: Running FEP window   2: Lambda1 0.05   Lambda2 0.1    [dLambda 0.05  ]
TCL: Setting parameter firsttimestep to 0
TCL: Setting parameter alchLambda to 0.05
Info: NONBONDED TABLE R-SQUARED SPACING: 0.0625
Info: NONBONDED TABLE SIZE: 705 POINTS
TCL: Setting parameter alchLambda2 to 0.1
Info: NONBONDED TABLE R-SQUARED SPACING: 0.0625
Info: NONBONDED TABLE SIZE: 705 POINTS
TCL: Running for 1500000 steps
ETITLE: TS BOND ANGLE DIHED IMPRP ELECT VDW BOUNDARY MISC KINETIC TOTAL TEMP POTENTIAL TOTALAVG TEMPAVG PRESSURE GPRESSURE VOLUME PRESSAVG GPRESSAVG
ENERGY: 0 1.7519 4.9892 0.8393 0.0000 -10584.0150 1417.6582 0.0000 0.0000 1771.0533 -7387.7231 304.1237 -9158.7764 -7387.7231 304.1237 -31.9787 48.1440 29976.1139 -31.9787 48.1440
ENERGY: 300000 1.2292 1.3200 1.5931 0.0000 -10734.5142 1463.4395 0.0000 0.0000 1700.0241 -7566.9083 291.9266 -9266.9323 -7428.7720 299.0053 92.9695 168.7248 29914.2359 -230.7593 -174.7529
ENERGY: 600000 1.9041 2.5891 1.8929 0.0000 -10512.7901 1372.2987 0.0000 0.0000 1802.2741 -7331.8312 309.4849 -9134.1052 -7404.0509 300.3676 -580.5363 -495.5669 30202.4573 -328.8020 -272.6428
ENERGY: 900000 1.8449 3.6498 3.8985 0.0000 -10633.9981 1465.4361 0.0000 0.0000 1772.2944 -7386.8744 304.3368 -9159.1688 -7409.3393 301.4058 339.0899 339.6054 30219.1177 -142.2363 -94.3834
ENERGY: 1200000 3.2698 2.8376 2.7351 0.0000 -10614.0747 1413.5432 0.0000 0.0000 1762.7697 -7428.9193 302.7013 -9191.6890 -7421.6295 299.8462 275.6285 317.0579 29475.7400 -52.0074 -3.6820
ENERGY: 1500000 0.9187 2.8444 3.2050 0.0000 -10688.3611 1501.6668 0.0000 0.0000 1748.1252 -7431.6011 300.1865 -9179.7262 -7421.5240 299.9463 818.3304 891.4818 29537.9267 28.7131 78.6539
TCL: Running FEP window   3: Lambda1 0.1    Lambda2 0.15000000000000002 [dLambda 0.05000000000000002]
TCL: Setting parameter firsttimestep to 0
TCL: Setting parameter alchLambda to 0.1
Info: NONBONDED TABLE R-SQUARED SPACING: 0.0625
Info: NONBONDED TABLE SIZE: 705 POINTS
TCL: Setting parameter alchLambda2 to 0.15000000000000002
Info: NONBONDED TABLE R-SQUARED SPACING: 0.0625
Info: NONBONDED TABLE SIZE: 705 POINTS
TCL: Running for 1500000 steps
ETITLE: TS BOND ANGLE DIHED IMPRP ELECT VDW BOUNDARY MISC KINETIC TOTAL TEMP POTENTIAL TOTALAVG TEMPAVG PRESSURE GPRESSURE VOLUME PRESSAVG GPRESSAVG
ENERGY: 0 0.9187 2.8444 3.2050 0.0000 -10688.3596 1502.1878 0.0000 0.0000 1747.2738 -7431.9298 300.0403 -9179.2037 -7431.9298 300.0403 795.4825 894.7314 29537.9267 795.4825 894.7314
ENERGY: 300000 1.6372 1.4822 3.4139 0.0000 -10689.5439 1485.9304 0.0000 0.0000 1760.9757 -7436.1046 302.3932 -9197.0802 -7453.0140 299.6669 174.3780 238.3781 30283.1945 119.0974 185.4960
ENERGY: 600000 3.2235 2.6506 2.1937 0.0000 -10655.4095 1450.3165 0.0000 0.0000 1725.9208 -7471.1045 296.3736 -9197.0253 -7435.7902 300.0657 53.9885 167.5015 29672.5028 10.5916 75.1464
ENERGY: 900000 2.2580 2.8279 4.9749 0.0000 -10765.1247 1506.4561 0.0000 0.0000 1720.4584 -7528.1495 295.4356 -9248.6078 -7451.7819 299.5688 292.1547 385.9603 30315.8109 -32.4139 40.3138
ENERGY: 1200000 3.7413 1.7038 2.3606 0.0000 -10551.3917 1424.1391 0.0000 0.0000 1720.4650 -7398.9819 295.4367 -9119.4469 -7443.8398 299.5568 156.3831 205.1248 29866.1108 -15.6696 57.7055
ENERGY: 1500000 3.2945 2.9849 2.9444 0.0000 -10600.7137 1468.8713 0.0000 0.0000 1775.0533 -7347.5653 304.8106 -9122.6185 -7438.7804 299.8798 459.3274 499.4457 30428.8546 41.1471 105.9505
TCL: Running FEP window   4: Lambda1 0.15000000000000002 Lambda2 0.2    [dLambda 0.04999999999999999]
TCL: Setting parameter firsttimestep to 0
TCL: Setting parameter alchLambda to 0.15000000000000002
Info: NONBONDED TABLE R-SQUARED SPACING: 0.0625
Info: NONBONDED TABLE SIZE: 705 POINTS
TCL: Setting parameter alchLambda2 to 0.2
Info: NONBONDED TABLE R-SQUARED SPACING: 0.0625
Info: NONBONDED TABLE SIZE: 705 POINTS
TCL: Running for 1500000 steps
ETITLE: TS BOND ANGLE DIHED IMPRP ELECT VDW BOUNDARY MISC KINETIC TOTAL TEMP POTENTIAL TOTALAVG TEMPAVG PRESSURE GPRESSURE VOLUME PRESSAVG GPRESSAVG
ENERGY: 0 3.2945 2.9849 2.9444 0.0000 -10600.7129 1471.6182 0.0000 0.0000 1774.1709 -7345.6999 304.6591 -9119.8708 -7345.6999 304.6591 419.3721 511.8081 30428.8546 419.3721 511.8081
ENERGY: 300000 1.7834 4.5758 2.3998 0.0000 -10544.0393 1439.1120 0.0000 0.0000 1769.6529 -7326.5153 303.8832 -9096.1683 -7372.1374 303.5765 115.0648 147.8210 30297.6400 63.2538 156.1281
ENERGY: 600000 4.4700 3.2087 4.8587 0.0000 -10538.0526 1350.3435 0.0000 0.0000 1756.7514 -7418.4203 301.6678 -9175.1717 -7382.9245 302.9983 -983.4710 -893.5786 30452.8923 -262.6996 -175.5124
ENERGY: 900000 2.7360 4.9553 4.8458 0.0000 -10660.7235 1463.4980 0.0000 0.0000 1728.0431 -7456.6455 296.7380 -9184.6886 -7403.4758 299.8953 258.9015 254.7516 29834.0091 -135.3258 -61.9493
ENERGY: 1200000 4.7030 3.4429 4.4415 0.0000 -10602.2658 1424.4987 0.0000 0.0000 1718.9950 -7446.1847 295.1843 -9165.1797 -7411.8867 299.9743 -136.2265 -68.9668 30160.9258 -155.3094 -84.3241
ENERGY: 1500000 4.6312 2.1815 6.4318 0.0000 -10532.9265 1393.5537 0.0000 0.0000 1778.9219 -7347.2063 305.4749 -9126.1282 -7402.7226 300.5996 -210.1893 -151.8981 30139.1515 -165.9199 -99.1381
TCL: Running FEP window   5: Lambda1 0.2    Lambda2 0.25   [dLambda 0.04999999999999999]
TCL: Setting parameter firsttimestep to 0
TCL: Setting parameter alchLambda to 0.2
Info: NONBONDED TABLE R-SQUARED SPACING: 0.0625
Info: NONBONDED TABLE SIZE: 705 POINTS
TCL: Setting parameter alchLambda2 to 0.25
Info: NONBONDED TABLE R-SQUARED SPACING: 0.0625
Info: NONBONDED TABLE SIZE: 705 POINTS
TCL: Running for 1500000 steps
ETITLE: TS BOND ANGLE DIHED IMPRP ELECT VDW BOUNDARY MISC KINETIC TOTAL TEMP POTENTIAL TOTALAVG TEMPAVG PRESSURE GPRESSURE VOLUME PRESSAVG GPRESSAVG
ENERGY: 0 4.6312 2.1815 6.4318 0.0000 -10532.9269 1394.4157 0.0000 0.0000 1778.0310 -7347.2357 305.3219 -9125.2667 -7347.2357 305.3219 -215.6853 -141.8915 30139.1515 -215.6853 -141.8915
ENERGY: 300000 4.1817 1.7696 5.4642 0.0000 -10657.0983 1476.9098 0.0000 0.0000 1739.0221 -7429.7510 298.6233 -9168.7731 -7450.5009 297.7655 644.2539 681.5205 29612.3843 -86.8594 -33.0131
ENERGY: 600000 2.4032 3.6739 2.2186 0.0000 -10685.5011 1520.9914 0.0000 0.0000 1745.8125 -7410.4016 299.7894 -9156.2141 -7451.8478 299.9822 1037.3991 1149.3308 29489.6987 174.1670 246.5773
ENERGY: 900000 3.6180 1.1454 3.8224 0.0000 -10508.8521 1349.5446 0.0000 0.0000 1734.3452 -7416.3765 297.8202 -9150.7217 -7439.8464 300.4560 -412.7564 -411.8715 30018.9529 100.5863 164.6925
ENERGY: 1200000 0.7378 2.2993 3.4117 0.0000 -10583.6744 1336.9573 0.0000 0.0000 1753.4469 -7486.8214 301.1004 -9240.2683 -7437.1380 300.6196 -812.1018 -700.8644 29942.5726 -82.2244 -16.9559
ENERGY: 1500000 2.6123 2.9089 2.2774 0.0000 -10569.7006 1378.9928 0.0000 0.0000 1691.2009 -7491.7082 290.4115 -9182.9091 -7441.0526 300.2455 -442.3422 -428.1928 29846.0214 -24.1994 36.4260
TCL: Running FEP window   6: Lambda1 0.25   Lambda2 0.3    [dLambda 0.04999999999999999]
TCL: Setting parameter firsttimestep to 0
TCL: Setting parameter alchLambda to 0.25
Info: NONBONDED TABLE R-SQUARED SPACING: 0.0625
Info: NONBONDED TABLE SIZE: 705 POINTS
TCL: Setting parameter alchLambda2 to 0.3
Info: NONBONDED TABLE R-SQUARED SPACING: 0.0625
Info: NONBONDED TABLE SIZE: 705 POINTS
TCL: Running for 1500000 steps
ETITLE: TS BOND ANGLE DIHED IMPRP ELECT VDW BOUNDARY MISC KINETIC TOTAL TEMP POTENTIAL TOTALAVG TEMPAVG PRESSURE GPRESSURE VOLUME PRESSAVG GPRESSAVG
ENERGY: 0 2.6123 2.9089 2.2774 0.0000 -10569.7023 1381.4739 0.0000 0.0000 1690.3227 -7490.1072 290.2607 -9180.4299 -7490.1072 290.2607 -500.0018 -415.3323 29846.0214 -500.0018 -415.3323
ENERGY: 300000 4.3402 2.4183 2.0129 0.0000 -10567.3349 1402.0459 0.0000 0.0000 1703.9219 -7452.5958 292.5960 -9156.5177 -7471.4480 295.2431 119.9350 130.9187 29601.7890 -256.9926 -196.4354
ENERGY: 600000 4.6260 2.2064 1.4005 0.0000 -10553.8882 1352.8358 0.0000 0.0000 1711.8328 -7480.9867 293.9544 -9192.8195 -7455.2545 296.3310 -597.8306 -551.1600 29866.1736 -275.8196 -216.3107
ENERGY: 900000 3.3150 3.6087 0.9357 0.0000 -10601.8403 1423.6154 0.0000 0.0000 1700.9686 -7469.3968 292.0888 -9170.3654 -7461.3918 296.4658 -425.6924 -326.1183 30515.3019 -141.5172 -75.9479
ENERGY: 1200000 3.4727 2.5993 2.6239 0.0000 -10635.2767 1464.4859 0.0000 0.0000 1777.3078 -7384.7871 305.1977 -9162.0950 -7455.0773 297.7664 375.8178 388.7967 30134.6280 -64.0476 -6.8847
ENERGY: 1500000 1.0482 2.0540 4.6202 0.0000 -10511.5263 1381.5108 0.0000 0.0000 1750.9614 -7371.3318 300.6736 -9122.2932 -7455.9355 297.6693 -280.8029 -196.2047 30383.8093 -42.2044 18.0452
TCL: Running FEP window   7: Lambda1 0.3    Lambda2 0.35   [dLambda 0.04999999999999999]
TCL: Setting parameter firsttimestep to 0
TCL: Setting parameter alchLambda to 0.3
Info: NONBONDED TABLE R-SQUARED SPACING: 0.0625
Info: NONBONDED TABLE SIZE: 705 POINTS
TCL: Setting parameter alchLambda2 to 0.35
Info: NONBONDED TABLE R-SQUARED SPACING: 0.0625
Info: NONBONDED TABLE SIZE: 705 POINTS
TCL: Running for 1500000 steps
ETITLE: TS BOND ANGLE DIHED IMPRP ELECT VDW BOUNDARY MISC KINETIC TOTAL TEMP POTENTIAL TOTALAVG TEMPAVG PRESSURE GPRESSURE VOLUME PRESSAVG GPRESSAVG
ENERGY: 0 1.0482 2.0540 4.6202 0.0000 -10511.5248 1381.2967 0.0000 0.0000 1750.0953 -7372.4104 300.5248 -9122.5057 -7372.4104 300.5248 -268.6030 -190.6006 30383.8093 -268.6030 -190.6006
ENERGY: 300000 3.6908 6.1037 4.7284 0.0000 -10537.4348 1366.2052 0.0000 0.0000 1743.8578 -7412.8488 299.4537 -9156.7066 -7439.6456 300.5164 -443.9328 -413.0492 29877.2993 -183.9683 -137.9169
ENERGY: 600000 2.2426 4.5320 1.8200 0.0000 -10715.8035 1515.6862 0.0000 0.0000 1766.4545 -7425.0681 303.3340 -9191.5227 -7441.0650 301.9572 796.4023 858.3666 29775.1048 -15.4822 40.7741
ENERGY: 900000 2.1021 2.1928 2.7268 0.0000 -10754.6528 1444.9999 0.0000 0.0000 1784.2953 -7518.3359 306.3976 -9302.6312 -7445.5655 301.8085 -85.8604 -21.0360 29759.7333 -6.8693 53.9768
ENERGY: 1200000 1.8423 2.7521 1.6014 0.0000 -10562.2297 1440.9629 0.0000 0.0000 1763.9889 -7351.0821 302.9106 -9115.0710 -7437.0213 302.0924 183.5273 220.1200 30523.6047 -23.9432 34.5395
ENERGY: 1500000 3.5215 2.4372 3.6535 0.0000 -10516.1159 1396.9250 0.0000 0.0000 1804.2917 -7305.2869 309.8314 -9109.5786 -7427.2403 301.5177 -259.2432 -194.3570 30268.7407 -29.2057 25.8951
TCL: Running FEP window   8: Lambda1 0.35   Lambda2 0.39999999999999997 [dLambda 0.04999999999999999]
TCL: Setting parameter firsttimestep to 0
TCL: Setting parameter alchLambda to 0.35
Info: NONBONDED TABLE R-SQUARED SPACING: 0.0625
Info: NONBONDED TABLE SIZE: 705 POINTS
TCL: Setting parameter alchLambda2 to 0.39999999999999997
Info: NONBONDED TABLE R-SQUARED SPACING: 0.0625
Info: NONBONDED TABLE SIZE: 705 POINTS
TCL: Running for 1500000 steps
ETITLE: TS BOND ANGLE DIHED IMPRP ELECT VDW BOUNDARY MISC KINETIC TOTAL TEMP POTENTIAL TOTALAVG TEMPAVG PRESSURE GPRESSURE VOLUME PRESSAVG GPRESSAVG
ENERGY: 0 3.5215 2.4372 3.6535 0.0000 -10516.1152 1396.2523 0.0000 0.0000 1803.4302 -7306.8205 309.6835 -9110.2507 -7306.8205 309.6835 -257.7919 -192.8064 30268.7407 -257.7919 -192.8064
ENERGY: 300000 3.4926 2.6992 2.7082 0.0000 -10817.2021 1601.2562 0.0000 0.0000 1748.5698 -7458.4761 300.2629 -9207.0459 -7426.1770 302.8755 1173.2097 1288.8493 30284.6208 274.3825 347.9215
ENERGY: 600000 5.0500 2.7769 2.4630 0.0000 -10652.1430 1421.5009 0.0000 0.0000 1813.1285 -7407.2237 311.3488 -9220.3522 -7419.7532 302.2333 -182.4641 -132.5721 29783.2070 69.3618 143.3400
ENERGY: 900000 3.3218 3.3365 2.8979 0.0000 -10500.6318 1388.5538 0.0000 0.0000 1771.8875 -7330.6343 304.2670 -9102.5218 -7413.9154 301.6461 -475.2070 -397.4727 30703.9020 173.7728 246.9991
ENERGY: 1200000 2.7047 4.1937 2.0390 0.0000 -10600.5888 1455.9770 0.0000 0.0000 1778.9887 -7356.6856 305.4864 -9135.6743 -7413.2126 301.9281 332.3277 487.8571 30060.6406 237.0406 307.6843
ENERGY: 1500000 2.5594 3.9282 1.4459 0.0000 -10701.4870 1458.6894 0.0000 0.0000 1747.0282 -7487.8359 299.9982 -9234.8641 -7414.2777 301.7608 96.8699 132.8128 30103.7741 250.9438 314.0248
TCL: Running FEP window   9: Lambda1 0.39999999999999997 Lambda2 0.44999999999999996 [dLambda 0.04999999999999999]
TCL: Setting parameter firsttimestep to 0
TCL: Setting parameter alchLambda to 0.39999999999999997
Info: NONBONDED TABLE R-SQUARED SPACING: 0.0625
Info: NONBONDED TABLE SIZE: 705 POINTS
TCL: Setting parameter alchLambda2 to 0.44999999999999996
Info: NONBONDED TABLE R-SQUARED SPACING: 0.0625
Info: NONBONDED TABLE SIZE: 705 POINTS
TCL: Running for 1500000 steps
ETITLE: TS BOND ANGLE DIHED IMPRP ELECT VDW BOUNDARY MISC KINETIC TOTAL TEMP POTENTIAL TOTALAVG TEMPAVG PRESSURE GPRESSURE VOLUME PRESSAVG GPRESSAVG
ENERGY: 0 2.5594 3.9282 1.4459 0.0000 -10701.4862 1459.0055 0.0000 0.0000 1746.1213 -7488.4259 299.8424 -9234.5472 -7488.4259 299.8424 48.8324 140.7801 30103.7741 48.8324 140.7801
ENERGY: 300000 6.6417 3.0840 1.6246 0.0000 -10650.6500 1462.8809 0.0000 0.0000 1817.7399 -7358.6789 312.1407 -9176.4188 -7444.6894 301.4702 232.0630 320.9701 30434.3887 201.4443 289.4354
ENERGY: 600000 1.2764 1.7778 3.0808 0.0000 -10624.2993 1451.2860 0.0000 0.0000 1711.2949 -7455.5835 293.8621 -9166.8784 -7441.6534 299.1151 107.0480 212.0814 30158.2626 264.1252 356.9366
ENERGY: 900000 0.6436 2.9821 9.6647 0.0000 -10673.6112 1462.4188 0.0000 0.0000 1773.2849 -7424.6171 304.5069 -9197.9020 -7447.6091 298.7443 259.2053 310.1337 30090.6341 155.4008 244.3201
ENERGY: 1200000 0.7893 2.4803 1.8195 0.0000 -10596.0585 1388.4180 0.0000 0.0000 1752.3642 -7450.1873 300.9144 -9202.5515 -7445.2825 298.8958 -370.6423 -312.0915 30216.4251 123.4765 207.9717
ENERGY: 1500000 1.6055 2.2009 5.8907 0.0000 -10375.6041 1297.0579 0.0000 0.0000 1760.0099 -7308.8393 302.2274 -9068.8492 -7439.9806 299.0180 -1027.9588 -984.0395 30887.2571 67.2550 142.1684
TCL: Running FEP window  10: Lambda1 0.44999999999999996 Lambda2 0.49999999999999994 [dLambda 0.04999999999999999]
TCL: Setting parameter firsttimestep to 0
TCL: Setting parameter alchLambda to 0.44999999999999996
Info: NONBONDED TABLE R-SQUARED SPACING: 0.0625
Info: NONBONDED TABLE SIZE: 705 POINTS
TCL: Setting parameter alchLambda2 to 0.49999999999999994
Info: NONBONDED TABLE R-SQUARED SPACING: 0.0625
Info: NONBONDED TABLE SIZE: 705 POINTS
TCL: Running for 1500000 steps
ETITLE: TS BOND ANGLE DIHED IMPRP ELECT VDW BOUNDARY MISC KINETIC TOTAL TEMP POTENTIAL TOTALAVG TEMPAVG PRESSURE GPRESSURE VOLUME PRESSAVG GPRESSAVG
ENERGY: 0 1.6055 2.2009 5.8907 0.0000 -10375.6037 1297.3779 0.0000 0.0000 1759.1836 -7309.3452 302.0855 -9068.5288 -7309.3452 302.0855 -1046.8086 -977.0512 30887.2571 -1046.8086 -977.0512
ENERGY: 300000 2.6765 3.8641 4.0038 0.0000 -10608.5795 1417.5822 0.0000 0.0000 1752.9411 -7427.5117 301.0135 -9180.4528 -7383.5489 302.6016 -172.7480 -97.9872 29983.8450 -164.3550 -95.1832
ENERGY: 600000 5.1539 3.7719 4.9069 0.0000 -10623.2932 1483.0497 0.0000 0.0000 1734.8620 -7391.5489 297.9090 -9126.4109 -7397.4228 299.9355 594.1148 638.1271 30151.9535 -45.7823 11.9170
ENERGY: 900000 1.4337 2.1873 2.1454 0.0000 -10645.9968 1442.6393 0.0000 0.0000 1711.8653 -7485.7258 293.9600 -9197.5911 -7416.5562 299.3476 -51.7715 40.8323 30635.7721 -127.8652 -66.7761
ENERGY: 1200000 1.3328 2.3383 2.6514 0.0000 -10695.1362 1467.7810 0.0000 0.0000 1749.6871 -7471.3454 300.4547 -9221.0326 -7428.8676 298.0713 469.2841 497.9266 29491.9891 -13.0887 44.3918
ENERGY: 1500000 3.8622 1.7967 0.9146 0.0000 -10608.5286 1389.7334 0.0000 0.0000 1689.2004 -7523.0213 290.0680 -9212.2217 -7436.0234 298.3729 -485.7226 -426.7113 29940.1553 -36.9626 17.9032
TCL: Running FEP window  11: Lambda1 0.49999999999999994 Lambda2 0.5499999999999999 [dLambda 0.04999999999999999]
TCL: Setting parameter firsttimestep to 0
TCL: Setting parameter alchLambda to 0.49999999999999994
Info: NONBONDED TABLE R-SQUARED SPACING: 0.0625
Info: NONBONDED TABLE SIZE: 705 POINTS
TCL: Setting parameter alchLambda2 to 0.5499999999999999
Info: NONBONDED TABLE R-SQUARED SPACING: 0.0625
Info: NONBONDED TABLE SIZE: 705 POINTS
TCL: Running for 1500000 steps
ETITLE: TS BOND ANGLE DIHED IMPRP ELECT VDW BOUNDARY MISC KINETIC TOTAL TEMP POTENTIAL TOTALAVG TEMPAVG PRESSURE GPRESSURE VOLUME PRESSAVG GPRESSAVG
ENERGY: 0 3.8621 1.7967 0.9146 0.0000 -10608.5277 1389.9148 0.0000 0.0000 1688.3386 -7523.7007 289.9200 -9212.0394 -7523.7007 289.9200 -497.7134 -418.8980 29940.1553 -497.7134 -418.8980
ENERGY: 300000 4.8440 2.4962 5.8164 0.0000 -10616.2211 1346.1243 0.0000 0.0000 1731.5559 -7525.3844 297.3413 -9256.9403 -7465.3697 295.8596 -629.3694 -505.1010 29977.8318 -496.6140 -426.8435
ENERGY: 600000 5.7131 2.3608 1.3263 0.0000 -10577.4044 1465.0054 0.0000 0.0000 1731.9580 -7371.0409 297.4103 -9102.9988 -7428.4064 298.6042 187.4477 289.2755 30654.4685 -349.2633 -281.1291
ENERGY: 900000 3.2877 2.4133 1.9182 0.0000 -10537.9367 1430.2501 0.0000 0.0000 1758.8529 -7341.2145 302.0287 -9100.0673 -7423.5885 299.2869 243.5824 335.8049 29924.9309 -297.3825 -226.6601
ENERGY: 1200000 2.4314 2.2697 1.2719 0.0000 -10583.3062 1395.1213 0.0000 0.0000 1770.3884 -7411.8234 304.0096 -9182.2119 -7422.1979 299.7559 -92.5902 -40.2672 29941.8852 -246.2958 -189.1337
ENERGY: 1500000 3.3264 6.0027 1.3005 0.0000 -10479.1954 1373.0464 0.0000 0.0000 1789.8208 -7305.6987 307.3465 -9095.5195 -7411.6215 301.0201 56.3684 130.3082 29895.2333 -262.4816 -201.3430
TCL: Running FEP window  12: Lambda1 0.5499999999999999 Lambda2 0.6    [dLambda 0.050000000000000044]
TCL: Setting parameter firsttimestep to 0
TCL: Setting parameter alchLambda to 0.5499999999999999
Info: NONBONDED TABLE R-SQUARED SPACING: 0.0625
Info: NONBONDED TABLE SIZE: 705 POINTS
TCL: Setting parameter alchLambda2 to 0.6
Info: NONBONDED TABLE R-SQUARED SPACING: 0.0625
Info: NONBONDED TABLE SIZE: 705 POINTS
TCL: Running for 1500000 steps
ETITLE: TS BOND ANGLE DIHED IMPRP ELECT VDW BOUNDARY MISC KINETIC TOTAL TEMP POTENTIAL TOTALAVG TEMPAVG PRESSURE GPRESSURE VOLUME PRESSAVG GPRESSAVG
ENERGY: 0 3.3264 6.0027 1.3005 0.0000 -10479.2807 1373.1119 0.0000 0.0000 1788.9723 -7306.5670 307.2008 -9095.5392 -7306.5670 307.2008 57.6397 136.7743 29895.2333 57.6397 136.7743
ENERGY: 300000 3.4020 2.4086 3.2258 0.0000 -10557.9573 1411.1357 0.0000 0.0000 1740.6011 -7397.1840 298.8945 -9137.7851 -7360.8764 303.1947 193.6901 227.8834 29937.6077 89.2321 151.4551
ENERGY: 600000 2.1103 2.2218 1.5224 0.0000 -10503.3546 1418.1713 0.0000 0.0000 1847.8108 -7231.5180 317.3044 -9079.3288 -7372.2658 302.7808 163.7237 311.9245 30476.5340 -86.3253 -6.7409
ENERGY: 900000 3.6500 3.0840 4.3403 0.0000 -10679.0137 1433.2898 0.0000 0.0000 1734.9462 -7499.7033 297.9234 -9234.6495 -7405.0060 302.3202 -103.5357 -0.3860 29868.8991 -86.1080 -6.5356
ENERGY: 1200000 2.9405 1.7754 1.2511 0.0000 -10524.7758 1376.2733 0.0000 0.0000 1754.0324 -7388.5030 301.2009 -9142.5354 -7411.2446 302.0380 -481.9666 -373.9520 30281.4323 -78.3687 8.2709
ENERGY: 1500000 2.2512 4.0028 5.5368 0.0000 -10586.4783 1428.4268 0.0000 0.0000 1773.1369 -7373.1237 304.4815 -9146.2606 -7405.8489 302.0658 484.9590 544.9422 29712.1328 22.4237 102.7882
TCL: Running FEP window  13: Lambda1 0.6    Lambda2 0.65   [dLambda 0.050000000000000044]
TCL: Setting parameter firsttimestep to 0
TCL: Setting parameter alchLambda to 0.6
Info: NONBONDED TABLE R-SQUARED SPACING: 0.0625
Info: NONBONDED TABLE SIZE: 705 POINTS
TCL: Setting parameter alchLambda2 to 0.65
Info: NONBONDED TABLE R-SQUARED SPACING: 0.0625
Info: NONBONDED TABLE SIZE: 705 POINTS
TCL: Running for 1500000 steps
ETITLE: TS BOND ANGLE DIHED IMPRP ELECT VDW BOUNDARY MISC KINETIC TOTAL TEMP POTENTIAL TOTALAVG TEMPAVG PRESSURE GPRESSURE VOLUME PRESSAVG GPRESSAVG
ENERGY: 0 2.2513 4.0028 5.5368 0.0000 -10587.0994 1428.0072 0.0000 0.0000 1772.2778 -7375.0235 304.3340 -9147.3014 -7375.0235 304.3340 469.9025 549.8627 29712.1328 469.9025 549.8627
ENERGY: 300000 1.0749 2.1351 1.7208 0.0000 -10541.1147 1372.5955 0.0000 0.0000 1746.0934 -7417.4951 299.8376 -9163.5885 -7411.9963 301.4331 -374.3341 -305.7053 30303.3824 38.7819 121.5301
ENERGY: 600000 4.2153 5.7007 2.9399 0.0000 -10497.7182 1326.4961 0.0000 0.0000 1733.3631 -7425.0032 297.6516 -9158.3663 -7426.3564 301.0147 -885.2788 -863.9680 30339.7799 -179.9028 -106.4373
ENERGY: 900000 3.4663 2.1278 4.5730 0.0000 -10627.7012 1423.8952 0.0000 0.0000 1733.4198 -7460.2192 297.6613 -9193.6390 -7425.3230 301.4324 166.9850 189.3879 30309.6264 -147.1889 -82.5297
ENERGY: 1200000 5.0016 2.1189 2.7327 0.0000 -10745.8512 1461.0291 0.0000 0.0000 1726.4933 -7548.4757 296.4719 -9274.9689 -7441.3991 300.1825 76.7120 17.8461 29878.1594 -68.5969 -13.0209
ENERGY: 1500000 4.2321 3.4004 2.7108 0.0000 -10559.6990 1367.4307 0.0000 0.0000 1741.1459 -7440.7790 298.9881 -9181.9250 -7439.2505 299.0075 -692.3029 -592.1377 30468.3848 -75.3645 -20.1814
TCL: Running FEP window  14: Lambda1 0.65   Lambda2 0.7000000000000001 [dLambda 0.050000000000000044]
TCL: Setting parameter firsttimestep to 0
TCL: Setting parameter alchLambda to 0.65
Info: NONBONDED TABLE R-SQUARED SPACING: 0.0625
Info: NONBONDED TABLE SIZE: 705 POINTS
TCL: Setting parameter alchLambda2 to 0.7000000000000001
Info: NONBONDED TABLE R-SQUARED SPACING: 0.0625
Info: NONBONDED TABLE SIZE: 705 POINTS
TCL: Running for 1500000 steps
ETITLE: TS BOND ANGLE DIHED IMPRP ELECT VDW BOUNDARY MISC KINETIC TOTAL TEMP POTENTIAL TOTALAVG TEMPAVG PRESSURE GPRESSURE VOLUME PRESSAVG GPRESSAVG
ENERGY: 0 4.2321 3.4004 2.7108 0.0000 -10560.1611 1368.8394 0.0000 0.0000 1740.2579 -7440.7204 298.8356 -9180.9784 -7440.7204 298.8356 -655.5142 -569.3886 30468.3848 -655.5142 -569.3886
ENERGY: 300000 3.4920 2.2134 3.1120 0.0000 -10705.7353 1473.8390 0.0000 0.0000 1731.8583 -7491.2206 297.3932 -9223.0789 -7460.8447 297.8973 6.4552 62.0256 30321.3120 -422.7806 -339.4928
ENERGY: 600000 5.8496 3.3197 2.1002 0.0000 -10636.7510 1460.1850 0.0000 0.0000 1758.5836 -7406.7130 301.9824 -9165.2965 -7428.8972 300.9870 276.9444 419.7612 30198.4379 -179.1191 -86.5057
ENERGY: 900000 2.2614 3.7200 2.5908 0.0000 -10718.9239 1507.7533 0.0000 0.0000 1751.1176 -7451.4809 300.7004 -9202.5985 -7426.3735 301.8317 698.3143 790.5897 29892.3461 -84.2353 4.0613
ENERGY: 1200000 5.9428 2.6187 2.6909 0.0000 -10759.3117 1431.7531 0.0000 0.0000 1730.2878 -7586.0186 297.1235 -9316.3063 -7436.9043 301.6881 -362.7998 -382.8927 29998.5186 49.8951 118.9110
ENERGY: 1500000 4.2951 1.9215 3.2053 0.0000 -10649.6163 1423.5687 0.0000 0.0000 1744.0778 -7472.5480 299.4915 -9216.6257 -7436.6400 301.5816 52.9746 83.4888 29974.1108 71.9972 137.6941
TCL: Running FEP window  15: Lambda1 0.7000000000000001 Lambda2 0.7500000000000001 [dLambda 0.050000000000000044]
TCL: Setting parameter firsttimestep to 0
TCL: Setting parameter alchLambda to 0.7000000000000001
Info: NONBONDED TABLE R-SQUARED SPACING: 0.0625
Info: NONBONDED TABLE SIZE: 705 POINTS
TCL: Setting parameter alchLambda2 to 0.7500000000000001
Info: NONBONDED TABLE R-SQUARED SPACING: 0.0625
Info: NONBONDED TABLE SIZE: 705 POINTS
TCL: Running for 1500000 steps
ETITLE: TS BOND ANGLE DIHED IMPRP ELECT VDW BOUNDARY MISC KINETIC TOTAL TEMP POTENTIAL TOTALAVG TEMPAVG PRESSURE GPRESSURE VOLUME PRESSAVG GPRESSAVG
ENERGY: 0 4.2951 1.9215 3.2053 0.0000 -10649.9201 1424.1988 0.0000 0.0000 1743.1895 -7473.1099 299.3390 -9216.2994 -7473.1099 299.3390 4.3114 103.9919 29974.1108 4.3114 103.9919
ENERGY: 300000 3.3915 1.0132 3.2077 0.0000 -10694.8320 1417.7370 0.0000 0.0000 1736.3954 -7533.0873 298.1723 -9269.4827 -7465.5301 297.1425 -407.5070 -314.2453 30093.4910 -3.4911 75.6159
ENERGY: 600000 1.4134 1.8305 4.2131 0.0000 -10469.6673 1306.7299 0.0000 0.0000 1729.5573 -7425.9230 296.9981 -9155.4803 -7454.1882 298.0501 -1158.0813 -1147.2735 30839.8312 -100.1699 -36.2713
ENERGY: 900000 1.2350 2.3198 2.5497 0.0000 -10643.9983 1438.7830 0.0000 0.0000 1716.6760 -7482.4348 294.7861 -9199.1108 -7464.0693 297.3589 145.7825 212.0252 30174.4904 -103.5692 -47.0630
ENERGY: 1200000 2.7910 3.3719 2.4742 0.0000 -10635.0174 1418.6622 0.0000 0.0000 1738.8745 -7468.8436 298.5980 -9207.7182 -7459.5326 297.2865 -107.7365 -71.9791 30059.5944 -191.4275 -132.1328
ENERGY: 1500000 1.9333 1.3070 1.4275 0.0000 -10562.5296 1375.1485 0.0000 0.0000 1754.1721 -7428.5411 301.2249 -9182.7132 -7448.0546 299.0379 -420.5588 -342.6576 30128.0323 -216.6396 -161.7792
TCL: Running FEP window  16: Lambda1 0.7500000000000001 Lambda2 0.8000000000000002 [dLambda 0.050000000000000044]
TCL: Setting parameter firsttimestep to 0
TCL: Setting parameter alchLambda to 0.7500000000000001
Info: NONBONDED TABLE R-SQUARED SPACING: 0.0625
Info: NONBONDED TABLE SIZE: 705 POINTS
TCL: Setting parameter alchLambda2 to 0.8000000000000002
Info: NONBONDED TABLE R-SQUARED SPACING: 0.0625
Info: NONBONDED TABLE SIZE: 705 POINTS
TCL: Running for 1500000 steps
ETITLE: TS BOND ANGLE DIHED IMPRP ELECT VDW BOUNDARY MISC KINETIC TOTAL TEMP POTENTIAL TOTALAVG TEMPAVG PRESSURE GPRESSURE VOLUME PRESSAVG GPRESSAVG
ENERGY: 0 1.9333 1.3070 1.4275 0.0000 -10562.6131 1375.0687 0.0000 0.0000 1753.3280 -7429.5486 301.0799 -9182.8766 -7429.5486 301.0799 -412.7515 -336.1912 30128.0323 -412.7515 -336.1912
ENERGY: 300000 2.3868 1.7035 3.3398 0.0000 -10614.2462 1427.2726 0.0000 0.0000 1786.2777 -7393.2658 306.7380 -9179.5435 -7413.0823 302.0715 -123.8552 -54.6699 30172.0382 -125.3281 -46.7861
ENERGY: 600000 1.4444 2.5783 4.8751 0.0000 -10534.4043 1383.3320 0.0000 0.0000 1732.1720 -7410.0026 297.4471 -9142.1746 -7414.6969 299.9137 -552.0243 -456.8940 30747.0794 -111.9168 -40.4066
ENERGY: 900000 0.7497 1.7799 4.3087 0.0000 -10593.7627 1398.2393 0.0000 0.0000 1828.4897 -7360.1953 313.9866 -9188.6850 -7412.0044 301.1251 174.5505 236.2749 29753.5397 -184.0883 -114.9630
ENERGY: 1200000 2.6760 2.0291 4.0585 0.0000 -10534.6927 1375.1268 0.0000 0.0000 1740.3504 -7410.4518 298.8514 -9150.8022 -7419.6748 300.7249 -312.3895 -310.8545 30263.6802 -145.7568 -83.2380
ENERGY: 1500000 1.4498 7.2656 1.9195 0.0000 -10669.1464 1350.8816 0.0000 0.0000 1721.0440 -7586.5860 295.5362 -9307.6299 -7433.3558 300.4356 -747.7756 -734.9020 30052.9683 -170.2595 -114.5664
TCL: Running FEP window  17: Lambda1 0.8000000000000002 Lambda2 0.8500000000000002 [dLambda 0.050000000000000044]
TCL: Setting parameter firsttimestep to 0
TCL: Setting parameter alchLambda to 0.8000000000000002
Info: NONBONDED TABLE R-SQUARED SPACING: 0.0625
Info: NONBONDED TABLE SIZE: 705 POINTS
TCL: Setting parameter alchLambda2 to 0.8500000000000002
Info: NONBONDED TABLE R-SQUARED SPACING: 0.0625
Info: NONBONDED TABLE SIZE: 705 POINTS
TCL: Running for 1500000 steps
ETITLE: TS BOND ANGLE DIHED IMPRP ELECT VDW BOUNDARY MISC KINETIC TOTAL TEMP POTENTIAL TOTALAVG TEMPAVG PRESSURE GPRESSURE VOLUME PRESSAVG GPRESSAVG
ENERGY: 0 1.4498 7.2656 1.9195 0.0000 -10671.0513 1352.4138 0.0000 0.0000 1720.1795 -7587.8231 295.3877 -9308.0026 -7587.8231 295.3877 -790.3137 -716.4585 30052.9683 -790.3137 -716.4585
ENERGY: 300000 1.6556 3.8253 1.6319 0.0000 -10652.0652 1404.1497 0.0000 0.0000 1780.0819 -7460.7208 305.6741 -9240.8028 -7494.2927 299.6777 -212.4006 -218.1780 30269.0704 -70.6209 -28.8343
ENERGY: 600000 4.0704 1.6794 2.1151 0.0000 -10677.8037 1455.9864 0.0000 0.0000 1790.3544 -7423.5980 307.4381 -9213.9524 -7476.3674 302.0087 -2.7773 65.7223 30201.5863 -65.0603 -18.5335
ENERGY: 900000 3.7702 5.1523 1.4598 0.0000 -10556.1123 1374.8378 0.0000 0.0000 1725.9686 -7444.9237 296.3818 -9170.8923 -7467.7730 300.9802 -284.4742 -207.8133 30052.6100 -177.1640 -117.2109
ENERGY: 1200000 0.8807 4.5153 1.5716 0.0000 -10586.8824 1424.7308 0.0000 0.0000 1759.7429 -7395.4411 302.1815 -9155.1840 -7459.6199 300.3924 80.0887 143.3626 30481.0946 -69.3323 -11.0190
ENERGY: 1500000 3.9050 4.8572 4.5968 0.0000 -10798.4531 1511.0586 0.0000 0.0000 1752.1233 -7521.9122 300.8731 -9274.0355 -7459.1284 300.8132 763.4126 810.9201 29702.7297 -89.0679 -28.4194
TCL: Running FEP window  18: Lambda1 0.8500000000000002 Lambda2 0.9000000000000002 [dLambda 0.050000000000000044]
TCL: Setting parameter firsttimestep to 0
TCL: Setting parameter alchLambda to 0.8500000000000002
Info: NONBONDED TABLE R-SQUARED SPACING: 0.0625
Info: NONBONDED TABLE SIZE: 705 POINTS
TCL: Setting parameter alchLambda2 to 0.9000000000000002
Info: NONBONDED TABLE R-SQUARED SPACING: 0.0625
Info: NONBONDED TABLE SIZE: 705 POINTS
TCL: Running for 1500000 steps
ETITLE: TS BOND ANGLE DIHED IMPRP ELECT VDW BOUNDARY MISC KINETIC TOTAL TEMP POTENTIAL TOTALAVG TEMPAVG PRESSURE GPRESSURE VOLUME PRESSAVG GPRESSAVG
ENERGY: 0 3.9050 4.8572 4.5968 0.0000 -10799.7409 1511.6495 0.0000 0.0000 1751.2535 -7523.4787 300.7237 -9274.7323 -7523.4787 300.7237 733.7821 826.7666 29702.7297 733.7821 826.7666
ENERGY: 300000 1.3469 3.5712 2.8499 0.0000 -10633.4768 1468.7091 0.0000 0.0000 1729.8308 -7427.1689 297.0450 -9156.9997 -7469.9635 298.4951 412.3923 477.7476 30142.4809 618.8296 691.3044
ENERGY: 600000 3.0795 0.5512 2.2784 0.0000 -10521.7495 1321.8006 0.0000 0.0000 1769.9105 -7424.1294 303.9275 -9194.0399 -7453.1091 299.8360 -961.2714 -872.6805 30338.0025 152.0288 231.3458
ENERGY: 900000 1.5358 1.7046 3.6371 0.0000 -10417.5180 1347.7336 0.0000 0.0000 1798.1562 -7264.7507 308.7778 -9062.9069 -7440.0871 300.3284 -210.8184 -136.4647 30302.1958 -6.0618 71.8268
ENERGY: 1200000 4.1639 2.9805 2.5185 0.0000 -10685.8943 1438.4011 0.0000 0.0000 1717.1347 -7520.6956 294.8649 -9237.8303 -7441.0892 300.0938 -43.5316 18.2909 30115.9151 2.6087 81.0749
ENERGY: 1500000 2.4549 3.5855 1.2647 0.0000 -10559.8517 1379.6833 0.0000 0.0000 1765.7400 -7407.1232 303.2113 -9172.8633 -7440.7713 301.0334 -454.7975 -395.9286 30683.2754 -1.4034 76.5564
TCL: Running FEP window  19: Lambda1 0.9000000000000002 Lambda2 0.9500000000000003 [dLambda 0.050000000000000044]
TCL: Setting parameter firsttimestep to 0
TCL: Setting parameter alchLambda to 0.9000000000000002
Info: NONBONDED TABLE R-SQUARED SPACING: 0.0625
Info: NONBONDED TABLE SIZE: 705 POINTS
TCL: Setting parameter alchLambda2 to 0.9500000000000003
Info: NONBONDED TABLE R-SQUARED SPACING: 0.0625
Info: NONBONDED TABLE SIZE: 705 POINTS
TCL: Running for 1500000 steps
ETITLE: TS BOND ANGLE DIHED IMPRP ELECT VDW BOUNDARY MISC KINETIC TOTAL TEMP POTENTIAL TOTALAVG TEMPAVG PRESSURE GPRESSURE VOLUME PRESSAVG GPRESSAVG
ENERGY: 0 2.4549 3.5855 1.2647 0.0000 -10560.9022 1379.1305 0.0000 0.0000 1764.8860 -7409.5807 303.0647 -9174.4667 -7409.5807 303.0647 -472.2923 -395.2995 30683.2754 -472.2923 -395.2995
ENERGY: 300000 3.0273 3.0411 2.8282 0.0000 -10549.9035 1325.6110 0.0000 0.0000 1792.8285 -7422.5674 307.8629 -9215.3959 -7434.7001 303.5320 -1167.8464 -1135.0498 30705.5959 -279.3307 -223.7422
ENERGY: 600000 0.9699 2.9572 1.2896 0.0000 -10623.4532 1390.6840 0.0000 0.0000 1752.1720 -7475.3805 300.8814 -9227.5525 -7452.9791 302.3212 -544.7901 -509.6957 30616.5126 -212.7598 -166.8597
ENERGY: 900000 1.4225 3.1956 5.4438 0.0000 -10728.0536 1480.0008 0.0000 0.0000 1725.8135 -7512.1774 296.3552 -9237.9910 -7455.0857 300.9255 323.6759 407.2258 29891.7959 -176.2304 -122.7437
ENERGY: 1200000 2.7324 0.8725 0.8284 0.0000 -10636.9193 1463.6566 0.0000 0.0000 1795.1937 -7373.6358 308.2691 -9168.8294 -7438.8184 301.7466 284.2843 394.9083 30088.1773 -163.6881 -104.6613
ENERGY: 1500000 1.9936 3.4467 3.1240 0.0000 -10614.1059 1389.3143 0.0000 0.0000 1762.0604 -7454.1670 302.5795 -9216.2273 -7437.5809 301.3849 -302.1131 -224.1510 30110.4945 -167.3912 -105.3155
TCL: Running FEP window  20: Lambda1 0.9500000000000003 Lambda2 1.0    [dLambda 0.04999999999999971]
TCL: Setting parameter firsttimestep to 0
TCL: Setting parameter alchLambda to 0.9500000000000003
Info: NONBONDED TABLE R-SQUARED SPACING: 0.0625
Info: NONBONDED TABLE SIZE: 705 POINTS
TCL: Setting parameter alchLambda2 to 1.0
Info: NONBONDED TABLE R-SQUARED SPACING: 0.0625
Info: NONBONDED TABLE SIZE: 705 POINTS
TCL: Running for 1500000 steps
ETITLE: TS BOND ANGLE DIHED IMPRP ELECT VDW BOUNDARY MISC KINETIC TOTAL TEMP POTENTIAL TOTALAVG TEMPAVG PRESSURE GPRESSURE VOLUME PRESSAVG GPRESSAVG
ENERGY: 0 1.9936 3.4467 3.1240 0.0000 -10615.7946 1390.5038 0.0000 0.0000 1761.2055 -7455.5210 302.4327 -9216.7265 -7455.5210 302.4327 -281.5613 -202.4865 30110.4945 -281.5613 -202.4865
ENERGY: 300000 1.5980 2.8969 2.3470 0.0000 -10630.7784 1450.4870 0.0000 0.0000 1729.1937 -7444.2558 296.9356 -9173.4496 -7431.6405 300.7160 428.3999 483.9712 30117.8165 -305.6275 -231.7321
ENERGY: 600000 5.2471 6.3334 3.1664 0.0000 -10462.1874 1334.8143 0.0000 0.0000 1692.4467 -7420.1794 290.6255 -9112.6261 -7431.1781 299.5150 -479.9349 -344.3742 30245.0066 -258.5651 -166.4181
ENERGY: 900000 1.4272 1.8543 3.6436 0.0000 -10558.6203 1394.9228 0.0000 0.0000 1732.9488 -7423.8235 297.5804 -9156.7723 -7426.4999 299.7248 176.4775 241.0813 29800.0046 -257.5146 -186.4948
ENERGY: 1200000 3.0823 2.5396 4.3086 0.0000 -10676.7627 1408.6478 0.0000 0.0000 1734.7839 -7523.4004 297.8956 -9258.1843 -7438.2304 298.9420 -391.2830 -356.6489 30047.6409 -237.8357 -161.2845
ENERGY: 1500000 2.7216 7.6411 2.1862 0.0000 -10516.8633 1332.2913 0.0000 0.0000 1750.9515 -7421.0716 300.6719 -9172.0231 -7437.2394 299.2071 -699.2107 -600.0903 30288.1343 -214.5644 -136.0916
TCL: Exiting due to exit command.
