Info: SIMULATION PARAMETERS:
Info: TIMESTEP               2
Info: NUMBER OF STEPS        0
Info: STEPS PER CYCLE        10
Info: PERIODIC CELL BASIS 1  32.7398 0 0
Info: PERIODIC CELL BASIS 2  0 32.2795 0
Info: PERIODIC CELL BASIS 3  0 0 28.0862
Info: PERIODIC CELL CENTER   0 0 0
Info: WRAPPING WATERS AROUND PERIODIC BOUNDARIES ON OUTPUT.
Info: WRAPPING ALL CLUSTERS AROUND PERIODIC BOUNDARIES ON OUTPUT.
Info: FIRST LDB TIMESTEP     50
Info: LAST LDB TIMESTEP     -1
Info: HOM BACKGROUND SCALING 1
Info: PME BACKGROUND SCALING 1
Info: MIN ATOMS PER PATCH    40
Info: EMPTY PATCH LOAD       40 ATOMS
Info: VELOCITY FILE          mobley_3663158_equil.vel
Info: CENTER OF MASS MOVING INITIALLY? NO
Info: DIELECTRIC             1
Info: EXCLUDE                SCALED ONE-FOUR
Info: 1-4 ELECTROSTATICS SCALED BY 0.833333
Info: MODIFIED 1-4 VDW PARAMETERS WILL BE USED
Info: DCD FILENAME           mobley_3663158_prod.dcd
Info: DCD FREQUENCY          100000
Info: DCD FIRST STEP         100000
Info: DCD FILE WILL CONTAIN UNIT CELL DATA
Info: XST FILENAME           mobley_3663158_prod.xst
Info: XST FREQUENCY          100000
Info: NO VELOCITY DCD OUTPUT
Info: NO FORCE DCD OUTPUT
Info: OUTPUT FILENAME        mobley_3663158_prod
Info: BINARY OUTPUT FILES WILL BE USED
Info: RESTART FILENAME       mobley_3663158_prod.restart
Info: RESTART FREQUENCY      100000
Info: BINARY RESTART FILES WILL BE USED
Info: CUTOFF                 9
Info: PAIRLIST DISTANCE      11
Info: PAIRLIST SHRINK RATE   0.01
Info: PAIRLIST GROW RATE     0.01
Info: PAIRLIST TRIGGER       0.3
Info: PAIRLISTS PER CYCLE    2
Info: PAIRLISTS ENABLED
Info: MARGIN                 2
Info: HYDROGEN GROUP CUTOFF  2.5
Info: PATCH DIMENSION        15.5
Info: ENERGY OUTPUT STEPS    100000
Info: ENERGY EVALUATION STEPS    100000
Info: OUTPUT ENERGY PRECISION 4
Info: CROSSTERM ENERGY INCLUDED IN DIHEDRAL
Info: TIMING OUTPUT STEPS    1000000
Info: PRESSURE OUTPUT STEPS  100000
Info: ALCHEMICAL FEP ON
Info: FEP CURRENT LAMBDA VALUE     1
Info: FEP COMPARISON LAMBDA VALUE  0.95
Info: FEP INTRA-ALCHEMICAL NON-BONDED INTERACTIONS WILL BE RETAINED
Info: FEP INTRA-ALCHEMICAL BONDED INTERACTIONS WILL BE RETAINED
Info: FEP VDW SHIFTING COEFFICIENT 5
Info: FEP ELEC. ACTIVE FOR ANNIHILATED PARTICLES BETWEEN LAMBDA = 0 AND LAMBDA = 0.5
Info: FEP ELEC. ACTIVE FOR EXNIHILATED PARTICLES BETWEEN LAMBDA = 0.5 AND LAMBDA = 1
Info: FEP VDW ACTIVE FOR ANNIHILATED PARTICLES BETWEEN LAMBDA = 0 AND LAMBDA = 1
Info: FEP VDW ACTIVE FOR EXNIHILATED PARTICLES BETWEEN LAMBDA = 0 AND LAMBDA = 1
Info: FEP BOND ACTIVE FOR ANNIHILATED PARTICLES BETWEEN LAMBDA = 1 AND LAMBDA = 1
Info: FEP BOND ACTIVE FOR EXNIHILATED PARTICLES BETWEEN LAMBDA = 0 AND LAMBDA = 0
Info: LANGEVIN DYNAMICS ACTIVE
Info: LANGEVIN TEMPERATURE   300
Info: LANGEVIN USING BBK INTEGRATOR
Info: LANGEVIN DAMPING COEFFICIENT IS 1 INVERSE PS
Info: LANGEVIN DYNAMICS APPLIED TO HYDROGENS
Info: LANGEVIN PISTON PRESSURE CONTROL ACTIVE
Info:        TARGET PRESSURE IS 1.01325 BAR
Info:     OSCILLATION PERIOD IS 50 FS
Info:             DECAY TIME IS 25 FS
Info:     PISTON TEMPERATURE IS 300 K
Info:       PRESSURE CONTROL IS GROUP-BASED
Info:    INITIAL STRAIN RATE IS -5.84687e-05 -5.84687e-05 -5.84687e-05
Info:       CELL FLUCTUATION IS ISOTROPIC
Info: PARTICLE MESH EWALD (PME) ACTIVE
Info: PME TOLERANCE               1e-06
Info: PME EWALD COEFFICIENT       0.348832
Info: PME INTERPOLATION ORDER     4
Info: PME GRID DIMENSIONS         36 36 32
Info: PME MAXIMUM GRID SPACING    1
Info: PME CALCULATION WILL BE PERFORMED ON GPU
Info: FULL ELECTROSTATIC EVALUATION FREQUENCY      2
Info: USING VERLET I (r-RESPA) MTS SCHEME.
Info: C1 SPLITTING OF LONG RANGE ELECTROSTATICS
Info: PLACING ATOMS IN PATCHES BY HYDROGEN GROUPS
Info: RIGID BONDS TO HYDROGEN : ALL
Info:         ERROR TOLERANCE : 1e-08
Info:          MAX ITERATIONS : 100
Info: RIGID WATER USING SETTLE ALGORITHM
Info: RANDOM NUMBER SEED     1743623005
Info: USE HYDROGEN BONDS?    NO
Info: Using AMBER format force field!
Info: AMBER PARM FILE        mobley_3663158.prmtop
Info: COORDINATE PDB         mobley_3663158.pdb
Info: Exclusions will be read from PARM file!
Info: SCNB (VDW SCALING)     2
Info: USING ARITHMETIC MEAN TO COMBINE L-J SIGMA PARAMETERS
Info: BINARY COORDINATES     mobley_3663158_equil.coor
Info: SUMMARY OF PARAMETERS:
Info: 6 BONDS
Info: 4 ANGLES
Info:   4 HARMONIC
Info:   0 COSINE-BASED
Info: 3 DIHEDRAL
Info: 0 IMPROPER
Info: 0 CROSSTERM
Info: 0 VDW
Info: 15 VDW_PAIRS
Info: 0 NBTHOLE_PAIRS
Info: To read alchdata from file: mobley_3663158.pdb
Info: To read alchflag data from column: 5
Info: STRUCTURE SUMMARY:
Info: 2902 ATOMS
Info: 2903 BONDS
Info: 31 ANGLES
Info: 56 DIHEDRALS
Info: 0 IMPROPERS
Info: 0 CROSSTERMS
Info: 2974 EXCLUSIONS
Info: 2891 RIGID BONDS
Info: ALCH: 0 ATOMS TO DISAPPEAR IN FINAL STATE
Info: ALCH: 19 ATOMS TO APPEAR IN FINAL STATE
Info: 5815 DEGREES OF FREEDOM
Info: 972 HYDROGEN GROUPS
Info: 3 ATOMS IN LARGEST HYDROGEN GROUP
Info: 972 MIGRATION GROUPS
Info: 3 ATOMS IN LARGEST MIGRATION GROUP
Info: TOTAL MASS = 17457.5 amu
Info: TOTAL CHARGE = -3.53903e-08 e
Info: MASS DENSITY = 0.976668 g/cm^3
Info: ATOM DENSITY = 0.0977692 atoms/A^3
Info: ADDED 0 IMPLICIT EXCLUSIONS
Info: NONBONDED TABLE R-SQUARED SPACING: 0.0625
Info: NONBONDED TABLE SIZE: 705 POINTS
Info: REDUCING NUMBER OF PATCHES TO IMPROVE LOAD BALANCE
Info: REMOVING COM VELOCITY 0.0620116 -0.108416 -0.200891
Info: Use 3D box decompostion in PME FFT.
Info: Updated CUDA force table with 4096 elements.
Info: Updated CUDA LJ table with 5 x 5 elements.
Info: Found 20 unique exclusion lists needing 52 bytes
TCL: Running for 1500000 steps
ETITLE: TS BOND ANGLE DIHED IMPRP ELECT VDW BOUNDARY MISC KINETIC TOTAL TEMP POTENTIAL TOTALAVG TEMPAVG PRESSURE GPRESSURE VOLUME PRESSAVG GPRESSAVG
ENERGY: 0 2.8809 7.3435 2.1039 0.0000 -10739.3395 1581.3063 0.0000 0.0000 1774.4121 -7371.2928 307.1109 -9145.7049 -7371.2928 307.1109 1208.9029 1284.5781 29682.1606 1208.9029 1284.5781
ENERGY: 300000 7.2768 7.4474 5.9400 0.0000 -10584.7282 1489.2301 0.0000 0.0000 1715.6189 -7359.2149 296.9351 -9074.8338 -7357.7427 302.5597 653.8652 766.1495 29678.5169 512.6497 586.9979
ENERGY: 600000 2.2592 6.6242 4.8361 0.0000 -10406.4526 1327.9801 0.0000 0.0000 1752.0888 -7312.6642 303.2472 -9064.7530 -7339.5922 303.2033 -670.4033 -603.5393 30350.2107 252.5006 305.6095
ENERGY: 900000 6.3203 5.2466 8.4518 0.0000 -10556.2040 1472.1234 0.0000 0.0000 1784.7220 -7279.3399 308.8953 -9064.0619 -7332.4025 302.0330 329.2815 475.0325 30125.4102 251.3302 308.1127
ENERGY: 1200000 5.5401 5.5801 6.0666 0.0000 -10471.0730 1368.1261 0.0000 0.0000 1733.8944 -7351.8657 300.0981 -9085.7601 -7341.5033 301.6430 -641.0007 -574.4362 30076.4772 88.5648 150.7342
ENERGY: 1500000 1.8699 5.9014 5.9830 0.0000 -10274.6812 1289.1053 0.0000 0.0000 1726.8589 -7244.9628 298.8805 -8971.8217 -7334.7675 301.2049 -786.1314 -716.3096 30548.7547 2.2961 61.3861
TCL: Running FEP window   2: Lambda1 0.95   Lambda2 0.8999999999999999 [dLambda -0.050000000000000044]
TCL: Setting parameter firsttimestep to 0
TCL: Setting parameter alchLambda to 0.95
Info: NONBONDED TABLE R-SQUARED SPACING: 0.0625
Info: NONBONDED TABLE SIZE: 705 POINTS
TCL: Setting parameter alchLambda2 to 0.8999999999999999
Info: NONBONDED TABLE R-SQUARED SPACING: 0.0625
Info: NONBONDED TABLE SIZE: 705 POINTS
TCL: Running for 1500000 steps
ETITLE: TS BOND ANGLE DIHED IMPRP ELECT VDW BOUNDARY MISC KINETIC TOTAL TEMP POTENTIAL TOTALAVG TEMPAVG PRESSURE GPRESSURE VOLUME PRESSAVG GPRESSAVG
ENERGY: 0 1.8699 5.9014 5.9830 0.0000 -10272.8960 1288.9519 0.0000 0.0000 1726.0556 -7244.1342 298.7414 -8970.1898 -7244.1342 298.7414 -821.1388 -731.1906 30548.7547 -821.1388 -731.1906
ENERGY: 300000 3.7721 3.7683 6.1025 0.0000 -10397.8190 1311.2540 0.0000 0.0000 1762.2229 -7310.6992 305.0012 -9072.9221 -7312.5213 301.2319 -719.0859 -705.7730 30087.8474 -309.0545 -270.9404
ENERGY: 600000 3.2894 7.3763 5.0930 0.0000 -10545.3533 1452.4018 0.0000 0.0000 1698.9132 -7378.2796 294.0437 -9077.1928 -7340.1543 298.1885 379.5021 417.1920 29880.9760 -253.6897 -215.1067
ENERGY: 900000 4.6277 3.6290 4.6464 0.0000 -10628.4357 1455.0849 0.0000 0.0000 1758.6931 -7401.7547 304.3902 -9160.4478 -7349.0779 299.5584 72.8669 151.3111 30054.1535 -186.6588 -134.1000
ENERGY: 1200000 3.3894 8.5490 5.7818 0.0000 -10306.1043 1297.8817 0.0000 0.0000 1743.2555 -7247.2469 301.7183 -8990.5024 -7347.7684 299.1213 -453.0884 -447.1644 29589.0353 -150.9202 -91.8983
ENERGY: 1500000 1.9673 4.8444 10.5281 0.0000 -10531.8729 1396.6036 0.0000 0.0000 1711.6284 -7406.3011 296.2444 -9117.9294 -7354.0060 299.3839 -318.8174 -233.1575 29780.5719 -163.5654 -99.2227
TCL: Running FEP window   3: Lambda1 0.8999999999999999 Lambda2 0.8499999999999999 [dLambda -0.050000000000000044]
TCL: Setting parameter firsttimestep to 0
TCL: Setting parameter alchLambda to 0.8999999999999999
Info: NONBONDED TABLE R-SQUARED SPACING: 0.0625
Info: NONBONDED TABLE SIZE: 705 POINTS
TCL: Setting parameter alchLambda2 to 0.8499999999999999
Info: NONBONDED TABLE R-SQUARED SPACING: 0.0625
Info: NONBONDED TABLE SIZE: 705 POINTS
TCL: Running for 1500000 steps
ETITLE: TS BOND ANGLE DIHED IMPRP ELECT VDW BOUNDARY MISC KINETIC TOTAL TEMP POTENTIAL TOTALAVG TEMPAVG PRESSURE GPRESSURE VOLUME PRESSAVG GPRESSAVG
ENERGY: 0 1.9673 4.8444 10.5281 0.0000 -10529.5529 1395.6161 0.0000 0.0000 1710.7804 -7405.8165 296.0976 -9116.5969 -7405.8165 296.0976 -333.8901 -252.6445 29780.5719 -333.8901 -252.6445
ENERGY: 300000 9.0981 4.8759 4.9844 0.0000 -10656.1334 1482.5433 0.0000 0.0000 1718.0482 -7436.5833 297.3555 -9154.6316 -7376.0941 298.0202 625.7608 691.6624 29373.0977 227.4136 300.0827
ENERGY: 600000 2.3698 1.4350 5.3480 0.0000 -10285.8949 1307.1696 0.0000 0.0000 1782.4745 -7187.0982 308.5063 -8969.5726 -7342.2206 300.9583 -322.2860 -272.9836 29970.8019 87.3567 166.3802
ENERGY: 900000 6.0966 3.3314 11.0641 0.0000 -10510.0383 1468.6824 0.0000 0.0000 1754.8899 -7265.9739 303.7320 -9020.8638 -7341.5101 300.6017 499.0005 536.5746 30078.6383 128.3936 199.5636
ENERGY: 1200000 4.2406 1.5462 2.0351 0.0000 -10579.3232 1418.9490 0.0000 0.0000 1739.7006 -7412.8517 301.1031 -9152.5523 -7355.6276 300.0979 -282.7426 -196.5758 30111.4988 75.3764 143.2274
ENERGY: 1500000 3.6639 2.6394 2.9759 0.0000 -10472.9938 1394.9795 0.0000 0.0000 1728.7843 -7339.9508 299.2137 -9068.7351 -7349.5632 300.6023 -368.9379 -307.7531 30137.8973 -32.7820 33.1311
TCL: Running FEP window   4: Lambda1 0.8499999999999999 Lambda2 0.7999999999999998 [dLambda -0.050000000000000044]
TCL: Setting parameter firsttimestep to 0
TCL: Setting parameter alchLambda to 0.8499999999999999
Info: NONBONDED TABLE R-SQUARED SPACING: 0.0625
Info: NONBONDED TABLE SIZE: 705 POINTS
TCL: Setting parameter alchLambda2 to 0.7999999999999998
Info: NONBONDED TABLE R-SQUARED SPACING: 0.0625
Info: NONBONDED TABLE SIZE: 705 POINTS
TCL: Running for 1500000 steps
ETITLE: TS BOND ANGLE DIHED IMPRP ELECT VDW BOUNDARY MISC KINETIC TOTAL TEMP POTENTIAL TOTALAVG TEMPAVG PRESSURE GPRESSURE VOLUME PRESSAVG GPRESSAVG
ENERGY: 0 3.6639 2.6394 2.9759 0.0000 -10470.7519 1395.0970 0.0000 0.0000 1727.9461 -7338.4297 299.0686 -9066.3758 -7338.4297 299.0686 -395.2827 -311.0053 30137.8973 -395.2827 -311.0053
ENERGY: 300000 4.4936 10.1566 5.5736 0.0000 -10572.7920 1449.3407 0.0000 0.0000 1718.9966 -7384.2309 297.5197 -9103.2275 -7363.2211 298.0435 112.8646 97.5245 30054.5515 -160.8871 -139.5288
ENERGY: 600000 4.9600 3.5442 5.1848 0.0000 -10578.0434 1464.2947 0.0000 0.0000 1726.8445 -7373.2152 298.8780 -9100.0598 -7381.3710 296.7010 651.8616 594.5554 29598.8620 -16.3602 6.9952
ENERGY: 900000 2.7035 2.2396 4.0264 0.0000 -10572.1460 1468.9057 0.0000 0.0000 1706.6359 -7387.6349 295.3803 -9094.2708 -7388.7105 296.7554 731.8680 811.8983 29630.3862 95.3117 129.7235
ENERGY: 1200000 4.9813 4.6777 6.4617 0.0000 -10539.3658 1420.9217 0.0000 0.0000 1717.6600 -7384.6635 297.2883 -9102.3235 -7381.9214 297.4008 -132.2043 -125.6203 29875.0366 154.9251 196.5498
ENERGY: 1500000 3.6575 8.5738 5.0036 0.0000 -10579.7460 1481.7631 0.0000 0.0000 1739.4682 -7341.2799 301.0628 -9080.7480 -7384.8278 297.4323 607.0946 707.0352 29734.0041 190.5325 236.1262
TCL: Running FEP window   5: Lambda1 0.7999999999999998 Lambda2 0.7499999999999998 [dLambda -0.050000000000000044]
TCL: Setting parameter firsttimestep to 0
TCL: Setting parameter alchLambda to 0.7999999999999998
Info: NONBONDED TABLE R-SQUARED SPACING: 0.0625
Info: NONBONDED TABLE SIZE: 705 POINTS
TCL: Setting parameter alchLambda2 to 0.7499999999999998
Info: NONBONDED TABLE R-SQUARED SPACING: 0.0625
Info: NONBONDED TABLE SIZE: 705 POINTS
TCL: Running for 1500000 steps
ETITLE: TS BOND ANGLE DIHED IMPRP ELECT VDW BOUNDARY MISC KINETIC TOTAL TEMP POTENTIAL TOTALAVG TEMPAVG PRESSURE GPRESSURE VOLUME PRESSAVG GPRESSAVG
ENERGY: 0 3.6575 8.5737 5.0036 0.0000 -10577.5087 1480.9331 0.0000 0.0000 1738.6423 -7340.6983 300.9199 -9079.3407 -7340.6983 300.9199 585.4437 692.8279 29734.0041 585.4437 692.8279
ENERGY: 300000 5.4148 7.5323 3.5515 0.0000 -10534.7427 1436.7160 0.0000 0.0000 1717.0716 -7364.4565 297.1865 -9081.5281 -7344.9166 299.5743 -4.9974 7.8350 30261.3597 37.3342 80.8791
ENERGY: 600000 5.0674 3.9826 5.7173 0.0000 -10626.4727 1473.8195 0.0000 0.0000 1739.5013 -7398.3846 301.0686 -9137.8859 -7359.2446 300.7313 325.9283 381.8901 29367.5283 231.5952 285.4951
ENERGY: 900000 4.5778 3.3980 3.1208 0.0000 -10545.8177 1401.3371 0.0000 0.0000 1713.1299 -7420.2543 296.5043 -9133.3841 -7357.7714 300.6932 -390.2068 -389.8734 30022.1517 57.8148 108.5992
ENERGY: 1200000 2.9088 5.1455 4.8765 0.0000 -10375.5280 1367.8386 0.0000 0.0000 1686.9087 -7307.8499 291.9660 -8994.7587 -7349.6464 299.9318 -360.0456 -313.9568 30539.0088 5.8534 64.5757
ENERGY: 1500000 5.6121 5.3446 6.4807 0.0000 -10555.7921 1444.4132 0.0000 0.0000 1759.0047 -7334.9367 304.4442 -9093.9414 -7348.4001 299.9142 317.6416 378.0569 29953.0474 76.0333 135.4039
TCL: Running FEP window   6: Lambda1 0.7499999999999998 Lambda2 0.6999999999999997 [dLambda -0.050000000000000044]
TCL: Setting parameter firsttimestep to 0
TCL: Setting parameter alchLambda to 0.7499999999999998
Info: NONBONDED TABLE R-SQUARED SPACING: 0.0625
Info: NONBONDED TABLE SIZE: 705 POINTS
TCL: Setting parameter alchLambda2 to 0.6999999999999997
Info: NONBONDED TABLE R-SQUARED SPACING: 0.0625
Info: NONBONDED TABLE SIZE: 705 POINTS
TCL: Running for 1500000 steps
ETITLE: TS BOND ANGLE DIHED IMPRP ELECT VDW BOUNDARY MISC KINETIC TOTAL TEMP POTENTIAL TOTALAVG TEMPAVG PRESSURE GPRESSURE VOLUME PRESSAVG GPRESSAVG
ENERGY: 0 5.6121 5.3446 6.4807 0.0000 -10552.9458 1443.9116 0.0000 0.0000 1758.1516 -7333.4452 304.2965 -9091.5968 -7333.4452 304.2965 289.4005 371.4267 29953.0474 289.4005 371.4267
ENERGY: 300000 2.6743 2.1194 3.7528 0.0000 -10519.9169 1435.4569 0.0000 0.0000 1775.9210 -7299.9925 307.3720 -9075.9135 -7321.0619 302.5903 318.7393 362.7596 29912.4161 202.1297 254.7086
ENERGY: 600000 5.4702 3.7650 6.2045 0.0000 -10570.0697 1433.4655 0.0000 0.0000 1663.8600 -7457.3044 287.9768 -9121.1644 -7358.4905 300.6842 -23.5681 43.1330 29728.5875 174.4498 236.4244
ENERGY: 900000 2.2745 5.5474 5.6401 0.0000 -10586.2947 1414.1750 0.0000 0.0000 1750.2191 -7408.4385 302.9236 -9158.6576 -7355.8189 301.9971 -133.9740 -122.0116 29879.2832 91.4471 153.0844
ENERGY: 1200000 5.3206 2.6640 4.2791 0.0000 -10446.8914 1396.0424 0.0000 0.0000 1729.4752 -7309.1101 299.3333 -9038.5853 -7352.9213 301.1894 -73.3115 -4.0474 30035.3139 50.4015 109.8849
ENERGY: 1500000 3.6784 2.2458 4.3182 0.0000 -10484.1039 1384.4984 0.0000 0.0000 1742.1565 -7347.2066 301.5281 -9089.3631 -7359.1741 300.3216 -249.2886 -175.3256 29769.5448 58.7369 118.6465
TCL: Running FEP window   7: Lambda1 0.6999999999999997 Lambda2 0.6499999999999997 [dLambda -0.050000000000000044]
TCL: Setting parameter firsttimestep to 0
TCL: Setting parameter alchLambda to 0.6999999999999997
Info: NONBONDED TABLE R-SQUARED SPACING: 0.0625
Info: NONBONDED TABLE SIZE: 705 POINTS
TCL: Setting parameter alchLambda2 to 0.6499999999999997
Info: NONBONDED TABLE R-SQUARED SPACING: 0.0625
Info: NONBONDED TABLE SIZE: 705 POINTS
TCL: Running for 1500000 steps
ETITLE: TS BOND ANGLE DIHED IMPRP ELECT VDW BOUNDARY MISC KINETIC TOTAL TEMP POTENTIAL TOTALAVG TEMPAVG PRESSURE GPRESSURE VOLUME PRESSAVG GPRESSAVG
ENERGY: 0 3.6784 2.2458 4.3182 0.0000 -10482.3943 1384.5786 0.0000 0.0000 1741.3358 -7346.2376 301.3861 -9087.5734 -7346.2376 301.3861 -257.9803 -180.5605 29769.5448 -257.9803 -180.5605
ENERGY: 300000 3.7972 3.8912 5.8941 0.0000 -10394.8862 1357.5811 0.0000 0.0000 1693.1230 -7330.5997 293.0415 -9023.7227 -7313.1406 301.6811 -384.0639 -352.2637 29917.5589 -138.8611 -78.7740
ENERGY: 600000 3.6589 7.0599 5.2938 0.0000 -10451.8078 1364.0334 0.0000 0.0000 1740.3905 -7331.3714 301.2225 -9071.7619 -7330.7967 302.6355 -266.3417 -197.3468 29839.5981 65.8216 134.9904
ENERGY: 900000 2.4409 7.4782 4.4550 0.0000 -10592.8629 1498.1561 0.0000 0.0000 1717.0675 -7363.2653 297.1858 -9080.3328 -7329.8690 302.4248 528.1169 629.3953 29884.2087 138.5051 201.8613
ENERGY: 1200000 8.7878 4.3116 5.9518 0.0000 -10446.2099 1375.8809 0.0000 0.0000 1722.8068 -7328.4710 298.1791 -9051.2779 -7321.4632 302.3692 -140.6936 -35.8221 29473.9080 12.9969 80.7074
ENERGY: 1500000 5.8800 4.2934 5.2624 0.0000 -10468.7087 1358.2336 0.0000 0.0000 1749.3870 -7345.6524 302.7796 -9095.0393 -7328.9198 301.8062 -759.5034 -651.2565 29961.1480 -64.3262 6.5431
TCL: Running FEP window   8: Lambda1 0.6499999999999997 Lambda2 0.5999999999999996 [dLambda -0.050000000000000044]
TCL: Setting parameter firsttimestep to 0
TCL: Setting parameter alchLambda to 0.6499999999999997
Info: NONBONDED TABLE R-SQUARED SPACING: 0.0625
Info: NONBONDED TABLE SIZE: 705 POINTS
TCL: Setting parameter alchLambda2 to 0.5999999999999996
Info: NONBONDED TABLE R-SQUARED SPACING: 0.0625
Info: NONBONDED TABLE SIZE: 705 POINTS
TCL: Running for 1500000 steps
ETITLE: TS BOND ANGLE DIHED IMPRP ELECT VDW BOUNDARY MISC KINETIC TOTAL TEMP POTENTIAL TOTALAVG TEMPAVG PRESSURE GPRESSURE VOLUME PRESSAVG GPRESSAVG
ENERGY: 0 5.8800 4.2934 5.2624 0.0000 -10466.7209 1357.7667 0.0000 0.0000 1748.5228 -7344.9956 302.6300 -9093.5184 -7344.9956 302.6300 -744.5615 -661.5590 29961.1480 -744.5615 -661.5590
ENERGY: 300000 1.9167 9.8139 4.3995 0.0000 -10487.5976 1354.1031 0.0000 0.0000 1763.8778 -7353.4865 305.2876 -9117.3643 -7360.0603 302.3723 -240.6133 -192.2643 29396.4140 -220.3461 -159.2444
ENERGY: 600000 4.8764 7.7882 6.7797 0.0000 -10328.6896 1289.7559 0.0000 0.0000 1743.7936 -7275.6956 301.8115 -9019.4892 -7340.9421 301.8372 -1083.6982 -1031.1519 30005.7035 -335.2136 -263.8305
ENERGY: 900000 4.5021 8.6098 6.0979 0.0000 -10627.1801 1443.7893 0.0000 0.0000 1729.3931 -7434.7880 299.3191 -9164.1810 -7350.5182 301.6408 43.2791 143.9885 29694.6595 -435.4777 -359.3834
ENERGY: 1200000 2.1066 3.4947 3.8037 0.0000 -10535.9812 1367.2823 0.0000 0.0000 1724.6322 -7434.6617 298.4951 -9159.2938 -7350.5406 300.5357 -533.7516 -480.1676 30113.4602 -390.9234 -325.0994
ENERGY: 1500000 9.5096 3.8301 4.1992 0.0000 -10493.5671 1417.5144 0.0000 0.0000 1759.2642 -7299.2495 304.4891 -9058.5138 -7340.0480 300.2972 -267.9215 -182.8617 30135.2070 -298.0404 -226.4723
TCL: Running FEP window   9: Lambda1 0.5999999999999996 Lambda2 0.5499999999999996 [dLambda -0.050000000000000044]
TCL: Setting parameter firsttimestep to 0
TCL: Setting parameter alchLambda to 0.5999999999999996
Info: NONBONDED TABLE R-SQUARED SPACING: 0.0625
Info: NONBONDED TABLE SIZE: 705 POINTS
TCL: Setting parameter alchLambda2 to 0.5499999999999996
Info: NONBONDED TABLE R-SQUARED SPACING: 0.0625
Info: NONBONDED TABLE SIZE: 705 POINTS
TCL: Running for 1500000 steps
ETITLE: TS BOND ANGLE DIHED IMPRP ELECT VDW BOUNDARY MISC KINETIC TOTAL TEMP POTENTIAL TOTALAVG TEMPAVG PRESSURE GPRESSURE VOLUME PRESSAVG GPRESSAVG
ENERGY: 0 9.5097 3.8301 4.1992 0.0000 -10492.6017 1417.9115 0.0000 0.0000 1758.3796 -7298.7717 304.3360 -9057.1513 -7298.7717 304.3360 -278.6439 -187.5284 30135.2070 -278.6439 -187.5284
ENERGY: 300000 3.7559 4.4269 4.8581 0.0000 -10419.5521 1326.4308 0.0000 0.0000 1695.9502 -7384.1302 293.5308 -9080.0804 -7321.8679 296.5284 -898.4616 -792.3234 29961.5309 -497.1519 -406.1289
ENERGY: 600000 2.3155 5.0921 3.8434 0.0000 -10640.5698 1452.3631 0.0000 0.0000 1751.2114 -7425.7442 303.0953 -9176.9557 -7330.2723 300.4589 151.4033 267.1719 29501.9172 -316.3967 -230.8059
ENERGY: 900000 2.1863 6.4491 4.1472 0.0000 -10423.9948 1362.0104 0.0000 0.0000 1720.4490 -7328.7528 297.7710 -9049.2018 -7338.4427 299.7321 -285.7263 -236.2525 29930.9895 -234.0075 -159.3941
ENERGY: 1200000 6.0123 2.8906 4.4947 0.0000 -10521.9096 1456.1232 0.0000 0.0000 1736.2170 -7316.1719 300.5001 -9052.3889 -7332.1245 298.9028 264.0832 375.1483 30049.1014 -165.4601 -90.7380
ENERGY: 1500000 2.1592 3.9684 4.7443 0.0000 -10484.3942 1411.2663 0.0000 0.0000 1709.7822 -7352.4739 295.9249 -9062.2560 -7336.8029 299.4104 -222.4583 -147.2658 30252.2153 -117.0912 -36.9242
TCL: Running FEP window  10: Lambda1 0.5499999999999996 Lambda2 0.4999999999999996 [dLambda -0.04999999999999999]
TCL: Setting parameter firsttimestep to 0
TCL: Setting parameter alchLambda to 0.5499999999999996
Info: NONBONDED TABLE R-SQUARED SPACING: 0.0625
Info: NONBONDED TABLE SIZE: 705 POINTS
TCL: Setting parameter alchLambda2 to 0.4999999999999996
Info: NONBONDED TABLE R-SQUARED SPACING: 0.0625
Info: NONBONDED TABLE SIZE: 705 POINTS
TCL: Running for 1500000 steps
ETITLE: TS BOND ANGLE DIHED IMPRP ELECT VDW BOUNDARY MISC KINETIC TOTAL TEMP POTENTIAL TOTALAVG TEMPAVG PRESSURE GPRESSURE VOLUME PRESSAVG GPRESSAVG
ENERGY: 0 2.1592 3.9684 4.7443 0.0000 -10484.3978 1411.4800 0.0000 0.0000 1708.9104 -7353.1355 295.7740 -9062.0459 -7353.1355 295.7740 -241.8723 -152.8698 30252.2153 -241.8723 -152.8698
ENERGY: 300000 3.3938 2.6253 4.3974 0.0000 -10516.3029 1424.2024 0.0000 0.0000 1771.5302 -7310.1538 306.6121 -9081.6840 -7367.0651 298.6776 -326.7784 -183.5712 30553.5987 72.0261 131.1910
ENERGY: 600000 4.2066 4.6504 6.5777 0.0000 -10512.3192 1405.7381 0.0000 0.0000 1761.5560 -7329.5902 304.8857 -9091.1463 -7350.5119 300.0576 -234.8430 -170.2104 29907.9938 97.9867 156.4423
ENERGY: 900000 4.0820 3.7642 6.5220 0.0000 -10545.1451 1384.4549 0.0000 0.0000 1737.2565 -7409.0655 300.6800 -9146.3220 -7365.1285 300.2164 -598.0970 -510.1694 29951.9214 59.8248 120.8000
ENERGY: 1200000 2.3812 3.8649 8.9643 0.0000 -10508.3812 1398.3608 0.0000 0.0000 1757.7955 -7337.0145 304.2349 -9094.8100 -7356.3616 300.9973 -459.4041 -338.9232 29927.4785 17.3501 86.5808
ENERGY: 1500000 3.5886 2.8236 2.8131 0.0000 -10533.6361 1360.6056 0.0000 0.0000 1709.2153 -7454.5899 295.8267 -9163.8052 -7353.9569 301.6078 -575.3611 -541.5280 29791.2485 -44.5239 21.7464
TCL: Running FEP window  11: Lambda1 0.4999999999999996 Lambda2 0.4499999999999996 [dLambda -0.04999999999999999]
TCL: Setting parameter firsttimestep to 0
TCL: Setting parameter alchLambda to 0.4999999999999996
Info: NONBONDED TABLE R-SQUARED SPACING: 0.0625
Info: NONBONDED TABLE SIZE: 705 POINTS
TCL: Setting parameter alchLambda2 to 0.4499999999999996
Info: NONBONDED TABLE R-SQUARED SPACING: 0.0625
Info: NONBONDED TABLE SIZE: 705 POINTS
TCL: Running for 1500000 steps
ETITLE: TS BOND ANGLE DIHED IMPRP ELECT VDW BOUNDARY MISC KINETIC TOTAL TEMP POTENTIAL TOTALAVG TEMPAVG PRESSURE GPRESSURE VOLUME PRESSAVG GPRESSAVG
ENERGY: 0 3.5887 2.8236 2.8131 0.0000 -10533.2686 1360.9003 0.0000 0.0000 1708.3272 -7454.8158 295.6730 -9163.1430 -7454.8158 295.6730 -629.6110 -541.5821 29791.2485 -629.6110 -541.5821
ENERGY: 300000 2.5239 4.7703 5.9776 0.0000 -10451.8017 1358.9729 0.0000 0.0000 1690.4480 -7389.1091 292.5785 -9079.5571 -7366.4881 296.3690 -304.5504 -319.7014 29959.5708 -51.7825 1.2347
ENERGY: 600000 5.9700 7.2884 3.6858 0.0000 -10468.5595 1370.3735 0.0000 0.0000 1720.4038 -7360.8381 297.7632 -9081.2418 -7364.9709 296.9061 -971.5161 -870.9093 30558.5017 -122.1938 -54.8808
ENERGY: 900000 4.1193 7.0962 4.9146 0.0000 -10414.6864 1387.2681 0.0000 0.0000 1711.4793 -7299.8088 296.2186 -9011.2882 -7348.9587 297.4218 -190.6583 -157.2334 30112.6769 36.7299 98.3868
ENERGY: 1200000 4.2266 7.5729 5.8855 0.0000 -10606.9662 1564.9797 0.0000 0.0000 1751.6547 -7272.6468 303.1720 -9024.3014 -7339.0372 299.1838 1288.6516 1378.3642 29703.2349 88.0000 156.7363
ENERGY: 1500000 2.7796 4.2914 7.6690 0.0000 -10430.9137 1339.9762 0.0000 0.0000 1807.4820 -7268.7155 312.8345 -9076.1975 -7332.3098 300.3358 -591.8734 -546.8429 30042.3210 19.0861 86.8953
TCL: Running FEP window  12: Lambda1 0.4499999999999996 Lambda2 0.39999999999999963 [dLambda -0.04999999999999999]
TCL: Setting parameter firsttimestep to 0
TCL: Setting parameter alchLambda to 0.4499999999999996
Info: NONBONDED TABLE R-SQUARED SPACING: 0.0625
Info: NONBONDED TABLE SIZE: 705 POINTS
TCL: Setting parameter alchLambda2 to 0.39999999999999963
Info: NONBONDED TABLE R-SQUARED SPACING: 0.0625
Info: NONBONDED TABLE SIZE: 705 POINTS
TCL: Running for 1500000 steps
ETITLE: TS BOND ANGLE DIHED IMPRP ELECT VDW BOUNDARY MISC KINETIC TOTAL TEMP POTENTIAL TOTALAVG TEMPAVG PRESSURE GPRESSURE VOLUME PRESSAVG GPRESSAVG
ENERGY: 0 2.7796 4.2914 7.6690 0.0000 -10430.9136 1339.6553 0.0000 0.0000 1806.6349 -7269.8834 312.6879 -9076.5184 -7269.8834 312.6879 -630.3913 -558.1698 30042.3210 -630.3913 -558.1698
ENERGY: 300000 2.0798 5.9171 7.7919 0.0000 -10565.2727 1413.8662 0.0000 0.0000 1792.0462 -7343.5715 310.1629 -9135.6177 -7357.7263 304.2306 -40.5229 -7.1330 29684.8032 83.2096 142.2151
ENERGY: 600000 2.8054 3.5854 7.8484 0.0000 -10448.0977 1390.8431 0.0000 0.0000 1818.6548 -7224.3607 314.7683 -9043.0154 -7346.1826 306.9238 -65.6083 3.2510 29925.7310 81.6148 150.7230
ENERGY: 900000 3.7318 6.7829 2.6914 0.0000 -10462.4375 1371.2931 0.0000 0.0000 1730.8975 -7347.0406 299.5795 -9077.9382 -7335.0840 306.3897 -411.7207 -371.3828 29867.7244 -102.7568 -51.6120
ENERGY: 1200000 3.6518 6.7806 1.6238 0.0000 -10411.6555 1382.7838 0.0000 0.0000 1715.5319 -7301.2837 296.9200 -9016.8156 -7318.1181 304.7551 -397.4439 -241.0162 30047.3626 -15.1293 38.8476
ENERGY: 1500000 2.2777 4.6213 4.7158 0.0000 -10575.6705 1382.4300 0.0000 0.0000 1751.8887 -7429.7370 303.2126 -9181.6257 -7322.9191 303.5156 -611.7175 -535.0680 29811.0834 -61.6989 -3.4479
TCL: Running FEP window  13: Lambda1 0.39999999999999963 Lambda2 0.34999999999999964 [dLambda -0.04999999999999999]
TCL: Setting parameter firsttimestep to 0
TCL: Setting parameter alchLambda to 0.39999999999999963
Info: NONBONDED TABLE R-SQUARED SPACING: 0.0625
Info: NONBONDED TABLE SIZE: 705 POINTS
TCL: Setting parameter alchLambda2 to 0.34999999999999964
Info: NONBONDED TABLE R-SQUARED SPACING: 0.0625
Info: NONBONDED TABLE SIZE: 705 POINTS
TCL: Running for 1500000 steps
ETITLE: TS BOND ANGLE DIHED IMPRP ELECT VDW BOUNDARY MISC KINETIC TOTAL TEMP POTENTIAL TOTALAVG TEMPAVG PRESSURE GPRESSURE VOLUME PRESSAVG GPRESSAVG
ENERGY: 0 2.2777 4.6213 4.7158 0.0000 -10575.6706 1382.9720 0.0000 0.0000 1751.0560 -7430.0279 303.0684 -9181.0838 -7430.0279 303.0684 -624.5090 -541.1018 29811.0834 -624.5090 -541.1018
ENERGY: 300000 4.3034 2.0072 6.4419 0.0000 -10495.0447 1427.7148 0.0000 0.0000 1683.0090 -7371.5683 291.2910 -9054.5773 -7392.5682 298.2733 84.8599 155.5791 29456.7223 -321.8805 -254.9336
ENERGY: 600000 6.9040 4.1710 3.3848 0.0000 -10617.0978 1468.7222 0.0000 0.0000 1713.9111 -7420.0047 296.6395 -9133.9158 -7381.6610 299.9657 130.7714 135.6575 29864.0248 -208.3548 -135.8884
ENERGY: 900000 3.0721 4.4576 4.7540 0.0000 -10507.1246 1380.2610 0.0000 0.0000 1711.8057 -7402.7742 296.2751 -9114.5799 -7384.5646 300.3628 -164.6924 -141.2927 29680.3997 -97.4994 -29.0291
ENERGY: 1200000 8.8868 5.2883 4.6013 0.0000 -10633.8151 1533.9670 0.0000 0.0000 1713.1176 -7367.9541 296.5021 -9081.0717 -7372.9212 300.5457 1157.8210 1236.5955 29608.1860 29.3328 90.7070
ENERGY: 1500000 7.1458 5.8398 5.6627 0.0000 -10551.0920 1417.9369 0.0000 0.0000 1721.4731 -7393.0337 297.9483 -9114.5068 -7373.1630 300.7282 -476.9371 -397.8204 30091.2386 9.9142 70.4289
TCL: Running FEP window  14: Lambda1 0.34999999999999964 Lambda2 0.29999999999999966 [dLambda -0.04999999999999999]
TCL: Setting parameter firsttimestep to 0
TCL: Setting parameter alchLambda to 0.34999999999999964
Info: NONBONDED TABLE R-SQUARED SPACING: 0.0625
Info: NONBONDED TABLE SIZE: 705 POINTS
TCL: Setting parameter alchLambda2 to 0.29999999999999966
Info: NONBONDED TABLE R-SQUARED SPACING: 0.0625
Info: NONBONDED TABLE SIZE: 705 POINTS
TCL: Running for 1500000 steps
ETITLE: TS BOND ANGLE DIHED IMPRP ELECT VDW BOUNDARY MISC KINETIC TOTAL TEMP POTENTIAL TOTALAVG TEMPAVG PRESSURE GPRESSURE VOLUME PRESSAVG GPRESSAVG
ENERGY: 0 7.1458 5.8398 5.6627 0.0000 -10551.0936 1418.1676 0.0000 0.0000 1720.6176 -7393.6600 297.8002 -9114.2777 -7393.6600 297.8002 -498.7256 -401.1764 30091.2386 -498.7256 -401.1764
ENERGY: 300000 4.5704 2.9865 6.1098 0.0000 -10644.3105 1568.6828 0.0000 0.0000 1811.1289 -7250.8320 313.4657 -9061.9610 -7316.3085 307.5402 1110.7447 1183.9872 29980.0290 234.7847 300.0829
ENERGY: 600000 1.5793 3.7106 5.9365 0.0000 -10567.8918 1440.4599 0.0000 0.0000 1736.1397 -7380.0659 300.4867 -9116.2055 -7348.0571 303.9805 18.2943 63.3865 30002.9206 112.2600 171.4266
ENERGY: 900000 2.3866 3.9738 7.7942 0.0000 -10544.7067 1437.5516 0.0000 0.0000 1704.6111 -7388.3893 295.0299 -9093.0004 -7340.6239 303.8625 265.6275 296.6335 29540.3827 90.1844 152.8984
ENERGY: 1200000 5.4256 6.1753 2.9162 0.0000 -10581.2763 1461.3905 0.0000 0.0000 1787.3671 -7318.0016 309.3531 -9105.3687 -7339.9351 303.6782 252.4811 292.6884 29774.8446 5.7659 63.0254
ENERGY: 1500000 3.1447 5.5986 5.2627 0.0000 -10471.5017 1336.7207 0.0000 0.0000 1754.9472 -7365.8279 303.7419 -9120.7751 -7342.5790 302.8666 -413.7737 -351.2598 29374.7405 -9.7948 52.3805
TCL: Running FEP window  15: Lambda1 0.29999999999999966 Lambda2 0.24999999999999967 [dLambda -0.04999999999999999]
TCL: Setting parameter firsttimestep to 0
TCL: Setting parameter alchLambda to 0.29999999999999966
Info: NONBONDED TABLE R-SQUARED SPACING: 0.0625
Info: NONBONDED TABLE SIZE: 705 POINTS
TCL: Setting parameter alchLambda2 to 0.24999999999999967
Info: NONBONDED TABLE R-SQUARED SPACING: 0.0625
Info: NONBONDED TABLE SIZE: 705 POINTS
TCL: Running for 1500000 steps
ETITLE: TS BOND ANGLE DIHED IMPRP ELECT VDW BOUNDARY MISC KINETIC TOTAL TEMP POTENTIAL TOTALAVG TEMPAVG PRESSURE GPRESSURE VOLUME PRESSAVG GPRESSAVG
ENERGY: 0 3.1447 5.5985 5.2627 0.0000 -10471.5031 1336.1938 0.0000 0.0000 1754.0845 -7367.2189 303.5926 -9121.3034 -7367.2189 303.5926 -447.4188 -363.3993 29374.7405 -447.4188 -363.3993
ENERGY: 300000 10.1074 4.7955 6.3438 0.0000 -10578.6531 1452.9630 0.0000 0.0000 1737.2012 -7367.2422 300.6705 -9104.4435 -7330.2603 301.4520 87.1955 199.6599 29045.8473 -378.5883 -293.9482
ENERGY: 600000 5.3069 6.4398 5.1558 0.0000 -10457.1442 1350.4262 0.0000 0.0000 1722.8916 -7366.9239 298.1938 -9089.8155 -7343.9473 299.1516 -681.8567 -601.5825 29870.4338 -344.8632 -271.6148
ENERGY: 900000 5.9943 4.0564 3.2113 0.0000 -10359.9139 1278.4237 0.0000 0.0000 1743.9870 -7324.2412 301.8450 -9068.2282 -7341.6427 299.9817 -1229.8551 -1200.9000 30066.5973 -380.5147 -314.7327
ENERGY: 1200000 3.2970 1.6821 4.9233 0.0000 -10486.5209 1362.4509 0.0000 0.0000 1767.6277 -7346.5399 305.9366 -9114.1676 -7327.5725 301.6822 -570.4583 -504.4942 30205.2698 -391.5548 -329.3450
ENERGY: 1500000 8.9713 4.3264 7.2127 0.0000 -10683.5982 1512.0082 0.0000 0.0000 1741.7856 -7409.2939 301.4639 -9151.0795 -7336.7242 301.2911 759.7334 771.2702 29606.6541 -186.7040 -127.1449
TCL: Running FEP window  16: Lambda1 0.24999999999999967 Lambda2 0.19999999999999968 [dLambda -0.04999999999999999]
TCL: Setting parameter firsttimestep to 0
TCL: Setting parameter alchLambda to 0.24999999999999967
Info: NONBONDED TABLE R-SQUARED SPACING: 0.0625
Info: NONBONDED TABLE SIZE: 705 POINTS
TCL: Setting parameter alchLambda2 to 0.19999999999999968
Info: NONBONDED TABLE R-SQUARED SPACING: 0.0625
Info: NONBONDED TABLE SIZE: 705 POINTS
TCL: Running for 1500000 steps
ETITLE: TS BOND ANGLE DIHED IMPRP ELECT VDW BOUNDARY MISC KINETIC TOTAL TEMP POTENTIAL TOTALAVG TEMPAVG PRESSURE GPRESSURE VOLUME PRESSAVG GPRESSAVG
ENERGY: 0 8.9713 4.3264 7.2127 0.0000 -10683.5978 1512.6304 0.0000 0.0000 1740.9454 -7409.5116 301.3185 -9150.4570 -7409.5116 301.3185 687.0969 770.1883 29606.6541 687.0969 770.1883
ENERGY: 300000 2.6450 4.4793 6.2071 0.0000 -10570.2713 1424.8015 0.0000 0.0000 1746.3391 -7385.7992 302.2520 -9132.1383 -7386.9640 300.1534 27.7747 88.2358 29414.8961 175.7085 238.1566
ENERGY: 600000 1.2160 4.9408 7.1470 0.0000 -10593.7837 1470.4845 0.0000 0.0000 1712.3005 -7397.6949 296.3607 -9109.9954 -7391.8355 298.0365 602.5072 683.4506 29124.3811 9.9878 65.2741
ENERGY: 900000 3.6742 1.4038 3.2795 0.0000 -10436.6413 1359.7581 0.0000 0.0000 1739.9436 -7328.5820 301.1451 -9068.5256 -7363.6079 299.5402 -407.1989 -375.0774 29626.4996 70.0711 116.9907
ENERGY: 1200000 4.5551 3.2014 3.2931 0.0000 -10504.6759 1374.8342 0.0000 0.0000 1727.0056 -7391.7865 298.9059 -9118.7921 -7365.7030 299.5425 -728.6927 -631.2090 29936.5584 -20.9226 33.8340
ENERGY: 1500000 5.6253 4.2239 2.3826 0.0000 -10409.6418 1359.9117 0.0000 0.0000 1741.2209 -7296.2774 301.3662 -9037.4983 -7356.4999 299.9918 -208.0550 -174.4254 29783.6641 -49.4641 6.3601
TCL: Running FEP window  17: Lambda1 0.19999999999999968 Lambda2 0.1499999999999997 [dLambda -0.04999999999999999]
TCL: Setting parameter firsttimestep to 0
TCL: Setting parameter alchLambda to 0.19999999999999968
Info: NONBONDED TABLE R-SQUARED SPACING: 0.0625
Info: NONBONDED TABLE SIZE: 705 POINTS
TCL: Setting parameter alchLambda2 to 0.1499999999999997
Info: NONBONDED TABLE R-SQUARED SPACING: 0.0625
Info: NONBONDED TABLE SIZE: 705 POINTS
TCL: Running for 1500000 steps
ETITLE: TS BOND ANGLE DIHED IMPRP ELECT VDW BOUNDARY MISC KINETIC TOTAL TEMP POTENTIAL TOTALAVG TEMPAVG PRESSURE GPRESSURE VOLUME PRESSAVG GPRESSAVG
ENERGY: 0 5.6253 4.2239 2.3826 0.0000 -10409.6412 1359.8825 0.0000 0.0000 1740.4080 -7297.1190 301.2255 -9037.5270 -7297.1190 301.2255 -259.3409 -175.5557 29783.6641 -259.3409 -175.5557
ENERGY: 300000 3.9505 6.5163 10.8051 0.0000 -10497.6999 1362.9059 0.0000 0.0000 1764.2308 -7349.2913 305.3487 -9113.5221 -7331.1557 301.3345 -695.7788 -628.3179 29974.0946 -249.0543 -168.1996
ENERGY: 600000 3.4686 4.1314 6.0932 0.0000 -10551.2032 1381.3998 0.0000 0.0000 1702.9044 -7453.2058 294.7345 -9156.1102 -7354.1045 300.1292 -619.6994 -610.2771 29702.9087 -263.4662 -185.7004
ENERGY: 900000 4.0251 5.4718 3.8067 0.0000 -10522.1027 1419.7051 0.0000 0.0000 1755.6638 -7333.4302 303.8659 -9089.0941 -7363.0654 299.0976 -146.5639 -33.1635 30007.9909 -133.0891 -66.4939
ENERGY: 1200000 1.8106 8.7668 4.7695 0.0000 -10436.0134 1383.9449 0.0000 0.0000 1727.4047 -7309.3169 298.9749 -9036.7216 -7350.4983 299.0609 -27.7613 72.3823 29705.5267 -45.2712 24.0775
ENERGY: 1500000 1.9295 7.5256 3.8626 0.0000 -10526.2006 1425.7400 0.0000 0.0000 1706.7920 -7380.3508 295.4073 -9087.1428 -7353.9243 298.6229 85.0180 181.5047 29723.6344 -86.1883 -8.3334
TCL: Running FEP window  18: Lambda1 0.1499999999999997 Lambda2 0.09999999999999969 [dLambda -0.05 ]
TCL: Setting parameter firsttimestep to 0
TCL: Setting parameter alchLambda to 0.1499999999999997
Info: NONBONDED TABLE R-SQUARED SPACING: 0.0625
Info: NONBONDED TABLE SIZE: 705 POINTS
TCL: Setting parameter alchLambda2 to 0.09999999999999969
Info: NONBONDED TABLE R-SQUARED SPACING: 0.0625
Info: NONBONDED TABLE SIZE: 705 POINTS
TCL: Running for 1500000 steps
ETITLE: TS BOND ANGLE DIHED IMPRP ELECT VDW BOUNDARY MISC KINETIC TOTAL TEMP POTENTIAL TOTALAVG TEMPAVG PRESSURE GPRESSURE VOLUME PRESSAVG GPRESSAVG
ENERGY: 0 1.9296 7.5256 3.8626 0.0000 -10526.2010 1425.0429 0.0000 0.0000 1705.9618 -7381.8785 295.2636 -9087.8404 -7381.8785 295.2636 92.2866 173.0665 29723.6344 92.2866 173.0665
ENERGY: 300000 5.0548 4.5831 4.0166 0.0000 -10618.4969 1447.1263 0.0000 0.0000 1773.2459 -7384.4702 306.9090 -9157.7161 -7374.9336 301.1993 142.0266 275.8879 29521.4230 -134.0816 -39.2431
ENERGY: 600000 4.0942 3.2422 5.6783 0.0000 -10686.8159 1570.9009 0.0000 0.0000 1776.2502 -7326.6502 307.4290 -9102.9004 -7353.0239 302.6927 1372.4945 1473.9097 29060.9731 144.6946 245.9069
ENERGY: 900000 2.3793 3.8881 5.0353 0.0000 -10551.1179 1426.5979 0.0000 0.0000 1789.1281 -7324.0892 309.6579 -9113.2173 -7348.8677 302.7293 -404.7694 -349.8190 30367.3888 27.8035 116.4969
ENERGY: 1200000 4.3023 7.1243 5.4250 0.0000 -10275.1466 1276.0332 0.0000 0.0000 1779.2039 -7203.0578 307.9402 -8982.2617 -7342.8198 303.3984 -1098.7690 -1013.0357 30265.2460 16.2470 102.1846
ENERGY: 1500000 2.4277 5.0863 3.8378 0.0000 -10479.4735 1441.1073 0.0000 0.0000 1718.2839 -7308.7304 297.3963 -9027.0143 -7341.0932 302.9010 314.2832 392.2224 29677.1178 40.0066 121.3341
TCL: Running FEP window  19: Lambda1 0.09999999999999969 Lambda2 0.049999999999999684 [dLambda -0.05 ]
TCL: Setting parameter firsttimestep to 0
TCL: Setting parameter alchLambda to 0.09999999999999969
Info: NONBONDED TABLE R-SQUARED SPACING: 0.0625
Info: NONBONDED TABLE SIZE: 705 POINTS
TCL: Setting parameter alchLambda2 to 0.049999999999999684
Info: NONBONDED TABLE R-SQUARED SPACING: 0.0625
Info: NONBONDED TABLE SIZE: 705 POINTS
TCL: Running for 1500000 steps
ETITLE: TS BOND ANGLE DIHED IMPRP ELECT VDW BOUNDARY MISC KINETIC TOTAL TEMP POTENTIAL TOTALAVG TEMPAVG PRESSURE GPRESSURE VOLUME PRESSAVG GPRESSAVG
ENERGY: 0 2.4277 5.0863 3.8378 0.0000 -10479.4746 1441.5039 0.0000 0.0000 1717.4165 -7309.2023 297.2462 -9026.6189 -7309.2023 297.2462 322.2087 392.6461 29677.1178 322.2087 392.6461
ENERGY: 300000 3.5015 3.4856 3.7946 0.0000 -10556.4588 1507.9738 0.0000 0.0000 1747.3738 -7290.3296 302.4311 -9037.7033 -7324.8053 299.4741 791.2239 796.4545 29610.1132 174.4711 235.6290
ENERGY: 600000 5.3708 2.7411 6.0598 0.0000 -10444.7950 1415.0010 0.0000 0.0000 1735.2197 -7280.4025 300.3275 -9015.6222 -7325.6789 300.8261 -71.6111 22.8478 30072.1162 -61.3460 13.4841
ENERGY: 900000 1.9986 3.6867 4.6800 0.0000 -10458.0709 1360.0457 0.0000 0.0000 1734.9888 -7352.6711 300.2876 -9087.6599 -7337.0948 299.9498 -292.5944 -316.2273 29616.2671 158.6750 221.6156
ENERGY: 1200000 3.6174 5.3336 4.2069 0.0000 -10478.9636 1403.0328 0.0000 0.0000 1719.8318 -7342.9410 297.6642 -9062.7729 -7346.4790 298.7966 -253.5952 -233.6306 30376.5278 130.9904 186.7038
ENERGY: 1500000 4.1455 5.6340 3.2481 0.0000 -10586.1543 1460.9822 0.0000 0.0000 1713.9977 -7398.1468 296.6545 -9112.1445 -7346.1675 298.7505 136.1797 169.6792 29817.6855 8.0633 67.1653
TCL: Running FEP window  20: Lambda1 0.049999999999999684 Lambda2 0.0    [dLambda -0.049999999999999684]
TCL: Setting parameter firsttimestep to 0
TCL: Setting parameter alchLambda to 0.049999999999999684
Info: NONBONDED TABLE R-SQUARED SPACING: 0.0625
Info: NONBONDED TABLE SIZE: 705 POINTS
TCL: Setting parameter alchLambda2 to 0.0
Info: NONBONDED TABLE R-SQUARED SPACING: 0.0625
Info: NONBONDED TABLE SIZE: 705 POINTS
TCL: Running for 1500000 steps
ETITLE: TS BOND ANGLE DIHED IMPRP ELECT VDW BOUNDARY MISC KINETIC TOTAL TEMP POTENTIAL TOTALAVG TEMPAVG PRESSURE GPRESSURE VOLUME PRESSAVG GPRESSAVG
ENERGY: 0 4.1455 5.6340 3.2481 0.0000 -10586.1539 1460.5600 0.0000 0.0000 1713.1319 -7399.4345 296.5046 -9112.5663 -7399.4345 296.5046 87.3953 164.3373 29817.6855 87.3953 164.3373
ENERGY: 300000 3.4062 4.8110 3.0452 0.0000 -10566.9807 1458.9106 0.0000 0.0000 1744.1976 -7352.6100 301.8814 -9096.8077 -7358.0962 301.3649 -149.5268 -36.0299 30562.3740 205.5337 280.4932
ENERGY: 600000 4.8365 4.3656 6.7593 0.0000 -10563.3350 1439.9185 0.0000 0.0000 1717.9169 -7389.5383 297.3328 -9107.4552 -7359.9200 300.4587 -53.9765 -45.1229 29622.7937 309.5614 364.4032
ENERGY: 900000 3.0774 2.7479 2.9326 0.0000 -10468.4436 1389.9059 0.0000 0.0000 1715.4442 -7354.3357 296.9048 -9069.7798 -7342.4169 301.4652 -355.3592 -276.9932 29541.7110 245.6276 315.4352
ENERGY: 1200000 6.7355 5.4964 5.0925 0.0000 -10483.1123 1360.7902 0.0000 0.0000 1786.8402 -7318.1575 309.2619 -9104.9977 -7343.4361 301.1213 -399.7781 -290.6809 29490.6576 107.2138 185.9195
ENERGY: 1500000 4.1630 4.2452 5.5483 0.0000 -10481.3838 1344.1543 0.0000 0.0000 1716.7261 -7406.5468 297.1267 -9123.2730 -7344.9115 300.6203 -922.7573 -893.4678 30086.5776 75.7181 149.8102
TCL: Exiting due to exit command.
