Info: SIMULATION PARAMETERS:
Info: TIMESTEP               2
Info: NUMBER OF STEPS        0
Info: STEPS PER CYCLE        10
Info: PERIODIC CELL BASIS 1  32.3003 0 0
Info: PERIODIC CELL BASIS 2  0 31.707 0
Info: PERIODIC CELL BASIS 3  0 0 29.4672
Info: PERIODIC CELL CENTER   0 0 0
Info: WRAPPING WATERS AROUND PERIODIC BOUNDARIES ON OUTPUT.
Info: WRAPPING ALL CLUSTERS AROUND PERIODIC BOUNDARIES ON OUTPUT.
Info: FIRST LDB TIMESTEP     50
Info: LAST LDB TIMESTEP     -1
Info: HOM BACKGROUND SCALING 1
Info: PME BACKGROUND SCALING 1
Info: MIN ATOMS PER PATCH    40
Info: EMPTY PATCH LOAD       40 ATOMS
Info: VELOCITY FILE          mobley_9414831_equil.vel
Info: CENTER OF MASS MOVING INITIALLY? NO
Info: DIELECTRIC             1
Info: EXCLUDE                SCALED ONE-FOUR
Info: 1-4 ELECTROSTATICS SCALED BY 0.833333
Info: MODIFIED 1-4 VDW PARAMETERS WILL BE USED
Info: DCD FILENAME           mobley_9414831_prod.dcd
Info: DCD FREQUENCY          100000
Info: DCD FIRST STEP         100000
Info: DCD FILE WILL CONTAIN UNIT CELL DATA
Info: XST FILENAME           mobley_9414831_prod.xst
Info: XST FREQUENCY          100000
Info: NO VELOCITY DCD OUTPUT
Info: NO FORCE DCD OUTPUT
Info: OUTPUT FILENAME        mobley_9414831_prod
Info: BINARY OUTPUT FILES WILL BE USED
Info: RESTART FILENAME       mobley_9414831_prod.restart
Info: RESTART FREQUENCY      100000
Info: BINARY RESTART FILES WILL BE USED
Info: CUTOFF                 9
Info: PAIRLIST DISTANCE      11
Info: PAIRLIST SHRINK RATE   0.01
Info: PAIRLIST GROW RATE     0.01
Info: PAIRLIST TRIGGER       0.3
Info: PAIRLISTS PER CYCLE    2
Info: PAIRLISTS ENABLED
Info: MARGIN                 2
Info: HYDROGEN GROUP CUTOFF  2.5
Info: PATCH DIMENSION        15.5
Info: ENERGY OUTPUT STEPS    100000
Info: ENERGY EVALUATION STEPS    100000
Info: OUTPUT ENERGY PRECISION 4
Info: CROSSTERM ENERGY INCLUDED IN DIHEDRAL
Info: TIMING OUTPUT STEPS    1000000
Info: PRESSURE OUTPUT STEPS  100000
Info: ALCHEMICAL FEP ON
Info: FEP CURRENT LAMBDA VALUE     1
Info: FEP COMPARISON LAMBDA VALUE  0.95
Info: FEP INTRA-ALCHEMICAL NON-BONDED INTERACTIONS WILL BE RETAINED
Info: FEP INTRA-ALCHEMICAL BONDED INTERACTIONS WILL BE RETAINED
Info: FEP VDW SHIFTING COEFFICIENT 5
Info: FEP ELEC. ACTIVE FOR ANNIHILATED PARTICLES BETWEEN LAMBDA = 0 AND LAMBDA = 0.5
Info: FEP ELEC. ACTIVE FOR EXNIHILATED PARTICLES BETWEEN LAMBDA = 0.5 AND LAMBDA = 1
Info: FEP VDW ACTIVE FOR ANNIHILATED PARTICLES BETWEEN LAMBDA = 0 AND LAMBDA = 1
Info: FEP VDW ACTIVE FOR EXNIHILATED PARTICLES BETWEEN LAMBDA = 0 AND LAMBDA = 1
Info: FEP BOND ACTIVE FOR ANNIHILATED PARTICLES BETWEEN LAMBDA = 1 AND LAMBDA = 1
Info: FEP BOND ACTIVE FOR EXNIHILATED PARTICLES BETWEEN LAMBDA = 0 AND LAMBDA = 0
Info: LANGEVIN DYNAMICS ACTIVE
Info: LANGEVIN TEMPERATURE   300
Info: LANGEVIN USING BBK INTEGRATOR
Info: LANGEVIN DAMPING COEFFICIENT IS 1 INVERSE PS
Info: LANGEVIN DYNAMICS APPLIED TO HYDROGENS
Info: LANGEVIN PISTON PRESSURE CONTROL ACTIVE
Info:        TARGET PRESSURE IS 1.01325 BAR
Info:     OSCILLATION PERIOD IS 50 FS
Info:             DECAY TIME IS 25 FS
Info:     PISTON TEMPERATURE IS 300 K
Info:       PRESSURE CONTROL IS GROUP-BASED
Info:    INITIAL STRAIN RATE IS -0.000639637 -0.000639637 -0.000639637
Info:       CELL FLUCTUATION IS ISOTROPIC
Info: PARTICLE MESH EWALD (PME) ACTIVE
Info: PME TOLERANCE               1e-06
Info: PME EWALD COEFFICIENT       0.348832
Info: PME INTERPOLATION ORDER     4
Info: PME GRID DIMENSIONS         36 32 32
Info: PME MAXIMUM GRID SPACING    1
Info: PME CALCULATION WILL BE PERFORMED ON GPU
Info: FULL ELECTROSTATIC EVALUATION FREQUENCY      2
Info: USING VERLET I (r-RESPA) MTS SCHEME.
Info: C1 SPLITTING OF LONG RANGE ELECTROSTATICS
Info: PLACING ATOMS IN PATCHES BY HYDROGEN GROUPS
Info: RIGID BONDS TO HYDROGEN : ALL
Info:         ERROR TOLERANCE : 1e-08
Info:          MAX ITERATIONS : 100
Info: RIGID WATER USING SETTLE ALGORITHM
Info: RANDOM NUMBER SEED     1743641372
Info: USE HYDROGEN BONDS?    NO
Info: Using AMBER format force field!
Info: AMBER PARM FILE        mobley_9414831.prmtop
Info: COORDINATE PDB         mobley_9414831.pdb
Info: Exclusions will be read from PARM file!
Info: SCNB (VDW SCALING)     2
Info: USING ARITHMETIC MEAN TO COMBINE L-J SIGMA PARAMETERS
Info: BINARY COORDINATES     mobley_9414831_equil.coor
Info: SUMMARY OF PARAMETERS:
Info: 6 BONDS
Info: 5 ANGLES
Info:   5 HARMONIC
Info:   0 COSINE-BASED
Info: 3 DIHEDRAL
Info: 0 IMPROPER
Info: 0 CROSSTERM
Info: 0 VDW
Info: 21 VDW_PAIRS
Info: 0 NBTHOLE_PAIRS
Info: To read alchdata from file: mobley_9414831.pdb
Info: To read alchflag data from column: 5
Info: STRUCTURE SUMMARY:
Info: 2973 ATOMS
Info: 2974 BONDS
Info: 36 ANGLES
Info: 60 DIHEDRALS
Info: 0 IMPROPERS
Info: 0 CROSSTERMS
Info: 3054 EXCLUSIONS
Info: 2962 RIGID BONDS
Info: ALCH: 0 ATOMS TO DISAPPEAR IN FINAL STATE
Info: ALCH: 21 ATOMS TO APPEAR IN FINAL STATE
Info: 5957 DEGREES OF FREEDOM
Info: 995 HYDROGEN GROUPS
Info: 4 ATOMS IN LARGEST HYDROGEN GROUP
Info: 995 MIGRATION GROUPS
Info: 4 ATOMS IN LARGEST MIGRATION GROUP
Info: TOTAL MASS = 17869.9 amu
Info: TOTAL CHARGE = 9.99738e-05 e
Info: MASS DENSITY = 0.98329 g/cm^3
Info: ATOM DENSITY = 0.0985131 atoms/A^3
Info: ADDED 0 IMPLICIT EXCLUSIONS
Info: NONBONDED TABLE R-SQUARED SPACING: 0.0625
Info: NONBONDED TABLE SIZE: 705 POINTS
Info: REDUCING NUMBER OF PATCHES TO IMPROVE LOAD BALANCE
Info: REMOVING COM VELOCITY -0.224171 -0.11294 0.0646178
Info: Use 3D box decompostion in PME FFT.
Info: Updated CUDA force table with 4096 elements.
Info: Updated CUDA LJ table with 6 x 6 elements.
Info: Found 20 unique exclusion lists needing 56 bytes
TCL: Running for 1500000 steps
ETITLE: TS BOND ANGLE DIHED IMPRP ELECT VDW BOUNDARY MISC KINETIC TOTAL TEMP POTENTIAL TOTALAVG TEMPAVG PRESSURE GPRESSURE VOLUME PRESSAVG GPRESSAVG
ENERGY: 0 4.5059 5.1941 5.3202 0.0000 -10815.3628 1506.7288 0.0000 0.0000 1801.9600 -7491.6539 304.4444 -9293.6138 -7491.6539 304.4444 406.4086 485.5157 30178.7164 406.4086 485.5157
ENERGY: 300000 3.7937 3.8839 5.7615 0.0000 -10675.6572 1374.2467 0.0000 0.0000 1736.6364 -7551.3349 293.4078 -9287.9713 -7513.9484 300.7974 -560.4151 -441.6918 30532.9361 -60.5206 3.7090
ENERGY: 600000 3.6417 9.1290 3.1240 0.0000 -10795.6877 1467.9243 0.0000 0.0000 1801.5339 -7510.3349 304.3724 -9311.8687 -7503.3811 301.6322 -1.0328 101.4988 30897.3078 -34.0717 24.6878
ENERGY: 900000 3.2253 3.7814 6.5669 0.0000 -10818.5374 1475.2503 0.0000 0.0000 1792.2295 -7537.4841 302.8004 -9329.7135 -7511.1685 301.0047 333.3244 356.8855 30540.6066 -39.5075 12.0742
ENERGY: 1200000 5.2514 6.0877 3.9027 0.0000 -10765.5619 1426.4373 0.0000 0.0000 1833.7180 -7490.1648 309.8099 -9323.8828 -7514.5638 301.6597 -160.9560 -119.8425 30268.1094 -39.3153 11.7448
ENERGY: 1500000 3.0255 8.9953 6.2954 0.0000 -10707.2866 1338.4548 0.0000 0.0000 1763.2785 -7587.2371 297.9090 -9350.5156 -7514.9270 301.1976 -855.9889 -794.0721 30311.1610 -111.4698 -55.8238
TCL: Running FEP window   2: Lambda1 0.95   Lambda2 0.8999999999999999 [dLambda -0.050000000000000044]
TCL: Setting parameter firsttimestep to 0
TCL: Setting parameter alchLambda to 0.95
Info: NONBONDED TABLE R-SQUARED SPACING: 0.0625
Info: NONBONDED TABLE SIZE: 705 POINTS
TCL: Setting parameter alchLambda2 to 0.8999999999999999
Info: NONBONDED TABLE R-SQUARED SPACING: 0.0625
Info: NONBONDED TABLE SIZE: 705 POINTS
TCL: Running for 1500000 steps
ETITLE: TS BOND ANGLE DIHED IMPRP ELECT VDW BOUNDARY MISC KINETIC TOTAL TEMP POTENTIAL TOTALAVG TEMPAVG PRESSURE GPRESSURE VOLUME PRESSAVG GPRESSAVG
ENERGY: 0 3.0255 8.9953 6.2954 0.0000 -10706.5146 1338.7864 0.0000 0.0000 1762.3544 -7587.0575 297.7529 -9349.4120 -7587.0575 297.7529 -887.3065 -803.0479 30311.1610 -887.3065 -803.0479
ENERGY: 300000 2.3392 4.1626 7.0275 0.0000 -10476.9461 1216.3499 0.0000 0.0000 1801.1962 -7445.8707 304.3153 -9247.0669 -7482.4819 297.6913 -1497.9593 -1418.2239 30819.5314 -761.7151 -704.2052
ENERGY: 600000 5.0231 9.0368 3.7031 0.0000 -10578.5452 1363.4591 0.0000 0.0000 1794.1047 -7403.2184 303.1172 -9197.3231 -7489.4301 299.5320 -638.1185 -533.4094 30846.3396 -436.5661 -371.7974
ENERGY: 900000 4.9371 10.3690 4.3136 0.0000 -10702.5750 1395.6116 0.0000 0.0000 1790.7850 -7496.5587 302.5563 -9287.3437 -7496.3477 299.5976 -586.3254 -526.7183 31192.8326 -298.5753 -230.7396
ENERGY: 1200000 6.6099 5.7230 4.9651 0.0000 -10666.2627 1446.6439 0.0000 0.0000 1753.0428 -7449.2782 296.1797 -9202.3209 -7498.3841 299.2539 17.0588 116.7762 30923.2043 -155.6861 -88.9845
ENERGY: 1500000 3.1163 4.0722 2.4784 0.0000 -10784.0210 1462.8667 0.0000 0.0000 1790.0491 -7521.4385 302.4320 -9311.4876 -7499.6904 299.9891 -31.5180 29.2425 30853.8785 -161.2268 -98.4678
TCL: Running FEP window   3: Lambda1 0.8999999999999999 Lambda2 0.8499999999999999 [dLambda -0.050000000000000044]
TCL: Setting parameter firsttimestep to 0
TCL: Setting parameter alchLambda to 0.8999999999999999
Info: NONBONDED TABLE R-SQUARED SPACING: 0.0625
Info: NONBONDED TABLE SIZE: 705 POINTS
TCL: Setting parameter alchLambda2 to 0.8499999999999999
Info: NONBONDED TABLE R-SQUARED SPACING: 0.0625
Info: NONBONDED TABLE SIZE: 705 POINTS
TCL: Running for 1500000 steps
ETITLE: TS BOND ANGLE DIHED IMPRP ELECT VDW BOUNDARY MISC KINETIC TOTAL TEMP POTENTIAL TOTALAVG TEMPAVG PRESSURE GPRESSURE VOLUME PRESSAVG GPRESSAVG
ENERGY: 0 3.1163 4.0722 2.4784 0.0000 -10783.1636 1463.3400 0.0000 0.0000 1789.1651 -7520.9918 302.2826 -9310.1568 -7520.9918 302.2826 -59.0952 23.2273 30853.8785 -59.0952 23.2273
ENERGY: 300000 4.9829 5.8909 3.3579 0.0000 -10854.1067 1495.4638 0.0000 0.0000 1809.9823 -7534.4288 305.7997 -9344.4111 -7498.1852 303.5664 293.4415 290.5988 30524.1587 131.5843 167.5232
ENERGY: 600000 2.9226 2.8136 4.6746 0.0000 -10838.7922 1533.6594 0.0000 0.0000 1784.7532 -7509.9689 301.5372 -9294.7221 -7510.5613 300.8882 530.7057 562.7383 30763.5497 301.1800 342.6211
ENERGY: 900000 3.4664 4.4292 3.0471 0.0000 -10736.6684 1427.0044 0.0000 0.0000 1787.0321 -7511.6893 301.9223 -9298.7214 -7509.9182 300.4085 -178.0347 -94.3466 30678.1856 220.8095 267.9709
ENERGY: 1200000 3.3208 5.7751 3.2668 0.0000 -10825.2344 1472.8103 0.0000 0.0000 1746.9352 -7593.1261 295.1478 -9340.0613 -7509.9573 299.2695 355.9946 369.5407 30412.9569 145.2378 191.6507
ENERGY: 1500000 5.4540 4.2588 6.6550 0.0000 -10747.5234 1390.8379 0.0000 0.0000 1802.5522 -7537.7656 304.5444 -9340.3178 -7511.7439 299.4578 -280.8079 -285.4005 30300.0541 32.6400 80.6022
TCL: Running FEP window   4: Lambda1 0.8499999999999999 Lambda2 0.7999999999999998 [dLambda -0.050000000000000044]
TCL: Setting parameter firsttimestep to 0
TCL: Setting parameter alchLambda to 0.8499999999999999
Info: NONBONDED TABLE R-SQUARED SPACING: 0.0625
Info: NONBONDED TABLE SIZE: 705 POINTS
TCL: Setting parameter alchLambda2 to 0.7999999999999998
Info: NONBONDED TABLE R-SQUARED SPACING: 0.0625
Info: NONBONDED TABLE SIZE: 705 POINTS
TCL: Running for 1500000 steps
ETITLE: TS BOND ANGLE DIHED IMPRP ELECT VDW BOUNDARY MISC KINETIC TOTAL TEMP POTENTIAL TOTALAVG TEMPAVG PRESSURE GPRESSURE VOLUME PRESSAVG GPRESSAVG
ENERGY: 0 5.4540 4.2588 6.6550 0.0000 -10746.5768 1391.1000 0.0000 0.0000 1801.6398 -7537.4691 304.3903 -9339.1089 -7537.4691 304.3903 -368.8260 -295.9870 30300.0541 -368.8260 -295.9870
ENERGY: 300000 7.0964 7.5771 4.8934 0.0000 -10748.8532 1468.2787 0.0000 0.0000 1735.7384 -7525.2693 293.2561 -9261.0077 -7500.2634 303.3188 314.9092 379.3405 30644.3881 -134.5171 -56.4537
ENERGY: 600000 3.2181 17.1726 6.3034 0.0000 -10880.1065 1515.1727 0.0000 0.0000 1773.6311 -7564.6085 299.6581 -9338.2396 -7507.5956 301.4748 368.4660 433.5983 30545.0807 -25.9641 50.3847
ENERGY: 900000 5.9169 5.3674 4.4056 0.0000 -10747.2390 1444.2068 0.0000 0.0000 1728.6604 -7558.6820 292.0603 -9287.3423 -7497.6059 301.1526 81.7101 92.2350 30537.7849 -55.7750 18.8403
ENERGY: 1200000 4.1361 3.9437 3.6442 0.0000 -10676.4065 1413.4417 0.0000 0.0000 1780.8503 -7470.3905 300.8778 -9251.2408 -7496.3121 301.2897 46.5735 60.7624 30472.0368 111.6413 173.0143
ENERGY: 1500000 4.2398 3.5498 5.1272 0.0000 -10698.2732 1404.7361 0.0000 0.0000 1829.3487 -7451.2716 309.0717 -9280.6203 -7493.2261 300.9367 -47.0815 -9.4773 30681.4414 41.5471 99.0928
TCL: Running FEP window   5: Lambda1 0.7999999999999998 Lambda2 0.7499999999999998 [dLambda -0.050000000000000044]
TCL: Setting parameter firsttimestep to 0
TCL: Setting parameter alchLambda to 0.7999999999999998
Info: NONBONDED TABLE R-SQUARED SPACING: 0.0625
Info: NONBONDED TABLE SIZE: 705 POINTS
TCL: Setting parameter alchLambda2 to 0.7499999999999998
Info: NONBONDED TABLE R-SQUARED SPACING: 0.0625
Info: NONBONDED TABLE SIZE: 705 POINTS
TCL: Running for 1500000 steps
ETITLE: TS BOND ANGLE DIHED IMPRP ELECT VDW BOUNDARY MISC KINETIC TOTAL TEMP POTENTIAL TOTALAVG TEMPAVG PRESSURE GPRESSURE VOLUME PRESSAVG GPRESSAVG
ENERGY: 0 4.2398 3.5498 5.1272 0.0000 -10697.4588 1404.4520 0.0000 0.0000 1828.4204 -7451.6695 308.9149 -9280.0899 -7451.6695 308.9149 -119.3097 -24.0406 30681.4414 -119.3097 -24.0406
ENERGY: 300000 3.2643 8.0295 3.7093 0.0000 -10766.1581 1478.7753 0.0000 0.0000 1792.5654 -7479.8142 302.8571 -9272.3797 -7506.3161 302.9365 79.0884 97.8615 31142.7528 -108.0596 -51.6093
ENERGY: 600000 2.4653 5.0691 2.3275 0.0000 -10689.6919 1423.8260 0.0000 0.0000 1763.8455 -7492.1584 298.0049 -9256.0039 -7517.5450 300.7014 116.2339 194.1429 30325.4424 -186.8083 -108.4364
ENERGY: 900000 4.0643 7.9511 3.9852 0.0000 -10816.0628 1481.7739 0.0000 0.0000 1770.5119 -7547.7764 299.1311 -9318.2883 -7516.7146 300.0285 460.0666 540.5933 30320.7783 -67.9271 10.5544
ENERGY: 1200000 2.5648 3.6400 5.6965 0.0000 -10751.7046 1456.5105 0.0000 0.0000 1780.9400 -7502.3527 300.8930 -9283.2928 -7511.2746 300.5063 78.0739 114.8473 30750.6028 -10.2687 64.5858
ENERGY: 1500000 6.3374 5.0014 4.2715 0.0000 -10584.8583 1377.0998 0.0000 0.0000 1768.6582 -7423.4900 298.8180 -9192.1482 -7507.5500 300.7250 -591.2939 -499.1292 30944.3462 -92.2974 -19.7309
TCL: Running FEP window   6: Lambda1 0.7499999999999998 Lambda2 0.6999999999999997 [dLambda -0.050000000000000044]
TCL: Setting parameter firsttimestep to 0
TCL: Setting parameter alchLambda to 0.7499999999999998
Info: NONBONDED TABLE R-SQUARED SPACING: 0.0625
Info: NONBONDED TABLE SIZE: 705 POINTS
TCL: Setting parameter alchLambda2 to 0.6999999999999997
Info: NONBONDED TABLE R-SQUARED SPACING: 0.0625
Info: NONBONDED TABLE SIZE: 705 POINTS
TCL: Running for 1500000 steps
ETITLE: TS BOND ANGLE DIHED IMPRP ELECT VDW BOUNDARY MISC KINETIC TOTAL TEMP POTENTIAL TOTALAVG TEMPAVG PRESSURE GPRESSURE VOLUME PRESSAVG GPRESSAVG
ENERGY: 0 6.3374 5.0014 4.2715 0.0000 -10584.3082 1377.4596 0.0000 0.0000 1767.7455 -7423.4929 298.6638 -9191.2384 -7423.4929 298.6638 -584.0718 -504.9249 30944.3462 -584.0718 -504.9249
ENERGY: 300000 3.3764 4.8269 2.8602 0.0000 -10755.2562 1414.7971 0.0000 0.0000 1796.8986 -7532.4971 303.5892 -9329.3957 -7481.8616 301.7710 -140.4116 -48.5434 30582.7221 -100.3419 -54.3894
ENERGY: 600000 1.7257 10.3090 2.0952 0.0000 -10692.3107 1373.5353 0.0000 0.0000 1808.7751 -7495.8704 305.5958 -9304.6455 -7494.9174 303.2709 -585.4564 -533.8053 30795.7482 -172.2659 -122.9656
ENERGY: 900000 3.6470 8.9061 2.9855 0.0000 -10719.1480 1449.9698 0.0000 0.0000 1792.0945 -7461.5452 302.7776 -9253.6396 -7501.1519 302.4286 80.1050 121.9112 30910.4584 -5.4759 50.4136
ENERGY: 1200000 5.0197 7.5245 3.3139 0.0000 -10875.6607 1537.3678 0.0000 0.0000 1786.8025 -7535.6324 301.8835 -9322.4349 -7505.9918 302.0913 562.3986 562.0605 30401.8219 74.6803 123.1153
ENERGY: 1500000 10.6606 4.3715 3.8611 0.0000 -10812.5147 1465.1907 0.0000 0.0000 1739.5793 -7588.8516 293.9050 -9328.4308 -7512.7287 300.5798 -122.1757 -148.9345 30404.4559 102.2040 148.9774
TCL: Running FEP window   7: Lambda1 0.6999999999999997 Lambda2 0.6499999999999997 [dLambda -0.050000000000000044]
TCL: Setting parameter firsttimestep to 0
TCL: Setting parameter alchLambda to 0.6999999999999997
Info: NONBONDED TABLE R-SQUARED SPACING: 0.0625
Info: NONBONDED TABLE SIZE: 705 POINTS
TCL: Setting parameter alchLambda2 to 0.6499999999999997
Info: NONBONDED TABLE R-SQUARED SPACING: 0.0625
Info: NONBONDED TABLE SIZE: 705 POINTS
TCL: Running for 1500000 steps
ETITLE: TS BOND ANGLE DIHED IMPRP ELECT VDW BOUNDARY MISC KINETIC TOTAL TEMP POTENTIAL TOTALAVG TEMPAVG PRESSURE GPRESSURE VOLUME PRESSAVG GPRESSAVG
ENERGY: 0 10.6606 4.3715 3.8611 0.0000 -10811.7464 1465.4590 0.0000 0.0000 1738.6566 -7588.7377 293.7491 -9327.3942 -7588.7377 293.7491 -222.0608 -154.0891 30404.4559 -222.0608 -154.0891
ENERGY: 300000 5.9665 5.3610 4.4855 0.0000 -10692.5319 1420.3057 0.0000 0.0000 1798.3436 -7458.0696 303.8334 -9256.4132 -7505.8376 298.5136 -165.9278 -188.4876 30481.4111 -1.4470 46.0680
ENERGY: 600000 2.1260 3.1036 3.1176 0.0000 -10780.4833 1486.0737 0.0000 0.0000 1719.4944 -7566.5680 290.5116 -9286.0624 -7514.3286 297.8486 406.1689 507.1644 30584.2607 145.4890 211.2286
ENERGY: 900000 4.3359 6.0228 6.3637 0.0000 -10804.3230 1480.7751 0.0000 0.0000 1792.4684 -7514.3571 302.8407 -9306.8255 -7515.7948 297.7167 282.3779 281.6371 30548.5185 96.1977 145.2580
ENERGY: 1200000 2.7651 4.9765 4.8921 0.0000 -10663.5484 1418.0887 0.0000 0.0000 1789.7688 -7443.0571 302.3846 -9232.8259 -7500.2444 298.4462 18.2037 49.4088 30503.5668 76.1301 124.6747
ENERGY: 1500000 2.8388 4.8951 3.8104 0.0000 -10822.9881 1530.0225 0.0000 0.0000 1834.3121 -7447.1091 309.9103 -9281.4212 -7502.1575 299.1054 802.2500 879.8749 30346.3194 132.2625 182.4741
TCL: Running FEP window   8: Lambda1 0.6499999999999997 Lambda2 0.5999999999999996 [dLambda -0.050000000000000044]
TCL: Setting parameter firsttimestep to 0
TCL: Setting parameter alchLambda to 0.6499999999999997
Info: NONBONDED TABLE R-SQUARED SPACING: 0.0625
Info: NONBONDED TABLE SIZE: 705 POINTS
TCL: Setting parameter alchLambda2 to 0.5999999999999996
Info: NONBONDED TABLE R-SQUARED SPACING: 0.0625
Info: NONBONDED TABLE SIZE: 705 POINTS
TCL: Running for 1500000 steps
ETITLE: TS BOND ANGLE DIHED IMPRP ELECT VDW BOUNDARY MISC KINETIC TOTAL TEMP POTENTIAL TOTALAVG TEMPAVG PRESSURE GPRESSURE VOLUME PRESSAVG GPRESSAVG
ENERGY: 0 2.8388 4.8951 3.8104 0.0000 -10822.0046 1529.7151 0.0000 0.0000 1833.4472 -7447.2979 309.7642 -9280.7452 -7447.2979 309.7642 788.1830 866.8946 30346.3194 788.1830 866.8946
ENERGY: 300000 3.1705 6.1597 3.4810 0.0000 -10645.9520 1390.6788 0.0000 0.0000 1798.6912 -7443.7707 303.8921 -9242.4620 -7504.3970 303.2341 -354.4097 -350.6907 31030.2957 -48.0820 6.5958
ENERGY: 600000 4.3606 7.9224 3.2327 0.0000 -10681.9760 1488.7840 0.0000 0.0000 1772.9402 -7404.7361 299.5414 -9177.6763 -7480.1916 303.0104 899.7520 915.7573 30527.4127 228.9266 274.2344
ENERGY: 900000 4.6200 11.6632 6.2580 0.0000 -10539.7576 1313.5263 0.0000 0.0000 1831.3815 -7372.3088 309.4152 -9203.6902 -7480.2151 303.0617 -775.0319 -677.4581 30510.2605 68.4716 124.3623
ENERGY: 1200000 3.3883 4.6417 1.8025 0.0000 -10892.0546 1489.6365 0.0000 0.0000 1767.6956 -7624.8900 298.6553 -9392.5856 -7502.2769 302.1681 130.9075 178.8931 30605.9497 -55.5278 1.1251
ENERGY: 1500000 3.4254 3.3724 4.1433 0.0000 -10726.5510 1443.1359 0.0000 0.0000 1789.4573 -7483.0166 302.3320 -9272.4739 -7496.0876 301.6616 -67.4940 -23.9848 30680.4668 -95.2299 -28.9850
TCL: Running FEP window   9: Lambda1 0.5999999999999996 Lambda2 0.5499999999999996 [dLambda -0.050000000000000044]
TCL: Setting parameter firsttimestep to 0
TCL: Setting parameter alchLambda to 0.5999999999999996
Info: NONBONDED TABLE R-SQUARED SPACING: 0.0625
Info: NONBONDED TABLE SIZE: 705 POINTS
TCL: Setting parameter alchLambda2 to 0.5499999999999996
Info: NONBONDED TABLE R-SQUARED SPACING: 0.0625
Info: NONBONDED TABLE SIZE: 705 POINTS
TCL: Running for 1500000 steps
ETITLE: TS BOND ANGLE DIHED IMPRP ELECT VDW BOUNDARY MISC KINETIC TOTAL TEMP POTENTIAL TOTALAVG TEMPAVG PRESSURE GPRESSURE VOLUME PRESSAVG GPRESSAVG
ENERGY: 0 3.4254 3.3724 4.1433 0.0000 -10725.9049 1443.3683 0.0000 0.0000 1788.5865 -7483.0090 302.1849 -9271.5955 -7483.0090 302.1849 -116.6329 -32.1890 30680.4668 -116.6329 -32.1890
ENERGY: 300000 5.0493 7.5811 3.9363 0.0000 -10753.7284 1458.2512 0.0000 0.0000 1807.2100 -7471.7005 305.3313 -9278.9105 -7431.1449 302.2016 -13.0316 73.2882 30522.8485 196.9754 296.6044
ENERGY: 600000 4.8704 6.3241 4.1933 0.0000 -10690.2953 1532.0854 0.0000 0.0000 1743.5251 -7399.2969 294.5717 -9142.8220 -7446.0399 301.3934 650.9845 715.9388 31033.7841 313.3010 402.9571
ENERGY: 900000 6.5200 6.0715 5.3576 0.0000 -10761.4761 1466.2420 0.0000 0.0000 1795.9840 -7481.3010 303.4347 -9277.2850 -7455.4394 301.4505 134.0659 177.1182 30428.4850 214.1929 297.2705
ENERGY: 1200000 4.6292 7.2371 4.5056 0.0000 -10761.9893 1462.2542 0.0000 0.0000 1752.0025 -7531.3607 296.0039 -9283.3632 -7470.7018 300.7197 -35.8323 17.1971 30387.8202 101.0622 177.2822
ENERGY: 1500000 4.3024 7.2658 4.0274 0.0000 -10819.6510 1463.1663 0.0000 0.0000 1762.0498 -7578.8394 297.7015 -9340.8891 -7486.4135 300.3788 127.2824 179.5386 30164.3581 129.9128 205.2648
TCL: Running FEP window  10: Lambda1 0.5499999999999996 Lambda2 0.4999999999999996 [dLambda -0.04999999999999999]
TCL: Setting parameter firsttimestep to 0
TCL: Setting parameter alchLambda to 0.5499999999999996
Info: NONBONDED TABLE R-SQUARED SPACING: 0.0625
Info: NONBONDED TABLE SIZE: 705 POINTS
TCL: Setting parameter alchLambda2 to 0.4999999999999996
Info: NONBONDED TABLE R-SQUARED SPACING: 0.0625
Info: NONBONDED TABLE SIZE: 705 POINTS
TCL: Running for 1500000 steps
ETITLE: TS BOND ANGLE DIHED IMPRP ELECT VDW BOUNDARY MISC KINETIC TOTAL TEMP POTENTIAL TOTALAVG TEMPAVG PRESSURE GPRESSURE VOLUME PRESSAVG GPRESSAVG
ENERGY: 0 4.3024 7.2658 4.0274 0.0000 -10819.2301 1463.6297 0.0000 0.0000 1761.1930 -7578.8118 297.5567 -9340.0048 -7578.8118 297.5567 97.7219 177.7327 30164.3581 97.7219 177.7327
ENERGY: 300000 2.0112 7.4118 8.8597 0.0000 -10838.4357 1467.5650 0.0000 0.0000 1723.4326 -7629.1555 291.1770 -9352.5881 -7563.2459 296.1908 -182.7960 -75.0858 30344.7915 -135.2315 -73.4852
ENERGY: 600000 5.0816 5.6840 2.7519 0.0000 -10791.7421 1466.7481 0.0000 0.0000 1799.7931 -7511.6834 304.0783 -9311.4765 -7536.6977 297.8679 178.3121 174.3622 30469.9671 -147.9476 -111.5391
ENERGY: 900000 4.7888 7.3715 4.8048 0.0000 -10680.4979 1415.9539 0.0000 0.0000 1751.4446 -7496.1341 295.9097 -9247.5788 -7529.2993 298.9560 -259.2846 -280.8177 30804.0676 -74.4538 -40.6027
ENERGY: 1200000 3.3983 5.8734 2.4596 0.0000 -10735.5195 1433.6318 0.0000 0.0000 1771.0649 -7519.0915 299.2246 -9290.1564 -7525.6245 298.6509 -218.2584 -165.3915 30734.4259 -51.6594 -5.1292
ENERGY: 1500000 5.2994 6.0062 7.7392 0.0000 -10806.0256 1484.6935 0.0000 0.0000 1808.0379 -7494.2494 305.4712 -9302.2873 -7514.0666 299.3390 61.3353 138.1736 30543.3195 -27.5237 28.3244
TCL: Running FEP window  11: Lambda1 0.4999999999999996 Lambda2 0.4499999999999996 [dLambda -0.04999999999999999]
TCL: Setting parameter firsttimestep to 0
TCL: Setting parameter alchLambda to 0.4999999999999996
Info: NONBONDED TABLE R-SQUARED SPACING: 0.0625
Info: NONBONDED TABLE SIZE: 705 POINTS
TCL: Setting parameter alchLambda2 to 0.4499999999999996
Info: NONBONDED TABLE R-SQUARED SPACING: 0.0625
Info: NONBONDED TABLE SIZE: 705 POINTS
TCL: Running for 1500000 steps
ETITLE: TS BOND ANGLE DIHED IMPRP ELECT VDW BOUNDARY MISC KINETIC TOTAL TEMP POTENTIAL TOTALAVG TEMPAVG PRESSURE GPRESSURE VOLUME PRESSAVG GPRESSAVG
ENERGY: 0 5.2994 6.0062 7.7392 0.0000 -10805.9565 1485.3159 0.0000 0.0000 1807.1618 -7494.4339 305.3232 -9301.5957 -7494.4339 305.3232 66.6428 137.2042 30543.3195 66.6428 137.2042
ENERGY: 300000 3.5048 4.8114 4.1756 0.0000 -10786.7588 1469.3625 0.0000 0.0000 1819.0151 -7485.8894 307.3258 -9304.9045 -7513.7832 301.1256 -46.1371 34.8974 30626.4861 196.7407 265.4194
ENERGY: 600000 3.1640 4.4241 5.0274 0.0000 -10708.5982 1439.9022 0.0000 0.0000 1787.4941 -7468.5864 302.0003 -9256.0805 -7514.1684 299.4768 35.2196 66.0589 30742.5038 155.9612 212.8888
ENERGY: 900000 4.5213 5.4988 4.0161 0.0000 -10741.2417 1472.6120 0.0000 0.0000 1753.1316 -7501.4618 296.1947 -9254.5934 -7495.7572 299.4932 72.0638 193.8648 30558.8434 97.2051 153.7396
ENERGY: 1200000 3.3954 7.2857 7.3209 0.0000 -10583.5664 1335.0670 0.0000 0.0000 1839.0989 -7391.3985 310.7190 -9230.4974 -7498.2425 300.4740 -1007.0338 -944.2779 30992.6502 7.0637 65.5263
ENERGY: 1500000 8.9205 9.4175 4.8249 0.0000 -10773.2627 1462.0867 0.0000 0.0000 1785.5778 -7502.4353 301.6766 -9288.0131 -7496.6744 300.4522 10.8498 92.3972 30413.7383 8.1132 69.1317
TCL: Running FEP window  12: Lambda1 0.4499999999999996 Lambda2 0.39999999999999963 [dLambda -0.04999999999999999]
TCL: Setting parameter firsttimestep to 0
TCL: Setting parameter alchLambda to 0.4499999999999996
Info: NONBONDED TABLE R-SQUARED SPACING: 0.0625
Info: NONBONDED TABLE SIZE: 705 POINTS
TCL: Setting parameter alchLambda2 to 0.39999999999999963
Info: NONBONDED TABLE R-SQUARED SPACING: 0.0625
Info: NONBONDED TABLE SIZE: 705 POINTS
TCL: Running for 1500000 steps
ETITLE: TS BOND ANGLE DIHED IMPRP ELECT VDW BOUNDARY MISC KINETIC TOTAL TEMP POTENTIAL TOTALAVG TEMPAVG PRESSURE GPRESSURE VOLUME PRESSAVG GPRESSAVG
ENERGY: 0 8.9205 9.4175 4.8249 0.0000 -10773.2629 1462.5763 0.0000 0.0000 1784.6860 -7502.8376 301.5259 -9287.5236 -7502.8376 301.5259 18.6540 89.7028 30413.7383 18.6540 89.7028
ENERGY: 300000 3.5074 7.2072 2.7564 0.0000 -10777.3700 1505.7637 0.0000 0.0000 1777.5827 -7480.5526 300.3258 -9258.1353 -7493.1836 302.8785 680.7043 704.8924 30135.8138 145.3641 189.9922
ENERGY: 600000 7.3242 5.1782 4.7747 0.0000 -10560.2039 1318.8142 0.0000 0.0000 1823.7676 -7400.3451 308.1288 -9224.1126 -7487.5189 302.2487 -1118.4741 -1023.5884 30658.0419 -210.0095 -160.6729
ENERGY: 900000 3.3148 4.6998 2.5738 0.0000 -10746.2472 1409.1283 0.0000 0.0000 1793.7574 -7532.7731 303.0585 -9326.5305 -7509.4550 301.1057 -525.7198 -431.3977 30640.6270 -280.5057 -232.4278
ENERGY: 1200000 3.2761 11.4827 1.2178 0.0000 -10764.9649 1410.9400 0.0000 0.0000 1792.9151 -7545.1332 302.9162 -9338.0483 -7511.3001 301.1238 -698.2430 -561.5613 30734.9708 -242.6774 -185.5688
ENERGY: 1500000 2.1476 7.3070 5.0300 0.0000 -10774.8999 1485.7550 0.0000 0.0000 1756.5676 -7518.0928 296.7752 -9274.6604 -7508.9691 300.3288 615.6535 653.6077 30361.9696 -126.2602 -69.5411
TCL: Running FEP window  13: Lambda1 0.39999999999999963 Lambda2 0.34999999999999964 [dLambda -0.04999999999999999]
TCL: Setting parameter firsttimestep to 0
TCL: Setting parameter alchLambda to 0.39999999999999963
Info: NONBONDED TABLE R-SQUARED SPACING: 0.0625
Info: NONBONDED TABLE SIZE: 705 POINTS
TCL: Setting parameter alchLambda2 to 0.34999999999999964
Info: NONBONDED TABLE R-SQUARED SPACING: 0.0625
Info: NONBONDED TABLE SIZE: 705 POINTS
TCL: Running for 1500000 steps
ETITLE: TS BOND ANGLE DIHED IMPRP ELECT VDW BOUNDARY MISC KINETIC TOTAL TEMP POTENTIAL TOTALAVG TEMPAVG PRESSURE GPRESSURE VOLUME PRESSAVG GPRESSAVG
ENERGY: 0 2.1476 7.3070 5.0300 0.0000 -10774.8985 1485.6901 0.0000 0.0000 1755.6829 -7519.0410 296.6258 -9274.7239 -7519.0410 296.6258 565.9850 644.9395 30361.9696 565.9850 644.9395
ENERGY: 300000 4.1457 6.2528 2.8020 0.0000 -10807.8403 1506.3602 0.0000 0.0000 1807.7277 -7480.5518 305.4188 -9288.2795 -7523.0053 297.8614 426.0337 426.0947 30454.3041 207.6189 266.0365
ENERGY: 600000 2.5119 5.3449 3.2780 0.0000 -10806.9329 1477.9549 0.0000 0.0000 1771.0921 -7546.7511 299.2292 -9317.8432 -7518.5198 297.5285 -238.2052 -141.1960 31162.6510 149.7479 214.0022
ENERGY: 900000 3.7281 5.1392 6.8300 0.0000 -10603.3945 1403.6170 0.0000 0.0000 1830.9506 -7353.1296 309.3424 -9184.0802 -7499.6916 299.8835 -234.5499 -151.2890 30829.8032 88.7565 147.5176
ENERGY: 1200000 4.2335 9.0890 5.8748 0.0000 -10719.5568 1424.4437 0.0000 0.0000 1744.8505 -7531.0652 294.7956 -9275.9157 -7507.0984 299.8747 -535.8755 -496.9124 30932.7791 -16.7412 40.3046
ENERGY: 1500000 1.5017 10.9798 2.3595 0.0000 -10745.2070 1386.2074 0.0000 0.0000 1754.0965 -7590.0621 296.3577 -9344.1586 -7515.0193 299.7272 -542.6848 -455.8449 30260.6474 -13.3022 50.4147
TCL: Running FEP window  14: Lambda1 0.34999999999999964 Lambda2 0.29999999999999966 [dLambda -0.04999999999999999]
TCL: Setting parameter firsttimestep to 0
TCL: Setting parameter alchLambda to 0.34999999999999964
Info: NONBONDED TABLE R-SQUARED SPACING: 0.0625
Info: NONBONDED TABLE SIZE: 705 POINTS
TCL: Setting parameter alchLambda2 to 0.29999999999999966
Info: NONBONDED TABLE R-SQUARED SPACING: 0.0625
Info: NONBONDED TABLE SIZE: 705 POINTS
TCL: Running for 1500000 steps
ETITLE: TS BOND ANGLE DIHED IMPRP ELECT VDW BOUNDARY MISC KINETIC TOTAL TEMP POTENTIAL TOTALAVG TEMPAVG PRESSURE GPRESSURE VOLUME PRESSAVG GPRESSAVG
ENERGY: 0 1.5017 10.9798 2.3595 0.0000 -10745.2084 1386.7153 0.0000 0.0000 1753.1713 -7590.4808 296.2014 -9343.6521 -7590.4808 296.2014 -556.7100 -456.9259 30260.6474 -556.7100 -456.9259
ENERGY: 300000 5.3504 14.5944 5.3857 0.0000 -10802.9108 1515.3688 0.0000 0.0000 1786.3206 -7475.8908 301.8021 -9262.2114 -7487.1716 302.5421 492.9605 610.3442 30193.8375 89.3609 180.7583
ENERGY: 600000 4.1808 7.8408 3.5686 0.0000 -10677.3092 1465.3594 0.0000 0.0000 1773.0461 -7423.3135 299.5593 -9196.3597 -7483.3116 301.9161 472.8062 546.7648 30379.7531 101.8413 174.1803
ENERGY: 900000 4.9121 4.9329 1.7496 0.0000 -10847.2094 1541.8449 0.0000 0.0000 1805.3321 -7488.4378 305.0141 -9293.7700 -7485.3337 301.8992 623.8436 615.7151 30261.9316 47.5030 101.8553
ENERGY: 1200000 3.1774 6.2756 3.8431 0.0000 -10616.5700 1379.8031 0.0000 0.0000 1751.9112 -7471.5596 295.9885 -9223.4708 -7493.0865 301.6631 -451.1713 -352.7376 30741.5594 18.9597 77.1957
ENERGY: 1500000 4.1208 5.1555 3.7121 0.0000 -10606.2621 1422.1364 0.0000 0.0000 1777.0180 -7394.1193 300.2304 -9171.1372 -7484.1890 300.9796 5.8886 50.6187 30890.4039 41.3638 101.6218
TCL: Running FEP window  15: Lambda1 0.29999999999999966 Lambda2 0.24999999999999967 [dLambda -0.04999999999999999]
TCL: Setting parameter firsttimestep to 0
TCL: Setting parameter alchLambda to 0.29999999999999966
Info: NONBONDED TABLE R-SQUARED SPACING: 0.0625
Info: NONBONDED TABLE SIZE: 705 POINTS
TCL: Setting parameter alchLambda2 to 0.24999999999999967
Info: NONBONDED TABLE R-SQUARED SPACING: 0.0625
Info: NONBONDED TABLE SIZE: 705 POINTS
TCL: Running for 1500000 steps
ETITLE: TS BOND ANGLE DIHED IMPRP ELECT VDW BOUNDARY MISC KINETIC TOTAL TEMP POTENTIAL TOTALAVG TEMPAVG PRESSURE GPRESSURE VOLUME PRESSAVG GPRESSAVG
ENERGY: 0 4.1208 5.1555 3.7121 0.0000 -10606.2629 1422.7166 0.0000 0.0000 1776.1653 -7394.3925 300.0863 -9170.5578 -7394.3925 300.0863 -23.4489 47.8170 30890.4039 -23.4489 47.8170
ENERGY: 300000 3.5115 9.8850 2.9239 0.0000 -10813.9724 1455.5920 0.0000 0.0000 1761.0074 -7581.0528 297.5253 -9342.0601 -7499.8720 300.7781 -177.0451 -132.2620 30479.3697 -449.3772 -418.4402
ENERGY: 600000 1.7691 6.0143 3.9168 0.0000 -10586.5083 1334.6107 0.0000 0.0000 1790.9479 -7449.2495 302.5838 -9240.1974 -7482.4962 301.6682 -843.0511 -779.4042 30864.8137 -465.1533 -414.6079
ENERGY: 900000 5.1012 6.9051 4.8785 0.0000 -10665.4172 1410.1676 0.0000 0.0000 1799.2709 -7439.0937 303.9900 -9238.3647 -7483.6129 301.4341 -239.5074 -192.4891 30626.0700 -285.5487 -245.1255
ENERGY: 1200000 3.6905 6.9280 5.4831 0.0000 -10787.9716 1456.9975 0.0000 0.0000 1758.2253 -7556.6471 297.0553 -9314.8725 -7484.2565 301.3720 -188.8267 -181.5369 30576.2628 -272.5484 -229.2043
ENERGY: 1500000 5.0470 2.5324 4.5104 0.0000 -10849.9178 1537.6073 0.0000 0.0000 1772.3565 -7527.8643 299.4428 -9300.2208 -7488.0380 300.9535 487.9560 523.5417 30682.1915 -231.3873 -184.6565
TCL: Running FEP window  16: Lambda1 0.24999999999999967 Lambda2 0.19999999999999968 [dLambda -0.04999999999999999]
TCL: Setting parameter firsttimestep to 0
TCL: Setting parameter alchLambda to 0.24999999999999967
Info: NONBONDED TABLE R-SQUARED SPACING: 0.0625
Info: NONBONDED TABLE SIZE: 705 POINTS
TCL: Setting parameter alchLambda2 to 0.19999999999999968
Info: NONBONDED TABLE R-SQUARED SPACING: 0.0625
Info: NONBONDED TABLE SIZE: 705 POINTS
TCL: Running for 1500000 steps
ETITLE: TS BOND ANGLE DIHED IMPRP ELECT VDW BOUNDARY MISC KINETIC TOTAL TEMP POTENTIAL TOTALAVG TEMPAVG PRESSURE GPRESSURE VOLUME PRESSAVG GPRESSAVG
ENERGY: 0 5.0470 2.5324 4.5104 0.0000 -10849.9193 1538.1576 0.0000 0.0000 1771.4734 -7528.1985 299.2936 -9299.6719 -7528.1985 299.2936 437.3507 521.1259 30682.1915 437.3507 521.1259
ENERGY: 300000 4.2573 8.1708 3.5699 0.0000 -10786.2915 1473.7148 0.0000 0.0000 1773.4499 -7523.1288 299.6275 -9296.5787 -7523.4451 300.3430 109.6115 145.5746 30594.9811 -267.0224 -212.2468
ENERGY: 600000 3.8709 8.1994 5.4913 0.0000 -10648.3204 1406.2143 0.0000 0.0000 1754.7327 -7469.8118 296.4652 -9224.5445 -7513.0299 299.9623 -250.4449 -274.9729 30575.4008 -234.1571 -191.1235
ENERGY: 900000 3.9879 3.8828 2.5537 0.0000 -10732.1613 1469.3645 0.0000 0.0000 1803.4239 -7448.9486 304.6917 -9252.3725 -7510.3764 299.6748 148.3506 216.6697 30664.4216 -185.2454 -148.7090
ENERGY: 1200000 3.6548 6.3395 6.8882 0.0000 -10616.2767 1410.6751 0.0000 0.0000 1756.7944 -7431.9247 296.8136 -9188.7192 -7505.8894 300.1259 -201.0312 -78.4575 30849.8435 -143.7012 -99.0960
ENERGY: 1500000 6.4067 4.7944 1.8524 0.0000 -10849.9785 1538.7035 0.0000 0.0000 1750.7842 -7547.4374 295.7981 -9298.2216 -7508.9830 300.2296 719.1748 791.6586 30282.2818 -99.0816 -46.2876
TCL: Running FEP window  17: Lambda1 0.19999999999999968 Lambda2 0.1499999999999997 [dLambda -0.04999999999999999]
TCL: Setting parameter firsttimestep to 0
TCL: Setting parameter alchLambda to 0.19999999999999968
Info: NONBONDED TABLE R-SQUARED SPACING: 0.0625
Info: NONBONDED TABLE SIZE: 705 POINTS
TCL: Setting parameter alchLambda2 to 0.1499999999999997
Info: NONBONDED TABLE R-SQUARED SPACING: 0.0625
Info: NONBONDED TABLE SIZE: 705 POINTS
TCL: Running for 1500000 steps
ETITLE: TS BOND ANGLE DIHED IMPRP ELECT VDW BOUNDARY MISC KINETIC TOTAL TEMP POTENTIAL TOTALAVG TEMPAVG PRESSURE GPRESSURE VOLUME PRESSAVG GPRESSAVG
ENERGY: 0 6.4067 4.7944 1.8524 0.0000 -10849.9788 1538.0837 0.0000 0.0000 1749.9122 -7548.9295 295.6508 -9298.8417 -7548.9295 295.6508 692.5797 784.6331 30282.2818 692.5797 784.6331
ENERGY: 300000 1.1646 6.8417 6.3165 0.0000 -10793.2697 1493.4932 0.0000 0.0000 1787.4412 -7498.0126 301.9914 -9285.4538 -7520.4178 300.2280 426.6295 507.8124 30414.6047 -149.3444 -36.4765
ENERGY: 600000 2.8481 9.3317 6.3255 0.0000 -10671.7191 1410.7118 0.0000 0.0000 1783.2306 -7459.2715 301.2800 -9242.5021 -7527.1294 299.7925 -298.6334 -248.2038 30616.1304 -245.4467 -158.3319
ENERGY: 900000 7.2466 5.4365 9.5457 0.0000 -10748.9295 1506.8618 0.0000 0.0000 1794.8939 -7424.9450 303.2505 -9219.8390 -7529.5716 299.9288 304.7149 350.4106 30483.9439 -67.5256 11.1161
ENERGY: 1200000 3.5310 5.0078 5.0381 0.0000 -10548.4776 1324.0175 0.0000 0.0000 1778.6347 -7432.2485 300.5035 -9210.8831 -7529.1188 299.6276 -872.7125 -797.5676 30589.6887 -145.7857 -69.9197
ENERGY: 1500000 5.6774 4.6940 7.0676 0.0000 -10726.9207 1551.8383 0.0000 0.0000 1765.7818 -7391.8615 298.3320 -9157.6433 -7521.0794 299.0477 1188.8520 1295.0402 30070.1839 -60.9680 15.2356
TCL: Running FEP window  18: Lambda1 0.1499999999999997 Lambda2 0.09999999999999969 [dLambda -0.05 ]
TCL: Setting parameter firsttimestep to 0
TCL: Setting parameter alchLambda to 0.1499999999999997
Info: NONBONDED TABLE R-SQUARED SPACING: 0.0625
Info: NONBONDED TABLE SIZE: 705 POINTS
TCL: Setting parameter alchLambda2 to 0.09999999999999969
Info: NONBONDED TABLE R-SQUARED SPACING: 0.0625
Info: NONBONDED TABLE SIZE: 705 POINTS
TCL: Running for 1500000 steps
ETITLE: TS BOND ANGLE DIHED IMPRP ELECT VDW BOUNDARY MISC KINETIC TOTAL TEMP POTENTIAL TOTALAVG TEMPAVG PRESSURE GPRESSURE VOLUME PRESSAVG GPRESSAVG
ENERGY: 0 5.6774 4.6940 7.0676 0.0000 -10726.9205 1551.8808 0.0000 0.0000 1764.8744 -7392.7262 298.1787 -9157.6006 -7392.7262 298.1787 1202.2991 1291.3119 30070.1839 1202.2991 1291.3119
ENERGY: 300000 4.8898 4.5352 2.8206 0.0000 -10764.9759 1424.2361 0.0000 0.0000 1800.3182 -7528.1759 304.1670 -9328.4940 -7447.1496 302.7313 -466.4043 -364.1691 30391.9417 202.5295 267.5819
ENERGY: 600000 7.4905 6.4360 1.9933 0.0000 -10673.1489 1356.2844 0.0000 0.0000 1781.5083 -7519.4364 300.9890 -9300.9447 -7448.7921 302.0790 -1224.4674 -1200.9961 30835.2035 -130.3621 -75.4764
ENERGY: 900000 2.9332 6.2684 4.6208 0.0000 -10884.3770 1559.6559 0.0000 0.0000 1791.1714 -7519.7273 302.6216 -9310.8987 -7455.5048 302.9743 794.8873 838.5380 30180.7087 -44.7121 12.4046
ENERGY: 1200000 4.0809 5.0719 3.5414 0.0000 -10700.7684 1426.8427 0.0000 0.0000 1781.4913 -7479.7402 300.9861 -9261.2316 -7461.8080 302.5304 -110.3620 -45.7558 30362.4239 -54.9773 8.1899
ENERGY: 1500000 7.4986 5.0453 4.0607 0.0000 -10659.9072 1390.6760 0.0000 0.0000 1755.7703 -7496.8564 296.6405 -9252.6267 -7466.1970 302.0186 -576.3832 -510.5773 30176.4220 -81.4304 -19.5760
TCL: Running FEP window  19: Lambda1 0.09999999999999969 Lambda2 0.049999999999999684 [dLambda -0.05 ]
TCL: Setting parameter firsttimestep to 0
TCL: Setting parameter alchLambda to 0.09999999999999969
Info: NONBONDED TABLE R-SQUARED SPACING: 0.0625
Info: NONBONDED TABLE SIZE: 705 POINTS
TCL: Setting parameter alchLambda2 to 0.049999999999999684
Info: NONBONDED TABLE R-SQUARED SPACING: 0.0625
Info: NONBONDED TABLE SIZE: 705 POINTS
TCL: Running for 1500000 steps
ETITLE: TS BOND ANGLE DIHED IMPRP ELECT VDW BOUNDARY MISC KINETIC TOTAL TEMP POTENTIAL TOTALAVG TEMPAVG PRESSURE GPRESSURE VOLUME PRESSAVG GPRESSAVG
ENERGY: 0 7.4986 5.0453 4.0607 0.0000 -10659.9072 1390.5460 0.0000 0.0000 1754.8395 -7497.9172 296.4833 -9252.7568 -7497.9172 296.4833 -596.5081 -513.2935 30176.4220 -596.5081 -513.2935
ENERGY: 300000 3.3060 11.4524 6.5059 0.0000 -10774.3599 1499.1531 0.0000 0.0000 1757.9795 -7495.9630 297.0138 -9253.9425 -7514.9198 297.1157 321.5839 412.1016 30524.5380 92.2174 160.0609
ENERGY: 600000 3.1223 5.9332 3.2839 0.0000 -10848.1648 1527.7763 0.0000 0.0000 1792.0421 -7516.0070 302.7687 -9308.0491 -7505.1365 298.7429 958.6861 979.6259 30034.0767 74.7674 137.2757
ENERGY: 900000 5.5851 11.6748 4.9644 0.0000 -10914.1078 1612.6607 0.0000 0.0000 1775.9419 -7503.2809 300.0486 -9279.2229 -7507.9620 298.9969 1291.8610 1301.4478 30160.6904 189.3084 247.5917
ENERGY: 1200000 5.5134 9.3142 5.0355 0.0000 -10728.9434 1413.8611 0.0000 0.0000 1837.1554 -7458.0637 310.3907 -9295.2192 -7501.6532 300.4466 -593.1417 -546.7222 30594.7459 109.8385 170.7664
ENERGY: 1500000 7.9123 5.7369 3.5544 0.0000 -10759.6057 1421.2041 0.0000 0.0000 1719.9743 -7601.2238 290.5927 -9321.1980 -7509.0152 298.6655 -443.9407 -472.2941 30436.7864 81.1360 135.7486
TCL: Running FEP window  20: Lambda1 0.049999999999999684 Lambda2 0.0    [dLambda -0.049999999999999684]
TCL: Setting parameter firsttimestep to 0
TCL: Setting parameter alchLambda to 0.049999999999999684
Info: NONBONDED TABLE R-SQUARED SPACING: 0.0625
Info: NONBONDED TABLE SIZE: 705 POINTS
TCL: Setting parameter alchLambda2 to 0.0
Info: NONBONDED TABLE R-SQUARED SPACING: 0.0625
Info: NONBONDED TABLE SIZE: 705 POINTS
TCL: Running for 1500000 steps
ETITLE: TS BOND ANGLE DIHED IMPRP ELECT VDW BOUNDARY MISC KINETIC TOTAL TEMP POTENTIAL TOTALAVG TEMPAVG PRESSURE GPRESSURE VOLUME PRESSAVG GPRESSAVG
ENERGY: 0 7.9123 5.7369 3.5544 0.0000 -10759.6058 1421.1111 0.0000 0.0000 1719.0719 -7602.2192 290.4403 -9321.2912 -7602.2192 290.4403 -561.9209 -476.0131 30436.7864 -561.9209 -476.0131
ENERGY: 300000 3.0114 4.0252 5.4051 0.0000 -10629.3908 1441.5402 0.0000 0.0000 1809.7494 -7365.6595 305.7604 -9175.4089 -7494.6883 298.3836 -96.6931 -71.7144 31180.5773 -148.6676 -85.5138
ENERGY: 600000 5.2149 6.8305 3.9072 0.0000 -10766.0494 1465.2805 0.0000 0.0000 1829.6238 -7455.1925 309.1182 -9284.8163 -7466.7433 302.5462 410.2993 480.1458 29983.1598 -92.2328 -21.8239
ENERGY: 900000 6.9340 6.4174 1.1825 0.0000 -10757.1459 1451.2393 0.0000 0.0000 1796.7640 -7494.6087 303.5665 -9291.3727 -7494.1078 300.5887 19.7328 90.5912 30223.9394 -91.4083 -21.5099
ENERGY: 1200000 5.3569 5.4263 2.2575 0.0000 -10747.4454 1502.4561 0.0000 0.0000 1820.7673 -7411.1813 307.6219 -9231.9486 -7493.3580 300.4161 405.3918 472.6698 30248.6358 -97.1402 -31.1846
ENERGY: 1500000 2.5169 10.9205 7.9747 0.0000 -10753.5522 1451.7222 0.0000 0.0000 1731.3211 -7549.0968 292.5098 -9280.4179 -7501.2209 298.7698 195.7809 264.1598 29842.1423 -81.3282 -13.8379
TCL: Exiting due to exit command.
