Info: SIMULATION PARAMETERS:
Info: TIMESTEP               2
Info: NUMBER OF STEPS        0
Info: STEPS PER CYCLE        10
Info: PERIODIC CELL BASIS 1  31.8225 0 0
Info: PERIODIC CELL BASIS 2  0 30.2802 0
Info: PERIODIC CELL BASIS 3  0 0 31.6908
Info: PERIODIC CELL CENTER   0 0 0
Info: WRAPPING WATERS AROUND PERIODIC BOUNDARIES ON OUTPUT.
Info: WRAPPING ALL CLUSTERS AROUND PERIODIC BOUNDARIES ON OUTPUT.
Info: FIRST LDB TIMESTEP     50
Info: LAST LDB TIMESTEP     -1
Info: HOM BACKGROUND SCALING 1
Info: PME BACKGROUND SCALING 1
Info: MIN ATOMS PER PATCH    40
Info: EMPTY PATCH LOAD       40 ATOMS
Info: VELOCITY FILE          mobley_3370989_equil.vel
Info: CENTER OF MASS MOVING INITIALLY? NO
Info: DIELECTRIC             1
Info: EXCLUDE                SCALED ONE-FOUR
Info: 1-4 ELECTROSTATICS SCALED BY 0.833333
Info: MODIFIED 1-4 VDW PARAMETERS WILL BE USED
Info: DCD FILENAME           mobley_3370989_prod.dcd
Info: DCD FREQUENCY          100000
Info: DCD FIRST STEP         100000
Info: DCD FILE WILL CONTAIN UNIT CELL DATA
Info: XST FILENAME           mobley_3370989_prod.xst
Info: XST FREQUENCY          100000
Info: NO VELOCITY DCD OUTPUT
Info: NO FORCE DCD OUTPUT
Info: OUTPUT FILENAME        mobley_3370989_prod
Info: BINARY OUTPUT FILES WILL BE USED
Info: RESTART FILENAME       mobley_3370989_prod.restart
Info: RESTART FREQUENCY      100000
Info: BINARY RESTART FILES WILL BE USED
Info: CUTOFF                 9
Info: PAIRLIST DISTANCE      11
Info: PAIRLIST SHRINK RATE   0.01
Info: PAIRLIST GROW RATE     0.01
Info: PAIRLIST TRIGGER       0.3
Info: PAIRLISTS PER CYCLE    2
Info: PAIRLISTS ENABLED
Info: MARGIN                 2
Info: HYDROGEN GROUP CUTOFF  2.5
Info: PATCH DIMENSION        15.5
Info: ENERGY OUTPUT STEPS    100000
Info: ENERGY EVALUATION STEPS    100000
Info: OUTPUT ENERGY PRECISION 4
Info: CROSSTERM ENERGY INCLUDED IN DIHEDRAL
Info: TIMING OUTPUT STEPS    1000000
Info: PRESSURE OUTPUT STEPS  100000
Info: ALCHEMICAL FEP ON
Info: FEP CURRENT LAMBDA VALUE     1
Info: FEP COMPARISON LAMBDA VALUE  0.95
Info: FEP INTRA-ALCHEMICAL NON-BONDED INTERACTIONS WILL BE RETAINED
Info: FEP INTRA-ALCHEMICAL BONDED INTERACTIONS WILL BE RETAINED
Info: FEP VDW SHIFTING COEFFICIENT 5
Info: FEP ELEC. ACTIVE FOR ANNIHILATED PARTICLES BETWEEN LAMBDA = 0 AND LAMBDA = 0.5
Info: FEP ELEC. ACTIVE FOR EXNIHILATED PARTICLES BETWEEN LAMBDA = 0.5 AND LAMBDA = 1
Info: FEP VDW ACTIVE FOR ANNIHILATED PARTICLES BETWEEN LAMBDA = 0 AND LAMBDA = 1
Info: FEP VDW ACTIVE FOR EXNIHILATED PARTICLES BETWEEN LAMBDA = 0 AND LAMBDA = 1
Info: FEP BOND ACTIVE FOR ANNIHILATED PARTICLES BETWEEN LAMBDA = 1 AND LAMBDA = 1
Info: FEP BOND ACTIVE FOR EXNIHILATED PARTICLES BETWEEN LAMBDA = 0 AND LAMBDA = 0
Info: LANGEVIN DYNAMICS ACTIVE
Info: LANGEVIN TEMPERATURE   300
Info: LANGEVIN USING BBK INTEGRATOR
Info: LANGEVIN DAMPING COEFFICIENT IS 1 INVERSE PS
Info: LANGEVIN DYNAMICS APPLIED TO HYDROGENS
Info: LANGEVIN PISTON PRESSURE CONTROL ACTIVE
Info:        TARGET PRESSURE IS 1.01325 BAR
Info:     OSCILLATION PERIOD IS 50 FS
Info:             DECAY TIME IS 25 FS
Info:     PISTON TEMPERATURE IS 300 K
Info:       PRESSURE CONTROL IS GROUP-BASED
Info:    INITIAL STRAIN RATE IS -0.000518512 -0.000518512 -0.000518512
Info:       CELL FLUCTUATION IS ISOTROPIC
Info: PARTICLE MESH EWALD (PME) ACTIVE
Info: PME TOLERANCE               1e-06
Info: PME EWALD COEFFICIENT       0.348832
Info: PME INTERPOLATION ORDER     4
Info: PME GRID DIMENSIONS         32 32 32
Info: PME MAXIMUM GRID SPACING    1
Info: PME CALCULATION WILL BE PERFORMED ON GPU
Info: FULL ELECTROSTATIC EVALUATION FREQUENCY      2
Info: USING VERLET I (r-RESPA) MTS SCHEME.
Info: C1 SPLITTING OF LONG RANGE ELECTROSTATICS
Info: PLACING ATOMS IN PATCHES BY HYDROGEN GROUPS
Info: RIGID BONDS TO HYDROGEN : ALL
Info:         ERROR TOLERANCE : 1e-08
Info:          MAX ITERATIONS : 100
Info: RIGID WATER USING SETTLE ALGORITHM
Info: RANDOM NUMBER SEED     1743503157
Info: USE HYDROGEN BONDS?    NO
Info: Using AMBER format force field!
Info: AMBER PARM FILE        mobley_3370989.prmtop
Info: COORDINATE PDB         mobley_3370989.pdb
Info: Exclusions will be read from PARM file!
Info: SCNB (VDW SCALING)     2
Info: USING ARITHMETIC MEAN TO COMBINE L-J SIGMA PARAMETERS
Info: BINARY COORDINATES     mobley_3370989_equil.coor
Info: SUMMARY OF PARAMETERS:
Info: 6 BONDS
Info: 6 ANGLES
Info:   6 HARMONIC
Info:   0 COSINE-BASED
Info: 3 DIHEDRAL
Info: 0 IMPROPER
Info: 0 CROSSTERM
Info: 0 VDW
Info: 21 VDW_PAIRS
Info: 0 NBTHOLE_PAIRS
Info: To read alchdata from file: mobley_3370989.pdb
Info: To read alchflag data from column: 5
Info: STRUCTURE SUMMARY:
Info: 2969 ATOMS
Info: 2968 BONDS
Info: 12 ANGLES
Info: 15 DIHEDRALS
Info: 0 IMPROPERS
Info: 0 CROSSTERMS
Info: 2989 EXCLUSIONS
Info: 2965 RIGID BONDS
Info: ALCH: 0 ATOMS TO DISAPPEAR IN FINAL STATE
Info: ALCH: 8 ATOMS TO APPEAR IN FINAL STATE
Info: 5942 DEGREES OF FREEDOM
Info: 991 HYDROGEN GROUPS
Info: 4 ATOMS IN LARGEST HYDROGEN GROUP
Info: 991 MIGRATION GROUPS
Info: 4 ATOMS IN LARGEST MIGRATION GROUP
Info: TOTAL MASS = 17847.8 amu
Info: TOTAL CHARGE = -0.000200003 e
Info: MASS DENSITY = 0.970553 g/cm^3
Info: ATOM DENSITY = 0.0972265 atoms/A^3
Info: ADDED 0 IMPLICIT EXCLUSIONS
Info: NONBONDED TABLE R-SQUARED SPACING: 0.0625
Info: NONBONDED TABLE SIZE: 705 POINTS
Info: REMOVING COM VELOCITY -0.0556422 -0.0753209 0.0965891
Info: Use 3D box decompostion in PME FFT.
Info: Updated CUDA force table with 4096 elements.
Info: Updated CUDA LJ table with 6 x 6 elements.
Info: Found 11 unique exclusion lists needing 16 bytes
TCL: Running for 1500000 steps
ETITLE: TS BOND ANGLE DIHED IMPRP ELECT VDW BOUNDARY MISC KINETIC TOTAL TEMP POTENTIAL TOTALAVG TEMPAVG PRESSURE GPRESSURE VOLUME PRESSAVG GPRESSAVG
ENERGY: 0 1.2669 2.2352 1.9957 0.0000 -10907.2567 1574.9475 0.0000 0.0000 1772.2229 -7554.5883 300.1761 -9326.8113 -7554.5883 300.1761 972.5019 1054.6438 30536.9504 972.5019 1054.6438
ENERGY: 300000 1.0805 3.2682 1.1338 0.0000 -10590.0392 1359.4002 0.0000 0.0000 1791.4820 -7433.6746 303.4381 -9225.1565 -7532.3779 300.7876 -554.8556 -508.3957 31380.8694 38.7671 115.1562
ENERGY: 600000 1.2640 3.9471 1.1296 0.0000 -11014.3773 1632.3231 0.0000 0.0000 1772.0625 -7603.6510 300.1489 -9375.7135 -7550.5899 300.1091 1259.9975 1323.7747 30330.2498 126.0702 191.7750
ENERGY: 900000 1.1702 3.8139 1.1454 0.0000 -10747.0860 1446.7860 0.0000 0.0000 1789.3375 -7504.8330 303.0749 -9294.1705 -7540.6960 301.7681 136.8947 171.2372 30700.8441 19.8279 91.6232
ENERGY: 1200000 0.7758 2.1899 1.3451 0.0000 -10796.9856 1445.7861 0.0000 0.0000 1820.2390 -7526.6497 308.3090 -9346.8887 -7536.5831 301.8911 40.6682 66.5309 30466.6259 42.4074 110.0417
ENERGY: 1500000 0.6217 1.2618 1.3519 0.0000 -10715.6507 1421.2899 0.0000 0.0000 1790.0832 -7501.0422 303.2012 -9291.1255 -7533.0185 301.9763 17.2730 101.4440 30306.4957 117.0201 179.6876
TCL: Running FEP window   2: Lambda1 0.95   Lambda2 0.8999999999999999 [dLambda -0.050000000000000044]
TCL: Setting parameter firsttimestep to 0
TCL: Setting parameter alchLambda to 0.95
Info: NONBONDED TABLE R-SQUARED SPACING: 0.0625
Info: NONBONDED TABLE SIZE: 705 POINTS
TCL: Setting parameter alchLambda2 to 0.8999999999999999
Info: NONBONDED TABLE R-SQUARED SPACING: 0.0625
Info: NONBONDED TABLE SIZE: 705 POINTS
TCL: Running for 1500000 steps
ETITLE: TS BOND ANGLE DIHED IMPRP ELECT VDW BOUNDARY MISC KINETIC TOTAL TEMP POTENTIAL TOTALAVG TEMPAVG PRESSURE GPRESSURE VOLUME PRESSAVG GPRESSAVG
ENERGY: 0 0.6217 1.2618 1.3519 0.0000 -10714.9450 1421.3015 0.0000 0.0000 1789.2163 -7501.1918 303.0544 -9290.4081 -7501.1918 303.0544 4.5982 96.4387 30306.4957 4.5982 96.4387
ENERGY: 300000 1.4832 2.1209 2.0609 0.0000 -10828.5344 1467.5614 0.0000 0.0000 1730.8670 -7624.4410 293.1713 -9355.3080 -7542.3962 299.9432 -9.0919 79.9633 30710.3489 49.3002 150.3808
ENERGY: 600000 1.0511 2.0196 1.1805 0.0000 -10729.7325 1442.4930 0.0000 0.0000 1770.1679 -7512.8205 299.8280 -9282.9883 -7541.4026 300.8755 193.2874 277.8073 30514.0284 45.9122 130.1565
ENERGY: 900000 0.3068 3.2344 1.6160 0.0000 -10889.7610 1526.0987 0.0000 0.0000 1785.1630 -7573.3421 302.3679 -9358.5051 -7543.2841 301.3513 596.9799 689.1507 30332.6870 75.0079 153.9033
ENERGY: 1200000 0.7390 4.3787 1.3797 0.0000 -10915.4856 1497.1820 0.0000 0.0000 1821.1066 -7590.6995 308.4559 -9411.8062 -7551.8617 302.2151 222.5763 306.1602 30396.7733 44.7634 122.2232
ENERGY: 1500000 2.1863 4.0339 1.1998 0.0000 -10727.5912 1372.6379 0.0000 0.0000 1792.7772 -7554.7560 303.6575 -9347.5332 -7556.0397 301.4830 -461.3488 -412.3638 30428.1619 -31.7326 35.7236
TCL: Running FEP window   3: Lambda1 0.8999999999999999 Lambda2 0.8499999999999999 [dLambda -0.050000000000000044]
TCL: Setting parameter firsttimestep to 0
TCL: Setting parameter alchLambda to 0.8999999999999999
Info: NONBONDED TABLE R-SQUARED SPACING: 0.0625
Info: NONBONDED TABLE SIZE: 705 POINTS
TCL: Setting parameter alchLambda2 to 0.8499999999999999
Info: NONBONDED TABLE R-SQUARED SPACING: 0.0625
Info: NONBONDED TABLE SIZE: 705 POINTS
TCL: Running for 1500000 steps
ETITLE: TS BOND ANGLE DIHED IMPRP ELECT VDW BOUNDARY MISC KINETIC TOTAL TEMP POTENTIAL TOTALAVG TEMPAVG PRESSURE GPRESSURE VOLUME PRESSAVG GPRESSAVG
ENERGY: 0 2.1863 4.0339 1.1998 0.0000 -10727.1488 1372.4334 0.0000 0.0000 1791.8771 -7555.4182 303.5051 -9347.2953 -7555.4182 303.5051 -507.4940 -420.2546 30428.1619 -507.4940 -420.2546
ENERGY: 300000 0.8679 1.4581 1.4755 0.0000 -10806.5990 1474.3713 0.0000 0.0000 1798.6770 -7529.7491 304.6568 -9328.4261 -7547.9215 303.4723 113.3671 159.3007 30565.0175 67.3034 134.1991
ENERGY: 600000 0.4853 3.5241 1.2475 0.0000 -10837.3681 1462.5721 0.0000 0.0000 1753.9738 -7615.5653 297.0851 -9369.5391 -7573.2317 299.8645 -52.4235 -3.0555 30748.3651 -104.8432 -47.1351
ENERGY: 900000 0.1992 2.7801 1.6109 0.0000 -10881.6025 1478.3684 0.0000 0.0000 1769.7681 -7628.8758 299.7603 -9398.6439 -7573.0242 299.6064 165.9077 260.8531 30350.9769 -98.3413 -40.8500
ENERGY: 1200000 0.5539 3.5107 1.2047 0.0000 -10992.2655 1580.1909 0.0000 0.0000 1781.2725 -7625.5328 301.7089 -9406.8054 -7573.3849 299.4306 1046.8447 1077.8196 30218.6808 2.3542 56.0371
ENERGY: 1500000 0.3523 4.0107 1.3611 0.0000 -10776.1084 1413.8281 0.0000 0.0000 1762.8696 -7593.6866 298.5918 -9356.5562 -7570.7478 299.7350 -299.5117 -279.5622 30506.7948 34.6151 88.3794
TCL: Running FEP window   4: Lambda1 0.8499999999999999 Lambda2 0.7999999999999998 [dLambda -0.050000000000000044]
TCL: Setting parameter firsttimestep to 0
TCL: Setting parameter alchLambda to 0.8499999999999999
Info: NONBONDED TABLE R-SQUARED SPACING: 0.0625
Info: NONBONDED TABLE SIZE: 705 POINTS
TCL: Setting parameter alchLambda2 to 0.7999999999999998
Info: NONBONDED TABLE R-SQUARED SPACING: 0.0625
Info: NONBONDED TABLE SIZE: 705 POINTS
TCL: Running for 1500000 steps
ETITLE: TS BOND ANGLE DIHED IMPRP ELECT VDW BOUNDARY MISC KINETIC TOTAL TEMP POTENTIAL TOTALAVG TEMPAVG PRESSURE GPRESSURE VOLUME PRESSAVG GPRESSAVG
ENERGY: 0 0.3523 4.0107 1.3611 0.0000 -10775.7738 1414.1485 0.0000 0.0000 1761.9679 -7593.9334 298.4391 -9355.9013 -7593.9334 298.4391 -356.7192 -280.4943 30506.7948 -356.7192 -280.4943
ENERGY: 300000 2.6279 2.2865 1.2533 0.0000 -10678.1723 1475.5310 0.0000 0.0000 1852.0687 -7344.4048 313.7002 -9196.4735 -7522.8840 301.1119 499.9630 587.6532 30825.3916 -64.7319 3.3594
ENERGY: 600000 0.7761 2.0644 1.1247 0.0000 -10623.9728 1346.1644 0.0000 0.0000 1804.7011 -7469.1420 305.6772 -9273.8431 -7532.0778 301.8477 -840.1646 -752.2290 30817.5023 -260.6185 -181.1401
ENERGY: 900000 0.5615 1.3339 1.1525 0.0000 -10657.4362 1368.4943 0.0000 0.0000 1737.2234 -7548.6705 294.2479 -9285.8939 -7529.7370 301.4903 -785.1418 -656.7051 30991.3764 -314.3987 -235.4622
ENERGY: 1200000 1.7753 2.7493 1.1364 0.0000 -10861.6156 1527.8355 0.0000 0.0000 1733.5224 -7594.5967 293.6210 -9328.1191 -7539.3500 300.4968 438.4580 524.3314 30876.9175 -241.1587 -162.6415
ENERGY: 1500000 1.2663 2.1291 1.1463 0.0000 -10759.3498 1471.2726 0.0000 0.0000 1789.2207 -7494.3148 303.0551 -9283.5355 -7538.8634 300.4862 19.0925 138.4580 30859.6986 -196.3913 -116.2514
TCL: Running FEP window   5: Lambda1 0.7999999999999998 Lambda2 0.7499999999999998 [dLambda -0.050000000000000044]
TCL: Setting parameter firsttimestep to 0
TCL: Setting parameter alchLambda to 0.7999999999999998
Info: NONBONDED TABLE R-SQUARED SPACING: 0.0625
Info: NONBONDED TABLE SIZE: 705 POINTS
TCL: Setting parameter alchLambda2 to 0.7499999999999998
Info: NONBONDED TABLE R-SQUARED SPACING: 0.0625
Info: NONBONDED TABLE SIZE: 705 POINTS
TCL: Running for 1500000 steps
ETITLE: TS BOND ANGLE DIHED IMPRP ELECT VDW BOUNDARY MISC KINETIC TOTAL TEMP POTENTIAL TOTALAVG TEMPAVG PRESSURE GPRESSURE VOLUME PRESSAVG GPRESSAVG
ENERGY: 0 1.2663 2.1291 1.1463 0.0000 -10758.6745 1470.9143 0.0000 0.0000 1788.3157 -7494.9029 302.9018 -9283.2186 -7494.9029 302.9018 49.7807 132.3765 30859.6986 49.7807 132.3765
ENERGY: 300000 0.0607 3.7161 1.2291 0.0000 -10778.8475 1438.2231 0.0000 0.0000 1761.6968 -7573.9218 298.3932 -9335.6186 -7555.8304 297.3659 -135.4383 -85.8326 30678.3947 -73.2519 -6.5035
ENERGY: 600000 0.0365 5.5254 1.1775 0.0000 -10806.2928 1430.1600 0.0000 0.0000 1782.5493 -7586.8440 301.9251 -9369.3933 -7552.4768 299.0487 -351.8669 -266.4039 30751.5563 -67.0805 -2.8894
ENERGY: 900000 0.7015 4.3854 1.7942 0.0000 -10718.3322 1357.2962 0.0000 0.0000 1784.4739 -7569.6810 302.2511 -9354.1549 -7556.5089 297.9142 -899.8896 -788.5332 30638.9665 -164.1901 -88.4651
ENERGY: 1200000 0.4959 2.8311 1.2390 0.0000 -10716.9581 1449.2956 0.0000 0.0000 1743.9051 -7519.1915 295.3797 -9263.0966 -7564.0445 297.6553 -51.7185 6.7526 31239.7118 -170.8880 -97.0934
ENERGY: 1500000 0.3517 3.4581 1.5710 0.0000 -10693.6819 1377.6070 0.0000 0.0000 1795.9726 -7514.7214 304.1988 -9310.6940 -7562.0181 297.6842 -705.4709 -572.2196 30861.2502 -148.9822 -75.5444
TCL: Running FEP window   6: Lambda1 0.7499999999999998 Lambda2 0.6999999999999997 [dLambda -0.050000000000000044]
TCL: Setting parameter firsttimestep to 0
TCL: Setting parameter alchLambda to 0.7499999999999998
Info: NONBONDED TABLE R-SQUARED SPACING: 0.0625
Info: NONBONDED TABLE SIZE: 705 POINTS
TCL: Setting parameter alchLambda2 to 0.6999999999999997
Info: NONBONDED TABLE R-SQUARED SPACING: 0.0625
Info: NONBONDED TABLE SIZE: 705 POINTS
TCL: Running for 1500000 steps
ETITLE: TS BOND ANGLE DIHED IMPRP ELECT VDW BOUNDARY MISC KINETIC TOTAL TEMP POTENTIAL TOTALAVG TEMPAVG PRESSURE GPRESSURE VOLUME PRESSAVG GPRESSAVG
ENERGY: 0 0.3517 3.4581 1.5710 0.0000 -10693.4391 1377.4801 0.0000 0.0000 1795.0875 -7515.4908 304.0488 -9310.5783 -7515.4908 304.0488 -664.5019 -574.8028 30861.2502 -664.5019 -574.8028
ENERGY: 300000 0.3198 6.5140 1.1407 0.0000 -10807.2535 1432.0556 0.0000 0.0000 1780.5339 -7586.6893 301.5838 -9367.2232 -7557.1534 304.0849 -415.5965 -303.4781 30381.7530 -413.3124 -334.8264
ENERGY: 600000 1.3943 1.6281 1.7879 0.0000 -10670.9022 1444.1539 0.0000 0.0000 1771.8333 -7450.1047 300.1101 -9221.9380 -7548.2033 302.2338 31.9207 134.5778 30908.5358 -265.7129 -186.7223
ENERGY: 900000 0.0653 1.6557 1.3971 0.0000 -10582.9707 1335.4839 0.0000 0.0000 1738.3189 -7506.0497 294.4335 -9244.3687 -7553.5272 299.4387 -660.7791 -606.0448 30770.4533 -354.2487 -292.9278
ENERGY: 1200000 1.2827 1.2500 1.3414 0.0000 -10666.3899 1390.9806 0.0000 0.0000 1763.1169 -7508.4183 298.6337 -9271.5352 -7547.7970 299.3394 -442.1672 -327.6794 30774.8947 -325.9934 -262.4674
ENERGY: 1500000 2.2814 2.0487 1.2192 0.0000 -10716.7977 1429.0462 0.0000 0.0000 1745.0012 -7537.2009 295.5653 -9282.2021 -7546.9168 299.2525 -46.5050 -4.8983 30397.6741 -296.7847 -234.8924
TCL: Running FEP window   7: Lambda1 0.6999999999999997 Lambda2 0.6499999999999997 [dLambda -0.050000000000000044]
TCL: Setting parameter firsttimestep to 0
TCL: Setting parameter alchLambda to 0.6999999999999997
Info: NONBONDED TABLE R-SQUARED SPACING: 0.0625
Info: NONBONDED TABLE SIZE: 705 POINTS
TCL: Setting parameter alchLambda2 to 0.6499999999999997
Info: NONBONDED TABLE R-SQUARED SPACING: 0.0625
Info: NONBONDED TABLE SIZE: 705 POINTS
TCL: Running for 1500000 steps
ETITLE: TS BOND ANGLE DIHED IMPRP ELECT VDW BOUNDARY MISC KINETIC TOTAL TEMP POTENTIAL TOTALAVG TEMPAVG PRESSURE GPRESSURE VOLUME PRESSAVG GPRESSAVG
ENERGY: 0 2.2814 2.0487 1.2192 0.0000 -10716.8610 1428.1155 0.0000 0.0000 1744.1487 -7539.0476 295.4209 -9283.1962 -7539.0476 295.4209 -117.8042 -20.2533 30397.6741 -117.8042 -20.2533
ENERGY: 300000 0.8368 2.3992 1.1667 0.0000 -10784.8060 1422.7892 0.0000 0.0000 1772.4382 -7585.1758 300.2126 -9357.6141 -7556.5038 300.3848 -581.4438 -513.9279 31289.2026 -493.8713 -422.4306
ENERGY: 600000 0.5578 2.1028 1.1719 0.0000 -10747.3184 1431.7610 0.0000 0.0000 1766.1050 -7545.6199 299.1398 -9311.7249 -7546.6712 299.9503 299.4986 329.2292 30046.0569 -205.9938 -137.4732
ENERGY: 900000 2.2667 1.7224 1.1750 0.0000 -10829.8665 1492.2620 0.0000 0.0000 1766.9428 -7565.4975 299.2817 -9332.4403 -7564.7330 299.8427 215.7390 216.5567 31098.4297 -121.4034 -67.3447
ENERGY: 1200000 0.2954 2.4034 1.3668 0.0000 -10757.5458 1421.7727 0.0000 0.0000 1781.4691 -7550.2384 301.7422 -9331.7074 -7567.9303 300.0521 -39.7792 -7.1867 30365.4276 -64.3535 -13.4225
ENERGY: 1500000 1.0284 3.3139 2.0013 0.0000 -10840.0630 1476.6913 0.0000 0.0000 1782.7790 -7574.2491 301.9641 -9357.0281 -7570.3271 299.5162 -12.5986 25.3198 30741.0244 -85.1007 -36.3814
TCL: Running FEP window   8: Lambda1 0.6499999999999997 Lambda2 0.5999999999999996 [dLambda -0.050000000000000044]
TCL: Setting parameter firsttimestep to 0
TCL: Setting parameter alchLambda to 0.6499999999999997
Info: NONBONDED TABLE R-SQUARED SPACING: 0.0625
Info: NONBONDED TABLE SIZE: 705 POINTS
TCL: Setting parameter alchLambda2 to 0.5999999999999996
Info: NONBONDED TABLE R-SQUARED SPACING: 0.0625
Info: NONBONDED TABLE SIZE: 705 POINTS
TCL: Running for 1500000 steps
ETITLE: TS BOND ANGLE DIHED IMPRP ELECT VDW BOUNDARY MISC KINETIC TOTAL TEMP POTENTIAL TOTALAVG TEMPAVG PRESSURE GPRESSURE VOLUME PRESSAVG GPRESSAVG
ENERGY: 0 1.0284 3.3139 2.0013 0.0000 -10840.1365 1476.9897 0.0000 0.0000 1781.9082 -7574.8950 301.8166 -9356.8032 -7574.8950 301.8166 -60.7849 24.2242 30741.0244 -60.7849 24.2242
ENERGY: 300000 0.3811 1.2235 1.1531 0.0000 -10777.6017 1416.5992 0.0000 0.0000 1762.0748 -7596.1701 298.4572 -9358.2448 -7574.0864 299.4922 -75.6011 -54.4656 30100.5936 -64.3969 -24.7675
ENERGY: 600000 1.6391 2.7554 1.3343 0.0000 -10932.7010 1536.5251 0.0000 0.0000 1755.1128 -7635.3342 297.2780 -9390.4471 -7590.7709 298.0153 475.0091 564.2706 30431.9497 -72.0377 -15.4581
ENERGY: 900000 2.4462 1.9755 1.2239 0.0000 -10819.5221 1460.5004 0.0000 0.0000 1783.1158 -7570.2602 302.0211 -9353.3760 -7581.9990 299.6393 136.1335 186.5767 30291.0674 -192.6780 -139.7246
ENERGY: 1200000 0.9540 2.7284 1.1350 0.0000 -10840.3649 1442.6288 0.0000 0.0000 1756.6884 -7636.2304 297.5449 -9392.9188 -7584.3423 299.5218 -278.8331 -186.2468 30612.4221 -165.5096 -116.3836
ENERGY: 1500000 0.1795 3.0539 1.1573 0.0000 -10738.3370 1381.8265 0.0000 0.0000 1818.3811 -7533.7387 307.9943 -9352.1198 -7574.3662 300.8661 -450.4487 -468.1460 30419.2568 -97.9283 -54.9368
TCL: Running FEP window   9: Lambda1 0.5999999999999996 Lambda2 0.5499999999999996 [dLambda -0.050000000000000044]
TCL: Setting parameter firsttimestep to 0
TCL: Setting parameter alchLambda to 0.5999999999999996
Info: NONBONDED TABLE R-SQUARED SPACING: 0.0625
Info: NONBONDED TABLE SIZE: 705 POINTS
TCL: Setting parameter alchLambda2 to 0.5499999999999996
Info: NONBONDED TABLE R-SQUARED SPACING: 0.0625
Info: NONBONDED TABLE SIZE: 705 POINTS
TCL: Running for 1500000 steps
ETITLE: TS BOND ANGLE DIHED IMPRP ELECT VDW BOUNDARY MISC KINETIC TOTAL TEMP POTENTIAL TOTALAVG TEMPAVG PRESSURE GPRESSURE VOLUME PRESSAVG GPRESSAVG
ENERGY: 0 0.1795 3.0539 1.1573 0.0000 -10738.2371 1381.9371 0.0000 0.0000 1817.4686 -7534.4407 307.8397 -9351.9092 -7534.4407 307.8397 -555.4563 -469.0506 30419.2568 -555.4563 -469.0506
ENERGY: 300000 1.0878 2.7151 1.1439 0.0000 -10627.0079 1386.1869 0.0000 0.0000 1741.7488 -7494.1254 295.0144 -9235.8742 -7520.8344 301.8066 -579.4398 -558.7475 31151.2662 -347.8846 -283.7198
ENERGY: 600000 0.9314 1.8680 1.2167 0.0000 -10742.3263 1406.7530 0.0000 0.0000 1730.9749 -7600.5824 293.1896 -9331.5573 -7538.0728 299.8861 -366.5803 -328.5134 30667.3890 -371.8735 -311.7247
ENERGY: 900000 0.2506 2.2152 1.2468 0.0000 -10671.1063 1420.3422 0.0000 0.0000 1768.3521 -7478.6993 299.5205 -9247.0514 -7533.4243 299.7012 -63.3528 4.1504 30569.0796 -324.7924 -262.6664
ENERGY: 1200000 1.1033 2.4466 1.1510 0.0000 -10863.3225 1470.1565 0.0000 0.0000 1776.4523 -7612.0129 300.8924 -9388.4651 -7546.3591 299.8367 189.5392 190.8107 30322.5357 -190.4264 -130.4932
ENERGY: 1500000 1.0557 1.9532 1.1434 0.0000 -10665.3905 1428.4578 0.0000 0.0000 1795.1531 -7437.6272 304.0600 -9232.7803 -7545.4992 299.0840 -142.1000 -44.3630 30939.0493 -116.7232 -55.3903
TCL: Running FEP window  10: Lambda1 0.5499999999999996 Lambda2 0.4999999999999996 [dLambda -0.04999999999999999]
TCL: Setting parameter firsttimestep to 0
TCL: Setting parameter alchLambda to 0.5499999999999996
Info: NONBONDED TABLE R-SQUARED SPACING: 0.0625
Info: NONBONDED TABLE SIZE: 705 POINTS
TCL: Setting parameter alchLambda2 to 0.4999999999999996
Info: NONBONDED TABLE R-SQUARED SPACING: 0.0625
Info: NONBONDED TABLE SIZE: 705 POINTS
TCL: Running for 1500000 steps
ETITLE: TS BOND ANGLE DIHED IMPRP ELECT VDW BOUNDARY MISC KINETIC TOTAL TEMP POTENTIAL TOTALAVG TEMPAVG PRESSURE GPRESSURE VOLUME PRESSAVG GPRESSAVG
ENERGY: 0 1.0557 1.9532 1.1434 0.0000 -10665.2332 1428.3338 0.0000 0.0000 1794.2764 -7438.4707 303.9115 -9232.7471 -7438.4707 303.9115 -125.6960 -50.5430 30939.0493 -125.6960 -50.5430
ENERGY: 300000 0.0171 1.5004 1.9919 0.0000 -10733.6648 1406.1020 0.0000 0.0000 1752.6295 -7571.4238 296.8574 -9324.0533 -7533.5518 299.0210 -342.8635 -307.4612 30738.7906 -311.9866 -256.6110
ENERGY: 600000 1.8085 2.3420 1.3037 0.0000 -10769.5282 1426.4510 0.0000 0.0000 1828.7790 -7508.8441 309.7555 -9337.6231 -7545.2022 300.6626 -214.1248 -117.9240 30523.1392 -215.2043 -140.4623
ENERGY: 900000 0.8273 1.8254 1.3196 0.0000 -10607.0093 1336.3631 0.0000 0.0000 1738.3821 -7528.2918 294.4442 -9266.6739 -7547.8627 299.6059 -585.7928 -535.8401 30459.8087 -188.1009 -117.8018
ENERGY: 1200000 2.4935 0.9107 1.6085 0.0000 -10728.4727 1406.6196 0.0000 0.0000 1727.4393 -7589.4011 292.5907 -9316.8404 -7558.3532 298.7120 -365.3081 -305.9937 30529.7136 -155.5304 -90.5185
ENERGY: 1500000 1.9246 2.1171 1.4261 0.0000 -10724.3505 1377.6082 0.0000 0.0000 1746.9875 -7594.2870 295.9018 -9341.2745 -7565.6291 297.6010 -574.3314 -490.4608 30265.7076 -126.5893 -53.9556
TCL: Running FEP window  11: Lambda1 0.4999999999999996 Lambda2 0.4499999999999996 [dLambda -0.04999999999999999]
TCL: Setting parameter firsttimestep to 0
TCL: Setting parameter alchLambda to 0.4999999999999996
Info: NONBONDED TABLE R-SQUARED SPACING: 0.0625
Info: NONBONDED TABLE SIZE: 705 POINTS
TCL: Setting parameter alchLambda2 to 0.4499999999999996
Info: NONBONDED TABLE R-SQUARED SPACING: 0.0625
Info: NONBONDED TABLE SIZE: 705 POINTS
TCL: Running for 1500000 steps
ETITLE: TS BOND ANGLE DIHED IMPRP ELECT VDW BOUNDARY MISC KINETIC TOTAL TEMP POTENTIAL TOTALAVG TEMPAVG PRESSURE GPRESSURE VOLUME PRESSAVG GPRESSAVG
ENERGY: 0 1.9246 2.1171 1.4261 0.0000 -10724.5248 1377.6326 0.0000 0.0000 1746.0810 -7595.3434 295.7482 -9341.4244 -7595.3434 295.7482 -586.6774 -494.4858 30265.7076 -586.6774 -494.4858
ENERGY: 300000 1.9540 3.4313 1.1642 0.0000 -10873.3616 1459.4019 0.0000 0.0000 1755.1593 -7652.2508 297.2859 -9407.4101 -7594.5958 297.1812 -171.6875 -161.0259 30380.0245 -425.9739 -378.5667
ENERGY: 600000 0.4778 3.5820 1.1775 0.0000 -10669.5128 1313.3547 0.0000 0.0000 1805.0457 -7545.8751 305.7356 -9350.9208 -7586.2314 298.1972 -1034.6124 -926.5637 30316.8925 -461.5746 -411.2162
ENERGY: 900000 1.2131 3.3483 1.3411 0.0000 -10649.8890 1408.2608 0.0000 0.0000 1726.4948 -7509.2310 292.4307 -9235.7258 -7565.6180 297.4703 -327.5401 -242.9368 30679.1424 -436.2160 -379.8995
ENERGY: 1200000 1.7314 4.9408 1.8941 0.0000 -10860.4260 1479.4896 0.0000 0.0000 1833.7866 -7538.5835 310.6036 -9372.3701 -7573.0828 298.8789 114.3533 211.4837 30379.8628 -318.1849 -253.7331
ENERGY: 1500000 0.4379 4.4763 1.2947 0.0000 -10765.8981 1389.1431 0.0000 0.0000 1744.8185 -7625.7275 295.5344 -9370.5461 -7572.5003 298.6895 -701.4770 -637.5957 30618.8093 -245.1199 -184.7504
TCL: Running FEP window  12: Lambda1 0.4499999999999996 Lambda2 0.39999999999999963 [dLambda -0.04999999999999999]
TCL: Setting parameter firsttimestep to 0
TCL: Setting parameter alchLambda to 0.4499999999999996
Info: NONBONDED TABLE R-SQUARED SPACING: 0.0625
Info: NONBONDED TABLE SIZE: 705 POINTS
TCL: Setting parameter alchLambda2 to 0.39999999999999963
Info: NONBONDED TABLE R-SQUARED SPACING: 0.0625
Info: NONBONDED TABLE SIZE: 705 POINTS
TCL: Running for 1500000 steps
ETITLE: TS BOND ANGLE DIHED IMPRP ELECT VDW BOUNDARY MISC KINETIC TOTAL TEMP POTENTIAL TOTALAVG TEMPAVG PRESSURE GPRESSURE VOLUME PRESSAVG GPRESSAVG
ENERGY: 0 0.4379 4.4763 1.2947 0.0000 -10765.8984 1389.1602 0.0000 0.0000 1743.9485 -7626.5807 295.3870 -9370.5292 -7626.5807 295.3870 -713.9092 -638.0089 30618.8093 -713.9092 -638.0089
ENERGY: 300000 0.3270 4.3927 1.5677 0.0000 -10753.1190 1423.0194 0.0000 0.0000 1815.3866 -7508.4256 307.4871 -9323.8122 -7551.4515 300.8526 -393.2358 -300.2693 30862.0467 -314.1344 -224.9140
ENERGY: 600000 0.6075 5.5239 2.0421 0.0000 -10800.5815 1427.2816 0.0000 0.0000 1794.6267 -7570.4997 303.9708 -9365.1264 -7574.9602 299.3375 -198.4102 -185.6213 30381.1955 -251.1493 -184.9592
ENERGY: 900000 0.2369 2.0720 1.1670 0.0000 -10737.9849 1435.3768 0.0000 0.0000 1713.3972 -7585.7350 290.2123 -9299.1322 -7560.4316 298.8134 -312.7829 -249.2398 31323.1077 -107.9946 -45.8016
ENERGY: 1200000 0.7771 3.4121 1.4641 0.0000 -10675.0848 1400.5178 0.0000 0.0000 1743.7296 -7525.1840 295.3499 -9268.9136 -7563.2607 298.9735 -372.7378 -361.9358 30920.6671 -110.0411 -54.1143
ENERGY: 1500000 1.0585 2.2524 1.4508 0.0000 -10697.3387 1402.5583 0.0000 0.0000 1739.7932 -7550.2256 294.6832 -9290.0188 -7546.1356 299.7702 -291.5916 -282.7098 30762.1464 -31.6792 23.5267
TCL: Running FEP window  13: Lambda1 0.39999999999999963 Lambda2 0.34999999999999964 [dLambda -0.04999999999999999]
TCL: Setting parameter firsttimestep to 0
TCL: Setting parameter alchLambda to 0.39999999999999963
Info: NONBONDED TABLE R-SQUARED SPACING: 0.0625
Info: NONBONDED TABLE SIZE: 705 POINTS
TCL: Setting parameter alchLambda2 to 0.34999999999999964
Info: NONBONDED TABLE R-SQUARED SPACING: 0.0625
Info: NONBONDED TABLE SIZE: 705 POINTS
TCL: Running for 1500000 steps
ETITLE: TS BOND ANGLE DIHED IMPRP ELECT VDW BOUNDARY MISC KINETIC TOTAL TEMP POTENTIAL TOTALAVG TEMPAVG PRESSURE GPRESSURE VOLUME PRESSAVG GPRESSAVG
ENERGY: 0 1.0585 2.2524 1.4508 0.0000 -10697.3394 1402.7836 0.0000 0.0000 1738.9381 -7550.8559 294.5384 -9289.7941 -7550.8559 294.5384 -367.0017 -284.0182 30762.1464 -367.0017 -284.0182
ENERGY: 300000 1.1131 4.9719 1.6755 0.0000 -10839.4777 1442.4387 0.0000 0.0000 1763.6926 -7625.5859 298.7312 -9389.2785 -7555.7775 297.6901 -154.0916 -103.3738 30270.6174 -257.2425 -210.7066
ENERGY: 600000 0.3546 2.4817 1.1715 0.0000 -10815.8077 1496.9042 0.0000 0.0000 1769.1122 -7545.7836 299.6492 -9314.8958 -7550.5025 298.4717 399.5649 462.2082 30479.8733 -62.3471 -5.6505
ENERGY: 900000 2.0151 3.7290 1.1498 0.0000 -10950.7753 1551.3723 0.0000 0.0000 1806.3555 -7586.1536 305.9574 -9392.5092 -7550.3484 298.2950 516.7360 577.8839 30444.4486 9.5971 59.5551
ENERGY: 1200000 1.7010 3.3756 1.2868 0.0000 -10765.8990 1426.3367 0.0000 0.0000 1737.1091 -7596.0898 294.2286 -9333.1989 -7552.2944 297.6974 -308.3508 -197.5068 30891.2607 -16.0993 37.1256
ENERGY: 1500000 0.9585 1.7395 1.1640 0.0000 -10747.4312 1441.0767 0.0000 0.0000 1731.4721 -7571.0205 293.2738 -9302.4926 -7554.3976 297.4681 -46.6955 21.9796 30764.5224 -58.2655 -1.9646
TCL: Running FEP window  14: Lambda1 0.34999999999999964 Lambda2 0.29999999999999966 [dLambda -0.04999999999999999]
TCL: Setting parameter firsttimestep to 0
TCL: Setting parameter alchLambda to 0.34999999999999964
Info: NONBONDED TABLE R-SQUARED SPACING: 0.0625
Info: NONBONDED TABLE SIZE: 705 POINTS
TCL: Setting parameter alchLambda2 to 0.29999999999999966
Info: NONBONDED TABLE R-SQUARED SPACING: 0.0625
Info: NONBONDED TABLE SIZE: 705 POINTS
TCL: Running for 1500000 steps
ETITLE: TS BOND ANGLE DIHED IMPRP ELECT VDW BOUNDARY MISC KINETIC TOTAL TEMP POTENTIAL TOTALAVG TEMPAVG PRESSURE GPRESSURE VOLUME PRESSAVG GPRESSAVG
ENERGY: 0 0.9584 1.7395 1.1640 0.0000 -10747.4328 1441.0631 0.0000 0.0000 1730.5806 -7571.9271 293.1228 -9302.5077 -7571.9271 293.1228 -75.5475 18.8683 30764.5224 -75.5475 18.8683
ENERGY: 300000 2.4358 2.8795 1.1403 0.0000 -10823.7017 1434.4623 0.0000 0.0000 1817.7730 -7565.0109 307.8913 -9382.7838 -7584.3003 299.0827 -294.2482 -273.1090 30568.6833 48.2665 124.9642
ENERGY: 600000 0.8905 5.7163 1.3254 0.0000 -10951.9991 1573.4015 0.0000 0.0000 1814.2448 -7556.4207 307.2937 -9370.6655 -7562.9115 301.5983 841.0381 917.3680 30565.8096 244.8667 307.1760
ENERGY: 900000 1.4346 2.8922 1.3233 0.0000 -10847.6356 1510.1146 0.0000 0.0000 1758.1271 -7573.7438 297.7886 -9331.8709 -7558.4446 301.5740 309.8618 326.5711 30859.1564 358.4744 414.0308
ENERGY: 1200000 0.8175 3.0993 1.3810 0.0000 -10673.7216 1374.4909 0.0000 0.0000 1750.5920 -7543.3409 296.5123 -9293.9329 -7557.1901 301.5027 -773.2617 -713.4361 30989.7623 164.5217 225.5847
ENERGY: 1500000 1.9263 3.7286 1.2319 0.0000 -10964.8111 1586.5961 0.0000 0.0000 1712.8433 -7658.4850 290.1185 -9371.3283 -7552.5175 300.8844 976.3522 1058.2633 30109.0314 191.4954 248.7625
TCL: Running FEP window  15: Lambda1 0.29999999999999966 Lambda2 0.24999999999999967 [dLambda -0.04999999999999999]
TCL: Setting parameter firsttimestep to 0
TCL: Setting parameter alchLambda to 0.29999999999999966
Info: NONBONDED TABLE R-SQUARED SPACING: 0.0625
Info: NONBONDED TABLE SIZE: 705 POINTS
TCL: Setting parameter alchLambda2 to 0.24999999999999967
Info: NONBONDED TABLE R-SQUARED SPACING: 0.0625
Info: NONBONDED TABLE SIZE: 705 POINTS
TCL: Running for 1500000 steps
ETITLE: TS BOND ANGLE DIHED IMPRP ELECT VDW BOUNDARY MISC KINETIC TOTAL TEMP POTENTIAL TOTALAVG TEMPAVG PRESSURE GPRESSURE VOLUME PRESSAVG GPRESSAVG
ENERGY: 0 1.9263 3.7286 1.2319 0.0000 -10964.8081 1586.0730 0.0000 0.0000 1711.9540 -7659.8943 289.9678 -9371.8483 -7659.8943 289.9678 978.2962 1053.2922 30109.0314 978.2962 1053.2922
ENERGY: 300000 0.2194 1.7727 1.1773 0.0000 -10738.2921 1396.6252 0.0000 0.0000 1736.1232 -7602.3743 294.0616 -9338.4974 -7588.6084 294.8464 -554.5730 -470.9015 30604.2671 -143.1259 -78.8501
ENERGY: 600000 0.7988 3.2700 1.2601 0.0000 -10857.0112 1432.7822 0.0000 0.0000 1767.4279 -7651.4722 299.3639 -9418.9001 -7578.0611 297.0951 -613.0072 -548.5749 30655.9834 -163.6594 -108.2354
ENERGY: 900000 0.6716 2.1270 1.2642 0.0000 -10764.0144 1394.0743 0.0000 0.0000 1751.3938 -7614.4836 296.6481 -9365.8774 -7580.2540 297.3383 -549.0792 -518.5882 30501.8905 -221.2615 -165.8197
ENERGY: 1200000 0.8111 2.4944 1.5743 0.0000 -10805.9032 1465.6189 0.0000 0.0000 1765.2929 -7570.1117 299.0023 -9335.4046 -7577.5328 297.9781 156.5322 188.3794 30210.7967 -84.4868 -34.2162
ENERGY: 1500000 1.8801 2.2889 1.2223 0.0000 -10813.0547 1511.5141 0.0000 0.0000 1766.3617 -7529.7878 299.1833 -9296.1494 -7568.3527 297.9530 432.9794 462.1949 30577.8270 -88.6925 -37.6320
TCL: Running FEP window  16: Lambda1 0.24999999999999967 Lambda2 0.19999999999999968 [dLambda -0.04999999999999999]
TCL: Setting parameter firsttimestep to 0
TCL: Setting parameter alchLambda to 0.24999999999999967
Info: NONBONDED TABLE R-SQUARED SPACING: 0.0625
Info: NONBONDED TABLE SIZE: 705 POINTS
TCL: Setting parameter alchLambda2 to 0.19999999999999968
Info: NONBONDED TABLE R-SQUARED SPACING: 0.0625
Info: NONBONDED TABLE SIZE: 705 POINTS
TCL: Running for 1500000 steps
ETITLE: TS BOND ANGLE DIHED IMPRP ELECT VDW BOUNDARY MISC KINETIC TOTAL TEMP POTENTIAL TOTALAVG TEMPAVG PRESSURE GPRESSURE VOLUME PRESSAVG GPRESSAVG
ENERGY: 0 1.8801 2.2889 1.2223 0.0000 -10813.0553 1511.3856 0.0000 0.0000 1765.4746 -7530.8039 299.0331 -9296.2785 -7530.8039 299.0331 367.6526 457.3570 30577.8270 367.6526 457.3570
ENERGY: 300000 0.3388 1.8621 1.2702 0.0000 -10810.4132 1475.1283 0.0000 0.0000 1763.4178 -7568.3959 298.6847 -9331.8137 -7571.8849 296.6227 89.2691 146.0518 30758.5159 414.9103 468.3574
ENERGY: 600000 0.7521 3.6845 1.8012 0.0000 -10750.6798 1456.1275 0.0000 0.0000 1773.0629 -7515.2516 300.3184 -9288.3145 -7576.3132 296.8609 -94.2545 -1.3144 30964.4531 168.3555 233.4735
ENERGY: 900000 0.2243 2.8233 1.2969 0.0000 -10810.1854 1444.4814 0.0000 0.0000 1781.7509 -7579.6087 301.7899 -9361.3595 -7593.3121 296.1130 -361.7726 -253.3296 30712.4706 -7.6633 57.3719
ENERGY: 1200000 2.1664 2.9643 1.5699 0.0000 -10810.9526 1509.4760 0.0000 0.0000 1763.3005 -7531.4755 298.6648 -9294.7760 -7582.4956 297.6261 329.9087 404.4936 30901.5784 -83.7786 -12.5934
ENERGY: 1500000 1.0798 3.9328 1.3618 0.0000 -10786.9098 1428.9765 0.0000 0.0000 1791.1288 -7560.4300 303.3783 -9351.5588 -7585.5302 298.5378 -334.6446 -223.6247 30712.3130 -73.2113 -3.4308
TCL: Running FEP window  17: Lambda1 0.19999999999999968 Lambda2 0.1499999999999997 [dLambda -0.04999999999999999]
TCL: Setting parameter firsttimestep to 0
TCL: Setting parameter alchLambda to 0.19999999999999968
Info: NONBONDED TABLE R-SQUARED SPACING: 0.0625
Info: NONBONDED TABLE SIZE: 705 POINTS
TCL: Setting parameter alchLambda2 to 0.1499999999999997
Info: NONBONDED TABLE R-SQUARED SPACING: 0.0625
Info: NONBONDED TABLE SIZE: 705 POINTS
TCL: Running for 1500000 steps
ETITLE: TS BOND ANGLE DIHED IMPRP ELECT VDW BOUNDARY MISC KINETIC TOTAL TEMP POTENTIAL TOTALAVG TEMPAVG PRESSURE GPRESSURE VOLUME PRESSAVG GPRESSAVG
ENERGY: 0 1.0798 3.9328 1.3618 0.0000 -10786.9098 1429.0352 0.0000 0.0000 1790.2560 -7561.2441 303.2305 -9351.5002 -7561.2441 303.2305 -303.9261 -226.4496 30712.3130 -303.9261 -226.4496
ENERGY: 300000 1.1671 3.9051 1.2051 0.0000 -10903.4459 1534.2251 0.0000 0.0000 1794.8067 -7568.1368 304.0013 -9362.9435 -7554.0646 301.2292 438.7873 529.2555 30509.5360 -122.5692 -25.3463
ENERGY: 600000 2.7237 2.2591 1.1383 0.0000 -10775.1027 1435.1899 0.0000 0.0000 1849.8921 -7483.8996 313.3316 -9333.7917 -7531.2270 303.8638 -260.5596 -184.4419 30719.2777 -95.9544 -4.5200
ENERGY: 900000 0.2865 1.7457 1.7465 0.0000 -10843.0675 1499.9298 0.0000 0.0000 1750.6111 -7588.7479 296.5155 -9339.3590 -7539.8199 304.6367 391.8630 434.9735 30488.3981 -43.1541 38.6205
ENERGY: 1200000 0.2734 1.7371 1.2300 0.0000 -10762.9045 1414.9015 0.0000 0.0000 1733.2180 -7611.5445 293.5695 -9344.7625 -7549.1247 303.3333 -360.7862 -262.1388 30485.0417 -68.0453 8.6978
ENERGY: 1500000 0.6636 2.9494 1.1995 0.0000 -10899.2104 1534.8800 0.0000 0.0000 1765.5194 -7593.9985 299.0407 -9359.5179 -7558.2262 302.9485 245.4094 419.5742 30773.9317 -88.1950 -7.4302
TCL: Running FEP window  18: Lambda1 0.1499999999999997 Lambda2 0.09999999999999969 [dLambda -0.05 ]
TCL: Setting parameter firsttimestep to 0
TCL: Setting parameter alchLambda to 0.1499999999999997
Info: NONBONDED TABLE R-SQUARED SPACING: 0.0625
Info: NONBONDED TABLE SIZE: 705 POINTS
TCL: Setting parameter alchLambda2 to 0.09999999999999969
Info: NONBONDED TABLE R-SQUARED SPACING: 0.0625
Info: NONBONDED TABLE SIZE: 705 POINTS
TCL: Running for 1500000 steps
ETITLE: TS BOND ANGLE DIHED IMPRP ELECT VDW BOUNDARY MISC KINETIC TOTAL TEMP POTENTIAL TOTALAVG TEMPAVG PRESSURE GPRESSURE VOLUME PRESSAVG GPRESSAVG
ENERGY: 0 0.6636 2.9494 1.1995 0.0000 -10899.2089 1534.6000 0.0000 0.0000 1764.6491 -7595.1474 298.8932 -9359.7965 -7595.1474 298.8932 333.0317 416.0145 30773.9317 333.0317 416.0145
ENERGY: 300000 0.6825 4.4854 1.6212 0.0000 -10670.6196 1351.1243 0.0000 0.0000 1699.8596 -7612.8466 287.9193 -9312.7062 -7588.0869 296.6773 -868.6370 -810.2520 30714.5342 -120.4092 -69.5812
ENERGY: 600000 3.3556 4.2646 2.0338 0.0000 -10918.1007 1549.4360 0.0000 0.0000 1742.8408 -7616.1699 295.1994 -9359.0107 -7598.0274 297.7306 845.0567 869.0887 29990.5567 35.8507 100.8630
ENERGY: 900000 0.4056 3.4990 1.4921 0.0000 -10698.4446 1457.6928 0.0000 0.0000 1799.1542 -7436.2009 304.7377 -9235.3550 -7570.5609 300.0068 355.4485 399.4951 30570.9101 19.7241 86.3113
ENERGY: 1200000 0.8440 2.2084 1.1386 0.0000 -10736.2120 1398.2593 0.0000 0.0000 1791.8773 -7541.8844 303.5051 -9333.7617 -7562.8677 299.6478 -159.8483 -106.0913 30069.9430 50.9065 115.8246
ENERGY: 1500000 1.1674 2.7553 1.1441 0.0000 -10858.6887 1481.1161 0.0000 0.0000 1768.8048 -7603.7009 299.5971 -9372.5057 -7563.5519 300.2671 402.4209 467.9281 30104.1337 67.4764 131.0011
TCL: Running FEP window  19: Lambda1 0.09999999999999969 Lambda2 0.049999999999999684 [dLambda -0.05 ]
TCL: Setting parameter firsttimestep to 0
TCL: Setting parameter alchLambda to 0.09999999999999969
Info: NONBONDED TABLE R-SQUARED SPACING: 0.0625
Info: NONBONDED TABLE SIZE: 705 POINTS
TCL: Setting parameter alchLambda2 to 0.049999999999999684
Info: NONBONDED TABLE R-SQUARED SPACING: 0.0625
Info: NONBONDED TABLE SIZE: 705 POINTS
TCL: Running for 1500000 steps
ETITLE: TS BOND ANGLE DIHED IMPRP ELECT VDW BOUNDARY MISC KINETIC TOTAL TEMP POTENTIAL TOTALAVG TEMPAVG PRESSURE GPRESSURE VOLUME PRESSAVG GPRESSAVG
ENERGY: 0 1.1674 2.7553 1.1441 0.0000 -10858.6906 1481.0898 0.0000 0.0000 1767.8578 -7604.6761 299.4367 -9372.5339 -7604.6761 299.4367 367.4039 466.4109 30104.1337 367.4039 466.4109
ENERGY: 300000 0.3925 4.5739 1.1420 0.0000 -10702.7798 1362.4799 0.0000 0.0000 1807.9923 -7526.1992 306.2346 -9334.1915 -7541.5217 301.3349 -1040.7572 -965.4849 31034.9962 -74.4182 -1.7085
ENERGY: 600000 0.5873 4.9846 1.1812 0.0000 -10804.0196 1442.4832 0.0000 0.0000 1761.3648 -7593.4185 298.3370 -9354.7833 -7548.1441 301.2132 -65.8725 74.1674 30120.6148 -67.5255 -4.7967
ENERGY: 900000 0.3452 3.4456 2.0926 0.0000 -10800.3185 1440.0031 0.0000 0.0000 1771.0273 -7583.4046 299.9736 -9354.4319 -7563.1395 301.5020 -58.9448 46.4711 29988.5826 -57.3210 8.4583
ENERGY: 1200000 0.8989 4.9787 1.2021 0.0000 -10795.3682 1448.8428 0.0000 0.0000 1794.8520 -7544.5937 304.0090 -9339.4456 -7559.7465 300.9813 -443.5751 -394.8439 31172.7147 -166.3114 -107.8272
ENERGY: 1500000 0.2927 1.2721 1.1369 0.0000 -10774.6832 1407.9076 0.0000 0.0000 1787.2069 -7576.8669 302.7140 -9364.0738 -7558.4413 300.6069 -289.5940 -214.3409 30447.6128 -152.6140 -93.5895
TCL: Running FEP window  20: Lambda1 0.049999999999999684 Lambda2 0.0    [dLambda -0.049999999999999684]
TCL: Setting parameter firsttimestep to 0
TCL: Setting parameter alchLambda to 0.049999999999999684
Info: NONBONDED TABLE R-SQUARED SPACING: 0.0625
Info: NONBONDED TABLE SIZE: 705 POINTS
TCL: Setting parameter alchLambda2 to 0.0
Info: NONBONDED TABLE R-SQUARED SPACING: 0.0625
Info: NONBONDED TABLE SIZE: 705 POINTS
TCL: Running for 1500000 steps
ETITLE: TS BOND ANGLE DIHED IMPRP ELECT VDW BOUNDARY MISC KINETIC TOTAL TEMP POTENTIAL TOTALAVG TEMPAVG PRESSURE GPRESSURE VOLUME PRESSAVG GPRESSAVG
ENERGY: 0 0.2927 1.2721 1.1369 0.0000 -10774.6841 1408.0804 0.0000 0.0000 1786.3095 -7577.5924 302.5620 -9363.9019 -7577.5924 302.5620 -302.6904 -214.7227 30447.6128 -302.6904 -214.7227
ENERGY: 300000 0.2450 2.5929 1.1657 0.0000 -10627.0863 1348.3788 0.0000 0.0000 1695.9748 -7578.7292 287.2613 -9274.7040 -7562.6361 297.2078 -786.2715 -755.7735 30589.3176 -550.1796 -497.5356
ENERGY: 600000 2.0974 4.2297 1.2480 0.0000 -10695.4995 1409.3777 0.0000 0.0000 1782.7905 -7495.7561 301.9660 -9278.5466 -7561.9407 298.5628 -99.5551 -39.5197 30232.8496 -481.6428 -434.3015
ENERGY: 900000 0.7573 1.9229 1.2718 0.0000 -10756.5196 1409.2944 0.0000 0.0000 1780.4184 -7562.8547 301.5642 -9343.2731 -7558.7167 299.1710 -164.8401 -117.4007 30243.5624 -412.1080 -366.0536
ENERGY: 1200000 0.5040 2.8047 1.6346 0.0000 -10735.2408 1463.5719 0.0000 0.0000 1755.1200 -7511.6055 297.2792 -9266.7255 -7549.2560 299.4244 450.1233 485.9800 30449.4843 -255.0306 -209.3792
ENERGY: 1500000 0.3624 2.6021 1.3480 0.0000 -10850.0022 1540.4882 0.0000 0.0000 1733.7115 -7571.4900 293.6531 -9305.2014 -7551.2477 299.1040 827.5329 891.7824 30165.6025 -128.2783 -78.4430
TCL: Exiting due to exit command.
