Info: SIMULATION PARAMETERS:
Info: TIMESTEP               2
Info: NUMBER OF STEPS        0
Info: STEPS PER CYCLE        10
Info: PERIODIC CELL BASIS 1  31.8503 0 0
Info: PERIODIC CELL BASIS 2  0 29.7666 0
Info: PERIODIC CELL BASIS 3  0 0 33.0084
Info: PERIODIC CELL CENTER   0 0 0
Info: WRAPPING WATERS AROUND PERIODIC BOUNDARIES ON OUTPUT.
Info: WRAPPING ALL CLUSTERS AROUND PERIODIC BOUNDARIES ON OUTPUT.
Info: FIRST LDB TIMESTEP     50
Info: LAST LDB TIMESTEP     -1
Info: HOM BACKGROUND SCALING 1
Info: PME BACKGROUND SCALING 1
Info: MIN ATOMS PER PATCH    40
Info: EMPTY PATCH LOAD       40 ATOMS
Info: VELOCITY FILE          mobley_3169935_equil.vel
Info: CENTER OF MASS MOVING INITIALLY? NO
Info: DIELECTRIC             1
Info: EXCLUDE                SCALED ONE-FOUR
Info: 1-4 ELECTROSTATICS SCALED BY 0.833333
Info: MODIFIED 1-4 VDW PARAMETERS WILL BE USED
Info: DCD FILENAME           mobley_3169935_prod.dcd
Info: DCD FREQUENCY          100000
Info: DCD FIRST STEP         100000
Info: DCD FILE WILL CONTAIN UNIT CELL DATA
Info: XST FILENAME           mobley_3169935_prod.xst
Info: XST FREQUENCY          100000
Info: NO VELOCITY DCD OUTPUT
Info: NO FORCE DCD OUTPUT
Info: OUTPUT FILENAME        mobley_3169935_prod
Info: BINARY OUTPUT FILES WILL BE USED
Info: RESTART FILENAME       mobley_3169935_prod.restart
Info: RESTART FREQUENCY      100000
Info: BINARY RESTART FILES WILL BE USED
Info: CUTOFF                 9
Info: PAIRLIST DISTANCE      11
Info: PAIRLIST SHRINK RATE   0.01
Info: PAIRLIST GROW RATE     0.01
Info: PAIRLIST TRIGGER       0.3
Info: PAIRLISTS PER CYCLE    2
Info: PAIRLISTS ENABLED
Info: MARGIN                 2
Info: HYDROGEN GROUP CUTOFF  2.5
Info: PATCH DIMENSION        15.5
Info: ENERGY OUTPUT STEPS    100000
Info: ENERGY EVALUATION STEPS    100000
Info: OUTPUT ENERGY PRECISION 4
Info: CROSSTERM ENERGY INCLUDED IN DIHEDRAL
Info: TIMING OUTPUT STEPS    1000000
Info: PRESSURE OUTPUT STEPS  100000
Info: ALCHEMICAL FEP ON
Info: FEP CURRENT LAMBDA VALUE     0
Info: FEP COMPARISON LAMBDA VALUE  0.05
Info: FEP INTRA-ALCHEMICAL NON-BONDED INTERACTIONS WILL BE RETAINED
Info: FEP INTRA-ALCHEMICAL BONDED INTERACTIONS WILL BE RETAINED
Info: FEP VDW SHIFTING COEFFICIENT 5
Info: FEP ELEC. ACTIVE FOR ANNIHILATED PARTICLES BETWEEN LAMBDA = 0 AND LAMBDA = 0.5
Info: FEP ELEC. ACTIVE FOR EXNIHILATED PARTICLES BETWEEN LAMBDA = 0.5 AND LAMBDA = 1
Info: FEP VDW ACTIVE FOR ANNIHILATED PARTICLES BETWEEN LAMBDA = 0 AND LAMBDA = 1
Info: FEP VDW ACTIVE FOR EXNIHILATED PARTICLES BETWEEN LAMBDA = 0 AND LAMBDA = 1
Info: FEP BOND ACTIVE FOR ANNIHILATED PARTICLES BETWEEN LAMBDA = 1 AND LAMBDA = 1
Info: FEP BOND ACTIVE FOR EXNIHILATED PARTICLES BETWEEN LAMBDA = 0 AND LAMBDA = 0
Info: LANGEVIN DYNAMICS ACTIVE
Info: LANGEVIN TEMPERATURE   300
Info: LANGEVIN USING BBK INTEGRATOR
Info: LANGEVIN DAMPING COEFFICIENT IS 1 INVERSE PS
Info: LANGEVIN DYNAMICS APPLIED TO HYDROGENS
Info: LANGEVIN PISTON PRESSURE CONTROL ACTIVE
Info:        TARGET PRESSURE IS 1.01325 BAR
Info:     OSCILLATION PERIOD IS 50 FS
Info:             DECAY TIME IS 25 FS
Info:     PISTON TEMPERATURE IS 300 K
Info:       PRESSURE CONTROL IS GROUP-BASED
Info:    INITIAL STRAIN RATE IS 9.2781e-05 9.2781e-05 9.2781e-05
Info:       CELL FLUCTUATION IS ISOTROPIC
Info: PARTICLE MESH EWALD (PME) ACTIVE
Info: PME TOLERANCE               1e-06
Info: PME EWALD COEFFICIENT       0.348832
Info: PME INTERPOLATION ORDER     4
Info: PME GRID DIMENSIONS         32 32 36
Info: PME MAXIMUM GRID SPACING    1
Info: PME CALCULATION WILL BE PERFORMED ON GPU
Info: FULL ELECTROSTATIC EVALUATION FREQUENCY      2
Info: USING VERLET I (r-RESPA) MTS SCHEME.
Info: C1 SPLITTING OF LONG RANGE ELECTROSTATICS
Info: PLACING ATOMS IN PATCHES BY HYDROGEN GROUPS
Info: RIGID BONDS TO HYDROGEN : ALL
Info:         ERROR TOLERANCE : 1e-08
Info:          MAX ITERATIONS : 100
Info: RIGID WATER USING SETTLE ALGORITHM
Info: RANDOM NUMBER SEED     1743560781
Info: USE HYDROGEN BONDS?    NO
Info: Using AMBER format force field!
Info: AMBER PARM FILE        mobley_3169935.prmtop
Info: COORDINATE PDB         mobley_3169935.pdb
Info: Exclusions will be read from PARM file!
Info: SCNB (VDW SCALING)     2
Info: USING ARITHMETIC MEAN TO COMBINE L-J SIGMA PARAMETERS
Info: BINARY COORDINATES     mobley_3169935_equil.coor
Info: SUMMARY OF PARAMETERS:
Info: 7 BONDS
Info: 6 ANGLES
Info:   6 HARMONIC
Info:   0 COSINE-BASED
Info: 3 DIHEDRAL
Info: 0 IMPROPER
Info: 0 CROSSTERM
Info: 0 VDW
Info: 28 VDW_PAIRS
Info: 0 NBTHOLE_PAIRS
Info: To read alchdata from file: mobley_3169935.pdb
Info: To read alchflag data from column: 5
Info: STRUCTURE SUMMARY:
Info: 2996 ATOMS
Info: 2996 BONDS
Info: 21 ANGLES
Info: 35 DIHEDRALS
Info: 0 IMPROPERS
Info: 0 CROSSTERMS
Info: 3042 EXCLUSIONS
Info: 2988 RIGID BONDS
Info: ALCH: 0 ATOMS TO DISAPPEAR IN FINAL STATE
Info: ALCH: 14 ATOMS TO APPEAR IN FINAL STATE
Info: 6000 DEGREES OF FREEDOM
Info: 1002 HYDROGEN GROUPS
Info: 3 ATOMS IN LARGEST HYDROGEN GROUP
Info: 1002 MIGRATION GROUPS
Info: 3 ATOMS IN LARGEST MIGRATION GROUP
Info: TOTAL MASS = 18035.5 amu
Info: TOTAL CHARGE = 0.000100028 e
Info: MASS DENSITY = 0.957014 g/cm^3
Info: ATOM DENSITY = 0.0957355 atoms/A^3
Info: ADDED 0 IMPLICIT EXCLUSIONS
Info: NONBONDED TABLE R-SQUARED SPACING: 0.0625
Info: NONBONDED TABLE SIZE: 705 POINTS
Info: REMOVING COM VELOCITY 0.030678 0.113915 -0.0335539
Info: Use 3D box decompostion in PME FFT.
Info: Updated CUDA force table with 4096 elements.
Info: Updated CUDA LJ table with 7 x 7 elements.
Info: Found 16 unique exclusion lists needing 32 bytes
TCL: Running for 1500000 steps
ETITLE: TS BOND ANGLE DIHED IMPRP ELECT VDW BOUNDARY MISC KINETIC TOTAL TEMP POTENTIAL TOTALAVG TEMPAVG PRESSURE GPRESSURE VOLUME PRESSAVG GPRESSAVG
ENERGY: 0 5.4570 2.2168 2.5038 0.0000 -10702.0849 1346.0796 0.0000 0.0000 1849.7705 -7496.0572 310.2823 -9345.8278 -7496.0572 310.2823 -1232.9988 -1141.9276 31294.5441 -1232.9988 -1141.9276
ENERGY: 300000 2.4052 6.1860 4.7516 0.0000 -10864.3153 1450.3297 0.0000 0.0000 1766.1697 -7634.4731 296.2590 -9400.6428 -7568.9856 300.9575 -341.9441 -316.7660 30965.9715 -349.3037 -319.5948
ENERGY: 600000 1.9461 6.8633 5.2141 0.0000 -10759.6107 1394.4586 0.0000 0.0000 1767.0663 -7584.0622 296.4094 -9351.1285 -7580.7514 300.7749 -478.2852 -409.0323 30726.8386 -357.0084 -313.6605
ENERGY: 900000 2.7073 3.0011 2.2407 0.0000 -10924.6471 1495.6560 0.0000 0.0000 1805.1527 -7615.8893 302.7981 -9421.0420 -7587.4045 300.9092 388.4932 434.9059 30352.3697 -234.3210 -192.2855
ENERGY: 1200000 2.6137 5.6307 4.3501 0.0000 -11058.1517 1530.8809 0.0000 0.0000 1776.0102 -7738.6662 297.9097 -9514.6764 -7600.0832 299.5772 425.8789 442.8375 30113.5167 -203.8096 -158.0335
ENERGY: 1500000 2.2939 3.6896 5.8101 0.0000 -10760.2215 1435.5108 0.0000 0.0000 1768.7484 -7544.1688 296.6916 -9312.9172 -7594.5867 299.8444 -162.6840 -120.1765 31150.4403 -221.5793 -167.3720
TCL: Running FEP window   2: Lambda1 0.05   Lambda2 0.1    [dLambda 0.05  ]
TCL: Setting parameter firsttimestep to 0
TCL: Setting parameter alchLambda to 0.05
Info: NONBONDED TABLE R-SQUARED SPACING: 0.0625
Info: NONBONDED TABLE SIZE: 705 POINTS
TCL: Setting parameter alchLambda2 to 0.1
Info: NONBONDED TABLE R-SQUARED SPACING: 0.0625
Info: NONBONDED TABLE SIZE: 705 POINTS
TCL: Running for 1500000 steps
ETITLE: TS BOND ANGLE DIHED IMPRP ELECT VDW BOUNDARY MISC KINETIC TOTAL TEMP POTENTIAL TOTALAVG TEMPAVG PRESSURE GPRESSURE VOLUME PRESSAVG GPRESSAVG
ENERGY: 0 2.2939 3.6896 5.8101 0.0000 -10760.2216 1440.6754 0.0000 0.0000 1767.8648 -7539.8878 296.5433 -9307.7526 -7539.8878 296.5433 -206.6172 -112.0729 31150.4403 -206.6172 -112.0729
ENERGY: 300000 4.0835 6.6309 3.3902 0.0000 -10886.4617 1487.3388 0.0000 0.0000 1760.3995 -7624.6187 295.2911 -9385.0182 -7598.0515 296.6935 -65.8459 34.2431 30994.9522 95.4442 184.1548
ENERGY: 600000 2.1395 4.2287 4.6993 0.0000 -11022.4769 1513.3250 0.0000 0.0000 1861.0091 -7637.0754 312.1675 -9498.0845 -7572.7144 301.5853 156.0779 306.0295 30368.8719 102.9128 180.6291
ENERGY: 900000 6.5164 6.0637 3.4387 0.0000 -10828.9804 1488.8169 0.0000 0.0000 1755.5386 -7568.6061 294.4757 -9324.1447 -7580.2052 300.9997 178.3387 260.2700 30902.3582 120.3150 201.2571
ENERGY: 1200000 2.6679 2.7629 1.8381 0.0000 -10846.2470 1422.0119 0.0000 0.0000 1832.3456 -7584.6206 307.3594 -9416.9662 -7588.3060 301.8149 -444.6444 -373.2150 30994.1924 81.2379 158.3297
ENERGY: 1500000 3.0611 4.0953 4.0198 0.0000 -10863.4391 1434.9732 0.0000 0.0000 1794.8215 -7622.4683 301.0651 -9417.2897 -7597.8833 301.3091 -425.4991 -418.1264 30762.6597 11.1760 84.1238
TCL: Running FEP window   3: Lambda1 0.1    Lambda2 0.15000000000000002 [dLambda 0.05000000000000002]
TCL: Setting parameter firsttimestep to 0
TCL: Setting parameter alchLambda to 0.1
Info: NONBONDED TABLE R-SQUARED SPACING: 0.0625
Info: NONBONDED TABLE SIZE: 705 POINTS
TCL: Setting parameter alchLambda2 to 0.15000000000000002
Info: NONBONDED TABLE R-SQUARED SPACING: 0.0625
Info: NONBONDED TABLE SIZE: 705 POINTS
TCL: Running for 1500000 steps
ETITLE: TS BOND ANGLE DIHED IMPRP ELECT VDW BOUNDARY MISC KINETIC TOTAL TEMP POTENTIAL TOTALAVG TEMPAVG PRESSURE GPRESSURE VOLUME PRESSAVG GPRESSAVG
ENERGY: 0 3.0611 4.0953 4.0198 0.0000 -10863.4390 1435.5761 0.0000 0.0000 1793.9387 -7622.7482 300.9170 -9416.6868 -7622.7482 300.9170 -494.2660 -414.4403 30762.6597 -494.2660 -414.4403
ENERGY: 300000 0.9490 5.1089 0.5290 0.0000 -10888.7225 1506.1644 0.0000 0.0000 1770.8268 -7605.1445 297.0402 -9375.9713 -7639.6214 298.0989 432.2666 513.3110 30499.4659 43.7436 118.1593
ENERGY: 600000 2.4206 3.8195 4.1459 0.0000 -11047.4844 1606.7808 0.0000 0.0000 1831.8805 -7598.4371 307.2814 -9430.3176 -7611.3859 301.2984 1090.8323 1173.2284 30540.4932 271.0981 339.5772
ENERGY: 900000 3.1618 3.3306 1.4002 0.0000 -10915.5664 1495.1367 0.0000 0.0000 1756.4099 -7656.1272 294.6219 -9412.5370 -7620.9953 299.5155 169.1246 187.4558 30616.8233 177.4792 239.3794
ENERGY: 1200000 2.2922 4.1660 6.4028 0.0000 -10741.4129 1413.4775 0.0000 0.0000 1812.7968 -7502.2775 304.0803 -9315.0744 -7608.3718 300.9397 -156.9628 -158.6101 30919.7802 52.9609 111.2817
ENERGY: 1500000 1.9483 3.7244 3.5250 0.0000 -10808.5671 1507.4453 0.0000 0.0000 1802.3212 -7489.6029 302.3231 -9291.9241 -7607.0273 300.7310 484.9396 657.6836 30997.1999 73.8780 143.1241
TCL: Running FEP window   4: Lambda1 0.15000000000000002 Lambda2 0.2    [dLambda 0.04999999999999999]
TCL: Setting parameter firsttimestep to 0
TCL: Setting parameter alchLambda to 0.15000000000000002
Info: NONBONDED TABLE R-SQUARED SPACING: 0.0625
Info: NONBONDED TABLE SIZE: 705 POINTS
TCL: Setting parameter alchLambda2 to 0.2
Info: NONBONDED TABLE R-SQUARED SPACING: 0.0625
Info: NONBONDED TABLE SIZE: 705 POINTS
TCL: Running for 1500000 steps
ETITLE: TS BOND ANGLE DIHED IMPRP ELECT VDW BOUNDARY MISC KINETIC TOTAL TEMP POTENTIAL TOTALAVG TEMPAVG PRESSURE GPRESSURE VOLUME PRESSAVG GPRESSAVG
ENERGY: 0 1.9483 3.7244 3.5250 0.0000 -10808.5674 1508.4483 0.0000 0.0000 1801.4493 -7489.4721 302.1768 -9290.9215 -7489.4721 302.1768 582.2640 664.6571 30997.1999 582.2640 664.6571
ENERGY: 300000 2.3792 4.3268 7.9619 0.0000 -10839.1729 1401.1540 0.0000 0.0000 1766.8924 -7656.4588 296.3802 -9423.3512 -7632.2215 298.5552 -460.3861 -442.3148 30797.0824 8.8992 54.8442
ENERGY: 600000 1.7220 3.7653 2.1946 0.0000 -10931.5244 1511.4899 0.0000 0.0000 1808.1418 -7604.2108 303.2994 -9412.3526 -7625.2966 299.4600 657.7348 692.3794 30284.2548 20.6399 59.8452
ENERGY: 900000 2.1083 4.0932 3.8577 0.0000 -10906.7696 1531.3036 0.0000 0.0000 1743.9416 -7621.4652 292.5304 -9365.4068 -7616.6141 298.9226 654.1200 756.5928 30371.0325 22.5512 76.7358
ENERGY: 1200000 5.4921 5.6006 3.8894 0.0000 -10860.2513 1466.3817 0.0000 0.0000 1746.6701 -7632.2174 292.9881 -9378.8875 -7626.6664 298.0827 136.2992 229.9046 30639.2056 27.9574 80.2314
ENERGY: 1500000 0.3947 3.8773 3.4610 0.0000 -10981.9937 1477.2897 0.0000 0.0000 1789.9824 -7706.9886 300.2534 -9496.9710 -7622.5773 298.6329 9.5922 134.6364 30169.0751 -36.5916 20.6826
TCL: Running FEP window   5: Lambda1 0.2    Lambda2 0.25   [dLambda 0.04999999999999999]
TCL: Setting parameter firsttimestep to 0
TCL: Setting parameter alchLambda to 0.2
Info: NONBONDED TABLE R-SQUARED SPACING: 0.0625
Info: NONBONDED TABLE SIZE: 705 POINTS
TCL: Setting parameter alchLambda2 to 0.25
Info: NONBONDED TABLE R-SQUARED SPACING: 0.0625
Info: NONBONDED TABLE SIZE: 705 POINTS
TCL: Running for 1500000 steps
ETITLE: TS BOND ANGLE DIHED IMPRP ELECT VDW BOUNDARY MISC KINETIC TOTAL TEMP POTENTIAL TOTALAVG TEMPAVG PRESSURE GPRESSURE VOLUME PRESSAVG GPRESSAVG
ENERGY: 0 0.3947 3.8773 3.4610 0.0000 -10981.9940 1476.8131 0.0000 0.0000 1789.0750 -7708.3729 300.1012 -9497.4479 -7708.3729 300.1012 39.7698 134.9701 30169.0751 39.7698 134.9701
ENERGY: 300000 2.1187 5.6197 3.7675 0.0000 -10704.3350 1377.1051 0.0000 0.0000 1770.3958 -7545.3282 296.9679 -9315.7240 -7650.4562 295.7560 -578.1305 -514.0416 30985.3933 -168.8149 -100.6691
ENERGY: 600000 0.8577 5.2148 2.5193 0.0000 -10919.0598 1456.4878 0.0000 0.0000 1707.9823 -7745.9979 286.4986 -9453.9802 -7637.1556 295.8284 -110.7508 -58.1326 30438.7528 -82.3239 -15.4729
ENERGY: 900000 5.8658 3.0430 2.1936 0.0000 -10932.2846 1523.6799 0.0000 0.0000 1730.0071 -7667.4952 290.1931 -9397.5023 -7635.9723 296.3694 164.5795 209.8386 30876.4525 42.2559 105.1553
ENERGY: 1200000 2.6896 3.0633 3.6103 0.0000 -10836.4725 1469.6025 0.0000 0.0000 1805.0701 -7552.4367 302.7842 -9357.5068 -7630.7111 297.4909 -108.7019 -30.2372 31474.7430 9.6962 78.3327
ENERGY: 1500000 0.9875 3.6790 5.1974 0.0000 -10837.3908 1454.0595 0.0000 0.0000 1810.7326 -7562.7348 303.7340 -9373.4674 -7619.7034 298.2567 54.4548 25.1577 30911.0181 -33.2467 26.4732
TCL: Running FEP window   6: Lambda1 0.25   Lambda2 0.3    [dLambda 0.04999999999999999]
TCL: Setting parameter firsttimestep to 0
TCL: Setting parameter alchLambda to 0.25
Info: NONBONDED TABLE R-SQUARED SPACING: 0.0625
Info: NONBONDED TABLE SIZE: 705 POINTS
TCL: Setting parameter alchLambda2 to 0.3
Info: NONBONDED TABLE R-SQUARED SPACING: 0.0625
Info: NONBONDED TABLE SIZE: 705 POINTS
TCL: Running for 1500000 steps
ETITLE: TS BOND ANGLE DIHED IMPRP ELECT VDW BOUNDARY MISC KINETIC TOTAL TEMP POTENTIAL TOTALAVG TEMPAVG PRESSURE GPRESSURE VOLUME PRESSAVG GPRESSAVG
ENERGY: 0 0.9875 3.6790 5.1974 0.0000 -10837.3899 1454.7669 0.0000 0.0000 1809.8502 -7562.9089 303.5860 -9372.7592 -7562.9089 303.5860 -55.9268 32.3718 30911.0181 -55.9268 32.3718
ENERGY: 300000 1.6342 1.9610 3.1411 0.0000 -10835.0736 1359.9278 0.0000 0.0000 1756.7979 -7711.6115 294.6870 -9468.4094 -7606.6869 301.8915 -1176.8753 -1105.0216 30937.7136 -554.6717 -486.5405
ENERGY: 600000 2.4093 3.5460 3.3828 0.0000 -10672.8350 1325.3411 0.0000 0.0000 1771.2434 -7566.9124 297.1101 -9338.1558 -7596.4510 300.0254 -846.3508 -792.6657 30971.5891 -414.5422 -345.3267
ENERGY: 900000 4.2180 2.3114 4.3109 0.0000 -10822.6454 1440.7843 0.0000 0.0000 1772.7898 -7598.2310 297.3695 -9371.0208 -7588.9005 300.7419 -205.7075 -150.6794 31139.7258 -330.0781 -262.9255
ENERGY: 1200000 4.6815 5.8015 3.2633 0.0000 -10750.5607 1392.0866 0.0000 0.0000 1755.8176 -7588.9104 294.5225 -9344.7279 -7594.3049 300.3996 -520.7837 -442.4354 30635.0431 -359.4514 -294.8997
ENERGY: 1500000 4.3868 6.2544 2.3076 0.0000 -10750.6356 1423.4940 0.0000 0.0000 1805.5822 -7508.6106 302.8701 -9314.1928 -7582.4717 300.1837 -83.3878 -8.7848 30827.6949 -343.7470 -277.4641
TCL: Running FEP window   7: Lambda1 0.3    Lambda2 0.35   [dLambda 0.04999999999999999]
TCL: Setting parameter firsttimestep to 0
TCL: Setting parameter alchLambda to 0.3
Info: NONBONDED TABLE R-SQUARED SPACING: 0.0625
Info: NONBONDED TABLE SIZE: 705 POINTS
TCL: Setting parameter alchLambda2 to 0.35
Info: NONBONDED TABLE R-SQUARED SPACING: 0.0625
Info: NONBONDED TABLE SIZE: 705 POINTS
TCL: Running for 1500000 steps
ETITLE: TS BOND ANGLE DIHED IMPRP ELECT VDW BOUNDARY MISC KINETIC TOTAL TEMP POTENTIAL TOTALAVG TEMPAVG PRESSURE GPRESSURE VOLUME PRESSAVG GPRESSAVG
ENERGY: 0 4.3868 6.2544 2.3076 0.0000 -10750.6360 1423.0810 0.0000 0.0000 1804.6816 -7509.9246 302.7190 -9314.6062 -7509.9246 302.7190 -92.5907 -7.6608 30827.6949 -92.5907 -7.6608
ENERGY: 300000 1.8428 8.3703 2.8179 0.0000 -11012.2806 1562.1751 0.0000 0.0000 1759.7764 -7677.2981 295.1866 -9437.0745 -7542.4964 300.8082 570.0699 613.7527 30657.9365 91.5478 138.2887
ENERGY: 600000 1.0639 2.7776 3.9197 0.0000 -10787.1813 1438.2306 0.0000 0.0000 1790.3895 -7550.8000 300.3217 -9341.1895 -7576.8399 300.2131 57.9421 113.0751 30539.2677 -133.3928 -84.5100
ENERGY: 900000 6.4531 3.1513 3.7079 0.0000 -10929.5794 1460.5545 0.0000 0.0000 1781.2819 -7674.4308 298.7939 -9455.7127 -7595.3186 299.1776 -81.7532 15.8190 30175.9064 -93.4250 -35.8677
ENERGY: 1200000 2.7841 2.3659 8.6178 0.0000 -10911.0481 1488.4944 0.0000 0.0000 1774.7308 -7634.0552 297.6951 -9408.7860 -7617.0138 298.0289 284.1207 360.9054 30744.5242 -27.2331 27.3166
ENERGY: 1500000 4.0930 3.6187 7.1788 0.0000 -10997.8140 1535.7303 0.0000 0.0000 1760.0037 -7687.1895 295.2247 -9447.1932 -7629.5715 297.5798 494.6129 555.5854 30567.3258 -26.0052 31.1480
TCL: Running FEP window   8: Lambda1 0.35   Lambda2 0.39999999999999997 [dLambda 0.04999999999999999]
TCL: Setting parameter firsttimestep to 0
TCL: Setting parameter alchLambda to 0.35
Info: NONBONDED TABLE R-SQUARED SPACING: 0.0625
Info: NONBONDED TABLE SIZE: 705 POINTS
TCL: Setting parameter alchLambda2 to 0.39999999999999997
Info: NONBONDED TABLE R-SQUARED SPACING: 0.0625
Info: NONBONDED TABLE SIZE: 705 POINTS
TCL: Running for 1500000 steps
ETITLE: TS BOND ANGLE DIHED IMPRP ELECT VDW BOUNDARY MISC KINETIC TOTAL TEMP POTENTIAL TOTALAVG TEMPAVG PRESSURE GPRESSURE VOLUME PRESSAVG GPRESSAVG
ENERGY: 0 4.0930 3.6187 7.1788 0.0000 -10997.8134 1535.5541 0.0000 0.0000 1759.1409 -7688.2279 295.0800 -9447.3688 -7688.2279 295.0800 483.7702 559.0770 30567.3258 483.7702 559.0770
ENERGY: 300000 5.0479 3.3139 1.6904 0.0000 -10765.8622 1426.3512 0.0000 0.0000 1795.7408 -7533.7180 301.2193 -9329.4588 -7614.5936 299.4633 -389.3352 -364.5984 31387.4702 -27.4735 23.5951
ENERGY: 600000 2.7576 2.8370 3.3976 0.0000 -10905.6746 1463.0174 0.0000 0.0000 1837.1995 -7596.4656 308.1736 -9433.6651 -7604.3796 300.5999 253.4510 195.8705 30388.0181 55.2560 95.6163
ENERGY: 900000 4.5246 2.2510 3.7189 0.0000 -10830.0962 1358.5068 0.0000 0.0000 1794.4139 -7666.6809 300.9967 -9461.0948 -7610.0529 300.0221 -1205.2803 -1068.0506 30956.9295 -130.2735 -76.8229
ENERGY: 1200000 1.0911 2.8612 1.9688 0.0000 -10998.1399 1556.2121 0.0000 0.0000 1769.7290 -7666.2777 296.8560 -9436.0067 -7611.8222 300.1716 689.8038 751.9394 30524.2516 -30.3848 25.9740
ENERGY: 1500000 1.9666 3.6089 1.5787 0.0000 -10943.6324 1505.2123 0.0000 0.0000 1794.0881 -7637.1779 300.9421 -9431.2660 -7623.4763 298.9060 141.1024 147.3338 31068.9470 -4.5257 52.5055
TCL: Running FEP window   9: Lambda1 0.39999999999999997 Lambda2 0.44999999999999996 [dLambda 0.04999999999999999]
TCL: Setting parameter firsttimestep to 0
TCL: Setting parameter alchLambda to 0.39999999999999997
Info: NONBONDED TABLE R-SQUARED SPACING: 0.0625
Info: NONBONDED TABLE SIZE: 705 POINTS
TCL: Setting parameter alchLambda2 to 0.44999999999999996
Info: NONBONDED TABLE R-SQUARED SPACING: 0.0625
Info: NONBONDED TABLE SIZE: 705 POINTS
TCL: Running for 1500000 steps
ETITLE: TS BOND ANGLE DIHED IMPRP ELECT VDW BOUNDARY MISC KINETIC TOTAL TEMP POTENTIAL TOTALAVG TEMPAVG PRESSURE GPRESSURE VOLUME PRESSAVG GPRESSAVG
ENERGY: 0 1.9666 3.6089 1.5787 0.0000 -10943.6321 1505.9920 0.0000 0.0000 1793.2100 -7637.2759 300.7948 -9430.4859 -7637.2759 300.7948 72.3405 154.9415 31068.9470 72.3405 154.9415
ENERGY: 300000 1.9199 4.6022 4.6061 0.0000 -10925.1138 1452.3202 0.0000 0.0000 1834.0708 -7627.5945 307.6488 -9461.6653 -7571.3415 305.1396 75.8279 126.5866 30255.5507 -22.5733 45.1859
ENERGY: 600000 1.9974 4.7328 3.9540 0.0000 -10863.0344 1465.4331 0.0000 0.0000 1767.2729 -7619.6442 296.4441 -9386.9171 -7573.3017 302.7527 2.5081 61.8664 31014.1864 -39.7303 41.9291
ENERGY: 900000 1.4457 3.0195 4.1214 0.0000 -10941.6679 1483.0007 0.0000 0.0000 1716.7275 -7733.3531 287.9655 -9450.0806 -7590.7977 301.6690 -181.0778 -138.7044 31158.1372 28.8213 104.2957
ENERGY: 1200000 0.8996 6.3077 6.2144 0.0000 -10921.8662 1586.2726 0.0000 0.0000 1776.4454 -7545.7264 297.9827 -9322.1718 -7596.0865 301.6914 1355.4628 1429.0596 30377.8358 119.3945 193.8938
ENERGY: 1500000 3.1052 3.4410 3.3089 0.0000 -10900.3171 1502.9213 0.0000 0.0000 1737.0916 -7650.4490 291.3814 -9387.5406 -7602.1164 301.1268 247.7575 243.2441 30412.6193 64.6957 135.8287
TCL: Running FEP window  10: Lambda1 0.44999999999999996 Lambda2 0.49999999999999994 [dLambda 0.04999999999999999]
TCL: Setting parameter firsttimestep to 0
TCL: Setting parameter alchLambda to 0.44999999999999996
Info: NONBONDED TABLE R-SQUARED SPACING: 0.0625
Info: NONBONDED TABLE SIZE: 705 POINTS
TCL: Setting parameter alchLambda2 to 0.49999999999999994
Info: NONBONDED TABLE R-SQUARED SPACING: 0.0625
Info: NONBONDED TABLE SIZE: 705 POINTS
TCL: Running for 1500000 steps
ETITLE: TS BOND ANGLE DIHED IMPRP ELECT VDW BOUNDARY MISC KINETIC TOTAL TEMP POTENTIAL TOTALAVG TEMPAVG PRESSURE GPRESSURE VOLUME PRESSAVG GPRESSAVG
ENERGY: 0 3.1052 3.4410 3.3089 0.0000 -10900.3177 1505.0921 0.0000 0.0000 1736.2182 -7649.1523 291.2349 -9385.3704 -7649.1523 291.2349 172.5155 260.4814 30412.6193 172.5155 260.4814
ENERGY: 300000 3.5977 7.8106 2.6190 0.0000 -10979.0198 1540.1019 0.0000 0.0000 1768.8209 -7656.0697 296.7037 -9424.8907 -7650.7598 296.8121 350.7557 431.7288 30820.9035 159.4962 213.6590
ENERGY: 600000 2.4402 3.7693 2.5998 0.0000 -10817.8479 1421.7599 0.0000 0.0000 1823.8004 -7563.4783 305.9260 -9387.2787 -7610.9381 302.0158 -165.9886 -155.3728 30798.7614 90.3707 133.9565
ENERGY: 900000 4.9659 4.8876 3.0089 0.0000 -10842.7605 1449.7538 0.0000 0.0000 1780.7433 -7599.4011 298.7036 -9380.1444 -7616.5695 302.2686 30.6449 104.9482 30426.4397 198.0541 245.7043
ENERGY: 1200000 2.3408 6.1713 4.2577 0.0000 -10782.8450 1411.0908 0.0000 0.0000 1863.1222 -7495.8621 312.5219 -9358.9843 -7608.6926 302.0996 -99.9440 11.8470 30654.0924 296.1836 351.2183
ENERGY: 1500000 1.6866 3.5554 2.7299 0.0000 -10758.2319 1355.4627 0.0000 0.0000 1823.7409 -7571.0563 305.9161 -9394.7972 -7600.1520 302.1090 -818.3019 -791.0931 30938.9019 201.1365 252.8982
TCL: Running FEP window  11: Lambda1 0.49999999999999994 Lambda2 0.5499999999999999 [dLambda 0.04999999999999999]
TCL: Setting parameter firsttimestep to 0
TCL: Setting parameter alchLambda to 0.49999999999999994
Info: NONBONDED TABLE R-SQUARED SPACING: 0.0625
Info: NONBONDED TABLE SIZE: 705 POINTS
TCL: Setting parameter alchLambda2 to 0.5499999999999999
Info: NONBONDED TABLE R-SQUARED SPACING: 0.0625
Info: NONBONDED TABLE SIZE: 705 POINTS
TCL: Running for 1500000 steps
ETITLE: TS BOND ANGLE DIHED IMPRP ELECT VDW BOUNDARY MISC KINETIC TOTAL TEMP POTENTIAL TOTALAVG TEMPAVG PRESSURE GPRESSURE VOLUME PRESSAVG GPRESSAVG
ENERGY: 0 1.6866 3.5554 2.7299 0.0000 -10758.2311 1354.9935 0.0000 0.0000 1822.8364 -7572.4292 305.7643 -9395.2656 -7572.4292 305.7643 -876.4924 -790.4993 30938.9019 -876.4924 -790.4993
ENERGY: 300000 2.4140 4.5203 3.3295 0.0000 -10962.1123 1554.3862 0.0000 0.0000 1850.2523 -7547.2100 310.3631 -9397.4624 -7590.4269 301.3062 831.5065 874.1086 30591.4159 -23.6178 51.0137
ENERGY: 600000 2.0872 4.3846 3.0712 0.0000 -11036.4860 1591.4695 0.0000 0.0000 1839.1913 -7596.2823 308.5077 -9435.4736 -7592.7141 301.9739 694.3547 801.9839 30993.7497 179.8253 230.8214
ENERGY: 900000 4.4681 3.5771 5.3837 0.0000 -10827.8107 1366.5130 0.0000 0.0000 1810.7028 -7637.1661 303.7290 -9447.8689 -7612.9431 301.8627 -1033.2183 -948.6973 30980.0642 -7.4432 49.0854
ENERGY: 1200000 2.5556 4.7070 8.8286 0.0000 -10779.5732 1392.0975 0.0000 0.0000 1795.2504 -7576.1341 301.1370 -9371.3845 -7604.2385 301.6008 -304.1197 -300.4868 31000.2285 -39.9095 11.7938
ENERGY: 1500000 2.7789 4.8140 5.5573 0.0000 -10905.7643 1497.3296 0.0000 0.0000 1847.6281 -7547.6564 309.9229 -9395.2844 -7595.9251 302.0181 531.6528 502.8291 30575.5177 36.0160 86.2954
TCL: Running FEP window  12: Lambda1 0.5499999999999999 Lambda2 0.6    [dLambda 0.050000000000000044]
TCL: Setting parameter firsttimestep to 0
TCL: Setting parameter alchLambda to 0.5499999999999999
Info: NONBONDED TABLE R-SQUARED SPACING: 0.0625
Info: NONBONDED TABLE SIZE: 705 POINTS
TCL: Setting parameter alchLambda2 to 0.6
Info: NONBONDED TABLE R-SQUARED SPACING: 0.0625
Info: NONBONDED TABLE SIZE: 705 POINTS
TCL: Running for 1500000 steps
ETITLE: TS BOND ANGLE DIHED IMPRP ELECT VDW BOUNDARY MISC KINETIC TOTAL TEMP POTENTIAL TOTALAVG TEMPAVG PRESSURE GPRESSURE VOLUME PRESSAVG GPRESSAVG
ENERGY: 0 2.7789 4.8140 5.5573 0.0000 -10905.9654 1497.0815 0.0000 0.0000 1846.7529 -7548.9806 309.7761 -9395.7335 -7548.9806 309.7761 421.0699 505.7315 30575.5177 421.0699 505.7315
ENERGY: 300000 2.6570 4.1631 4.5520 0.0000 -10934.8316 1513.8013 0.0000 0.0000 1809.3375 -7600.3207 303.5000 -9409.6582 -7604.9757 302.8068 403.3934 429.7572 30931.9760 293.2712 337.5133
ENERGY: 600000 0.7911 2.7634 6.9797 0.0000 -10897.5503 1421.8835 0.0000 0.0000 1799.5504 -7665.5822 301.8583 -9465.1326 -7636.6498 301.8429 -178.6022 -184.6974 30367.0669 39.7860 73.2339
ENERGY: 900000 2.2073 3.3175 1.0616 0.0000 -10864.7732 1462.5560 0.0000 0.0000 1769.2713 -7626.3595 296.7793 -9395.6308 -7627.9297 301.7874 20.8804 141.9205 30587.7498 -48.6636 0.5344
ENERGY: 1200000 1.8358 2.9813 1.4119 0.0000 -10959.3915 1488.2122 0.0000 0.0000 1721.7428 -7743.2076 288.8068 -9464.9503 -7636.6330 299.8344 -221.8780 -182.5440 31263.6739 -91.2479 -38.7829
ENERGY: 1500000 1.9096 2.1041 1.9244 0.0000 -10851.2545 1471.9305 0.0000 0.0000 1812.3577 -7561.0281 304.0066 -9373.3858 -7633.0915 300.4274 197.9358 252.7106 30745.3537 -56.7142 -2.7137
TCL: Running FEP window  13: Lambda1 0.6    Lambda2 0.65   [dLambda 0.050000000000000044]
TCL: Setting parameter firsttimestep to 0
TCL: Setting parameter alchLambda to 0.6
Info: NONBONDED TABLE R-SQUARED SPACING: 0.0625
Info: NONBONDED TABLE SIZE: 705 POINTS
TCL: Setting parameter alchLambda2 to 0.65
Info: NONBONDED TABLE R-SQUARED SPACING: 0.0625
Info: NONBONDED TABLE SIZE: 705 POINTS
TCL: Running for 1500000 steps
ETITLE: TS BOND ANGLE DIHED IMPRP ELECT VDW BOUNDARY MISC KINETIC TOTAL TEMP POTENTIAL TOTALAVG TEMPAVG PRESSURE GPRESSURE VOLUME PRESSAVG GPRESSAVG
ENERGY: 0 1.9096 2.1041 1.9244 0.0000 -10851.6380 1471.9952 0.0000 0.0000 1811.4651 -7562.2396 303.8569 -9373.7046 -7562.2396 303.8569 195.2558 261.5917 30745.3537 195.2558 261.5917
ENERGY: 300000 1.9820 3.7460 1.2290 0.0000 -10840.4703 1468.0836 0.0000 0.0000 1834.8095 -7530.6201 307.7727 -9365.4296 -7605.6738 299.9871 192.8731 210.8252 30983.0510 231.1605 249.3787
ENERGY: 600000 2.2184 3.4719 1.7453 0.0000 -10824.9780 1457.3290 0.0000 0.0000 1775.7678 -7584.4456 297.8690 -9360.2134 -7586.5150 300.4471 -48.3382 -25.0812 30974.3584 89.3038 102.8674
ENERGY: 900000 1.1910 4.2067 3.3360 0.0000 -10861.6202 1459.0827 0.0000 0.0000 1877.3668 -7516.4370 314.9113 -9393.8038 -7584.0898 302.0000 226.6723 288.8182 30682.2975 159.0414 173.7239
ENERGY: 1200000 1.6890 2.1000 2.9546 0.0000 -10845.8624 1450.6875 0.0000 0.0000 1834.3082 -7554.1230 307.6886 -9388.4312 -7582.9760 302.1495 -128.7087 -115.5047 31212.8551 59.4712 80.9836
ENERGY: 1500000 1.6916 5.8191 6.0479 0.0000 -10804.6114 1397.9112 0.0000 0.0000 1794.7352 -7598.4064 301.0506 -9393.1416 -7594.7727 301.1739 -548.3235 -456.2480 31050.9682 79.2842 106.1797
TCL: Running FEP window  14: Lambda1 0.65   Lambda2 0.7000000000000001 [dLambda 0.050000000000000044]
TCL: Setting parameter firsttimestep to 0
TCL: Setting parameter alchLambda to 0.65
Info: NONBONDED TABLE R-SQUARED SPACING: 0.0625
Info: NONBONDED TABLE SIZE: 705 POINTS
TCL: Setting parameter alchLambda2 to 0.7000000000000001
Info: NONBONDED TABLE R-SQUARED SPACING: 0.0625
Info: NONBONDED TABLE SIZE: 705 POINTS
TCL: Running for 1500000 steps
ETITLE: TS BOND ANGLE DIHED IMPRP ELECT VDW BOUNDARY MISC KINETIC TOTAL TEMP POTENTIAL TOTALAVG TEMPAVG PRESSURE GPRESSURE VOLUME PRESSAVG GPRESSAVG
ENERGY: 0 1.6916 5.8191 6.0479 0.0000 -10804.8168 1397.8167 0.0000 0.0000 1793.8223 -7599.6192 300.8975 -9393.4416 -7599.6192 300.8975 -527.7202 -451.2605 31050.9682 -527.7202 -451.2605
ENERGY: 300000 1.0754 3.7687 4.0177 0.0000 -10952.6920 1501.3831 0.0000 0.0000 1804.2177 -7638.2294 302.6412 -9442.4471 -7591.4151 301.1429 183.4206 200.0038 30875.5072 -221.1884 -147.0303
ENERGY: 600000 1.1764 3.5873 2.1796 0.0000 -10893.8590 1524.8916 0.0000 0.0000 1719.1744 -7642.8497 288.3760 -9362.0241 -7621.2622 298.4619 593.6977 609.1836 30746.4109 59.7632 111.2002
ENERGY: 900000 2.7229 6.0262 2.3812 0.0000 -11047.1147 1539.0071 0.0000 0.0000 1775.3580 -7721.6193 297.8003 -9496.9773 -7620.8301 298.6678 402.1971 456.5688 30447.4995 63.9820 121.3894
ENERGY: 1200000 2.7779 2.0050 1.6716 0.0000 -10844.5924 1353.0767 0.0000 0.0000 1794.1534 -7690.9078 300.9530 -9485.0612 -7619.9351 299.0122 -1108.9494 -1016.0414 30633.8896 -68.8502 -5.8949
ENERGY: 1500000 4.9809 3.0687 4.7054 0.0000 -10937.3572 1460.9687 0.0000 0.0000 1771.2879 -7692.3457 297.1175 -9463.6335 -7627.3666 298.0591 6.7985 95.3797 30573.5678 -70.8921 -3.3512
TCL: Running FEP window  15: Lambda1 0.7000000000000001 Lambda2 0.7500000000000001 [dLambda 0.050000000000000044]
TCL: Setting parameter firsttimestep to 0
TCL: Setting parameter alchLambda to 0.7000000000000001
Info: NONBONDED TABLE R-SQUARED SPACING: 0.0625
Info: NONBONDED TABLE SIZE: 705 POINTS
TCL: Setting parameter alchLambda2 to 0.7500000000000001
Info: NONBONDED TABLE R-SQUARED SPACING: 0.0625
Info: NONBONDED TABLE SIZE: 705 POINTS
TCL: Running for 1500000 steps
ETITLE: TS BOND ANGLE DIHED IMPRP ELECT VDW BOUNDARY MISC KINETIC TOTAL TEMP POTENTIAL TOTALAVG TEMPAVG PRESSURE GPRESSURE VOLUME PRESSAVG GPRESSAVG
ENERGY: 0 4.9809 3.0687 4.7054 0.0000 -10937.8865 1461.4715 0.0000 0.0000 1770.3837 -7693.2762 296.9659 -9463.6600 -7693.2762 296.9659 22.6231 107.9297 30573.5678 22.6231 107.9297
ENERGY: 300000 0.8762 4.3542 5.4320 0.0000 -10989.0017 1557.6132 0.0000 0.0000 1822.2187 -7598.5075 305.6607 -9420.7261 -7639.3112 299.6612 431.5127 578.7845 31016.5652 115.1634 206.3578
ENERGY: 600000 3.1402 3.0713 2.4682 0.0000 -10880.9700 1480.8446 0.0000 0.0000 1802.9936 -7588.4522 302.4359 -9391.4458 -7590.5009 302.8517 130.1584 264.9685 30764.0098 -107.0630 -3.9193
ENERGY: 900000 4.4969 1.6255 6.4281 0.0000 -10710.0884 1411.6873 0.0000 0.0000 1780.1357 -7505.7149 298.6017 -9285.8506 -7594.8452 301.5173 39.2702 134.5346 31257.0958 -93.7620 -3.8138
ENERGY: 1200000 2.9472 5.5197 1.2283 0.0000 -10864.1293 1435.9129 0.0000 0.0000 1759.5748 -7658.9464 295.1528 -9418.5211 -7601.4966 300.5321 -361.2828 -312.6312 30794.5791 -98.8996 -10.5374
ENERGY: 1500000 4.2494 5.5038 4.4378 0.0000 -10923.8505 1443.9064 0.0000 0.0000 1764.8745 -7700.8786 296.0418 -9465.7531 -7602.6174 300.3138 -615.9506 -543.0931 30848.3741 -107.2058 -21.8141
TCL: Running FEP window  16: Lambda1 0.7500000000000001 Lambda2 0.8000000000000002 [dLambda 0.050000000000000044]
TCL: Setting parameter firsttimestep to 0
TCL: Setting parameter alchLambda to 0.7500000000000001
Info: NONBONDED TABLE R-SQUARED SPACING: 0.0625
Info: NONBONDED TABLE SIZE: 705 POINTS
TCL: Setting parameter alchLambda2 to 0.8000000000000002
Info: NONBONDED TABLE R-SQUARED SPACING: 0.0625
Info: NONBONDED TABLE SIZE: 705 POINTS
TCL: Running for 1500000 steps
ETITLE: TS BOND ANGLE DIHED IMPRP ELECT VDW BOUNDARY MISC KINETIC TOTAL TEMP POTENTIAL TOTALAVG TEMPAVG PRESSURE GPRESSURE VOLUME PRESSAVG GPRESSAVG
ENERGY: 0 4.2494 5.5038 4.4378 0.0000 -10925.4605 1444.7735 0.0000 0.0000 1763.9537 -7702.5423 295.8873 -9466.4960 -7702.5423 295.8873 -617.2618 -529.3832 30848.3741 -617.2618 -529.3832
ENERGY: 300000 5.0972 3.6977 5.7633 0.0000 -10930.9188 1486.2207 0.0000 0.0000 1773.0980 -7657.0419 297.4212 -9430.1399 -7676.4917 293.8532 -100.2099 -24.4024 31064.0258 -375.6547 -308.2451
ENERGY: 600000 2.8476 2.4687 4.9841 0.0000 -10868.4009 1406.0102 0.0000 0.0000 1757.9843 -7694.1061 294.8860 -9452.0904 -7664.5348 295.8431 -702.5118 -660.1491 30876.2953 -352.4374 -298.9545
ENERGY: 900000 1.2562 5.0017 6.9921 0.0000 -11015.8887 1547.3028 0.0000 0.0000 1808.8295 -7646.5065 303.4148 -9455.3360 -7661.2789 297.0199 466.5213 533.6781 31227.8404 -173.4045 -115.6144
ENERGY: 1200000 3.3211 2.8568 5.2274 0.0000 -10853.2856 1461.7157 0.0000 0.0000 1793.6869 -7586.4778 300.8748 -9380.1647 -7644.6697 298.6123 -17.4793 85.4438 30977.4615 -160.9164 -91.4028
ENERGY: 1500000 1.5330 3.8388 2.3005 0.0000 -10956.5920 1525.2974 0.0000 0.0000 1835.0632 -7588.5591 307.8153 -9423.6223 -7646.0095 298.6729 531.6182 571.9746 30846.6474 -81.8815 -13.5954
TCL: Running FEP window  17: Lambda1 0.8000000000000002 Lambda2 0.8500000000000002 [dLambda 0.050000000000000044]
TCL: Setting parameter firsttimestep to 0
TCL: Setting parameter alchLambda to 0.8000000000000002
Info: NONBONDED TABLE R-SQUARED SPACING: 0.0625
Info: NONBONDED TABLE SIZE: 705 POINTS
TCL: Setting parameter alchLambda2 to 0.8500000000000002
Info: NONBONDED TABLE R-SQUARED SPACING: 0.0625
Info: NONBONDED TABLE SIZE: 705 POINTS
TCL: Running for 1500000 steps
ETITLE: TS BOND ANGLE DIHED IMPRP ELECT VDW BOUNDARY MISC KINETIC TOTAL TEMP POTENTIAL TOTALAVG TEMPAVG PRESSURE GPRESSURE VOLUME PRESSAVG GPRESSAVG
ENERGY: 0 1.5330 3.8388 2.3005 0.0000 -10957.9080 1525.8616 0.0000 0.0000 1834.2198 -7590.1543 307.6738 -9424.3741 -7590.1543 307.6738 501.6160 585.0231 30846.6474 501.6160 585.0231
ENERGY: 300000 1.9670 3.9325 2.4982 0.0000 -10925.5876 1461.2817 0.0000 0.0000 1749.3392 -7706.5690 293.4358 -9455.9083 -7635.0408 302.8863 12.0182 2.8724 30818.2567 -47.7371 -12.2716
ENERGY: 600000 1.8956 2.5502 3.8003 0.0000 -10969.7805 1494.3418 0.0000 0.0000 1781.2619 -7685.9309 298.7906 -9467.1927 -7620.5270 300.5525 87.3412 194.5988 30674.4879 28.4989 74.3340
ENERGY: 900000 1.6117 3.6137 2.5854 0.0000 -10841.0053 1441.1914 0.0000 0.0000 1827.8668 -7564.1363 306.6081 -9392.0031 -7618.9560 301.6338 -5.1875 -43.5464 30872.2513 86.8977 130.7085
ENERGY: 1200000 4.6475 1.7738 7.6885 0.0000 -10875.0610 1488.7968 0.0000 0.0000 1795.7880 -7576.3664 301.2272 -9372.1544 -7615.3586 299.9730 203.9920 231.4014 30895.0040 -4.7929 39.8828
ENERGY: 1500000 4.8790 3.4422 5.4494 0.0000 -10856.7800 1386.7575 0.0000 0.0000 1777.5960 -7678.6558 298.1757 -9456.2519 -7622.3775 299.8162 -746.7280 -663.2051 30495.7892 6.4693 51.0343
TCL: Running FEP window  18: Lambda1 0.8500000000000002 Lambda2 0.9000000000000002 [dLambda 0.050000000000000044]
TCL: Setting parameter firsttimestep to 0
TCL: Setting parameter alchLambda to 0.8500000000000002
Info: NONBONDED TABLE R-SQUARED SPACING: 0.0625
Info: NONBONDED TABLE SIZE: 705 POINTS
TCL: Setting parameter alchLambda2 to 0.9000000000000002
Info: NONBONDED TABLE R-SQUARED SPACING: 0.0625
Info: NONBONDED TABLE SIZE: 705 POINTS
TCL: Running for 1500000 steps
ETITLE: TS BOND ANGLE DIHED IMPRP ELECT VDW BOUNDARY MISC KINETIC TOTAL TEMP POTENTIAL TOTALAVG TEMPAVG PRESSURE GPRESSURE VOLUME PRESSAVG GPRESSAVG
ENERGY: 0 4.8790 3.4422 5.4494 0.0000 -10857.7974 1386.4724 0.0000 0.0000 1776.6929 -7680.8614 298.0242 -9457.5544 -7680.8614 298.0242 -752.4363 -660.0421 30495.7892 -752.4363 -660.0421
ENERGY: 300000 2.3553 4.4205 5.3088 0.0000 -10835.4446 1411.4281 0.0000 0.0000 1799.9570 -7611.9750 301.9265 -9411.9320 -7613.8964 299.3165 -382.6619 -346.3539 30982.7850 -246.1918 -163.3155
ENERGY: 600000 0.9720 4.2960 3.7400 0.0000 -10998.6234 1524.9115 0.0000 0.0000 1751.1265 -7713.5773 293.7357 -9464.7039 -7612.9191 299.4580 520.1074 577.8745 30599.2071 -160.7197 -93.7673
ENERGY: 900000 2.0207 2.9909 7.0474 0.0000 -10858.5601 1469.3885 0.0000 0.0000 1827.8503 -7549.2624 306.6054 -9377.1127 -7608.5294 298.9779 91.6798 172.7750 31133.5375 -155.5438 -99.3650
ENERGY: 1200000 1.5998 3.2271 3.6741 0.0000 -10881.0552 1430.7784 0.0000 0.0000 1806.6539 -7635.1219 303.0499 -9441.7758 -7627.8401 298.4441 -528.7307 -469.0750 31232.6529 -122.6754 -71.2562
ENERGY: 1500000 2.4022 3.2766 5.8231 0.0000 -10974.3569 1460.4909 0.0000 0.0000 1824.0629 -7678.3012 305.9701 -9502.3641 -7628.4163 299.6964 -445.8682 -390.6693 31150.8761 -170.7844 -126.2484
TCL: Running FEP window  19: Lambda1 0.9000000000000002 Lambda2 0.9500000000000003 [dLambda 0.050000000000000044]
TCL: Setting parameter firsttimestep to 0
TCL: Setting parameter alchLambda to 0.9000000000000002
Info: NONBONDED TABLE R-SQUARED SPACING: 0.0625
Info: NONBONDED TABLE SIZE: 705 POINTS
TCL: Setting parameter alchLambda2 to 0.9500000000000003
Info: NONBONDED TABLE R-SQUARED SPACING: 0.0625
Info: NONBONDED TABLE SIZE: 705 POINTS
TCL: Running for 1500000 steps
ETITLE: TS BOND ANGLE DIHED IMPRP ELECT VDW BOUNDARY MISC KINETIC TOTAL TEMP POTENTIAL TOTALAVG TEMPAVG PRESSURE GPRESSURE VOLUME PRESSAVG GPRESSAVG
ENERGY: 0 2.4022 3.2766 5.8231 0.0000 -10976.3306 1460.9906 0.0000 0.0000 1823.1996 -7680.6384 305.8253 -9503.8381 -7680.6384 305.8253 -445.2620 -380.0972 31150.8761 -445.2620 -380.0972
ENERGY: 300000 1.9981 4.3593 3.2532 0.0000 -10826.3918 1436.8893 0.0000 0.0000 1746.1158 -7633.7761 292.8951 -9379.8919 -7680.3279 301.0867 -344.8552 -257.6938 31266.2382 115.7985 183.7413
ENERGY: 600000 1.6813 2.1476 3.5853 0.0000 -10822.6395 1440.1910 0.0000 0.0000 1836.4242 -7538.6102 308.0436 -9375.0344 -7656.3823 300.7106 192.7651 231.9517 30573.7237 166.4996 241.8669
ENERGY: 900000 3.0681 4.3425 3.7851 0.0000 -10909.7466 1510.6684 0.0000 0.0000 1806.2529 -7581.6294 302.9826 -9387.8824 -7631.5758 301.1368 298.0939 352.0748 31028.8754 131.5293 205.5173
ENERGY: 1200000 2.8887 2.2351 3.0944 0.0000 -10761.4944 1355.2949 0.0000 0.0000 1799.4570 -7598.5242 301.8427 -9397.9812 -7612.4780 301.6234 -939.2801 -908.4232 31318.8982 -64.1168 0.3767
ENERGY: 1500000 5.9457 4.0572 2.4581 0.0000 -10955.0865 1498.6384 0.0000 0.0000 1821.4987 -7622.4883 305.5400 -9443.9870 -7615.2556 301.4091 205.0403 131.7939 30891.2985 -89.7454 -43.4188
TCL: Running FEP window  20: Lambda1 0.9500000000000003 Lambda2 1.0    [dLambda 0.04999999999999971]
TCL: Setting parameter firsttimestep to 0
TCL: Setting parameter alchLambda to 0.9500000000000003
Info: NONBONDED TABLE R-SQUARED SPACING: 0.0625
Info: NONBONDED TABLE SIZE: 705 POINTS
TCL: Setting parameter alchLambda2 to 1.0
Info: NONBONDED TABLE R-SQUARED SPACING: 0.0625
Info: NONBONDED TABLE SIZE: 705 POINTS
TCL: Running for 1500000 steps
ETITLE: TS BOND ANGLE DIHED IMPRP ELECT VDW BOUNDARY MISC KINETIC TOTAL TEMP POTENTIAL TOTALAVG TEMPAVG PRESSURE GPRESSURE VOLUME PRESSAVG GPRESSAVG
ENERGY: 0 5.9457 4.0572 2.4581 0.0000 -10956.2049 1499.1299 0.0000 0.0000 1820.6025 -7624.0114 305.3896 -9444.6139 -7624.0114 305.3896 70.4703 147.1754 30891.2985 70.4703 147.1754
ENERGY: 300000 3.2459 1.5034 3.4817 0.0000 -10987.2330 1528.0227 0.0000 0.0000 1790.3168 -7660.6625 300.3095 -9450.9793 -7601.7050 300.3330 674.7100 760.2824 30258.9464 199.0702 263.1012
ENERGY: 600000 3.7969 4.6586 1.9869 0.0000 -10865.2825 1423.4779 0.0000 0.0000 1768.9008 -7662.4614 296.7171 -9431.3622 -7619.6830 300.3745 -485.4159 -372.3906 30967.7132 -83.6809 -14.4750
ENERGY: 900000 2.9500 4.2890 2.7834 0.0000 -10898.6077 1400.6643 0.0000 0.0000 1792.0069 -7695.9142 300.5930 -9487.9211 -7637.8385 300.1507 -811.6521 -748.0385 31370.3789 -226.3975 -161.5659
ENERGY: 1200000 1.8517 5.4728 5.2032 0.0000 -10897.7394 1488.6028 0.0000 0.0000 1802.8421 -7593.7669 302.4105 -9396.6090 -7628.5180 300.4690 408.6110 408.9161 30617.4568 -174.8702 -115.8511
ENERGY: 1500000 1.1899 5.5295 3.2611 0.0000 -11040.5829 1595.7353 0.0000 0.0000 1758.8544 -7676.0127 295.0319 -9434.8670 -7632.0535 299.8323 911.2436 1017.1206 30873.5681 -110.8528 -42.3639
TCL: Exiting due to exit command.
