Info: SIMULATION PARAMETERS:
Info: TIMESTEP               2
Info: NUMBER OF STEPS        0
Info: STEPS PER CYCLE        10
Info: PERIODIC CELL BASIS 1  30.9112 0 0
Info: PERIODIC CELL BASIS 2  0 31.2867 0
Info: PERIODIC CELL BASIS 3  0 0 31.4926
Info: PERIODIC CELL CENTER   0 0 0
Info: WRAPPING WATERS AROUND PERIODIC BOUNDARIES ON OUTPUT.
Info: WRAPPING ALL CLUSTERS AROUND PERIODIC BOUNDARIES ON OUTPUT.
Info: FIRST LDB TIMESTEP     50
Info: LAST LDB TIMESTEP     -1
Info: HOM BACKGROUND SCALING 1
Info: PME BACKGROUND SCALING 1
Info: MIN ATOMS PER PATCH    40
Info: EMPTY PATCH LOAD       40 ATOMS
Info: VELOCITY FILE          mobley_9794857_equil.vel
Info: CENTER OF MASS MOVING INITIALLY? NO
Info: DIELECTRIC             1
Info: EXCLUDE                SCALED ONE-FOUR
Info: 1-4 ELECTROSTATICS SCALED BY 0.833333
Info: MODIFIED 1-4 VDW PARAMETERS WILL BE USED
Info: DCD FILENAME           mobley_9794857_prod.dcd
Info: DCD FREQUENCY          100000
Info: DCD FIRST STEP         100000
Info: DCD FILE WILL CONTAIN UNIT CELL DATA
Info: XST FILENAME           mobley_9794857_prod.xst
Info: XST FREQUENCY          100000
Info: NO VELOCITY DCD OUTPUT
Info: NO FORCE DCD OUTPUT
Info: OUTPUT FILENAME        mobley_9794857_prod
Info: BINARY OUTPUT FILES WILL BE USED
Info: RESTART FILENAME       mobley_9794857_prod.restart
Info: RESTART FREQUENCY      100000
Info: BINARY RESTART FILES WILL BE USED
Info: CUTOFF                 9
Info: PAIRLIST DISTANCE      11
Info: PAIRLIST SHRINK RATE   0.01
Info: PAIRLIST GROW RATE     0.01
Info: PAIRLIST TRIGGER       0.3
Info: PAIRLISTS PER CYCLE    2
Info: PAIRLISTS ENABLED
Info: MARGIN                 2
Info: HYDROGEN GROUP CUTOFF  2.5
Info: PATCH DIMENSION        15.5
Info: ENERGY OUTPUT STEPS    100000
Info: ENERGY EVALUATION STEPS    100000
Info: OUTPUT ENERGY PRECISION 4
Info: CROSSTERM ENERGY INCLUDED IN DIHEDRAL
Info: TIMING OUTPUT STEPS    1000000
Info: PRESSURE OUTPUT STEPS  100000
Info: ALCHEMICAL FEP ON
Info: FEP CURRENT LAMBDA VALUE     0
Info: FEP COMPARISON LAMBDA VALUE  0.05
Info: FEP INTRA-ALCHEMICAL NON-BONDED INTERACTIONS WILL BE RETAINED
Info: FEP INTRA-ALCHEMICAL BONDED INTERACTIONS WILL BE RETAINED
Info: FEP VDW SHIFTING COEFFICIENT 5
Info: FEP ELEC. ACTIVE FOR ANNIHILATED PARTICLES BETWEEN LAMBDA = 0 AND LAMBDA = 0.5
Info: FEP ELEC. ACTIVE FOR EXNIHILATED PARTICLES BETWEEN LAMBDA = 0.5 AND LAMBDA = 1
Info: FEP VDW ACTIVE FOR ANNIHILATED PARTICLES BETWEEN LAMBDA = 0 AND LAMBDA = 1
Info: FEP VDW ACTIVE FOR EXNIHILATED PARTICLES BETWEEN LAMBDA = 0 AND LAMBDA = 1
Info: FEP BOND ACTIVE FOR ANNIHILATED PARTICLES BETWEEN LAMBDA = 1 AND LAMBDA = 1
Info: FEP BOND ACTIVE FOR EXNIHILATED PARTICLES BETWEEN LAMBDA = 0 AND LAMBDA = 0
Info: LANGEVIN DYNAMICS ACTIVE
Info: LANGEVIN TEMPERATURE   300
Info: LANGEVIN USING BBK INTEGRATOR
Info: LANGEVIN DAMPING COEFFICIENT IS 1 INVERSE PS
Info: LANGEVIN DYNAMICS APPLIED TO HYDROGENS
Info: LANGEVIN PISTON PRESSURE CONTROL ACTIVE
Info:        TARGET PRESSURE IS 1.01325 BAR
Info:     OSCILLATION PERIOD IS 50 FS
Info:             DECAY TIME IS 25 FS
Info:     PISTON TEMPERATURE IS 300 K
Info:       PRESSURE CONTROL IS GROUP-BASED
Info:    INITIAL STRAIN RATE IS 0.000149555 0.000149555 0.000149555
Info:       CELL FLUCTUATION IS ISOTROPIC
Info: PARTICLE MESH EWALD (PME) ACTIVE
Info: PME TOLERANCE               1e-06
Info: PME EWALD COEFFICIENT       0.348832
Info: PME INTERPOLATION ORDER     4
Info: PME GRID DIMENSIONS         32 32 32
Info: PME MAXIMUM GRID SPACING    1
Info: PME CALCULATION WILL BE PERFORMED ON GPU
Info: FULL ELECTROSTATIC EVALUATION FREQUENCY      2
Info: USING VERLET I (r-RESPA) MTS SCHEME.
Info: C1 SPLITTING OF LONG RANGE ELECTROSTATICS
Info: PLACING ATOMS IN PATCHES BY HYDROGEN GROUPS
Info: RIGID BONDS TO HYDROGEN : ALL
Info:         ERROR TOLERANCE : 1e-08
Info:          MAX ITERATIONS : 100
Info: RIGID WATER USING SETTLE ALGORITHM
Info: RANDOM NUMBER SEED     1743603011
Info: USE HYDROGEN BONDS?    NO
Info: Using AMBER format force field!
Info: AMBER PARM FILE        mobley_9794857.prmtop
Info: COORDINATE PDB         mobley_9794857.pdb
Info: Exclusions will be read from PARM file!
Info: SCNB (VDW SCALING)     2
Info: USING ARITHMETIC MEAN TO COMBINE L-J SIGMA PARAMETERS
Info: BINARY COORDINATES     mobley_9794857_equil.coor
Info: SUMMARY OF PARAMETERS:
Info: 6 BONDS
Info: 7 ANGLES
Info:   7 HARMONIC
Info:   0 COSINE-BASED
Info: 6 DIHEDRAL
Info: 0 IMPROPER
Info: 0 CROSSTERM
Info: 0 VDW
Info: 21 VDW_PAIRS
Info: 0 NBTHOLE_PAIRS
Info: To read alchdata from file: mobley_9794857.pdb
Info: To read alchflag data from column: 5
Info: STRUCTURE SUMMARY:
Info: 2952 ATOMS
Info: 2951 BONDS
Info: 31 ANGLES
Info: 45 DIHEDRALS
Info: 0 IMPROPERS
Info: 0 CROSSTERMS
Info: 3015 EXCLUSIONS
Info: 2946 RIGID BONDS
Info: ALCH: 0 ATOMS TO DISAPPEAR IN FINAL STATE
Info: ALCH: 18 ATOMS TO APPEAR IN FINAL STATE
Info: 5910 DEGREES OF FREEDOM
Info: 984 HYDROGEN GROUPS
Info: 4 ATOMS IN LARGEST HYDROGEN GROUP
Info: 984 MIGRATION GROUPS
Info: 4 ATOMS IN LARGEST MIGRATION GROUP
Info: TOTAL MASS = 17707.8 amu
Info: TOTAL CHARGE = 0.000499986 e
Info: MASS DENSITY = 0.965469 g/cm^3
Info: ATOM DENSITY = 0.0969239 atoms/A^3
Info: ADDED 0 IMPLICIT EXCLUSIONS
Info: NONBONDED TABLE R-SQUARED SPACING: 0.0625
Info: NONBONDED TABLE SIZE: 705 POINTS
Info: REMOVING COM VELOCITY -0.192994 -0.0746749 -0.0726866
Info: Use 3D box decompostion in PME FFT.
Info: Updated CUDA force table with 4096 elements.
Info: Updated CUDA LJ table with 6 x 6 elements.
Info: Found 21 unique exclusion lists needing 52 bytes
TCL: Running for 1500000 steps
ETITLE: TS BOND ANGLE DIHED IMPRP ELECT VDW BOUNDARY MISC KINETIC TOTAL TEMP POTENTIAL TOTALAVG TEMPAVG PRESSURE GPRESSURE VOLUME PRESSAVG GPRESSAVG
ENERGY: 0 5.5102 6.3487 3.8430 0.0000 -10714.8050 1460.0942 0.0000 0.0000 1749.2275 -7489.7814 297.8854 -9239.0090 -7489.7814 297.8854 -144.5208 -56.2825 30456.8797 -144.5208 -56.2825
ENERGY: 300000 3.0821 8.3202 3.5149 0.0000 -10698.7866 1423.3467 0.0000 0.0000 1761.9867 -7498.5361 300.0582 -9260.5228 -7465.4769 299.6293 -326.0286 -200.1934 30116.9537 -211.7231 -112.1617
ENERGY: 600000 3.8130 9.8514 3.8392 0.0000 -10711.4514 1481.8180 0.0000 0.0000 1745.3042 -7466.8255 297.2173 -9212.1297 -7486.4858 299.2607 465.1679 474.2898 29802.8539 41.6930 137.9677
ENERGY: 900000 0.5433 5.8367 4.2328 0.0000 -10643.6736 1376.9836 0.0000 0.0000 1718.1855 -7537.8916 292.5991 -9256.0771 -7489.8232 298.8483 -351.9891 -263.9003 29753.8162 -41.1108 44.1269
ENERGY: 1200000 2.5322 11.2875 4.3887 0.0000 -10940.6272 1563.4767 0.0000 0.0000 1766.6215 -7592.3207 300.8475 -9358.9422 -7500.2088 298.6663 904.7657 991.3444 29503.6471 40.5218 122.2877
ENERGY: 1500000 1.6207 7.7287 3.8259 0.0000 -10943.0037 1675.5035 0.0000 0.0000 1773.3757 -7480.9492 301.9977 -9254.3248 -7498.8120 298.6813 1573.3336 1706.7227 30152.4012 173.7271 255.6950
TCL: Running FEP window   2: Lambda1 0.05   Lambda2 0.1    [dLambda 0.05  ]
TCL: Setting parameter firsttimestep to 0
TCL: Setting parameter alchLambda to 0.05
Info: NONBONDED TABLE R-SQUARED SPACING: 0.0625
Info: NONBONDED TABLE SIZE: 705 POINTS
TCL: Setting parameter alchLambda2 to 0.1
Info: NONBONDED TABLE R-SQUARED SPACING: 0.0625
Info: NONBONDED TABLE SIZE: 705 POINTS
TCL: Running for 1500000 steps
ETITLE: TS BOND ANGLE DIHED IMPRP ELECT VDW BOUNDARY MISC KINETIC TOTAL TEMP POTENTIAL TOTALAVG TEMPAVG PRESSURE GPRESSURE VOLUME PRESSAVG GPRESSAVG
ENERGY: 0 1.6207 7.7287 3.8259 0.0000 -10943.0038 1678.1664 0.0000 0.0000 1772.4920 -7479.1701 301.8472 -9251.6621 -7479.1701 301.8472 1615.0498 1710.6893 30152.4012 1615.0498 1710.6893
ENERGY: 300000 1.8714 12.2284 3.0498 0.0000 -10682.8858 1429.5778 0.0000 0.0000 1777.1118 -7459.0465 302.6340 -9236.1584 -7460.0053 303.7737 -206.6558 -215.9570 30478.3462 422.0585 463.2763
ENERGY: 600000 1.1307 8.7379 3.8450 0.0000 -10729.5484 1484.1661 0.0000 0.0000 1789.0522 -7442.6165 304.6674 -9231.6688 -7477.1512 303.9078 354.7626 427.7458 30250.7826 164.6806 218.1281
ENERGY: 900000 1.6898 7.8274 4.4699 0.0000 -10649.1599 1406.2963 0.0000 0.0000 1735.7908 -7493.0858 295.5972 -9228.8766 -7470.2024 302.3013 -193.0028 -190.6920 30296.3423 99.2617 152.1361
ENERGY: 1200000 0.6771 7.6863 3.7992 0.0000 -10699.9813 1418.7241 0.0000 0.0000 1778.0512 -7491.0435 302.7939 -9269.0946 -7470.5212 301.5838 -330.3349 -243.8816 30244.6079 42.0829 103.5811
ENERGY: 1500000 2.0246 9.9252 3.1265 0.0000 -10671.0753 1432.9083 0.0000 0.0000 1726.2849 -7496.8058 293.9784 -9223.0907 -7472.1219 301.2046 -98.0523 -112.1445 30441.6517 4.6794 59.1497
TCL: Running FEP window   3: Lambda1 0.1    Lambda2 0.15000000000000002 [dLambda 0.05000000000000002]
TCL: Setting parameter firsttimestep to 0
TCL: Setting parameter alchLambda to 0.1
Info: NONBONDED TABLE R-SQUARED SPACING: 0.0625
Info: NONBONDED TABLE SIZE: 705 POINTS
TCL: Setting parameter alchLambda2 to 0.15000000000000002
Info: NONBONDED TABLE R-SQUARED SPACING: 0.0625
Info: NONBONDED TABLE SIZE: 705 POINTS
TCL: Running for 1500000 steps
ETITLE: TS BOND ANGLE DIHED IMPRP ELECT VDW BOUNDARY MISC KINETIC TOTAL TEMP POTENTIAL TOTALAVG TEMPAVG PRESSURE GPRESSURE VOLUME PRESSAVG GPRESSAVG
ENERGY: 0 2.0246 9.9252 3.1265 0.0000 -10671.0772 1435.2640 0.0000 0.0000 1725.4043 -7495.3326 293.8284 -9220.7369 -7495.3326 293.8284 -189.5420 -102.5453 30441.6517 -189.5420 -102.5453
ENERGY: 300000 1.1112 5.5885 3.5964 0.0000 -10663.8363 1364.8011 0.0000 0.0000 1778.9851 -7509.7539 302.9530 -9288.7390 -7503.4410 297.0903 -1071.2512 -975.2236 30739.7265 -310.1865 -225.1687
ENERGY: 600000 1.3036 8.6796 3.8197 0.0000 -10706.2782 1420.9554 0.0000 0.0000 1773.3595 -7498.1604 301.9950 -9271.5199 -7485.0361 299.5956 -187.9728 -95.5055 30082.3791 -314.8861 -239.3713
ENERGY: 900000 2.1759 8.8525 3.2528 0.0000 -10926.2176 1613.2445 0.0000 0.0000 1756.1084 -7542.5835 299.0572 -9298.6919 -7491.8917 299.2047 1162.4672 1305.8787 29621.9285 -146.0705 -56.1886
ENERGY: 1200000 1.1993 8.7717 3.3599 0.0000 -10733.4400 1436.1221 0.0000 0.0000 1780.5289 -7503.4582 303.2159 -9283.9871 -7487.2832 299.8423 -390.3691 -356.5186 30922.5805 -210.3272 -127.7269
ENERGY: 1500000 3.0247 10.4187 3.7743 0.0000 -10665.6703 1367.7184 0.0000 0.0000 1747.2669 -7533.4674 297.5515 -9280.7343 -7494.3434 300.7087 -820.1701 -721.8706 30396.8631 -135.3090 -51.2233
TCL: Running FEP window   4: Lambda1 0.15000000000000002 Lambda2 0.2    [dLambda 0.04999999999999999]
TCL: Setting parameter firsttimestep to 0
TCL: Setting parameter alchLambda to 0.15000000000000002
Info: NONBONDED TABLE R-SQUARED SPACING: 0.0625
Info: NONBONDED TABLE SIZE: 705 POINTS
TCL: Setting parameter alchLambda2 to 0.2
Info: NONBONDED TABLE R-SQUARED SPACING: 0.0625
Info: NONBONDED TABLE SIZE: 705 POINTS
TCL: Running for 1500000 steps
ETITLE: TS BOND ANGLE DIHED IMPRP ELECT VDW BOUNDARY MISC KINETIC TOTAL TEMP POTENTIAL TOTALAVG TEMPAVG PRESSURE GPRESSURE VOLUME PRESSAVG GPRESSAVG
ENERGY: 0 3.0247 10.4187 3.7743 0.0000 -10665.6688 1370.5119 0.0000 0.0000 1746.4305 -7531.5087 297.4091 -9277.9392 -7531.5087 297.4091 -793.3849 -707.8846 30396.8631 -793.3849 -707.8846
ENERGY: 300000 0.7250 6.3468 3.6327 0.0000 -10656.6629 1439.4998 0.0000 0.0000 1816.9205 -7389.5382 309.4132 -9206.4586 -7478.0742 302.0135 161.4439 182.3606 30465.5490 -279.9087 -212.6779
ENERGY: 600000 0.7394 7.7538 3.9413 0.0000 -10604.6653 1375.4117 0.0000 0.0000 1760.2819 -7456.5372 299.7679 -9216.8190 -7481.0360 301.8206 -371.8572 -320.3989 30186.0600 -40.6345 24.5451
ENERGY: 900000 2.5389 9.1277 4.5962 0.0000 -10620.2340 1401.2345 0.0000 0.0000 1732.9265 -7469.8104 295.1094 -9202.7368 -7488.5621 300.8171 -466.8086 -422.7008 30632.9158 -106.7723 -42.3242
ENERGY: 1200000 1.4598 9.3560 3.7847 0.0000 -10528.8370 1356.0317 0.0000 0.0000 1828.8141 -7329.3907 311.4386 -9158.2048 -7474.9440 301.9804 -499.3875 -485.7347 30739.5626 -136.6209 -65.7921
ENERGY: 1500000 2.3464 6.8112 4.3298 0.0000 -10649.8778 1428.2589 0.0000 0.0000 1774.9412 -7433.1904 302.2643 -9208.1316 -7473.9654 301.6393 -187.1433 -112.9261 30650.0569 -140.1520 -64.4065
TCL: Running FEP window   5: Lambda1 0.2    Lambda2 0.25   [dLambda 0.04999999999999999]
TCL: Setting parameter firsttimestep to 0
TCL: Setting parameter alchLambda to 0.2
Info: NONBONDED TABLE R-SQUARED SPACING: 0.0625
Info: NONBONDED TABLE SIZE: 705 POINTS
TCL: Setting parameter alchLambda2 to 0.25
Info: NONBONDED TABLE R-SQUARED SPACING: 0.0625
Info: NONBONDED TABLE SIZE: 705 POINTS
TCL: Running for 1500000 steps
ETITLE: TS BOND ANGLE DIHED IMPRP ELECT VDW BOUNDARY MISC KINETIC TOTAL TEMP POTENTIAL TOTALAVG TEMPAVG PRESSURE GPRESSURE VOLUME PRESSAVG GPRESSAVG
ENERGY: 0 2.3464 6.8112 4.3298 0.0000 -10649.8771 1428.4280 0.0000 0.0000 1774.0710 -7433.8907 302.1161 -9207.9617 -7433.8907 302.1161 -190.7693 -110.4257 30650.0569 -190.7693 -110.4257
ENERGY: 300000 0.6178 12.3238 4.4572 0.0000 -10755.7771 1487.8981 0.0000 0.0000 1816.7609 -7433.7193 309.3860 -9250.4802 -7458.7903 301.3841 421.4156 445.0352 30322.5253 108.2614 166.0662
ENERGY: 600000 1.1500 9.1616 4.6099 0.0000 -10716.0925 1475.4454 0.0000 0.0000 1774.4516 -7451.2740 302.1809 -9225.7256 -7461.5597 300.3474 184.5046 271.4706 30212.8779 -66.8671 4.5302
ENERGY: 900000 0.8941 6.7178 3.6025 0.0000 -10575.6580 1506.1289 0.0000 0.0000 1793.7180 -7264.5968 305.4619 -9058.3148 -7437.6729 301.8632 1091.0950 1133.6537 30254.5703 5.0301 74.2353
ENERGY: 1200000 1.5374 13.8898 3.4604 0.0000 -10655.7243 1422.4967 0.0000 0.0000 1742.1539 -7472.1861 296.6808 -9214.3400 -7436.3834 301.3125 -78.3129 -2.7876 30288.8359 -58.1708 2.8269
ENERGY: 1500000 3.5807 12.4221 4.2273 0.0000 -10734.2475 1441.1436 0.0000 0.0000 1757.4346 -7515.4390 299.2830 -9272.8736 -7444.6390 300.8264 -367.3485 -293.4277 30348.5689 -75.8706 -10.8431
TCL: Running FEP window   6: Lambda1 0.25   Lambda2 0.3    [dLambda 0.04999999999999999]
TCL: Setting parameter firsttimestep to 0
TCL: Setting parameter alchLambda to 0.25
Info: NONBONDED TABLE R-SQUARED SPACING: 0.0625
Info: NONBONDED TABLE SIZE: 705 POINTS
TCL: Setting parameter alchLambda2 to 0.3
Info: NONBONDED TABLE R-SQUARED SPACING: 0.0625
Info: NONBONDED TABLE SIZE: 705 POINTS
TCL: Running for 1500000 steps
ETITLE: TS BOND ANGLE DIHED IMPRP ELECT VDW BOUNDARY MISC KINETIC TOTAL TEMP POTENTIAL TOTALAVG TEMPAVG PRESSURE GPRESSURE VOLUME PRESSAVG GPRESSAVG
ENERGY: 0 3.5807 12.4221 4.2273 0.0000 -10734.2474 1442.3871 0.0000 0.0000 1756.5765 -7515.0536 299.1369 -9271.6301 -7515.0536 299.1369 -361.1009 -285.5850 30348.5689 -361.1009 -285.5850
ENERGY: 300000 3.0569 9.8515 3.6867 0.0000 -10811.3197 1513.3319 0.0000 0.0000 1756.1348 -7525.2579 299.0617 -9281.3927 -7501.9611 298.7170 780.0447 807.6259 29537.4185 41.4576 110.5652
ENERGY: 600000 2.4128 9.4711 4.6794 0.0000 -10869.3417 1545.0215 0.0000 0.0000 1781.3325 -7526.4245 303.3527 -9307.7570 -7491.4445 299.9177 746.9225 801.5855 30008.7812 -18.1377 38.9643
ENERGY: 900000 2.0702 7.3704 3.3555 0.0000 -10633.5383 1343.3616 0.0000 0.0000 1743.4221 -7533.9585 296.8968 -9277.3806 -7492.9663 299.1754 -862.3300 -824.0449 30214.8246 -164.1348 -108.0062
ENERGY: 1200000 2.4640 7.8503 3.6865 0.0000 -10609.3706 1427.4378 0.0000 0.0000 1783.1623 -7384.7697 303.6643 -9167.9320 -7477.1743 299.4379 -136.0944 -129.1005 30824.2424 -138.9832 -89.3845
ENERGY: 1500000 1.1377 12.3481 4.0691 0.0000 -10846.0072 1517.3028 0.0000 0.0000 1866.3604 -7444.7891 317.8326 -9311.1495 -7486.8425 299.3092 556.8521 558.3956 30209.8324 -61.8344 -10.7460
TCL: Running FEP window   7: Lambda1 0.3    Lambda2 0.35   [dLambda 0.04999999999999999]
TCL: Setting parameter firsttimestep to 0
TCL: Setting parameter alchLambda to 0.3
Info: NONBONDED TABLE R-SQUARED SPACING: 0.0625
Info: NONBONDED TABLE SIZE: 705 POINTS
TCL: Setting parameter alchLambda2 to 0.35
Info: NONBONDED TABLE R-SQUARED SPACING: 0.0625
Info: NONBONDED TABLE SIZE: 705 POINTS
TCL: Running for 1500000 steps
ETITLE: TS BOND ANGLE DIHED IMPRP ELECT VDW BOUNDARY MISC KINETIC TOTAL TEMP POTENTIAL TOTALAVG TEMPAVG PRESSURE GPRESSURE VOLUME PRESSAVG GPRESSAVG
ENERGY: 0 1.1377 12.3481 4.0691 0.0000 -10846.0081 1517.5243 0.0000 0.0000 1865.4628 -7445.4661 317.6797 -9310.9289 -7445.4661 317.6797 482.3436 566.2055 30209.8324 482.3436 566.2055
ENERGY: 300000 2.1434 6.7405 4.4776 0.0000 -10907.0145 1582.8562 0.0000 0.0000 1744.7231 -7566.0738 297.1183 -9310.7968 -7465.4336 304.6524 900.3542 945.9831 30148.2941 219.3632 272.8479
ENERGY: 600000 2.1714 12.0371 3.8748 0.0000 -10665.7233 1370.2081 0.0000 0.0000 1751.1542 -7526.2778 298.2135 -9277.4320 -7475.0787 303.2655 -556.0258 -513.3249 30188.6699 -79.9314 -37.3948
ENERGY: 900000 0.9054 10.1052 3.1445 0.0000 -10728.0671 1428.2253 0.0000 0.0000 1735.2573 -7550.4295 295.5063 -9285.6868 -7472.4861 301.5678 -297.5183 -183.0650 30264.3558 -30.5057 14.1920
ENERGY: 1200000 0.8825 11.0686 6.3626 0.0000 -10549.8680 1329.3475 0.0000 0.0000 1820.9796 -7381.2272 310.1044 -9202.2068 -7466.3161 301.9971 -725.8563 -635.8759 30551.1567 -37.6724 9.4790
ENERGY: 1500000 0.3372 6.6738 5.1869 0.0000 -10586.0735 1370.8776 0.0000 0.0000 1742.4372 -7460.5609 296.7290 -9202.9980 -7466.4545 301.1907 -203.1364 -150.6621 29884.8600 -25.9891 19.8409
TCL: Running FEP window   8: Lambda1 0.35   Lambda2 0.39999999999999997 [dLambda 0.04999999999999999]
TCL: Setting parameter firsttimestep to 0
TCL: Setting parameter alchLambda to 0.35
Info: NONBONDED TABLE R-SQUARED SPACING: 0.0625
Info: NONBONDED TABLE SIZE: 705 POINTS
TCL: Setting parameter alchLambda2 to 0.39999999999999997
Info: NONBONDED TABLE R-SQUARED SPACING: 0.0625
Info: NONBONDED TABLE SIZE: 705 POINTS
TCL: Running for 1500000 steps
ETITLE: TS BOND ANGLE DIHED IMPRP ELECT VDW BOUNDARY MISC KINETIC TOTAL TEMP POTENTIAL TOTALAVG TEMPAVG PRESSURE GPRESSURE VOLUME PRESSAVG GPRESSAVG
ENERGY: 0 0.3372 6.6738 5.1869 0.0000 -10586.0727 1370.6889 0.0000 0.0000 1741.5910 -7461.5949 296.5849 -9203.1859 -7461.5949 296.5849 -241.3678 -148.3690 29884.8600 -241.3678 -148.3690
ENERGY: 300000 2.9409 5.9735 3.1801 0.0000 -10765.0622 1494.9116 0.0000 0.0000 1776.7803 -7481.2757 302.5775 -9258.0560 -7456.7752 300.4037 75.7628 209.4935 30763.7347 0.3599 72.4634
ENERGY: 600000 1.5604 9.8113 2.9706 0.0000 -10700.6491 1432.3581 0.0000 0.0000 1759.4743 -7494.4744 299.6304 -9253.9487 -7476.8774 298.8312 -218.9409 -163.0522 30497.9634 15.1907 102.5604
ENERGY: 900000 1.2207 7.1632 3.1472 0.0000 -10722.7698 1509.5694 0.0000 0.0000 1755.4834 -7446.1859 298.9507 -9201.6693 -7467.7142 298.2562 549.9426 606.8714 30606.2563 109.5025 189.8628
ENERGY: 1200000 2.4002 13.4815 2.9536 0.0000 -10692.9704 1395.1376 0.0000 0.0000 1817.1538 -7461.8436 309.4529 -9278.9975 -7472.2547 299.1028 -722.2116 -633.7680 30827.5906 -57.4305 22.7456
ENERGY: 1500000 3.7475 14.2644 3.3486 0.0000 -10657.0291 1409.0459 0.0000 0.0000 1751.4342 -7475.1887 298.2612 -9226.6229 -7477.5183 298.4395 -633.3607 -549.5804 30845.3902 -43.8846 34.7582
TCL: Running FEP window   9: Lambda1 0.39999999999999997 Lambda2 0.44999999999999996 [dLambda 0.04999999999999999]
TCL: Setting parameter firsttimestep to 0
TCL: Setting parameter alchLambda to 0.39999999999999997
Info: NONBONDED TABLE R-SQUARED SPACING: 0.0625
Info: NONBONDED TABLE SIZE: 705 POINTS
TCL: Setting parameter alchLambda2 to 0.44999999999999996
Info: NONBONDED TABLE R-SQUARED SPACING: 0.0625
Info: NONBONDED TABLE SIZE: 705 POINTS
TCL: Running for 1500000 steps
ETITLE: TS BOND ANGLE DIHED IMPRP ELECT VDW BOUNDARY MISC KINETIC TOTAL TEMP POTENTIAL TOTALAVG TEMPAVG PRESSURE GPRESSURE VOLUME PRESSAVG GPRESSAVG
ENERGY: 0 3.7475 14.2644 3.3486 0.0000 -10657.0287 1409.6623 0.0000 0.0000 1750.5504 -7475.4555 298.1107 -9226.0059 -7475.4555 298.1107 -609.5428 -540.2581 30845.3902 -609.5428 -540.2581
ENERGY: 300000 0.5873 9.5019 3.3656 0.0000 -10654.1145 1407.2634 0.0000 0.0000 1767.6041 -7465.7922 301.0148 -9233.3963 -7461.7704 300.0908 -274.4686 -171.7491 30411.0332 -565.8238 -510.8920
ENERGY: 600000 1.7906 6.0781 3.0121 0.0000 -10781.1845 1468.9731 0.0000 0.0000 1744.6264 -7556.7042 297.1018 -9301.3306 -7478.5523 300.0266 -213.7227 -81.5451 30361.1922 -440.0991 -356.0723
ENERGY: 900000 2.9695 8.5512 3.7531 0.0000 -10743.1044 1504.0499 0.0000 0.0000 1789.8764 -7433.9042 304.8077 -9223.7806 -7456.7383 301.8861 204.7679 225.7854 30767.5522 -396.7371 -326.7699
ENERGY: 1200000 1.8913 7.1023 4.4818 0.0000 -10628.3300 1348.6195 0.0000 0.0000 1759.5781 -7506.6570 299.6481 -9266.2351 -7473.6427 300.6917 -1055.2578 -970.3325 30510.2554 -434.9785 -359.9908
ENERGY: 1500000 0.8874 8.8295 3.3839 0.0000 -10640.0787 1411.8533 0.0000 0.0000 1770.5787 -7444.5460 301.5214 -9215.1246 -7467.5336 300.6621 -139.3423 -98.5027 30150.5268 -379.5216 -305.3272
TCL: Running FEP window  10: Lambda1 0.44999999999999996 Lambda2 0.49999999999999994 [dLambda 0.04999999999999999]
TCL: Setting parameter firsttimestep to 0
TCL: Setting parameter alchLambda to 0.44999999999999996
Info: NONBONDED TABLE R-SQUARED SPACING: 0.0625
Info: NONBONDED TABLE SIZE: 705 POINTS
TCL: Setting parameter alchLambda2 to 0.49999999999999994
Info: NONBONDED TABLE R-SQUARED SPACING: 0.0625
Info: NONBONDED TABLE SIZE: 705 POINTS
TCL: Running for 1500000 steps
ETITLE: TS BOND ANGLE DIHED IMPRP ELECT VDW BOUNDARY MISC KINETIC TOTAL TEMP POTENTIAL TOTALAVG TEMPAVG PRESSURE GPRESSURE VOLUME PRESSAVG GPRESSAVG
ENERGY: 0 0.8874 8.8295 3.3839 0.0000 -10640.0783 1411.7604 0.0000 0.0000 1769.6578 -7445.5593 301.3646 -9215.2171 -7445.5593 301.3646 -185.8083 -97.1407 30150.5268 -185.8083 -97.1407
ENERGY: 300000 1.7361 8.6630 3.4283 0.0000 -10639.4916 1403.9112 0.0000 0.0000 1709.3124 -7512.4405 291.0880 -9221.7530 -7489.8553 296.1711 -132.0811 -28.3498 30009.3643 -103.9106 -29.2848
ENERGY: 600000 1.6010 8.6286 4.5195 0.0000 -10648.5199 1471.1006 0.0000 0.0000 1717.9724 -7444.6977 292.5628 -9162.6701 -7481.5697 297.0709 236.6692 319.8633 30622.9225 11.6301 79.1743
ENERGY: 900000 1.5019 9.9312 3.2592 0.0000 -10850.8724 1525.8908 0.0000 0.0000 1737.9600 -7572.3292 295.9666 -9310.2892 -7500.5889 296.9668 633.0870 613.6218 30086.4352 81.3678 132.8631
ENERGY: 1200000 0.5474 8.0054 4.3512 0.0000 -10773.9960 1505.3702 0.0000 0.0000 1763.3967 -7492.3252 300.2983 -9255.7218 -7492.8367 299.0618 506.9430 640.2515 30094.6433 95.5576 153.8825
ENERGY: 1500000 1.1794 7.3192 4.9477 0.0000 -10593.7880 1392.3556 0.0000 0.0000 1741.2066 -7446.7794 296.5195 -9187.9860 -7488.0484 299.0018 -296.9001 -246.1637 30728.3397 60.2108 109.9385
TCL: Running FEP window  11: Lambda1 0.49999999999999994 Lambda2 0.5499999999999999 [dLambda 0.04999999999999999]
TCL: Setting parameter firsttimestep to 0
TCL: Setting parameter alchLambda to 0.49999999999999994
Info: NONBONDED TABLE R-SQUARED SPACING: 0.0625
Info: NONBONDED TABLE SIZE: 705 POINTS
TCL: Setting parameter alchLambda2 to 0.5499999999999999
Info: NONBONDED TABLE R-SQUARED SPACING: 0.0625
Info: NONBONDED TABLE SIZE: 705 POINTS
TCL: Running for 1500000 steps
ETITLE: TS BOND ANGLE DIHED IMPRP ELECT VDW BOUNDARY MISC KINETIC TOTAL TEMP POTENTIAL TOTALAVG TEMPAVG PRESSURE GPRESSURE VOLUME PRESSAVG GPRESSAVG
ENERGY: 0 1.1794 7.3192 4.9477 0.0000 -10593.7866 1391.7517 0.0000 0.0000 1740.3287 -7448.2599 296.3700 -9188.5886 -7448.2599 296.3700 -330.0866 -244.0368 30728.3397 -330.0866 -244.0368
ENERGY: 300000 1.8329 10.5410 3.1244 0.0000 -10726.7056 1512.1385 0.0000 0.0000 1773.5365 -7425.5323 302.0251 -9199.0689 -7478.0177 300.4111 427.4123 543.6623 30821.1749 -182.0810 -89.3339
ENERGY: 600000 1.7342 9.2415 2.8915 0.0000 -10783.3148 1518.3088 0.0000 0.0000 1769.7960 -7481.3428 301.3881 -9251.1388 -7477.6541 300.8698 718.5405 752.9097 30113.0814 -2.2362 74.6310
ENERGY: 900000 0.9517 7.8072 4.0051 0.0000 -10807.2285 1505.0718 0.0000 0.0000 1734.5218 -7554.8709 295.3811 -9289.3927 -7490.2297 299.6064 477.6808 538.9896 30036.5285 -28.8465 45.4169
ENERGY: 1200000 1.3068 9.7600 2.8751 0.0000 -10704.4288 1403.4171 0.0000 0.0000 1798.1268 -7488.9431 306.2127 -9287.0699 -7489.1391 299.6996 -230.9453 -163.0542 30055.1691 -69.0913 4.9423
ENERGY: 1500000 1.4303 9.2018 3.5038 0.0000 -10646.3308 1357.3592 0.0000 0.0000 1780.0457 -7494.7900 303.1336 -9274.8357 -7493.3476 299.8199 -691.5971 -650.4938 30425.9510 -147.8424 -72.4438
TCL: Running FEP window  12: Lambda1 0.5499999999999999 Lambda2 0.6    [dLambda 0.050000000000000044]
TCL: Setting parameter firsttimestep to 0
TCL: Setting parameter alchLambda to 0.5499999999999999
Info: NONBONDED TABLE R-SQUARED SPACING: 0.0625
Info: NONBONDED TABLE SIZE: 705 POINTS
TCL: Setting parameter alchLambda2 to 0.6
Info: NONBONDED TABLE R-SQUARED SPACING: 0.0625
Info: NONBONDED TABLE SIZE: 705 POINTS
TCL: Running for 1500000 steps
ETITLE: TS BOND ANGLE DIHED IMPRP ELECT VDW BOUNDARY MISC KINETIC TOTAL TEMP POTENTIAL TOTALAVG TEMPAVG PRESSURE GPRESSURE VOLUME PRESSAVG GPRESSAVG
ENERGY: 0 1.4303 9.2018 3.5038 0.0000 -10646.8000 1357.6304 0.0000 0.0000 1779.1899 -7495.8438 302.9878 -9275.0337 -7495.8438 302.9878 -731.9506 -641.0991 30425.9510 -731.9506 -641.0991
ENERGY: 300000 1.8322 8.1992 4.9766 0.0000 -10704.1749 1450.7065 0.0000 0.0000 1740.1001 -7498.3603 296.3310 -9238.4604 -7515.3213 301.2612 198.6712 219.8641 30107.1604 -31.0464 12.9048
ENERGY: 600000 2.7462 10.3168 2.9555 0.0000 -10615.5198 1336.6026 0.0000 0.0000 1803.8973 -7459.0013 307.1954 -9262.8986 -7477.5376 302.7024 -839.4125 -827.7173 30708.7140 -68.6074 -24.3453
ENERGY: 900000 3.9728 9.9603 3.3989 0.0000 -10518.2088 1421.4836 0.0000 0.0000 1835.9555 -7243.4377 312.6548 -9079.3932 -7467.1936 302.5377 288.8724 316.9351 30590.2841 -87.0803 -43.8765
ENERGY: 1200000 1.6519 10.0099 5.3491 0.0000 -10864.8001 1502.5593 0.0000 0.0000 1791.4128 -7553.8171 305.0694 -9345.2299 -7484.2496 301.7547 408.1176 431.1049 29975.0543 -34.3493 12.2585
ENERGY: 1500000 2.5889 9.8428 3.8907 0.0000 -10743.5695 1448.6510 0.0000 0.0000 1743.7244 -7534.8717 296.9482 -9278.5960 -7489.4104 301.3501 50.3129 124.3661 30108.8828 -31.1091 17.6957
TCL: Running FEP window  13: Lambda1 0.6    Lambda2 0.65   [dLambda 0.050000000000000044]
TCL: Setting parameter firsttimestep to 0
TCL: Setting parameter alchLambda to 0.6
Info: NONBONDED TABLE R-SQUARED SPACING: 0.0625
Info: NONBONDED TABLE SIZE: 705 POINTS
TCL: Setting parameter alchLambda2 to 0.65
Info: NONBONDED TABLE R-SQUARED SPACING: 0.0625
Info: NONBONDED TABLE SIZE: 705 POINTS
TCL: Running for 1500000 steps
ETITLE: TS BOND ANGLE DIHED IMPRP ELECT VDW BOUNDARY MISC KINETIC TOTAL TEMP POTENTIAL TOTALAVG TEMPAVG PRESSURE GPRESSURE VOLUME PRESSAVG GPRESSAVG
ENERGY: 0 2.5889 9.8428 3.8907 0.0000 -10743.1468 1448.7746 0.0000 0.0000 1742.8467 -7535.2030 296.7988 -9278.0497 -7535.2030 296.7988 60.5473 137.2805 30108.8828 60.5473 137.2805
ENERGY: 300000 2.6128 7.4939 2.9897 0.0000 -10639.5353 1365.0142 0.0000 0.0000 1733.0993 -7528.3255 295.1388 -9261.4248 -7510.4975 298.2315 -614.3834 -524.9296 30301.9590 -214.7473 -145.1583
ENERGY: 600000 1.3494 8.8051 3.9313 0.0000 -10567.7524 1318.8111 0.0000 0.0000 1721.0477 -7513.8078 293.0865 -9234.8555 -7494.5585 298.0377 -951.0730 -892.4762 30473.8533 -298.3585 -226.8648
ENERGY: 900000 1.9198 7.8602 3.4454 0.0000 -10642.8310 1445.6018 0.0000 0.0000 1732.0747 -7451.9291 294.9644 -9184.0038 -7497.6708 298.0497 399.4802 445.2920 30059.0174 -220.8355 -151.5143
ENERGY: 1200000 1.4827 8.5326 3.7993 0.0000 -10641.0218 1448.4506 0.0000 0.0000 1748.4167 -7430.3400 297.7473 -9178.7567 -7485.0073 299.3049 221.7565 259.9728 30534.9806 -183.0560 -122.6705
ENERGY: 1500000 1.9688 10.0256 2.8889 0.0000 -10885.6714 1491.3755 0.0000 0.0000 1748.5677 -7630.8448 297.7730 -9379.4126 -7494.5325 299.8414 280.4490 387.6586 29396.8463 -95.1269 -31.0319
TCL: Running FEP window  14: Lambda1 0.65   Lambda2 0.7000000000000001 [dLambda 0.050000000000000044]
TCL: Setting parameter firsttimestep to 0
TCL: Setting parameter alchLambda to 0.65
Info: NONBONDED TABLE R-SQUARED SPACING: 0.0625
Info: NONBONDED TABLE SIZE: 705 POINTS
TCL: Setting parameter alchLambda2 to 0.7000000000000001
Info: NONBONDED TABLE R-SQUARED SPACING: 0.0625
Info: NONBONDED TABLE SIZE: 705 POINTS
TCL: Running for 1500000 steps
ETITLE: TS BOND ANGLE DIHED IMPRP ELECT VDW BOUNDARY MISC KINETIC TOTAL TEMP POTENTIAL TOTALAVG TEMPAVG PRESSURE GPRESSURE VOLUME PRESSAVG GPRESSAVG
ENERGY: 0 1.9688 10.0256 2.8889 0.0000 -10886.1569 1491.6939 0.0000 0.0000 1747.7354 -7631.8443 297.6313 -9379.5797 -7631.8443 297.6313 315.8435 397.6626 29396.8463 315.8435 397.6626
ENERGY: 300000 2.6246 13.2486 3.9284 0.0000 -10727.7780 1450.9611 0.0000 0.0000 1775.7480 -7481.2673 302.4017 -9257.0153 -7534.9933 298.4372 -103.2922 -58.1100 30751.5987 121.9387 197.2014
ENERGY: 600000 1.2987 8.5691 5.1297 0.0000 -10657.5119 1425.9961 0.0000 0.0000 1786.7242 -7429.7941 304.2709 -9216.5183 -7516.1183 299.6472 85.0471 97.7129 30385.9072 -48.6745 13.4187
ENERGY: 900000 3.2459 9.5247 4.4186 0.0000 -10769.3481 1470.4743 0.0000 0.0000 1756.9205 -7524.7641 299.1955 -9281.6847 -7498.9886 300.8722 21.7569 44.0161 30000.6354 -48.9473 12.2969
ENERGY: 1200000 2.2759 6.3408 3.5709 0.0000 -10732.4003 1423.2216 0.0000 0.0000 1770.8350 -7526.1562 301.5651 -9296.9912 -7495.0044 301.1856 -305.3463 -241.5481 30497.8093 -40.8862 16.9604
ENERGY: 1500000 1.9711 10.4986 3.7732 0.0000 -10592.6890 1388.8940 0.0000 0.0000 1769.6918 -7417.8603 301.3704 -9187.5521 -7488.0837 301.0954 -445.5840 -413.6694 30912.9808 -41.3466 17.0218
TCL: Running FEP window  15: Lambda1 0.7000000000000001 Lambda2 0.7500000000000001 [dLambda 0.050000000000000044]
TCL: Setting parameter firsttimestep to 0
TCL: Setting parameter alchLambda to 0.7000000000000001
Info: NONBONDED TABLE R-SQUARED SPACING: 0.0625
Info: NONBONDED TABLE SIZE: 705 POINTS
TCL: Setting parameter alchLambda2 to 0.7500000000000001
Info: NONBONDED TABLE R-SQUARED SPACING: 0.0625
Info: NONBONDED TABLE SIZE: 705 POINTS
TCL: Running for 1500000 steps
ETITLE: TS BOND ANGLE DIHED IMPRP ELECT VDW BOUNDARY MISC KINETIC TOTAL TEMP POTENTIAL TOTALAVG TEMPAVG PRESSURE GPRESSURE VOLUME PRESSAVG GPRESSAVG
ENERGY: 0 1.9711 10.4986 3.7732 0.0000 -10593.2102 1388.6985 0.0000 0.0000 1768.8127 -7419.4561 301.2207 -9188.2688 -7419.4561 301.2207 -476.7011 -412.1147 30912.9808 -476.7011 -412.1147
ENERGY: 300000 2.2887 9.8651 3.6857 0.0000 -10674.1201 1393.6862 0.0000 0.0000 1724.7896 -7539.8049 293.7237 -9264.5945 -7475.0172 297.9939 -473.2435 -481.7246 30436.1529 -400.3450 -360.7736
ENERGY: 600000 1.0701 8.7392 3.5036 0.0000 -10673.8247 1362.5710 0.0000 0.0000 1782.2935 -7515.6473 303.5164 -9297.9408 -7488.3927 301.2229 -449.9752 -447.8294 29875.1295 -279.2933 -231.4026
ENERGY: 900000 0.7502 10.6694 3.5072 0.0000 -10546.2118 1351.7452 0.0000 0.0000 1803.5203 -7376.0195 307.1312 -9179.5398 -7469.1883 301.9015 -489.0711 -428.6317 30549.9138 -241.2777 -187.4882
ENERGY: 1200000 1.3750 5.3976 3.3267 0.0000 -10674.7872 1411.4543 0.0000 0.0000 1745.2654 -7507.9682 297.2107 -9253.2336 -7481.0341 300.7441 -214.3718 -131.9973 30216.5160 -124.5105 -66.4778
ENERGY: 1500000 1.0782 7.5832 4.2443 0.0000 -10713.7938 1430.0701 0.0000 0.0000 1800.5552 -7470.2628 306.6263 -9270.8180 -7479.9371 301.8116 -408.5664 -340.2092 30837.4446 -67.0299 -4.7728
TCL: Running FEP window  16: Lambda1 0.7500000000000001 Lambda2 0.8000000000000002 [dLambda 0.050000000000000044]
TCL: Setting parameter firsttimestep to 0
TCL: Setting parameter alchLambda to 0.7500000000000001
Info: NONBONDED TABLE R-SQUARED SPACING: 0.0625
Info: NONBONDED TABLE SIZE: 705 POINTS
TCL: Setting parameter alchLambda2 to 0.8000000000000002
Info: NONBONDED TABLE R-SQUARED SPACING: 0.0625
Info: NONBONDED TABLE SIZE: 705 POINTS
TCL: Running for 1500000 steps
ETITLE: TS BOND ANGLE DIHED IMPRP ELECT VDW BOUNDARY MISC KINETIC TOTAL TEMP POTENTIAL TOTALAVG TEMPAVG PRESSURE GPRESSURE VOLUME PRESSAVG GPRESSAVG
ENERGY: 0 1.0782 7.5832 4.2443 0.0000 -10714.5187 1430.1955 0.0000 0.0000 1799.7056 -7471.7118 306.4816 -9271.4175 -7471.7118 306.4816 -406.9686 -328.9999 30837.4446 -406.9686 -328.9999
ENERGY: 300000 1.7780 12.2320 4.7123 0.0000 -10779.1377 1468.9998 0.0000 0.0000 1791.3915 -7500.0241 305.0657 -9291.4156 -7501.5867 301.4343 126.5302 199.8121 30153.8044 -266.3347 -220.3279
ENERGY: 600000 1.2332 11.3802 3.3139 0.0000 -10522.9189 1316.4716 0.0000 0.0000 1800.7399 -7389.7802 306.6577 -9190.5200 -7458.3175 303.0528 -737.4114 -665.0417 30177.2918 -258.3506 -195.8559
ENERGY: 900000 2.3677 11.9679 5.5268 0.0000 -10718.9122 1416.8078 0.0000 0.0000 1760.1639 -7522.0781 299.7478 -9282.2420 -7474.1636 301.8358 -61.9644 -38.4387 29936.6728 -198.2544 -129.8976
ENERGY: 1200000 0.4581 10.3822 2.7496 0.0000 -10734.5171 1471.3823 0.0000 0.0000 1732.9344 -7516.6104 295.1108 -9249.5449 -7483.0743 300.9618 10.0736 160.1365 30527.7075 -223.5010 -155.3440
ENERGY: 1500000 0.2977 5.5804 3.5296 0.0000 -10617.3732 1360.9759 0.0000 0.0000 1801.9638 -7445.0258 306.8661 -9246.9896 -7480.9089 300.5376 -476.3490 -460.1530 30503.6846 -242.9023 -172.3905
TCL: Running FEP window  17: Lambda1 0.8000000000000002 Lambda2 0.8500000000000002 [dLambda 0.050000000000000044]
TCL: Setting parameter firsttimestep to 0
TCL: Setting parameter alchLambda to 0.8000000000000002
Info: NONBONDED TABLE R-SQUARED SPACING: 0.0625
Info: NONBONDED TABLE SIZE: 705 POINTS
TCL: Setting parameter alchLambda2 to 0.8500000000000002
Info: NONBONDED TABLE R-SQUARED SPACING: 0.0625
Info: NONBONDED TABLE SIZE: 705 POINTS
TCL: Running for 1500000 steps
ETITLE: TS BOND ANGLE DIHED IMPRP ELECT VDW BOUNDARY MISC KINETIC TOTAL TEMP POTENTIAL TOTALAVG TEMPAVG PRESSURE GPRESSURE VOLUME PRESSAVG GPRESSAVG
ENERGY: 0 0.2977 5.5804 3.5296 0.0000 -10617.8708 1361.6113 0.0000 0.0000 1801.1235 -7445.7283 306.7230 -9246.8518 -7445.7283 306.7230 -517.5985 -440.3206 30503.6846 -517.5985 -440.3206
ENERGY: 300000 1.3102 7.3385 3.2031 0.0000 -10752.9008 1510.8666 0.0000 0.0000 1693.8316 -7536.3508 288.4517 -9230.1823 -7495.9561 297.7669 731.3514 730.7344 30330.7971 33.9747 106.0251
ENERGY: 600000 0.7516 7.4311 4.0113 0.0000 -10636.2399 1421.9279 0.0000 0.0000 1842.0645 -7360.0535 313.6951 -9202.1180 -7455.4900 301.6995 0.3496 -7.8039 30744.8106 -111.7631 -57.0572
ENERGY: 900000 2.1686 13.3545 5.3655 0.0000 -10710.5832 1469.9899 0.0000 0.0000 1749.0390 -7470.6657 297.8533 -9219.7047 -7453.6993 300.5463 516.8514 509.7154 29951.3671 4.9574 57.4953
ENERGY: 1200000 0.9867 8.2350 3.6032 0.0000 -10861.9397 1529.3594 0.0000 0.0000 1778.4828 -7541.2726 302.8674 -9319.7553 -7464.4058 299.9522 669.4181 749.6011 30149.1140 -13.8121 38.8193
ENERGY: 1500000 0.8752 6.9021 3.0349 0.0000 -10748.1436 1489.7623 0.0000 0.0000 1759.8967 -7487.6723 299.7023 -9247.5690 -7468.2655 300.6091 314.2762 325.9960 30456.6349 -11.4852 37.4323
TCL: Running FEP window  18: Lambda1 0.8500000000000002 Lambda2 0.9000000000000002 [dLambda 0.050000000000000044]
TCL: Setting parameter firsttimestep to 0
TCL: Setting parameter alchLambda to 0.8500000000000002
Info: NONBONDED TABLE R-SQUARED SPACING: 0.0625
Info: NONBONDED TABLE SIZE: 705 POINTS
TCL: Setting parameter alchLambda2 to 0.9000000000000002
Info: NONBONDED TABLE R-SQUARED SPACING: 0.0625
Info: NONBONDED TABLE SIZE: 705 POINTS
TCL: Running for 1500000 steps
ETITLE: TS BOND ANGLE DIHED IMPRP ELECT VDW BOUNDARY MISC KINETIC TOTAL TEMP POTENTIAL TOTALAVG TEMPAVG PRESSURE GPRESSURE VOLUME PRESSAVG GPRESSAVG
ENERGY: 0 0.8752 6.9021 3.0349 0.0000 -10748.5503 1489.6090 0.0000 0.0000 1758.9905 -7489.1386 299.5480 -9248.1291 -7489.1386 299.5480 260.7374 332.8405 30456.6349 260.7374 332.8405
ENERGY: 300000 0.7059 10.5954 3.3402 0.0000 -10663.6701 1353.7828 0.0000 0.0000 1812.5969 -7482.6488 308.6769 -9295.2457 -7481.7148 303.8306 -919.1745 -887.6185 30576.0255 310.0601 388.3618
ENERGY: 600000 0.4628 10.0277 4.8815 0.0000 -10693.6439 1402.7919 0.0000 0.0000 1767.6654 -7507.8146 301.0253 -9275.4800 -7486.3067 301.5701 -178.5329 -119.5158 30049.8092 85.8354 155.2707
ENERGY: 900000 1.8290 11.0940 2.7899 0.0000 -10846.4439 1559.5850 0.0000 0.0000 1770.5162 -7500.6298 301.5107 -9271.1460 -7477.3960 300.2673 1066.0561 1079.8005 29937.8101 246.6464 308.1217
ENERGY: 1200000 2.1186 7.4308 4.9418 0.0000 -10612.9991 1341.6784 0.0000 0.0000 1737.0339 -7519.7956 295.8089 -9256.8294 -7474.8589 299.6111 -600.1051 -605.4614 30231.8167 162.5501 216.5069
ENERGY: 1500000 1.2764 13.8280 3.5170 0.0000 -10607.8353 1390.5807 0.0000 0.0000 1778.3167 -7420.3165 302.8391 -9198.6331 -7468.5413 300.4863 -308.6680 -267.1937 30555.3877 125.3376 181.2049
TCL: Running FEP window  19: Lambda1 0.9000000000000002 Lambda2 0.9500000000000003 [dLambda 0.050000000000000044]
TCL: Setting parameter firsttimestep to 0
TCL: Setting parameter alchLambda to 0.9000000000000002
Info: NONBONDED TABLE R-SQUARED SPACING: 0.0625
Info: NONBONDED TABLE SIZE: 705 POINTS
TCL: Setting parameter alchLambda2 to 0.9500000000000003
Info: NONBONDED TABLE R-SQUARED SPACING: 0.0625
Info: NONBONDED TABLE SIZE: 705 POINTS
TCL: Running for 1500000 steps
ETITLE: TS BOND ANGLE DIHED IMPRP ELECT VDW BOUNDARY MISC KINETIC TOTAL TEMP POTENTIAL TOTALAVG TEMPAVG PRESSURE GPRESSURE VOLUME PRESSAVG GPRESSAVG
ENERGY: 0 1.2764 13.8280 3.5170 0.0000 -10608.0123 1390.5569 0.0000 0.0000 1777.4165 -7421.4174 302.6859 -9198.8340 -7421.4174 302.6859 -320.2203 -260.6010 30555.3877 -320.2203 -260.6010
ENERGY: 300000 4.7226 7.9317 3.8495 0.0000 -10736.8344 1454.2726 0.0000 0.0000 1730.4037 -7535.6542 294.6798 -9266.0579 -7496.2027 298.1374 172.4005 230.9028 30191.2852 -142.2429 -63.8204
ENERGY: 600000 1.7359 5.3373 3.4014 0.0000 -10661.5416 1432.7101 0.0000 0.0000 1754.6925 -7463.6645 298.8161 -9218.3570 -7480.9636 298.5889 313.5006 364.9929 30151.6238 -166.4443 -91.6965
ENERGY: 900000 0.4598 7.3922 3.7476 0.0000 -10768.3388 1529.5805 0.0000 0.0000 1813.5337 -7413.6250 308.8364 -9227.1587 -7470.5375 300.0120 811.7932 884.2241 30348.6092 -122.3319 -49.0326
ENERGY: 1200000 2.6141 10.8370 3.6589 0.0000 -10602.4400 1309.9885 0.0000 0.0000 1780.2126 -7495.1288 303.1620 -9275.3414 -7477.3539 298.8715 -1086.7670 -1082.6144 30623.7913 -261.9407 -201.9416
ENERGY: 1500000 1.1301 7.6281 4.2751 0.0000 -10667.0171 1408.4049 0.0000 0.0000 1743.4677 -7502.1111 296.9045 -9245.5789 -7479.1897 298.5723 -226.2550 -237.3630 30635.8674 -263.9685 -212.6234
TCL: Running FEP window  20: Lambda1 0.9500000000000003 Lambda2 1.0    [dLambda 0.04999999999999971]
TCL: Setting parameter firsttimestep to 0
TCL: Setting parameter alchLambda to 0.9500000000000003
Info: NONBONDED TABLE R-SQUARED SPACING: 0.0625
Info: NONBONDED TABLE SIZE: 705 POINTS
TCL: Setting parameter alchLambda2 to 1.0
Info: NONBONDED TABLE R-SQUARED SPACING: 0.0625
Info: NONBONDED TABLE SIZE: 705 POINTS
TCL: Running for 1500000 steps
ETITLE: TS BOND ANGLE DIHED IMPRP ELECT VDW BOUNDARY MISC KINETIC TOTAL TEMP POTENTIAL TOTALAVG TEMPAVG PRESSURE GPRESSURE VOLUME PRESSAVG GPRESSAVG
ENERGY: 0 1.1301 7.6281 4.2751 0.0000 -10667.6274 1408.2415 0.0000 0.0000 1742.6126 -7503.7400 296.7589 -9246.3526 -7503.7400 296.7589 -300.2222 -226.0886 30635.8674 -300.2222 -226.0886
ENERGY: 300000 1.9427 10.0656 3.4812 0.0000 -10655.2752 1412.7960 0.0000 0.0000 1813.9812 -7413.0084 308.9126 -9226.9897 -7447.6709 302.3580 -71.0043 24.6837 30143.4299 -358.3970 -257.1479
ENERGY: 600000 0.6306 12.2525 4.1015 0.0000 -10639.0537 1360.7264 0.0000 0.0000 1786.0148 -7475.3279 304.1501 -9261.3427 -7455.4685 302.0296 -638.6149 -520.3682 30385.7243 -431.3563 -332.4096
ENERGY: 900000 1.0726 12.3424 3.7635 0.0000 -10782.0132 1422.5616 0.0000 0.0000 1750.3078 -7591.9653 298.0694 -9342.2731 -7490.0180 300.1991 -368.6910 -345.1982 30253.7386 -336.0532 -243.1121
ENERGY: 1200000 0.4429 11.6054 2.8519 0.0000 -10677.7773 1472.0519 0.0000 0.0000 1730.6680 -7460.1572 294.7248 -9190.8252 -7496.9675 298.9242 697.3772 722.9520 29964.8668 -276.1197 -195.7690
ENERGY: 1500000 1.0381 14.1790 4.3796 0.0000 -10674.8709 1428.4963 0.0000 0.0000 1768.0245 -7458.7534 301.0864 -9226.7779 -7496.4848 299.2594 109.4918 120.7819 30371.8145 -172.6055 -103.5647
TCL: Exiting due to exit command.
