Info: SIMULATION PARAMETERS:
Info: TIMESTEP               2
Info: NUMBER OF STEPS        0
Info: STEPS PER CYCLE        10
Info: PERIODIC CELL BASIS 1  31.7445 0 0
Info: PERIODIC CELL BASIS 2  0 29.8362 0
Info: PERIODIC CELL BASIS 3  0 0 31.3727
Info: PERIODIC CELL CENTER   0 0 0
Info: WRAPPING WATERS AROUND PERIODIC BOUNDARIES ON OUTPUT.
Info: WRAPPING ALL CLUSTERS AROUND PERIODIC BOUNDARIES ON OUTPUT.
Info: FIRST LDB TIMESTEP     50
Info: LAST LDB TIMESTEP     -1
Info: HOM BACKGROUND SCALING 1
Info: PME BACKGROUND SCALING 1
Info: MIN ATOMS PER PATCH    40
Info: EMPTY PATCH LOAD       40 ATOMS
Info: VELOCITY FILE          mobley_5977084_equil.vel
Info: CENTER OF MASS MOVING INITIALLY? NO
Info: DIELECTRIC             1
Info: EXCLUDE                SCALED ONE-FOUR
Info: 1-4 ELECTROSTATICS SCALED BY 0.833333
Info: MODIFIED 1-4 VDW PARAMETERS WILL BE USED
Info: DCD FILENAME           mobley_5977084_prod.dcd
Info: DCD FREQUENCY          100000
Info: DCD FIRST STEP         100000
Info: DCD FILE WILL CONTAIN UNIT CELL DATA
Info: XST FILENAME           mobley_5977084_prod.xst
Info: XST FREQUENCY          100000
Info: NO VELOCITY DCD OUTPUT
Info: NO FORCE DCD OUTPUT
Info: OUTPUT FILENAME        mobley_5977084_prod
Info: BINARY OUTPUT FILES WILL BE USED
Info: RESTART FILENAME       mobley_5977084_prod.restart
Info: RESTART FREQUENCY      100000
Info: BINARY RESTART FILES WILL BE USED
Info: CUTOFF                 9
Info: PAIRLIST DISTANCE      11
Info: PAIRLIST SHRINK RATE   0.01
Info: PAIRLIST GROW RATE     0.01
Info: PAIRLIST TRIGGER       0.3
Info: PAIRLISTS PER CYCLE    2
Info: PAIRLISTS ENABLED
Info: MARGIN                 2
Info: HYDROGEN GROUP CUTOFF  2.5
Info: PATCH DIMENSION        15.5
Info: ENERGY OUTPUT STEPS    100000
Info: ENERGY EVALUATION STEPS    100000
Info: OUTPUT ENERGY PRECISION 4
Info: CROSSTERM ENERGY INCLUDED IN DIHEDRAL
Info: TIMING OUTPUT STEPS    1000000
Info: PRESSURE OUTPUT STEPS  100000
Info: ALCHEMICAL FEP ON
Info: FEP CURRENT LAMBDA VALUE     1
Info: FEP COMPARISON LAMBDA VALUE  0.95
Info: FEP INTRA-ALCHEMICAL NON-BONDED INTERACTIONS WILL BE RETAINED
Info: FEP INTRA-ALCHEMICAL BONDED INTERACTIONS WILL BE RETAINED
Info: FEP VDW SHIFTING COEFFICIENT 5
Info: FEP ELEC. ACTIVE FOR ANNIHILATED PARTICLES BETWEEN LAMBDA = 0 AND LAMBDA = 0.5
Info: FEP ELEC. ACTIVE FOR EXNIHILATED PARTICLES BETWEEN LAMBDA = 0.5 AND LAMBDA = 1
Info: FEP VDW ACTIVE FOR ANNIHILATED PARTICLES BETWEEN LAMBDA = 0 AND LAMBDA = 1
Info: FEP VDW ACTIVE FOR EXNIHILATED PARTICLES BETWEEN LAMBDA = 0 AND LAMBDA = 1
Info: FEP BOND ACTIVE FOR ANNIHILATED PARTICLES BETWEEN LAMBDA = 1 AND LAMBDA = 1
Info: FEP BOND ACTIVE FOR EXNIHILATED PARTICLES BETWEEN LAMBDA = 0 AND LAMBDA = 0
Info: LANGEVIN DYNAMICS ACTIVE
Info: LANGEVIN TEMPERATURE   300
Info: LANGEVIN USING BBK INTEGRATOR
Info: LANGEVIN DAMPING COEFFICIENT IS 1 INVERSE PS
Info: LANGEVIN DYNAMICS APPLIED TO HYDROGENS
Info: LANGEVIN PISTON PRESSURE CONTROL ACTIVE
Info:        TARGET PRESSURE IS 1.01325 BAR
Info:     OSCILLATION PERIOD IS 50 FS
Info:             DECAY TIME IS 25 FS
Info:     PISTON TEMPERATURE IS 300 K
Info:       PRESSURE CONTROL IS GROUP-BASED
Info:    INITIAL STRAIN RATE IS -2.71934e-05 -2.71934e-05 -2.71934e-05
Info:       CELL FLUCTUATION IS ISOTROPIC
Info: PARTICLE MESH EWALD (PME) ACTIVE
Info: PME TOLERANCE               1e-06
Info: PME EWALD COEFFICIENT       0.348832
Info: PME INTERPOLATION ORDER     4
Info: PME GRID DIMENSIONS         32 32 32
Info: PME MAXIMUM GRID SPACING    1
Info: PME CALCULATION WILL BE PERFORMED ON GPU
Info: FULL ELECTROSTATIC EVALUATION FREQUENCY      2
Info: USING VERLET I (r-RESPA) MTS SCHEME.
Info: C1 SPLITTING OF LONG RANGE ELECTROSTATICS
Info: PLACING ATOMS IN PATCHES BY HYDROGEN GROUPS
Info: RIGID BONDS TO HYDROGEN : ALL
Info:         ERROR TOLERANCE : 1e-08
Info:          MAX ITERATIONS : 100
Info: RIGID WATER USING SETTLE ALGORITHM
Info: RANDOM NUMBER SEED     1743579678
Info: USE HYDROGEN BONDS?    NO
Info: Using AMBER format force field!
Info: AMBER PARM FILE        mobley_5977084.prmtop
Info: COORDINATE PDB         mobley_5977084.pdb
Info: Exclusions will be read from PARM file!
Info: SCNB (VDW SCALING)     2
Info: USING ARITHMETIC MEAN TO COMBINE L-J SIGMA PARAMETERS
Info: BINARY COORDINATES     mobley_5977084_equil.coor
Info: SUMMARY OF PARAMETERS:
Info: 8 BONDS
Info: 9 ANGLES
Info:   9 HARMONIC
Info:   0 COSINE-BASED
Info: 4 DIHEDRAL
Info: 0 IMPROPER
Info: 0 CROSSTERM
Info: 0 VDW
Info: 36 VDW_PAIRS
Info: 0 NBTHOLE_PAIRS
Info: To read alchdata from file: mobley_5977084.pdb
Info: To read alchflag data from column: 5
Info: STRUCTURE SUMMARY:
Info: 2927 ATOMS
Info: 2927 BONDS
Info: 22 ANGLES
Info: 31 DIHEDRALS
Info: 0 IMPROPERS
Info: 0 CROSSTERMS
Info: 2972 EXCLUSIONS
Info: 2920 RIGID BONDS
Info: ALCH: 0 ATOMS TO DISAPPEAR IN FINAL STATE
Info: ALCH: 14 ATOMS TO APPEAR IN FINAL STATE
Info: 5861 DEGREES OF FREEDOM
Info: 978 HYDROGEN GROUPS
Info: 4 ATOMS IN LARGEST HYDROGEN GROUP
Info: 978 MIGRATION GROUPS
Info: 4 ATOMS IN LARGEST MIGRATION GROUP
Info: TOTAL MASS = 17586.7 amu
Info: TOTAL CHARGE = 0.000100007 e
Info: MASS DENSITY = 0.982831 g/cm^3
Info: ATOM DENSITY = 0.0985051 atoms/A^3
Info: ADDED 0 IMPLICIT EXCLUSIONS
Info: NONBONDED TABLE R-SQUARED SPACING: 0.0625
Info: NONBONDED TABLE SIZE: 705 POINTS
Info: REMOVING COM VELOCITY 0.0452436 -0.103255 0.0587284
Info: Use 3D box decompostion in PME FFT.
Info: Updated CUDA force table with 4096 elements.
Info: Updated CUDA LJ table with 8 x 8 elements.
Info: Found 15 unique exclusion lists needing 32 bytes
TCL: Running for 1500000 steps
ETITLE: TS BOND ANGLE DIHED IMPRP ELECT VDW BOUNDARY MISC KINETIC TOTAL TEMP POTENTIAL TOTALAVG TEMPAVG PRESSURE GPRESSURE VOLUME PRESSAVG GPRESSAVG
ENERGY: 0 3.0993 5.0136 3.6591 0.0000 -10583.2038 1389.2226 0.0000 0.0000 1739.6278 -7442.5814 298.7274 -9182.2093 -7442.5814 298.7274 -24.4451 61.0060 29714.1847 -24.4451 61.0060
ENERGY: 300000 2.1953 9.0716 1.4170 0.0000 -10611.4972 1397.9283 0.0000 0.0000 1757.1404 -7443.7446 301.7346 -9200.8850 -7426.7082 300.0290 -331.8173 -311.4222 30154.7063 -274.2851 -201.6489
ENERGY: 600000 2.3246 1.2668 2.0708 0.0000 -10633.9130 1462.6836 0.0000 0.0000 1681.7300 -7483.8372 288.7852 -9165.5672 -7419.9687 298.0054 407.1980 419.1812 30445.6197 -206.8774 -141.1011
ENERGY: 900000 2.5424 4.9312 2.1482 0.0000 -10586.1816 1384.2037 0.0000 0.0000 1696.0789 -7496.2772 291.2492 -9192.3561 -7434.7708 297.3276 -282.9595 -215.5460 29722.1311 -139.8665 -66.2443
ENERGY: 1200000 3.3232 6.3400 2.2159 0.0000 -10732.7236 1509.1968 0.0000 0.0000 1813.8489 -7397.7987 311.4725 -9211.6476 -7441.4144 298.1414 995.7943 999.7492 29515.3804 -51.3290 15.5157
ENERGY: 1500000 1.6982 3.4691 8.9240 0.0000 -10603.8457 1421.5957 0.0000 0.0000 1730.4045 -7437.7542 297.1435 -9168.1587 -7442.1372 298.2595 124.0289 174.4744 29946.0066 -41.3240 21.6308
TCL: Running FEP window   2: Lambda1 0.95   Lambda2 0.8999999999999999 [dLambda -0.050000000000000044]
TCL: Setting parameter firsttimestep to 0
TCL: Setting parameter alchLambda to 0.95
Info: NONBONDED TABLE R-SQUARED SPACING: 0.0625
Info: NONBONDED TABLE SIZE: 705 POINTS
TCL: Setting parameter alchLambda2 to 0.8999999999999999
Info: NONBONDED TABLE R-SQUARED SPACING: 0.0625
Info: NONBONDED TABLE SIZE: 705 POINTS
TCL: Running for 1500000 steps
ETITLE: TS BOND ANGLE DIHED IMPRP ELECT VDW BOUNDARY MISC KINETIC TOTAL TEMP POTENTIAL TOTALAVG TEMPAVG PRESSURE GPRESSURE VOLUME PRESSAVG GPRESSAVG
ENERGY: 0 1.6982 3.4691 8.9240 0.0000 -10603.6968 1421.8301 0.0000 0.0000 1729.5332 -7438.2422 296.9939 -9167.7754 -7438.2422 296.9939 84.4777 168.4405 29946.0066 84.4777 168.4405
ENERGY: 300000 1.8690 3.8517 2.7583 0.0000 -10701.3808 1514.5771 0.0000 0.0000 1795.2324 -7383.0925 308.2757 -9178.3249 -7432.8826 298.9158 551.3834 683.3771 30274.3555 39.6897 134.1325
ENERGY: 600000 2.5182 2.8422 2.0129 0.0000 -10726.9300 1499.1256 0.0000 0.0000 1709.7415 -7510.6896 293.5953 -9220.4311 -7455.3227 297.6820 402.8242 492.0458 30009.9170 18.9946 97.2524
ENERGY: 900000 1.0486 2.5007 1.2944 0.0000 -10608.0046 1399.8293 0.0000 0.0000 1708.2892 -7495.0424 293.3459 -9203.3316 -7463.2829 297.2063 -103.2186 -51.5625 29980.6382 -34.4347 32.3609
ENERGY: 1200000 2.3080 6.8165 0.9565 0.0000 -10641.9206 1421.3841 0.0000 0.0000 1740.4841 -7469.9715 298.8744 -9210.4556 -7463.2557 297.7716 -127.2035 -78.7055 30138.3108 -56.1125 2.4184
ENERGY: 1500000 1.4778 4.3102 1.4502 0.0000 -10594.9335 1428.5929 0.0000 0.0000 1730.5678 -7428.5346 297.1716 -9159.1024 -7462.9184 297.1425 28.6580 146.6802 30152.1235 -121.2632 -64.1500
TCL: Running FEP window   3: Lambda1 0.8999999999999999 Lambda2 0.8499999999999999 [dLambda -0.050000000000000044]
TCL: Setting parameter firsttimestep to 0
TCL: Setting parameter alchLambda to 0.8999999999999999
Info: NONBONDED TABLE R-SQUARED SPACING: 0.0625
Info: NONBONDED TABLE SIZE: 705 POINTS
TCL: Setting parameter alchLambda2 to 0.8499999999999999
Info: NONBONDED TABLE R-SQUARED SPACING: 0.0625
Info: NONBONDED TABLE SIZE: 705 POINTS
TCL: Running for 1500000 steps
ETITLE: TS BOND ANGLE DIHED IMPRP ELECT VDW BOUNDARY MISC KINETIC TOTAL TEMP POTENTIAL TOTALAVG TEMPAVG PRESSURE GPRESSURE VOLUME PRESSAVG GPRESSAVG
ENERGY: 0 1.4778 4.3102 1.4502 0.0000 -10593.7229 1428.5362 0.0000 0.0000 1729.7088 -7428.2397 297.0241 -9157.9485 -7428.2397 297.0241 56.8836 136.4796 30152.1235 56.8836 136.4796
ENERGY: 300000 1.7446 3.2455 3.3095 0.0000 -10617.7529 1486.7287 0.0000 0.0000 1767.8689 -7354.8558 303.5769 -9122.7246 -7425.9410 298.7839 172.4977 293.3754 30754.1981 237.2390 305.6573
ENERGY: 600000 5.1648 1.5874 2.4429 0.0000 -10516.6157 1355.5055 0.0000 0.0000 1745.7431 -7406.1720 299.7775 -9151.9151 -7430.7707 298.6013 -511.0070 -422.5813 29947.4547 74.9034 133.7406
ENERGY: 900000 1.6105 4.2185 0.9254 0.0000 -10544.0363 1354.6122 0.0000 0.0000 1807.2919 -7375.3778 310.3466 -9182.6697 -7434.6195 298.8036 -362.8346 -264.2173 29828.7368 -84.2174 -26.0866
ENERGY: 1200000 1.7101 8.9966 3.9984 0.0000 -10578.5164 1401.2937 0.0000 0.0000 1825.1505 -7337.3671 313.4132 -9162.5176 -7417.4807 300.6386 -446.0390 -370.6680 30737.9040 -56.8651 0.5625
ENERGY: 1500000 1.7928 5.0136 3.6709 0.0000 -10700.3655 1464.6670 0.0000 0.0000 1749.6422 -7475.5790 300.4470 -9225.2212 -7423.2122 300.7805 52.8627 112.2668 30121.9433 -156.3735 -93.7994
TCL: Running FEP window   4: Lambda1 0.8499999999999999 Lambda2 0.7999999999999998 [dLambda -0.050000000000000044]
TCL: Setting parameter firsttimestep to 0
TCL: Setting parameter alchLambda to 0.8499999999999999
Info: NONBONDED TABLE R-SQUARED SPACING: 0.0625
Info: NONBONDED TABLE SIZE: 705 POINTS
TCL: Setting parameter alchLambda2 to 0.7999999999999998
Info: NONBONDED TABLE R-SQUARED SPACING: 0.0625
Info: NONBONDED TABLE SIZE: 705 POINTS
TCL: Running for 1500000 steps
ETITLE: TS BOND ANGLE DIHED IMPRP ELECT VDW BOUNDARY MISC KINETIC TOTAL TEMP POTENTIAL TOTALAVG TEMPAVG PRESSURE GPRESSURE VOLUME PRESSAVG GPRESSAVG
ENERGY: 0 1.7928 5.0136 3.6709 0.0000 -10699.4808 1465.0396 0.0000 0.0000 1748.8035 -7475.1604 300.3030 -9223.9639 -7475.1604 300.3030 30.3199 109.2846 30121.9433 30.3199 109.2846
ENERGY: 300000 2.9250 3.4928 4.2470 0.0000 -10680.4108 1468.2608 0.0000 0.0000 1748.0466 -7453.4385 300.1730 -9201.4851 -7435.3965 299.9910 112.0085 174.8246 30063.1631 162.9456 222.9692
ENERGY: 600000 1.2738 7.0546 3.1974 0.0000 -10584.3239 1454.4772 0.0000 0.0000 1840.4388 -7277.8821 316.0385 -9118.3208 -7396.0123 303.4210 247.7490 363.7030 30591.3274 157.8981 226.0006
ENERGY: 900000 4.6600 4.8224 1.1964 0.0000 -10491.4869 1336.9488 0.0000 0.0000 1724.0485 -7419.8108 296.0521 -9143.8593 -7415.7210 302.2111 -759.5032 -678.1229 30402.8302 76.6747 150.0599
ENERGY: 1200000 1.1541 4.9520 1.0575 0.0000 -10567.8677 1426.6159 0.0000 0.0000 1749.7641 -7384.3240 300.4680 -9134.0881 -7415.8669 301.0735 296.6377 290.4238 30224.7066 65.5754 127.1343
ENERGY: 1500000 2.6464 3.5734 2.5883 0.0000 -10580.9783 1355.6197 0.0000 0.0000 1727.7339 -7488.8167 296.6849 -9216.5506 -7417.3990 301.3016 -608.6468 -618.3827 30197.7791 24.4049 78.2137
TCL: Running FEP window   5: Lambda1 0.7999999999999998 Lambda2 0.7499999999999998 [dLambda -0.050000000000000044]
TCL: Setting parameter firsttimestep to 0
TCL: Setting parameter alchLambda to 0.7999999999999998
Info: NONBONDED TABLE R-SQUARED SPACING: 0.0625
Info: NONBONDED TABLE SIZE: 705 POINTS
TCL: Setting parameter alchLambda2 to 0.7499999999999998
Info: NONBONDED TABLE R-SQUARED SPACING: 0.0625
Info: NONBONDED TABLE SIZE: 705 POINTS
TCL: Running for 1500000 steps
ETITLE: TS BOND ANGLE DIHED IMPRP ELECT VDW BOUNDARY MISC KINETIC TOTAL TEMP POTENTIAL TOTALAVG TEMPAVG PRESSURE GPRESSURE VOLUME PRESSAVG GPRESSAVG
ENERGY: 0 2.6464 3.5734 2.5883 0.0000 -10580.1347 1355.9535 0.0000 0.0000 1726.8747 -7488.4983 296.5374 -9215.3731 -7488.4983 296.5374 -694.5978 -621.5117 30197.7791 -694.5978 -621.5117
ENERGY: 300000 1.9344 2.4619 1.5964 0.0000 -10449.4187 1327.6221 0.0000 0.0000 1732.1216 -7383.6824 297.4384 -9115.8040 -7451.8105 298.2693 -974.8159 -874.7694 30934.3196 -586.5623 -513.4171
ENERGY: 600000 1.1053 5.0660 7.4956 0.0000 -10472.1852 1367.5499 0.0000 0.0000 1737.6423 -7353.3262 298.3864 -9090.9685 -7405.4191 300.0458 -461.2968 -394.0284 30791.7847 -541.5121 -470.8739
ENERGY: 900000 2.5047 5.0768 2.2091 0.0000 -10572.9896 1408.8032 0.0000 0.0000 1713.5616 -7440.8342 294.2513 -9154.3958 -7400.9875 299.7118 -58.4883 -48.9014 30170.7986 -508.1072 -452.0425
ENERGY: 1200000 2.6030 5.0652 0.9099 0.0000 -10595.8894 1397.6678 0.0000 0.0000 1746.7319 -7442.9116 299.9473 -9189.6435 -7406.5893 299.4342 -366.6828 -281.3351 30206.8595 -402.9845 -340.3187
ENERGY: 1500000 3.1703 2.8551 1.4695 0.0000 -10585.0942 1416.4394 0.0000 0.0000 1728.2477 -7432.9122 296.7732 -9161.1599 -7410.0033 299.8046 94.0672 134.5412 29865.1652 -335.7455 -276.4870
TCL: Running FEP window   6: Lambda1 0.7499999999999998 Lambda2 0.6999999999999997 [dLambda -0.050000000000000044]
TCL: Setting parameter firsttimestep to 0
TCL: Setting parameter alchLambda to 0.7499999999999998
Info: NONBONDED TABLE R-SQUARED SPACING: 0.0625
Info: NONBONDED TABLE SIZE: 705 POINTS
TCL: Setting parameter alchLambda2 to 0.6999999999999997
Info: NONBONDED TABLE R-SQUARED SPACING: 0.0625
Info: NONBONDED TABLE SIZE: 705 POINTS
TCL: Running for 1500000 steps
ETITLE: TS BOND ANGLE DIHED IMPRP ELECT VDW BOUNDARY MISC KINETIC TOTAL TEMP POTENTIAL TOTALAVG TEMPAVG PRESSURE GPRESSURE VOLUME PRESSAVG GPRESSAVG
ENERGY: 0 3.1703 2.8551 1.4695 0.0000 -10584.2420 1416.9139 0.0000 0.0000 1727.3488 -7432.4844 296.6188 -9159.8332 -7432.4844 296.6188 56.7109 135.3530 29865.1652 56.7109 135.3530
ENERGY: 300000 1.5978 4.7833 0.7005 0.0000 -10694.4786 1462.2159 0.0000 0.0000 1760.7580 -7464.4230 302.3558 -9225.1811 -7442.5600 297.5425 10.2452 121.1983 30213.2188 -70.5559 1.5207
ENERGY: 600000 3.2002 2.1329 2.6303 0.0000 -10592.5204 1461.1421 0.0000 0.0000 1708.4379 -7414.9769 293.3715 -9123.4148 -7445.0442 296.1928 65.2754 122.8200 30483.5241 227.4043 297.2080
ENERGY: 900000 3.0486 2.4053 1.0867 0.0000 -10646.0250 1462.4861 0.0000 0.0000 1739.0943 -7437.9041 298.6358 -9176.9984 -7452.2453 297.3300 359.4978 442.5480 30025.2201 239.9134 306.3446
ENERGY: 1200000 1.5446 4.2441 2.4086 0.0000 -10438.8202 1291.1776 0.0000 0.0000 1772.8977 -7366.5475 304.4404 -9139.4452 -7445.6272 297.9751 -993.1367 -1001.4182 30850.0366 25.7756 81.8128
ENERGY: 1500000 0.7605 5.6903 3.0280 0.0000 -10588.4057 1432.4681 0.0000 0.0000 1741.1856 -7405.2732 298.9949 -9146.4587 -7440.1955 298.8585 -205.0315 -125.7276 30567.2733 -57.4464 1.9343
TCL: Running FEP window   7: Lambda1 0.6999999999999997 Lambda2 0.6499999999999997 [dLambda -0.050000000000000044]
TCL: Setting parameter firsttimestep to 0
TCL: Setting parameter alchLambda to 0.6999999999999997
Info: NONBONDED TABLE R-SQUARED SPACING: 0.0625
Info: NONBONDED TABLE SIZE: 705 POINTS
TCL: Setting parameter alchLambda2 to 0.6499999999999997
Info: NONBONDED TABLE R-SQUARED SPACING: 0.0625
Info: NONBONDED TABLE SIZE: 705 POINTS
TCL: Running for 1500000 steps
ETITLE: TS BOND ANGLE DIHED IMPRP ELECT VDW BOUNDARY MISC KINETIC TOTAL TEMP POTENTIAL TOTALAVG TEMPAVG PRESSURE GPRESSURE VOLUME PRESSAVG GPRESSAVG
ENERGY: 0 0.7605 5.6903 3.0280 0.0000 -10587.4097 1432.5790 0.0000 0.0000 1740.2992 -7405.0527 298.8427 -9145.3519 -7405.0527 298.8427 -220.3112 -133.0414 30567.2733 -220.3112 -133.0414
ENERGY: 300000 1.3943 1.9567 3.7810 0.0000 -10433.1604 1338.8478 0.0000 0.0000 1735.2172 -7351.9634 297.9700 -9087.1806 -7391.2116 301.1389 -404.6933 -272.5504 30101.8459 33.2110 111.7683
ENERGY: 600000 2.8078 3.4278 2.0829 0.0000 -10662.8123 1422.5658 0.0000 0.0000 1737.7864 -7494.1416 298.4112 -9231.9281 -7395.7227 300.6658 -240.2998 -188.3707 29836.8017 -92.7201 -19.7726
ENERGY: 900000 3.0812 4.9559 5.5489 0.0000 -10621.8268 1426.3999 0.0000 0.0000 1717.0451 -7464.7959 294.8495 -9181.8410 -7401.2533 301.0949 -117.0796 -70.9116 29905.8808 -80.0951 -8.3348
ENERGY: 1200000 4.5052 4.3304 3.5666 0.0000 -10619.2537 1414.7130 0.0000 0.0000 1783.1901 -7408.9484 306.2078 -9192.1385 -7400.3819 302.1652 -68.8285 42.5764 29809.9731 -107.1681 -34.3136
ENERGY: 1500000 2.1143 4.3327 3.4775 0.0000 -10693.4582 1493.7908 0.0000 0.0000 1727.1310 -7462.6118 296.5814 -9189.7428 -7414.4444 301.5818 236.0586 285.5957 30469.3586 -45.9624 27.2557
TCL: Running FEP window   8: Lambda1 0.6499999999999997 Lambda2 0.5999999999999996 [dLambda -0.050000000000000044]
TCL: Setting parameter firsttimestep to 0
TCL: Setting parameter alchLambda to 0.6499999999999997
Info: NONBONDED TABLE R-SQUARED SPACING: 0.0625
Info: NONBONDED TABLE SIZE: 705 POINTS
TCL: Setting parameter alchLambda2 to 0.5999999999999996
Info: NONBONDED TABLE R-SQUARED SPACING: 0.0625
Info: NONBONDED TABLE SIZE: 705 POINTS
TCL: Running for 1500000 steps
ETITLE: TS BOND ANGLE DIHED IMPRP ELECT VDW BOUNDARY MISC KINETIC TOTAL TEMP POTENTIAL TOTALAVG TEMPAVG PRESSURE GPRESSURE VOLUME PRESSAVG GPRESSAVG
ENERGY: 0 2.1143 4.3327 3.4775 0.0000 -10692.2914 1492.9237 0.0000 0.0000 1726.3079 -7463.1352 296.4401 -9189.4431 -7463.1352 296.4401 196.5722 273.3781 30469.3586 196.5722 273.3781
ENERGY: 300000 1.6065 4.9256 3.1946 0.0000 -10683.4314 1462.9921 0.0000 0.0000 1700.9468 -7509.7658 292.0851 -9210.7127 -7453.2167 297.8302 132.9474 175.5198 30373.5082 -282.7549 -216.9206
ENERGY: 600000 1.6309 2.2450 3.0121 0.0000 -10590.7220 1395.2098 0.0000 0.0000 1679.7900 -7508.8343 288.4521 -9188.6243 -7456.5202 297.9544 -362.1588 -335.1949 30139.9826 -400.9406 -333.0666
ENERGY: 900000 3.4787 4.2270 3.5532 0.0000 -10550.7494 1419.3064 0.0000 0.0000 1706.3191 -7413.8650 293.0076 -9120.1841 -7463.7049 296.2358 -170.1355 -87.1241 30237.5739 -380.8631 -311.7197
ENERGY: 1200000 2.5323 9.1834 1.9314 0.0000 -10611.5053 1448.2700 0.0000 0.0000 1737.3839 -7412.2044 298.3420 -9149.5882 -7452.7444 297.3323 254.3060 384.5194 29749.8186 -229.6105 -157.4312
ENERGY: 1500000 5.5314 3.8730 2.0123 0.0000 -10513.9488 1334.7495 0.0000 0.0000 1738.0059 -7429.7768 298.4489 -9167.7827 -7436.8138 298.6556 -870.6521 -882.3618 30330.9957 -191.9411 -125.8955
TCL: Running FEP window   9: Lambda1 0.5999999999999996 Lambda2 0.5499999999999996 [dLambda -0.050000000000000044]
TCL: Setting parameter firsttimestep to 0
TCL: Setting parameter alchLambda to 0.5999999999999996
Info: NONBONDED TABLE R-SQUARED SPACING: 0.0625
Info: NONBONDED TABLE SIZE: 705 POINTS
TCL: Setting parameter alchLambda2 to 0.5499999999999996
Info: NONBONDED TABLE R-SQUARED SPACING: 0.0625
Info: NONBONDED TABLE SIZE: 705 POINTS
TCL: Running for 1500000 steps
ETITLE: TS BOND ANGLE DIHED IMPRP ELECT VDW BOUNDARY MISC KINETIC TOTAL TEMP POTENTIAL TOTALAVG TEMPAVG PRESSURE GPRESSURE VOLUME PRESSAVG GPRESSAVG
ENERGY: 0 5.5314 3.8730 2.0123 0.0000 -10514.1431 1334.5298 0.0000 0.0000 1737.1402 -7431.0565 298.3002 -9168.1967 -7431.0565 298.3002 -972.5289 -890.8687 30330.9957 -972.5289 -890.8687
ENERGY: 300000 0.9750 3.4689 5.8594 0.0000 -10489.9649 1357.1894 0.0000 0.0000 1751.3618 -7371.1105 300.7423 -9122.4723 -7418.5196 299.8282 -573.0771 -482.8774 30489.7475 -48.5432 46.3169
ENERGY: 600000 1.3818 2.5156 0.8553 0.0000 -10551.9242 1372.4273 0.0000 0.0000 1740.1027 -7434.6414 298.8089 -9174.7441 -7429.9553 298.1079 -413.0867 -350.0099 30288.8108 -145.6567 -72.4099
ENERGY: 900000 1.6129 2.7917 1.7014 0.0000 -10658.8686 1427.3944 0.0000 0.0000 1727.0287 -7498.3396 296.5638 -9225.3683 -7442.5288 298.0554 17.4330 86.9963 29787.8450 -83.7745 -13.9137
ENERGY: 1200000 0.5062 2.9426 1.1451 0.0000 -10635.2487 1456.0015 0.0000 0.0000 1724.7347 -7449.9186 296.1699 -9174.6533 -7433.4748 298.3290 112.4780 151.9277 30584.5864 -35.5542 39.1181
ENERGY: 1500000 0.9098 5.8121 1.8634 0.0000 -10692.6809 1435.2451 0.0000 0.0000 1714.1285 -7534.7220 294.3486 -9248.8506 -7437.2070 298.6850 -164.3977 -102.9784 29967.7609 -4.2136 68.0333
TCL: Running FEP window  10: Lambda1 0.5499999999999996 Lambda2 0.4999999999999996 [dLambda -0.04999999999999999]
TCL: Setting parameter firsttimestep to 0
TCL: Setting parameter alchLambda to 0.5499999999999996
Info: NONBONDED TABLE R-SQUARED SPACING: 0.0625
Info: NONBONDED TABLE SIZE: 705 POINTS
TCL: Setting parameter alchLambda2 to 0.4999999999999996
Info: NONBONDED TABLE R-SQUARED SPACING: 0.0625
Info: NONBONDED TABLE SIZE: 705 POINTS
TCL: Running for 1500000 steps
ETITLE: TS BOND ANGLE DIHED IMPRP ELECT VDW BOUNDARY MISC KINETIC TOTAL TEMP POTENTIAL TOTALAVG TEMPAVG PRESSURE GPRESSURE VOLUME PRESSAVG GPRESSAVG
ENERGY: 0 0.9098 5.8121 1.8634 0.0000 -10692.7132 1435.8574 0.0000 0.0000 1713.2255 -7535.0450 294.1936 -9248.2706 -7535.0450 294.1936 -176.2331 -101.7761 29967.7609 -176.2331 -101.7761
ENERGY: 300000 2.3131 3.4709 1.9904 0.0000 -10677.1855 1453.3806 0.0000 0.0000 1770.4281 -7445.6024 304.0164 -9216.0306 -7466.2527 299.2478 -62.6746 -4.2745 30369.9614 123.3367 177.0128
ENERGY: 600000 1.4943 4.7545 2.5903 0.0000 -10631.4072 1402.8557 0.0000 0.0000 1751.2510 -7468.4614 300.7233 -9219.7124 -7451.8290 298.6718 -518.8990 -455.9652 30303.0517 35.4310 84.7792
ENERGY: 900000 3.1544 4.6928 1.5905 0.0000 -10565.7128 1406.9503 0.0000 0.0000 1700.0957 -7449.2291 291.9389 -9149.3248 -7444.1196 299.0505 -110.5218 -64.3864 29910.5466 116.8891 169.4869
ENERGY: 1200000 0.5135 2.9024 0.8972 0.0000 -10630.6214 1482.1581 0.0000 0.0000 1746.2309 -7397.9194 299.8612 -9144.1503 -7438.7814 299.9302 330.3847 379.6108 30436.4227 80.3969 133.6376
ENERGY: 1500000 0.6775 4.7062 2.4307 0.0000 -10526.4909 1395.9110 0.0000 0.0000 1749.3791 -7373.3864 300.4018 -9122.7655 -7435.8759 300.2765 -86.6501 -39.0536 30048.7684 59.7688 108.6131
TCL: Running FEP window  11: Lambda1 0.4999999999999996 Lambda2 0.4499999999999996 [dLambda -0.04999999999999999]
TCL: Setting parameter firsttimestep to 0
TCL: Setting parameter alchLambda to 0.4999999999999996
Info: NONBONDED TABLE R-SQUARED SPACING: 0.0625
Info: NONBONDED TABLE SIZE: 705 POINTS
TCL: Setting parameter alchLambda2 to 0.4499999999999996
Info: NONBONDED TABLE R-SQUARED SPACING: 0.0625
Info: NONBONDED TABLE SIZE: 705 POINTS
TCL: Running for 1500000 steps
ETITLE: TS BOND ANGLE DIHED IMPRP ELECT VDW BOUNDARY MISC KINETIC TOTAL TEMP POTENTIAL TOTALAVG TEMPAVG PRESSURE GPRESSURE VOLUME PRESSAVG GPRESSAVG
ENERGY: 0 0.6775 4.7062 2.4307 0.0000 -10526.5285 1396.1931 0.0000 0.0000 1748.4791 -7374.0419 300.2473 -9122.5210 -7374.0419 300.2473 -133.1931 -43.4991 30048.7684 -133.1931 -43.4991
ENERGY: 300000 3.8963 2.5649 2.1655 0.0000 -10660.4287 1458.4649 0.0000 0.0000 1743.7285 -7449.6086 299.4315 -9193.3371 -7435.4302 300.7350 374.6530 431.2186 29587.3711 -136.1303 -73.0285
ENERGY: 600000 5.9231 4.2013 2.6222 0.0000 -10792.0476 1538.5512 0.0000 0.0000 1761.2216 -7479.5282 302.4354 -9240.7498 -7425.4592 300.3922 717.1268 826.5734 29765.3965 61.9464 130.7962
ENERGY: 900000 5.4586 5.6884 3.8453 0.0000 -10769.3971 1523.2991 0.0000 0.0000 1790.0347 -7441.0710 307.3832 -9231.1056 -7418.1278 300.5048 593.2014 689.9924 29839.1491 108.4188 172.4490
ENERGY: 1200000 1.8573 3.7220 4.9538 0.0000 -10565.2897 1378.1088 0.0000 0.0000 1779.5273 -7397.1206 305.5789 -9176.6479 -7420.8256 300.7956 -93.3118 -82.4949 29687.4605 49.2171 108.7655
ENERGY: 1500000 4.3197 5.1650 2.0573 0.0000 -10593.8828 1469.0455 0.0000 0.0000 1747.1042 -7366.1911 300.0112 -9113.2953 -7410.7304 302.1734 484.8973 574.2728 30240.5290 42.6974 103.4068
TCL: Running FEP window  12: Lambda1 0.4499999999999996 Lambda2 0.39999999999999963 [dLambda -0.04999999999999999]
TCL: Setting parameter firsttimestep to 0
TCL: Setting parameter alchLambda to 0.4499999999999996
Info: NONBONDED TABLE R-SQUARED SPACING: 0.0625
Info: NONBONDED TABLE SIZE: 705 POINTS
TCL: Setting parameter alchLambda2 to 0.39999999999999963
Info: NONBONDED TABLE R-SQUARED SPACING: 0.0625
Info: NONBONDED TABLE SIZE: 705 POINTS
TCL: Running for 1500000 steps
ETITLE: TS BOND ANGLE DIHED IMPRP ELECT VDW BOUNDARY MISC KINETIC TOTAL TEMP POTENTIAL TOTALAVG TEMPAVG PRESSURE GPRESSURE VOLUME PRESSAVG GPRESSAVG
ENERGY: 0 4.3196 5.1650 2.0573 0.0000 -10593.8824 1469.5241 0.0000 0.0000 1746.2614 -7366.5549 299.8665 -9112.8164 -7366.5549 299.8665 487.2868 572.5699 30240.5290 487.2868 572.5699
ENERGY: 300000 1.6341 5.0520 4.0088 0.0000 -10539.8656 1347.0829 0.0000 0.0000 1809.3374 -7372.7503 310.6978 -9182.0877 -7394.8211 299.9750 -772.2197 -669.4097 30717.4005 -215.3566 -160.1598
ENERGY: 600000 2.2739 4.1971 1.9037 0.0000 -10649.5105 1458.9518 0.0000 0.0000 1810.3284 -7371.8556 310.8680 -9182.1840 -7400.7063 302.0549 363.3262 442.3449 29587.1110 -26.5619 20.1526
ENERGY: 900000 1.9027 5.8142 2.7924 0.0000 -10601.2199 1453.3803 0.0000 0.0000 1803.7849 -7333.5454 309.7444 -9137.3303 -7396.2911 302.2926 -7.2795 117.4383 30384.9220 41.3052 101.0263
ENERGY: 1200000 2.3547 4.0001 2.4907 0.0000 -10535.0589 1408.1558 0.0000 0.0000 1718.3152 -7399.7424 295.0676 -9118.0576 -7398.3167 301.5670 -12.8235 64.3385 29938.2880 -23.6914 40.7914
ENERGY: 1500000 2.6570 2.0710 1.6852 0.0000 -10710.7724 1432.1219 0.0000 0.0000 1795.7017 -7476.5356 308.3563 -9272.2373 -7405.4928 301.7911 69.6759 114.6197 29497.4947 -113.3480 -48.2938
TCL: Running FEP window  13: Lambda1 0.39999999999999963 Lambda2 0.34999999999999964 [dLambda -0.04999999999999999]
TCL: Setting parameter firsttimestep to 0
TCL: Setting parameter alchLambda to 0.39999999999999963
Info: NONBONDED TABLE R-SQUARED SPACING: 0.0625
Info: NONBONDED TABLE SIZE: 705 POINTS
TCL: Setting parameter alchLambda2 to 0.34999999999999964
Info: NONBONDED TABLE R-SQUARED SPACING: 0.0625
Info: NONBONDED TABLE SIZE: 705 POINTS
TCL: Running for 1500000 steps
ETITLE: TS BOND ANGLE DIHED IMPRP ELECT VDW BOUNDARY MISC KINETIC TOTAL TEMP POTENTIAL TOTALAVG TEMPAVG PRESSURE GPRESSURE VOLUME PRESSAVG GPRESSAVG
ENERGY: 0 2.6570 2.0710 1.6852 0.0000 -10710.7721 1432.3230 0.0000 0.0000 1794.8387 -7477.1971 308.2081 -9272.0358 -7477.1971 308.2081 14.8914 109.1571 29497.4947 14.8914 109.1571
ENERGY: 300000 1.2052 5.0871 0.6846 0.0000 -10553.5881 1434.6830 0.0000 0.0000 1717.6303 -7394.2979 294.9500 -9111.9281 -7419.8806 301.8647 121.4638 131.7397 30279.8706 135.0131 190.3274
ENERGY: 600000 5.0782 4.6851 3.4050 0.0000 -10806.5444 1518.4762 0.0000 0.0000 1758.2180 -7516.6821 301.9196 -9274.9000 -7448.1694 299.3842 684.9876 730.2721 29891.5474 280.3286 341.4584
ENERGY: 900000 2.8798 5.1010 2.2036 0.0000 -10538.8867 1428.8967 0.0000 0.0000 1699.4858 -7400.3197 291.8342 -9099.8055 -7457.5664 298.1455 141.7763 144.8705 30242.6794 358.0354 408.0982
ENERGY: 1200000 2.7052 5.2680 0.8210 0.0000 -10662.3518 1449.6608 0.0000 0.0000 1796.0601 -7407.8368 308.4179 -9203.8969 -7448.7534 298.4694 183.7890 218.2106 30157.6451 193.2607 235.9836
ENERGY: 1500000 2.4157 4.4461 3.1626 0.0000 -10620.6837 1436.0842 0.0000 0.0000 1772.2586 -7402.3166 304.3307 -9174.5752 -7450.9961 298.4133 -128.6661 -73.2276 30433.8394 88.5171 137.8839
TCL: Running FEP window  14: Lambda1 0.34999999999999964 Lambda2 0.29999999999999966 [dLambda -0.04999999999999999]
TCL: Setting parameter firsttimestep to 0
TCL: Setting parameter alchLambda to 0.34999999999999964
Info: NONBONDED TABLE R-SQUARED SPACING: 0.0625
Info: NONBONDED TABLE SIZE: 705 POINTS
TCL: Setting parameter alchLambda2 to 0.29999999999999966
Info: NONBONDED TABLE R-SQUARED SPACING: 0.0625
Info: NONBONDED TABLE SIZE: 705 POINTS
TCL: Running for 1500000 steps
ETITLE: TS BOND ANGLE DIHED IMPRP ELECT VDW BOUNDARY MISC KINETIC TOTAL TEMP POTENTIAL TOTALAVG TEMPAVG PRESSURE GPRESSURE VOLUME PRESSAVG GPRESSAVG
ENERGY: 0 2.4157 4.4461 3.1626 0.0000 -10620.6828 1436.4032 0.0000 0.0000 1771.3773 -7402.8779 304.1794 -9174.2552 -7402.8779 304.1794 -154.8159 -73.0324 30433.8394 -154.8159 -73.0324
ENERGY: 300000 3.6194 7.2761 4.6223 0.0000 -10544.2317 1368.0173 0.0000 0.0000 1732.8686 -7427.8280 297.5667 -9160.6967 -7395.5449 303.2759 -621.7106 -538.4562 30185.1229 -191.1633 -124.6447
ENERGY: 600000 1.6834 5.2907 2.1870 0.0000 -10521.4955 1383.9622 0.0000 0.0000 1722.1073 -7406.2649 295.7188 -9128.3722 -7409.4680 299.7598 -384.9940 -322.1086 30253.2485 -104.3257 -27.9899
ENERGY: 900000 3.6950 6.7013 1.9389 0.0000 -10526.6828 1370.1170 0.0000 0.0000 1786.3081 -7357.9225 306.7433 -9144.2306 -7407.0065 299.8753 -824.3880 -768.2933 30604.6059 -76.8420 0.9100
ENERGY: 1200000 7.1031 3.5358 1.2323 0.0000 -10556.1654 1423.7632 0.0000 0.0000 1716.4585 -7404.0725 294.7487 -9120.5310 -7424.3013 298.6909 148.5513 251.9094 29860.9535 107.4039 188.1193
ENERGY: 1500000 4.8445 4.2653 3.5418 0.0000 -10542.5294 1339.7035 0.0000 0.0000 1762.4106 -7427.7637 302.6396 -9190.1743 -7428.1623 298.8836 -954.7648 -863.9559 30343.9980 45.3575 120.5996
TCL: Running FEP window  15: Lambda1 0.29999999999999966 Lambda2 0.24999999999999967 [dLambda -0.04999999999999999]
TCL: Setting parameter firsttimestep to 0
TCL: Setting parameter alchLambda to 0.29999999999999966
Info: NONBONDED TABLE R-SQUARED SPACING: 0.0625
Info: NONBONDED TABLE SIZE: 705 POINTS
TCL: Setting parameter alchLambda2 to 0.24999999999999967
Info: NONBONDED TABLE R-SQUARED SPACING: 0.0625
Info: NONBONDED TABLE SIZE: 705 POINTS
TCL: Running for 1500000 steps
ETITLE: TS BOND ANGLE DIHED IMPRP ELECT VDW BOUNDARY MISC KINETIC TOTAL TEMP POTENTIAL TOTALAVG TEMPAVG PRESSURE GPRESSURE VOLUME PRESSAVG GPRESSAVG
ENERGY: 0 4.8445 4.2653 3.5418 0.0000 -10542.5291 1339.6815 0.0000 0.0000 1761.5018 -7428.6942 302.4836 -9190.1960 -7428.6942 302.4836 -950.9591 -868.3160 30343.9980 -950.9591 -868.3160
ENERGY: 300000 1.5871 4.6910 2.4479 0.0000 -10520.9152 1395.0758 0.0000 0.0000 1759.0241 -7358.0892 302.0581 -9117.1134 -7383.9752 304.5144 -207.6815 -109.8321 30275.5344 -592.2601 -531.5768
ENERGY: 600000 3.7896 3.0151 2.3944 0.0000 -10623.6622 1385.3435 0.0000 0.0000 1762.7048 -7466.4148 302.6901 -9229.1196 -7417.2883 303.6765 -590.7500 -494.5813 30053.2904 -386.5678 -330.1977
ENERGY: 900000 2.8681 4.1368 1.9776 0.0000 -10641.0747 1441.1070 0.0000 0.0000 1791.2179 -7399.7673 307.5864 -9190.9852 -7406.2847 304.1697 -73.7031 -56.5117 30149.7523 -263.5454 -209.0956
ENERGY: 1200000 4.3662 7.1475 0.7473 0.0000 -10558.9207 1385.2352 0.0000 0.0000 1744.0548 -7417.3697 299.4876 -9161.4245 -7410.0600 302.3798 -530.1528 -506.0667 30201.3590 -222.1537 -166.7483
ENERGY: 1500000 0.4692 5.2031 3.1601 0.0000 -10640.8782 1434.8303 0.0000 0.0000 1804.7532 -7392.4624 309.9106 -9197.2156 -7416.1985 302.7911 103.9055 229.2289 29818.7578 -180.0108 -124.4779
TCL: Running FEP window  16: Lambda1 0.24999999999999967 Lambda2 0.19999999999999968 [dLambda -0.04999999999999999]
TCL: Setting parameter firsttimestep to 0
TCL: Setting parameter alchLambda to 0.24999999999999967
Info: NONBONDED TABLE R-SQUARED SPACING: 0.0625
Info: NONBONDED TABLE SIZE: 705 POINTS
TCL: Setting parameter alchLambda2 to 0.19999999999999968
Info: NONBONDED TABLE R-SQUARED SPACING: 0.0625
Info: NONBONDED TABLE SIZE: 705 POINTS
TCL: Running for 1500000 steps
ETITLE: TS BOND ANGLE DIHED IMPRP ELECT VDW BOUNDARY MISC KINETIC TOTAL TEMP POTENTIAL TOTALAVG TEMPAVG PRESSURE GPRESSURE VOLUME PRESSAVG GPRESSAVG
ENERGY: 0 0.4692 5.2031 3.1601 0.0000 -10640.8779 1434.5781 0.0000 0.0000 1803.8966 -7393.5708 309.7635 -9197.4675 -7393.5708 309.7635 129.6358 221.8998 29818.7578 129.6358 221.8998
ENERGY: 300000 1.3713 3.6530 5.0104 0.0000 -10582.3731 1306.9252 0.0000 0.0000 1754.4615 -7510.9518 301.2746 -9265.4133 -7436.1197 303.0699 -1299.2715 -1241.0399 30123.3204 -26.4110 7.6612
ENERGY: 600000 2.9914 4.9115 1.3510 0.0000 -10545.8069 1399.9303 0.0000 0.0000 1728.0739 -7408.5488 296.7433 -9136.6227 -7428.8065 302.8456 -133.3662 -131.9409 29943.2259 -111.3037 -76.0577
ENERGY: 900000 1.7629 2.8582 1.4200 0.0000 -10667.8599 1438.0412 0.0000 0.0000 1736.6472 -7487.1303 298.2155 -9223.7775 -7436.2443 301.6565 -134.3916 -65.1989 30086.9471 -87.7117 -47.4847
ENERGY: 1200000 4.2493 4.3737 3.0955 0.0000 -10725.6622 1476.4822 0.0000 0.0000 1781.3103 -7456.1511 305.8850 -9237.4615 -7436.9357 301.9273 302.3115 309.9918 30011.6659 -86.1704 -46.6768
ENERGY: 1500000 2.8588 4.3005 2.6402 0.0000 -10731.2884 1462.7286 0.0000 0.0000 1717.4983 -7541.2620 294.9273 -9258.7603 -7444.4304 300.9865 452.0405 499.5927 29462.6732 16.1769 60.9095
TCL: Running FEP window  17: Lambda1 0.19999999999999968 Lambda2 0.1499999999999997 [dLambda -0.04999999999999999]
TCL: Setting parameter firsttimestep to 0
TCL: Setting parameter alchLambda to 0.19999999999999968
Info: NONBONDED TABLE R-SQUARED SPACING: 0.0625
Info: NONBONDED TABLE SIZE: 705 POINTS
TCL: Setting parameter alchLambda2 to 0.1499999999999997
Info: NONBONDED TABLE R-SQUARED SPACING: 0.0625
Info: NONBONDED TABLE SIZE: 705 POINTS
TCL: Running for 1500000 steps
ETITLE: TS BOND ANGLE DIHED IMPRP ELECT VDW BOUNDARY MISC KINETIC TOTAL TEMP POTENTIAL TOTALAVG TEMPAVG PRESSURE GPRESSURE VOLUME PRESSAVG GPRESSAVG
ENERGY: 0 2.8588 4.3005 2.6402 0.0000 -10731.2890 1462.9665 0.0000 0.0000 1716.5998 -7541.9232 294.7730 -9258.5230 -7541.9232 294.7730 413.7838 498.7101 29462.6732 413.7838 498.7101
ENERGY: 300000 0.9241 4.5374 1.7936 0.0000 -10754.0746 1542.8481 0.0000 0.0000 1751.3873 -7452.5841 300.7467 -9203.9714 -7426.0665 298.1423 668.7680 783.4888 29961.0200 449.4423 527.3740
ENERGY: 600000 1.2532 2.5484 2.0548 0.0000 -10744.7559 1493.5385 0.0000 0.0000 1767.5915 -7477.7695 303.5293 -9245.3610 -7435.7032 300.5225 376.4712 473.8309 29607.6885 75.7084 152.7410
ENERGY: 900000 1.5672 2.9767 1.9849 0.0000 -10645.9834 1455.6531 0.0000 0.0000 1792.7625 -7391.0391 307.8516 -9183.8016 -7424.6065 302.3077 311.4707 395.7095 29629.8114 57.6773 134.7972
ENERGY: 1200000 2.2399 6.2339 1.8266 0.0000 -10682.8241 1497.5438 0.0000 0.0000 1806.9496 -7368.0302 310.2878 -9174.9799 -7425.2717 302.0013 452.1686 508.3096 29985.7802 68.5595 138.8884
ENERGY: 1500000 0.5212 4.6093 4.6683 0.0000 -10652.2015 1474.7638 0.0000 0.0000 1768.1641 -7399.4749 303.6276 -9167.6390 -7417.0742 301.3101 397.3232 492.6515 29904.5676 102.2913 171.5153
TCL: Running FEP window  18: Lambda1 0.1499999999999997 Lambda2 0.09999999999999969 [dLambda -0.05 ]
TCL: Setting parameter firsttimestep to 0
TCL: Setting parameter alchLambda to 0.1499999999999997
Info: NONBONDED TABLE R-SQUARED SPACING: 0.0625
Info: NONBONDED TABLE SIZE: 705 POINTS
TCL: Setting parameter alchLambda2 to 0.09999999999999969
Info: NONBONDED TABLE R-SQUARED SPACING: 0.0625
Info: NONBONDED TABLE SIZE: 705 POINTS
TCL: Running for 1500000 steps
ETITLE: TS BOND ANGLE DIHED IMPRP ELECT VDW BOUNDARY MISC KINETIC TOTAL TEMP POTENTIAL TOTALAVG TEMPAVG PRESSURE GPRESSURE VOLUME PRESSAVG GPRESSAVG
ENERGY: 0 0.5212 4.6093 4.6683 0.0000 -10652.2015 1474.8033 0.0000 0.0000 1767.2768 -7400.3225 303.4752 -9167.5994 -7400.3225 303.4752 406.6561 492.2960 29904.5676 406.6561 492.2960
ENERGY: 300000 2.9720 6.5060 2.2121 0.0000 -10698.7884 1496.8303 0.0000 0.0000 1760.3314 -7429.9366 302.2826 -9190.2680 -7416.3586 305.5573 563.7973 552.2021 29599.4701 81.6043 127.6650
ENERGY: 600000 5.6235 2.3733 2.0183 0.0000 -10657.6190 1486.0920 0.0000 0.0000 1768.3329 -7393.1791 303.6566 -9161.5120 -7431.9988 303.9039 443.5704 530.3620 29881.5597 263.2700 308.1241
ENERGY: 900000 1.7380 4.0942 1.4261 0.0000 -10554.4124 1373.4685 0.0000 0.0000 1745.0102 -7428.6755 299.6516 -9173.6856 -7431.2136 301.7196 -731.0554 -679.9335 30500.9619 87.3223 136.1530
ENERGY: 1200000 5.9312 2.1268 0.5655 0.0000 -10807.3654 1490.4637 0.0000 0.0000 1696.9693 -7611.3089 291.4021 -9308.2782 -7437.2739 300.7456 -186.8522 -105.7224 29845.3571 20.1636 69.9899
ENERGY: 1500000 3.4076 3.9601 1.8497 0.0000 -10526.9017 1409.9762 0.0000 0.0000 1678.0709 -7429.6371 288.1569 -9107.7080 -7434.7411 300.2472 -212.6231 -205.9686 30515.5271 -11.7041 40.2832
TCL: Running FEP window  19: Lambda1 0.09999999999999969 Lambda2 0.049999999999999684 [dLambda -0.05 ]
TCL: Setting parameter firsttimestep to 0
TCL: Setting parameter alchLambda to 0.09999999999999969
Info: NONBONDED TABLE R-SQUARED SPACING: 0.0625
Info: NONBONDED TABLE SIZE: 705 POINTS
TCL: Setting parameter alchLambda2 to 0.049999999999999684
Info: NONBONDED TABLE R-SQUARED SPACING: 0.0625
Info: NONBONDED TABLE SIZE: 705 POINTS
TCL: Running for 1500000 steps
ETITLE: TS BOND ANGLE DIHED IMPRP ELECT VDW BOUNDARY MISC KINETIC TOTAL TEMP POTENTIAL TOTALAVG TEMPAVG PRESSURE GPRESSURE VOLUME PRESSAVG GPRESSAVG
ENERGY: 0 3.4076 3.9601 1.8497 0.0000 -10526.9024 1410.2386 0.0000 0.0000 1677.2264 -7430.2199 288.0118 -9107.4463 -7430.2199 288.0118 -296.3808 -207.1748 30515.5271 -296.3808 -207.1748
ENERGY: 300000 4.6678 5.6075 0.7567 0.0000 -10640.2770 1443.6105 0.0000 0.0000 1794.2228 -7391.4117 308.1024 -9185.6345 -7421.9118 299.2108 -130.4419 -38.3565 30300.2638 -346.5100 -266.1117
ENERGY: 600000 1.9650 3.0538 1.6916 0.0000 -10667.8010 1443.3270 0.0000 0.0000 1783.7201 -7434.0434 306.2989 -9217.7635 -7407.7135 302.4861 299.3052 359.7745 29537.0292 -264.1199 -205.8845
ENERGY: 900000 1.5956 6.0775 2.0065 0.0000 -10601.7882 1427.7114 0.0000 0.0000 1739.2419 -7425.1554 298.6611 -9164.3973 -7415.0893 301.1380 -5.8812 81.5541 29844.8962 -166.7244 -106.1604
ENERGY: 1200000 3.7346 4.4938 4.0017 0.0000 -10696.6956 1543.3920 0.0000 0.0000 1781.0964 -7359.9771 305.8483 -9141.0735 -7409.4692 301.8610 927.3652 997.7640 29867.0870 -1.5655 56.6602
ENERGY: 1500000 5.2894 7.9297 3.1550 0.0000 -10518.2056 1375.8032 0.0000 0.0000 1766.0126 -7360.0155 303.2581 -9126.0282 -7413.0393 301.0857 -587.5797 -529.2227 30373.6380 -11.5105 50.4958
TCL: Running FEP window  20: Lambda1 0.049999999999999684 Lambda2 0.0    [dLambda -0.049999999999999684]
TCL: Setting parameter firsttimestep to 0
TCL: Setting parameter alchLambda to 0.049999999999999684
Info: NONBONDED TABLE R-SQUARED SPACING: 0.0625
Info: NONBONDED TABLE SIZE: 705 POINTS
TCL: Setting parameter alchLambda2 to 0.0
Info: NONBONDED TABLE R-SQUARED SPACING: 0.0625
Info: NONBONDED TABLE SIZE: 705 POINTS
TCL: Running for 1500000 steps
ETITLE: TS BOND ANGLE DIHED IMPRP ELECT VDW BOUNDARY MISC KINETIC TOTAL TEMP POTENTIAL TOTALAVG TEMPAVG PRESSURE GPRESSURE VOLUME PRESSAVG GPRESSAVG
ENERGY: 0 5.2894 7.9297 3.1550 0.0000 -10518.2058 1375.3879 0.0000 0.0000 1765.1401 -7361.3037 303.1083 -9126.4438 -7361.3037 303.1083 -614.8040 -533.8310 30373.6380 -614.8040 -533.8310
ENERGY: 300000 1.1332 3.7326 2.8826 0.0000 -10637.9223 1477.9042 0.0000 0.0000 1700.6669 -7451.6028 292.0370 -9152.2697 -7424.9387 300.9525 206.5016 306.6821 30212.4805 18.0920 85.0888
ENERGY: 600000 2.6138 5.2770 0.7015 0.0000 -10521.4418 1348.2543 0.0000 0.0000 1776.5268 -7388.0684 305.0636 -9164.5952 -7415.4042 300.7584 -747.9387 -684.9916 30264.7501 -45.5733 23.1703
ENERGY: 900000 3.5958 6.9917 5.5268 0.0000 -10659.0232 1477.2930 0.0000 0.0000 1766.5992 -7399.0167 303.3589 -9165.6159 -7422.2913 299.9705 300.6316 319.3467 30049.6692 53.4900 123.9762
ENERGY: 1200000 1.5852 3.5417 3.2635 0.0000 -10772.5044 1487.8378 0.0000 0.0000 1708.9492 -7567.3270 293.4593 -9276.2762 -7440.4535 300.0429 92.1346 114.6843 29780.3176 -33.5906 32.9782
ENERGY: 1500000 1.3719 3.7530 0.5737 0.0000 -10589.3327 1402.7755 0.0000 0.0000 1740.7133 -7440.1453 298.9138 -9180.8586 -7444.1470 299.6074 -312.8155 -292.1445 30148.4154 -110.5194 -44.0301
TCL: Exiting due to exit command.
