Info: SIMULATION PARAMETERS:
Info: TIMESTEP               2
Info: NUMBER OF STEPS        0
Info: STEPS PER CYCLE        10
Info: PERIODIC CELL BASIS 1  31.5846 0 0
Info: PERIODIC CELL BASIS 2  0 31.1631 0
Info: PERIODIC CELL BASIS 3  0 0 31.3682
Info: PERIODIC CELL CENTER   0 0 0
Info: WRAPPING WATERS AROUND PERIODIC BOUNDARIES ON OUTPUT.
Info: WRAPPING ALL CLUSTERS AROUND PERIODIC BOUNDARIES ON OUTPUT.
Info: FIRST LDB TIMESTEP     50
Info: LAST LDB TIMESTEP     -1
Info: HOM BACKGROUND SCALING 1
Info: PME BACKGROUND SCALING 1
Info: MIN ATOMS PER PATCH    40
Info: EMPTY PATCH LOAD       40 ATOMS
Info: VELOCITY FILE          mobley_2008055_equil.vel
Info: CENTER OF MASS MOVING INITIALLY? NO
Info: DIELECTRIC             1
Info: EXCLUDE                SCALED ONE-FOUR
Info: 1-4 ELECTROSTATICS SCALED BY 0.833333
Info: MODIFIED 1-4 VDW PARAMETERS WILL BE USED
Info: DCD FILENAME           mobley_2008055_prod.dcd
Info: DCD FREQUENCY          100000
Info: DCD FIRST STEP         100000
Info: DCD FILE WILL CONTAIN UNIT CELL DATA
Info: XST FILENAME           mobley_2008055_prod.xst
Info: XST FREQUENCY          100000
Info: NO VELOCITY DCD OUTPUT
Info: NO FORCE DCD OUTPUT
Info: OUTPUT FILENAME        mobley_2008055_prod
Info: BINARY OUTPUT FILES WILL BE USED
Info: RESTART FILENAME       mobley_2008055_prod.restart
Info: RESTART FREQUENCY      100000
Info: BINARY RESTART FILES WILL BE USED
Info: CUTOFF                 9
Info: PAIRLIST DISTANCE      11
Info: PAIRLIST SHRINK RATE   0.01
Info: PAIRLIST GROW RATE     0.01
Info: PAIRLIST TRIGGER       0.3
Info: PAIRLISTS PER CYCLE    2
Info: PAIRLISTS ENABLED
Info: MARGIN                 2
Info: HYDROGEN GROUP CUTOFF  2.5
Info: PATCH DIMENSION        15.5
Info: ENERGY OUTPUT STEPS    100000
Info: ENERGY EVALUATION STEPS    100000
Info: OUTPUT ENERGY PRECISION 4
Info: CROSSTERM ENERGY INCLUDED IN DIHEDRAL
Info: TIMING OUTPUT STEPS    1000000
Info: PRESSURE OUTPUT STEPS  100000
Info: ALCHEMICAL FEP ON
Info: FEP CURRENT LAMBDA VALUE     1
Info: FEP COMPARISON LAMBDA VALUE  0.95
Info: FEP INTRA-ALCHEMICAL NON-BONDED INTERACTIONS WILL BE RETAINED
Info: FEP INTRA-ALCHEMICAL BONDED INTERACTIONS WILL BE RETAINED
Info: FEP VDW SHIFTING COEFFICIENT 5
Info: FEP ELEC. ACTIVE FOR ANNIHILATED PARTICLES BETWEEN LAMBDA = 0 AND LAMBDA = 0.5
Info: FEP ELEC. ACTIVE FOR EXNIHILATED PARTICLES BETWEEN LAMBDA = 0.5 AND LAMBDA = 1
Info: FEP VDW ACTIVE FOR ANNIHILATED PARTICLES BETWEEN LAMBDA = 0 AND LAMBDA = 1
Info: FEP VDW ACTIVE FOR EXNIHILATED PARTICLES BETWEEN LAMBDA = 0 AND LAMBDA = 1
Info: FEP BOND ACTIVE FOR ANNIHILATED PARTICLES BETWEEN LAMBDA = 1 AND LAMBDA = 1
Info: FEP BOND ACTIVE FOR EXNIHILATED PARTICLES BETWEEN LAMBDA = 0 AND LAMBDA = 0
Info: LANGEVIN DYNAMICS ACTIVE
Info: LANGEVIN TEMPERATURE   300
Info: LANGEVIN USING BBK INTEGRATOR
Info: LANGEVIN DAMPING COEFFICIENT IS 1 INVERSE PS
Info: LANGEVIN DYNAMICS APPLIED TO HYDROGENS
Info: LANGEVIN PISTON PRESSURE CONTROL ACTIVE
Info:        TARGET PRESSURE IS 1.01325 BAR
Info:     OSCILLATION PERIOD IS 50 FS
Info:             DECAY TIME IS 25 FS
Info:     PISTON TEMPERATURE IS 300 K
Info:       PRESSURE CONTROL IS GROUP-BASED
Info:    INITIAL STRAIN RATE IS 0.000145949 0.000145949 0.000145949
Info:       CELL FLUCTUATION IS ISOTROPIC
Info: PARTICLE MESH EWALD (PME) ACTIVE
Info: PME TOLERANCE               1e-06
Info: PME EWALD COEFFICIENT       0.348832
Info: PME INTERPOLATION ORDER     4
Info: PME GRID DIMENSIONS         32 32 32
Info: PME MAXIMUM GRID SPACING    1
Info: PME CALCULATION WILL BE PERFORMED ON GPU
Info: FULL ELECTROSTATIC EVALUATION FREQUENCY      2
Info: USING VERLET I (r-RESPA) MTS SCHEME.
Info: C1 SPLITTING OF LONG RANGE ELECTROSTATICS
Info: PLACING ATOMS IN PATCHES BY HYDROGEN GROUPS
Info: RIGID BONDS TO HYDROGEN : ALL
Info:         ERROR TOLERANCE : 1e-08
Info:          MAX ITERATIONS : 100
Info: RIGID WATER USING SETTLE ALGORITHM
Info: RANDOM NUMBER SEED     1743497870
Info: USE HYDROGEN BONDS?    NO
Info: Using AMBER format force field!
Info: AMBER PARM FILE        mobley_2008055.prmtop
Info: COORDINATE PDB         mobley_2008055.pdb
Info: Exclusions will be read from PARM file!
Info: SCNB (VDW SCALING)     2
Info: USING ARITHMETIC MEAN TO COMBINE L-J SIGMA PARAMETERS
Info: BINARY COORDINATES     mobley_2008055_equil.coor
Info: SUMMARY OF PARAMETERS:
Info: 4 BONDS
Info: 2 ANGLES
Info:   2 HARMONIC
Info:   0 COSINE-BASED
Info: 1 DIHEDRAL
Info: 0 IMPROPER
Info: 0 CROSSTERM
Info: 0 VDW
Info: 10 VDW_PAIRS
Info: 0 NBTHOLE_PAIRS
Info: To read alchdata from file: mobley_2008055.pdb
Info: To read alchflag data from column: 5
Info: STRUCTURE SUMMARY:
Info: 2996 ATOMS
Info: 2995 BONDS
Info: 12 ANGLES
Info: 9 DIHEDRALS
Info: 0 IMPROPERS
Info: 0 CROSSTERMS
Info: 3016 EXCLUSIONS
Info: 2994 RIGID BONDS
Info: ALCH: 0 ATOMS TO DISAPPEAR IN FINAL STATE
Info: ALCH: 8 ATOMS TO APPEAR IN FINAL STATE
Info: 5994 DEGREES OF FREEDOM
Info: 998 HYDROGEN GROUPS
Info: 4 ATOMS IN LARGEST HYDROGEN GROUP
Info: 998 MIGRATION GROUPS
Info: 4 ATOMS IN LARGEST MIGRATION GROUP
Info: TOTAL MASS = 17974 amu
Info: TOTAL CHARGE = 0.000200003 e
Info: MASS DENSITY = 0.966715 g/cm^3
Info: ATOM DENSITY = 0.0970367 atoms/A^3
Info: ADDED 0 IMPLICIT EXCLUSIONS
Info: NONBONDED TABLE R-SQUARED SPACING: 0.0625
Info: NONBONDED TABLE SIZE: 705 POINTS
Info: REDUCING NUMBER OF PATCHES TO IMPROVE LOAD BALANCE
Info: REMOVING COM VELOCITY -0.00469659 0.00286512 -0.0420797
Info: Use 3D box decompostion in PME FFT.
Info: Updated CUDA force table with 4096 elements.
Info: Updated CUDA LJ table with 4 x 4 elements.
Info: Found 11 unique exclusion lists needing 16 bytes
TCL: Running for 1500000 steps
ETITLE: TS BOND ANGLE DIHED IMPRP ELECT VDW BOUNDARY MISC KINETIC TOTAL TEMP POTENTIAL TOTALAVG TEMPAVG PRESSURE GPRESSURE VOLUME PRESSAVG GPRESSAVG
ENERGY: 0 0.0937 1.8623 0.6525 0.0000 -11025.9596 1581.9429 0.0000 0.0000 1755.7285 -7685.6796 294.8024 -9441.4081 -7685.6796 294.8024 798.2941 856.5473 30874.9162 798.2941 856.5473
ENERGY: 300000 0.0257 2.2193 0.6017 0.0000 -10752.7485 1405.0809 0.0000 0.0000 1785.7758 -7559.0451 299.8476 -9344.8209 -7650.3847 295.7051 -378.4606 -387.2860 31412.8973 337.5985 381.3284
ENERGY: 600000 0.0160 6.1072 0.1309 0.0000 -10841.0737 1417.7673 0.0000 0.0000 1787.9670 -7629.0853 300.2155 -9417.0523 -7644.5213 296.7013 -676.2944 -576.6003 31395.0120 -0.1728 63.6817
ENERGY: 900000 0.0776 2.6214 0.0942 0.0000 -10854.4020 1451.9712 0.0000 0.0000 1797.8258 -7601.8118 301.8709 -9399.6376 -7640.9433 297.3224 -233.3296 -198.2236 31254.0816 -39.4417 12.0198
ENERGY: 1200000 0.3841 0.7951 0.9045 0.0000 -10728.1642 1386.4722 0.0000 0.0000 1763.1630 -7576.4452 296.0507 -9339.6082 -7632.0492 298.2350 -466.0905 -372.0149 31027.1470 -14.9179 43.1045
ENERGY: 1500000 0.1019 1.5062 0.1284 0.0000 -10891.0159 1503.8125 0.0000 0.0000 1756.9774 -7628.4893 295.0121 -9385.4668 -7630.9666 298.6737 277.9162 316.2532 30930.2353 -0.9307 53.2490
TCL: Running FEP window   2: Lambda1 0.95   Lambda2 0.8999999999999999 [dLambda -0.050000000000000044]
TCL: Setting parameter firsttimestep to 0
TCL: Setting parameter alchLambda to 0.95
Info: NONBONDED TABLE R-SQUARED SPACING: 0.0625
Info: NONBONDED TABLE SIZE: 705 POINTS
TCL: Setting parameter alchLambda2 to 0.8999999999999999
Info: NONBONDED TABLE R-SQUARED SPACING: 0.0625
Info: NONBONDED TABLE SIZE: 705 POINTS
TCL: Running for 1500000 steps
ETITLE: TS BOND ANGLE DIHED IMPRP ELECT VDW BOUNDARY MISC KINETIC TOTAL TEMP POTENTIAL TOTALAVG TEMPAVG PRESSURE GPRESSURE VOLUME PRESSAVG GPRESSAVG
ENERGY: 0 0.1019 1.5062 0.1284 0.0000 -10891.0325 1503.9197 0.0000 0.0000 1756.0919 -7629.2843 294.8634 -9385.3762 -7629.2843 294.8634 240.1109 312.2584 30930.2353 240.1109 312.2584
ENERGY: 300000 0.4206 1.5878 0.2132 0.0000 -10870.9731 1374.5636 0.0000 0.0000 1787.5443 -7706.6436 300.1445 -9494.1879 -7641.0869 297.2697 -822.3164 -750.1711 30786.4069 -74.5324 -10.0050
ENERGY: 600000 0.0449 3.2948 0.0428 0.0000 -10865.1441 1488.6363 0.0000 0.0000 1784.3170 -7588.8083 299.6027 -9373.1253 -7630.2986 299.1034 194.2331 243.4743 31121.8672 -61.7464 14.7954
ENERGY: 900000 0.2535 4.8549 0.0657 0.0000 -10803.0020 1389.7228 0.0000 0.0000 1758.1647 -7649.9405 295.2115 -9408.1052 -7629.6315 297.9684 -741.7983 -669.5126 31117.0946 -124.7348 -57.4047
ENERGY: 1200000 0.0138 2.9186 0.0608 0.0000 -10927.2437 1516.8615 0.0000 0.0000 1763.0787 -7644.3103 296.0366 -9407.3890 -7620.0952 298.7185 376.8359 494.9872 30752.8445 -97.9694 -32.2139
ENERGY: 1500000 0.1820 2.6446 0.4305 0.0000 -10954.5630 1506.0249 0.0000 0.0000 1791.8590 -7653.4220 300.8690 -9445.2810 -7623.6023 298.2671 44.5860 122.1705 31071.6617 -96.7150 -29.1927
TCL: Running FEP window   3: Lambda1 0.8999999999999999 Lambda2 0.8499999999999999 [dLambda -0.050000000000000044]
TCL: Setting parameter firsttimestep to 0
TCL: Setting parameter alchLambda to 0.8999999999999999
Info: NONBONDED TABLE R-SQUARED SPACING: 0.0625
Info: NONBONDED TABLE SIZE: 705 POINTS
TCL: Setting parameter alchLambda2 to 0.8499999999999999
Info: NONBONDED TABLE R-SQUARED SPACING: 0.0625
Info: NONBONDED TABLE SIZE: 705 POINTS
TCL: Running for 1500000 steps
ETITLE: TS BOND ANGLE DIHED IMPRP ELECT VDW BOUNDARY MISC KINETIC TOTAL TEMP POTENTIAL TOTALAVG TEMPAVG PRESSURE GPRESSURE VOLUME PRESSAVG GPRESSAVG
ENERGY: 0 0.1820 2.6446 0.4305 0.0000 -10954.5575 1506.1207 0.0000 0.0000 1790.9598 -7654.2199 300.7180 -9445.1797 -7654.2199 300.7180 30.7096 119.0974 31071.6617 30.7096 119.0974
ENERGY: 300000 0.5129 4.3051 0.0474 0.0000 -10752.6085 1391.7879 0.0000 0.0000 1783.1663 -7572.7889 299.4094 -9355.9553 -7618.7895 300.7346 -397.6475 -332.3707 31267.2125 3.1298 53.0620
ENERGY: 600000 0.2245 3.5290 0.0313 0.0000 -10866.0460 1445.2984 0.0000 0.0000 1783.2675 -7633.6953 299.4264 -9416.9628 -7622.2641 300.0380 -227.8337 -228.0819 31135.6140 -129.7539 -103.1232
ENERGY: 900000 0.0165 4.2392 0.2633 0.0000 -10873.5747 1471.0377 0.0000 0.0000 1757.1475 -7640.8705 295.0407 -9398.0180 -7636.5430 299.0248 91.0514 137.4085 30918.6553 -66.2222 -30.4920
ENERGY: 1200000 0.1404 4.8361 0.1131 0.0000 -10805.7599 1379.3792 0.0000 0.0000 1746.6628 -7674.6283 293.2802 -9421.2911 -7639.8123 298.9268 -579.0017 -530.7980 30547.7563 -170.8297 -135.4832
ENERGY: 1500000 1.7501 4.2112 0.2776 0.0000 -10910.0405 1489.5731 0.0000 0.0000 1784.1228 -7630.1058 299.5700 -9414.2286 -7636.9904 299.0275 74.8532 169.5910 31008.9593 -266.8001 -225.4742
TCL: Running FEP window   4: Lambda1 0.8499999999999999 Lambda2 0.7999999999999998 [dLambda -0.050000000000000044]
TCL: Setting parameter firsttimestep to 0
TCL: Setting parameter alchLambda to 0.8499999999999999
Info: NONBONDED TABLE R-SQUARED SPACING: 0.0625
Info: NONBONDED TABLE SIZE: 705 POINTS
TCL: Setting parameter alchLambda2 to 0.7999999999999998
Info: NONBONDED TABLE R-SQUARED SPACING: 0.0625
Info: NONBONDED TABLE SIZE: 705 POINTS
TCL: Running for 1500000 steps
ETITLE: TS BOND ANGLE DIHED IMPRP ELECT VDW BOUNDARY MISC KINETIC TOTAL TEMP POTENTIAL TOTALAVG TEMPAVG PRESSURE GPRESSURE VOLUME PRESSAVG GPRESSAVG
ENERGY: 0 1.7501 4.2112 0.2776 0.0000 -10910.0297 1489.5485 0.0000 0.0000 1783.1892 -7631.0531 299.4133 -9414.2423 -7631.0531 299.4133 61.6285 164.8990 31008.9593 61.6285 164.8990
ENERGY: 300000 0.1052 4.7233 2.1727 0.0000 -10919.5887 1471.7463 0.0000 0.0000 1780.7817 -7660.0594 299.0090 -9440.8411 -7686.0235 297.2344 -150.6940 -97.7472 31165.7396 -351.9002 -281.9443
ENERGY: 600000 0.0941 5.1218 0.1038 0.0000 -10778.2871 1375.0109 0.0000 0.0000 1771.8511 -7626.1053 297.5095 -9397.9564 -7677.2520 296.2738 -827.7841 -679.6956 30898.6592 -156.2488 -69.5172
ENERGY: 900000 0.2872 3.3197 0.1150 0.0000 -10910.9431 1448.9195 0.0000 0.0000 1807.0636 -7651.2380 303.4220 -9458.3016 -7662.2015 298.3417 -175.4235 -137.6032 30848.7495 -52.5891 33.3697
ENERGY: 1200000 0.1911 1.5554 0.1936 0.0000 -10757.6831 1446.5801 0.0000 0.0000 1817.8935 -7491.2695 305.2404 -9309.1629 -7639.9075 299.4400 52.5896 137.7054 31166.1448 -48.4225 27.9629
ENERGY: 1500000 0.5800 5.4091 0.2922 0.0000 -10895.7333 1515.2508 0.0000 0.0000 1761.6240 -7612.5772 295.7923 -9374.2012 -7629.0202 299.4105 532.8275 545.8262 30726.6833 23.4986 96.0765
TCL: Running FEP window   5: Lambda1 0.7999999999999998 Lambda2 0.7499999999999998 [dLambda -0.050000000000000044]
TCL: Setting parameter firsttimestep to 0
TCL: Setting parameter alchLambda to 0.7999999999999998
Info: NONBONDED TABLE R-SQUARED SPACING: 0.0625
Info: NONBONDED TABLE SIZE: 705 POINTS
TCL: Setting parameter alchLambda2 to 0.7499999999999998
Info: NONBONDED TABLE R-SQUARED SPACING: 0.0625
Info: NONBONDED TABLE SIZE: 705 POINTS
TCL: Running for 1500000 steps
ETITLE: TS BOND ANGLE DIHED IMPRP ELECT VDW BOUNDARY MISC KINETIC TOTAL TEMP POTENTIAL TOTALAVG TEMPAVG PRESSURE GPRESSURE VOLUME PRESSAVG GPRESSAVG
ENERGY: 0 0.5800 5.4091 0.2922 0.0000 -10895.7224 1514.9942 0.0000 0.0000 1760.7357 -7613.7111 295.6432 -9374.4468 -7613.7111 295.6432 447.7795 539.0343 30726.6833 447.7795 539.0343
ENERGY: 300000 0.5530 2.0541 0.7111 0.0000 -10695.5597 1412.6956 0.0000 0.0000 1746.9500 -7532.5959 293.3284 -9279.5459 -7611.2313 297.3571 -201.2955 -176.8125 31216.1554 -24.5074 36.8653
ENERGY: 600000 0.0275 1.2123 0.1855 0.0000 -11004.7103 1538.6987 0.0000 0.0000 1776.0969 -7688.4892 298.2224 -9464.5862 -7657.4127 298.0704 301.3056 326.9638 31024.5169 -132.2544 -73.3099
ENERGY: 900000 0.0097 6.6579 0.3011 0.0000 -10968.2999 1511.0794 0.0000 0.0000 1781.6690 -7668.5828 299.1580 -9450.2518 -7641.8554 300.0800 581.7418 685.9815 30171.8812 25.5319 87.6446
ENERGY: 1200000 0.8444 1.2720 0.1911 0.0000 -10920.9270 1490.4222 0.0000 0.0000 1796.6720 -7631.5253 301.6772 -9428.1973 -7634.7997 299.9891 196.4094 322.7757 30732.9524 124.2725 194.2158
ENERGY: 1500000 0.6494 3.8965 0.6780 0.0000 -10841.0002 1464.0531 0.0000 0.0000 1791.3464 -7580.3769 300.7829 -9371.7232 -7628.7578 300.1041 53.9233 180.6621 30816.8988 43.5170 114.0933
TCL: Running FEP window   6: Lambda1 0.7499999999999998 Lambda2 0.6999999999999997 [dLambda -0.050000000000000044]
TCL: Setting parameter firsttimestep to 0
TCL: Setting parameter alchLambda to 0.7499999999999998
Info: NONBONDED TABLE R-SQUARED SPACING: 0.0625
Info: NONBONDED TABLE SIZE: 705 POINTS
TCL: Setting parameter alchLambda2 to 0.6999999999999997
Info: NONBONDED TABLE R-SQUARED SPACING: 0.0625
Info: NONBONDED TABLE SIZE: 705 POINTS
TCL: Running for 1500000 steps
ETITLE: TS BOND ANGLE DIHED IMPRP ELECT VDW BOUNDARY MISC KINETIC TOTAL TEMP POTENTIAL TOTALAVG TEMPAVG PRESSURE GPRESSURE VOLUME PRESSAVG GPRESSAVG
ENERGY: 0 0.6494 3.8965 0.6780 0.0000 -10841.0021 1463.2920 0.0000 0.0000 1790.3954 -7582.0908 300.6233 -9372.4862 -7582.0908 300.6233 76.3028 164.9128 30816.8988 76.3028 164.9128
ENERGY: 300000 0.1689 2.9230 2.6201 0.0000 -10858.3227 1460.7250 0.0000 0.0000 1827.3167 -7564.5691 306.8227 -9391.8858 -7605.0489 302.6664 -319.2124 -223.5190 31511.1597 0.9815 62.0619
ENERGY: 600000 0.2090 2.3564 0.2786 0.0000 -10834.5381 1396.2918 0.0000 0.0000 1828.3327 -7607.0696 306.9933 -9435.4023 -7599.5630 304.3182 -427.8538 -357.6522 30502.0353 -140.7429 -76.5116
ENERGY: 900000 0.0764 3.6955 0.1182 0.0000 -10813.4087 1472.8143 0.0000 0.0000 1760.6455 -7576.0588 295.6280 -9336.7043 -7593.6204 302.5205 202.3838 231.4136 31114.2110 -122.5652 -64.6657
ENERGY: 1200000 0.5145 2.7571 0.0444 0.0000 -10881.4503 1439.9700 0.0000 0.0000 1832.6748 -7605.4896 307.7224 -9438.1644 -7592.7726 302.8036 -372.2448 -308.8672 31078.1143 -89.8806 -32.4286
ENERGY: 1500000 0.4429 2.6199 0.1096 0.0000 -10728.2568 1403.5364 0.0000 0.0000 1762.6363 -7558.9116 295.9623 -9321.5479 -7592.2541 302.3638 -378.6761 -275.2381 31112.8725 -85.3233 -24.4710
TCL: Running FEP window   7: Lambda1 0.6999999999999997 Lambda2 0.6499999999999997 [dLambda -0.050000000000000044]
TCL: Setting parameter firsttimestep to 0
TCL: Setting parameter alchLambda to 0.6999999999999997
Info: NONBONDED TABLE R-SQUARED SPACING: 0.0625
Info: NONBONDED TABLE SIZE: 705 POINTS
TCL: Setting parameter alchLambda2 to 0.6499999999999997
Info: NONBONDED TABLE R-SQUARED SPACING: 0.0625
Info: NONBONDED TABLE SIZE: 705 POINTS
TCL: Running for 1500000 steps
ETITLE: TS BOND ANGLE DIHED IMPRP ELECT VDW BOUNDARY MISC KINETIC TOTAL TEMP POTENTIAL TOTALAVG TEMPAVG PRESSURE GPRESSURE VOLUME PRESSAVG GPRESSAVG
ENERGY: 0 0.4429 2.6199 0.1096 0.0000 -10728.2643 1403.4924 0.0000 0.0000 1761.7326 -7559.8670 295.8105 -9321.5995 -7559.8670 295.8105 -370.3364 -279.3737 31112.8725 -370.3364 -279.3737
ENERGY: 300000 0.3596 1.5548 0.0917 0.0000 -10824.8117 1493.0697 0.0000 0.0000 1807.7331 -7522.0028 303.5344 -9329.7359 -7602.1432 300.1826 83.6204 154.0753 31406.4447 -27.7917 39.9433
ENERGY: 600000 2.5083 6.1628 0.5265 0.0000 -10806.6589 1421.4222 0.0000 0.0000 1828.4028 -7547.6362 307.0051 -9376.0390 -7602.1411 299.7249 -289.6349 -134.5887 30898.8693 90.4362 180.5098
ENERGY: 900000 0.0936 1.2960 1.4325 0.0000 -10934.3627 1501.1004 0.0000 0.0000 1727.5909 -7702.8493 290.0778 -9430.4402 -7610.7057 299.7459 260.1716 350.4284 30545.3934 34.1425 120.4031
ENERGY: 1200000 0.6888 2.0609 0.0202 0.0000 -10927.3453 1460.2644 0.0000 0.0000 1746.8271 -7717.4838 293.3078 -9464.3109 -7621.2864 299.8787 -132.3951 -21.1917 30597.7624 -4.0854 80.6451
ENERGY: 1500000 1.4305 4.4278 2.3872 0.0000 -10753.1099 1374.0714 0.0000 0.0000 1835.1111 -7535.6820 308.1314 -9370.7931 -7616.4211 300.4495 -205.3895 -148.7785 30250.7672 16.7471 87.4332
TCL: Running FEP window   8: Lambda1 0.6499999999999997 Lambda2 0.5999999999999996 [dLambda -0.050000000000000044]
TCL: Setting parameter firsttimestep to 0
TCL: Setting parameter alchLambda to 0.6499999999999997
Info: NONBONDED TABLE R-SQUARED SPACING: 0.0625
Info: NONBONDED TABLE SIZE: 705 POINTS
TCL: Setting parameter alchLambda2 to 0.5999999999999996
Info: NONBONDED TABLE R-SQUARED SPACING: 0.0625
Info: NONBONDED TABLE SIZE: 705 POINTS
TCL: Running for 1500000 steps
ETITLE: TS BOND ANGLE DIHED IMPRP ELECT VDW BOUNDARY MISC KINETIC TOTAL TEMP POTENTIAL TOTALAVG TEMPAVG PRESSURE GPRESSURE VOLUME PRESSAVG GPRESSAVG
ENERGY: 0 1.4305 4.4278 2.3872 0.0000 -10753.0685 1374.1312 0.0000 0.0000 1834.2177 -7536.4742 307.9814 -9370.6919 -7536.4742 307.9814 -235.1732 -152.3987 30250.7672 -235.1732 -152.3987
ENERGY: 300000 0.0001 1.3870 0.2472 0.0000 -10860.0412 1433.8465 0.0000 0.0000 1786.9942 -7637.5662 300.0522 -9424.5604 -7599.5237 302.5409 5.8226 43.4266 30331.1148 -192.5936 -116.9087
ENERGY: 600000 0.1418 1.6671 0.1215 0.0000 -10817.2424 1407.3784 0.0000 0.0000 1868.1502 -7539.7834 313.6790 -9407.9336 -7563.5788 305.1202 -525.2762 -468.1314 31260.4411 -168.1875 -105.3663
ENERGY: 900000 1.4675 4.6843 0.1262 0.0000 -10792.8675 1453.3295 0.0000 0.0000 1808.8237 -7524.4363 303.7176 -9333.2600 -7576.1249 304.7968 -7.0438 112.9548 31018.8153 -116.1060 -46.4964
ENERGY: 1200000 1.6277 1.7524 0.5931 0.0000 -10950.2479 1541.9557 0.0000 0.0000 1815.5159 -7588.8031 304.8412 -9404.3190 -7584.5959 304.0098 565.9189 660.5242 31139.6304 -28.3846 36.1565
ENERGY: 1500000 1.3169 2.6610 1.3531 0.0000 -10898.9820 1457.1095 0.0000 0.0000 1699.7837 -7736.7578 285.4088 -9436.5415 -7606.9212 301.4370 -450.3535 -361.4736 31189.3903 -93.1855 -29.3579
TCL: Running FEP window   9: Lambda1 0.5999999999999996 Lambda2 0.5499999999999996 [dLambda -0.050000000000000044]
TCL: Setting parameter firsttimestep to 0
TCL: Setting parameter alchLambda to 0.5999999999999996
Info: NONBONDED TABLE R-SQUARED SPACING: 0.0625
Info: NONBONDED TABLE SIZE: 705 POINTS
TCL: Setting parameter alchLambda2 to 0.5499999999999996
Info: NONBONDED TABLE R-SQUARED SPACING: 0.0625
Info: NONBONDED TABLE SIZE: 705 POINTS
TCL: Running for 1500000 steps
ETITLE: TS BOND ANGLE DIHED IMPRP ELECT VDW BOUNDARY MISC KINETIC TOTAL TEMP POTENTIAL TOTALAVG TEMPAVG PRESSURE GPRESSURE VOLUME PRESSAVG GPRESSAVG
ENERGY: 0 1.3169 2.6610 1.3531 0.0000 -10898.9841 1457.2614 0.0000 0.0000 1698.9246 -7737.4670 285.2645 -9436.3917 -7737.4670 285.2645 -442.2772 -362.1270 31189.3903 -442.2772 -362.1270
ENERGY: 300000 0.7298 2.3626 0.9131 0.0000 -10882.3591 1429.6425 0.0000 0.0000 1823.7786 -7624.9325 306.2286 -9448.7111 -7656.5396 296.2345 -451.2651 -421.5315 30991.0489 -133.5388 -89.2681
ENERGY: 600000 0.1856 1.5836 0.0687 0.0000 -10875.3537 1487.2881 0.0000 0.0000 1783.4611 -7602.7667 299.4589 -9386.2278 -7651.3076 297.2402 161.0473 182.8157 30949.2458 -95.0071 -47.8226
ENERGY: 900000 0.1033 0.9675 0.0447 0.0000 -10894.1684 1482.3810 0.0000 0.0000 1824.7536 -7585.9183 306.3923 -9410.6720 -7642.9492 298.2242 168.9000 262.4238 30686.3304 -130.9710 -64.7600
ENERGY: 1200000 1.9180 3.6809 0.0364 0.0000 -10815.2207 1439.2200 0.0000 0.0000 1768.4034 -7601.9620 296.9306 -9370.3654 -7633.1426 298.3943 51.2156 56.5534 30482.0791 -106.9348 -48.8908
ENERGY: 1500000 0.1129 5.7216 0.3106 0.0000 -10839.7813 1457.0850 0.0000 0.0000 1791.8161 -7584.7351 300.8618 -9376.5511 -7631.5468 298.9791 48.2306 110.6203 30828.1050 -96.4204 -37.5994
TCL: Running FEP window  10: Lambda1 0.5499999999999996 Lambda2 0.4999999999999996 [dLambda -0.04999999999999999]
TCL: Setting parameter firsttimestep to 0
TCL: Setting parameter alchLambda to 0.5499999999999996
Info: NONBONDED TABLE R-SQUARED SPACING: 0.0625
Info: NONBONDED TABLE SIZE: 705 POINTS
TCL: Setting parameter alchLambda2 to 0.4999999999999996
Info: NONBONDED TABLE R-SQUARED SPACING: 0.0625
Info: NONBONDED TABLE SIZE: 705 POINTS
TCL: Running for 1500000 steps
ETITLE: TS BOND ANGLE DIHED IMPRP ELECT VDW BOUNDARY MISC KINETIC TOTAL TEMP POTENTIAL TOTALAVG TEMPAVG PRESSURE GPRESSURE VOLUME PRESSAVG GPRESSAVG
ENERGY: 0 0.1129 5.7216 0.3106 0.0000 -10839.7739 1457.0906 0.0000 0.0000 1790.9376 -7585.6005 300.7143 -9376.5381 -7585.6005 300.7143 24.9199 106.7399 30828.1050 24.9199 106.7399
ENERGY: 300000 0.2302 1.8836 0.9161 0.0000 -10857.2576 1414.9905 0.0000 0.0000 1717.9065 -7721.3307 288.4517 -9439.2372 -7631.9472 298.1681 -360.4336 -321.2918 30516.4108 -262.0382 -195.0786
ENERGY: 600000 0.1371 5.3536 0.3224 0.0000 -10823.8231 1438.9614 0.0000 0.0000 1839.9580 -7539.0906 308.9453 -9379.0486 -7622.5036 299.0676 -54.1343 23.1428 30868.1335 -253.4512 -195.2399
ENERGY: 900000 0.0703 3.2562 0.2291 0.0000 -11060.0757 1614.4299 0.0000 0.0000 1748.3221 -7693.7680 293.5588 -9442.0901 -7631.8679 298.5395 983.3686 1121.8234 30675.0465 -94.4190 -29.3454
ENERGY: 1200000 0.0100 1.8069 0.0137 0.0000 -10775.7395 1400.8866 0.0000 0.0000 1793.7583 -7579.2640 301.1879 -9373.0223 -7624.8717 299.3027 -433.6314 -406.2877 31113.3090 -115.8584 -50.2125
ENERGY: 1500000 0.6741 2.4207 0.7295 0.0000 -10829.0938 1423.2307 0.0000 0.0000 1815.5919 -7586.4469 304.8540 -9402.0389 -7619.0855 299.4824 -261.9988 -228.4912 30798.3000 -67.1715 -8.0340
TCL: Running FEP window  11: Lambda1 0.4999999999999996 Lambda2 0.4499999999999996 [dLambda -0.04999999999999999]
TCL: Setting parameter firsttimestep to 0
TCL: Setting parameter alchLambda to 0.4999999999999996
Info: NONBONDED TABLE R-SQUARED SPACING: 0.0625
Info: NONBONDED TABLE SIZE: 705 POINTS
TCL: Setting parameter alchLambda2 to 0.4499999999999996
Info: NONBONDED TABLE R-SQUARED SPACING: 0.0625
Info: NONBONDED TABLE SIZE: 705 POINTS
TCL: Running for 1500000 steps
ETITLE: TS BOND ANGLE DIHED IMPRP ELECT VDW BOUNDARY MISC KINETIC TOTAL TEMP POTENTIAL TOTALAVG TEMPAVG PRESSURE GPRESSURE VOLUME PRESSAVG GPRESSAVG
ENERGY: 0 0.6741 2.4207 0.7295 0.0000 -10829.1078 1423.4327 0.0000 0.0000 1814.6914 -7587.1594 304.7028 -9401.8508 -7587.1594 304.7028 -317.4138 -225.7190 30798.3000 -317.4138 -225.7190
ENERGY: 300000 0.0479 2.8447 0.6815 0.0000 -10810.5289 1454.5965 0.0000 0.0000 1785.4846 -7566.8737 299.7987 -9352.3583 -7580.5981 302.8626 -100.7414 -4.5915 31030.3992 -343.9612 -252.7593
ENERGY: 600000 0.0128 3.3441 0.2808 0.0000 -10949.2787 1455.6877 0.0000 0.0000 1775.4937 -7714.4597 298.1211 -9489.9534 -7609.5638 300.6809 -30.2987 43.6303 30297.0987 -293.5388 -206.1763
ENERGY: 900000 0.0941 3.7687 0.5229 0.0000 -10880.7667 1488.8821 0.0000 0.0000 1832.3344 -7555.1646 307.6652 -9387.4990 -7627.3198 299.9224 290.4916 305.2206 30892.5005 -111.3836 -40.3488
ENERGY: 1200000 0.0000 2.5813 0.8049 0.0000 -11024.8725 1564.4646 0.0000 0.0000 1799.7831 -7657.2385 302.1996 -9457.0216 -7619.1887 300.6671 832.5252 960.1124 30252.1811 -18.5929 56.8569
ENERGY: 1500000 0.0015 2.0876 0.0283 0.0000 -10940.9694 1494.6085 0.0000 0.0000 1799.3170 -7644.9266 302.1213 -9444.2436 -7612.5937 301.3585 28.7030 116.4943 30828.2000 -78.7717 0.0824
TCL: Running FEP window  12: Lambda1 0.4499999999999996 Lambda2 0.39999999999999963 [dLambda -0.04999999999999999]
TCL: Setting parameter firsttimestep to 0
TCL: Setting parameter alchLambda to 0.4499999999999996
Info: NONBONDED TABLE R-SQUARED SPACING: 0.0625
Info: NONBONDED TABLE SIZE: 705 POINTS
TCL: Setting parameter alchLambda2 to 0.39999999999999963
Info: NONBONDED TABLE R-SQUARED SPACING: 0.0625
Info: NONBONDED TABLE SIZE: 705 POINTS
TCL: Running for 1500000 steps
ETITLE: TS BOND ANGLE DIHED IMPRP ELECT VDW BOUNDARY MISC KINETIC TOTAL TEMP POTENTIAL TOTALAVG TEMPAVG PRESSURE GPRESSURE VOLUME PRESSAVG GPRESSAVG
ENERGY: 0 0.0015 2.0876 0.0283 0.0000 -10940.9713 1494.3465 0.0000 0.0000 1798.4295 -7646.0779 301.9723 -9444.5075 -7646.0779 301.9723 23.0663 110.8920 30828.2000 23.0663 110.8920
ENERGY: 300000 0.0103 3.5699 0.1229 0.0000 -10858.7029 1478.2507 0.0000 0.0000 1828.5189 -7548.2303 307.0245 -9376.7491 -7597.8797 307.2236 286.9431 316.4852 30805.4570 303.9903 353.4237
ENERGY: 600000 1.4116 2.3964 0.7712 0.0000 -10885.1037 1438.6696 0.0000 0.0000 1739.4511 -7702.4038 292.0693 -9441.8549 -7614.9670 302.4580 -484.4150 -429.9339 30957.8522 115.7281 167.2391
ENERGY: 900000 0.3885 3.9386 0.6524 0.0000 -10894.4174 1531.6393 0.0000 0.0000 1791.8848 -7565.9139 300.8734 -9357.7987 -7616.1492 300.9581 541.3614 567.3592 30920.2216 68.7908 123.6601
ENERGY: 1200000 0.6976 3.4169 0.1254 0.0000 -10807.0430 1421.5616 0.0000 0.0000 1762.8831 -7618.3584 296.0037 -9381.2415 -7610.0929 300.9118 -245.5919 -226.2824 30936.6032 101.6654 157.7265
ENERGY: 1500000 0.7390 2.5265 0.1335 0.0000 -10843.3098 1443.8789 0.0000 0.0000 1773.5069 -7622.5250 297.7875 -9396.0319 -7619.8904 299.2172 -644.6168 -522.5482 31716.5519 45.1153 107.4392
TCL: Running FEP window  13: Lambda1 0.39999999999999963 Lambda2 0.34999999999999964 [dLambda -0.04999999999999999]
TCL: Setting parameter firsttimestep to 0
TCL: Setting parameter alchLambda to 0.39999999999999963
Info: NONBONDED TABLE R-SQUARED SPACING: 0.0625
Info: NONBONDED TABLE SIZE: 705 POINTS
TCL: Setting parameter alchLambda2 to 0.34999999999999964
Info: NONBONDED TABLE R-SQUARED SPACING: 0.0625
Info: NONBONDED TABLE SIZE: 705 POINTS
TCL: Running for 1500000 steps
ETITLE: TS BOND ANGLE DIHED IMPRP ELECT VDW BOUNDARY MISC KINETIC TOTAL TEMP POTENTIAL TOTALAVG TEMPAVG PRESSURE GPRESSURE VOLUME PRESSAVG GPRESSAVG
ENERGY: 0 0.7390 2.5265 0.1335 0.0000 -10843.3094 1442.7537 0.0000 0.0000 1772.6098 -7624.5468 297.6369 -9397.1567 -7624.5468 297.6369 -621.4316 -532.7848 31716.5519 -621.4316 -532.7848
ENERGY: 300000 0.0054 2.4651 0.8062 0.0000 -10835.0311 1438.0480 0.0000 0.0000 1795.4189 -7598.2876 301.4668 -9393.7065 -7618.6378 300.3349 -408.4712 -294.6243 31214.4384 -436.4217 -356.5710
ENERGY: 600000 1.3788 4.0571 0.2600 0.0000 -10930.9175 1483.2151 0.0000 0.0000 1751.5332 -7690.4733 294.0980 -9442.0065 -7630.5585 300.0567 267.0370 247.2093 30682.1859 -287.3233 -216.1415
ENERGY: 900000 0.4211 2.0000 0.0623 0.0000 -10819.9436 1397.3825 0.0000 0.0000 1830.4268 -7589.6509 307.3449 -9420.0777 -7635.2654 299.9390 -605.7404 -501.2660 30704.5381 -132.3458 -64.5809
ENERGY: 1200000 0.1136 5.1081 0.2329 0.0000 -10864.1811 1472.3498 0.0000 0.0000 1791.5533 -7594.8234 300.8177 -9386.3767 -7631.4202 299.8120 77.6238 161.3709 30790.4008 -92.0521 -20.4668
ENERGY: 1500000 0.3152 3.1145 0.0791 0.0000 -10864.3677 1487.1846 0.0000 0.0000 1799.4800 -7574.1942 302.1487 -9373.6743 -7634.6084 300.0924 -79.3064 -19.0393 31267.9654 -153.8659 -86.3070
TCL: Running FEP window  14: Lambda1 0.34999999999999964 Lambda2 0.29999999999999966 [dLambda -0.04999999999999999]
TCL: Setting parameter firsttimestep to 0
TCL: Setting parameter alchLambda to 0.34999999999999964
Info: NONBONDED TABLE R-SQUARED SPACING: 0.0625
Info: NONBONDED TABLE SIZE: 705 POINTS
TCL: Setting parameter alchLambda2 to 0.29999999999999966
Info: NONBONDED TABLE R-SQUARED SPACING: 0.0625
Info: NONBONDED TABLE SIZE: 705 POINTS
TCL: Running for 1500000 steps
ETITLE: TS BOND ANGLE DIHED IMPRP ELECT VDW BOUNDARY MISC KINETIC TOTAL TEMP POTENTIAL TOTALAVG TEMPAVG PRESSURE GPRESSURE VOLUME PRESSAVG GPRESSAVG
ENERGY: 0 0.3152 3.1146 0.0791 0.0000 -10864.3673 1486.6423 0.0000 0.0000 1798.5804 -7575.6357 301.9976 -9374.2161 -7575.6357 301.9976 -95.0662 -27.7659 31267.9654 -95.0662 -27.7659
ENERGY: 300000 0.1233 2.6686 0.0293 0.0000 -10789.7668 1426.7699 0.0000 0.0000 1773.5649 -7586.6108 297.7973 -9360.1757 -7617.8047 298.2333 -235.8275 -143.8169 30972.6728 -133.0619 -55.5603
ENERGY: 600000 0.0771 2.5692 0.1273 0.0000 -10819.4551 1447.8127 0.0000 0.0000 1829.3484 -7539.5204 307.1638 -9368.8688 -7606.1276 299.7233 -224.6933 -207.2153 31522.7418 -91.8665 -30.7793
ENERGY: 900000 0.0005 1.9976 0.0215 0.0000 -10790.9245 1428.8336 0.0000 0.0000 1739.1296 -7620.9417 292.0153 -9360.0713 -7620.8808 298.3341 -351.5185 -341.8577 31199.2030 -17.1184 37.5836
ENERGY: 1200000 0.3349 4.5604 0.8406 0.0000 -10977.8136 1481.8582 0.0000 0.0000 1835.6370 -7654.5825 308.2197 -9490.2195 -7625.7432 300.2282 63.0910 156.1563 30442.6504 -106.8000 -43.4689
ENERGY: 1500000 0.1516 4.5299 0.3023 0.0000 -10895.0214 1462.1995 0.0000 0.0000 1799.8162 -7628.0219 302.2051 -9427.8381 -7626.3230 300.2582 -45.8488 2.6258 30750.8721 -70.4988 -2.9408
TCL: Running FEP window  15: Lambda1 0.29999999999999966 Lambda2 0.24999999999999967 [dLambda -0.04999999999999999]
TCL: Setting parameter firsttimestep to 0
TCL: Setting parameter alchLambda to 0.29999999999999966
Info: NONBONDED TABLE R-SQUARED SPACING: 0.0625
Info: NONBONDED TABLE SIZE: 705 POINTS
TCL: Setting parameter alchLambda2 to 0.24999999999999967
Info: NONBONDED TABLE R-SQUARED SPACING: 0.0625
Info: NONBONDED TABLE SIZE: 705 POINTS
TCL: Running for 1500000 steps
ETITLE: TS BOND ANGLE DIHED IMPRP ELECT VDW BOUNDARY MISC KINETIC TOTAL TEMP POTENTIAL TOTALAVG TEMPAVG PRESSURE GPRESSURE VOLUME PRESSAVG GPRESSAVG
ENERGY: 0 0.1516 4.5299 0.3023 0.0000 -10895.0227 1462.4203 0.0000 0.0000 1798.9455 -7628.6731 302.0589 -9427.6185 -7628.6731 302.0589 -84.0963 1.6176 30750.8721 -84.0963 1.6176
ENERGY: 300000 1.0528 1.1792 0.4400 0.0000 -10956.9474 1535.5648 0.0000 0.0000 1767.2661 -7651.4445 296.7397 -9418.7106 -7638.7774 301.6045 541.3025 620.8844 30527.0067 -278.3405 -203.8949
ENERGY: 600000 0.6254 1.1873 2.4710 0.0000 -10828.7151 1373.3080 0.0000 0.0000 1800.2789 -7650.8444 302.2828 -9451.1234 -7644.6317 300.8750 -747.1928 -713.8255 30805.7020 -375.4303 -317.2479
ENERGY: 900000 0.0008 6.4002 0.2606 0.0000 -10787.6392 1416.9278 0.0000 0.0000 1810.9500 -7553.0997 304.0746 -9364.0497 -7632.9211 300.9403 -413.5861 -322.6038 30942.1498 -323.9003 -262.0782
ENERGY: 1200000 0.0300 5.0559 0.3971 0.0000 -10845.6626 1483.0811 0.0000 0.0000 1817.5978 -7539.5007 305.1908 -9357.0985 -7624.3045 300.7829 481.0973 569.3162 30499.6361 -133.7772 -65.3456
ENERGY: 1500000 0.1934 1.7117 0.0547 0.0000 -10963.3195 1563.1663 0.0000 0.0000 1789.9625 -7608.2309 300.5506 -9398.1933 -7627.6073 300.0017 914.6144 1021.1422 30451.1174 -75.9561 -7.8578
TCL: Running FEP window  16: Lambda1 0.24999999999999967 Lambda2 0.19999999999999968 [dLambda -0.04999999999999999]
TCL: Setting parameter firsttimestep to 0
TCL: Setting parameter alchLambda to 0.24999999999999967
Info: NONBONDED TABLE R-SQUARED SPACING: 0.0625
Info: NONBONDED TABLE SIZE: 705 POINTS
TCL: Setting parameter alchLambda2 to 0.19999999999999968
Info: NONBONDED TABLE R-SQUARED SPACING: 0.0625
Info: NONBONDED TABLE SIZE: 705 POINTS
TCL: Running for 1500000 steps
ETITLE: TS BOND ANGLE DIHED IMPRP ELECT VDW BOUNDARY MISC KINETIC TOTAL TEMP POTENTIAL TOTALAVG TEMPAVG PRESSURE GPRESSURE VOLUME PRESSAVG GPRESSAVG
ENERGY: 0 0.1934 1.7118 0.0547 0.0000 -10963.3196 1563.2462 0.0000 0.0000 1789.0771 -7609.0363 300.4019 -9398.1135 -7609.0363 300.4019 948.6263 1020.6219 30451.1174 948.6263 1020.6219
ENERGY: 300000 0.7551 2.6795 0.6802 0.0000 -10861.6932 1444.2721 0.0000 0.0000 1839.8911 -7573.4153 308.9340 -9413.3063 -7630.4031 301.1053 -75.3139 -51.5361 30569.3400 211.6873 267.1310
ENERGY: 600000 0.0543 2.9171 0.3942 0.0000 -10829.9796 1378.1881 0.0000 0.0000 1792.6433 -7655.7827 301.0007 -9448.4260 -7633.0532 301.0345 -476.6736 -459.1792 30400.2332 29.7419 87.5034
ENERGY: 900000 0.0838 3.3383 0.0775 0.0000 -10981.9522 1557.6558 0.0000 0.0000 1759.8131 -7660.9838 295.4882 -9420.7969 -7633.4739 301.3982 554.0557 602.6195 30857.8755 88.5674 147.1316
ENERGY: 1200000 0.1623 3.4780 0.1163 0.0000 -10820.0643 1429.4672 0.0000 0.0000 1772.3310 -7614.5094 297.5901 -9386.8405 -7634.9584 300.3838 -389.9219 -349.0371 31408.0106 51.2501 98.6429
ENERGY: 1500000 0.4286 3.3431 0.5415 0.0000 -10909.5440 1489.9745 0.0000 0.0000 1811.9281 -7603.3283 304.2388 -9415.2564 -7631.9476 300.6784 156.2539 174.0581 30914.6623 136.7337 177.6940
TCL: Running FEP window  17: Lambda1 0.19999999999999968 Lambda2 0.1499999999999997 [dLambda -0.04999999999999999]
TCL: Setting parameter firsttimestep to 0
TCL: Setting parameter alchLambda to 0.19999999999999968
Info: NONBONDED TABLE R-SQUARED SPACING: 0.0625
Info: NONBONDED TABLE SIZE: 705 POINTS
TCL: Setting parameter alchLambda2 to 0.1499999999999997
Info: NONBONDED TABLE R-SQUARED SPACING: 0.0625
Info: NONBONDED TABLE SIZE: 705 POINTS
TCL: Running for 1500000 steps
ETITLE: TS BOND ANGLE DIHED IMPRP ELECT VDW BOUNDARY MISC KINETIC TOTAL TEMP POTENTIAL TOTALAVG TEMPAVG PRESSURE GPRESSURE VOLUME PRESSAVG GPRESSAVG
ENERGY: 0 0.4286 3.3431 0.5415 0.0000 -10909.5442 1489.7907 0.0000 0.0000 1811.0518 -7604.3885 304.0917 -9415.4403 -7604.3885 304.0917 93.5172 170.4638 30914.6623 93.5172 170.4638
ENERGY: 300000 0.0025 1.3593 0.0295 0.0000 -10973.6532 1542.2544 0.0000 0.0000 1786.1628 -7643.8447 299.9126 -9430.0075 -7607.2667 301.5350 909.2471 954.9477 30165.8445 539.4213 607.6671
ENERGY: 600000 0.2768 5.1435 0.6319 0.0000 -10855.6502 1409.7854 0.0000 0.0000 1825.5408 -7614.2717 306.5245 -9439.8126 -7620.9281 301.0675 -135.7856 -82.9102 30116.3711 365.9582 420.6993
ENERGY: 900000 0.6168 1.2726 1.9436 0.0000 -10957.5835 1535.4951 0.0000 0.0000 1814.0244 -7604.2310 304.5908 -9418.2555 -7628.9969 300.6456 858.1894 938.8354 30082.9460 333.3582 391.2623
ENERGY: 1200000 0.1412 3.6860 0.0602 0.0000 -10892.7598 1470.6333 0.0000 0.0000 1804.2907 -7613.9484 302.9564 -9418.2391 -7628.5096 301.2184 110.7574 132.0887 30746.8297 175.6953 224.5913
ENERGY: 1500000 3.4766 3.0718 0.0073 0.0000 -10783.6529 1374.9277 0.0000 0.0000 1800.1601 -7602.0093 302.2629 -9402.1695 -7635.7644 300.4955 -730.0533 -634.1991 30713.6845 18.6701 73.9892
TCL: Running FEP window  18: Lambda1 0.1499999999999997 Lambda2 0.09999999999999969 [dLambda -0.05 ]
TCL: Setting parameter firsttimestep to 0
TCL: Setting parameter alchLambda to 0.1499999999999997
Info: NONBONDED TABLE R-SQUARED SPACING: 0.0625
Info: NONBONDED TABLE SIZE: 705 POINTS
TCL: Setting parameter alchLambda2 to 0.09999999999999969
Info: NONBONDED TABLE R-SQUARED SPACING: 0.0625
Info: NONBONDED TABLE SIZE: 705 POINTS
TCL: Running for 1500000 steps
ETITLE: TS BOND ANGLE DIHED IMPRP ELECT VDW BOUNDARY MISC KINETIC TOTAL TEMP POTENTIAL TOTALAVG TEMPAVG PRESSURE GPRESSURE VOLUME PRESSAVG GPRESSAVG
ENERGY: 0 3.4766 3.0718 0.0073 0.0000 -10783.6536 1374.9878 0.0000 0.0000 1799.2610 -7602.8491 302.1119 -9402.1101 -7602.8491 302.1119 -721.8736 -633.9965 30713.6845 -721.8736 -633.9965
ENERGY: 300000 1.2865 1.5079 0.1892 0.0000 -10791.9738 1384.0608 0.0000 0.0000 1789.2809 -7615.6485 300.4361 -9404.9294 -7638.7506 301.2326 -683.2842 -704.0752 30988.0308 -301.2474 -273.3848
ENERGY: 600000 0.1285 3.1485 0.1115 0.0000 -10899.6659 1496.3584 0.0000 0.0000 1708.2429 -7691.6761 286.8291 -9399.9190 -7630.3914 298.6141 258.9664 324.0128 30432.4964 -76.9686 -34.4172
ENERGY: 900000 0.2741 3.7199 0.0840 0.0000 -10893.3338 1482.8745 0.0000 0.0000 1820.4325 -7585.9488 305.6668 -9406.3813 -7612.8062 299.9090 15.0105 78.0671 30931.0060 -41.6617 4.3290
ENERGY: 1200000 0.3009 2.2511 0.0223 0.0000 -10791.2291 1405.7409 0.0000 0.0000 1764.6150 -7618.2990 296.2945 -9382.9140 -7605.0700 300.3148 -495.1101 -476.6084 30927.0490 -44.7771 3.0763
ENERGY: 1500000 0.0521 3.1695 0.0673 0.0000 -10952.4089 1497.0528 0.0000 0.0000 1814.2501 -7637.8171 304.6287 -9452.0671 -7620.2087 300.3127 174.7055 228.7437 30704.1584 -79.5191 -31.5427
TCL: Running FEP window  19: Lambda1 0.09999999999999969 Lambda2 0.049999999999999684 [dLambda -0.05 ]
TCL: Setting parameter firsttimestep to 0
TCL: Setting parameter alchLambda to 0.09999999999999969
Info: NONBONDED TABLE R-SQUARED SPACING: 0.0625
Info: NONBONDED TABLE SIZE: 705 POINTS
TCL: Setting parameter alchLambda2 to 0.049999999999999684
Info: NONBONDED TABLE R-SQUARED SPACING: 0.0625
Info: NONBONDED TABLE SIZE: 705 POINTS
TCL: Running for 1500000 steps
ETITLE: TS BOND ANGLE DIHED IMPRP ELECT VDW BOUNDARY MISC KINETIC TOTAL TEMP POTENTIAL TOTALAVG TEMPAVG PRESSURE GPRESSURE VOLUME PRESSAVG GPRESSAVG
ENERGY: 0 0.0521 3.1695 0.0673 0.0000 -10952.4100 1495.7217 0.0000 0.0000 1813.3371 -7640.0622 304.4754 -9453.3993 -7640.0622 304.4754 138.1488 223.3167 30704.1584 138.1488 223.3167
ENERGY: 300000 0.2518 2.0713 0.0347 0.0000 -10949.0481 1461.0180 0.0000 0.0000 1750.1427 -7735.5296 293.8645 -9485.6723 -7666.7255 301.9034 -200.7460 -133.8187 30608.2855 1.5317 77.6602
ENERGY: 600000 0.2116 2.6401 0.0611 0.0000 -10818.9137 1405.1232 0.0000 0.0000 1802.9424 -7607.9353 302.7300 -9410.8777 -7647.9039 301.8564 -463.1997 -445.2784 30802.4708 -93.5393 -36.0764
ENERGY: 900000 0.7303 6.0640 0.3793 0.0000 -10880.8970 1463.1134 0.0000 0.0000 1733.7945 -7676.8156 291.1195 -9410.6101 -7656.6637 300.3022 -181.5999 -100.5447 30807.0794 -83.0276 -18.9030
ENERGY: 1200000 0.3263 2.7475 1.7433 0.0000 -10950.1544 1420.2290 0.0000 0.0000 1846.6335 -7678.4748 310.0661 -9525.1083 -7646.0754 301.5315 -432.3546 -433.0638 30426.6753 -117.4254 -65.0706
ENERGY: 1500000 0.2030 2.2464 0.4453 0.0000 -10889.7775 1492.8252 0.0000 0.0000 1772.2138 -7621.8438 297.5704 -9394.0576 -7643.9070 300.3880 292.3054 299.5786 30581.3927 -91.1997 -42.4926
TCL: Running FEP window  20: Lambda1 0.049999999999999684 Lambda2 0.0    [dLambda -0.049999999999999684]
TCL: Setting parameter firsttimestep to 0
TCL: Setting parameter alchLambda to 0.049999999999999684
Info: NONBONDED TABLE R-SQUARED SPACING: 0.0625
Info: NONBONDED TABLE SIZE: 705 POINTS
TCL: Setting parameter alchLambda2 to 0.0
Info: NONBONDED TABLE R-SQUARED SPACING: 0.0625
Info: NONBONDED TABLE SIZE: 705 POINTS
TCL: Running for 1500000 steps
ETITLE: TS BOND ANGLE DIHED IMPRP ELECT VDW BOUNDARY MISC KINETIC TOTAL TEMP POTENTIAL TOTALAVG TEMPAVG PRESSURE GPRESSURE VOLUME PRESSAVG GPRESSAVG
ENERGY: 0 0.2030 2.2464 0.4453 0.0000 -10889.7774 1492.7440 0.0000 0.0000 1771.3582 -7622.7806 297.4268 -9394.1388 -7622.7806 297.4268 204.3230 296.7298 30581.3927 204.3230 296.7298
ENERGY: 300000 0.0003 3.1144 0.3540 0.0000 -10999.0849 1567.2230 0.0000 0.0000 1748.7956 -7679.5975 293.6383 -9428.3931 -7626.2502 299.5765 697.3467 707.9997 30730.6819 254.7177 305.4307
ENERGY: 600000 0.7188 3.4690 0.0804 0.0000 -10654.1696 1327.1045 0.0000 0.0000 1803.8596 -7518.9372 302.8840 -9322.7969 -7618.5337 300.2056 -763.5516 -750.4122 30881.2671 -14.3383 29.7581
ENERGY: 900000 0.6855 2.7839 0.5681 0.0000 -10815.1514 1411.0952 0.0000 0.0000 1814.9411 -7585.0776 304.7447 -9400.0187 -7613.9091 299.8523 -332.2651 -298.3619 30782.2256 -20.1566 29.5908
ENERGY: 1200000 0.3848 5.0917 0.5946 0.0000 -10965.1675 1546.8954 0.0000 0.0000 1789.4457 -7622.7553 300.4638 -9412.2010 -7610.3761 301.2913 457.5995 487.7737 30779.1102 95.8376 147.7679
ENERGY: 1500000 0.0008 2.4871 0.0558 0.0000 -10940.7680 1514.3105 0.0000 0.0000 1774.0183 -7649.8956 297.8734 -9423.9139 -7619.2726 300.8191 292.5860 371.7795 30799.7122 144.3556 196.0219
TCL: Exiting due to exit command.
