Info: SIMULATION PARAMETERS:
Info: TIMESTEP               2
Info: NUMBER OF STEPS        0
Info: STEPS PER CYCLE        10
Info: PERIODIC CELL BASIS 1  31.7685 0 0
Info: PERIODIC CELL BASIS 2  0 30.2288 0
Info: PERIODIC CELL BASIS 3  0 0 31.9396
Info: PERIODIC CELL CENTER   0 0 0
Info: WRAPPING WATERS AROUND PERIODIC BOUNDARIES ON OUTPUT.
Info: WRAPPING ALL CLUSTERS AROUND PERIODIC BOUNDARIES ON OUTPUT.
Info: FIRST LDB TIMESTEP     50
Info: LAST LDB TIMESTEP     -1
Info: HOM BACKGROUND SCALING 1
Info: PME BACKGROUND SCALING 1
Info: MIN ATOMS PER PATCH    40
Info: EMPTY PATCH LOAD       40 ATOMS
Info: VELOCITY FILE          mobley_3999471_equil.vel
Info: CENTER OF MASS MOVING INITIALLY? NO
Info: DIELECTRIC             1
Info: EXCLUDE                SCALED ONE-FOUR
Info: 1-4 ELECTROSTATICS SCALED BY 0.833333
Info: MODIFIED 1-4 VDW PARAMETERS WILL BE USED
Info: DCD FILENAME           mobley_3999471_prod.dcd
Info: DCD FREQUENCY          100000
Info: DCD FIRST STEP         100000
Info: DCD FILE WILL CONTAIN UNIT CELL DATA
Info: XST FILENAME           mobley_3999471_prod.xst
Info: XST FREQUENCY          100000
Info: NO VELOCITY DCD OUTPUT
Info: NO FORCE DCD OUTPUT
Info: OUTPUT FILENAME        mobley_3999471_prod
Info: BINARY OUTPUT FILES WILL BE USED
Info: RESTART FILENAME       mobley_3999471_prod.restart
Info: RESTART FREQUENCY      100000
Info: BINARY RESTART FILES WILL BE USED
Info: CUTOFF                 9
Info: PAIRLIST DISTANCE      11
Info: PAIRLIST SHRINK RATE   0.01
Info: PAIRLIST GROW RATE     0.01
Info: PAIRLIST TRIGGER       0.3
Info: PAIRLISTS PER CYCLE    2
Info: PAIRLISTS ENABLED
Info: MARGIN                 2
Info: HYDROGEN GROUP CUTOFF  2.5
Info: PATCH DIMENSION        15.5
Info: ENERGY OUTPUT STEPS    100000
Info: ENERGY EVALUATION STEPS    100000
Info: OUTPUT ENERGY PRECISION 4
Info: CROSSTERM ENERGY INCLUDED IN DIHEDRAL
Info: TIMING OUTPUT STEPS    1000000
Info: PRESSURE OUTPUT STEPS  100000
Info: ALCHEMICAL FEP ON
Info: FEP CURRENT LAMBDA VALUE     0
Info: FEP COMPARISON LAMBDA VALUE  0.05
Info: FEP INTRA-ALCHEMICAL NON-BONDED INTERACTIONS WILL BE RETAINED
Info: FEP INTRA-ALCHEMICAL BONDED INTERACTIONS WILL BE RETAINED
Info: FEP VDW SHIFTING COEFFICIENT 5
Info: FEP ELEC. ACTIVE FOR ANNIHILATED PARTICLES BETWEEN LAMBDA = 0 AND LAMBDA = 0.5
Info: FEP ELEC. ACTIVE FOR EXNIHILATED PARTICLES BETWEEN LAMBDA = 0.5 AND LAMBDA = 1
Info: FEP VDW ACTIVE FOR ANNIHILATED PARTICLES BETWEEN LAMBDA = 0 AND LAMBDA = 1
Info: FEP VDW ACTIVE FOR EXNIHILATED PARTICLES BETWEEN LAMBDA = 0 AND LAMBDA = 1
Info: FEP BOND ACTIVE FOR ANNIHILATED PARTICLES BETWEEN LAMBDA = 1 AND LAMBDA = 1
Info: FEP BOND ACTIVE FOR EXNIHILATED PARTICLES BETWEEN LAMBDA = 0 AND LAMBDA = 0
Info: LANGEVIN DYNAMICS ACTIVE
Info: LANGEVIN TEMPERATURE   300
Info: LANGEVIN USING BBK INTEGRATOR
Info: LANGEVIN DAMPING COEFFICIENT IS 1 INVERSE PS
Info: LANGEVIN DYNAMICS APPLIED TO HYDROGENS
Info: LANGEVIN PISTON PRESSURE CONTROL ACTIVE
Info:        TARGET PRESSURE IS 1.01325 BAR
Info:     OSCILLATION PERIOD IS 50 FS
Info:             DECAY TIME IS 25 FS
Info:     PISTON TEMPERATURE IS 300 K
Info:       PRESSURE CONTROL IS GROUP-BASED
Info:    INITIAL STRAIN RATE IS 1.4354e-05 1.4354e-05 1.4354e-05
Info:       CELL FLUCTUATION IS ISOTROPIC
Info: PARTICLE MESH EWALD (PME) ACTIVE
Info: PME TOLERANCE               1e-06
Info: PME EWALD COEFFICIENT       0.348832
Info: PME INTERPOLATION ORDER     4
Info: PME GRID DIMENSIONS         32 32 32
Info: PME MAXIMUM GRID SPACING    1
Info: PME CALCULATION WILL BE PERFORMED ON GPU
Info: FULL ELECTROSTATIC EVALUATION FREQUENCY      2
Info: USING VERLET I (r-RESPA) MTS SCHEME.
Info: C1 SPLITTING OF LONG RANGE ELECTROSTATICS
Info: PLACING ATOMS IN PATCHES BY HYDROGEN GROUPS
Info: RIGID BONDS TO HYDROGEN : ALL
Info:         ERROR TOLERANCE : 1e-08
Info:          MAX ITERATIONS : 100
Info: RIGID WATER USING SETTLE ALGORITHM
Info: RANDOM NUMBER SEED     1743489093
Info: USE HYDROGEN BONDS?    NO
Info: Using AMBER format force field!
Info: AMBER PARM FILE        mobley_3999471.prmtop
Info: COORDINATE PDB         mobley_3999471.pdb
Info: Exclusions will be read from PARM file!
Info: SCNB (VDW SCALING)     2
Info: USING ARITHMETIC MEAN TO COMBINE L-J SIGMA PARAMETERS
Info: BINARY COORDINATES     mobley_3999471_equil.coor
Info: SUMMARY OF PARAMETERS:
Info: 6 BONDS
Info: 6 ANGLES
Info:   6 HARMONIC
Info:   0 COSINE-BASED
Info: 3 DIHEDRAL
Info: 0 IMPROPER
Info: 0 CROSSTERM
Info: 0 VDW
Info: 21 VDW_PAIRS
Info: 0 NBTHOLE_PAIRS
Info: To read alchdata from file: mobley_3999471.pdb
Info: To read alchflag data from column: 5
Info: STRUCTURE SUMMARY:
Info: 2987 ATOMS
Info: 2986 BONDS
Info: 12 ANGLES
Info: 15 DIHEDRALS
Info: 0 IMPROPERS
Info: 0 CROSSTERMS
Info: 3007 EXCLUSIONS
Info: 2983 RIGID BONDS
Info: ALCH: 0 ATOMS TO DISAPPEAR IN FINAL STATE
Info: ALCH: 8 ATOMS TO APPEAR IN FINAL STATE
Info: 5978 DEGREES OF FREEDOM
Info: 997 HYDROGEN GROUPS
Info: 4 ATOMS IN LARGEST HYDROGEN GROUP
Info: 997 MIGRATION GROUPS
Info: 4 ATOMS IN LARGEST MIGRATION GROUP
Info: TOTAL MASS = 17988.8 amu
Info: TOTAL CHARGE = 0.000100009 e
Info: MASS DENSITY = 0.973903 g/cm^3
Info: ATOM DENSITY = 0.0973842 atoms/A^3
Info: ADDED 0 IMPLICIT EXCLUSIONS
Info: NONBONDED TABLE R-SQUARED SPACING: 0.0625
Info: NONBONDED TABLE SIZE: 705 POINTS
Info: REMOVING COM VELOCITY -0.147984 -0.174821 -0.00167398
Info: Use 3D box decompostion in PME FFT.
Info: Updated CUDA force table with 4096 elements.
Info: Updated CUDA LJ table with 6 x 6 elements.
Info: Found 11 unique exclusion lists needing 16 bytes
TCL: Running for 1500000 steps
ETITLE: TS BOND ANGLE DIHED IMPRP ELECT VDW BOUNDARY MISC KINETIC TOTAL TEMP POTENTIAL TOTALAVG TEMPAVG PRESSURE GPRESSURE VOLUME PRESSAVG GPRESSAVG
ENERGY: 0 0.8965 2.6150 1.5392 0.0000 -11088.7166 1566.7666 0.0000 0.0000 1762.9516 -7753.9479 296.8075 -9516.8994 -7753.9479 296.8075 399.9353 485.7410 30672.3136 399.9353 485.7410
ENERGY: 300000 0.2113 1.7770 1.8497 0.0000 -10826.2657 1452.3680 0.0000 0.0000 1767.9242 -7602.1356 297.6447 -9370.0598 -7621.5662 301.1672 -108.5835 -44.2753 30695.1933 75.9188 132.0049
ENERGY: 600000 4.5394 4.1936 1.5205 0.0000 -10839.5276 1469.2514 0.0000 0.0000 1768.9314 -7591.0912 297.8142 -9360.0226 -7620.3690 300.0445 -89.1143 2.9444 30885.0532 -65.9668 3.5944
ENERGY: 900000 0.6086 1.1359 1.5348 0.0000 -10795.0459 1441.6436 0.0000 0.0000 1834.5020 -7515.6210 308.8536 -9350.1229 -7596.3255 301.9450 157.4173 208.0966 30505.8420 -110.5012 -36.3165
ENERGY: 1200000 0.1749 1.2187 1.6045 0.0000 -10748.2171 1433.5792 0.0000 0.0000 1727.4931 -7584.1467 290.8378 -9311.6398 -7594.0714 301.1434 -218.3093 -64.8450 30768.3945 -32.8857 44.7817
ENERGY: 1500000 1.6342 3.8462 1.5611 0.0000 -10909.2832 1475.2123 0.0000 0.0000 1787.0697 -7639.9597 300.8680 -9427.0294 -7598.7609 300.9121 -99.4609 12.4735 30576.3278 -33.1821 42.6249
TCL: Running FEP window   2: Lambda1 0.05   Lambda2 0.1    [dLambda 0.05  ]
TCL: Setting parameter firsttimestep to 0
TCL: Setting parameter alchLambda to 0.05
Info: NONBONDED TABLE R-SQUARED SPACING: 0.0625
Info: NONBONDED TABLE SIZE: 705 POINTS
TCL: Setting parameter alchLambda2 to 0.1
Info: NONBONDED TABLE R-SQUARED SPACING: 0.0625
Info: NONBONDED TABLE SIZE: 705 POINTS
TCL: Running for 1500000 steps
ETITLE: TS BOND ANGLE DIHED IMPRP ELECT VDW BOUNDARY MISC KINETIC TOTAL TEMP POTENTIAL TOTALAVG TEMPAVG PRESSURE GPRESSURE VOLUME PRESSAVG GPRESSAVG
ENERGY: 0 1.6342 3.8462 1.5611 0.0000 -10909.2840 1474.9898 0.0000 0.0000 1786.1848 -7641.0678 300.7190 -9427.2527 -7641.0678 300.7190 -79.7050 10.3066 30576.3278 -79.7050 10.3066
ENERGY: 300000 0.1651 2.0780 2.0148 0.0000 -10876.8640 1432.3309 0.0000 0.0000 1806.0448 -7634.2304 304.0626 -9440.2752 -7603.7396 304.1965 -461.9517 -376.4471 30790.3635 78.4943 157.8211
ENERGY: 600000 1.3037 1.9910 1.5677 0.0000 -10966.6444 1548.3458 0.0000 0.0000 1778.5741 -7634.8621 299.4377 -9413.4361 -7610.0167 302.4981 444.5551 480.4977 30920.0064 135.8061 194.6194
ENERGY: 900000 1.2834 3.7388 1.4984 0.0000 -10907.9105 1503.1933 0.0000 0.0000 1734.0237 -7664.1729 291.9372 -9398.1965 -7626.6365 299.1124 248.6114 340.4716 30467.3531 49.1254 113.8334
ENERGY: 1200000 0.8944 3.7334 1.5952 0.0000 -10803.7504 1433.9414 0.0000 0.0000 1812.7693 -7550.8168 305.1947 -9363.5861 -7622.1216 299.6982 -212.2323 -158.8308 30891.7462 -18.0880 39.6694
ENERGY: 1500000 0.3535 5.1611 1.5413 0.0000 -10767.3866 1378.0575 0.0000 0.0000 1758.6026 -7623.6706 296.0753 -9382.2732 -7623.9878 298.6258 -827.7851 -690.1486 31034.0507 1.9118 64.9683
TCL: Running FEP window   3: Lambda1 0.1    Lambda2 0.15000000000000002 [dLambda 0.05000000000000002]
TCL: Setting parameter firsttimestep to 0
TCL: Setting parameter alchLambda to 0.1
Info: NONBONDED TABLE R-SQUARED SPACING: 0.0625
Info: NONBONDED TABLE SIZE: 705 POINTS
TCL: Setting parameter alchLambda2 to 0.15000000000000002
Info: NONBONDED TABLE R-SQUARED SPACING: 0.0625
Info: NONBONDED TABLE SIZE: 705 POINTS
TCL: Running for 1500000 steps
ETITLE: TS BOND ANGLE DIHED IMPRP ELECT VDW BOUNDARY MISC KINETIC TOTAL TEMP POTENTIAL TOTALAVG TEMPAVG PRESSURE GPRESSURE VOLUME PRESSAVG GPRESSAVG
ENERGY: 0 0.3535 5.1611 1.5413 0.0000 -10767.3860 1377.9215 0.0000 0.0000 1757.6917 -7624.7168 295.9220 -9382.4086 -7624.7168 295.9220 -780.4266 -691.0967 31034.0507 -780.4266 -691.0967
ENERGY: 300000 0.6939 2.9628 1.5814 0.0000 -10841.2772 1473.3645 0.0000 0.0000 1708.2226 -7654.4521 287.5934 -9362.6747 -7590.4256 298.6892 10.2748 116.4812 30612.0108 -521.8745 -440.2870
ENERGY: 600000 0.6135 0.9414 2.4248 0.0000 -10829.0592 1446.0534 0.0000 0.0000 1786.9766 -7592.0494 300.8523 -9379.0260 -7591.4886 298.9709 24.9175 96.5576 30502.4239 -157.1897 -87.9733
ENERGY: 900000 2.6218 2.1676 1.5332 0.0000 -10894.1391 1492.3434 0.0000 0.0000 1720.8760 -7674.5972 289.7237 -9395.4731 -7599.9287 298.5429 165.7658 231.0376 30564.5290 -104.9000 -37.6759
ENERGY: 1200000 1.6524 1.7278 1.5899 0.0000 -11003.1808 1517.2439 0.0000 0.0000 1808.1837 -7672.7832 304.4227 -9480.9669 -7598.6390 299.3938 79.3147 166.1415 30568.1650 -135.1358 -68.4511
ENERGY: 1500000 2.7203 1.5709 1.5186 0.0000 -10888.4473 1521.9507 0.0000 0.0000 1831.9932 -7528.6936 308.4312 -9360.6867 -7597.8910 300.1830 420.6880 458.0912 30862.4728 -49.8805 16.2032
TCL: Running FEP window   4: Lambda1 0.15000000000000002 Lambda2 0.2    [dLambda 0.04999999999999999]
TCL: Setting parameter firsttimestep to 0
TCL: Setting parameter alchLambda to 0.15000000000000002
Info: NONBONDED TABLE R-SQUARED SPACING: 0.0625
Info: NONBONDED TABLE SIZE: 705 POINTS
TCL: Setting parameter alchLambda2 to 0.2
Info: NONBONDED TABLE R-SQUARED SPACING: 0.0625
Info: NONBONDED TABLE SIZE: 705 POINTS
TCL: Running for 1500000 steps
ETITLE: TS BOND ANGLE DIHED IMPRP ELECT VDW BOUNDARY MISC KINETIC TOTAL TEMP POTENTIAL TOTALAVG TEMPAVG PRESSURE GPRESSURE VOLUME PRESSAVG GPRESSAVG
ENERGY: 0 2.7203 1.5709 1.5186 0.0000 -10888.4471 1521.7080 0.0000 0.0000 1831.1452 -7529.7841 308.2884 -9360.9292 -7529.7841 308.2884 366.5664 458.2039 30862.4728 366.5664 458.2039
ENERGY: 300000 0.5454 3.5822 1.6285 0.0000 -10749.0961 1424.8452 0.0000 0.0000 1811.6958 -7506.7990 305.0140 -9318.4948 -7561.1277 304.8788 33.6770 40.6902 30830.4443 48.9234 124.2774
ENERGY: 600000 1.0327 1.8143 1.6007 0.0000 -10849.6938 1458.5462 0.0000 0.0000 1752.4245 -7634.2754 295.0352 -9386.6999 -7596.9543 302.7446 -14.9229 -17.7331 30988.7713 40.9913 101.6340
ENERGY: 900000 0.3195 4.7810 1.8164 0.0000 -10955.9324 1536.1626 0.0000 0.0000 1741.9400 -7670.9128 293.2700 -9412.8528 -7605.6908 301.1806 485.7039 579.1402 30499.7954 55.2006 126.2375
ENERGY: 1200000 1.3880 0.7471 1.5149 0.0000 -10826.5699 1368.0455 0.0000 0.0000 1763.0287 -7691.8459 296.8205 -9454.8745 -7615.6420 300.6988 -1110.5777 -941.5327 30684.7096 -151.4970 -73.2949
ENERGY: 1500000 1.5214 2.7782 1.5149 0.0000 -10824.9968 1417.3204 0.0000 0.0000 1776.5227 -7625.3392 299.0923 -9401.8618 -7612.2501 300.9084 -338.3156 -292.8367 30404.8999 -45.7930 27.2216
TCL: Running FEP window   5: Lambda1 0.2    Lambda2 0.25   [dLambda 0.04999999999999999]
TCL: Setting parameter firsttimestep to 0
TCL: Setting parameter alchLambda to 0.2
Info: NONBONDED TABLE R-SQUARED SPACING: 0.0625
Info: NONBONDED TABLE SIZE: 705 POINTS
TCL: Setting parameter alchLambda2 to 0.25
Info: NONBONDED TABLE R-SQUARED SPACING: 0.0625
Info: NONBONDED TABLE SIZE: 705 POINTS
TCL: Running for 1500000 steps
ETITLE: TS BOND ANGLE DIHED IMPRP ELECT VDW BOUNDARY MISC KINETIC TOTAL TEMP POTENTIAL TOTALAVG TEMPAVG PRESSURE GPRESSURE VOLUME PRESSAVG GPRESSAVG
ENERGY: 0 1.5214 2.7782 1.5149 0.0000 -10824.9963 1418.2355 0.0000 0.0000 1775.6023 -7625.3440 298.9373 -9400.9463 -7625.3440 298.9373 -364.1674 -281.3891 30404.8999 -364.1674 -281.3891
ENERGY: 300000 1.0287 1.7509 1.5008 0.0000 -10973.9086 1545.1966 0.0000 0.0000 1766.2951 -7658.1365 297.3704 -9424.4316 -7644.4652 298.0665 580.7040 625.8278 30396.2193 203.5064 283.6695
ENERGY: 600000 1.7516 5.0538 1.5236 0.0000 -10921.6174 1467.6394 0.0000 0.0000 1781.5519 -7664.0971 299.9390 -9445.6490 -7628.7060 297.9256 -95.8041 20.2458 30240.6117 118.7699 189.6058
ENERGY: 900000 0.7824 1.7704 1.5149 0.0000 -10724.0100 1367.4249 0.0000 0.0000 1739.3030 -7613.2144 292.8261 -9352.5174 -7611.3006 299.1066 -478.1761 -468.1220 30513.9403 74.4686 133.6815
ENERGY: 1200000 2.0605 1.7759 1.7807 0.0000 -10972.3494 1468.9031 0.0000 0.0000 1801.1215 -7696.7077 303.2337 -9497.8292 -7614.2223 299.0895 -109.5448 -63.4766 30622.6541 104.7077 169.4350
ENERGY: 1500000 0.8649 4.5252 1.8928 0.0000 -10835.6647 1449.3480 0.0000 0.0000 1802.9527 -7576.0810 303.5420 -9379.0337 -7613.3727 299.9861 -198.9838 -163.4659 30752.7043 102.0308 160.4752
TCL: Running FEP window   6: Lambda1 0.25   Lambda2 0.3    [dLambda 0.04999999999999999]
TCL: Setting parameter firsttimestep to 0
TCL: Setting parameter alchLambda to 0.25
Info: NONBONDED TABLE R-SQUARED SPACING: 0.0625
Info: NONBONDED TABLE SIZE: 705 POINTS
TCL: Setting parameter alchLambda2 to 0.3
Info: NONBONDED TABLE R-SQUARED SPACING: 0.0625
Info: NONBONDED TABLE SIZE: 705 POINTS
TCL: Running for 1500000 steps
ETITLE: TS BOND ANGLE DIHED IMPRP ELECT VDW BOUNDARY MISC KINETIC TOTAL TEMP POTENTIAL TOTALAVG TEMPAVG PRESSURE GPRESSURE VOLUME PRESSAVG GPRESSAVG
ENERGY: 0 0.8649 4.5252 1.8928 0.0000 -10835.6641 1449.3878 0.0000 0.0000 1802.0892 -7576.9042 303.3966 -9378.9934 -7576.9042 303.3966 -232.3998 -158.3253 30752.7043 -232.3998 -158.3253
ENERGY: 300000 2.0153 4.2708 1.5696 0.0000 -10803.8352 1372.7285 0.0000 0.0000 1769.5529 -7653.6980 297.9189 -9423.2510 -7650.2348 297.7079 -602.1715 -569.6716 30228.7238 -165.6310 -115.9647
ENERGY: 600000 2.4887 2.7217 2.2851 0.0000 -10715.8471 1381.0922 0.0000 0.0000 1782.9397 -7544.3198 300.1727 -9327.2595 -7624.5791 299.5687 -487.1826 -454.7622 30690.1461 -221.8645 -177.3900
ENERGY: 900000 0.1652 2.1194 1.6664 0.0000 -10827.3346 1457.3203 0.0000 0.0000 1769.6707 -7596.3926 297.9387 -9366.0633 -7637.0177 298.4363 -276.2956 -201.1709 31212.1148 -291.0906 -229.7768
ENERGY: 1200000 1.6070 3.4416 1.8191 0.0000 -10853.5171 1462.0739 0.0000 0.0000 1818.3054 -7566.2701 306.1268 -9384.5755 -7626.9571 299.4682 -15.3870 77.9162 30908.1950 -282.5236 -223.0856
ENERGY: 1500000 0.6053 4.8493 2.2579 0.0000 -11008.9898 1551.4544 0.0000 0.0000 1774.2046 -7675.6183 298.7020 -9449.8229 -7624.9474 299.4534 289.6865 348.7912 30837.9470 -212.3095 -152.1395
TCL: Running FEP window   7: Lambda1 0.3    Lambda2 0.35   [dLambda 0.04999999999999999]
TCL: Setting parameter firsttimestep to 0
TCL: Setting parameter alchLambda to 0.3
Info: NONBONDED TABLE R-SQUARED SPACING: 0.0625
Info: NONBONDED TABLE SIZE: 705 POINTS
TCL: Setting parameter alchLambda2 to 0.35
Info: NONBONDED TABLE R-SQUARED SPACING: 0.0625
Info: NONBONDED TABLE SIZE: 705 POINTS
TCL: Running for 1500000 steps
ETITLE: TS BOND ANGLE DIHED IMPRP ELECT VDW BOUNDARY MISC KINETIC TOTAL TEMP POTENTIAL TOTALAVG TEMPAVG PRESSURE GPRESSURE VOLUME PRESSAVG GPRESSAVG
ENERGY: 0 0.6053 4.8493 2.2579 0.0000 -11008.9898 1551.0870 0.0000 0.0000 1773.3320 -7676.8583 298.5551 -9450.1903 -7676.8583 298.5551 268.3166 350.2034 30837.9470 268.3166 350.2034
ENERGY: 300000 0.8687 1.9637 1.5197 0.0000 -10665.4724 1373.2767 0.0000 0.0000 1744.3294 -7543.5142 293.6723 -9287.8436 -7619.1578 299.2321 -678.3250 -592.6563 31222.8718 -64.4867 -15.3496
ENERGY: 600000 0.9045 4.1936 1.6462 0.0000 -10838.4776 1503.7498 0.0000 0.0000 1767.7540 -7560.2294 297.6160 -9327.9834 -7618.2553 297.9940 250.3577 354.0073 31052.2060 -42.0150 19.7654
ENERGY: 900000 0.1261 1.3932 2.0896 0.0000 -10816.0635 1426.4174 0.0000 0.0000 1793.2178 -7592.8194 301.9031 -9386.0372 -7615.2332 299.2604 -406.4683 -389.7537 31171.7732 45.0966 90.3741
ENERGY: 1200000 0.4706 3.0269 1.7416 0.0000 -10842.9602 1493.4801 0.0000 0.0000 1780.7173 -7563.5237 299.7985 -9344.2411 -7606.9254 299.6523 245.6232 333.2118 30874.7800 102.2196 152.7730
ENERGY: 1500000 0.6846 4.6748 1.8140 0.0000 -10899.2937 1487.4705 0.0000 0.0000 1759.0827 -7645.5670 296.1561 -9404.6497 -7605.3772 299.4731 -11.9380 60.7153 30959.8102 17.7100 71.6617
TCL: Running FEP window   8: Lambda1 0.35   Lambda2 0.39999999999999997 [dLambda 0.04999999999999999]
TCL: Setting parameter firsttimestep to 0
TCL: Setting parameter alchLambda to 0.35
Info: NONBONDED TABLE R-SQUARED SPACING: 0.0625
Info: NONBONDED TABLE SIZE: 705 POINTS
TCL: Setting parameter alchLambda2 to 0.39999999999999997
Info: NONBONDED TABLE R-SQUARED SPACING: 0.0625
Info: NONBONDED TABLE SIZE: 705 POINTS
TCL: Running for 1500000 steps
ETITLE: TS BOND ANGLE DIHED IMPRP ELECT VDW BOUNDARY MISC KINETIC TOTAL TEMP POTENTIAL TOTALAVG TEMPAVG PRESSURE GPRESSURE VOLUME PRESSAVG GPRESSAVG
ENERGY: 0 0.6846 4.6748 1.8140 0.0000 -10899.2945 1488.1948 0.0000 0.0000 1758.2248 -7645.7015 296.0117 -9403.9263 -7645.7015 296.0117 -17.4928 65.5117 30959.8102 -17.4928 65.5117
ENERGY: 300000 0.9456 2.0048 2.2804 0.0000 -10687.9802 1368.8379 0.0000 0.0000 1783.7874 -7530.1242 300.3154 -9313.9116 -7567.8701 300.5103 -491.4395 -528.6453 30802.5606 -196.6292 -171.4531
ENERGY: 600000 0.7288 3.1993 1.7080 0.0000 -10860.5498 1516.2716 0.0000 0.0000 1781.8517 -7556.7904 299.9895 -9338.6421 -7557.6487 300.4739 253.0377 334.7902 31329.9740 -12.7318 27.1659
ENERGY: 900000 0.5846 1.8712 1.8158 0.0000 -10981.2771 1487.0056 0.0000 0.0000 1804.0837 -7685.9162 303.7324 -9489.9999 -7585.5412 301.4007 -105.4284 -4.5457 30675.8270 -60.9434 -3.1472
ENERGY: 1200000 0.8514 3.5049 1.7188 0.0000 -10817.3366 1409.3269 0.0000 0.0000 1806.5049 -7595.4297 304.1400 -9401.9346 -7597.9937 300.4390 -423.4298 -425.9835 30653.2544 -114.9798 -62.7329
ENERGY: 1500000 0.4954 2.4984 1.6970 0.0000 -10819.1443 1427.5952 0.0000 0.0000 1824.7030 -7562.1553 307.2039 -9386.8584 -7588.3729 301.5302 -170.7339 -96.3798 30817.1784 -115.1776 -57.4837
TCL: Running FEP window   9: Lambda1 0.39999999999999997 Lambda2 0.44999999999999996 [dLambda 0.04999999999999999]
TCL: Setting parameter firsttimestep to 0
TCL: Setting parameter alchLambda to 0.39999999999999997
Info: NONBONDED TABLE R-SQUARED SPACING: 0.0625
Info: NONBONDED TABLE SIZE: 705 POINTS
TCL: Setting parameter alchLambda2 to 0.44999999999999996
Info: NONBONDED TABLE R-SQUARED SPACING: 0.0625
Info: NONBONDED TABLE SIZE: 705 POINTS
TCL: Running for 1500000 steps
ETITLE: TS BOND ANGLE DIHED IMPRP ELECT VDW BOUNDARY MISC KINETIC TOTAL TEMP POTENTIAL TOTALAVG TEMPAVG PRESSURE GPRESSURE VOLUME PRESSAVG GPRESSAVG
ENERGY: 0 0.4954 2.4984 1.6970 0.0000 -10819.1440 1427.9435 0.0000 0.0000 1823.7903 -7562.7195 307.0502 -9386.5098 -7562.7195 307.0502 -183.7053 -87.6551 30817.1784 -183.7053 -87.6551
ENERGY: 300000 0.6109 4.5081 1.6092 0.0000 -10991.1475 1540.3997 0.0000 0.0000 1779.5118 -7664.5077 299.5955 -9444.0195 -7573.6373 302.8585 530.1163 603.5843 30533.4062 151.2748 215.5663
ENERGY: 600000 0.7741 2.3012 1.5660 0.0000 -10940.4803 1496.8625 0.0000 0.0000 1762.7914 -7676.1851 296.7805 -9438.9765 -7587.3532 301.0697 126.8456 148.1641 30803.9930 154.9554 216.8289
ENERGY: 900000 1.2211 1.7084 1.5072 0.0000 -10794.7876 1390.5470 0.0000 0.0000 1768.8437 -7630.9602 297.7995 -9399.8039 -7601.8236 300.0008 -583.0980 -496.3151 30596.3240 -36.5561 26.3545
ENERGY: 1200000 0.2880 4.8297 1.4957 0.0000 -10919.5379 1532.8062 0.0000 0.0000 1820.3238 -7559.7945 306.4666 -9380.1183 -7595.3411 299.9980 494.3814 570.7286 30659.3632 1.8118 68.0933
ENERGY: 1500000 3.0930 4.8347 1.5302 0.0000 -10917.3085 1495.4131 0.0000 0.0000 1804.0093 -7608.4282 303.7199 -9412.4375 -7591.7667 300.4984 328.8470 358.7517 30380.9967 38.6025 100.4756
TCL: Running FEP window  10: Lambda1 0.44999999999999996 Lambda2 0.49999999999999994 [dLambda 0.04999999999999999]
TCL: Setting parameter firsttimestep to 0
TCL: Setting parameter alchLambda to 0.44999999999999996
Info: NONBONDED TABLE R-SQUARED SPACING: 0.0625
Info: NONBONDED TABLE SIZE: 705 POINTS
TCL: Setting parameter alchLambda2 to 0.49999999999999994
Info: NONBONDED TABLE R-SQUARED SPACING: 0.0625
Info: NONBONDED TABLE SIZE: 705 POINTS
TCL: Running for 1500000 steps
ETITLE: TS BOND ANGLE DIHED IMPRP ELECT VDW BOUNDARY MISC KINETIC TOTAL TEMP POTENTIAL TOTALAVG TEMPAVG PRESSURE GPRESSURE VOLUME PRESSAVG GPRESSAVG
ENERGY: 0 3.0930 4.8347 1.5302 0.0000 -10917.3084 1495.6257 0.0000 0.0000 1803.1245 -7609.1003 303.5709 -9412.2248 -7609.1003 303.5709 286.4987 364.2071 30380.9967 286.4987 364.2071
ENERGY: 300000 0.7188 2.5690 1.8307 0.0000 -10715.7053 1340.0690 0.0000 0.0000 1787.4843 -7583.0335 300.9378 -9370.5178 -7598.1907 301.5694 -886.4298 -761.9643 30969.4603 -36.6953 17.3346
ENERGY: 600000 0.1633 5.7638 2.2201 0.0000 -10835.7802 1455.5718 0.0000 0.0000 1737.2903 -7634.7710 292.4872 -9372.0612 -7614.5767 298.3957 48.4281 79.3881 30550.6080 -111.2892 -60.0729
ENERGY: 900000 0.5916 3.2599 1.6455 0.0000 -10935.7260 1544.5328 0.0000 0.0000 1722.8174 -7662.8788 290.0506 -9385.6963 -7608.2318 298.0818 446.1634 587.0545 30533.0802 -51.3535 14.8263
ENERGY: 1200000 0.3097 6.4345 1.5362 0.0000 -10909.4243 1508.6147 0.0000 0.0000 1739.2075 -7653.3217 292.8100 -9392.5292 -7616.4497 298.1709 7.6895 98.9659 31224.0442 -114.9474 -48.9667
ENERGY: 1500000 1.1224 3.8153 1.5120 0.0000 -10797.4575 1468.9863 0.0000 0.0000 1787.5214 -7534.5001 300.9440 -9322.0214 -7611.5023 298.2373 294.3634 365.8019 30918.2058 -101.2607 -36.0194
TCL: Running FEP window  11: Lambda1 0.49999999999999994 Lambda2 0.5499999999999999 [dLambda 0.04999999999999999]
TCL: Setting parameter firsttimestep to 0
TCL: Setting parameter alchLambda to 0.49999999999999994
Info: NONBONDED TABLE R-SQUARED SPACING: 0.0625
Info: NONBONDED TABLE SIZE: 705 POINTS
TCL: Setting parameter alchLambda2 to 0.5499999999999999
Info: NONBONDED TABLE R-SQUARED SPACING: 0.0625
Info: NONBONDED TABLE SIZE: 705 POINTS
TCL: Running for 1500000 steps
ETITLE: TS BOND ANGLE DIHED IMPRP ELECT VDW BOUNDARY MISC KINETIC TOTAL TEMP POTENTIAL TOTALAVG TEMPAVG PRESSURE GPRESSURE VOLUME PRESSAVG GPRESSAVG
ENERGY: 0 1.1224 3.8153 1.5120 0.0000 -10797.4557 1468.8980 0.0000 0.0000 1786.5969 -7535.5111 300.7884 -9322.1080 -7535.5111 300.7884 301.2943 368.9118 30918.2058 301.2943 368.9118
ENERGY: 300000 0.2369 2.6693 1.5443 0.0000 -11044.2188 1569.0933 0.0000 0.0000 1718.9038 -7751.7711 289.3917 -9470.6749 -7629.3910 297.9303 566.1619 658.1657 30512.6544 151.3090 234.3704
ENERGY: 600000 1.0482 2.0385 1.4953 0.0000 -10898.4638 1502.4896 0.0000 0.0000 1796.9746 -7594.4176 302.5356 -9391.3923 -7594.9590 299.2293 218.7584 275.2068 31044.0139 98.6782 172.2637
ENERGY: 900000 1.2326 3.0943 1.5418 0.0000 -10804.2281 1410.3644 0.0000 0.0000 1780.8991 -7607.0959 299.8291 -9387.9950 -7591.1080 300.0388 -457.6374 -417.6304 30795.7860 22.2192 83.7778
ENERGY: 1200000 0.2359 5.0347 1.5809 0.0000 -10888.8936 1493.7951 0.0000 0.0000 1783.8876 -7604.3595 300.3322 -9388.2471 -7593.5061 299.9296 188.6674 195.1068 30689.9663 58.4633 111.4540
ENERGY: 1500000 1.3356 1.3206 1.4973 0.0000 -10886.4537 1536.9268 0.0000 0.0000 1749.8064 -7595.5670 294.5944 -9345.3734 -7594.6628 299.4271 794.7233 835.7810 30572.8553 55.5541 116.9663
TCL: Running FEP window  12: Lambda1 0.5499999999999999 Lambda2 0.6    [dLambda 0.050000000000000044]
TCL: Setting parameter firsttimestep to 0
TCL: Setting parameter alchLambda to 0.5499999999999999
Info: NONBONDED TABLE R-SQUARED SPACING: 0.0625
Info: NONBONDED TABLE SIZE: 705 POINTS
TCL: Setting parameter alchLambda2 to 0.6
Info: NONBONDED TABLE R-SQUARED SPACING: 0.0625
Info: NONBONDED TABLE SIZE: 705 POINTS
TCL: Running for 1500000 steps
ETITLE: TS BOND ANGLE DIHED IMPRP ELECT VDW BOUNDARY MISC KINETIC TOTAL TEMP POTENTIAL TOTALAVG TEMPAVG PRESSURE GPRESSURE VOLUME PRESSAVG GPRESSAVG
ENERGY: 0 1.3356 1.3206 1.4973 0.0000 -10886.2462 1537.0482 0.0000 0.0000 1748.8985 -7596.1459 294.4415 -9345.0444 -7596.1459 294.4415 760.1924 843.8163 30572.8553 760.1924 843.8163
ENERGY: 300000 1.3071 7.0475 1.6757 0.0000 -10878.8685 1483.3527 0.0000 0.0000 1793.8290 -7591.6566 302.0060 -9385.4856 -7607.0494 299.5904 349.8043 416.1362 30424.0973 255.2124 316.4899
ENERGY: 600000 0.6344 6.0125 1.4945 0.0000 -10816.1123 1431.7586 0.0000 0.0000 1819.5826 -7556.6297 306.3418 -9376.2124 -7614.6659 299.7486 -366.4418 -274.8576 30987.0909 294.9318 361.3134
ENERGY: 900000 3.1356 5.1916 2.2919 0.0000 -10903.6665 1479.5498 0.0000 0.0000 1765.1997 -7648.2978 297.1860 -9413.4975 -7622.3100 297.5720 58.0810 76.5460 30631.6401 234.2086 290.6914
ENERGY: 1200000 1.4143 5.1567 2.0699 0.0000 -10886.3915 1441.7918 0.0000 0.0000 1806.6117 -7629.3471 304.1580 -9435.9588 -7626.9007 297.5028 -176.9593 -195.0213 30563.3406 82.2791 132.3894
ENERGY: 1500000 1.8574 1.6300 1.5055 0.0000 -10774.3377 1412.9918 0.0000 0.0000 1779.3228 -7577.0302 299.5637 -9356.3530 -7623.9567 297.7454 -515.5345 -393.3149 30923.9284 -39.7139 18.5410
TCL: Running FEP window  13: Lambda1 0.6    Lambda2 0.65   [dLambda 0.050000000000000044]
TCL: Setting parameter firsttimestep to 0
TCL: Setting parameter alchLambda to 0.6
Info: NONBONDED TABLE R-SQUARED SPACING: 0.0625
Info: NONBONDED TABLE SIZE: 705 POINTS
TCL: Setting parameter alchLambda2 to 0.65
Info: NONBONDED TABLE R-SQUARED SPACING: 0.0625
Info: NONBONDED TABLE SIZE: 705 POINTS
TCL: Running for 1500000 steps
ETITLE: TS BOND ANGLE DIHED IMPRP ELECT VDW BOUNDARY MISC KINETIC TOTAL TEMP POTENTIAL TOTALAVG TEMPAVG PRESSURE GPRESSURE VOLUME PRESSAVG GPRESSAVG
ENERGY: 0 1.8574 1.6300 1.5055 0.0000 -10774.6426 1413.2059 0.0000 0.0000 1778.4334 -7578.0103 299.4140 -9356.4437 -7578.0103 299.4140 -485.3797 -387.2701 30923.9284 -485.3797 -387.2701
ENERGY: 300000 3.7596 2.9642 1.5811 0.0000 -10791.7826 1396.9429 0.0000 0.0000 1797.2092 -7589.3256 302.5750 -9386.5348 -7600.9778 301.2946 -35.4783 40.8015 30102.3860 -65.3902 -4.8915
ENERGY: 600000 0.3752 4.2195 2.0233 0.0000 -10838.5375 1436.0742 0.0000 0.0000 1820.1443 -7575.7010 306.4364 -9395.8453 -7612.7395 299.0554 137.5393 177.9720 30095.0450 -105.7122 -31.7360
ENERGY: 900000 2.7857 1.9930 1.5812 0.0000 -10661.8069 1386.4257 0.0000 0.0000 1825.8329 -7443.1885 307.3941 -9269.0214 -7604.2703 299.0049 -221.2148 -178.1865 31197.5855 -192.1285 -124.0937
ENERGY: 1200000 1.0790 3.1204 2.1639 0.0000 -10983.1702 1553.6950 0.0000 0.0000 1776.7153 -7646.3965 299.1247 -9423.1118 -7603.6357 299.1932 827.2951 887.1213 30148.4443 -90.8936 -36.8273
ENERGY: 1500000 0.3737 3.8485 1.6328 0.0000 -10751.7640 1438.4951 0.0000 0.0000 1733.5541 -7573.8597 291.8582 -9307.4138 -7604.0636 298.3980 -134.2519 -45.2975 30936.9782 -89.2852 -28.9650
TCL: Running FEP window  14: Lambda1 0.65   Lambda2 0.7000000000000001 [dLambda 0.050000000000000044]
TCL: Setting parameter firsttimestep to 0
TCL: Setting parameter alchLambda to 0.65
Info: NONBONDED TABLE R-SQUARED SPACING: 0.0625
Info: NONBONDED TABLE SIZE: 705 POINTS
TCL: Setting parameter alchLambda2 to 0.7000000000000001
Info: NONBONDED TABLE R-SQUARED SPACING: 0.0625
Info: NONBONDED TABLE SIZE: 705 POINTS
TCL: Running for 1500000 steps
ETITLE: TS BOND ANGLE DIHED IMPRP ELECT VDW BOUNDARY MISC KINETIC TOTAL TEMP POTENTIAL TOTALAVG TEMPAVG PRESSURE GPRESSURE VOLUME PRESSAVG GPRESSAVG
ENERGY: 0 0.3737 3.8485 1.6328 0.0000 -10751.6957 1438.3773 0.0000 0.0000 1732.6790 -7574.7844 291.7109 -9307.4634 -7574.7844 291.7109 -129.0067 -39.2594 30936.9782 -129.0067 -39.2594
ENERGY: 300000 1.7326 2.6625 1.8549 0.0000 -10749.0537 1420.8105 0.0000 0.0000 1813.4981 -7508.4951 305.3174 -9321.9932 -7559.6551 298.2371 -226.1809 -250.3241 31206.3130 -252.2296 -187.9929
ENERGY: 600000 0.4448 5.0519 1.5248 0.0000 -10788.3893 1431.4583 0.0000 0.0000 1805.6338 -7544.2758 303.9934 -9349.9095 -7558.4556 300.3458 -235.9065 -183.5259 30964.4372 -158.3918 -100.8165
ENERGY: 900000 1.2368 3.6687 1.5606 0.0000 -10770.5781 1422.9409 0.0000 0.0000 1779.6215 -7561.5495 299.6140 -9341.1710 -7554.0695 301.9570 -70.2699 62.5744 30553.2882 -94.6171 -23.8480
ENERGY: 1200000 0.8175 2.7322 1.6277 0.0000 -10786.2507 1439.6154 0.0000 0.0000 1842.9293 -7498.5285 310.2724 -9341.4579 -7567.7507 301.9750 12.8814 19.2713 30839.0622 -60.2531 -0.6253
ENERGY: 1500000 2.3371 3.1676 1.5833 0.0000 -10823.6523 1429.3864 0.0000 0.0000 1709.2065 -7677.9714 287.7591 -9387.1779 -7579.6831 300.8168 -543.8895 -509.1152 31190.6061 -113.7279 -54.3332
TCL: Running FEP window  15: Lambda1 0.7000000000000001 Lambda2 0.7500000000000001 [dLambda 0.050000000000000044]
TCL: Setting parameter firsttimestep to 0
TCL: Setting parameter alchLambda to 0.7000000000000001
Info: NONBONDED TABLE R-SQUARED SPACING: 0.0625
Info: NONBONDED TABLE SIZE: 705 POINTS
TCL: Setting parameter alchLambda2 to 0.7500000000000001
Info: NONBONDED TABLE R-SQUARED SPACING: 0.0625
Info: NONBONDED TABLE SIZE: 705 POINTS
TCL: Running for 1500000 steps
ETITLE: TS BOND ANGLE DIHED IMPRP ELECT VDW BOUNDARY MISC KINETIC TOTAL TEMP POTENTIAL TOTALAVG TEMPAVG PRESSURE GPRESSURE VOLUME PRESSAVG GPRESSAVG
ENERGY: 0 2.3371 3.1676 1.5833 0.0000 -10823.8328 1429.1254 0.0000 0.0000 1708.2791 -7679.3402 287.6029 -9387.6194 -7679.3402 287.6029 -588.2827 -507.5493 31190.6061 -588.2827 -507.5493
ENERGY: 300000 3.0435 2.4938 1.5654 0.0000 -10824.2002 1490.7612 0.0000 0.0000 1853.3865 -7472.9499 312.0330 -9326.3363 -7558.2888 299.8885 445.9073 475.2471 30855.9510 -99.6260 -5.3278
ENERGY: 600000 2.0161 2.4432 1.5221 0.0000 -10982.6659 1494.8642 0.0000 0.0000 1764.8278 -7716.9926 297.1234 -9481.8204 -7601.0676 299.8157 24.2659 68.2429 30446.0722 -69.9681 12.5390
ENERGY: 900000 0.2849 4.1652 1.6492 0.0000 -10796.1618 1455.6381 0.0000 0.0000 1771.1377 -7563.2867 298.1857 -9334.4244 -7591.6468 301.7557 110.4228 99.2424 30937.3583 -61.6563 9.5160
ENERGY: 1200000 1.5461 2.2225 1.7318 0.0000 -10650.1773 1394.4573 0.0000 0.0000 1735.9557 -7514.2640 292.2625 -9250.2197 -7584.9925 300.8100 -380.5124 -322.1645 30996.2302 -90.8669 -25.8130
ENERGY: 1500000 2.6406 3.2897 1.5497 0.0000 -10987.6864 1525.2947 0.0000 0.0000 1765.2810 -7689.6307 297.1997 -9454.9117 -7593.4015 300.7824 511.2291 604.3889 30247.7984 -26.7125 44.3392
TCL: Running FEP window  16: Lambda1 0.7500000000000001 Lambda2 0.8000000000000002 [dLambda 0.050000000000000044]
TCL: Setting parameter firsttimestep to 0
TCL: Setting parameter alchLambda to 0.7500000000000001
Info: NONBONDED TABLE R-SQUARED SPACING: 0.0625
Info: NONBONDED TABLE SIZE: 705 POINTS
TCL: Setting parameter alchLambda2 to 0.8000000000000002
Info: NONBONDED TABLE R-SQUARED SPACING: 0.0625
Info: NONBONDED TABLE SIZE: 705 POINTS
TCL: Running for 1500000 steps
ETITLE: TS BOND ANGLE DIHED IMPRP ELECT VDW BOUNDARY MISC KINETIC TOTAL TEMP POTENTIAL TOTALAVG TEMPAVG PRESSURE GPRESSURE VOLUME PRESSAVG GPRESSAVG
ENERGY: 0 2.6406 3.2897 1.5497 0.0000 -10987.9800 1525.1591 0.0000 0.0000 1764.3999 -7690.9410 297.0513 -9455.3409 -7690.9410 297.0513 512.9982 607.6485 30247.7984 512.9982 607.6485
ENERGY: 300000 0.6723 5.2135 2.3396 0.0000 -10825.9719 1460.9152 0.0000 0.0000 1834.7882 -7522.0431 308.9018 -9356.8313 -7575.1672 300.3399 372.4345 458.3618 30201.2152 87.0444 181.9964
ENERGY: 600000 0.5809 1.9027 1.9369 0.0000 -10744.2744 1364.0185 0.0000 0.0000 1770.4606 -7605.3747 298.0717 -9375.8353 -7575.9835 301.4077 -533.8083 -531.3266 30815.7800 -97.4468 -13.8087
ENERGY: 900000 1.6168 2.5433 1.6883 0.0000 -10900.8540 1438.9262 0.0000 0.0000 1825.4561 -7630.6233 307.3306 -9456.0794 -7600.5284 301.3964 -423.6953 -331.6204 30810.4605 -195.9974 -114.3597
ENERGY: 1200000 0.2281 3.4350 1.5311 0.0000 -10826.3278 1475.3320 0.0000 0.0000 1724.6020 -7621.1996 290.3510 -9345.8016 -7602.8238 300.1000 219.5635 322.2680 30716.9183 -171.1347 -94.1197
ENERGY: 1500000 1.8223 2.3849 1.6368 0.0000 -10869.8388 1512.2525 0.0000 0.0000 1769.1624 -7582.5800 297.8531 -9351.7424 -7605.2927 299.4282 358.8005 445.5757 30764.3353 -151.1470 -74.5368
TCL: Running FEP window  17: Lambda1 0.8000000000000002 Lambda2 0.8500000000000002 [dLambda 0.050000000000000044]
TCL: Setting parameter firsttimestep to 0
TCL: Setting parameter alchLambda to 0.8000000000000002
Info: NONBONDED TABLE R-SQUARED SPACING: 0.0625
Info: NONBONDED TABLE SIZE: 705 POINTS
TCL: Setting parameter alchLambda2 to 0.8500000000000002
Info: NONBONDED TABLE R-SQUARED SPACING: 0.0625
Info: NONBONDED TABLE SIZE: 705 POINTS
TCL: Running for 1500000 steps
ETITLE: TS BOND ANGLE DIHED IMPRP ELECT VDW BOUNDARY MISC KINETIC TOTAL TEMP POTENTIAL TOTALAVG TEMPAVG PRESSURE GPRESSURE VOLUME PRESSAVG GPRESSAVG
ENERGY: 0 1.8223 2.3849 1.6368 0.0000 -10869.9455 1511.8874 0.0000 0.0000 1768.2361 -7583.9781 297.6972 -9352.2142 -7583.9781 297.6972 352.4013 449.8410 30764.3353 352.4013 449.8410
ENERGY: 300000 1.7821 2.9128 1.6254 0.0000 -10884.8293 1422.8291 0.0000 0.0000 1827.3953 -7628.2847 307.6571 -9455.6800 -7584.0846 301.8711 -454.0226 -353.5634 30676.4821 302.1987 378.7569
ENERGY: 600000 2.3106 1.5400 1.5985 0.0000 -10917.0408 1471.9095 0.0000 0.0000 1754.9244 -7684.7579 295.4560 -9439.6823 -7613.8143 300.2504 67.6656 100.6368 30420.2255 167.6865 237.4823
ENERGY: 900000 0.3988 2.2045 2.1757 0.0000 -10730.4143 1468.3400 0.0000 0.0000 1830.0148 -7427.2805 308.0981 -9257.2953 -7595.4668 300.3642 743.2691 802.9792 30397.5126 77.7069 144.4682
ENERGY: 1200000 1.4083 4.2978 1.5142 0.0000 -10901.1946 1509.9720 0.0000 0.0000 1749.2739 -7634.7284 294.5047 -9384.0023 -7590.5793 299.9112 376.6548 503.6077 30586.8751 -12.4655 57.5591
ENERGY: 1500000 0.1520 3.6137 1.5712 0.0000 -10773.4568 1375.3489 0.0000 0.0000 1834.9487 -7557.8223 308.9288 -9392.7710 -7584.7739 300.6084 -628.3397 -541.4825 30917.1706 -79.5049 -8.5026
TCL: Running FEP window  18: Lambda1 0.8500000000000002 Lambda2 0.9000000000000002 [dLambda 0.050000000000000044]
TCL: Setting parameter firsttimestep to 0
TCL: Setting parameter alchLambda to 0.8500000000000002
Info: NONBONDED TABLE R-SQUARED SPACING: 0.0625
Info: NONBONDED TABLE SIZE: 705 POINTS
TCL: Setting parameter alchLambda2 to 0.9000000000000002
Info: NONBONDED TABLE R-SQUARED SPACING: 0.0625
Info: NONBONDED TABLE SIZE: 705 POINTS
TCL: Running for 1500000 steps
ETITLE: TS BOND ANGLE DIHED IMPRP ELECT VDW BOUNDARY MISC KINETIC TOTAL TEMP POTENTIAL TOTALAVG TEMPAVG PRESSURE GPRESSURE VOLUME PRESSAVG GPRESSAVG
ENERGY: 0 0.1520 3.6137 1.5712 0.0000 -10773.6394 1375.1071 0.0000 0.0000 1834.0401 -7559.1552 308.7758 -9393.1954 -7559.1552 308.7758 -619.2327 -536.2369 30917.1706 -619.2327 -536.2369
ENERGY: 300000 1.4208 3.5268 1.5501 0.0000 -10906.5994 1540.2584 0.0000 0.0000 1835.8793 -7523.9640 309.0855 -9359.8433 -7560.2915 306.3033 894.2352 934.0848 30531.7243 223.6014 287.6679
ENERGY: 600000 0.3118 1.0605 1.5828 0.0000 -10917.2838 1502.2497 0.0000 0.0000 1777.2945 -7634.7845 299.2222 -9412.0790 -7580.7282 302.3309 264.6768 374.0861 30732.4900 237.8928 314.3884
ENERGY: 900000 0.5004 3.5036 2.0174 0.0000 -10713.9847 1383.7967 0.0000 0.0000 1762.8313 -7561.3353 296.7872 -9324.1666 -7570.6519 302.7557 -473.1486 -419.2449 30896.2652 78.3266 148.3153
ENERGY: 1200000 0.1895 1.2850 1.4835 0.0000 -10880.1710 1556.6504 0.0000 0.0000 1789.9332 -7530.6294 301.3501 -9320.5626 -7579.6311 301.6362 787.8479 886.4654 31066.1098 123.5080 193.3794
ENERGY: 1500000 0.0446 5.5124 1.5447 0.0000 -10929.1804 1537.8697 0.0000 0.0000 1763.1130 -7621.0960 296.8347 -9384.2090 -7592.7875 301.0402 369.4781 429.9248 31133.4341 170.9135 239.5023
TCL: Running FEP window  19: Lambda1 0.9000000000000002 Lambda2 0.9500000000000003 [dLambda 0.050000000000000044]
TCL: Setting parameter firsttimestep to 0
TCL: Setting parameter alchLambda to 0.9000000000000002
Info: NONBONDED TABLE R-SQUARED SPACING: 0.0625
Info: NONBONDED TABLE SIZE: 705 POINTS
TCL: Setting parameter alchLambda2 to 0.9500000000000003
Info: NONBONDED TABLE R-SQUARED SPACING: 0.0625
Info: NONBONDED TABLE SIZE: 705 POINTS
TCL: Running for 1500000 steps
ETITLE: TS BOND ANGLE DIHED IMPRP ELECT VDW BOUNDARY MISC KINETIC TOTAL TEMP POTENTIAL TOTALAVG TEMPAVG PRESSURE GPRESSURE VOLUME PRESSAVG GPRESSAVG
ENERGY: 0 0.0446 5.5124 1.5447 0.0000 -10929.7304 1537.7360 0.0000 0.0000 1762.2251 -7622.6677 296.6852 -9384.8927 -7622.6677 296.6852 343.0622 433.4533 31133.4341 343.0622 433.4533
ENERGY: 300000 0.4986 2.3642 1.5356 0.0000 -10938.1464 1528.4993 0.0000 0.0000 1741.5042 -7663.7444 293.1966 -9405.2486 -7627.0867 298.3395 764.6398 819.8786 30488.5383 234.0505 315.6134
ENERGY: 600000 2.6860 4.5504 1.5716 0.0000 -10709.9727 1362.2170 0.0000 0.0000 1811.8061 -7527.1416 305.0326 -9338.9477 -7599.8571 301.6483 -749.5510 -618.3728 31157.3288 98.8823 173.8762
ENERGY: 900000 0.2456 0.9079 1.7785 0.0000 -10791.3514 1441.6242 0.0000 0.0000 1797.5764 -7549.2189 302.6369 -9346.7953 -7594.1782 301.5634 -150.9139 -77.5594 31082.5464 -37.8782 35.6522
ENERGY: 1200000 0.6385 2.5811 2.4280 0.0000 -10806.4778 1455.3253 0.0000 0.0000 1770.6767 -7574.8282 298.1081 -9345.5049 -7583.5856 301.7372 155.8439 184.9867 30698.4694 -9.9881 62.6393
ENERGY: 1500000 1.4157 4.2587 1.9715 0.0000 -10887.6874 1478.9871 0.0000 0.0000 1760.4837 -7640.5708 296.3920 -9401.0545 -7598.8128 300.3566 380.4561 487.5925 30345.0846 -35.6945 31.8461
TCL: Running FEP window  20: Lambda1 0.9500000000000003 Lambda2 1.0    [dLambda 0.04999999999999971]
TCL: Setting parameter firsttimestep to 0
TCL: Setting parameter alchLambda to 0.9500000000000003
Info: NONBONDED TABLE R-SQUARED SPACING: 0.0625
Info: NONBONDED TABLE SIZE: 705 POINTS
TCL: Setting parameter alchLambda2 to 1.0
Info: NONBONDED TABLE R-SQUARED SPACING: 0.0625
Info: NONBONDED TABLE SIZE: 705 POINTS
TCL: Running for 1500000 steps
ETITLE: TS BOND ANGLE DIHED IMPRP ELECT VDW BOUNDARY MISC KINETIC TOTAL TEMP POTENTIAL TOTALAVG TEMPAVG PRESSURE GPRESSURE VOLUME PRESSAVG GPRESSAVG
ENERGY: 0 1.4157 4.2587 1.9715 0.0000 -10888.2416 1478.8521 0.0000 0.0000 1759.5967 -7642.1469 296.2427 -9401.7437 -7642.1469 296.2427 398.8908 492.5504 30345.0846 398.8908 492.5504
ENERGY: 300000 0.3041 2.8023 1.5405 0.0000 -10633.1805 1324.2736 0.0000 0.0000 1825.4837 -7478.7763 307.3353 -9304.2600 -7579.7551 301.6489 -820.3198 -759.3866 30970.1091 2.3425 58.2702
ENERGY: 600000 0.9189 3.8725 1.5101 0.0000 -10831.1570 1428.3295 0.0000 0.0000 1816.5787 -7579.9473 305.8361 -9396.5260 -7594.4389 300.9167 -152.2397 -110.9177 30717.0777 -63.8307 1.7800
ENERGY: 900000 0.1617 3.4202 1.4920 0.0000 -10837.0233 1487.8900 0.0000 0.0000 1783.0534 -7561.0060 300.1918 -9344.0593 -7597.0269 300.2439 254.7043 349.2102 31015.8799 -109.0133 -33.6163
ENERGY: 1200000 0.6323 5.6486 1.4877 0.0000 -10781.4619 1404.0686 0.0000 0.0000 1811.4388 -7558.1860 304.9707 -9369.6247 -7594.6981 301.3117 -216.5778 -175.1534 30577.2304 -84.1321 -15.7008
ENERGY: 1500000 0.6618 2.1196 1.6277 0.0000 -10964.5617 1516.1576 0.0000 0.0000 1790.3577 -7653.6374 301.4215 -9443.9951 -7593.8227 301.3965 305.6411 288.8526 30886.0841 -112.9782 -52.7475
TCL: Exiting due to exit command.
