Info: SIMULATION PARAMETERS:
Info: TIMESTEP               2
Info: NUMBER OF STEPS        0
Info: STEPS PER CYCLE        10
Info: PERIODIC CELL BASIS 1  32.778 0 0
Info: PERIODIC CELL BASIS 2  0 34.1868 0
Info: PERIODIC CELL BASIS 3  0 0 27.6724
Info: PERIODIC CELL CENTER   0 0 0
Info: WRAPPING WATERS AROUND PERIODIC BOUNDARIES ON OUTPUT.
Info: WRAPPING ALL CLUSTERS AROUND PERIODIC BOUNDARIES ON OUTPUT.
Info: FIRST LDB TIMESTEP     50
Info: LAST LDB TIMESTEP     -1
Info: HOM BACKGROUND SCALING 1
Info: PME BACKGROUND SCALING 1
Info: MIN ATOMS PER PATCH    40
Info: EMPTY PATCH LOAD       40 ATOMS
Info: VELOCITY FILE          mobley_2844990_equil.vel
Info: CENTER OF MASS MOVING INITIALLY? NO
Info: DIELECTRIC             1
Info: EXCLUDE                SCALED ONE-FOUR
Info: 1-4 ELECTROSTATICS SCALED BY 0.833333
Info: MODIFIED 1-4 VDW PARAMETERS WILL BE USED
Info: DCD FILENAME           mobley_2844990_prod.dcd
Info: DCD FREQUENCY          100000
Info: DCD FIRST STEP         100000
Info: DCD FILE WILL CONTAIN UNIT CELL DATA
Info: XST FILENAME           mobley_2844990_prod.xst
Info: XST FREQUENCY          100000
Info: NO VELOCITY DCD OUTPUT
Info: NO FORCE DCD OUTPUT
Info: OUTPUT FILENAME        mobley_2844990_prod
Info: BINARY OUTPUT FILES WILL BE USED
Info: RESTART FILENAME       mobley_2844990_prod.restart
Info: RESTART FREQUENCY      100000
Info: BINARY RESTART FILES WILL BE USED
Info: CUTOFF                 9
Info: PAIRLIST DISTANCE      11
Info: PAIRLIST SHRINK RATE   0.01
Info: PAIRLIST GROW RATE     0.01
Info: PAIRLIST TRIGGER       0.3
Info: PAIRLISTS PER CYCLE    2
Info: PAIRLISTS ENABLED
Info: MARGIN                 2
Info: HYDROGEN GROUP CUTOFF  2.5
Info: PATCH DIMENSION        15.5
Info: ENERGY OUTPUT STEPS    100000
Info: ENERGY EVALUATION STEPS    100000
Info: OUTPUT ENERGY PRECISION 4
Info: CROSSTERM ENERGY INCLUDED IN DIHEDRAL
Info: TIMING OUTPUT STEPS    1000000
Info: PRESSURE OUTPUT STEPS  100000
Info: ALCHEMICAL FEP ON
Info: FEP CURRENT LAMBDA VALUE     0
Info: FEP COMPARISON LAMBDA VALUE  0.05
Info: FEP INTRA-ALCHEMICAL NON-BONDED INTERACTIONS WILL BE RETAINED
Info: FEP INTRA-ALCHEMICAL BONDED INTERACTIONS WILL BE RETAINED
Info: FEP VDW SHIFTING COEFFICIENT 5
Info: FEP ELEC. ACTIVE FOR ANNIHILATED PARTICLES BETWEEN LAMBDA = 0 AND LAMBDA = 0.5
Info: FEP ELEC. ACTIVE FOR EXNIHILATED PARTICLES BETWEEN LAMBDA = 0.5 AND LAMBDA = 1
Info: FEP VDW ACTIVE FOR ANNIHILATED PARTICLES BETWEEN LAMBDA = 0 AND LAMBDA = 1
Info: FEP VDW ACTIVE FOR EXNIHILATED PARTICLES BETWEEN LAMBDA = 0 AND LAMBDA = 1
Info: FEP BOND ACTIVE FOR ANNIHILATED PARTICLES BETWEEN LAMBDA = 1 AND LAMBDA = 1
Info: FEP BOND ACTIVE FOR EXNIHILATED PARTICLES BETWEEN LAMBDA = 0 AND LAMBDA = 0
Info: LANGEVIN DYNAMICS ACTIVE
Info: LANGEVIN TEMPERATURE   300
Info: LANGEVIN USING BBK INTEGRATOR
Info: LANGEVIN DAMPING COEFFICIENT IS 1 INVERSE PS
Info: LANGEVIN DYNAMICS APPLIED TO HYDROGENS
Info: LANGEVIN PISTON PRESSURE CONTROL ACTIVE
Info:        TARGET PRESSURE IS 1.01325 BAR
Info:     OSCILLATION PERIOD IS 50 FS
Info:             DECAY TIME IS 25 FS
Info:     PISTON TEMPERATURE IS 300 K
Info:       PRESSURE CONTROL IS GROUP-BASED
Info:    INITIAL STRAIN RATE IS 0.000474512 0.000474512 0.000474512
Info:       CELL FLUCTUATION IS ISOTROPIC
Info: PARTICLE MESH EWALD (PME) ACTIVE
Info: PME TOLERANCE               1e-06
Info: PME EWALD COEFFICIENT       0.348832
Info: PME INTERPOLATION ORDER     4
Info: PME GRID DIMENSIONS         36 36 28
Info: PME MAXIMUM GRID SPACING    1
Info: PME CALCULATION WILL BE PERFORMED ON GPU
Info: FULL ELECTROSTATIC EVALUATION FREQUENCY      2
Info: USING VERLET I (r-RESPA) MTS SCHEME.
Info: C1 SPLITTING OF LONG RANGE ELECTROSTATICS
Info: PLACING ATOMS IN PATCHES BY HYDROGEN GROUPS
Info: RIGID BONDS TO HYDROGEN : ALL
Info:         ERROR TOLERANCE : 1e-08
Info:          MAX ITERATIONS : 100
Info: RIGID WATER USING SETTLE ALGORITHM
Info: RANDOM NUMBER SEED     1743630558
Info: USE HYDROGEN BONDS?    NO
Info: Using AMBER format force field!
Info: AMBER PARM FILE        mobley_2844990.prmtop
Info: COORDINATE PDB         mobley_2844990.pdb
Info: Exclusions will be read from PARM file!
Info: SCNB (VDW SCALING)     2
Info: USING ARITHMETIC MEAN TO COMBINE L-J SIGMA PARAMETERS
Info: BINARY COORDINATES     mobley_2844990_equil.coor
Info: SUMMARY OF PARAMETERS:
Info: 6 BONDS
Info: 5 ANGLES
Info:   5 HARMONIC
Info:   0 COSINE-BASED
Info: 3 DIHEDRAL
Info: 0 IMPROPER
Info: 0 CROSSTERM
Info: 0 VDW
Info: 21 VDW_PAIRS
Info: 0 NBTHOLE_PAIRS
Info: To read alchdata from file: mobley_2844990.pdb
Info: To read alchflag data from column: 5
Info: STRUCTURE SUMMARY:
Info: 2992 ATOMS
Info: 2994 BONDS
Info: 38 ANGLES
Info: 68 DIHEDRALS
Info: 0 IMPROPERS
Info: 0 CROSSTERMS
Info: 3079 EXCLUSIONS
Info: 2974 RIGID BONDS
Info: ALCH: 0 ATOMS TO DISAPPEAR IN FINAL STATE
Info: ALCH: 22 ATOMS TO APPEAR IN FINAL STATE
Info: 6002 DEGREES OF FREEDOM
Info: 1008 HYDROGEN GROUPS
Info: 3 ATOMS IN LARGEST HYDROGEN GROUP
Info: 1008 MIGRATION GROUPS
Info: 3 ATOMS IN LARGEST MIGRATION GROUP
Info: TOTAL MASS = 18157.8 amu
Info: TOTAL CHARGE = -0.000100005 e
Info: MASS DENSITY = 0.972377 g/cm^3
Info: ATOM DENSITY = 0.0964882 atoms/A^3
Info: ADDED 0 IMPLICIT EXCLUSIONS
Info: NONBONDED TABLE R-SQUARED SPACING: 0.0625
Info: NONBONDED TABLE SIZE: 705 POINTS
Info: REDUCING NUMBER OF PATCHES TO IMPROVE LOAD BALANCE
Info: REMOVING COM VELOCITY 0.11624 0.0137995 0.0850543
Info: Use 3D box decompostion in PME FFT.
Info: Updated CUDA force table with 4096 elements.
Info: Updated CUDA LJ table with 6 x 6 elements.
Info: Found 25 unique exclusion lists needing 72 bytes
TCL: Running for 1500000 steps
ETITLE: TS BOND ANGLE DIHED IMPRP ELECT VDW BOUNDARY MISC KINETIC TOTAL TEMP POTENTIAL TOTALAVG TEMPAVG PRESSURE GPRESSURE VOLUME PRESSAVG GPRESSAVG
ENERGY: 0 8.2953 4.8252 4.3556 0.0000 -10767.8934 1500.4895 0.0000 0.0000 1754.6242 -7495.3035 294.2243 -9249.9277 -7495.3035 294.2243 285.4824 357.7404 31008.9753 285.4824 357.7404
ENERGY: 300000 4.6790 1.9811 8.5444 0.0000 -10831.8731 1499.3619 0.0000 0.0000 1812.3495 -7504.9572 303.9039 -9317.3066 -7545.4842 299.8433 424.3723 485.3791 30457.5385 193.2066 289.6052
ENERGY: 600000 7.1308 7.7627 7.4707 0.0000 -10786.6561 1425.3926 0.0000 0.0000 1775.5831 -7563.3162 297.7388 -9338.8993 -7540.8019 299.3309 -517.1622 -425.5514 30553.0763 212.9270 290.4103
ENERGY: 900000 6.8392 6.5680 4.9451 0.0000 -10752.0747 1410.8739 0.0000 0.0000 1834.7967 -7488.0518 307.6680 -9322.8485 -7541.1417 299.9123 -545.5238 -508.8097 30902.7141 126.8123 188.9432
ENERGY: 1200000 9.6178 7.5380 6.7303 0.0000 -10799.9780 1433.0725 0.0000 0.0000 1773.7846 -7569.2349 297.4372 -9343.0195 -7544.8856 300.1409 -529.9058 -433.4497 30629.1381 52.7315 110.3614
ENERGY: 1500000 7.6366 6.3705 5.5437 0.0000 -10682.4185 1364.7082 0.0000 0.0000 1849.9355 -7448.2241 310.2066 -9298.1596 -7542.0890 300.5385 -675.4775 -622.6619 30967.8886 -80.4203 -19.9620
TCL: Running FEP window   2: Lambda1 0.05   Lambda2 0.1    [dLambda 0.05  ]
TCL: Setting parameter firsttimestep to 0
TCL: Setting parameter alchLambda to 0.05
Info: NONBONDED TABLE R-SQUARED SPACING: 0.0625
Info: NONBONDED TABLE SIZE: 705 POINTS
TCL: Setting parameter alchLambda2 to 0.1
Info: NONBONDED TABLE R-SQUARED SPACING: 0.0625
Info: NONBONDED TABLE SIZE: 705 POINTS
TCL: Running for 1500000 steps
ETITLE: TS BOND ANGLE DIHED IMPRP ELECT VDW BOUNDARY MISC KINETIC TOTAL TEMP POTENTIAL TOTALAVG TEMPAVG PRESSURE GPRESSURE VOLUME PRESSAVG GPRESSAVG
ENERGY: 0 7.6366 6.3705 5.5437 0.0000 -10682.4172 1369.7407 0.0000 0.0000 1849.0132 -7444.1126 310.0519 -9293.1258 -7444.1126 310.0519 -686.8958 -608.1570 30967.8886 -686.8958 -608.1570
ENERGY: 300000 4.0012 9.7374 4.0986 0.0000 -10885.9128 1500.8854 0.0000 0.0000 1824.0265 -7543.1637 305.8620 -9367.1902 -7530.2576 301.4946 304.1007 288.3407 30437.7560 -378.6323 -340.2443
ENERGY: 600000 8.0329 4.2511 6.2132 0.0000 -10717.2754 1378.6230 0.0000 0.0000 1803.8499 -7516.3054 302.4787 -9320.1553 -7541.6843 301.1101 -775.8911 -756.8512 31007.3612 -442.5902 -396.1770
ENERGY: 900000 4.1651 2.7396 7.1979 0.0000 -10830.3040 1529.0235 0.0000 0.0000 1781.1136 -7506.0644 298.6662 -9287.1779 -7541.2742 300.9769 763.8444 858.8850 30323.9440 -167.8798 -108.8943
ENERGY: 1200000 5.2201 6.9952 4.7298 0.0000 -10804.2032 1536.1109 0.0000 0.0000 1761.8290 -7489.3182 295.4324 -9251.1472 -7527.3707 301.2378 690.5603 748.5308 30708.7771 -27.3665 34.0497
ENERGY: 1500000 5.1419 4.9649 9.4261 0.0000 -10807.5882 1512.0002 0.0000 0.0000 1770.1543 -7505.9008 296.8284 -9276.0550 -7536.6499 300.1642 407.2862 494.9214 30587.4940 58.8173 118.7087
TCL: Running FEP window   3: Lambda1 0.1    Lambda2 0.15000000000000002 [dLambda 0.05000000000000002]
TCL: Setting parameter firsttimestep to 0
TCL: Setting parameter alchLambda to 0.1
Info: NONBONDED TABLE R-SQUARED SPACING: 0.0625
Info: NONBONDED TABLE SIZE: 705 POINTS
TCL: Setting parameter alchLambda2 to 0.15000000000000002
Info: NONBONDED TABLE R-SQUARED SPACING: 0.0625
Info: NONBONDED TABLE SIZE: 705 POINTS
TCL: Running for 1500000 steps
ETITLE: TS BOND ANGLE DIHED IMPRP ELECT VDW BOUNDARY MISC KINETIC TOTAL TEMP POTENTIAL TOTALAVG TEMPAVG PRESSURE GPRESSURE VOLUME PRESSAVG GPRESSAVG
ENERGY: 0 5.1419 4.9649 9.4261 0.0000 -10807.5902 1517.7365 0.0000 0.0000 1769.2779 -7501.0428 296.6815 -9270.3207 -7501.0428 296.6815 429.2660 515.3585 30587.4940 429.2660 515.3585
ENERGY: 300000 6.4478 6.7712 2.7870 0.0000 -10989.3846 1576.3249 0.0000 0.0000 1725.8167 -7671.2371 289.3937 -9397.0538 -7563.2915 296.6008 705.9660 744.0563 30441.3580 87.8241 163.0990
ENERGY: 600000 9.3863 6.1640 3.7525 0.0000 -10743.5250 1390.3620 0.0000 0.0000 1813.2992 -7520.5609 304.0632 -9333.8601 -7556.2963 297.8031 -758.0866 -696.0915 30718.9402 -88.6434 -23.4881
ENERGY: 900000 4.6271 4.3318 5.3328 0.0000 -10848.1950 1423.9415 0.0000 0.0000 1763.6656 -7646.2962 295.7404 -9409.9618 -7558.3089 297.7261 -358.3175 -325.7912 30565.9399 -167.5305 -111.2159
ENERGY: 1200000 8.7719 7.7852 5.0795 0.0000 -10825.5791 1438.6287 0.0000 0.0000 1816.1358 -7549.1781 304.5389 -9365.3139 -7558.2108 297.5349 -451.2015 -445.2894 31077.6841 -266.2798 -205.9065
ENERGY: 1500000 8.2748 3.5291 5.9370 0.0000 -10822.9431 1503.3416 0.0000 0.0000 1815.6580 -7486.2026 304.4587 -9301.8606 -7544.3246 298.3679 650.2998 672.2591 30647.6956 -231.9430 -170.1773
TCL: Running FEP window   4: Lambda1 0.15000000000000002 Lambda2 0.2    [dLambda 0.04999999999999999]
TCL: Setting parameter firsttimestep to 0
TCL: Setting parameter alchLambda to 0.15000000000000002
Info: NONBONDED TABLE R-SQUARED SPACING: 0.0625
Info: NONBONDED TABLE SIZE: 705 POINTS
TCL: Setting parameter alchLambda2 to 0.2
Info: NONBONDED TABLE R-SQUARED SPACING: 0.0625
Info: NONBONDED TABLE SIZE: 705 POINTS
TCL: Running for 1500000 steps
ETITLE: TS BOND ANGLE DIHED IMPRP ELECT VDW BOUNDARY MISC KINETIC TOTAL TEMP POTENTIAL TOTALAVG TEMPAVG PRESSURE GPRESSURE VOLUME PRESSAVG GPRESSAVG
ENERGY: 0 8.2748 3.5291 5.9370 0.0000 -10822.9420 1504.6898 0.0000 0.0000 1814.7671 -7485.7443 304.3093 -9300.5113 -7485.7443 304.3093 598.0388 681.7656 30647.6956 598.0388 681.7656
ENERGY: 300000 4.8573 3.5371 5.8987 0.0000 -10793.9894 1511.5180 0.0000 0.0000 1813.0630 -7455.1154 304.0236 -9268.1784 -7536.4085 298.7097 713.8897 763.9255 30637.5760 95.1807 161.7379
ENERGY: 600000 7.6846 4.0299 4.6115 0.0000 -10897.1258 1489.5372 0.0000 0.0000 1812.2998 -7578.9627 303.8956 -9391.2625 -7557.4082 298.5285 458.8573 538.8626 29948.5420 8.5697 70.8092
ENERGY: 900000 5.5769 4.8753 3.6595 0.0000 -10920.8249 1423.7555 0.0000 0.0000 1770.6154 -7712.3424 296.9058 -9482.9577 -7565.1671 299.0016 -498.4355 -410.6690 30285.6202 -45.3979 14.5893
ENERGY: 1200000 3.7533 4.5855 5.4159 0.0000 -10915.5333 1544.8522 0.0000 0.0000 1797.4138 -7559.5126 301.3995 -9356.9265 -7558.5204 299.3954 813.1835 849.4020 30264.2708 -16.9873 41.9113
ENERGY: 1500000 4.7519 4.8868 5.1838 0.0000 -10731.0600 1412.5115 0.0000 0.0000 1786.9878 -7516.7382 299.6512 -9303.7260 -7552.8061 299.7091 -327.9609 -240.2912 30777.2202 34.3132 95.1550
TCL: Running FEP window   5: Lambda1 0.2    Lambda2 0.25   [dLambda 0.04999999999999999]
TCL: Setting parameter firsttimestep to 0
TCL: Setting parameter alchLambda to 0.2
Info: NONBONDED TABLE R-SQUARED SPACING: 0.0625
Info: NONBONDED TABLE SIZE: 705 POINTS
TCL: Setting parameter alchLambda2 to 0.25
Info: NONBONDED TABLE R-SQUARED SPACING: 0.0625
Info: NONBONDED TABLE SIZE: 705 POINTS
TCL: Running for 1500000 steps
ETITLE: TS BOND ANGLE DIHED IMPRP ELECT VDW BOUNDARY MISC KINETIC TOTAL TEMP POTENTIAL TOTALAVG TEMPAVG PRESSURE GPRESSURE VOLUME PRESSAVG GPRESSAVG
ENERGY: 0 4.7519 4.8868 5.1838 0.0000 -10731.0608 1414.1621 0.0000 0.0000 1786.0983 -7515.9778 299.5020 -9302.0761 -7515.9778 299.5020 -295.0625 -224.2041 30777.2202 -295.0625 -224.2041
ENERGY: 300000 9.1059 6.0890 4.5523 0.0000 -10643.2704 1432.9458 0.0000 0.0000 1813.5881 -7376.9893 304.1116 -9190.5774 -7499.9448 301.5464 -111.9005 -31.8496 31311.2307 -229.0703 -156.0072
ENERGY: 600000 8.2140 4.4144 5.7983 0.0000 -10825.5711 1456.0082 0.0000 0.0000 1810.1278 -7541.0085 303.5314 -9351.1363 -7496.3738 301.7093 -323.8197 -177.7719 30804.8421 -230.3207 -151.0006
ENERGY: 900000 7.9714 4.7066 4.0209 0.0000 -10795.6049 1485.0336 0.0000 0.0000 1805.5963 -7488.2761 302.7715 -9293.8724 -7515.6698 301.7982 171.7278 234.4826 30809.2057 -52.4299 22.8585
ENERGY: 1200000 8.6272 4.6120 6.0303 0.0000 -10911.1588 1510.1457 0.0000 0.0000 1783.1586 -7598.5850 299.0091 -9381.7436 -7520.6750 302.1674 53.0241 98.9329 30608.8577 -70.5013 -6.0535
ENERGY: 1500000 6.1745 6.6485 3.4784 0.0000 -10825.4464 1466.7278 0.0000 0.0000 1782.3133 -7560.1037 298.8673 -9342.4170 -7525.6710 300.9811 209.9439 246.0693 30311.5874 -61.4023 5.7274
TCL: Running FEP window   6: Lambda1 0.25   Lambda2 0.3    [dLambda 0.04999999999999999]
TCL: Setting parameter firsttimestep to 0
TCL: Setting parameter alchLambda to 0.25
Info: NONBONDED TABLE R-SQUARED SPACING: 0.0625
Info: NONBONDED TABLE SIZE: 705 POINTS
TCL: Setting parameter alchLambda2 to 0.3
Info: NONBONDED TABLE R-SQUARED SPACING: 0.0625
Info: NONBONDED TABLE SIZE: 705 POINTS
TCL: Running for 1500000 steps
ETITLE: TS BOND ANGLE DIHED IMPRP ELECT VDW BOUNDARY MISC KINETIC TOTAL TEMP POTENTIAL TOTALAVG TEMPAVG PRESSURE GPRESSURE VOLUME PRESSAVG GPRESSAVG
ENERGY: 0 6.1745 6.6485 3.4785 0.0000 -10825.4463 1468.0986 0.0000 0.0000 1781.4447 -7559.6014 298.7217 -9341.0461 -7559.6014 298.7217 188.4982 262.2474 30311.5874 188.4982 262.2474
ENERGY: 300000 8.0213 6.9682 13.6241 0.0000 -10668.4103 1373.4478 0.0000 0.0000 1778.4210 -7487.9280 298.2146 -9266.3490 -7553.9533 299.3840 -1082.8676 -975.3334 31640.1781 -193.8599 -134.1223
ENERGY: 600000 8.4609 6.5830 4.8007 0.0000 -10835.8177 1433.4539 0.0000 0.0000 1778.6165 -7603.9026 298.2474 -9382.5192 -7540.9804 300.1492 -596.0052 -495.0645 30626.4728 -357.5957 -287.5601
ENERGY: 900000 4.6446 4.6341 8.0459 0.0000 -10853.6179 1504.5552 0.0000 0.0000 1782.2660 -7549.4721 298.8594 -9331.7381 -7543.0579 300.7147 493.2931 529.6514 30433.5913 -147.6393 -76.2417
ENERGY: 1200000 7.1541 6.0560 7.6447 0.0000 -10929.9553 1517.6097 0.0000 0.0000 1857.8390 -7533.6519 311.5319 -9391.4909 -7530.6936 302.3991 -217.7199 -169.6977 31319.7052 -247.7485 -173.4762
ENERGY: 1500000 5.6280 3.3919 5.7175 0.0000 -10820.0848 1490.4479 0.0000 0.0000 1791.5611 -7523.3384 300.4180 -9314.8995 -7532.2816 302.1083 370.3522 354.4443 30905.0345 -124.6372 -51.2145
TCL: Running FEP window   7: Lambda1 0.3    Lambda2 0.35   [dLambda 0.04999999999999999]
TCL: Setting parameter firsttimestep to 0
TCL: Setting parameter alchLambda to 0.3
Info: NONBONDED TABLE R-SQUARED SPACING: 0.0625
Info: NONBONDED TABLE SIZE: 705 POINTS
TCL: Setting parameter alchLambda2 to 0.35
Info: NONBONDED TABLE R-SQUARED SPACING: 0.0625
Info: NONBONDED TABLE SIZE: 705 POINTS
TCL: Running for 1500000 steps
ETITLE: TS BOND ANGLE DIHED IMPRP ELECT VDW BOUNDARY MISC KINETIC TOTAL TEMP POTENTIAL TOTALAVG TEMPAVG PRESSURE GPRESSURE VOLUME PRESSAVG GPRESSAVG
ENERGY: 0 5.6280 3.3919 5.7175 0.0000 -10820.0842 1489.9695 0.0000 0.0000 1790.6634 -7524.7139 300.2675 -9315.3774 -7524.7139 300.2675 289.4597 362.8920 30905.0345 289.4597 362.8920
ENERGY: 300000 5.9958 2.0044 7.6929 0.0000 -10825.4001 1451.6968 0.0000 0.0000 1798.2534 -7559.7567 301.5403 -9358.0102 -7553.6267 300.9847 -259.8324 -156.3240 30500.7928 234.6111 308.9361
ENERGY: 600000 5.4419 4.6821 4.4819 0.0000 -10732.5531 1337.6768 0.0000 0.0000 1784.3357 -7595.9347 299.2064 -9380.2704 -7542.6354 301.7920 -1335.3778 -1230.1961 31201.4231 -112.9370 -25.5567
ENERGY: 900000 6.1246 5.8626 4.4734 0.0000 -10747.3999 1397.3642 0.0000 0.0000 1729.1738 -7604.4014 289.9566 -9333.5752 -7544.1823 300.0000 -458.4959 -420.5709 30298.1706 -207.9848 -135.6477
ENERGY: 1200000 6.9484 4.9179 11.1371 0.0000 -10917.6575 1511.5180 0.0000 0.0000 1836.0531 -7547.0831 307.8787 -9383.1361 -7545.1618 301.5663 461.4727 554.3313 30379.9841 -118.9341 -45.6725
ENERGY: 1500000 4.5026 8.7831 5.5426 0.0000 -10934.5525 1471.3216 0.0000 0.0000 1748.7003 -7695.7023 293.2309 -9444.4026 -7554.4210 300.3632 -179.0066 -86.9945 30311.8352 -186.9610 -109.7496
TCL: Running FEP window   8: Lambda1 0.35   Lambda2 0.39999999999999997 [dLambda 0.04999999999999999]
TCL: Setting parameter firsttimestep to 0
TCL: Setting parameter alchLambda to 0.35
Info: NONBONDED TABLE R-SQUARED SPACING: 0.0625
Info: NONBONDED TABLE SIZE: 705 POINTS
TCL: Setting parameter alchLambda2 to 0.39999999999999997
Info: NONBONDED TABLE R-SQUARED SPACING: 0.0625
Info: NONBONDED TABLE SIZE: 705 POINTS
TCL: Running for 1500000 steps
ETITLE: TS BOND ANGLE DIHED IMPRP ELECT VDW BOUNDARY MISC KINETIC TOTAL TEMP POTENTIAL TOTALAVG TEMPAVG PRESSURE GPRESSURE VOLUME PRESSAVG GPRESSAVG
ENERGY: 0 4.5026 8.7831 5.5426 0.0000 -10934.5542 1471.3193 0.0000 0.0000 1747.8419 -7696.5648 293.0870 -9444.4067 -7696.5648 293.0870 -153.5971 -79.6600 30311.8352 -153.5971 -79.6600
ENERGY: 300000 6.4540 6.9230 9.4814 0.0000 -10739.9477 1420.8177 0.0000 0.0000 1808.3478 -7487.9237 303.2329 -9296.2716 -7586.1918 296.9221 -289.4622 -232.5576 30580.7235 -118.5329 -51.6320
ENERGY: 600000 5.6737 5.3711 7.2393 0.0000 -10804.7273 1484.9697 0.0000 0.0000 1746.3152 -7555.1583 292.8310 -9301.4735 -7575.9631 296.4436 325.7343 398.6859 30622.4141 171.2004 236.3652
ENERGY: 900000 4.4693 9.4325 9.0500 0.0000 -10817.1241 1425.8123 0.0000 0.0000 1746.4387 -7621.9213 292.8517 -9368.3600 -7571.0703 297.2749 -302.1559 -252.5077 30722.6360 59.7155 110.5614
ENERGY: 1200000 5.2375 4.3874 4.4736 0.0000 -10749.2630 1424.4901 0.0000 0.0000 1833.7706 -7476.9038 307.4960 -9310.6744 -7551.5082 298.4683 -306.1747 -211.3985 31109.2918 42.2331 100.2133
ENERGY: 1500000 6.1371 3.8663 6.1661 0.0000 -10886.9620 1511.0101 0.0000 0.0000 1777.3985 -7582.3839 298.0432 -9359.7824 -7547.7551 298.7935 284.4149 345.5437 31064.7177 26.8684 85.3062
TCL: Running FEP window   9: Lambda1 0.39999999999999997 Lambda2 0.44999999999999996 [dLambda 0.04999999999999999]
TCL: Setting parameter firsttimestep to 0
TCL: Setting parameter alchLambda to 0.39999999999999997
Info: NONBONDED TABLE R-SQUARED SPACING: 0.0625
Info: NONBONDED TABLE SIZE: 705 POINTS
TCL: Setting parameter alchLambda2 to 0.44999999999999996
Info: NONBONDED TABLE R-SQUARED SPACING: 0.0625
Info: NONBONDED TABLE SIZE: 705 POINTS
TCL: Running for 1500000 steps
ETITLE: TS BOND ANGLE DIHED IMPRP ELECT VDW BOUNDARY MISC KINETIC TOTAL TEMP POTENTIAL TOTALAVG TEMPAVG PRESSURE GPRESSURE VOLUME PRESSAVG GPRESSAVG
ENERGY: 0 6.1371 3.8663 6.1661 0.0000 -10886.9618 1510.9294 0.0000 0.0000 1776.5134 -7583.3495 297.8948 -9359.8628 -7583.3495 297.8948 258.4873 353.4075 31064.7177 258.4873 353.4075
ENERGY: 300000 3.2526 5.7273 4.9940 0.0000 -10859.7569 1433.3224 0.0000 0.0000 1803.7029 -7608.7576 302.4540 -9412.4605 -7550.5990 302.9229 -199.1484 -138.8805 30414.7705 364.8912 435.1632
ENERGY: 600000 7.0818 4.2291 7.9624 0.0000 -10814.6742 1446.2353 0.0000 0.0000 1799.2934 -7549.8722 301.7146 -9349.1656 -7557.5063 301.5023 -218.8765 -163.5553 31238.4633 55.9327 136.8671
ENERGY: 900000 3.5216 4.1500 4.9341 0.0000 -10670.0525 1401.6274 0.0000 0.0000 1796.6192 -7459.2003 301.2662 -9255.8195 -7538.6728 301.3768 -214.8986 -88.2038 31126.1189 -103.5289 -25.7582
ENERGY: 1200000 7.6708 6.9603 9.0980 0.0000 -10874.5710 1505.3672 0.0000 0.0000 1783.0485 -7562.4262 298.9906 -9345.4747 -7547.0820 300.2836 363.9759 428.2893 30590.3270 -179.7183 -108.2479
ENERGY: 1500000 4.1829 6.0600 8.3096 0.0000 -10823.0455 1527.8067 0.0000 0.0000 1792.6978 -7483.9885 300.6086 -9276.6863 -7537.8750 300.3155 926.7278 1037.6900 30704.6265 -186.7624 -108.2907
TCL: Running FEP window  10: Lambda1 0.44999999999999996 Lambda2 0.49999999999999994 [dLambda 0.04999999999999999]
TCL: Setting parameter firsttimestep to 0
TCL: Setting parameter alchLambda to 0.44999999999999996
Info: NONBONDED TABLE R-SQUARED SPACING: 0.0625
Info: NONBONDED TABLE SIZE: 705 POINTS
TCL: Setting parameter alchLambda2 to 0.49999999999999994
Info: NONBONDED TABLE R-SQUARED SPACING: 0.0625
Info: NONBONDED TABLE SIZE: 705 POINTS
TCL: Running for 1500000 steps
ETITLE: TS BOND ANGLE DIHED IMPRP ELECT VDW BOUNDARY MISC KINETIC TOTAL TEMP POTENTIAL TOTALAVG TEMPAVG PRESSURE GPRESSURE VOLUME PRESSAVG GPRESSAVG
ENERGY: 0 4.1829 6.0600 8.3096 0.0000 -10823.0454 1528.2196 0.0000 0.0000 1791.8497 -7484.4236 300.4664 -9276.2733 -7484.4236 300.4664 972.5105 1048.4053 30704.6265 972.5105 1048.4053
ENERGY: 300000 5.3161 2.5131 4.5942 0.0000 -10934.9794 1527.7058 0.0000 0.0000 1763.5117 -7631.3384 295.7146 -9394.8501 -7566.5806 300.7624 286.7139 363.1783 30906.8552 138.7499 206.9686
ENERGY: 600000 5.0512 2.5602 5.1723 0.0000 -10775.4863 1390.1987 0.0000 0.0000 1794.6933 -7577.8106 300.9433 -9372.5038 -7561.3372 299.9108 -699.8786 -626.4682 30695.8374 82.6958 149.4944
ENERGY: 900000 9.9493 5.5533 2.7402 0.0000 -10924.4430 1491.2829 0.0000 0.0000 1804.4749 -7610.4424 302.5835 -9414.9173 -7558.5176 301.3330 221.4106 185.0747 30366.9610 65.6321 127.3445
ENERGY: 1200000 8.0905 4.2855 4.7389 0.0000 -10893.7891 1517.3873 0.0000 0.0000 1787.4112 -7571.8757 299.7222 -9359.2869 -7555.5942 300.5092 449.2819 547.1627 30506.9148 118.7472 183.2259
ENERGY: 1500000 8.5768 5.9574 6.5946 0.0000 -10789.8801 1435.9419 0.0000 0.0000 1836.1546 -7496.6548 307.8957 -9332.8094 -7541.8599 301.4849 -304.6247 -223.0027 30926.3248 121.0669 189.2209
TCL: Running FEP window  11: Lambda1 0.49999999999999994 Lambda2 0.5499999999999999 [dLambda 0.04999999999999999]
TCL: Setting parameter firsttimestep to 0
TCL: Setting parameter alchLambda to 0.49999999999999994
Info: NONBONDED TABLE R-SQUARED SPACING: 0.0625
Info: NONBONDED TABLE SIZE: 705 POINTS
TCL: Setting parameter alchLambda2 to 0.5499999999999999
Info: NONBONDED TABLE R-SQUARED SPACING: 0.0625
Info: NONBONDED TABLE SIZE: 705 POINTS
TCL: Running for 1500000 steps
ETITLE: TS BOND ANGLE DIHED IMPRP ELECT VDW BOUNDARY MISC KINETIC TOTAL TEMP POTENTIAL TOTALAVG TEMPAVG PRESSURE GPRESSURE VOLUME PRESSAVG GPRESSAVG
ENERGY: 0 8.5768 5.9574 6.5946 0.0000 -10789.8810 1436.5244 0.0000 0.0000 1835.2773 -7496.9505 307.7486 -9332.2278 -7496.9505 307.7486 -301.0910 -207.7792 30926.3248 -301.0910 -207.7792
ENERGY: 300000 10.1312 4.5684 4.1886 0.0000 -10797.8710 1382.8304 0.0000 0.0000 1753.0237 -7643.1287 293.9559 -9396.1524 -7557.8843 302.0011 -533.7202 -529.2124 30503.6974 -28.6488 31.0778
ENERGY: 600000 4.4331 6.3380 3.6958 0.0000 -10800.9176 1498.4806 0.0000 0.0000 1799.5665 -7488.4035 301.7604 -9287.9701 -7532.8121 301.8384 772.2582 819.9412 30351.3896 19.1590 63.8522
ENERGY: 900000 4.9749 4.6216 6.5642 0.0000 -10884.4497 1469.8737 0.0000 0.0000 1723.3772 -7675.0379 288.9846 -9398.4151 -7549.5369 299.9277 -114.2247 -7.9790 30863.1719 9.2440 55.3655
ENERGY: 1200000 6.7700 5.8840 7.2821 0.0000 -10816.1627 1506.5501 0.0000 0.0000 1765.7263 -7523.9503 296.0859 -9289.6766 -7559.8739 298.4125 492.5032 490.1929 30802.1228 -19.5924 24.0084
ENERGY: 1500000 7.9823 3.5099 9.1120 0.0000 -10749.5489 1366.1844 0.0000 0.0000 1794.1087 -7568.6515 300.8452 -9362.7602 -7559.6556 298.4867 -881.2440 -807.5788 30852.5988 -137.2446 -92.6714
TCL: Running FEP window  12: Lambda1 0.5499999999999999 Lambda2 0.6    [dLambda 0.050000000000000044]
TCL: Setting parameter firsttimestep to 0
TCL: Setting parameter alchLambda to 0.5499999999999999
Info: NONBONDED TABLE R-SQUARED SPACING: 0.0625
Info: NONBONDED TABLE SIZE: 705 POINTS
TCL: Setting parameter alchLambda2 to 0.6
Info: NONBONDED TABLE R-SQUARED SPACING: 0.0625
Info: NONBONDED TABLE SIZE: 705 POINTS
TCL: Running for 1500000 steps
ETITLE: TS BOND ANGLE DIHED IMPRP ELECT VDW BOUNDARY MISC KINETIC TOTAL TEMP POTENTIAL TOTALAVG TEMPAVG PRESSURE GPRESSURE VOLUME PRESSAVG GPRESSAVG
ENERGY: 0 7.9823 3.5099 9.1120 0.0000 -10749.5661 1365.6238 0.0000 0.0000 1793.2211 -7570.1170 300.6964 -9363.3381 -7570.1170 300.6964 -879.9042 -797.8614 30852.5988 -879.9042 -797.8614
ENERGY: 300000 8.6709 5.6732 7.8406 0.0000 -10922.7890 1527.2065 0.0000 0.0000 1827.7412 -7545.6567 306.4849 -9373.3979 -7550.1035 302.2573 224.3955 315.0955 30585.5230 -173.3940 -91.7809
ENERGY: 600000 6.9188 6.5590 3.9698 0.0000 -10794.4265 1508.7049 0.0000 0.0000 1781.5399 -7486.7341 298.7376 -9268.2740 -7545.2818 300.3736 624.0098 706.1505 30746.1628 62.3882 126.9899
ENERGY: 900000 3.4262 7.8302 6.3771 0.0000 -10631.4473 1301.6650 0.0000 0.0000 1856.0147 -7456.1341 311.2260 -9312.1488 -7524.1225 301.0386 -968.8166 -953.7175 30962.2221 43.0069 101.9256
ENERGY: 1200000 4.4373 3.4555 6.4501 0.0000 -10838.5201 1462.0261 0.0000 0.0000 1810.4442 -7551.7069 303.5845 -9362.1511 -7532.1086 300.9077 1.1425 30.1964 30784.0840 54.2299 107.7894
ENERGY: 1500000 10.3415 5.7731 4.4077 0.0000 -10736.5215 1423.0636 0.0000 0.0000 1788.5874 -7504.3481 299.9194 -9292.9355 -7545.1069 300.7918 -548.5373 -434.7423 31408.7455 -49.3030 14.5839
TCL: Running FEP window  13: Lambda1 0.6    Lambda2 0.65   [dLambda 0.050000000000000044]
TCL: Setting parameter firsttimestep to 0
TCL: Setting parameter alchLambda to 0.6
Info: NONBONDED TABLE R-SQUARED SPACING: 0.0625
Info: NONBONDED TABLE SIZE: 705 POINTS
TCL: Setting parameter alchLambda2 to 0.65
Info: NONBONDED TABLE R-SQUARED SPACING: 0.0625
Info: NONBONDED TABLE SIZE: 705 POINTS
TCL: Running for 1500000 steps
ETITLE: TS BOND ANGLE DIHED IMPRP ELECT VDW BOUNDARY MISC KINETIC TOTAL TEMP POTENTIAL TOTALAVG TEMPAVG PRESSURE GPRESSURE VOLUME PRESSAVG GPRESSAVG
ENERGY: 0 10.3415 5.7731 4.4077 0.0000 -10736.8805 1423.0171 0.0000 0.0000 1787.6880 -7505.6530 299.7686 -9293.3410 -7505.6530 299.7686 -494.4508 -421.7471 31408.7455 -494.4508 -421.7471
ENERGY: 300000 9.2870 5.9997 6.6777 0.0000 -10766.7452 1416.8254 0.0000 0.0000 1820.2400 -7507.7153 305.2271 -9327.9553 -7488.9335 304.9282 -366.1721 -288.9519 31073.1004 48.5143 96.6141
ENERGY: 600000 8.7281 7.5328 6.3853 0.0000 -10862.2594 1461.1831 0.0000 0.0000 1738.5430 -7639.8871 291.5277 -9378.4301 -7555.9044 299.6508 -239.4870 -190.7308 30617.8804 -137.1134 -79.4123
ENERGY: 900000 6.6059 7.3530 5.6846 0.0000 -10631.8353 1434.4774 0.0000 0.0000 1802.3072 -7375.4073 302.2200 -9177.7145 -7541.9956 300.0760 299.9827 397.3961 30830.2353 -110.1483 -45.8661
ENERGY: 1200000 7.5125 4.1957 6.1273 0.0000 -10818.7824 1420.2181 0.0000 0.0000 1823.3318 -7557.3969 305.7455 -9380.7287 -7537.6825 301.0608 99.0853 155.4042 30365.3173 -13.7227 47.9444
ENERGY: 1500000 8.2726 7.9395 5.0577 0.0000 -10750.3903 1451.7639 0.0000 0.0000 1866.6117 -7410.7450 313.0029 -9277.3567 -7534.3922 300.7769 124.4355 217.1564 30532.6250 1.4180 65.3001
TCL: Running FEP window  14: Lambda1 0.65   Lambda2 0.7000000000000001 [dLambda 0.050000000000000044]
TCL: Setting parameter firsttimestep to 0
TCL: Setting parameter alchLambda to 0.65
Info: NONBONDED TABLE R-SQUARED SPACING: 0.0625
Info: NONBONDED TABLE SIZE: 705 POINTS
TCL: Setting parameter alchLambda2 to 0.7000000000000001
Info: NONBONDED TABLE R-SQUARED SPACING: 0.0625
Info: NONBONDED TABLE SIZE: 705 POINTS
TCL: Running for 1500000 steps
ETITLE: TS BOND ANGLE DIHED IMPRP ELECT VDW BOUNDARY MISC KINETIC TOTAL TEMP POTENTIAL TOTALAVG TEMPAVG PRESSURE GPRESSURE VOLUME PRESSAVG GPRESSAVG
ENERGY: 0 8.2726 7.9395 5.0577 0.0000 -10750.7349 1451.1219 0.0000 0.0000 1865.7336 -7412.6097 312.8557 -9278.3433 -7412.6097 312.8557 139.0287 220.7050 30532.6250 139.0287 220.7050
ENERGY: 300000 6.0754 3.8784 4.8465 0.0000 -10756.8534 1462.7120 0.0000 0.0000 1788.5184 -7490.8226 299.9078 -9279.3410 -7494.9757 302.6414 151.1306 199.6717 30803.6656 445.2834 512.7986
ENERGY: 600000 6.3515 5.6998 4.4863 0.0000 -10775.9552 1399.5640 0.0000 0.0000 1775.5315 -7584.3220 297.7301 -9359.8535 -7511.3067 302.5710 -402.1046 -322.8827 30606.1653 195.4196 249.1870
ENERGY: 900000 9.9674 5.2689 5.8970 0.0000 -10933.2866 1527.9918 0.0000 0.0000 1844.7014 -7539.4601 309.3289 -9384.1615 -7529.2782 301.6622 479.3187 514.4083 30648.0725 136.5799 188.7597
ENERGY: 1200000 8.0326 4.6370 4.2219 0.0000 -11030.2482 1578.8392 0.0000 0.0000 1853.5545 -7580.9630 310.8134 -9434.5175 -7530.3496 301.7473 1176.3030 1243.4483 30175.0401 256.4017 310.2684
ENERGY: 1500000 10.0894 6.0775 5.6364 0.0000 -10769.0654 1416.2883 0.0000 0.0000 1760.9109 -7570.0629 295.2785 -9330.9738 -7534.4497 300.3432 -448.6039 -320.1761 30534.4888 226.3273 287.1858
TCL: Running FEP window  15: Lambda1 0.7000000000000001 Lambda2 0.7500000000000001 [dLambda 0.050000000000000044]
TCL: Setting parameter firsttimestep to 0
TCL: Setting parameter alchLambda to 0.7000000000000001
Info: NONBONDED TABLE R-SQUARED SPACING: 0.0625
Info: NONBONDED TABLE SIZE: 705 POINTS
TCL: Setting parameter alchLambda2 to 0.7500000000000001
Info: NONBONDED TABLE R-SQUARED SPACING: 0.0625
Info: NONBONDED TABLE SIZE: 705 POINTS
TCL: Running for 1500000 steps
ETITLE: TS BOND ANGLE DIHED IMPRP ELECT VDW BOUNDARY MISC KINETIC TOTAL TEMP POTENTIAL TOTALAVG TEMPAVG PRESSURE GPRESSURE VOLUME PRESSAVG GPRESSAVG
ENERGY: 0 10.0894 6.0775 5.6364 0.0000 -10769.4791 1415.9083 0.0000 0.0000 1760.0493 -7571.7182 295.1340 -9331.7674 -7571.7182 295.1340 -411.9778 -310.9590 30534.4888 -411.9778 -310.9590
ENERGY: 300000 4.3648 4.6152 6.1141 0.0000 -10866.9494 1560.7723 0.0000 0.0000 1803.2920 -7487.7908 302.3852 -9291.0829 -7530.6047 300.6479 1344.0430 1431.7614 30223.3789 522.9456 599.6757
ENERGY: 600000 10.7319 3.5892 8.4752 0.0000 -10711.5264 1371.8011 0.0000 0.0000 1779.6648 -7537.2643 298.4232 -9316.9291 -7510.8278 301.9404 -746.6721 -725.1612 31060.6635 344.0917 406.8115
ENERGY: 900000 3.7184 4.1978 4.5974 0.0000 -10679.7950 1416.3263 0.0000 0.0000 1851.9938 -7398.9613 310.5517 -9250.9551 -7511.4906 301.5690 59.7502 89.8277 31387.0071 192.9493 246.6759
ENERGY: 1200000 6.4676 6.4173 6.2309 0.0000 -10737.2678 1397.1659 0.0000 0.0000 1779.8080 -7541.1781 298.4472 -9320.9862 -7520.0552 301.3603 -542.5441 -525.1012 30929.2969 211.4150 264.6711
ENERGY: 1500000 10.9829 7.1849 2.8487 0.0000 -10786.0725 1403.3549 0.0000 0.0000 1806.2408 -7555.4602 302.8796 -9361.7010 -7533.1083 300.2473 -678.5157 -636.8363 30836.6266 176.6470 234.1573
TCL: Running FEP window  16: Lambda1 0.7500000000000001 Lambda2 0.8000000000000002 [dLambda 0.050000000000000044]
TCL: Setting parameter firsttimestep to 0
TCL: Setting parameter alchLambda to 0.7500000000000001
Info: NONBONDED TABLE R-SQUARED SPACING: 0.0625
Info: NONBONDED TABLE SIZE: 705 POINTS
TCL: Setting parameter alchLambda2 to 0.8000000000000002
Info: NONBONDED TABLE R-SQUARED SPACING: 0.0625
Info: NONBONDED TABLE SIZE: 705 POINTS
TCL: Running for 1500000 steps
ETITLE: TS BOND ANGLE DIHED IMPRP ELECT VDW BOUNDARY MISC KINETIC TOTAL TEMP POTENTIAL TOTALAVG TEMPAVG PRESSURE GPRESSURE VOLUME PRESSAVG GPRESSAVG
ENERGY: 0 10.9829 7.1849 2.8487 0.0000 -10786.2664 1403.4017 0.0000 0.0000 1805.3651 -7556.4831 302.7328 -9361.8482 -7556.4831 302.7328 -695.4762 -619.9750 30836.6266 -695.4762 -619.9750
ENERGY: 300000 5.5234 3.1480 4.9389 0.0000 -10630.7779 1392.5220 0.0000 0.0000 1787.9311 -7436.7145 299.8094 -9224.6457 -7530.1443 300.8928 -30.3330 69.0757 30816.0007 -257.5700 -193.3830
ENERGY: 600000 7.4593 3.6991 3.3065 0.0000 -10805.8519 1498.4833 0.0000 0.0000 1803.7173 -7489.1865 302.4565 -9292.9038 -7540.2067 298.6172 352.1994 414.1851 31111.0025 54.8610 117.8107
ENERGY: 900000 6.3908 4.4390 2.7135 0.0000 -10702.1276 1437.6256 0.0000 0.0000 1814.2817 -7436.6770 304.2280 -9250.9587 -7526.4480 299.0690 227.9814 293.0645 31067.3466 46.8335 112.0359
ENERGY: 1200000 2.7606 3.2575 4.5417 0.0000 -10625.7979 1391.7231 0.0000 0.0000 1772.7369 -7450.7780 297.2615 -9223.5150 -7528.2244 299.8741 -35.2440 -10.0206 30976.1275 87.0365 149.9059
ENERGY: 1500000 7.8934 4.7315 6.3412 0.0000 -10965.8648 1508.1441 0.0000 0.0000 1778.9267 -7659.8279 298.2994 -9438.7546 -7536.5960 300.0037 245.5321 306.7054 30721.4359 133.5807 192.2403
TCL: Running FEP window  17: Lambda1 0.8000000000000002 Lambda2 0.8500000000000002 [dLambda 0.050000000000000044]
TCL: Setting parameter firsttimestep to 0
TCL: Setting parameter alchLambda to 0.8000000000000002
Info: NONBONDED TABLE R-SQUARED SPACING: 0.0625
Info: NONBONDED TABLE SIZE: 705 POINTS
TCL: Setting parameter alchLambda2 to 0.8500000000000002
Info: NONBONDED TABLE R-SQUARED SPACING: 0.0625
Info: NONBONDED TABLE SIZE: 705 POINTS
TCL: Running for 1500000 steps
ETITLE: TS BOND ANGLE DIHED IMPRP ELECT VDW BOUNDARY MISC KINETIC TOTAL TEMP POTENTIAL TOTALAVG TEMPAVG PRESSURE GPRESSURE VOLUME PRESSAVG GPRESSAVG
ENERGY: 0 7.8934 4.7315 6.3412 0.0000 -10965.4394 1508.0737 0.0000 0.0000 1778.0103 -7660.3894 298.1458 -9438.3996 -7660.3894 298.1458 226.0078 321.6841 30721.4359 226.0078 321.6841
ENERGY: 300000 4.4030 7.2535 4.7739 0.0000 -10880.2307 1467.8700 0.0000 0.0000 1726.3115 -7669.6188 289.4767 -9395.9303 -7587.3428 295.4466 -95.2053 -44.7773 30678.1837 -233.9019 -164.9913
ENERGY: 600000 6.6893 4.2108 4.6232 0.0000 -10932.1744 1527.7247 0.0000 0.0000 1769.4772 -7619.4491 296.7149 -9388.9263 -7594.7005 296.4997 420.4752 478.5768 30876.2642 -62.1265 -14.0223
ENERGY: 900000 10.8618 3.0766 4.9628 0.0000 -10679.7805 1367.1822 0.0000 0.0000 1798.9964 -7494.7008 301.6648 -9293.6972 -7574.1886 296.9318 -228.7764 -177.9130 30344.7119 -60.6226 -11.7245
ENERGY: 1200000 6.8776 8.6304 4.2543 0.0000 -10715.0126 1398.8575 0.0000 0.0000 1881.8924 -7414.5005 315.5653 -9296.3929 -7558.1211 299.4479 -312.3447 -262.1314 30994.2391 -109.4659 -68.8344
ENERGY: 1500000 6.9878 2.8468 8.4265 0.0000 -10922.8892 1520.4515 0.0000 0.0000 1742.2546 -7641.9220 292.1501 -9384.1766 -7562.5150 299.0089 -63.8008 18.8577 31124.9661 -63.4722 -13.2739
TCL: Running FEP window  18: Lambda1 0.8500000000000002 Lambda2 0.9000000000000002 [dLambda 0.050000000000000044]
TCL: Setting parameter firsttimestep to 0
TCL: Setting parameter alchLambda to 0.8500000000000002
Info: NONBONDED TABLE R-SQUARED SPACING: 0.0625
Info: NONBONDED TABLE SIZE: 705 POINTS
TCL: Setting parameter alchLambda2 to 0.9000000000000002
Info: NONBONDED TABLE R-SQUARED SPACING: 0.0625
Info: NONBONDED TABLE SIZE: 705 POINTS
TCL: Running for 1500000 steps
ETITLE: TS BOND ANGLE DIHED IMPRP ELECT VDW BOUNDARY MISC KINETIC TOTAL TEMP POTENTIAL TOTALAVG TEMPAVG PRESSURE GPRESSURE VOLUME PRESSAVG GPRESSAVG
ENERGY: 0 6.9878 2.8468 8.4265 0.0000 -10923.2604 1519.6613 0.0000 0.0000 1741.3882 -7643.9498 292.0048 -9385.3380 -7643.9498 292.0048 -59.2849 27.5499 31124.9661 -59.2849 27.5499
ENERGY: 300000 6.4816 5.6979 5.4961 0.0000 -10816.4964 1408.5851 0.0000 0.0000 1773.5272 -7616.7085 297.3940 -9390.2357 -7614.2409 295.8563 -767.8009 -645.0877 31010.1731 -376.3004 -277.5933
ENERGY: 600000 2.0480 5.5767 4.7102 0.0000 -10894.5972 1507.3629 0.0000 0.0000 1813.7702 -7561.1292 304.1422 -9374.8994 -7599.4952 297.6720 162.7863 243.3549 31179.7285 -112.7602 -18.4755
ENERGY: 900000 4.1428 8.7888 5.3118 0.0000 -10924.1206 1548.8316 0.0000 0.0000 1799.6942 -7557.3514 301.7818 -9357.0456 -7582.3479 298.6554 1036.0466 1073.0807 30404.2628 -73.8749 6.1376
ENERGY: 1200000 4.9688 3.5836 5.2551 0.0000 -10853.6926 1564.0374 0.0000 0.0000 1830.5544 -7445.2933 306.9566 -9275.8477 -7565.3686 299.3843 1392.5226 1423.6340 30944.5008 -41.3585 34.8763
ENERGY: 1500000 5.6408 8.7054 5.6254 0.0000 -10848.2887 1453.9072 0.0000 0.0000 1800.5479 -7573.8619 301.9250 -9374.4098 -7557.8478 299.8565 -233.8599 -159.1873 31399.0406 -105.5002 -28.0126
TCL: Running FEP window  19: Lambda1 0.9000000000000002 Lambda2 0.9500000000000003 [dLambda 0.050000000000000044]
TCL: Setting parameter firsttimestep to 0
TCL: Setting parameter alchLambda to 0.9000000000000002
Info: NONBONDED TABLE R-SQUARED SPACING: 0.0625
Info: NONBONDED TABLE SIZE: 705 POINTS
TCL: Setting parameter alchLambda2 to 0.9500000000000003
Info: NONBONDED TABLE R-SQUARED SPACING: 0.0625
Info: NONBONDED TABLE SIZE: 705 POINTS
TCL: Running for 1500000 steps
ETITLE: TS BOND ANGLE DIHED IMPRP ELECT VDW BOUNDARY MISC KINETIC TOTAL TEMP POTENTIAL TOTALAVG TEMPAVG PRESSURE GPRESSURE VOLUME PRESSAVG GPRESSAVG
ENERGY: 0 5.6408 8.7054 5.6254 0.0000 -10848.5902 1453.6475 0.0000 0.0000 1799.7428 -7575.2282 301.7900 -9374.9710 -7575.2282 301.7900 -240.3829 -148.7467 31399.0406 -240.3829 -148.7467
ENERGY: 300000 10.8676 5.7885 6.4412 0.0000 -10861.4981 1479.7223 0.0000 0.0000 1758.9747 -7599.7038 294.9538 -9358.6786 -7553.8313 296.9807 76.6988 150.5564 31140.1670 -187.1859 -92.1581
ENERGY: 600000 8.4307 5.9353 6.0972 0.0000 -10849.5259 1402.0898 0.0000 0.0000 1808.9550 -7618.0179 303.3347 -9426.9730 -7558.5866 297.9790 -704.6788 -727.5797 31158.2267 -239.3004 -159.9245
ENERGY: 900000 3.9470 4.7903 7.7670 0.0000 -10640.4627 1363.3489 0.0000 0.0000 1749.8993 -7510.7102 293.4320 -9260.6095 -7549.3804 298.0709 -696.6072 -600.0264 31384.4051 -183.7937 -112.3286
ENERGY: 1200000 7.0240 5.0479 8.4796 0.0000 -10802.5830 1393.0916 0.0000 0.0000 1774.6772 -7614.2626 297.5869 -9388.9399 -7557.8472 298.8875 -816.8334 -770.0744 30850.2483 -255.6738 -189.1988
ENERGY: 1500000 9.5072 4.7917 7.0258 0.0000 -10570.1968 1323.6950 0.0000 0.0000 1761.1268 -7464.0502 295.3147 -9225.1770 -7543.0174 299.5357 -886.5492 -844.7244 31258.0045 -229.7361 -166.6348
TCL: Running FEP window  20: Lambda1 0.9500000000000003 Lambda2 1.0    [dLambda 0.04999999999999971]
TCL: Setting parameter firsttimestep to 0
TCL: Setting parameter alchLambda to 0.9500000000000003
Info: NONBONDED TABLE R-SQUARED SPACING: 0.0625
Info: NONBONDED TABLE SIZE: 705 POINTS
TCL: Setting parameter alchLambda2 to 1.0
Info: NONBONDED TABLE R-SQUARED SPACING: 0.0625
Info: NONBONDED TABLE SIZE: 705 POINTS
TCL: Running for 1500000 steps
ETITLE: TS BOND ANGLE DIHED IMPRP ELECT VDW BOUNDARY MISC KINETIC TOTAL TEMP POTENTIAL TOTALAVG TEMPAVG PRESSURE GPRESSURE VOLUME PRESSAVG GPRESSAVG
ENERGY: 0 9.5072 4.7917 7.0258 0.0000 -10570.8128 1322.6075 0.0000 0.0000 1760.2541 -7466.6265 295.1683 -9226.8805 -7466.6265 295.1683 -921.3488 -838.4850 31258.0045 -921.3488 -838.4850
ENERGY: 300000 3.6859 1.4282 4.8078 0.0000 -10899.1972 1507.7831 0.0000 0.0000 1775.4753 -7606.0169 297.7207 -9381.4922 -7571.2481 297.7770 683.8518 793.3238 30575.2039 -142.5118 -68.4064
ENERGY: 600000 10.3165 5.9109 5.0686 0.0000 -10801.5418 1450.7975 0.0000 0.0000 1811.4620 -7517.9863 303.7551 -9329.4484 -7571.3332 298.3550 300.8199 408.1245 30597.1387 63.2482 133.9296
ENERGY: 900000 6.8274 4.6775 3.5092 0.0000 -10787.7342 1426.2308 0.0000 0.0000 1827.3802 -7519.1092 306.4244 -9346.4894 -7575.9370 298.9672 -67.1079 -51.8649 31105.5504 33.0290 108.0199
ENERGY: 1200000 8.6082 5.4039 6.4459 0.0000 -10777.8555 1487.6988 0.0000 0.0000 1780.6732 -7489.0255 298.5923 -9269.6987 -7559.8896 299.1125 455.5542 509.4364 31045.3986 97.9305 163.0009
ENERGY: 1500000 6.4516 4.0699 8.4810 0.0000 -10857.9392 1474.7550 0.0000 0.0000 1758.2047 -7605.9770 294.8247 -9364.1817 -7559.8708 299.1319 125.6289 162.7633 31090.2760 71.5919 129.4072
TCL: Exiting due to exit command.
