Info: SIMULATION PARAMETERS:
Info: TIMESTEP               2
Info: NUMBER OF STEPS        0
Info: STEPS PER CYCLE        10
Info: PERIODIC CELL BASIS 1  31.0861 0 0
Info: PERIODIC CELL BASIS 2  0 29.6601 0
Info: PERIODIC CELL BASIS 3  0 0 33.0262
Info: PERIODIC CELL CENTER   0 0 0
Info: WRAPPING WATERS AROUND PERIODIC BOUNDARIES ON OUTPUT.
Info: WRAPPING ALL CLUSTERS AROUND PERIODIC BOUNDARIES ON OUTPUT.
Info: FIRST LDB TIMESTEP     50
Info: LAST LDB TIMESTEP     -1
Info: HOM BACKGROUND SCALING 1
Info: PME BACKGROUND SCALING 1
Info: MIN ATOMS PER PATCH    40
Info: EMPTY PATCH LOAD       40 ATOMS
Info: VELOCITY FILE          mobley_8691603_equil.vel
Info: CENTER OF MASS MOVING INITIALLY? NO
Info: DIELECTRIC             1
Info: EXCLUDE                SCALED ONE-FOUR
Info: 1-4 ELECTROSTATICS SCALED BY 0.833333
Info: MODIFIED 1-4 VDW PARAMETERS WILL BE USED
Info: DCD FILENAME           mobley_8691603_prod.dcd
Info: DCD FREQUENCY          100000
Info: DCD FIRST STEP         100000
Info: DCD FILE WILL CONTAIN UNIT CELL DATA
Info: XST FILENAME           mobley_8691603_prod.xst
Info: XST FREQUENCY          100000
Info: NO VELOCITY DCD OUTPUT
Info: NO FORCE DCD OUTPUT
Info: OUTPUT FILENAME        mobley_8691603_prod
Info: BINARY OUTPUT FILES WILL BE USED
Info: RESTART FILENAME       mobley_8691603_prod.restart
Info: RESTART FREQUENCY      100000
Info: BINARY RESTART FILES WILL BE USED
Info: CUTOFF                 9
Info: PAIRLIST DISTANCE      11
Info: PAIRLIST SHRINK RATE   0.01
Info: PAIRLIST GROW RATE     0.01
Info: PAIRLIST TRIGGER       0.3
Info: PAIRLISTS PER CYCLE    2
Info: PAIRLISTS ENABLED
Info: MARGIN                 2
Info: HYDROGEN GROUP CUTOFF  2.5
Info: PATCH DIMENSION        15.5
Info: ENERGY OUTPUT STEPS    100000
Info: ENERGY EVALUATION STEPS    100000
Info: OUTPUT ENERGY PRECISION 4
Info: CROSSTERM ENERGY INCLUDED IN DIHEDRAL
Info: TIMING OUTPUT STEPS    1000000
Info: PRESSURE OUTPUT STEPS  100000
Info: ALCHEMICAL FEP ON
Info: FEP CURRENT LAMBDA VALUE     1
Info: FEP COMPARISON LAMBDA VALUE  0.95
Info: FEP INTRA-ALCHEMICAL NON-BONDED INTERACTIONS WILL BE RETAINED
Info: FEP INTRA-ALCHEMICAL BONDED INTERACTIONS WILL BE RETAINED
Info: FEP VDW SHIFTING COEFFICIENT 5
Info: FEP ELEC. ACTIVE FOR ANNIHILATED PARTICLES BETWEEN LAMBDA = 0 AND LAMBDA = 0.5
Info: FEP ELEC. ACTIVE FOR EXNIHILATED PARTICLES BETWEEN LAMBDA = 0.5 AND LAMBDA = 1
Info: FEP VDW ACTIVE FOR ANNIHILATED PARTICLES BETWEEN LAMBDA = 0 AND LAMBDA = 1
Info: FEP VDW ACTIVE FOR EXNIHILATED PARTICLES BETWEEN LAMBDA = 0 AND LAMBDA = 1
Info: FEP BOND ACTIVE FOR ANNIHILATED PARTICLES BETWEEN LAMBDA = 1 AND LAMBDA = 1
Info: FEP BOND ACTIVE FOR EXNIHILATED PARTICLES BETWEEN LAMBDA = 0 AND LAMBDA = 0
Info: LANGEVIN DYNAMICS ACTIVE
Info: LANGEVIN TEMPERATURE   300
Info: LANGEVIN USING BBK INTEGRATOR
Info: LANGEVIN DAMPING COEFFICIENT IS 1 INVERSE PS
Info: LANGEVIN DYNAMICS APPLIED TO HYDROGENS
Info: LANGEVIN PISTON PRESSURE CONTROL ACTIVE
Info:        TARGET PRESSURE IS 1.01325 BAR
Info:     OSCILLATION PERIOD IS 50 FS
Info:             DECAY TIME IS 25 FS
Info:     PISTON TEMPERATURE IS 300 K
Info:       PRESSURE CONTROL IS GROUP-BASED
Info:    INITIAL STRAIN RATE IS 0.000230868 0.000230868 0.000230868
Info:       CELL FLUCTUATION IS ISOTROPIC
Info: PARTICLE MESH EWALD (PME) ACTIVE
Info: PME TOLERANCE               1e-06
Info: PME EWALD COEFFICIENT       0.348832
Info: PME INTERPOLATION ORDER     4
Info: PME GRID DIMENSIONS         32 32 36
Info: PME MAXIMUM GRID SPACING    1
Info: PME CALCULATION WILL BE PERFORMED ON GPU
Info: FULL ELECTROSTATIC EVALUATION FREQUENCY      2
Info: USING VERLET I (r-RESPA) MTS SCHEME.
Info: C1 SPLITTING OF LONG RANGE ELECTROSTATICS
Info: PLACING ATOMS IN PATCHES BY HYDROGEN GROUPS
Info: RIGID BONDS TO HYDROGEN : ALL
Info:         ERROR TOLERANCE : 1e-08
Info:          MAX ITERATIONS : 100
Info: RIGID WATER USING SETTLE ALGORITHM
Info: RANDOM NUMBER SEED     1743599413
Info: USE HYDROGEN BONDS?    NO
Info: Using AMBER format force field!
Info: AMBER PARM FILE        mobley_8691603.prmtop
Info: COORDINATE PDB         mobley_8691603.pdb
Info: Exclusions will be read from PARM file!
Info: SCNB (VDW SCALING)     2
Info: USING ARITHMETIC MEAN TO COMBINE L-J SIGMA PARAMETERS
Info: BINARY COORDINATES     mobley_8691603_equil.coor
Info: SUMMARY OF PARAMETERS:
Info: 8 BONDS
Info: 7 ANGLES
Info:   7 HARMONIC
Info:   0 COSINE-BASED
Info: 4 DIHEDRAL
Info: 0 IMPROPER
Info: 0 CROSSTERM
Info: 0 VDW
Info: 28 VDW_PAIRS
Info: 0 NBTHOLE_PAIRS
Info: To read alchdata from file: mobley_8691603.pdb
Info: To read alchflag data from column: 5
Info: STRUCTURE SUMMARY:
Info: 2947 ATOMS
Info: 2947 BONDS
Info: 25 ANGLES
Info: 38 DIHEDRALS
Info: 0 IMPROPERS
Info: 0 CROSSTERMS
Info: 3001 EXCLUSIONS
Info: 2939 RIGID BONDS
Info: ALCH: 0 ATOMS TO DISAPPEAR IN FINAL STATE
Info: ALCH: 16 ATOMS TO APPEAR IN FINAL STATE
Info: 5902 DEGREES OF FREEDOM
Info: 985 HYDROGEN GROUPS
Info: 4 ATOMS IN LARGEST HYDROGEN GROUP
Info: 985 MIGRATION GROUPS
Info: 4 ATOMS IN LARGEST MIGRATION GROUP
Info: TOTAL MASS = 17709.8 amu
Info: TOTAL CHARGE = -3.35276e-08 e
Info: MASS DENSITY = 0.96577 g/cm^3
Info: ATOM DENSITY = 0.0967791 atoms/A^3
Info: ADDED 0 IMPLICIT EXCLUSIONS
Info: NONBONDED TABLE R-SQUARED SPACING: 0.0625
Info: NONBONDED TABLE SIZE: 705 POINTS
Info: REMOVING COM VELOCITY 0.00374783 -0.0972452 -0.167408
Info: Use 3D box decompostion in PME FFT.
Info: Updated CUDA force table with 4096 elements.
Info: Updated CUDA LJ table with 7 x 7 elements.
Info: Found 17 unique exclusion lists needing 40 bytes
TCL: Running for 1500000 steps
ETITLE: TS BOND ANGLE DIHED IMPRP ELECT VDW BOUNDARY MISC KINETIC TOTAL TEMP POTENTIAL TOTALAVG TEMPAVG PRESSURE GPRESSURE VOLUME PRESSAVG GPRESSAVG
ENERGY: 0 2.7638 5.5481 0.9144 0.0000 -10678.6788 1403.7573 0.0000 0.0000 1780.2606 -7485.4345 303.5811 -9265.6951 -7485.4345 303.5811 -492.1087 -408.0481 30450.7905 -492.1087 -408.0481
ENERGY: 300000 1.8111 5.2672 3.3804 0.0000 -10761.6956 1464.5513 0.0000 0.0000 1773.4180 -7513.2676 302.4143 -9286.6856 -7481.9050 304.1824 229.9981 284.5043 30506.9463 4.2938 73.5929
ENERGY: 600000 4.3554 2.5951 3.4678 0.0000 -10654.5511 1403.2985 0.0000 0.0000 1782.7707 -7458.0636 304.0092 -9240.8343 -7468.0935 302.4958 -1.8547 73.9353 30055.8621 -37.6269 27.4663
ENERGY: 900000 1.5285 3.1074 2.2975 0.0000 -10531.4189 1344.5452 0.0000 0.0000 1815.7851 -7364.1552 309.6390 -9179.9403 -7445.2396 303.9030 -522.4129 -462.4639 30698.6278 -95.2135 -30.6223
ENERGY: 1200000 2.1113 7.2975 2.7655 0.0000 -10738.6588 1457.0976 0.0000 0.0000 1808.8627 -7460.5243 308.4585 -9269.3869 -7450.2842 304.7825 464.7449 500.8475 30099.9869 -22.8232 38.3989
ENERGY: 1500000 3.0534 5.8963 3.1421 0.0000 -10655.8710 1424.6613 0.0000 0.0000 1729.9305 -7489.1873 294.9985 -9219.1178 -7447.0639 303.6639 16.2724 104.0179 30338.7047 -4.5566 63.4382
TCL: Running FEP window   2: Lambda1 0.95   Lambda2 0.8999999999999999 [dLambda -0.050000000000000044]
TCL: Setting parameter firsttimestep to 0
TCL: Setting parameter alchLambda to 0.95
Info: NONBONDED TABLE R-SQUARED SPACING: 0.0625
Info: NONBONDED TABLE SIZE: 705 POINTS
TCL: Setting parameter alchLambda2 to 0.8999999999999999
Info: NONBONDED TABLE R-SQUARED SPACING: 0.0625
Info: NONBONDED TABLE SIZE: 705 POINTS
TCL: Running for 1500000 steps
ETITLE: TS BOND ANGLE DIHED IMPRP ELECT VDW BOUNDARY MISC KINETIC TOTAL TEMP POTENTIAL TOTALAVG TEMPAVG PRESSURE GPRESSURE VOLUME PRESSAVG GPRESSAVG
ENERGY: 0 3.0534 5.8963 3.1421 0.0000 -10653.1143 1423.9500 0.0000 0.0000 1728.9894 -7488.0831 294.8380 -9217.0725 -7488.0831 294.8380 -1.7504 89.0965 30338.7047 -1.7504 89.0965
ENERGY: 300000 1.8633 3.9581 5.4301 0.0000 -10744.9278 1482.7140 0.0000 0.0000 1764.3243 -7486.6379 300.8636 -9250.9623 -7467.1824 300.6923 635.6533 633.8433 30300.2093 -99.7799 -61.5961
ENERGY: 600000 5.0744 8.3923 1.3603 0.0000 -10604.7633 1351.2762 0.0000 0.0000 1726.2594 -7512.4006 294.3725 -9238.6600 -7469.6941 301.3883 -726.3984 -690.3939 30297.9149 -89.7095 -42.0820
ENERGY: 900000 3.3972 4.0866 2.4146 0.0000 -10732.5403 1522.8785 0.0000 0.0000 1758.9084 -7440.8549 299.9400 -9199.7633 -7465.3181 301.3672 943.6242 1012.7327 30273.5540 41.3420 101.4989
ENERGY: 1200000 3.2320 5.4425 5.0596 0.0000 -10759.6532 1468.7497 0.0000 0.0000 1758.1819 -7518.9877 299.8161 -9277.1695 -7470.2921 302.0280 58.3553 111.8995 30467.4525 44.1481 100.7791
ENERGY: 1500000 4.0266 6.2081 3.3040 0.0000 -10565.2813 1335.7113 0.0000 0.0000 1758.7831 -7457.2482 299.9186 -9216.0313 -7476.3656 301.1706 -882.3470 -855.0933 30751.6247 21.2409 78.2891
TCL: Running FEP window   3: Lambda1 0.8999999999999999 Lambda2 0.8499999999999999 [dLambda -0.050000000000000044]
TCL: Setting parameter firsttimestep to 0
TCL: Setting parameter alchLambda to 0.8999999999999999
Info: NONBONDED TABLE R-SQUARED SPACING: 0.0625
Info: NONBONDED TABLE SIZE: 705 POINTS
TCL: Setting parameter alchLambda2 to 0.8499999999999999
Info: NONBONDED TABLE R-SQUARED SPACING: 0.0625
Info: NONBONDED TABLE SIZE: 705 POINTS
TCL: Running for 1500000 steps
ETITLE: TS BOND ANGLE DIHED IMPRP ELECT VDW BOUNDARY MISC KINETIC TOTAL TEMP POTENTIAL TOTALAVG TEMPAVG PRESSURE GPRESSURE VOLUME PRESSAVG GPRESSAVG
ENERGY: 0 4.0266 6.2081 3.3040 0.0000 -10563.6362 1334.9523 0.0000 0.0000 1757.9220 -7457.2232 299.7718 -9215.1452 -7457.2232 299.7718 -948.6430 -871.1723 30751.6247 -948.6430 -871.1723
ENERGY: 300000 2.8194 2.4177 2.7017 0.0000 -10644.2197 1350.9123 0.0000 0.0000 1740.3172 -7545.0515 296.7697 -9285.3687 -7488.3781 296.2417 -954.9161 -853.3743 30694.7800 -685.5693 -617.8118
ENERGY: 600000 2.3818 6.1006 3.3954 0.0000 -10661.4565 1396.7949 0.0000 0.0000 1741.1650 -7511.6188 296.9143 -9252.7838 -7490.1365 297.3946 -392.6546 -187.8653 30259.5371 -516.1105 -429.9752
ENERGY: 900000 2.8124 4.1092 2.5201 0.0000 -10718.0416 1503.9388 0.0000 0.0000 1778.5485 -7426.1126 303.2892 -9204.6611 -7480.9235 298.8309 780.9050 750.6202 30189.1605 -373.2562 -302.0522
ENERGY: 1200000 2.9919 5.9585 1.2531 0.0000 -10513.6758 1343.7719 0.0000 0.0000 1709.7565 -7449.9439 291.5583 -9159.7004 -7479.8315 299.1040 -812.2366 -764.2236 30917.4450 -285.1245 -219.9066
ENERGY: 1500000 2.3199 4.7650 3.4688 0.0000 -10634.2958 1444.8664 0.0000 0.0000 1722.1859 -7456.6898 293.6779 -9178.8757 -7477.0869 299.4952 392.0235 417.0052 30179.9146 -144.7290 -82.6727
TCL: Running FEP window   4: Lambda1 0.8499999999999999 Lambda2 0.7999999999999998 [dLambda -0.050000000000000044]
TCL: Setting parameter firsttimestep to 0
TCL: Setting parameter alchLambda to 0.8499999999999999
Info: NONBONDED TABLE R-SQUARED SPACING: 0.0625
Info: NONBONDED TABLE SIZE: 705 POINTS
TCL: Setting parameter alchLambda2 to 0.7999999999999998
Info: NONBONDED TABLE R-SQUARED SPACING: 0.0625
Info: NONBONDED TABLE SIZE: 705 POINTS
TCL: Running for 1500000 steps
ETITLE: TS BOND ANGLE DIHED IMPRP ELECT VDW BOUNDARY MISC KINETIC TOTAL TEMP POTENTIAL TOTALAVG TEMPAVG PRESSURE GPRESSURE VOLUME PRESSAVG GPRESSAVG
ENERGY: 0 2.3199 4.7650 3.4688 0.0000 -10633.2208 1444.6102 0.0000 0.0000 1721.3175 -7456.7393 293.5298 -9178.0568 -7456.7393 293.5298 333.1079 404.8390 30179.9146 333.1079 404.8390
ENERGY: 300000 0.8413 2.8191 3.3140 0.0000 -10561.7288 1346.9366 0.0000 0.0000 1791.5703 -7416.2476 305.5097 -9207.8179 -7465.4276 297.7866 -697.5821 -663.9203 30718.7774 -243.1537 -190.2937
ENERGY: 600000 3.3230 6.2924 2.0882 0.0000 -10757.1016 1433.8125 0.0000 0.0000 1835.4769 -7476.1087 312.9969 -9311.5856 -7457.7754 299.7847 -59.3921 51.1293 29953.6925 -311.0728 -247.7691
ENERGY: 900000 1.8310 2.0472 5.3278 0.0000 -10686.4587 1432.4364 0.0000 0.0000 1746.2502 -7498.5662 297.7815 -9244.8164 -7458.9196 299.7786 9.7733 7.6231 30360.0524 -184.8756 -124.8980
ENERGY: 1200000 2.3335 2.3985 3.0110 0.0000 -10822.7479 1484.1329 0.0000 0.0000 1804.8362 -7526.0357 307.7719 -9330.8719 -7475.8691 300.0301 266.5927 300.4260 30045.3708 -89.4673 -28.9134
ENERGY: 1500000 2.9859 3.3819 1.5065 0.0000 -10672.5249 1424.0357 0.0000 0.0000 1781.1477 -7459.4673 303.7324 -9240.6149 -7479.9591 300.2227 -161.5707 -91.9328 30716.1092 -117.6818 -58.7195
TCL: Running FEP window   5: Lambda1 0.7999999999999998 Lambda2 0.7499999999999998 [dLambda -0.050000000000000044]
TCL: Setting parameter firsttimestep to 0
TCL: Setting parameter alchLambda to 0.7999999999999998
Info: NONBONDED TABLE R-SQUARED SPACING: 0.0625
Info: NONBONDED TABLE SIZE: 705 POINTS
TCL: Setting parameter alchLambda2 to 0.7499999999999998
Info: NONBONDED TABLE R-SQUARED SPACING: 0.0625
Info: NONBONDED TABLE SIZE: 705 POINTS
TCL: Running for 1500000 steps
ETITLE: TS BOND ANGLE DIHED IMPRP ELECT VDW BOUNDARY MISC KINETIC TOTAL TEMP POTENTIAL TOTALAVG TEMPAVG PRESSURE GPRESSURE VOLUME PRESSAVG GPRESSAVG
ENERGY: 0 2.9859 3.3819 1.5065 0.0000 -10670.8420 1423.3831 0.0000 0.0000 1780.2495 -7459.3352 303.5792 -9239.5846 -7459.3352 303.5792 -181.1305 -103.4789 30716.1092 -181.1305 -103.4789
ENERGY: 300000 2.6934 2.9606 3.2105 0.0000 -10776.9312 1459.6608 0.0000 0.0000 1766.5569 -7541.8489 301.2443 -9308.4058 -7501.9019 299.2504 -54.6373 -14.4645 30428.6082 116.1823 169.0132
ENERGY: 600000 2.3203 9.3214 2.2597 0.0000 -10693.4993 1436.5405 0.0000 0.0000 1733.5674 -7509.4900 295.6187 -9243.0575 -7484.1217 299.8399 20.4087 146.1027 30042.6311 -36.3930 37.8225
ENERGY: 900000 0.8037 4.7561 3.1062 0.0000 -10690.9796 1457.4281 0.0000 0.0000 1690.5348 -7534.3507 288.2805 -9224.8855 -7506.3493 298.4847 307.1817 412.4476 30247.2868 -48.5772 18.7346
ENERGY: 1200000 2.9955 6.4396 2.7330 0.0000 -10776.5864 1455.4441 0.0000 0.0000 1677.5275 -7631.4467 286.0624 -9308.9742 -7529.0870 296.9051 262.1699 299.5808 29789.7819 -91.6258 -27.2287
ENERGY: 1500000 8.1254 4.9794 2.1527 0.0000 -10647.6965 1337.0589 0.0000 0.0000 1764.0571 -7531.3230 300.8180 -9295.3801 -7516.7874 297.7396 -1125.9703 -1006.6879 30364.1235 -174.3874 -107.4610
TCL: Running FEP window   6: Lambda1 0.7499999999999998 Lambda2 0.6999999999999997 [dLambda -0.050000000000000044]
TCL: Setting parameter firsttimestep to 0
TCL: Setting parameter alchLambda to 0.7499999999999998
Info: NONBONDED TABLE R-SQUARED SPACING: 0.0625
Info: NONBONDED TABLE SIZE: 705 POINTS
TCL: Setting parameter alchLambda2 to 0.6999999999999997
Info: NONBONDED TABLE R-SQUARED SPACING: 0.0625
Info: NONBONDED TABLE SIZE: 705 POINTS
TCL: Running for 1500000 steps
ETITLE: TS BOND ANGLE DIHED IMPRP ELECT VDW BOUNDARY MISC KINETIC TOTAL TEMP POTENTIAL TOTALAVG TEMPAVG PRESSURE GPRESSURE VOLUME PRESSAVG GPRESSAVG
ENERGY: 0 8.1254 4.9794 2.1527 0.0000 -10647.2112 1337.2642 0.0000 0.0000 1763.1363 -7531.5532 300.6610 -9294.6895 -7531.5532 300.6610 -1099.9507 -1011.2319 30364.1235 -1099.9507 -1011.2319
ENERGY: 300000 3.0536 2.9538 3.6366 0.0000 -10607.6074 1380.3723 0.0000 0.0000 1782.6589 -7434.9322 303.9901 -9217.5912 -7515.7244 300.3528 -414.0078 -369.8328 30491.3091 -275.0608 -221.8207
ENERGY: 600000 3.8963 4.6665 3.8707 0.0000 -10801.3663 1458.0769 0.0000 0.0000 1720.5630 -7610.2929 293.4011 -9330.8558 -7510.3549 300.2548 98.8968 116.2106 29736.2550 -165.1571 -113.2284
ENERGY: 900000 3.0791 5.5248 3.7339 0.0000 -10663.3817 1386.3573 0.0000 0.0000 1795.4213 -7469.2654 306.1664 -9264.6867 -7495.4109 301.2626 -121.7236 -87.7022 30026.4561 -194.2873 -145.4145
ENERGY: 1200000 4.4334 5.4273 4.8231 0.0000 -10702.4216 1413.4012 0.0000 0.0000 1750.4200 -7523.9165 298.4925 -9274.3365 -7490.9684 301.0508 -79.6138 -12.4279 29910.4726 -141.2329 -86.5491
ENERGY: 1500000 3.2893 3.8146 1.5855 0.0000 -10718.5680 1463.6586 0.0000 0.0000 1787.5495 -7458.6706 304.8241 -9246.2201 -7487.9866 301.5698 405.9045 416.9816 30044.9394 -56.6882 -4.9115
TCL: Running FEP window   7: Lambda1 0.6999999999999997 Lambda2 0.6499999999999997 [dLambda -0.050000000000000044]
TCL: Setting parameter firsttimestep to 0
TCL: Setting parameter alchLambda to 0.6999999999999997
Info: NONBONDED TABLE R-SQUARED SPACING: 0.0625
Info: NONBONDED TABLE SIZE: 705 POINTS
TCL: Setting parameter alchLambda2 to 0.6499999999999997
Info: NONBONDED TABLE R-SQUARED SPACING: 0.0625
Info: NONBONDED TABLE SIZE: 705 POINTS
TCL: Running for 1500000 steps
ETITLE: TS BOND ANGLE DIHED IMPRP ELECT VDW BOUNDARY MISC KINETIC TOTAL TEMP POTENTIAL TOTALAVG TEMPAVG PRESSURE GPRESSURE VOLUME PRESSAVG GPRESSAVG
ENERGY: 0 3.2893 3.8146 1.5855 0.0000 -10717.6353 1463.2764 0.0000 0.0000 1786.6826 -7458.9871 304.6762 -9245.6697 -7458.9871 304.6762 329.3298 402.4833 30044.9394 329.3298 402.4833
ENERGY: 300000 4.8702 2.0394 2.0199 0.0000 -10694.7579 1468.0046 0.0000 0.0000 1728.2339 -7489.5899 294.7092 -9217.8238 -7485.6011 299.8204 161.2810 246.4593 30415.5015 -142.4434 -64.8851
ENERGY: 600000 1.6290 7.2967 1.2510 0.0000 -10640.9239 1381.1923 0.0000 0.0000 1799.4641 -7450.0908 306.8558 -9249.5549 -7493.0820 299.8569 -457.3203 -415.6787 30472.4822 -233.0385 -161.1533
ENERGY: 900000 0.8051 4.6025 8.1420 0.0000 -10726.4498 1487.7949 0.0000 0.0000 1746.7294 -7478.3758 297.8632 -9225.1053 -7493.0952 300.9684 254.0468 324.5274 30622.7739 -176.1617 -103.1705
ENERGY: 1200000 4.1985 5.1389 1.0983 0.0000 -10779.5138 1476.7512 0.0000 0.0000 1763.0481 -7529.2787 300.6459 -9292.3268 -7501.5502 299.4982 122.8546 192.1562 30003.9948 -141.8268 -72.7129
ENERGY: 1500000 1.8937 5.6456 0.9991 0.0000 -10692.2224 1415.5458 0.0000 0.0000 1782.2743 -7485.8640 303.9245 -9268.1382 -7502.7645 299.7446 -188.3683 -145.3411 30350.9640 -103.3761 -40.7123
TCL: Running FEP window   8: Lambda1 0.6499999999999997 Lambda2 0.5999999999999996 [dLambda -0.050000000000000044]
TCL: Setting parameter firsttimestep to 0
TCL: Setting parameter alchLambda to 0.6499999999999997
Info: NONBONDED TABLE R-SQUARED SPACING: 0.0625
Info: NONBONDED TABLE SIZE: 705 POINTS
TCL: Setting parameter alchLambda2 to 0.5999999999999996
Info: NONBONDED TABLE R-SQUARED SPACING: 0.0625
Info: NONBONDED TABLE SIZE: 705 POINTS
TCL: Running for 1500000 steps
ETITLE: TS BOND ANGLE DIHED IMPRP ELECT VDW BOUNDARY MISC KINETIC TOTAL TEMP POTENTIAL TOTALAVG TEMPAVG PRESSURE GPRESSURE VOLUME PRESSAVG GPRESSAVG
ENERGY: 0 1.8937 5.6456 0.9991 0.0000 -10690.3000 1415.5048 0.0000 0.0000 1781.3984 -7484.8583 303.7751 -9266.2567 -7484.8583 303.7751 -212.2154 -147.3535 30350.9640 -212.2154 -147.3535
ENERGY: 300000 1.7835 4.6633 1.8279 0.0000 -10868.9702 1518.8120 0.0000 0.0000 1717.9947 -7623.8889 292.9632 -9341.8836 -7504.6974 299.1881 571.7494 623.8568 29945.9768 462.1468 511.6014
ENERGY: 600000 2.4167 5.7960 3.2817 0.0000 -10733.0776 1444.0785 0.0000 0.0000 1747.9356 -7529.5691 298.0689 -9277.5047 -7494.3695 300.4710 80.1171 96.5190 30156.0230 373.6236 430.8850
ENERGY: 900000 2.5925 3.6051 2.4951 0.0000 -10746.0618 1470.3708 0.0000 0.0000 1785.2288 -7481.7694 304.4283 -9266.9983 -7489.4841 300.2576 280.0232 411.4717 29957.4600 271.3284 343.7348
ENERGY: 1200000 1.3499 4.8029 2.4032 0.0000 -10645.4770 1414.9285 0.0000 0.0000 1760.6103 -7461.3822 300.2302 -9221.9925 -7485.8434 299.6606 -202.4865 -174.6270 30512.6617 220.6853 286.7136
ENERGY: 1500000 4.2163 2.5074 4.6579 0.0000 -10608.5697 1420.4680 0.0000 0.0000 1735.8317 -7440.8885 296.0048 -9176.7202 -7475.2766 299.2275 16.6165 21.7328 30430.2198 187.3106 247.5913
TCL: Running FEP window   9: Lambda1 0.5999999999999996 Lambda2 0.5499999999999996 [dLambda -0.050000000000000044]
TCL: Setting parameter firsttimestep to 0
TCL: Setting parameter alchLambda to 0.5999999999999996
Info: NONBONDED TABLE R-SQUARED SPACING: 0.0625
Info: NONBONDED TABLE SIZE: 705 POINTS
TCL: Setting parameter alchLambda2 to 0.5499999999999996
Info: NONBONDED TABLE R-SQUARED SPACING: 0.0625
Info: NONBONDED TABLE SIZE: 705 POINTS
TCL: Running for 1500000 steps
ETITLE: TS BOND ANGLE DIHED IMPRP ELECT VDW BOUNDARY MISC KINETIC TOTAL TEMP POTENTIAL TOTALAVG TEMPAVG PRESSURE GPRESSURE VOLUME PRESSAVG GPRESSAVG
ENERGY: 0 4.2163 2.5074 4.6579 0.0000 -10608.1078 1421.0836 0.0000 0.0000 1734.9533 -7440.6893 295.8550 -9175.6427 -7440.6893 295.8550 -54.5709 22.8782 30430.2198 -54.5709 22.8782
ENERGY: 300000 3.4118 3.9290 4.0394 0.0000 -10679.2317 1405.1367 0.0000 0.0000 1736.7631 -7525.9517 296.1637 -9262.7148 -7479.5236 296.9383 -383.3168 -290.3895 30479.5049 -349.3204 -272.7381
ENERGY: 600000 2.5826 4.0112 3.1935 0.0000 -10710.6825 1432.0975 0.0000 0.0000 1760.8180 -7507.9797 300.2656 -9268.7977 -7492.7446 298.9932 107.6682 79.9750 30020.3648 -442.4500 -388.7498
ENERGY: 900000 3.1464 2.6600 2.5552 0.0000 -10648.6778 1436.9145 0.0000 0.0000 1734.9786 -7468.4232 295.8593 -9203.4017 -7481.8647 298.7845 17.8877 38.9263 30586.4659 -346.4585 -289.7914
ENERGY: 1200000 2.7036 3.9280 3.1880 0.0000 -10685.9701 1470.4797 0.0000 0.0000 1755.9375 -7449.7333 299.4334 -9205.6708 -7493.6382 297.5810 307.5524 346.1973 30299.5046 -210.9212 -148.9295
ENERGY: 1500000 1.0347 5.3780 3.8001 0.0000 -10803.9327 1554.0214 0.0000 0.0000 1707.2958 -7532.4028 291.1387 -9239.6985 -7492.6708 298.1150 788.2752 832.7311 30498.9737 -161.9142 -97.0963
TCL: Running FEP window  10: Lambda1 0.5499999999999996 Lambda2 0.4999999999999996 [dLambda -0.04999999999999999]
TCL: Setting parameter firsttimestep to 0
TCL: Setting parameter alchLambda to 0.5499999999999996
Info: NONBONDED TABLE R-SQUARED SPACING: 0.0625
Info: NONBONDED TABLE SIZE: 705 POINTS
TCL: Setting parameter alchLambda2 to 0.4999999999999996
Info: NONBONDED TABLE R-SQUARED SPACING: 0.0625
Info: NONBONDED TABLE SIZE: 705 POINTS
TCL: Running for 1500000 steps
ETITLE: TS BOND ANGLE DIHED IMPRP ELECT VDW BOUNDARY MISC KINETIC TOTAL TEMP POTENTIAL TOTALAVG TEMPAVG PRESSURE GPRESSURE VOLUME PRESSAVG GPRESSAVG
ENERGY: 0 1.0347 5.3780 3.8001 0.0000 -10803.6017 1554.3655 0.0000 0.0000 1706.4266 -7532.5968 290.9905 -9239.0234 -7532.5968 290.9905 754.6568 830.5689 30498.9737 754.6568 830.5689
ENERGY: 300000 1.9456 4.2776 7.5343 0.0000 -10546.4167 1352.1735 0.0000 0.0000 1819.8609 -7360.6248 310.3340 -9180.4857 -7449.8741 306.7626 -448.5219 -453.3227 30565.7216 210.2453 280.9123
ENERGY: 600000 0.6954 3.1391 1.3620 0.0000 -10588.8137 1394.2900 0.0000 0.0000 1715.1117 -7474.2155 292.4715 -9189.3272 -7456.2681 302.8775 -441.2458 -345.3888 30805.4106 37.0771 105.1505
ENERGY: 900000 3.0049 2.9256 1.7108 0.0000 -10842.5331 1500.7545 0.0000 0.0000 1745.8467 -7588.2906 297.7126 -9334.1373 -7468.1692 302.2610 245.8622 293.2995 30350.8813 123.5968 189.2514
ENERGY: 1200000 2.1294 4.9814 2.6928 0.0000 -10718.4780 1433.9011 0.0000 0.0000 1767.7663 -7507.0070 301.4505 -9274.7733 -7472.2259 302.5120 -170.0308 -151.5361 30576.6939 77.2147 139.5519
ENERGY: 1500000 2.7579 4.8681 4.0627 0.0000 -10769.7243 1481.0567 0.0000 0.0000 1744.4613 -7532.5177 297.4764 -9276.9790 -7474.6626 301.9712 184.6672 238.1072 30234.2064 20.5334 85.2442
TCL: Running FEP window  11: Lambda1 0.4999999999999996 Lambda2 0.4499999999999996 [dLambda -0.04999999999999999]
TCL: Setting parameter firsttimestep to 0
TCL: Setting parameter alchLambda to 0.4999999999999996
Info: NONBONDED TABLE R-SQUARED SPACING: 0.0625
Info: NONBONDED TABLE SIZE: 705 POINTS
TCL: Setting parameter alchLambda2 to 0.4499999999999996
Info: NONBONDED TABLE R-SQUARED SPACING: 0.0625
Info: NONBONDED TABLE SIZE: 705 POINTS
TCL: Running for 1500000 steps
ETITLE: TS BOND ANGLE DIHED IMPRP ELECT VDW BOUNDARY MISC KINETIC TOTAL TEMP POTENTIAL TOTALAVG TEMPAVG PRESSURE GPRESSURE VOLUME PRESSAVG GPRESSAVG
ENERGY: 0 2.7579 4.8681 4.0627 0.0000 -10769.2484 1481.6621 0.0000 0.0000 1743.5785 -7532.3192 297.3259 -9275.8977 -7532.3192 297.3259 156.9178 240.4107 30234.2064 156.9178 240.4107
ENERGY: 300000 3.6062 4.3293 2.5107 0.0000 -10797.6829 1447.3900 0.0000 0.0000 1758.0265 -7581.8202 299.7896 -9339.8467 -7467.2582 299.5008 -289.3489 -188.2824 30411.1928 -190.7425 -127.9145
ENERGY: 600000 0.7177 8.1040 4.1599 0.0000 -10672.8994 1444.6660 0.0000 0.0000 1750.6475 -7464.6044 298.5313 -9215.2519 -7473.8609 298.5545 41.1605 96.5042 30600.0712 -80.4276 -23.5431
ENERGY: 900000 2.4911 2.5371 3.7501 0.0000 -10679.2438 1433.8137 0.0000 0.0000 1809.0557 -7427.5961 308.4914 -9236.6518 -7468.2316 299.4425 164.0182 195.6565 29986.9630 -26.5458 29.6370
ENERGY: 1200000 2.8511 1.8985 1.7072 0.0000 -10663.8478 1398.9783 0.0000 0.0000 1751.9250 -7506.4876 298.7492 -9258.4126 -7471.3345 299.8814 -434.4423 -401.3124 30704.0492 -42.5820 5.7192
ENERGY: 1500000 2.3960 3.3709 2.5854 0.0000 -10702.6397 1388.8341 0.0000 0.0000 1726.8698 -7578.5835 294.4766 -9305.4533 -7480.2828 299.3115 -403.1525 -358.8485 30196.9524 -10.2571 38.8264
TCL: Running FEP window  12: Lambda1 0.4499999999999996 Lambda2 0.39999999999999963 [dLambda -0.04999999999999999]
TCL: Setting parameter firsttimestep to 0
TCL: Setting parameter alchLambda to 0.4499999999999996
Info: NONBONDED TABLE R-SQUARED SPACING: 0.0625
Info: NONBONDED TABLE SIZE: 705 POINTS
TCL: Setting parameter alchLambda2 to 0.39999999999999963
Info: NONBONDED TABLE R-SQUARED SPACING: 0.0625
Info: NONBONDED TABLE SIZE: 705 POINTS
TCL: Running for 1500000 steps
ETITLE: TS BOND ANGLE DIHED IMPRP ELECT VDW BOUNDARY MISC KINETIC TOTAL TEMP POTENTIAL TOTALAVG TEMPAVG PRESSURE GPRESSURE VOLUME PRESSAVG GPRESSAVG
ENERGY: 0 2.3960 3.3709 2.5854 0.0000 -10702.6397 1389.3656 0.0000 0.0000 1725.9835 -7578.9382 294.3255 -9304.9217 -7578.9382 294.3255 -434.7693 -359.3073 30196.9524 -434.7693 -359.3073
ENERGY: 300000 3.5393 5.6276 1.4273 0.0000 -10565.6613 1359.1727 0.0000 0.0000 1716.0805 -7479.8139 292.6367 -9195.8944 -7510.8228 302.4704 -439.9212 -362.4961 30304.0621 -414.2031 -349.3464
ENERGY: 600000 1.9175 6.9260 2.4035 0.0000 -10575.1976 1346.1991 0.0000 0.0000 1760.8417 -7456.9099 300.2697 -9217.7516 -7497.7260 301.2456 -749.6585 -677.2982 30466.6682 -464.4568 -408.1533
ENERGY: 900000 0.7275 7.2967 4.3309 0.0000 -10714.5617 1382.2523 0.0000 0.0000 1765.3938 -7554.5604 301.0459 -9319.9543 -7488.4995 301.0373 -765.9722 -613.8704 30180.0772 -415.8180 -337.8414
ENERGY: 1200000 2.9321 8.4500 2.4478 0.0000 -10614.9702 1404.4297 0.0000 0.0000 1771.6523 -7425.0584 302.1132 -9196.7106 -7487.1811 300.4913 -417.0664 -310.2982 30359.4391 -313.6301 -235.2292
ENERGY: 1500000 1.1230 4.8481 3.1170 0.0000 -10693.5597 1429.3139 0.0000 0.0000 1774.3623 -7480.7954 302.5753 -9255.1577 -7489.9834 300.6966 -117.0549 -53.7861 30573.6106 -225.3872 -151.6146
TCL: Running FEP window  13: Lambda1 0.39999999999999963 Lambda2 0.34999999999999964 [dLambda -0.04999999999999999]
TCL: Setting parameter firsttimestep to 0
TCL: Setting parameter alchLambda to 0.39999999999999963
Info: NONBONDED TABLE R-SQUARED SPACING: 0.0625
Info: NONBONDED TABLE SIZE: 705 POINTS
TCL: Setting parameter alchLambda2 to 0.34999999999999964
Info: NONBONDED TABLE R-SQUARED SPACING: 0.0625
Info: NONBONDED TABLE SIZE: 705 POINTS
TCL: Running for 1500000 steps
ETITLE: TS BOND ANGLE DIHED IMPRP ELECT VDW BOUNDARY MISC KINETIC TOTAL TEMP POTENTIAL TOTALAVG TEMPAVG PRESSURE GPRESSURE VOLUME PRESSAVG GPRESSAVG
ENERGY: 0 1.1230 4.8481 3.1170 0.0000 -10693.5592 1429.5029 0.0000 0.0000 1773.4590 -7481.5091 302.4213 -9254.9681 -7481.5091 302.4213 -129.7001 -60.5929 30573.6106 -129.7001 -60.5929
ENERGY: 300000 3.0359 5.6911 2.4953 0.0000 -10783.0388 1571.4979 0.0000 0.0000 1793.6534 -7406.6652 305.8649 -9200.3186 -7465.1275 302.9530 1286.4630 1347.7904 30460.6774 454.5880 537.3381
ENERGY: 600000 2.5180 6.5962 0.8374 0.0000 -10747.1830 1449.5661 0.0000 0.0000 1773.4359 -7514.2295 302.4173 -9287.6653 -7476.2365 302.6797 103.9969 172.8721 29844.7236 324.1725 391.6833
ENERGY: 900000 1.7336 5.4835 3.0646 0.0000 -10749.2657 1465.5183 0.0000 0.0000 1722.9229 -7550.5428 293.8035 -9273.4657 -7491.5726 301.3111 -28.2094 27.5278 30505.9261 184.3789 251.8406
ENERGY: 1200000 4.2182 4.9972 4.2980 0.0000 -10639.1956 1386.0084 0.0000 0.0000 1775.1277 -7464.5461 302.7058 -9239.6738 -7481.1035 301.8293 -748.5695 -731.0798 31025.2367 69.7045 125.8290
ENERGY: 1500000 1.2819 3.8798 6.3829 0.0000 -10798.2472 1545.7974 0.0000 0.0000 1762.2002 -7478.7050 300.5013 -9240.9052 -7477.0311 302.3425 978.5328 1050.6282 29704.6138 111.7103 165.5660
TCL: Running FEP window  14: Lambda1 0.34999999999999964 Lambda2 0.29999999999999966 [dLambda -0.04999999999999999]
TCL: Setting parameter firsttimestep to 0
TCL: Setting parameter alchLambda to 0.34999999999999964
Info: NONBONDED TABLE R-SQUARED SPACING: 0.0625
Info: NONBONDED TABLE SIZE: 705 POINTS
TCL: Setting parameter alchLambda2 to 0.29999999999999966
Info: NONBONDED TABLE R-SQUARED SPACING: 0.0625
Info: NONBONDED TABLE SIZE: 705 POINTS
TCL: Running for 1500000 steps
ETITLE: TS BOND ANGLE DIHED IMPRP ELECT VDW BOUNDARY MISC KINETIC TOTAL TEMP POTENTIAL TOTALAVG TEMPAVG PRESSURE GPRESSURE VOLUME PRESSAVG GPRESSAVG
ENERGY: 0 1.2819 3.8798 6.3829 0.0000 -10798.2465 1545.8730 0.0000 0.0000 1761.2999 -7479.5290 300.3478 -9240.8289 -7479.5290 300.3478 961.4131 1048.1998 29704.6138 961.4131 1048.1998
ENERGY: 300000 1.2430 3.2149 0.3165 0.0000 -10678.2688 1378.3302 0.0000 0.0000 1842.2443 -7452.9199 314.1510 -9295.1642 -7461.4548 305.3826 -534.2725 -535.8690 30517.2660 47.7343 112.1192
ENERGY: 600000 3.1205 4.4252 4.2006 0.0000 -10611.4243 1370.3524 0.0000 0.0000 1780.0822 -7449.2434 303.5507 -9229.3256 -7481.5693 301.3458 -526.1821 -498.5352 30241.7829 -88.8112 -31.2419
ENERGY: 900000 1.4995 6.3736 2.4200 0.0000 -10824.6623 1519.1535 0.0000 0.0000 1706.0367 -7589.1790 290.9240 -9295.2157 -7502.1279 299.9143 323.2120 460.0901 30580.8204 59.2547 138.0401
ENERGY: 1200000 2.0990 6.0769 2.3512 0.0000 -10838.4840 1541.1978 0.0000 0.0000 1740.4091 -7546.3500 296.7854 -9286.7591 -7488.9653 300.7548 647.8748 614.3717 30295.1208 61.9523 126.5175
ENERGY: 1500000 2.4612 4.8861 4.8055 0.0000 -10892.9292 1549.6826 0.0000 0.0000 1772.8956 -7558.1981 302.3252 -9331.0937 -7494.3117 300.9244 418.6200 530.2022 30184.0261 128.5740 198.0665
TCL: Running FEP window  15: Lambda1 0.29999999999999966 Lambda2 0.24999999999999967 [dLambda -0.04999999999999999]
TCL: Setting parameter firsttimestep to 0
TCL: Setting parameter alchLambda to 0.29999999999999966
Info: NONBONDED TABLE R-SQUARED SPACING: 0.0625
Info: NONBONDED TABLE SIZE: 705 POINTS
TCL: Setting parameter alchLambda2 to 0.24999999999999967
Info: NONBONDED TABLE R-SQUARED SPACING: 0.0625
Info: NONBONDED TABLE SIZE: 705 POINTS
TCL: Running for 1500000 steps
ETITLE: TS BOND ANGLE DIHED IMPRP ELECT VDW BOUNDARY MISC KINETIC TOTAL TEMP POTENTIAL TOTALAVG TEMPAVG PRESSURE GPRESSURE VOLUME PRESSAVG GPRESSAVG
ENERGY: 0 2.4612 4.8861 4.8055 0.0000 -10892.9296 1550.1523 0.0000 0.0000 1772.0290 -7558.5953 302.1774 -9330.6244 -7558.5953 302.1774 463.3241 529.8654 30184.0261 463.3241 529.8654
ENERGY: 300000 1.8769 5.1034 2.7864 0.0000 -10737.2393 1420.4629 0.0000 0.0000 1759.9411 -7547.0687 300.1161 -9307.0098 -7522.8872 300.7520 -303.0335 -269.5070 30141.4691 -201.8971 -127.6791
ENERGY: 600000 3.6359 3.4429 2.7420 0.0000 -10777.8108 1496.3809 0.0000 0.0000 1707.1238 -7564.4852 291.1094 -9271.6090 -7527.4989 298.1804 216.3882 234.8955 30157.0565 -59.9770 -4.4035
ENERGY: 900000 4.1946 5.4870 5.1543 0.0000 -10714.4515 1497.8839 0.0000 0.0000 1763.9617 -7437.7700 300.8017 -9201.7317 -7503.3155 298.8762 557.3548 613.9846 30292.0321 56.4119 113.0824
ENERGY: 1200000 1.7816 8.1294 2.1803 0.0000 -10623.2371 1406.0913 0.0000 0.0000 1739.5551 -7465.4994 296.6398 -9205.0545 -7506.2488 297.5432 59.1758 85.3045 29990.1174 52.7278 114.3061
ENERGY: 1500000 4.1564 8.7176 3.5589 0.0000 -10564.8536 1323.0036 0.0000 0.0000 1786.0213 -7439.3958 304.5635 -9225.4171 -7496.7910 299.5832 -914.9343 -887.2255 30461.0083 21.5523 82.3900
TCL: Running FEP window  16: Lambda1 0.24999999999999967 Lambda2 0.19999999999999968 [dLambda -0.04999999999999999]
TCL: Setting parameter firsttimestep to 0
TCL: Setting parameter alchLambda to 0.24999999999999967
Info: NONBONDED TABLE R-SQUARED SPACING: 0.0625
Info: NONBONDED TABLE SIZE: 705 POINTS
TCL: Setting parameter alchLambda2 to 0.19999999999999968
Info: NONBONDED TABLE R-SQUARED SPACING: 0.0625
Info: NONBONDED TABLE SIZE: 705 POINTS
TCL: Running for 1500000 steps
ETITLE: TS BOND ANGLE DIHED IMPRP ELECT VDW BOUNDARY MISC KINETIC TOTAL TEMP POTENTIAL TOTALAVG TEMPAVG PRESSURE GPRESSURE VOLUME PRESSAVG GPRESSAVG
ENERGY: 0 4.1564 8.7176 3.5589 0.0000 -10564.8527 1323.3913 0.0000 0.0000 1785.1221 -7439.9063 304.4101 -9225.0285 -7439.9063 304.4101 -971.0174 -889.1372 30461.0083 -971.0174 -889.1372
ENERGY: 300000 2.2632 3.1819 2.2711 0.0000 -10675.1732 1435.0911 0.0000 0.0000 1743.2068 -7489.1590 297.2625 -9232.3658 -7505.3003 297.8631 29.0905 91.4787 30179.0994 -164.6823 -87.2994
ENERGY: 600000 3.4554 4.3165 3.8033 0.0000 -10813.8534 1505.3418 0.0000 0.0000 1759.1930 -7537.7434 299.9885 -9296.9365 -7505.1776 300.0457 568.5783 546.6638 30127.7040 -18.8400 40.2486
ENERGY: 900000 1.6023 2.6265 4.1926 0.0000 -10706.2855 1491.5120 0.0000 0.0000 1775.5623 -7430.7899 302.7799 -9206.3521 -7494.3032 300.3942 309.4997 361.9570 30712.5452 33.0250 93.6202
ENERGY: 1200000 1.6721 4.0929 6.4235 0.0000 -10582.6851 1385.0325 0.0000 0.0000 1757.7938 -7427.6703 299.7499 -9185.4641 -7486.1245 300.4381 -155.3642 -134.0190 30260.7519 -5.5812 49.6431
ENERGY: 1500000 2.8077 5.2547 4.6732 0.0000 -10624.1428 1464.1840 0.0000 0.0000 1781.2145 -7366.0088 303.7438 -9147.2233 -7477.6127 300.6943 546.6788 596.5562 30240.5438 81.0054 134.8902
TCL: Running FEP window  17: Lambda1 0.19999999999999968 Lambda2 0.1499999999999997 [dLambda -0.04999999999999999]
TCL: Setting parameter firsttimestep to 0
TCL: Setting parameter alchLambda to 0.19999999999999968
Info: NONBONDED TABLE R-SQUARED SPACING: 0.0625
Info: NONBONDED TABLE SIZE: 705 POINTS
TCL: Setting parameter alchLambda2 to 0.1499999999999997
Info: NONBONDED TABLE R-SQUARED SPACING: 0.0625
Info: NONBONDED TABLE SIZE: 705 POINTS
TCL: Running for 1500000 steps
ETITLE: TS BOND ANGLE DIHED IMPRP ELECT VDW BOUNDARY MISC KINETIC TOTAL TEMP POTENTIAL TOTALAVG TEMPAVG PRESSURE GPRESSURE VOLUME PRESSAVG GPRESSAVG
ENERGY: 0 2.8077 5.2547 4.6732 0.0000 -10624.1420 1464.0237 0.0000 0.0000 1780.3423 -7367.0406 303.5951 -9147.3829 -7367.0406 303.5951 513.0336 593.5135 30240.5438 513.0336 593.5135
ENERGY: 300000 1.7487 4.9777 5.9552 0.0000 -10763.6409 1464.7093 0.0000 0.0000 1716.1960 -7570.0539 292.6564 -9286.2499 -7482.2149 301.1247 -144.2558 -116.2418 30341.9923 90.8728 137.9418
ENERGY: 600000 2.1968 2.7289 3.1436 0.0000 -10674.0000 1406.9934 0.0000 0.0000 1752.0485 -7506.8888 298.7702 -9258.9373 -7485.2192 301.6050 -468.0325 -371.8729 30472.6614 74.9737 113.3841
ENERGY: 900000 1.9034 3.5465 2.1592 0.0000 -10742.1119 1482.9777 0.0000 0.0000 1753.4643 -7498.0607 299.0116 -9251.5250 -7485.0215 301.1023 385.7489 432.4771 30142.4487 -61.1754 -10.2432
ENERGY: 1200000 3.3277 4.9057 5.4400 0.0000 -10568.2686 1416.0878 0.0000 0.0000 1810.8056 -7327.7018 308.7898 -9138.5074 -7468.5740 302.2845 -24.6714 -13.1255 30249.2908 -10.0661 47.8249
ENERGY: 1500000 3.1925 6.2741 2.2374 0.0000 -10729.1114 1402.5626 0.0000 0.0000 1795.4542 -7519.3905 306.1720 -9314.8448 -7465.2281 302.6415 -499.5122 -398.9483 30288.1362 -32.8347 24.5097
TCL: Running FEP window  18: Lambda1 0.1499999999999997 Lambda2 0.09999999999999969 [dLambda -0.05 ]
TCL: Setting parameter firsttimestep to 0
TCL: Setting parameter alchLambda to 0.1499999999999997
Info: NONBONDED TABLE R-SQUARED SPACING: 0.0625
Info: NONBONDED TABLE SIZE: 705 POINTS
TCL: Setting parameter alchLambda2 to 0.09999999999999969
Info: NONBONDED TABLE R-SQUARED SPACING: 0.0625
Info: NONBONDED TABLE SIZE: 705 POINTS
TCL: Running for 1500000 steps
ETITLE: TS BOND ANGLE DIHED IMPRP ELECT VDW BOUNDARY MISC KINETIC TOTAL TEMP POTENTIAL TOTALAVG TEMPAVG PRESSURE GPRESSURE VOLUME PRESSAVG GPRESSAVG
ENERGY: 0 3.1925 6.2741 2.2374 0.0000 -10729.1103 1402.4242 0.0000 0.0000 1794.5842 -7520.3979 306.0237 -9314.9821 -7520.3979 306.0237 -498.1495 -402.1197 30288.1362 -498.1495 -402.1197
ENERGY: 300000 1.6110 6.0059 2.3734 0.0000 -10873.4348 1507.3080 0.0000 0.0000 1688.5814 -7667.5553 287.9474 -9356.1367 -7514.4145 301.5117 381.8294 405.8010 29921.9225 73.7879 131.7066
ENERGY: 600000 2.0909 6.3653 2.9920 0.0000 -10741.8043 1454.2143 0.0000 0.0000 1755.7627 -7520.3791 299.4036 -9276.1419 -7486.8905 302.7737 60.5977 91.3780 30138.5311 -14.6660 45.6730
ENERGY: 900000 2.3157 7.5191 1.8575 0.0000 -10585.2212 1350.6024 0.0000 0.0000 1776.3473 -7446.5791 302.9138 -9222.9264 -7480.0825 301.5265 -667.7604 -618.3535 30186.3127 -229.1383 -181.0518
ENERGY: 1200000 1.9063 3.8021 2.6544 0.0000 -10708.6402 1451.2917 0.0000 0.0000 1786.9221 -7462.0636 304.7171 -9248.9857 -7485.9291 301.3835 -196.8074 -74.4447 30494.3127 -243.6107 -189.2573
ENERGY: 1500000 1.6669 1.9000 2.0345 0.0000 -10660.0855 1498.0218 0.0000 0.0000 1716.6559 -7439.8064 292.7348 -9156.4622 -7484.0305 301.3477 534.0077 568.0212 30317.2911 -171.6622 -118.2604
TCL: Running FEP window  19: Lambda1 0.09999999999999969 Lambda2 0.049999999999999684 [dLambda -0.05 ]
TCL: Setting parameter firsttimestep to 0
TCL: Setting parameter alchLambda to 0.09999999999999969
Info: NONBONDED TABLE R-SQUARED SPACING: 0.0625
Info: NONBONDED TABLE SIZE: 705 POINTS
TCL: Setting parameter alchLambda2 to 0.049999999999999684
Info: NONBONDED TABLE R-SQUARED SPACING: 0.0625
Info: NONBONDED TABLE SIZE: 705 POINTS
TCL: Running for 1500000 steps
ETITLE: TS BOND ANGLE DIHED IMPRP ELECT VDW BOUNDARY MISC KINETIC TOTAL TEMP POTENTIAL TOTALAVG TEMPAVG PRESSURE GPRESSURE VOLUME PRESSAVG GPRESSAVG
ENERGY: 0 1.6669 1.9000 2.0345 0.0000 -10660.0863 1498.2705 0.0000 0.0000 1715.7484 -7440.4660 292.5801 -9156.2144 -7440.4660 292.5801 481.9754 566.7424 30317.2911 481.9754 566.7424
ENERGY: 300000 1.7890 4.1401 5.1651 0.0000 -10806.6377 1513.2172 0.0000 0.0000 1781.4160 -7500.9103 303.7781 -9282.3263 -7487.1862 298.2962 700.2260 733.8254 29641.2906 153.5448 226.3574
ENERGY: 600000 5.6388 5.5193 4.7189 0.0000 -10724.8099 1406.3946 0.0000 0.0000 1771.8593 -7530.6791 302.1485 -9302.5384 -7501.0208 298.0219 -409.7646 -381.9325 30066.0772 31.4837 87.8549
ENERGY: 900000 2.3067 3.3678 3.2197 0.0000 -10789.0439 1458.8046 0.0000 0.0000 1782.1771 -7539.1680 303.9079 -9321.3451 -7513.9031 297.4710 -41.6559 28.4820 29990.6536 -142.8862 -80.7414
ENERGY: 1200000 2.2097 6.0812 1.1486 0.0000 -10680.8825 1425.5865 0.0000 0.0000 1750.8610 -7494.9954 298.5677 -9245.8564 -7508.2389 297.5871 -77.5394 -41.6445 30209.9604 -119.8505 -60.0158
ENERGY: 1500000 2.6952 2.8572 3.5692 0.0000 -10656.8390 1389.6122 0.0000 0.0000 1810.6377 -7447.4675 308.7612 -9258.1052 -7504.7406 298.7113 -641.7060 -509.6300 30580.4427 -131.0617 -65.2524
TCL: Running FEP window  20: Lambda1 0.049999999999999684 Lambda2 0.0    [dLambda -0.049999999999999684]
TCL: Setting parameter firsttimestep to 0
TCL: Setting parameter alchLambda to 0.049999999999999684
Info: NONBONDED TABLE R-SQUARED SPACING: 0.0625
Info: NONBONDED TABLE SIZE: 705 POINTS
TCL: Setting parameter alchLambda2 to 0.0
Info: NONBONDED TABLE R-SQUARED SPACING: 0.0625
Info: NONBONDED TABLE SIZE: 705 POINTS
TCL: Running for 1500000 steps
ETITLE: TS BOND ANGLE DIHED IMPRP ELECT VDW BOUNDARY MISC KINETIC TOTAL TEMP POTENTIAL TOTALAVG TEMPAVG PRESSURE GPRESSURE VOLUME PRESSAVG GPRESSAVG
ENERGY: 0 2.6952 2.8572 3.5692 0.0000 -10656.8402 1389.5355 0.0000 0.0000 1809.7407 -7448.4424 308.6082 -9258.1831 -7448.4424 308.6082 -593.8076 -512.5029 30580.4427 -593.8076 -512.5029
ENERGY: 300000 1.2061 6.3294 5.3827 0.0000 -10639.7579 1425.5352 0.0000 0.0000 1730.9009 -7470.4037 295.1640 -9201.3045 -7427.0539 305.9514 -47.6391 23.1929 30135.9041 -389.3306 -318.1432
ENERGY: 600000 1.2713 3.7670 0.4939 0.0000 -10899.5113 1538.7965 0.0000 0.0000 1758.7594 -7596.4231 299.9146 -9355.1826 -7472.1911 303.8351 706.5360 815.6696 29638.4736 -107.7184 -23.8248
ENERGY: 900000 1.3276 7.2977 4.6360 0.0000 -10754.4817 1453.3758 0.0000 0.0000 1719.1218 -7568.7227 293.1554 -9287.8445 -7493.9253 301.0470 -10.8093 36.3085 30109.9034 -226.5392 -154.2805
ENERGY: 1200000 4.6201 6.0927 4.4075 0.0000 -10793.7476 1505.2285 0.0000 0.0000 1744.3421 -7529.0567 297.4561 -9273.3988 -7492.6634 300.1843 614.4682 621.5165 30014.7339 -117.2061 -55.3213
ENERGY: 1500000 2.1704 5.2020 1.0310 0.0000 -10603.0164 1326.8851 0.0000 0.0000 1806.1849 -7461.5430 308.0019 -9267.7279 -7490.8731 300.6195 -840.5882 -780.4996 30422.8984 -193.1842 -132.6320
TCL: Exiting due to exit command.
