Info: SIMULATION PARAMETERS:
Info: TIMESTEP               2
Info: NUMBER OF STEPS        0
Info: STEPS PER CYCLE        10
Info: PERIODIC CELL BASIS 1  30.259 0 0
Info: PERIODIC CELL BASIS 2  0 31.6496 0
Info: PERIODIC CELL BASIS 3  0 0 31.6
Info: PERIODIC CELL CENTER   0 0 0
Info: WRAPPING WATERS AROUND PERIODIC BOUNDARIES ON OUTPUT.
Info: WRAPPING ALL CLUSTERS AROUND PERIODIC BOUNDARIES ON OUTPUT.
Info: FIRST LDB TIMESTEP     50
Info: LAST LDB TIMESTEP     -1
Info: HOM BACKGROUND SCALING 1
Info: PME BACKGROUND SCALING 1
Info: MIN ATOMS PER PATCH    40
Info: EMPTY PATCH LOAD       40 ATOMS
Info: VELOCITY FILE          mobley_7893124_equil.vel
Info: CENTER OF MASS MOVING INITIALLY? NO
Info: DIELECTRIC             1
Info: EXCLUDE                SCALED ONE-FOUR
Info: 1-4 ELECTROSTATICS SCALED BY 0.833333
Info: MODIFIED 1-4 VDW PARAMETERS WILL BE USED
Info: DCD FILENAME           mobley_7893124_prod.dcd
Info: DCD FREQUENCY          100000
Info: DCD FIRST STEP         100000
Info: DCD FILE WILL CONTAIN UNIT CELL DATA
Info: XST FILENAME           mobley_7893124_prod.xst
Info: XST FREQUENCY          100000
Info: NO VELOCITY DCD OUTPUT
Info: NO FORCE DCD OUTPUT
Info: OUTPUT FILENAME        mobley_7893124_prod
Info: BINARY OUTPUT FILES WILL BE USED
Info: RESTART FILENAME       mobley_7893124_prod.restart
Info: RESTART FREQUENCY      100000
Info: BINARY RESTART FILES WILL BE USED
Info: CUTOFF                 9
Info: PAIRLIST DISTANCE      11
Info: PAIRLIST SHRINK RATE   0.01
Info: PAIRLIST GROW RATE     0.01
Info: PAIRLIST TRIGGER       0.3
Info: PAIRLISTS PER CYCLE    2
Info: PAIRLISTS ENABLED
Info: MARGIN                 2
Info: HYDROGEN GROUP CUTOFF  2.5
Info: PATCH DIMENSION        15.5
Info: ENERGY OUTPUT STEPS    100000
Info: ENERGY EVALUATION STEPS    100000
Info: OUTPUT ENERGY PRECISION 4
Info: CROSSTERM ENERGY INCLUDED IN DIHEDRAL
Info: TIMING OUTPUT STEPS    1000000
Info: PRESSURE OUTPUT STEPS  100000
Info: ALCHEMICAL FEP ON
Info: FEP CURRENT LAMBDA VALUE     1
Info: FEP COMPARISON LAMBDA VALUE  0.95
Info: FEP INTRA-ALCHEMICAL NON-BONDED INTERACTIONS WILL BE RETAINED
Info: FEP INTRA-ALCHEMICAL BONDED INTERACTIONS WILL BE RETAINED
Info: FEP VDW SHIFTING COEFFICIENT 5
Info: FEP ELEC. ACTIVE FOR ANNIHILATED PARTICLES BETWEEN LAMBDA = 0 AND LAMBDA = 0.5
Info: FEP ELEC. ACTIVE FOR EXNIHILATED PARTICLES BETWEEN LAMBDA = 0.5 AND LAMBDA = 1
Info: FEP VDW ACTIVE FOR ANNIHILATED PARTICLES BETWEEN LAMBDA = 0 AND LAMBDA = 1
Info: FEP VDW ACTIVE FOR EXNIHILATED PARTICLES BETWEEN LAMBDA = 0 AND LAMBDA = 1
Info: FEP BOND ACTIVE FOR ANNIHILATED PARTICLES BETWEEN LAMBDA = 1 AND LAMBDA = 1
Info: FEP BOND ACTIVE FOR EXNIHILATED PARTICLES BETWEEN LAMBDA = 0 AND LAMBDA = 0
Info: LANGEVIN DYNAMICS ACTIVE
Info: LANGEVIN TEMPERATURE   300
Info: LANGEVIN USING BBK INTEGRATOR
Info: LANGEVIN DAMPING COEFFICIENT IS 1 INVERSE PS
Info: LANGEVIN DYNAMICS APPLIED TO HYDROGENS
Info: LANGEVIN PISTON PRESSURE CONTROL ACTIVE
Info:        TARGET PRESSURE IS 1.01325 BAR
Info:     OSCILLATION PERIOD IS 50 FS
Info:             DECAY TIME IS 25 FS
Info:     PISTON TEMPERATURE IS 300 K
Info:       PRESSURE CONTROL IS GROUP-BASED
Info:    INITIAL STRAIN RATE IS 0.000594984 0.000594984 0.000594984
Info:       CELL FLUCTUATION IS ISOTROPIC
Info: PARTICLE MESH EWALD (PME) ACTIVE
Info: PME TOLERANCE               1e-06
Info: PME EWALD COEFFICIENT       0.348832
Info: PME INTERPOLATION ORDER     4
Info: PME GRID DIMENSIONS         32 32 32
Info: PME MAXIMUM GRID SPACING    1
Info: PME CALCULATION WILL BE PERFORMED ON GPU
Info: FULL ELECTROSTATIC EVALUATION FREQUENCY      2
Info: USING VERLET I (r-RESPA) MTS SCHEME.
Info: C1 SPLITTING OF LONG RANGE ELECTROSTATICS
Info: PLACING ATOMS IN PATCHES BY HYDROGEN GROUPS
Info: RIGID BONDS TO HYDROGEN : ALL
Info:         ERROR TOLERANCE : 1e-08
Info:          MAX ITERATIONS : 100
Info: RIGID WATER USING SETTLE ALGORITHM
Info: RANDOM NUMBER SEED     1743662724
Info: USE HYDROGEN BONDS?    NO
Info: Using AMBER format force field!
Info: AMBER PARM FILE        mobley_7893124.prmtop
Info: COORDINATE PDB         mobley_7893124.pdb
Info: Exclusions will be read from PARM file!
Info: SCNB (VDW SCALING)     2
Info: USING ARITHMETIC MEAN TO COMBINE L-J SIGMA PARAMETERS
Info: BINARY COORDINATES     mobley_7893124_equil.coor
Info: SUMMARY OF PARAMETERS:
Info: 7 BONDS
Info: 7 ANGLES
Info:   7 HARMONIC
Info:   0 COSINE-BASED
Info: 5 DIHEDRAL
Info: 0 IMPROPER
Info: 0 CROSSTERM
Info: 0 VDW
Info: 21 VDW_PAIRS
Info: 0 NBTHOLE_PAIRS
Info: To read alchdata from file: mobley_7893124.pdb
Info: To read alchflag data from column: 5
Info: STRUCTURE SUMMARY:
Info: 2922 ATOMS
Info: 2922 BONDS
Info: 42 ANGLES
Info: 63 DIHEDRALS
Info: 0 IMPROPERS
Info: 0 CROSSTERMS
Info: 3018 EXCLUSIONS
Info: 2912 RIGID BONDS
Info: ALCH: 0 ATOMS TO DISAPPEAR IN FINAL STATE
Info: ALCH: 24 ATOMS TO APPEAR IN FINAL STATE
Info: 5854 DEGREES OF FREEDOM
Info: 976 HYDROGEN GROUPS
Info: 4 ATOMS IN LARGEST HYDROGEN GROUP
Info: 976 MIGRATION GROUPS
Info: 4 ATOMS IN LARGEST MIGRATION GROUP
Info: TOTAL MASS = 17537.7 amu
Info: TOTAL CHARGE = 0.000200007 e
Info: MASS DENSITY = 0.962324 g/cm^3
Info: ATOM DENSITY = 0.096554 atoms/A^3
Info: ADDED 0 IMPLICIT EXCLUSIONS
Info: NONBONDED TABLE R-SQUARED SPACING: 0.0625
Info: NONBONDED TABLE SIZE: 705 POINTS
Info: REMOVING COM VELOCITY 0.00819765 -0.0935621 -0.181749
Info: Use 3D box decompostion in PME FFT.
Info: Updated CUDA force table with 4096 elements.
Info: Updated CUDA LJ table with 6 x 6 elements.
Info: Found 23 unique exclusion lists needing 80 bytes
TCL: Running for 1500000 steps
ETITLE: TS BOND ANGLE DIHED IMPRP ELECT VDW BOUNDARY MISC KINETIC TOTAL TEMP POTENTIAL TOTALAVG TEMPAVG PRESSURE GPRESSURE VOLUME PRESSAVG GPRESSAVG
ENERGY: 0 4.3852 7.9412 10.3240 0.0000 -10485.9173 1405.7837 0.0000 0.0000 1673.5355 -7383.9477 287.7217 -9057.4832 -7383.9477 287.7217 -101.5590 -28.7454 30262.8571 -101.5590 -28.7454
ENERGY: 300000 2.3309 8.1008 1.8717 0.0000 -10706.9278 1535.6368 0.0000 0.0000 1767.8918 -7391.0958 303.9438 -9158.9876 -7395.6661 296.9396 608.8130 735.1380 30310.8734 -152.9931 -49.4901
ENERGY: 600000 3.8610 7.8692 2.8289 0.0000 -10473.7065 1341.6984 0.0000 0.0000 1769.2929 -7348.1561 304.1847 -9117.4490 -7387.4802 298.5686 -705.2431 -661.3821 30336.5991 82.0908 158.8102
ENERGY: 900000 2.4270 10.7635 1.6646 0.0000 -10416.5925 1372.8845 0.0000 0.0000 1750.1634 -7278.6896 300.8959 -9028.8530 -7374.3853 300.5274 126.6990 198.5936 30050.0858 128.4719 196.8155
ENERGY: 1200000 2.9323 7.5787 4.0954 0.0000 -10600.3238 1401.9323 0.0000 0.0000 1788.0435 -7395.7415 307.4084 -9183.7850 -7375.6321 300.7607 -238.8140 -173.3562 29751.5986 100.0879 170.5656
ENERGY: 1500000 4.5335 7.3971 4.0777 0.0000 -10613.1184 1438.1927 0.0000 0.0000 1691.9068 -7467.0106 290.8802 -9158.9174 -7377.4617 299.9073 215.2820 233.4921 29653.2790 140.8193 209.1012
TCL: Running FEP window   2: Lambda1 0.95   Lambda2 0.8999999999999999 [dLambda -0.050000000000000044]
TCL: Setting parameter firsttimestep to 0
TCL: Setting parameter alchLambda to 0.95
Info: NONBONDED TABLE R-SQUARED SPACING: 0.0625
Info: NONBONDED TABLE SIZE: 705 POINTS
TCL: Setting parameter alchLambda2 to 0.8999999999999999
Info: NONBONDED TABLE R-SQUARED SPACING: 0.0625
Info: NONBONDED TABLE SIZE: 705 POINTS
TCL: Running for 1500000 steps
ETITLE: TS BOND ANGLE DIHED IMPRP ELECT VDW BOUNDARY MISC KINETIC TOTAL TEMP POTENTIAL TOTALAVG TEMPAVG PRESSURE GPRESSURE VOLUME PRESSAVG GPRESSAVG
ENERGY: 0 4.5335 7.3971 4.0777 0.0000 -10612.2216 1438.2484 0.0000 0.0000 1690.9981 -7466.9668 290.7239 -9157.9648 -7466.9668 290.7239 127.0877 216.9577 29653.2790 127.0877 216.9577
ENERGY: 300000 3.6018 11.2584 4.6527 0.0000 -10594.5176 1421.6143 0.0000 0.0000 1687.3760 -7466.0144 290.1012 -9153.3904 -7420.4672 294.5154 -32.2162 -23.7126 30009.8807 52.6104 113.4391
ENERGY: 600000 4.7522 11.4230 4.3423 0.0000 -10514.7646 1422.8597 0.0000 0.0000 1755.8114 -7315.5759 301.8669 -9071.3873 -7387.7301 297.5149 264.5424 360.5491 29765.8127 109.3513 182.1466
ENERGY: 900000 5.4691 8.0057 6.6816 0.0000 -10569.0991 1379.9129 0.0000 0.0000 1757.8425 -7411.1873 302.2161 -9169.0298 -7391.6242 298.8823 -698.8187 -625.5384 30240.8590 -57.7757 14.1384
ENERGY: 1200000 2.4972 12.0549 5.9367 0.0000 -10576.6741 1457.8650 0.0000 0.0000 1761.3256 -7336.9946 302.8150 -9098.3202 -7392.2115 299.5930 -14.3640 54.4609 30498.4637 -72.5660 -8.2482
ENERGY: 1500000 4.2686 9.2135 5.7613 0.0000 -10512.6626 1366.0494 0.0000 0.0000 1707.4994 -7419.8705 293.5609 -9127.3699 -7393.3644 298.7723 -670.7671 -626.6045 30348.9616 -76.6784 -17.0871
TCL: Running FEP window   3: Lambda1 0.8999999999999999 Lambda2 0.8499999999999999 [dLambda -0.050000000000000044]
TCL: Setting parameter firsttimestep to 0
TCL: Setting parameter alchLambda to 0.8999999999999999
Info: NONBONDED TABLE R-SQUARED SPACING: 0.0625
Info: NONBONDED TABLE SIZE: 705 POINTS
TCL: Setting parameter alchLambda2 to 0.8499999999999999
Info: NONBONDED TABLE R-SQUARED SPACING: 0.0625
Info: NONBONDED TABLE SIZE: 705 POINTS
TCL: Running for 1500000 steps
ETITLE: TS BOND ANGLE DIHED IMPRP ELECT VDW BOUNDARY MISC KINETIC TOTAL TEMP POTENTIAL TOTALAVG TEMPAVG PRESSURE GPRESSURE VOLUME PRESSAVG GPRESSAVG
ENERGY: 0 4.2686 9.2135 5.7613 0.0000 -10511.7429 1366.3128 0.0000 0.0000 1706.6526 -7419.5342 293.4153 -9126.1868 -7419.5342 293.4153 -723.7332 -636.1336 30348.9616 -723.7332 -636.1336
ENERGY: 300000 3.8030 8.2308 4.4840 0.0000 -10546.4384 1462.8691 0.0000 0.0000 1718.6364 -7348.4151 295.4756 -9067.0516 -7375.0261 295.2700 216.0245 292.6229 30645.8653 -83.9202 8.2608
ENERGY: 600000 8.9689 7.7255 1.8427 0.0000 -10633.9721 1452.9911 0.0000 0.0000 1761.7623 -7400.6816 302.8900 -9162.4439 -7365.5560 296.9537 114.6878 213.0920 29691.2408 -55.4189 21.5050
ENERGY: 900000 5.6554 8.3093 4.0503 0.0000 -10727.8288 1545.5150 0.0000 0.0000 1781.0754 -7383.2234 306.2104 -9164.2987 -7370.6447 298.0143 1025.8945 1127.5780 29513.6734 70.3019 144.7197
ENERGY: 1200000 7.6651 6.9205 6.4383 0.0000 -10701.9439 1523.9056 0.0000 0.0000 1708.3641 -7448.6503 293.7096 -9157.0144 -7374.9278 298.6212 538.1107 645.1363 29919.7646 107.3588 185.5233
ENERGY: 1500000 4.5436 14.4533 2.1689 0.0000 -10598.4932 1431.3524 0.0000 0.0000 1731.8733 -7414.1016 297.7514 -9145.9749 -7372.0902 298.9630 198.5511 283.2363 29888.5886 98.2018 181.2125
TCL: Running FEP window   4: Lambda1 0.8499999999999999 Lambda2 0.7999999999999998 [dLambda -0.050000000000000044]
TCL: Setting parameter firsttimestep to 0
TCL: Setting parameter alchLambda to 0.8499999999999999
Info: NONBONDED TABLE R-SQUARED SPACING: 0.0625
Info: NONBONDED TABLE SIZE: 705 POINTS
TCL: Setting parameter alchLambda2 to 0.7999999999999998
Info: NONBONDED TABLE R-SQUARED SPACING: 0.0625
Info: NONBONDED TABLE SIZE: 705 POINTS
TCL: Running for 1500000 steps
ETITLE: TS BOND ANGLE DIHED IMPRP ELECT VDW BOUNDARY MISC KINETIC TOTAL TEMP POTENTIAL TOTALAVG TEMPAVG PRESSURE GPRESSURE VOLUME PRESSAVG GPRESSAVG
ENERGY: 0 4.5436 14.4533 2.1689 0.0000 -10597.5339 1430.7202 0.0000 0.0000 1730.9959 -7414.6519 297.6005 -9145.6478 -7414.6519 297.6005 179.5729 264.2198 29888.5886 179.5729 264.2198
ENERGY: 300000 2.3347 6.7262 2.6935 0.0000 -10475.4098 1387.7821 0.0000 0.0000 1846.0701 -7229.8031 317.3846 -9075.8732 -7304.3269 307.5681 -294.6589 -237.3074 30557.9423 -222.4849 -167.3579
ENERGY: 600000 2.0562 6.0398 2.8909 0.0000 -10512.3882 1462.0238 0.0000 0.0000 1749.6123 -7289.7653 300.8012 -9039.3776 -7329.1491 304.1846 656.9201 709.4661 30246.0819 162.8585 219.2229
ENERGY: 900000 3.9765 8.9442 2.4713 0.0000 -10445.0826 1351.2250 0.0000 0.0000 1738.5417 -7339.9239 298.8978 -9078.4656 -7333.6920 303.8449 -790.3946 -747.2191 30638.6467 58.2514 118.6133
ENERGY: 1200000 5.8074 9.7536 5.2624 0.0000 -10627.2383 1446.6703 0.0000 0.0000 1757.0320 -7402.7126 302.0768 -9159.7446 -7333.4618 303.9114 -162.6206 -78.9386 30353.3525 -19.8337 38.5511
ENERGY: 1500000 3.2896 8.9494 3.3112 0.0000 -10551.9818 1446.4399 0.0000 0.0000 1735.7407 -7354.2510 298.4163 -9089.9916 -7341.9778 302.9845 270.6195 289.5460 30204.8253 -29.6245 23.4396
TCL: Running FEP window   5: Lambda1 0.7999999999999998 Lambda2 0.7499999999999998 [dLambda -0.050000000000000044]
TCL: Setting parameter firsttimestep to 0
TCL: Setting parameter alchLambda to 0.7999999999999998
Info: NONBONDED TABLE R-SQUARED SPACING: 0.0625
Info: NONBONDED TABLE SIZE: 705 POINTS
TCL: Setting parameter alchLambda2 to 0.7499999999999998
Info: NONBONDED TABLE R-SQUARED SPACING: 0.0625
Info: NONBONDED TABLE SIZE: 705 POINTS
TCL: Running for 1500000 steps
ETITLE: TS BOND ANGLE DIHED IMPRP ELECT VDW BOUNDARY MISC KINETIC TOTAL TEMP POTENTIAL TOTALAVG TEMPAVG PRESSURE GPRESSURE VOLUME PRESSAVG GPRESSAVG
ENERGY: 0 3.2896 8.9494 3.3112 0.0000 -10551.5214 1446.1671 0.0000 0.0000 1734.8401 -7354.9641 298.2614 -9089.8042 -7354.9641 298.2614 189.4338 271.8433 30204.8253 189.4338 271.8433
ENERGY: 300000 5.4212 10.5927 2.3877 0.0000 -10553.3139 1368.3474 0.0000 0.0000 1700.1170 -7466.4479 292.2917 -9166.5649 -7377.5986 300.1511 -848.0925 -837.3003 30384.4303 -160.4930 -124.4410
ENERGY: 600000 4.5994 9.4282 1.5202 0.0000 -10508.2443 1398.0436 0.0000 0.0000 1698.4058 -7396.2471 291.9975 -9094.6529 -7385.0726 299.4640 -323.6330 -292.0338 30213.7418 -221.2355 -162.5298
ENERGY: 900000 4.2257 9.2843 2.1867 0.0000 -10610.9853 1427.3250 0.0000 0.0000 1767.2403 -7400.7233 303.8318 -9167.9635 -7371.5004 300.5037 -175.7085 -94.3833 30094.4604 -315.8851 -258.0281
ENERGY: 1200000 5.8785 8.4890 6.4760 0.0000 -10552.8248 1399.6010 0.0000 0.0000 1710.5500 -7421.8304 294.0854 -9132.3804 -7375.1409 300.5057 -224.1111 -159.4945 29995.6858 -270.6084 -216.1553
ENERGY: 1500000 2.4460 15.1061 4.7695 0.0000 -10565.5198 1464.2853 0.0000 0.0000 1754.2571 -7324.6557 301.5997 -9078.9128 -7366.8249 300.2028 672.7326 739.9864 29777.1170 -173.4367 -116.2349
TCL: Running FEP window   6: Lambda1 0.7499999999999998 Lambda2 0.6999999999999997 [dLambda -0.050000000000000044]
TCL: Setting parameter firsttimestep to 0
TCL: Setting parameter alchLambda to 0.7499999999999998
Info: NONBONDED TABLE R-SQUARED SPACING: 0.0625
Info: NONBONDED TABLE SIZE: 705 POINTS
TCL: Setting parameter alchLambda2 to 0.6999999999999997
Info: NONBONDED TABLE R-SQUARED SPACING: 0.0625
Info: NONBONDED TABLE SIZE: 705 POINTS
TCL: Running for 1500000 steps
ETITLE: TS BOND ANGLE DIHED IMPRP ELECT VDW BOUNDARY MISC KINETIC TOTAL TEMP POTENTIAL TOTALAVG TEMPAVG PRESSURE GPRESSURE VOLUME PRESSAVG GPRESSAVG
ENERGY: 0 2.4460 15.1061 4.7695 0.0000 -10565.1729 1464.3488 0.0000 0.0000 1753.3730 -7325.1294 301.4477 -9078.5024 -7325.1294 301.4477 655.4374 729.1870 29777.1170 655.4374 729.1870
ENERGY: 300000 3.3023 9.8682 3.4801 0.0000 -10551.2748 1420.5458 0.0000 0.0000 1746.5440 -7367.5343 300.2736 -9114.0784 -7355.6291 298.5426 14.5446 18.9983 30281.7943 274.3422 306.4170
ENERGY: 600000 2.2922 14.2682 3.1043 0.0000 -10462.0307 1347.0541 0.0000 0.0000 1727.5456 -7367.7663 297.0073 -9095.3119 -7364.6392 299.9971 -833.1328 -727.1624 30458.5225 -39.0331 2.8266
ENERGY: 900000 2.8980 10.3669 3.1886 0.0000 -10599.8472 1401.7387 0.0000 0.0000 1741.4559 -7440.1991 299.3989 -9181.6551 -7381.6967 299.6654 -75.3935 -34.9118 29862.3170 -93.0390 -49.3696
ENERGY: 1200000 1.0690 8.1573 3.0709 0.0000 -10580.9578 1460.1562 0.0000 0.0000 1751.5781 -7356.9264 301.1391 -9108.5045 -7380.5333 298.8179 586.7110 632.3864 29614.8175 -85.1959 -47.1196
ENERGY: 1500000 2.4046 8.6489 2.7029 0.0000 -10481.0496 1365.7636 0.0000 0.0000 1733.9795 -7367.5500 298.1135 -9101.5296 -7385.2355 298.7203 -412.8454 -327.8822 29955.2457 -169.6188 -124.5682
TCL: Running FEP window   7: Lambda1 0.6999999999999997 Lambda2 0.6499999999999997 [dLambda -0.050000000000000044]
TCL: Setting parameter firsttimestep to 0
TCL: Setting parameter alchLambda to 0.6999999999999997
Info: NONBONDED TABLE R-SQUARED SPACING: 0.0625
Info: NONBONDED TABLE SIZE: 705 POINTS
TCL: Setting parameter alchLambda2 to 0.6499999999999997
Info: NONBONDED TABLE R-SQUARED SPACING: 0.0625
Info: NONBONDED TABLE SIZE: 705 POINTS
TCL: Running for 1500000 steps
ETITLE: TS BOND ANGLE DIHED IMPRP ELECT VDW BOUNDARY MISC KINETIC TOTAL TEMP POTENTIAL TOTALAVG TEMPAVG PRESSURE GPRESSURE VOLUME PRESSAVG GPRESSAVG
ENERGY: 0 2.4046 8.6489 2.7029 0.0000 -10480.1741 1366.0611 0.0000 0.0000 1733.1503 -7367.2063 297.9709 -9100.3566 -7367.2063 297.9709 -429.2897 -331.8311 29955.2457 -429.2897 -331.8311
ENERGY: 300000 2.7432 8.8672 5.2594 0.0000 -10459.9846 1348.3576 0.0000 0.0000 1667.2959 -7427.4613 286.6489 -9094.7572 -7385.3058 295.5578 -554.0280 -553.0718 30414.2339 51.8691 99.8405
ENERGY: 600000 4.5760 8.3141 4.7826 0.0000 -10529.7874 1395.1899 0.0000 0.0000 1760.1897 -7356.7351 302.6197 -9116.9248 -7370.7617 297.8347 -278.9654 -307.1761 30162.5743 -47.5848 -5.3082
ENERGY: 900000 6.3791 11.1724 3.2847 0.0000 -10402.8306 1297.3852 0.0000 0.0000 1744.1216 -7340.4877 299.8572 -9084.6093 -7369.8721 298.1672 -939.8599 -877.1418 29797.9490 21.3499 76.0009
ENERGY: 1200000 2.7319 7.9443 4.8134 0.0000 -10532.3249 1402.0146 0.0000 0.0000 1711.0216 -7403.7991 294.1665 -9114.8207 -7376.1830 297.0425 71.7651 129.4184 29574.6680 16.5323 66.3960
ENERGY: 1500000 3.8420 8.6184 2.6514 0.0000 -10614.9847 1458.2919 0.0000 0.0000 1778.5702 -7363.0108 305.7797 -9141.5810 -7378.6676 297.5797 408.7565 457.1578 29700.1650 58.6152 106.5713
TCL: Running FEP window   8: Lambda1 0.6499999999999997 Lambda2 0.5999999999999996 [dLambda -0.050000000000000044]
TCL: Setting parameter firsttimestep to 0
TCL: Setting parameter alchLambda to 0.6499999999999997
Info: NONBONDED TABLE R-SQUARED SPACING: 0.0625
Info: NONBONDED TABLE SIZE: 705 POINTS
TCL: Setting parameter alchLambda2 to 0.5999999999999996
Info: NONBONDED TABLE R-SQUARED SPACING: 0.0625
Info: NONBONDED TABLE SIZE: 705 POINTS
TCL: Running for 1500000 steps
ETITLE: TS BOND ANGLE DIHED IMPRP ELECT VDW BOUNDARY MISC KINETIC TOTAL TEMP POTENTIAL TOTALAVG TEMPAVG PRESSURE GPRESSURE VOLUME PRESSAVG GPRESSAVG
ENERGY: 0 3.8420 8.6184 2.6514 0.0000 -10614.8336 1458.8901 0.0000 0.0000 1777.6842 -7363.1474 305.6274 -9140.8317 -7363.1474 305.6274 358.1069 455.7204 29700.1650 358.1069 455.7204
ENERGY: 300000 9.4995 13.1994 2.1495 0.0000 -10596.8903 1474.2492 0.0000 0.0000 1761.5116 -7336.2811 302.8469 -9097.7927 -7377.9990 301.4964 375.5209 494.6559 29594.0855 69.2415 138.6054
ENERGY: 600000 2.0879 12.5102 1.4652 0.0000 -10546.6989 1453.7307 0.0000 0.0000 1754.6052 -7322.2997 301.6595 -9076.9049 -7370.7389 301.0334 721.9443 807.3883 29686.8777 297.6083 367.1698
ENERGY: 900000 3.2600 10.9895 6.1945 0.0000 -10640.5602 1436.4394 0.0000 0.0000 1724.5229 -7459.1539 296.4877 -9183.6768 -7376.0264 299.7884 -132.0606 -26.8952 29789.9587 134.5180 213.3540
ENERGY: 1200000 4.6879 11.4867 3.9551 0.0000 -10527.8260 1400.9834 0.0000 0.0000 1751.7212 -7354.9917 301.1637 -9106.7128 -7381.2208 299.5604 -99.1229 -94.7462 29894.2292 106.9341 179.1108
ENERGY: 1500000 3.6105 6.9860 3.0957 0.0000 -10441.0020 1349.6808 0.0000 0.0000 1764.6276 -7313.0015 303.3827 -9077.6291 -7373.3837 300.5194 -536.8483 -484.1600 30197.8502 51.4049 121.6501
TCL: Running FEP window   9: Lambda1 0.5999999999999996 Lambda2 0.5499999999999996 [dLambda -0.050000000000000044]
TCL: Setting parameter firsttimestep to 0
TCL: Setting parameter alchLambda to 0.5999999999999996
Info: NONBONDED TABLE R-SQUARED SPACING: 0.0625
Info: NONBONDED TABLE SIZE: 705 POINTS
TCL: Setting parameter alchLambda2 to 0.5499999999999996
Info: NONBONDED TABLE R-SQUARED SPACING: 0.0625
Info: NONBONDED TABLE SIZE: 705 POINTS
TCL: Running for 1500000 steps
ETITLE: TS BOND ANGLE DIHED IMPRP ELECT VDW BOUNDARY MISC KINETIC TOTAL TEMP POTENTIAL TOTALAVG TEMPAVG PRESSURE GPRESSURE VOLUME PRESSAVG GPRESSAVG
ENERGY: 0 3.6105 6.9860 3.0957 0.0000 -10441.0015 1350.3579 0.0000 0.0000 1763.7571 -7313.1943 303.2330 -9076.9514 -7313.1943 303.2330 -565.8093 -486.6781 30197.8502 -565.8093 -486.6781
ENERGY: 300000 2.2512 11.9301 1.6553 0.0000 -10389.4018 1363.0478 0.0000 0.0000 1740.9949 -7269.5224 299.3196 -9010.5174 -7350.8722 299.5100 -26.6377 3.9802 30061.3829 -376.8750 -318.6953
ENERGY: 600000 4.3307 14.7933 3.5697 0.0000 -10471.0071 1394.7334 0.0000 0.0000 1748.1943 -7305.3858 300.5574 -9053.5801 -7357.7159 298.3104 -88.1487 -73.3283 30311.5755 -188.3112 -112.5477
ENERGY: 900000 5.2693 15.5473 2.1931 0.0000 -10466.8119 1399.7474 0.0000 0.0000 1749.1008 -7294.9540 300.7132 -9044.0548 -7346.7663 299.1897 -397.3378 -396.5922 30575.8416 -166.2333 -100.7911
ENERGY: 1200000 1.6382 15.2202 3.2276 0.0000 -10572.8519 1429.2191 0.0000 0.0000 1755.2995 -7368.2474 301.7789 -9123.5468 -7350.0562 299.4740 219.6562 294.0677 29836.0346 -166.4461 -99.3580
ENERGY: 1500000 12.5599 9.7907 4.0857 0.0000 -10508.2055 1391.6201 0.0000 0.0000 1767.8440 -7322.3051 303.9356 -9090.1491 -7340.8420 300.9843 -404.8504 -387.3821 30110.3801 -120.4953 -58.4494
TCL: Running FEP window  10: Lambda1 0.5499999999999996 Lambda2 0.4999999999999996 [dLambda -0.04999999999999999]
TCL: Setting parameter firsttimestep to 0
TCL: Setting parameter alchLambda to 0.5499999999999996
Info: NONBONDED TABLE R-SQUARED SPACING: 0.0625
Info: NONBONDED TABLE SIZE: 705 POINTS
TCL: Setting parameter alchLambda2 to 0.4999999999999996
Info: NONBONDED TABLE R-SQUARED SPACING: 0.0625
Info: NONBONDED TABLE SIZE: 705 POINTS
TCL: Running for 1500000 steps
ETITLE: TS BOND ANGLE DIHED IMPRP ELECT VDW BOUNDARY MISC KINETIC TOTAL TEMP POTENTIAL TOTALAVG TEMPAVG PRESSURE GPRESSURE VOLUME PRESSAVG GPRESSAVG
ENERGY: 0 12.5599 9.7907 4.0857 0.0000 -10508.1919 1391.6370 0.0000 0.0000 1767.0131 -7323.1055 303.7928 -9090.1186 -7323.1055 303.7928 -468.5404 -395.8039 30110.3801 -468.5404 -395.8039
ENERGY: 300000 1.9243 9.5839 4.8742 0.0000 -10495.8023 1459.9490 0.0000 0.0000 1753.7978 -7265.6732 301.5207 -9019.4710 -7357.1633 301.7128 552.4052 587.6027 29903.5317 30.5181 91.4566
ENERGY: 600000 4.6320 6.7128 4.7291 0.0000 -10579.0927 1405.3616 0.0000 0.0000 1774.5171 -7383.1400 305.0829 -9157.6572 -7368.9046 302.5591 -401.6512 -317.1573 30263.6922 -178.1567 -114.9594
ENERGY: 900000 4.3018 6.8912 3.4726 0.0000 -10463.8400 1375.7997 0.0000 0.0000 1727.1089 -7346.2658 296.9323 -9073.3747 -7366.0086 300.2998 -685.1151 -653.0863 30885.3660 -224.8239 -162.5843
ENERGY: 1200000 3.0338 7.2793 2.5093 0.0000 -10612.8875 1464.3792 0.0000 0.0000 1795.4944 -7340.1914 308.6894 -9135.6859 -7375.5047 300.5590 560.1519 614.0519 29972.4127 -182.2705 -118.3712
ENERGY: 1500000 3.4708 10.2864 2.6346 0.0000 -10556.4166 1452.8335 0.0000 0.0000 1711.2418 -7375.9495 294.2043 -9087.1913 -7373.4788 300.8143 12.7734 106.7411 30775.4317 -161.4142 -95.6588
TCL: Running FEP window  11: Lambda1 0.4999999999999996 Lambda2 0.4499999999999996 [dLambda -0.04999999999999999]
TCL: Setting parameter firsttimestep to 0
TCL: Setting parameter alchLambda to 0.4999999999999996
Info: NONBONDED TABLE R-SQUARED SPACING: 0.0625
Info: NONBONDED TABLE SIZE: 705 POINTS
TCL: Setting parameter alchLambda2 to 0.4499999999999996
Info: NONBONDED TABLE R-SQUARED SPACING: 0.0625
Info: NONBONDED TABLE SIZE: 705 POINTS
TCL: Running for 1500000 steps
ETITLE: TS BOND ANGLE DIHED IMPRP ELECT VDW BOUNDARY MISC KINETIC TOTAL TEMP POTENTIAL TOTALAVG TEMPAVG PRESSURE GPRESSURE VOLUME PRESSAVG GPRESSAVG
ENERGY: 0 3.4708 10.2864 2.6346 0.0000 -10556.3434 1453.1149 0.0000 0.0000 1710.3537 -7376.4829 294.0516 -9086.8366 -7376.4829 294.0516 11.0674 103.5650 30775.4317 11.0674 103.5650
ENERGY: 300000 3.7894 13.6422 5.1848 0.0000 -10571.2535 1475.4442 0.0000 0.0000 1756.4896 -7316.7034 301.9835 -9073.1930 -7370.3860 299.2611 397.4241 448.2144 30124.1892 116.2924 186.0234
ENERGY: 600000 10.4677 9.7007 3.6227 0.0000 -10634.6237 1438.6981 0.0000 0.0000 1728.9464 -7443.1882 297.2482 -9172.1345 -7393.0876 298.3815 11.8072 75.0347 29604.9288 -53.4385 -2.8255
ENERGY: 900000 2.8675 8.3335 5.1145 0.0000 -10410.0403 1373.7761 0.0000 0.0000 1794.3824 -7225.5663 308.4982 -9019.9487 -7373.6932 300.0166 -77.1532 29.3184 29860.5841 45.4118 98.8325
ENERGY: 1200000 1.8849 8.2809 5.3058 0.0000 -10435.3380 1319.4027 0.0000 0.0000 1725.4595 -7375.0042 296.6487 -9100.4637 -7378.4441 299.7094 -958.2991 -904.2811 30436.6300 -109.1252 -55.1681
ENERGY: 1500000 3.9143 12.7857 3.3531 0.0000 -10546.3248 1415.8966 0.0000 0.0000 1761.0258 -7349.3493 302.7634 -9110.3751 -7370.3841 300.0015 -275.9624 -294.9154 30603.3022 -85.2677 -37.7848
TCL: Running FEP window  12: Lambda1 0.4499999999999996 Lambda2 0.39999999999999963 [dLambda -0.04999999999999999]
TCL: Setting parameter firsttimestep to 0
TCL: Setting parameter alchLambda to 0.4499999999999996
Info: NONBONDED TABLE R-SQUARED SPACING: 0.0625
Info: NONBONDED TABLE SIZE: 705 POINTS
TCL: Setting parameter alchLambda2 to 0.39999999999999963
Info: NONBONDED TABLE R-SQUARED SPACING: 0.0625
Info: NONBONDED TABLE SIZE: 705 POINTS
TCL: Running for 1500000 steps
ETITLE: TS BOND ANGLE DIHED IMPRP ELECT VDW BOUNDARY MISC KINETIC TOTAL TEMP POTENTIAL TOTALAVG TEMPAVG PRESSURE GPRESSURE VOLUME PRESSAVG GPRESSAVG
ENERGY: 0 3.9143 12.7857 3.3531 0.0000 -10546.3238 1416.6023 0.0000 0.0000 1760.1233 -7349.5452 302.6082 -9109.6685 -7349.5452 302.6082 -369.0012 -293.8041 30603.3022 -369.0012 -293.8041
ENERGY: 300000 4.3383 13.0844 3.0750 0.0000 -10680.5111 1512.5117 0.0000 0.0000 1787.2192 -7360.2826 307.2667 -9147.5018 -7374.8075 301.9325 797.2256 901.0118 29516.3291 1.9933 64.6435
ENERGY: 600000 5.1642 8.9343 3.9747 0.0000 -10419.8758 1341.3799 0.0000 0.0000 1723.6963 -7336.7264 296.3456 -9060.4227 -7349.1790 301.8634 -525.8701 -485.2135 29754.8201 -169.4713 -116.0832
ENERGY: 900000 3.3799 8.2369 6.0118 0.0000 -10662.0223 1461.9417 0.0000 0.0000 1700.6735 -7481.7786 292.3874 -9182.4520 -7360.2616 301.3346 126.7020 142.0377 29884.4747 -42.1209 13.3857
ENERGY: 1200000 4.2701 7.7075 3.1818 0.0000 -10540.5634 1410.6335 0.0000 0.0000 1717.5447 -7397.2258 295.2879 -9114.7705 -7365.7355 300.6835 -337.7148 -215.8745 30238.0306 -44.5675 15.0660
ENERGY: 1500000 5.2983 13.5422 2.8062 0.0000 -10485.9990 1347.8292 0.0000 0.0000 1713.2470 -7403.2761 294.5491 -9116.5231 -7371.1765 299.7839 -513.2178 -533.6899 30214.1077 -97.6338 -44.0992
TCL: Running FEP window  13: Lambda1 0.39999999999999963 Lambda2 0.34999999999999964 [dLambda -0.04999999999999999]
TCL: Setting parameter firsttimestep to 0
TCL: Setting parameter alchLambda to 0.39999999999999963
Info: NONBONDED TABLE R-SQUARED SPACING: 0.0625
Info: NONBONDED TABLE SIZE: 705 POINTS
TCL: Setting parameter alchLambda2 to 0.34999999999999964
Info: NONBONDED TABLE R-SQUARED SPACING: 0.0625
Info: NONBONDED TABLE SIZE: 705 POINTS
TCL: Running for 1500000 steps
ETITLE: TS BOND ANGLE DIHED IMPRP ELECT VDW BOUNDARY MISC KINETIC TOTAL TEMP POTENTIAL TOTALAVG TEMPAVG PRESSURE GPRESSURE VOLUME PRESSAVG GPRESSAVG
ENERGY: 0 5.2983 13.5422 2.8062 0.0000 -10485.9984 1347.9626 0.0000 0.0000 1712.3450 -7404.0441 294.3940 -9116.3890 -7404.0441 294.3940 -629.5983 -540.7199 30214.1077 -629.5983 -540.7199
ENERGY: 300000 6.0855 7.5244 2.6601 0.0000 -10597.9834 1438.0213 0.0000 0.0000 1770.5700 -7373.1221 304.4043 -9143.6921 -7402.9322 297.2188 179.3817 185.4517 30031.7767 -179.4465 -117.6035
ENERGY: 600000 3.5833 13.0376 2.5532 0.0000 -10673.9422 1532.0616 0.0000 0.0000 1751.8937 -7370.8128 301.1934 -9122.7065 -7383.9890 296.9785 1020.7282 1095.2727 29405.3692 -32.0791 26.9368
ENERGY: 900000 1.2304 8.2996 2.8093 0.0000 -10657.4085 1520.9290 0.0000 0.0000 1697.1139 -7427.0264 291.7754 -9124.1403 -7386.2397 297.0069 774.2086 814.5493 29934.7418 103.3331 163.0770
ENERGY: 1200000 1.9985 8.5136 2.0776 0.0000 -10633.6373 1497.2776 0.0000 0.0000 1737.6553 -7386.1147 298.7454 -9123.7700 -7382.5137 297.6027 548.5598 622.8614 29629.5023 39.9722 102.5105
ENERGY: 1500000 4.9374 9.1454 3.8212 0.0000 -10506.4125 1429.3866 0.0000 0.0000 1724.2272 -7334.8948 296.4368 -9059.1220 -7373.6248 299.0236 117.9836 169.5690 30129.4926 -9.4114 48.6112
TCL: Running FEP window  14: Lambda1 0.34999999999999964 Lambda2 0.29999999999999966 [dLambda -0.04999999999999999]
TCL: Setting parameter firsttimestep to 0
TCL: Setting parameter alchLambda to 0.34999999999999964
Info: NONBONDED TABLE R-SQUARED SPACING: 0.0625
Info: NONBONDED TABLE SIZE: 705 POINTS
TCL: Setting parameter alchLambda2 to 0.29999999999999966
Info: NONBONDED TABLE R-SQUARED SPACING: 0.0625
Info: NONBONDED TABLE SIZE: 705 POINTS
TCL: Running for 1500000 steps
ETITLE: TS BOND ANGLE DIHED IMPRP ELECT VDW BOUNDARY MISC KINETIC TOTAL TEMP POTENTIAL TOTALAVG TEMPAVG PRESSURE GPRESSURE VOLUME PRESSAVG GPRESSAVG
ENERGY: 0 4.9374 9.1454 3.8212 0.0000 -10506.4125 1429.8004 0.0000 0.0000 1723.3260 -7335.3820 296.2819 -9058.7080 -7335.3820 296.2819 86.9026 167.3829 30129.4926 86.9026 167.3829
ENERGY: 300000 1.4900 10.2508 2.0350 0.0000 -10534.3985 1458.0693 0.0000 0.0000 1813.7650 -7248.7885 311.8306 -9062.5534 -7346.0461 304.5031 567.4686 548.0025 30254.8009 -205.8810 -188.9089
ENERGY: 600000 4.3653 8.7395 4.1592 0.0000 -10504.7000 1372.7325 0.0000 0.0000 1738.4459 -7376.2577 298.8814 -9114.7035 -7364.5972 300.8183 -518.2896 -462.0647 29799.1765 -246.6967 -216.4052
ENERGY: 900000 6.0468 6.3577 4.4063 0.0000 -10510.6436 1444.6116 0.0000 0.0000 1788.1757 -7261.0454 307.4311 -9049.2212 -7357.7582 301.0943 296.3980 372.9335 29876.4688 -233.8812 -198.7857
ENERGY: 1200000 3.5853 10.2216 1.7572 0.0000 -10523.5362 1381.1888 0.0000 0.0000 1704.8313 -7421.9521 293.1022 -9126.7834 -7351.4575 301.5716 -263.2453 -218.3632 29799.1418 -230.3875 -194.1920
ENERGY: 1500000 3.3889 8.6294 2.0147 0.0000 -10605.3680 1438.1890 0.0000 0.0000 1709.8220 -7443.3240 293.9602 -9153.1460 -7355.2633 301.6365 49.6014 96.5376 29752.9387 -231.1106 -195.2173
TCL: Running FEP window  15: Lambda1 0.29999999999999966 Lambda2 0.24999999999999967 [dLambda -0.04999999999999999]
TCL: Setting parameter firsttimestep to 0
TCL: Setting parameter alchLambda to 0.29999999999999966
Info: NONBONDED TABLE R-SQUARED SPACING: 0.0625
Info: NONBONDED TABLE SIZE: 705 POINTS
TCL: Setting parameter alchLambda2 to 0.24999999999999967
Info: NONBONDED TABLE R-SQUARED SPACING: 0.0625
Info: NONBONDED TABLE SIZE: 705 POINTS
TCL: Running for 1500000 steps
ETITLE: TS BOND ANGLE DIHED IMPRP ELECT VDW BOUNDARY MISC KINETIC TOTAL TEMP POTENTIAL TOTALAVG TEMPAVG PRESSURE GPRESSURE VOLUME PRESSAVG GPRESSAVG
ENERGY: 0 3.3889 8.6294 2.0147 0.0000 -10605.3696 1438.2343 0.0000 0.0000 1708.9514 -7444.1509 293.8105 -9153.1023 -7444.1509 293.8105 20.7067 95.1919 29752.9387 20.7067 95.1919
ENERGY: 300000 2.6523 7.1808 0.8465 0.0000 -10585.4895 1461.2183 0.0000 0.0000 1730.7778 -7382.8139 297.5630 -9113.5917 -7340.8201 300.0868 267.5295 361.5456 29701.6893 -252.9902 -175.0952
ENERGY: 600000 5.5375 9.2072 0.9958 0.0000 -10539.4304 1371.1035 0.0000 0.0000 1721.5692 -7431.0172 295.9799 -9152.5864 -7354.8644 298.9368 -884.3173 -903.7029 30362.2812 -399.2683 -340.5988
ENERGY: 900000 6.1605 9.5141 6.1065 0.0000 -10566.7894 1380.8241 0.0000 0.0000 1763.1828 -7401.0013 303.1342 -9164.1841 -7356.9404 299.8331 -134.6236 -137.8591 29785.1180 -396.7698 -347.3259
ENERGY: 1200000 4.0812 11.4249 4.1197 0.0000 -10531.8641 1408.5328 0.0000 0.0000 1758.2798 -7345.4258 302.2913 -9103.7056 -7352.0098 299.5547 -284.1828 -220.8122 30146.6619 -348.4586 -293.0358
ENERGY: 1500000 6.6056 8.7566 2.8047 0.0000 -10386.0594 1369.9377 0.0000 0.0000 1735.6011 -7262.3536 298.3923 -8997.9547 -7342.5153 299.5501 -223.6241 -159.6548 30147.8656 -267.4315 -211.7641
TCL: Running FEP window  16: Lambda1 0.24999999999999967 Lambda2 0.19999999999999968 [dLambda -0.04999999999999999]
TCL: Setting parameter firsttimestep to 0
TCL: Setting parameter alchLambda to 0.24999999999999967
Info: NONBONDED TABLE R-SQUARED SPACING: 0.0625
Info: NONBONDED TABLE SIZE: 705 POINTS
TCL: Setting parameter alchLambda2 to 0.19999999999999968
Info: NONBONDED TABLE R-SQUARED SPACING: 0.0625
Info: NONBONDED TABLE SIZE: 705 POINTS
TCL: Running for 1500000 steps
ETITLE: TS BOND ANGLE DIHED IMPRP ELECT VDW BOUNDARY MISC KINETIC TOTAL TEMP POTENTIAL TOTALAVG TEMPAVG PRESSURE GPRESSURE VOLUME PRESSAVG GPRESSAVG
ENERGY: 0 6.6056 8.7566 2.8047 0.0000 -10386.0597 1370.1276 0.0000 0.0000 1734.7126 -7263.0525 298.2395 -8997.7651 -7263.0525 298.2395 -231.2288 -161.2104 30147.8656 -231.2288 -161.2104
ENERGY: 300000 4.8080 12.1546 1.7480 0.0000 -10489.2210 1444.0313 0.0000 0.0000 1776.3943 -7250.0847 305.4056 -9026.4790 -7330.5518 299.6987 8.0610 2.9207 30736.4488 34.4610 78.0962
ENERGY: 600000 7.5477 9.7825 2.6218 0.0000 -10650.5135 1474.2577 0.0000 0.0000 1739.3036 -7417.0001 299.0288 -9156.3037 -7355.0783 297.7804 189.8793 274.4401 29616.6685 15.5157 64.6574
ENERGY: 900000 3.2850 7.5171 5.4034 0.0000 -10548.0415 1453.4563 0.0000 0.0000 1689.4145 -7388.9652 290.4517 -9078.3797 -7345.1551 299.6151 28.0254 127.0014 30156.0210 -91.8715 -39.1707
ENERGY: 1200000 4.6696 6.8681 1.8168 0.0000 -10563.1740 1458.8482 0.0000 0.0000 1735.3390 -7355.6322 298.3472 -9090.9712 -7347.3227 299.4477 281.6330 295.7676 30173.7248 -77.2584 -24.5118
ENERGY: 1500000 4.1019 10.1218 2.7037 0.0000 -10472.6451 1393.9919 0.0000 0.0000 1782.4652 -7279.2605 306.4494 -9061.7257 -7342.9690 300.5773 57.4703 90.3866 29775.2316 -86.8064 -32.5598
TCL: Running FEP window  17: Lambda1 0.19999999999999968 Lambda2 0.1499999999999997 [dLambda -0.04999999999999999]
TCL: Setting parameter firsttimestep to 0
TCL: Setting parameter alchLambda to 0.19999999999999968
Info: NONBONDED TABLE R-SQUARED SPACING: 0.0625
Info: NONBONDED TABLE SIZE: 705 POINTS
TCL: Setting parameter alchLambda2 to 0.1499999999999997
Info: NONBONDED TABLE R-SQUARED SPACING: 0.0625
Info: NONBONDED TABLE SIZE: 705 POINTS
TCL: Running for 1500000 steps
ETITLE: TS BOND ANGLE DIHED IMPRP ELECT VDW BOUNDARY MISC KINETIC TOTAL TEMP POTENTIAL TOTALAVG TEMPAVG PRESSURE GPRESSURE VOLUME PRESSAVG GPRESSAVG
ENERGY: 0 4.1019 10.1218 2.7037 0.0000 -10472.6447 1394.4323 0.0000 0.0000 1781.5764 -7279.7085 306.2966 -9061.2849 -7279.7085 306.2966 7.1694 92.7153 29775.2316 7.1694 92.7153
ENERGY: 300000 3.3905 9.3838 1.4783 0.0000 -10528.6205 1454.0141 0.0000 0.0000 1785.3147 -7275.0393 306.9393 -9060.3540 -7308.9617 301.7747 335.6652 381.0834 30134.5740 151.8140 232.6540
ENERGY: 600000 3.7421 11.2111 2.8967 0.0000 -10475.2420 1365.8305 0.0000 0.0000 1769.3291 -7322.2324 304.1909 -9091.5615 -7327.4705 300.6303 -529.0637 -496.1380 30375.3477 32.1881 108.1372
ENERGY: 900000 3.5541 11.5894 5.9743 0.0000 -10522.4609 1406.3487 0.0000 0.0000 1699.4978 -7395.4965 292.1852 -9094.9944 -7341.5649 299.6896 -134.0316 -6.1024 29733.3686 -48.9278 27.9704
ENERGY: 1200000 2.4781 12.1523 2.7902 0.0000 -10561.4467 1439.6035 0.0000 0.0000 1808.7526 -7295.6699 310.9688 -9104.4226 -7331.3801 302.4242 236.3305 263.4829 29615.4604 -7.5982 68.5331
ENERGY: 1500000 7.0044 9.0256 1.5007 0.0000 -10515.2316 1355.5882 0.0000 0.0000 1741.6282 -7400.4845 299.4285 -9142.1127 -7349.8128 300.9266 -704.2349 -650.7977 29985.5270 -94.8769 -24.8175
TCL: Running FEP window  18: Lambda1 0.1499999999999997 Lambda2 0.09999999999999969 [dLambda -0.05 ]
TCL: Setting parameter firsttimestep to 0
TCL: Setting parameter alchLambda to 0.1499999999999997
Info: NONBONDED TABLE R-SQUARED SPACING: 0.0625
Info: NONBONDED TABLE SIZE: 705 POINTS
TCL: Setting parameter alchLambda2 to 0.09999999999999969
Info: NONBONDED TABLE R-SQUARED SPACING: 0.0625
Info: NONBONDED TABLE SIZE: 705 POINTS
TCL: Running for 1500000 steps
ETITLE: TS BOND ANGLE DIHED IMPRP ELECT VDW BOUNDARY MISC KINETIC TOTAL TEMP POTENTIAL TOTALAVG TEMPAVG PRESSURE GPRESSURE VOLUME PRESSAVG GPRESSAVG
ENERGY: 0 7.0044 9.0256 1.5007 0.0000 -10515.2317 1355.7188 0.0000 0.0000 1740.7778 -7401.2043 299.2823 -9141.9821 -7401.2043 299.2823 -755.0319 -653.4356 29985.5270 -755.0319 -653.4356
ENERGY: 300000 6.3814 12.9180 3.1644 0.0000 -10461.7837 1349.4944 0.0000 0.0000 1710.9508 -7378.8748 294.1543 -9089.8256 -7364.8073 296.4139 -673.8013 -617.3171 30231.3044 -721.1958 -652.9116
ENERGY: 600000 4.8950 6.9659 2.8727 0.0000 -10564.5548 1468.1072 0.0000 0.0000 1775.7423 -7305.9718 305.2935 -9081.7141 -7345.1800 298.8631 365.8515 440.5644 29613.2110 -277.4558 -200.9338
ENERGY: 900000 6.0311 6.4947 2.8971 0.0000 -10629.7706 1457.4541 0.0000 0.0000 1679.5044 -7477.3892 288.7479 -9156.8936 -7365.4898 298.4248 141.1299 219.7165 29413.0657 -207.4119 -135.9929
ENERGY: 1200000 13.5949 10.7199 2.5310 0.0000 -10381.8356 1337.3202 0.0000 0.0000 1785.8083 -7231.8613 307.0241 -9017.6697 -7361.5569 299.2428 -914.0087 -862.9828 30164.9798 -298.8297 -225.7461
ENERGY: 1500000 5.4299 7.8651 4.2955 0.0000 -10632.0606 1473.7659 0.0000 0.0000 1796.2971 -7344.4070 308.8274 -9140.7041 -7360.7834 299.2763 539.7209 594.9606 29414.6483 -328.5673 -262.6720
TCL: Running FEP window  19: Lambda1 0.09999999999999969 Lambda2 0.049999999999999684 [dLambda -0.05 ]
TCL: Setting parameter firsttimestep to 0
TCL: Setting parameter alchLambda to 0.09999999999999969
Info: NONBONDED TABLE R-SQUARED SPACING: 0.0625
Info: NONBONDED TABLE SIZE: 705 POINTS
TCL: Setting parameter alchLambda2 to 0.049999999999999684
Info: NONBONDED TABLE R-SQUARED SPACING: 0.0625
Info: NONBONDED TABLE SIZE: 705 POINTS
TCL: Running for 1500000 steps
ETITLE: TS BOND ANGLE DIHED IMPRP ELECT VDW BOUNDARY MISC KINETIC TOTAL TEMP POTENTIAL TOTALAVG TEMPAVG PRESSURE GPRESSURE VOLUME PRESSAVG GPRESSAVG
ENERGY: 0 5.4299 7.8651 4.2955 0.0000 -10632.0606 1472.9161 0.0000 0.0000 1795.4396 -7346.1144 308.6800 -9141.5540 -7346.1144 308.6800 514.9055 585.2347 29414.6483 514.9055 585.2347
ENERGY: 300000 8.3112 9.3383 4.4645 0.0000 -10603.0283 1437.1054 0.0000 0.0000 1756.1897 -7387.6193 301.9320 -9143.8090 -7359.9456 303.3324 180.9179 256.6724 29475.8019 161.2521 253.8225
ENERGY: 600000 2.4707 10.9875 4.6862 0.0000 -10608.6613 1452.4654 0.0000 0.0000 1793.2515 -7344.7999 308.3038 -9138.0514 -7370.1732 302.6205 289.7452 274.4537 29796.4580 229.0706 290.3821
ENERGY: 900000 5.1451 8.0203 4.5273 0.0000 -10535.4400 1411.2940 0.0000 0.0000 1811.5368 -7294.9164 311.4475 -9106.4532 -7365.7555 302.6633 -128.2486 -67.8811 29738.6510 102.4249 160.6232
ENERGY: 1200000 4.3144 7.6302 2.7737 0.0000 -10558.8023 1411.5131 0.0000 0.0000 1721.2422 -7411.3287 295.9236 -9132.5709 -7374.0150 301.1183 -238.3879 -205.5117 29923.6264 -2.0923 48.4040
ENERGY: 1500000 4.2895 8.6663 3.2383 0.0000 -10493.3461 1372.1444 0.0000 0.0000 1768.0461 -7336.9614 303.9704 -9105.0075 -7367.7257 301.1163 -335.7887 -229.3118 29679.6168 -25.0684 30.3376
TCL: Running FEP window  20: Lambda1 0.049999999999999684 Lambda2 0.0    [dLambda -0.049999999999999684]
TCL: Setting parameter firsttimestep to 0
TCL: Setting parameter alchLambda to 0.049999999999999684
Info: NONBONDED TABLE R-SQUARED SPACING: 0.0625
Info: NONBONDED TABLE SIZE: 705 POINTS
TCL: Setting parameter alchLambda2 to 0.0
Info: NONBONDED TABLE R-SQUARED SPACING: 0.0625
Info: NONBONDED TABLE SIZE: 705 POINTS
TCL: Running for 1500000 steps
ETITLE: TS BOND ANGLE DIHED IMPRP ELECT VDW BOUNDARY MISC KINETIC TOTAL TEMP POTENTIAL TOTALAVG TEMPAVG PRESSURE GPRESSURE VOLUME PRESSAVG GPRESSAVG
ENERGY: 0 4.2895 8.6663 3.2383 0.0000 -10493.3438 1369.5271 0.0000 0.0000 1767.1938 -7340.4289 303.8238 -9107.6226 -7340.4289 303.8238 -313.2307 -235.7987 29679.6168 -313.2307 -235.7987
ENERGY: 300000 2.9182 10.5365 3.1319 0.0000 -10628.8211 1476.6823 0.0000 0.0000 1722.3961 -7413.1561 296.1220 -9135.5521 -7389.4476 298.4685 475.1558 541.6526 29241.7277 -88.9299 -51.8685
ENERGY: 600000 0.8513 10.4291 2.0890 0.0000 -10579.6514 1398.5133 0.0000 0.0000 1784.5789 -7383.1899 306.8128 -9167.7688 -7380.2891 300.8849 -150.4885 -35.5979 29552.1583 -91.4130 -39.2922
ENERGY: 900000 2.1430 8.7855 5.3812 0.0000 -10527.9097 1409.9802 0.0000 0.0000 1713.6275 -7387.9922 294.6145 -9101.6197 -7381.4878 299.8935 -38.3278 5.8643 29660.2186 -24.3766 21.9864
ENERGY: 1200000 5.2576 6.8599 4.1566 0.0000 -10594.8990 1426.0457 0.0000 0.0000 1739.1729 -7413.4063 299.0064 -9152.5791 -7378.2842 299.9885 -126.9493 -55.1677 29639.6913 -0.2884 50.9347
ENERGY: 1500000 3.3117 13.4568 5.0221 0.0000 -10497.3125 1461.5909 0.0000 0.0000 1800.7018 -7213.2292 309.5847 -9013.9310 -7367.0427 301.1996 420.0155 416.2651 30313.8187 8.1169 57.1055
TCL: Exiting due to exit command.
