Info: SIMULATION PARAMETERS:
Info: TIMESTEP               2
Info: NUMBER OF STEPS        0
Info: STEPS PER CYCLE        10
Info: PERIODIC CELL BASIS 1  31.9214 0 0
Info: PERIODIC CELL BASIS 2  0 30.0025 0
Info: PERIODIC CELL BASIS 3  0 0 31.8492
Info: PERIODIC CELL CENTER   0 0 0
Info: WRAPPING WATERS AROUND PERIODIC BOUNDARIES ON OUTPUT.
Info: WRAPPING ALL CLUSTERS AROUND PERIODIC BOUNDARIES ON OUTPUT.
Info: FIRST LDB TIMESTEP     50
Info: LAST LDB TIMESTEP     -1
Info: HOM BACKGROUND SCALING 1
Info: PME BACKGROUND SCALING 1
Info: MIN ATOMS PER PATCH    40
Info: EMPTY PATCH LOAD       40 ATOMS
Info: VELOCITY FILE          mobley_4219614_equil.vel
Info: CENTER OF MASS MOVING INITIALLY? NO
Info: DIELECTRIC             1
Info: EXCLUDE                SCALED ONE-FOUR
Info: 1-4 ELECTROSTATICS SCALED BY 0.833333
Info: MODIFIED 1-4 VDW PARAMETERS WILL BE USED
Info: DCD FILENAME           mobley_4219614_prod.dcd
Info: DCD FREQUENCY          100000
Info: DCD FIRST STEP         100000
Info: DCD FILE WILL CONTAIN UNIT CELL DATA
Info: XST FILENAME           mobley_4219614_prod.xst
Info: XST FREQUENCY          100000
Info: NO VELOCITY DCD OUTPUT
Info: NO FORCE DCD OUTPUT
Info: OUTPUT FILENAME        mobley_4219614_prod
Info: BINARY OUTPUT FILES WILL BE USED
Info: RESTART FILENAME       mobley_4219614_prod.restart
Info: RESTART FREQUENCY      100000
Info: BINARY RESTART FILES WILL BE USED
Info: CUTOFF                 9
Info: PAIRLIST DISTANCE      11
Info: PAIRLIST SHRINK RATE   0.01
Info: PAIRLIST GROW RATE     0.01
Info: PAIRLIST TRIGGER       0.3
Info: PAIRLISTS PER CYCLE    2
Info: PAIRLISTS ENABLED
Info: MARGIN                 2
Info: HYDROGEN GROUP CUTOFF  2.5
Info: PATCH DIMENSION        15.5
Info: ENERGY OUTPUT STEPS    100000
Info: ENERGY EVALUATION STEPS    100000
Info: OUTPUT ENERGY PRECISION 4
Info: CROSSTERM ENERGY INCLUDED IN DIHEDRAL
Info: TIMING OUTPUT STEPS    1000000
Info: PRESSURE OUTPUT STEPS  100000
Info: ALCHEMICAL FEP ON
Info: FEP CURRENT LAMBDA VALUE     0
Info: FEP COMPARISON LAMBDA VALUE  0.05
Info: FEP INTRA-ALCHEMICAL NON-BONDED INTERACTIONS WILL BE RETAINED
Info: FEP INTRA-ALCHEMICAL BONDED INTERACTIONS WILL BE RETAINED
Info: FEP VDW SHIFTING COEFFICIENT 5
Info: FEP ELEC. ACTIVE FOR ANNIHILATED PARTICLES BETWEEN LAMBDA = 0 AND LAMBDA = 0.5
Info: FEP ELEC. ACTIVE FOR EXNIHILATED PARTICLES BETWEEN LAMBDA = 0.5 AND LAMBDA = 1
Info: FEP VDW ACTIVE FOR ANNIHILATED PARTICLES BETWEEN LAMBDA = 0 AND LAMBDA = 1
Info: FEP VDW ACTIVE FOR EXNIHILATED PARTICLES BETWEEN LAMBDA = 0 AND LAMBDA = 1
Info: FEP BOND ACTIVE FOR ANNIHILATED PARTICLES BETWEEN LAMBDA = 1 AND LAMBDA = 1
Info: FEP BOND ACTIVE FOR EXNIHILATED PARTICLES BETWEEN LAMBDA = 0 AND LAMBDA = 0
Info: LANGEVIN DYNAMICS ACTIVE
Info: LANGEVIN TEMPERATURE   300
Info: LANGEVIN USING BBK INTEGRATOR
Info: LANGEVIN DAMPING COEFFICIENT IS 1 INVERSE PS
Info: LANGEVIN DYNAMICS APPLIED TO HYDROGENS
Info: LANGEVIN PISTON PRESSURE CONTROL ACTIVE
Info:        TARGET PRESSURE IS 1.01325 BAR
Info:     OSCILLATION PERIOD IS 50 FS
Info:             DECAY TIME IS 25 FS
Info:     PISTON TEMPERATURE IS 300 K
Info:       PRESSURE CONTROL IS GROUP-BASED
Info:    INITIAL STRAIN RATE IS 0.000246947 0.000246947 0.000246947
Info:       CELL FLUCTUATION IS ISOTROPIC
Info: PARTICLE MESH EWALD (PME) ACTIVE
Info: PME TOLERANCE               1e-06
Info: PME EWALD COEFFICIENT       0.348832
Info: PME INTERPOLATION ORDER     4
Info: PME GRID DIMENSIONS         32 32 32
Info: PME MAXIMUM GRID SPACING    1
Info: PME CALCULATION WILL BE PERFORMED ON GPU
Info: FULL ELECTROSTATIC EVALUATION FREQUENCY      2
Info: USING VERLET I (r-RESPA) MTS SCHEME.
Info: C1 SPLITTING OF LONG RANGE ELECTROSTATICS
Info: PLACING ATOMS IN PATCHES BY HYDROGEN GROUPS
Info: RIGID BONDS TO HYDROGEN : ALL
Info:         ERROR TOLERANCE : 1e-08
Info:          MAX ITERATIONS : 100
Info: RIGID WATER USING SETTLE ALGORITHM
Info: RANDOM NUMBER SEED     1743527017
Info: USE HYDROGEN BONDS?    NO
Info: Using AMBER format force field!
Info: AMBER PARM FILE        mobley_4219614.prmtop
Info: COORDINATE PDB         mobley_4219614.pdb
Info: Exclusions will be read from PARM file!
Info: SCNB (VDW SCALING)     2
Info: USING ARITHMETIC MEAN TO COMBINE L-J SIGMA PARAMETERS
Info: BINARY COORDINATES     mobley_4219614_equil.coor
Info: SUMMARY OF PARAMETERS:
Info: 5 BONDS
Info: 3 ANGLES
Info:   3 HARMONIC
Info:   0 COSINE-BASED
Info: 2 DIHEDRAL
Info: 0 IMPROPER
Info: 0 CROSSTERM
Info: 0 VDW
Info: 15 VDW_PAIRS
Info: 0 NBTHOLE_PAIRS
Info: To read alchdata from file: mobley_4219614.pdb
Info: To read alchflag data from column: 5
Info: STRUCTURE SUMMARY:
Info: 2982 ATOMS
Info: 2982 BONDS
Info: 18 ANGLES
Info: 30 DIHEDRALS
Info: 0 IMPROPERS
Info: 0 CROSSTERMS
Info: 3021 EXCLUSIONS
Info: 2972 RIGID BONDS
Info: ALCH: 0 ATOMS TO DISAPPEAR IN FINAL STATE
Info: ALCH: 12 ATOMS TO APPEAR IN FINAL STATE
Info: 5974 DEGREES OF FREEDOM
Info: 1000 HYDROGEN GROUPS
Info: 3 ATOMS IN LARGEST HYDROGEN GROUP
Info: 1000 MIGRATION GROUPS
Info: 3 ATOMS IN LARGEST MIGRATION GROUP
Info: TOTAL MASS = 18051.7 amu
Info: TOTAL CHARGE = -9.99942e-05 e
Info: MASS DENSITY = 0.982743 g/cm^3
Info: ATOM DENSITY = 0.097762 atoms/A^3
Info: ADDED 0 IMPLICIT EXCLUSIONS
Info: NONBONDED TABLE R-SQUARED SPACING: 0.0625
Info: NONBONDED TABLE SIZE: 705 POINTS
Info: REMOVING COM VELOCITY 0.188489 0.0308515 0.121628
Info: Use 3D box decompostion in PME FFT.
Info: Updated CUDA force table with 4096 elements.
Info: Updated CUDA LJ table with 5 x 5 elements.
Info: Found 15 unique exclusion lists needing 28 bytes
TCL: Running for 1500000 steps
ETITLE: TS BOND ANGLE DIHED IMPRP ELECT VDW BOUNDARY MISC KINETIC TOTAL TEMP POTENTIAL TOTALAVG TEMPAVG PRESSURE GPRESSURE VOLUME PRESSAVG GPRESSAVG
ENERGY: 0 4.1303 2.2015 1.7264 0.0000 -10901.8675 1486.4614 0.0000 0.0000 1782.8822 -7624.4657 300.3640 -9407.3479 -7624.4657 300.3640 75.8881 159.4749 30502.6625 75.8881 159.4749
ENERGY: 300000 5.0526 2.8046 3.1518 0.0000 -10742.1220 1443.8847 0.0000 0.0000 1845.1619 -7442.0665 310.8563 -9287.2284 -7531.8763 302.0654 74.1270 159.0144 30905.3557 -35.2467 35.4748
ENERGY: 600000 1.3193 1.5523 2.0053 0.0000 -10757.5449 1415.6540 0.0000 0.0000 1803.6972 -7533.3168 303.8707 -9337.0140 -7552.5416 301.5907 -334.1599 -262.2489 30685.0130 -83.4796 -4.6010
ENERGY: 900000 4.9299 3.2804 1.5691 0.0000 -10645.0555 1355.0630 0.0000 0.0000 1739.0232 -7541.1898 292.9750 -9280.2131 -7559.0962 300.6316 -657.1989 -651.3471 30535.8494 -142.7377 -76.5803
ENERGY: 1200000 3.0957 3.1750 1.2813 0.0000 -10825.7974 1432.1252 0.0000 0.0000 1799.6449 -7586.4754 303.1880 -9386.1203 -7562.3249 300.6148 -452.3454 -402.6782 30630.0339 -105.4408 -42.3899
ENERGY: 1500000 3.1525 1.4644 1.7442 0.0000 -10895.1390 1515.9683 0.0000 0.0000 1794.9904 -7577.8192 302.4038 -9372.8096 -7565.0316 300.2296 580.3487 592.1944 30387.3946 -97.5050 -38.9817
TCL: Running FEP window   2: Lambda1 0.05   Lambda2 0.1    [dLambda 0.05  ]
TCL: Setting parameter firsttimestep to 0
TCL: Setting parameter alchLambda to 0.05
Info: NONBONDED TABLE R-SQUARED SPACING: 0.0625
Info: NONBONDED TABLE SIZE: 705 POINTS
TCL: Setting parameter alchLambda2 to 0.1
Info: NONBONDED TABLE R-SQUARED SPACING: 0.0625
Info: NONBONDED TABLE SIZE: 705 POINTS
TCL: Running for 1500000 steps
ETITLE: TS BOND ANGLE DIHED IMPRP ELECT VDW BOUNDARY MISC KINETIC TOTAL TEMP POTENTIAL TOTALAVG TEMPAVG PRESSURE GPRESSURE VOLUME PRESSAVG GPRESSAVG
ENERGY: 0 3.1525 1.4644 1.7442 0.0000 -10895.1393 1518.2714 0.0000 0.0000 1794.1146 -7576.3923 302.2563 -9370.5069 -7576.3923 302.2563 529.9009 599.8869 30387.3946 529.9009 599.8869
ENERGY: 300000 3.0348 2.7993 1.8436 0.0000 -10846.1177 1432.4741 0.0000 0.0000 1767.1576 -7638.8083 297.7148 -9405.9659 -7583.6131 300.9605 -225.1679 -179.4379 30350.5341 -18.4533 50.5909
ENERGY: 600000 6.7203 3.2218 1.6580 0.0000 -10823.3611 1470.1684 0.0000 0.0000 1798.1136 -7543.4791 302.9300 -9341.5927 -7567.6603 300.9381 334.4434 414.4582 30410.8105 12.4696 78.6958
ENERGY: 900000 4.0688 2.4014 3.9140 0.0000 -10788.7971 1446.9038 0.0000 0.0000 1772.0549 -7559.4542 298.5399 -9331.5091 -7556.6356 301.1876 -191.2186 -131.4565 30552.7657 -3.4036 59.9954
ENERGY: 1200000 3.7704 1.2561 1.7161 0.0000 -10801.1752 1437.6106 0.0000 0.0000 1763.3090 -7593.5128 297.0664 -9356.8219 -7564.4681 300.9609 -568.4809 -482.3216 30851.0310 -121.0844 -56.5452
ENERGY: 1500000 1.9373 1.5898 2.5141 0.0000 -10792.2486 1412.7515 0.0000 0.0000 1785.8048 -7587.6511 300.8563 -9373.4559 -7557.2227 301.8738 -595.8454 -461.5791 30780.1688 -80.1434 -12.0032
TCL: Running FEP window   3: Lambda1 0.1    Lambda2 0.15000000000000002 [dLambda 0.05000000000000002]
TCL: Setting parameter firsttimestep to 0
TCL: Setting parameter alchLambda to 0.1
Info: NONBONDED TABLE R-SQUARED SPACING: 0.0625
Info: NONBONDED TABLE SIZE: 705 POINTS
TCL: Setting parameter alchLambda2 to 0.15000000000000002
Info: NONBONDED TABLE R-SQUARED SPACING: 0.0625
Info: NONBONDED TABLE SIZE: 705 POINTS
TCL: Running for 1500000 steps
ETITLE: TS BOND ANGLE DIHED IMPRP ELECT VDW BOUNDARY MISC KINETIC TOTAL TEMP POTENTIAL TOTALAVG TEMPAVG PRESSURE GPRESSURE VOLUME PRESSAVG GPRESSAVG
ENERGY: 0 1.9374 1.5898 2.5141 0.0000 -10792.2506 1413.4123 0.0000 0.0000 1784.9701 -7587.8270 300.7157 -9372.7971 -7587.8270 300.7157 -543.8862 -456.7068 30780.1688 -543.8862 -456.7068
ENERGY: 300000 5.1173 1.7910 3.4416 0.0000 -10701.4990 1360.4639 0.0000 0.0000 1826.9137 -7503.7715 307.7820 -9330.6852 -7549.3561 300.1202 -688.8163 -605.1148 30822.1116 -263.2963 -194.5375
ENERGY: 600000 2.7730 2.5203 2.2412 0.0000 -10953.4831 1560.6486 0.0000 0.0000 1846.1198 -7539.1803 311.0177 -9385.3002 -7565.0403 300.3849 990.5313 954.7176 30249.1653 38.7794 101.0428
ENERGY: 900000 2.8537 2.0760 1.1085 0.0000 -11010.0778 1562.0872 0.0000 0.0000 1806.6217 -7635.3307 304.3634 -9441.9524 -7566.7169 301.3418 444.7711 495.5145 30455.8409 45.7250 95.4616
ENERGY: 1200000 4.5275 4.1222 2.8890 0.0000 -10757.1908 1463.9649 0.0000 0.0000 1776.5322 -7505.1550 299.2942 -9281.6871 -7569.4529 300.6586 134.0946 164.3062 30730.5491 78.7504 128.0316
ENERGY: 1500000 2.7045 1.8746 2.5653 0.0000 -10819.5841 1417.8285 0.0000 0.0000 1763.0524 -7631.5588 297.0232 -9394.6112 -7579.3771 300.0404 -518.6606 -407.4304 30746.6172 15.8852 71.7693
TCL: Running FEP window   4: Lambda1 0.15000000000000002 Lambda2 0.2    [dLambda 0.04999999999999999]
TCL: Setting parameter firsttimestep to 0
TCL: Setting parameter alchLambda to 0.15000000000000002
Info: NONBONDED TABLE R-SQUARED SPACING: 0.0625
Info: NONBONDED TABLE SIZE: 705 POINTS
TCL: Setting parameter alchLambda2 to 0.2
Info: NONBONDED TABLE R-SQUARED SPACING: 0.0625
Info: NONBONDED TABLE SIZE: 705 POINTS
TCL: Running for 1500000 steps
ETITLE: TS BOND ANGLE DIHED IMPRP ELECT VDW BOUNDARY MISC KINETIC TOTAL TEMP POTENTIAL TOTALAVG TEMPAVG PRESSURE GPRESSURE VOLUME PRESSAVG GPRESSAVG
ENERGY: 0 2.7045 1.8746 2.5653 0.0000 -10819.5827 1420.3582 0.0000 0.0000 1762.2141 -7629.8661 296.8820 -9392.0802 -7629.8661 296.8820 -470.2684 -391.5600 30746.6172 -470.2684 -391.5600
ENERGY: 300000 5.9030 3.9951 2.3022 0.0000 -10940.7717 1478.6441 0.0000 0.0000 1725.2068 -7724.7204 290.6473 -9449.9273 -7618.6031 297.3252 135.1186 193.1664 29921.9555 -289.6132 -248.5941
ENERGY: 600000 4.2678 3.3405 1.6888 0.0000 -10797.3184 1461.1210 0.0000 0.0000 1812.7829 -7514.1174 305.4014 -9326.9003 -7590.2439 299.2387 199.4928 269.6030 30411.6367 -37.8442 5.0721
ENERGY: 900000 2.4331 0.7476 3.4137 0.0000 -10833.3872 1454.2650 0.0000 0.0000 1788.8890 -7583.6389 301.3759 -9372.5279 -7570.4476 300.6738 -276.4203 -189.1547 30890.0192 -12.1762 33.2705
ENERGY: 1200000 2.7084 1.7087 2.0907 0.0000 -10929.7400 1577.9356 0.0000 0.0000 1733.0516 -7612.2450 291.9689 -9345.2966 -7577.2297 299.6846 954.6472 1058.5029 30337.8579 24.5562 79.6166
ENERGY: 1500000 1.3716 2.0717 1.8218 0.0000 -10639.2282 1374.0022 0.0000 0.0000 1731.8926 -7528.0683 291.7737 -9259.9609 -7561.4090 300.1921 -624.0190 -578.9033 31256.4537 47.3819 99.5891
TCL: Running FEP window   5: Lambda1 0.2    Lambda2 0.25   [dLambda 0.04999999999999999]
TCL: Setting parameter firsttimestep to 0
TCL: Setting parameter alchLambda to 0.2
Info: NONBONDED TABLE R-SQUARED SPACING: 0.0625
Info: NONBONDED TABLE SIZE: 705 POINTS
TCL: Setting parameter alchLambda2 to 0.25
Info: NONBONDED TABLE R-SQUARED SPACING: 0.0625
Info: NONBONDED TABLE SIZE: 705 POINTS
TCL: Running for 1500000 steps
ETITLE: TS BOND ANGLE DIHED IMPRP ELECT VDW BOUNDARY MISC KINETIC TOTAL TEMP POTENTIAL TOTALAVG TEMPAVG PRESSURE GPRESSURE VOLUME PRESSAVG GPRESSAVG
ENERGY: 0 1.3716 2.0717 1.8218 0.0000 -10639.2284 1373.7306 0.0000 0.0000 1731.0352 -7529.1975 291.6292 -9260.2328 -7529.1975 291.6292 -654.6110 -575.4937 31256.4537 -654.6110 -575.4937
ENERGY: 300000 2.7508 5.8545 3.3162 0.0000 -10910.8424 1558.1550 0.0000 0.0000 1808.4676 -7532.2983 304.6744 -9340.7660 -7535.7586 295.9140 764.4370 823.0659 30630.5482 -76.8993 1.0386
ENERGY: 600000 5.3885 1.0699 2.9426 0.0000 -10810.0184 1483.2783 0.0000 0.0000 1782.2807 -7535.0583 300.2626 -9317.3390 -7551.0341 297.0777 -107.3117 -60.4754 31237.6595 -175.2695 -108.1527
ENERGY: 900000 2.5540 2.2628 3.0920 0.0000 -10860.5628 1488.6608 0.0000 0.0000 1703.2607 -7660.7326 286.9500 -9363.9933 -7563.7283 295.9881 223.6290 283.8447 30628.3521 -41.0278 30.2665
ENERGY: 1200000 6.1402 6.0734 5.1294 0.0000 -10867.1768 1457.9600 0.0000 0.0000 1791.8923 -7599.9815 301.8819 -9391.8738 -7573.2385 296.0314 -524.5906 -471.1282 30871.2287 -110.0634 -39.9937
ENERGY: 1500000 5.2670 3.0138 2.1593 0.0000 -10875.9224 1525.1071 0.0000 0.0000 1859.3294 -7481.0458 313.2431 -9340.3752 -7560.0988 298.0577 450.4043 471.0708 31183.4967 -50.9625 15.0547
TCL: Running FEP window   6: Lambda1 0.25   Lambda2 0.3    [dLambda 0.04999999999999999]
TCL: Setting parameter firsttimestep to 0
TCL: Setting parameter alchLambda to 0.25
Info: NONBONDED TABLE R-SQUARED SPACING: 0.0625
Info: NONBONDED TABLE SIZE: 705 POINTS
TCL: Setting parameter alchLambda2 to 0.3
Info: NONBONDED TABLE R-SQUARED SPACING: 0.0625
Info: NONBONDED TABLE SIZE: 705 POINTS
TCL: Running for 1500000 steps
ETITLE: TS BOND ANGLE DIHED IMPRP ELECT VDW BOUNDARY MISC KINETIC TOTAL TEMP POTENTIAL TOTALAVG TEMPAVG PRESSURE GPRESSURE VOLUME PRESSAVG GPRESSAVG
ENERGY: 0 5.2670 3.0138 2.1593 0.0000 -10875.9235 1525.2569 0.0000 0.0000 1858.4425 -7481.7840 313.0937 -9340.2265 -7481.7840 313.0937 391.3563 474.6063 31183.4967 391.3563 474.6063
ENERGY: 300000 1.4663 3.9328 3.3025 0.0000 -10902.8229 1502.5445 0.0000 0.0000 1796.0623 -7595.5145 302.5844 -9391.5768 -7532.9066 302.9244 297.3403 454.6738 30314.8663 88.1185 172.2046
ENERGY: 600000 1.2722 1.4154 4.5639 0.0000 -10888.2742 1508.7288 0.0000 0.0000 1764.2414 -7608.0524 297.2235 -9372.2938 -7540.3477 300.7196 288.4468 356.8485 30406.4174 -40.2997 46.2680
ENERGY: 900000 3.1484 2.8469 2.6746 0.0000 -10733.6308 1431.1602 0.0000 0.0000 1767.7435 -7526.0571 297.8135 -9293.8006 -7538.4821 301.3297 -120.1956 -138.8267 30917.7096 -102.2819 -25.5958
ENERGY: 1200000 7.3357 2.3968 1.6220 0.0000 -10826.0931 1484.7973 0.0000 0.0000 1853.1278 -7476.8135 312.1983 -9329.9413 -7542.4706 300.8094 276.6064 298.3642 30787.0656 -85.2270 -17.5838
ENERGY: 1500000 4.6734 2.1428 4.9026 0.0000 -10859.8571 1493.8466 0.0000 0.0000 1756.1017 -7598.1899 295.8522 -9354.2916 -7551.0950 300.3012 392.0091 356.0966 30691.4873 -100.3688 -41.7462
TCL: Running FEP window   7: Lambda1 0.3    Lambda2 0.35   [dLambda 0.04999999999999999]
TCL: Setting parameter firsttimestep to 0
TCL: Setting parameter alchLambda to 0.3
Info: NONBONDED TABLE R-SQUARED SPACING: 0.0625
Info: NONBONDED TABLE SIZE: 705 POINTS
TCL: Setting parameter alchLambda2 to 0.35
Info: NONBONDED TABLE R-SQUARED SPACING: 0.0625
Info: NONBONDED TABLE SIZE: 705 POINTS
TCL: Running for 1500000 steps
ETITLE: TS BOND ANGLE DIHED IMPRP ELECT VDW BOUNDARY MISC KINETIC TOTAL TEMP POTENTIAL TOTALAVG TEMPAVG PRESSURE GPRESSURE VOLUME PRESSAVG GPRESSAVG
ENERGY: 0 4.6734 2.1428 4.9026 0.0000 -10859.8591 1493.5692 0.0000 0.0000 1755.2241 -7599.3469 295.7044 -9354.5710 -7599.3469 295.7044 289.2523 358.7110 30691.4873 289.2523 358.7110
ENERGY: 300000 1.6545 1.9640 5.5375 0.0000 -10779.7662 1445.8149 0.0000 0.0000 1804.0501 -7520.7451 303.9301 -9324.7952 -7514.2589 300.4449 -18.7398 99.5415 30598.3491 -127.7302 -29.4917
ENERGY: 600000 2.2204 1.5661 1.3415 0.0000 -10716.1125 1419.2098 0.0000 0.0000 1739.1563 -7552.6184 292.9974 -9291.7746 -7535.9628 299.7791 -133.1155 8.7914 30618.1369 -246.0515 -142.8355
ENERGY: 900000 2.8825 2.5539 2.2787 0.0000 -10819.8997 1425.8432 0.0000 0.0000 1781.0827 -7605.2587 300.0608 -9386.3414 -7558.3538 300.3662 -682.7923 -579.0560 31434.0857 -242.6476 -154.7660
ENERGY: 1200000 2.4480 4.4611 2.6549 0.0000 -10856.1964 1457.4425 0.0000 0.0000 1753.4868 -7635.7030 295.4117 -9389.1898 -7564.3133 299.9640 -58.9002 32.7491 30543.9087 -260.3193 -180.6994
ENERGY: 1500000 2.5234 3.7788 2.3602 0.0000 -10745.6129 1418.8618 0.0000 0.0000 1794.8702 -7523.2185 302.3836 -9318.0887 -7564.5079 300.0518 -235.1721 -167.5316 30599.6335 -307.9756 -229.3309
TCL: Running FEP window   8: Lambda1 0.35   Lambda2 0.39999999999999997 [dLambda 0.04999999999999999]
TCL: Setting parameter firsttimestep to 0
TCL: Setting parameter alchLambda to 0.35
Info: NONBONDED TABLE R-SQUARED SPACING: 0.0625
Info: NONBONDED TABLE SIZE: 705 POINTS
TCL: Setting parameter alchLambda2 to 0.39999999999999997
Info: NONBONDED TABLE R-SQUARED SPACING: 0.0625
Info: NONBONDED TABLE SIZE: 705 POINTS
TCL: Running for 1500000 steps
ETITLE: TS BOND ANGLE DIHED IMPRP ELECT VDW BOUNDARY MISC KINETIC TOTAL TEMP POTENTIAL TOTALAVG TEMPAVG PRESSURE GPRESSURE VOLUME PRESSAVG GPRESSAVG
ENERGY: 0 2.5234 3.7788 2.3602 0.0000 -10745.6127 1419.1568 0.0000 0.0000 1793.9731 -7523.8204 302.2324 -9317.7935 -7523.8204 302.2324 -243.3007 -157.7877 30599.6335 -243.3007 -157.7877
ENERGY: 300000 3.3636 5.5890 3.5851 0.0000 -10833.8977 1504.1960 0.0000 0.0000 1829.6515 -7487.5125 308.2432 -9317.1640 -7550.4007 304.2284 374.0953 430.4437 30477.0167 402.3356 481.2785
ENERGY: 600000 2.1726 1.4038 1.7018 0.0000 -10790.6732 1517.4456 0.0000 0.0000 1734.8966 -7533.0527 292.2798 -9267.9493 -7571.0135 300.9319 630.1451 670.9828 30522.3809 291.9878 356.9905
ENERGY: 900000 3.3516 3.1420 3.2042 0.0000 -10803.0410 1452.3860 0.0000 0.0000 1740.1795 -7600.7778 293.1698 -9340.9573 -7558.0913 300.4789 -79.8214 -23.2294 30544.9866 216.6736 287.8657
ENERGY: 1200000 4.2646 2.7586 2.8000 0.0000 -10891.2130 1548.6699 0.0000 0.0000 1838.6990 -7494.0209 309.7675 -9332.7199 -7554.7698 300.8411 620.9678 737.0759 30811.5839 211.3720 282.9813
ENERGY: 1500000 5.0920 4.4227 3.5201 0.0000 -10742.2376 1426.5373 0.0000 0.0000 1778.7842 -7523.8812 299.6736 -9302.6655 -7548.8966 300.6413 -265.3566 -182.8240 30921.8734 229.0262 295.6587
TCL: Running FEP window   9: Lambda1 0.39999999999999997 Lambda2 0.44999999999999996 [dLambda 0.04999999999999999]
TCL: Setting parameter firsttimestep to 0
TCL: Setting parameter alchLambda to 0.39999999999999997
Info: NONBONDED TABLE R-SQUARED SPACING: 0.0625
Info: NONBONDED TABLE SIZE: 705 POINTS
TCL: Setting parameter alchLambda2 to 0.44999999999999996
Info: NONBONDED TABLE R-SQUARED SPACING: 0.0625
Info: NONBONDED TABLE SIZE: 705 POINTS
TCL: Running for 1500000 steps
ETITLE: TS BOND ANGLE DIHED IMPRP ELECT VDW BOUNDARY MISC KINETIC TOTAL TEMP POTENTIAL TOTALAVG TEMPAVG PRESSURE GPRESSURE VOLUME PRESSAVG GPRESSAVG
ENERGY: 0 5.0920 4.4227 3.5201 0.0000 -10742.2358 1426.1370 0.0000 0.0000 1777.8845 -7525.1795 299.5220 -9303.0640 -7525.1795 299.5220 -254.0150 -181.2832 30921.8734 -254.0150 -181.2832
ENERGY: 300000 3.0789 2.4028 2.1989 0.0000 -10732.7687 1380.3954 0.0000 0.0000 1716.9443 -7627.7484 289.2553 -9344.6927 -7610.8873 293.0895 -832.7103 -758.2442 30849.9300 -385.8904 -303.4990
ENERGY: 600000 2.4239 5.6903 2.0832 0.0000 -10818.5200 1410.9990 0.0000 0.0000 1755.5521 -7641.7715 295.7596 -9397.3236 -7607.6528 294.2399 -522.6512 -490.6716 30659.6144 -252.9547 -183.3374
ENERGY: 900000 2.8394 2.4561 1.9686 0.0000 -10695.8235 1369.2218 0.0000 0.0000 1795.5833 -7523.7544 302.5037 -9319.3376 -7592.6463 295.9951 -648.5150 -635.1374 30957.5088 -140.2438 -81.0567
ENERGY: 1200000 2.3019 3.2369 4.0120 0.0000 -10888.7076 1522.8885 0.0000 0.0000 1813.2257 -7543.0427 305.4760 -9356.2684 -7594.4599 296.7314 445.7883 537.4191 30824.7837 -154.5874 -97.9880
ENERGY: 1500000 4.2395 1.9076 1.8455 0.0000 -10798.9328 1418.6192 0.0000 0.0000 1800.8066 -7571.5145 303.3837 -9372.3211 -7594.9510 297.0606 -297.7996 -265.8208 30721.2554 -211.6127 -161.8175
TCL: Running FEP window  10: Lambda1 0.44999999999999996 Lambda2 0.49999999999999994 [dLambda 0.04999999999999999]
TCL: Setting parameter firsttimestep to 0
TCL: Setting parameter alchLambda to 0.44999999999999996
Info: NONBONDED TABLE R-SQUARED SPACING: 0.0625
Info: NONBONDED TABLE SIZE: 705 POINTS
TCL: Setting parameter alchLambda2 to 0.49999999999999994
Info: NONBONDED TABLE R-SQUARED SPACING: 0.0625
Info: NONBONDED TABLE SIZE: 705 POINTS
TCL: Running for 1500000 steps
ETITLE: TS BOND ANGLE DIHED IMPRP ELECT VDW BOUNDARY MISC KINETIC TOTAL TEMP POTENTIAL TOTALAVG TEMPAVG PRESSURE GPRESSURE VOLUME PRESSAVG GPRESSAVG
ENERGY: 0 4.2395 1.9076 1.8455 0.0000 -10798.9331 1418.3353 0.0000 0.0000 1799.8938 -7572.7114 303.2299 -9372.6052 -7572.7114 303.2299 -342.8292 -259.3694 30721.2554 -342.8292 -259.3694
ENERGY: 300000 2.1437 1.9974 2.4073 0.0000 -10762.0246 1372.9070 0.0000 0.0000 1855.6723 -7526.8968 312.6270 -9382.5691 -7553.3304 303.5674 -648.2298 -620.5597 30561.6863 -307.9769 -274.8652
ENERGY: 600000 1.7303 1.0213 2.5329 0.0000 -10803.5605 1477.8970 0.0000 0.0000 1809.5973 -7510.7817 304.8647 -9320.3790 -7544.5366 303.7743 322.2451 398.2330 30657.9385 -161.9037 -113.1430
ENERGY: 900000 3.4147 2.0081 1.9627 0.0000 -10904.7606 1478.5582 0.0000 0.0000 1858.9601 -7559.8570 313.1809 -9418.8170 -7552.6448 303.1318 333.2726 312.1636 30380.2468 -196.5056 -150.4604
ENERGY: 1200000 4.8898 2.9849 1.0612 0.0000 -10856.4809 1383.8056 0.0000 0.0000 1808.0552 -7655.6842 304.6049 -9463.7394 -7565.3014 302.4372 -762.7146 -705.2913 30452.9445 -261.6259 -209.1370
ENERGY: 1500000 2.5246 1.6466 1.2538 0.0000 -10756.0564 1478.8468 0.0000 0.0000 1855.9848 -7415.7998 312.6796 -9271.7846 -7557.9820 303.0651 191.8812 299.6397 30937.4571 -182.2698 -130.4428
TCL: Running FEP window  11: Lambda1 0.49999999999999994 Lambda2 0.5499999999999999 [dLambda 0.04999999999999999]
TCL: Setting parameter firsttimestep to 0
TCL: Setting parameter alchLambda to 0.49999999999999994
Info: NONBONDED TABLE R-SQUARED SPACING: 0.0625
Info: NONBONDED TABLE SIZE: 705 POINTS
TCL: Setting parameter alchLambda2 to 0.5499999999999999
Info: NONBONDED TABLE R-SQUARED SPACING: 0.0625
Info: NONBONDED TABLE SIZE: 705 POINTS
TCL: Running for 1500000 steps
ETITLE: TS BOND ANGLE DIHED IMPRP ELECT VDW BOUNDARY MISC KINETIC TOTAL TEMP POTENTIAL TOTALAVG TEMPAVG PRESSURE GPRESSURE VOLUME PRESSAVG GPRESSAVG
ENERGY: 0 2.5246 1.6466 1.2538 0.0000 -10756.0562 1478.6268 0.0000 0.0000 1855.0636 -7416.9408 312.5244 -9272.0044 -7416.9408 312.5244 206.6019 301.9855 30937.4571 206.6019 301.9855
ENERGY: 300000 3.7425 3.1841 1.4631 0.0000 -10752.3375 1366.3823 0.0000 0.0000 1806.0988 -7571.4667 304.2753 -9377.5655 -7537.8915 305.0092 -603.1755 -564.7738 30771.3006 27.4835 89.9251
ENERGY: 600000 2.1073 3.4960 1.0752 0.0000 -10832.2534 1472.6013 0.0000 0.0000 1759.9967 -7592.9768 296.5084 -9352.9735 -7550.7224 301.8299 -90.0631 -102.8998 31015.0789 -48.5905 -5.2941
ENERGY: 900000 1.8711 1.2037 4.6061 0.0000 -10873.0440 1473.9549 0.0000 0.0000 1800.1525 -7591.2558 303.2735 -9391.4083 -7560.1157 301.1642 94.3003 134.2398 30674.3697 -65.8846 -24.3730
ENERGY: 1200000 2.0342 5.4978 2.3066 0.0000 -10919.6414 1526.0842 0.0000 0.0000 1759.6163 -7624.1022 296.4443 -9383.7186 -7569.9369 299.9580 442.4805 520.5132 30609.1513 -156.7000 -112.1725
ENERGY: 1500000 3.5287 2.2981 3.5257 0.0000 -10792.3575 1451.5381 0.0000 0.0000 1818.8189 -7512.6480 306.4183 -9331.4669 -7560.5052 300.1479 -0.3843 42.0476 30915.6147 -136.4859 -87.9604
TCL: Running FEP window  12: Lambda1 0.5499999999999999 Lambda2 0.6    [dLambda 0.050000000000000044]
TCL: Setting parameter firsttimestep to 0
TCL: Setting parameter alchLambda to 0.5499999999999999
Info: NONBONDED TABLE R-SQUARED SPACING: 0.0625
Info: NONBONDED TABLE SIZE: 705 POINTS
TCL: Setting parameter alchLambda2 to 0.6
Info: NONBONDED TABLE R-SQUARED SPACING: 0.0625
Info: NONBONDED TABLE SIZE: 705 POINTS
TCL: Running for 1500000 steps
ETITLE: TS BOND ANGLE DIHED IMPRP ELECT VDW BOUNDARY MISC KINETIC TOTAL TEMP POTENTIAL TOTALAVG TEMPAVG PRESSURE GPRESSURE VOLUME PRESSAVG GPRESSAVG
ENERGY: 0 3.5287 2.2981 3.5257 0.0000 -10792.5707 1451.0812 0.0000 0.0000 1817.9211 -7514.2159 306.2670 -9332.1370 -7514.2159 306.2670 -47.0896 42.7407 30915.6147 -47.0896 42.7407
ENERGY: 300000 3.0866 3.0742 0.9272 0.0000 -10869.5898 1525.8545 0.0000 0.0000 1809.4235 -7527.2238 304.8354 -9336.6473 -7547.1644 300.4555 655.6083 683.1860 30756.4511 -118.9342 -45.3423
ENERGY: 600000 4.5576 4.6695 3.0492 0.0000 -10736.6584 1399.4939 0.0000 0.0000 1758.6241 -7566.2641 296.2772 -9324.8882 -7554.3299 298.5005 -652.7891 -628.6343 31027.6132 -145.9278 -66.9713
ENERGY: 900000 1.7657 2.8898 2.4046 0.0000 -10815.5315 1429.5272 0.0000 0.0000 1776.9020 -7602.0422 299.3565 -9378.9443 -7570.5798 298.7582 -369.2900 -345.7994 31030.3024 -199.5857 -128.6679
ENERGY: 1200000 1.6803 3.6637 3.3550 0.0000 -10744.0594 1444.8549 0.0000 0.0000 1799.1045 -7491.4009 303.0970 -9290.5055 -7560.2658 299.8801 28.5307 82.3500 30967.9611 -116.6308 -43.3664
ENERGY: 1500000 3.3149 1.6509 1.4117 0.0000 -10821.0785 1487.9514 0.0000 0.0000 1768.8678 -7557.8817 298.0029 -9326.7496 -7566.1742 299.4060 171.2400 255.3077 30683.1175 -79.4621 -12.2106
TCL: Running FEP window  13: Lambda1 0.6    Lambda2 0.65   [dLambda 0.050000000000000044]
TCL: Setting parameter firsttimestep to 0
TCL: Setting parameter alchLambda to 0.6
Info: NONBONDED TABLE R-SQUARED SPACING: 0.0625
Info: NONBONDED TABLE SIZE: 705 POINTS
TCL: Setting parameter alchLambda2 to 0.65
Info: NONBONDED TABLE R-SQUARED SPACING: 0.0625
Info: NONBONDED TABLE SIZE: 705 POINTS
TCL: Running for 1500000 steps
ETITLE: TS BOND ANGLE DIHED IMPRP ELECT VDW BOUNDARY MISC KINETIC TOTAL TEMP POTENTIAL TOTALAVG TEMPAVG PRESSURE GPRESSURE VOLUME PRESSAVG GPRESSAVG
ENERGY: 0 3.3149 1.6509 1.4117 0.0000 -10821.1204 1488.1519 0.0000 0.0000 1767.9856 -7558.6054 297.8543 -9326.5910 -7558.6054 297.8543 194.3203 268.1814 30683.1175 194.3203 268.1814
ENERGY: 300000 3.2301 1.7442 0.8985 0.0000 -10900.0525 1489.7507 0.0000 0.0000 1770.4338 -7633.9952 298.2668 -9404.4290 -7561.3982 299.9891 281.6606 322.7718 30477.2944 -55.6582 18.2463
ENERGY: 600000 3.0627 3.4250 2.4166 0.0000 -10874.4932 1484.5205 0.0000 0.0000 1822.0840 -7558.9844 306.9683 -9381.0684 -7578.5767 300.0249 26.4770 21.3337 31173.0603 -86.4864 -37.5114
ENERGY: 900000 3.4076 1.5214 0.8542 0.0000 -10718.9597 1373.0550 0.0000 0.0000 1755.8189 -7584.3027 295.8046 -9340.1216 -7571.0948 300.0962 -925.9002 -889.2308 31058.6077 -129.1820 -63.2761
ENERGY: 1200000 1.5382 0.9444 0.4686 0.0000 -10807.5002 1422.5239 0.0000 0.0000 1746.0960 -7635.9290 294.1666 -9382.0250 -7578.5561 299.6591 -520.9365 -479.0660 31265.2180 28.1650 89.6312
ENERGY: 1500000 4.1698 4.9013 2.8361 0.0000 -10855.9086 1548.3242 0.0000 0.0000 1836.0699 -7459.6074 309.3245 -9295.6773 -7564.3826 299.7930 784.8877 851.8066 30809.1189 72.0892 132.9731
TCL: Running FEP window  14: Lambda1 0.65   Lambda2 0.7000000000000001 [dLambda 0.050000000000000044]
TCL: Setting parameter firsttimestep to 0
TCL: Setting parameter alchLambda to 0.65
Info: NONBONDED TABLE R-SQUARED SPACING: 0.0625
Info: NONBONDED TABLE SIZE: 705 POINTS
TCL: Setting parameter alchLambda2 to 0.7000000000000001
Info: NONBONDED TABLE R-SQUARED SPACING: 0.0625
Info: NONBONDED TABLE SIZE: 705 POINTS
TCL: Running for 1500000 steps
ETITLE: TS BOND ANGLE DIHED IMPRP ELECT VDW BOUNDARY MISC KINETIC TOTAL TEMP POTENTIAL TOTALAVG TEMPAVG PRESSURE GPRESSURE VOLUME PRESSAVG GPRESSAVG
ENERGY: 0 4.1698 4.9013 2.8361 0.0000 -10855.5401 1548.5337 0.0000 0.0000 1835.2021 -7459.8973 309.1783 -9295.0994 -7459.8973 309.1783 788.9810 864.3549 30809.1189 788.9810 864.3549
ENERGY: 300000 2.6425 3.6784 0.8868 0.0000 -10831.9556 1502.0522 0.0000 0.0000 1842.6443 -7480.0515 310.4321 -9322.6958 -7511.9490 302.7306 488.4773 460.3452 30875.4425 308.1487 374.0109
ENERGY: 600000 5.1620 2.0091 2.6372 0.0000 -10834.6371 1526.6620 0.0000 0.0000 1764.9487 -7533.2181 297.3427 -9298.1668 -7537.3054 300.7212 372.6301 458.7674 31116.0660 276.3599 332.7482
ENERGY: 900000 3.0804 1.8065 1.8667 0.0000 -10811.2778 1485.0670 0.0000 0.0000 1781.2155 -7538.2418 300.0832 -9319.4572 -7549.6657 300.9211 278.5732 235.1386 31054.8520 301.4235 349.5316
ENERGY: 1200000 3.6335 0.8021 1.5553 0.0000 -10851.9642 1500.0895 0.0000 0.0000 1753.7331 -7592.1507 295.4532 -9345.8838 -7554.6027 300.7145 430.4103 372.6216 30704.4903 270.4558 312.4493
ENERGY: 1500000 5.2604 1.2618 3.2465 0.0000 -10795.6368 1434.4231 0.0000 0.0000 1790.0266 -7561.4185 301.5676 -9351.4451 -7560.3069 299.9789 -398.1826 -407.5369 31171.8905 226.4249 267.4692
TCL: Running FEP window  15: Lambda1 0.7000000000000001 Lambda2 0.7500000000000001 [dLambda 0.050000000000000044]
TCL: Setting parameter firsttimestep to 0
TCL: Setting parameter alchLambda to 0.7000000000000001
Info: NONBONDED TABLE R-SQUARED SPACING: 0.0625
Info: NONBONDED TABLE SIZE: 705 POINTS
TCL: Setting parameter alchLambda2 to 0.7500000000000001
Info: NONBONDED TABLE R-SQUARED SPACING: 0.0625
Info: NONBONDED TABLE SIZE: 705 POINTS
TCL: Running for 1500000 steps
ETITLE: TS BOND ANGLE DIHED IMPRP ELECT VDW BOUNDARY MISC KINETIC TOTAL TEMP POTENTIAL TOTALAVG TEMPAVG PRESSURE GPRESSURE VOLUME PRESSAVG GPRESSAVG
ENERGY: 0 5.2604 1.2618 3.2465 0.0000 -10795.8846 1434.1879 0.0000 0.0000 1789.1174 -7562.8107 301.4144 -9351.9281 -7562.8107 301.4144 -478.5544 -400.9775 31171.8905 -478.5544 -400.9775
ENERGY: 300000 4.5897 1.4742 1.1285 0.0000 -10774.3740 1444.9224 0.0000 0.0000 1795.3680 -7526.8913 302.4674 -9322.2593 -7560.0052 298.4041 -64.1917 -39.6848 30848.6689 -384.8918 -329.3938
ENERGY: 600000 3.4263 1.3369 1.8073 0.0000 -10778.0179 1422.3360 0.0000 0.0000 1772.6240 -7576.4873 298.6357 -9349.1114 -7542.7537 300.0057 -183.4247 -109.3901 30727.3127 -287.1948 -235.4141
ENERGY: 900000 1.9554 4.0603 2.3856 0.0000 -10736.7126 1413.3013 0.0000 0.0000 1745.1446 -7569.8655 294.0063 -9315.0100 -7542.4379 300.3506 -318.6113 -239.3061 31129.0207 -393.4598 -339.6878
ENERGY: 1200000 2.7742 2.9467 3.1194 0.0000 -10793.7114 1406.7176 0.0000 0.0000 1748.3312 -7629.8222 294.5431 -9378.1535 -7541.4693 301.8271 -490.7027 -444.8336 30832.6131 -396.4798 -335.0604
ENERGY: 1500000 3.6721 3.0472 1.0703 0.0000 -10765.2173 1389.6032 0.0000 0.0000 1727.9441 -7639.8805 291.1085 -9367.8246 -7547.2579 300.7899 -870.8332 -858.8458 31169.9431 -434.0188 -373.7327
TCL: Running FEP window  16: Lambda1 0.7500000000000001 Lambda2 0.8000000000000002 [dLambda 0.050000000000000044]
TCL: Setting parameter firsttimestep to 0
TCL: Setting parameter alchLambda to 0.7500000000000001
Info: NONBONDED TABLE R-SQUARED SPACING: 0.0625
Info: NONBONDED TABLE SIZE: 705 POINTS
TCL: Setting parameter alchLambda2 to 0.8000000000000002
Info: NONBONDED TABLE R-SQUARED SPACING: 0.0625
Info: NONBONDED TABLE SIZE: 705 POINTS
TCL: Running for 1500000 steps
ETITLE: TS BOND ANGLE DIHED IMPRP ELECT VDW BOUNDARY MISC KINETIC TOTAL TEMP POTENTIAL TOTALAVG TEMPAVG PRESSURE GPRESSURE VOLUME PRESSAVG GPRESSAVG
ENERGY: 0 3.6721 3.0473 1.0703 0.0000 -10765.3531 1389.7857 0.0000 0.0000 1727.0581 -7640.7197 290.9592 -9367.7779 -7640.7197 290.9592 -936.8992 -846.2612 31169.9431 -936.8992 -846.2612
ENERGY: 300000 4.8413 2.5004 2.0819 0.0000 -10784.6582 1434.2598 0.0000 0.0000 1789.4672 -7551.5075 301.4733 -9340.9747 -7582.0495 298.6263 -185.7838 -95.2575 30692.2875 -287.1140 -213.1900
ENERGY: 600000 1.5056 1.9991 6.0384 0.0000 -10656.7808 1368.7269 0.0000 0.0000 1752.2180 -7526.2928 295.1979 -9278.5108 -7567.1538 298.7007 -451.5983 -449.1066 31327.5128 -95.2768 -47.5495
ENERGY: 900000 4.7460 2.7952 3.8866 0.0000 -10566.9536 1414.0805 0.0000 0.0000 1739.5699 -7401.8752 293.0671 -9141.4451 -7536.9248 299.0118 113.5665 132.9819 31314.6185 -99.7125 -39.2698
ENERGY: 1200000 3.8392 3.8211 2.3976 0.0000 -10997.8733 1594.3065 0.0000 0.0000 1824.1910 -7569.3179 307.3233 -9393.5089 -7551.8813 298.4884 833.2285 910.1807 30918.6392 -71.4495 -4.7757
ENERGY: 1500000 6.6557 3.0233 2.6566 0.0000 -10898.1849 1452.4930 0.0000 0.0000 1784.8318 -7648.5246 300.6924 -9433.3564 -7561.7108 299.2423 24.0829 82.7661 30339.0618 -88.9049 -24.2125
TCL: Running FEP window  17: Lambda1 0.8000000000000002 Lambda2 0.8500000000000002 [dLambda 0.050000000000000044]
TCL: Setting parameter firsttimestep to 0
TCL: Setting parameter alchLambda to 0.8000000000000002
Info: NONBONDED TABLE R-SQUARED SPACING: 0.0625
Info: NONBONDED TABLE SIZE: 705 POINTS
TCL: Setting parameter alchLambda2 to 0.8500000000000002
Info: NONBONDED TABLE R-SQUARED SPACING: 0.0625
Info: NONBONDED TABLE SIZE: 705 POINTS
TCL: Running for 1500000 steps
ETITLE: TS BOND ANGLE DIHED IMPRP ELECT VDW BOUNDARY MISC KINETIC TOTAL TEMP POTENTIAL TOTALAVG TEMPAVG PRESSURE GPRESSURE VOLUME PRESSAVG GPRESSAVG
ENERGY: 0 6.6557 3.0233 2.6566 0.0000 -10898.3629 1452.2515 0.0000 0.0000 1783.9434 -7649.8325 300.5427 -9433.7759 -7649.8325 300.5427 12.2338 90.0889 30339.0618 12.2338 90.0889
ENERGY: 300000 2.8511 2.8699 2.1610 0.0000 -10793.7072 1357.0521 0.0000 0.0000 1832.5225 -7596.2505 308.7269 -9428.7730 -7570.7259 301.6351 -756.3674 -696.6786 30659.2486 -76.2507 -20.7390
ENERGY: 600000 4.3353 3.2824 1.9740 0.0000 -10820.8995 1459.9274 0.0000 0.0000 1794.2516 -7557.1287 302.2794 -9351.3803 -7560.9424 301.4222 -230.9465 -210.6545 31085.6867 -90.1454 -44.6187
ENERGY: 900000 4.7198 2.7846 0.4876 0.0000 -10699.8562 1393.6198 0.0000 0.0000 1775.3239 -7522.9206 299.0906 -9298.2445 -7563.1859 300.2070 -272.5143 -261.9275 30926.6663 -117.2416 -70.5310
ENERGY: 1200000 2.8038 2.7548 3.2401 0.0000 -10844.1382 1465.2915 0.0000 0.0000 1783.2455 -7586.8025 300.4252 -9370.0480 -7565.5418 300.3693 -128.6798 -24.9345 30858.6775 -200.2432 -147.3830
ENERGY: 1500000 1.9014 3.1293 1.4816 0.0000 -10941.2410 1589.4138 0.0000 0.0000 1731.8329 -7613.4820 291.7636 -9345.3148 -7565.4082 299.8159 1047.6697 1126.8935 30645.6429 -100.5412 -45.3880
TCL: Running FEP window  18: Lambda1 0.8500000000000002 Lambda2 0.9000000000000002 [dLambda 0.050000000000000044]
TCL: Setting parameter firsttimestep to 0
TCL: Setting parameter alchLambda to 0.8500000000000002
Info: NONBONDED TABLE R-SQUARED SPACING: 0.0625
Info: NONBONDED TABLE SIZE: 705 POINTS
TCL: Setting parameter alchLambda2 to 0.9000000000000002
Info: NONBONDED TABLE R-SQUARED SPACING: 0.0625
Info: NONBONDED TABLE SIZE: 705 POINTS
TCL: Running for 1500000 steps
ETITLE: TS BOND ANGLE DIHED IMPRP ELECT VDW BOUNDARY MISC KINETIC TOTAL TEMP POTENTIAL TOTALAVG TEMPAVG PRESSURE GPRESSURE VOLUME PRESSAVG GPRESSAVG
ENERGY: 0 1.9014 3.1293 1.4816 0.0000 -10941.2911 1588.7409 0.0000 0.0000 1730.9529 -7615.0851 291.6154 -9346.0380 -7615.0851 291.6154 1047.1066 1133.2578 30645.6429 1047.1066 1133.2578
ENERGY: 300000 1.6223 2.1561 3.0603 0.0000 -10861.0544 1450.2275 0.0000 0.0000 1764.7893 -7639.1989 297.3158 -9403.9883 -7560.9846 300.5822 -127.0678 -46.7639 30671.7337 436.6913 501.6779
ENERGY: 600000 4.1326 2.3429 1.8150 0.0000 -10799.2226 1438.9543 0.0000 0.0000 1774.1070 -7577.8707 298.8856 -9351.9777 -7570.7154 299.4164 -176.2986 -85.5581 30543.5376 207.7244 274.7496
ENERGY: 900000 3.2812 2.3938 4.2124 0.0000 -10863.4868 1514.8592 0.0000 0.0000 1832.3054 -7506.4348 308.6903 -9338.7403 -7569.4295 299.3793 322.7868 382.0185 30951.9919 149.0367 213.5056
ENERGY: 1200000 3.0974 2.2883 2.5268 0.0000 -10832.3564 1442.7614 0.0000 0.0000 1740.3247 -7641.3578 293.1943 -9381.6825 -7567.7960 299.4375 113.3540 207.6417 30397.7664 147.4149 209.7979
ENERGY: 1500000 2.4410 7.6366 3.8062 0.0000 -10929.8587 1524.0957 0.0000 0.0000 1716.9432 -7674.9362 289.2551 -9391.8794 -7569.6718 299.7792 333.5931 371.8003 30719.2279 166.5117 228.1053
TCL: Running FEP window  19: Lambda1 0.9000000000000002 Lambda2 0.9500000000000003 [dLambda 0.050000000000000044]
TCL: Setting parameter firsttimestep to 0
TCL: Setting parameter alchLambda to 0.9000000000000002
Info: NONBONDED TABLE R-SQUARED SPACING: 0.0625
Info: NONBONDED TABLE SIZE: 705 POINTS
TCL: Setting parameter alchLambda2 to 0.9500000000000003
Info: NONBONDED TABLE R-SQUARED SPACING: 0.0625
Info: NONBONDED TABLE SIZE: 705 POINTS
TCL: Running for 1500000 steps
ETITLE: TS BOND ANGLE DIHED IMPRP ELECT VDW BOUNDARY MISC KINETIC TOTAL TEMP POTENTIAL TOTALAVG TEMPAVG PRESSURE GPRESSURE VOLUME PRESSAVG GPRESSAVG
ENERGY: 0 2.4410 7.6366 3.8062 0.0000 -10929.8982 1523.8736 0.0000 0.0000 1716.0540 -7676.0868 289.1053 -9392.1409 -7676.0868 289.1053 301.4492 382.1162 30719.2279 301.4492 382.1162
ENERGY: 300000 3.7670 0.6659 1.8144 0.0000 -10801.1668 1391.1360 0.0000 0.0000 1799.4681 -7604.3154 303.1582 -9403.7835 -7561.9260 297.6851 -525.1780 -488.3792 30815.3449 -296.2187 -232.2816
ENERGY: 600000 1.4516 4.4066 2.3575 0.0000 -10845.6134 1473.2484 0.0000 0.0000 1750.5639 -7613.5855 294.9193 -9364.1494 -7560.3735 298.3275 66.3876 123.9666 30859.2075 43.9667 91.8753
ENERGY: 900000 1.1799 4.0408 2.5395 0.0000 -10838.9793 1473.9839 0.0000 0.0000 1778.1222 -7579.1131 299.5620 -9357.2352 -7568.6670 298.9042 158.8339 275.9342 30836.4572 85.2646 144.4785
ENERGY: 1200000 1.3914 2.0798 3.0768 0.0000 -10701.6552 1429.2694 0.0000 0.0000 1719.8073 -7546.0305 289.7377 -9265.8378 -7566.4113 298.2755 -139.5781 -92.8903 31210.1247 138.7830 188.6804
ENERGY: 1500000 4.0866 2.2221 2.9818 0.0000 -10705.6845 1333.1589 0.0000 0.0000 1756.0221 -7607.2130 295.8388 -9363.2351 -7574.5086 297.3193 -1078.8101 -1025.2494 31128.2155 88.0493 139.3424
TCL: Running FEP window  20: Lambda1 0.9500000000000003 Lambda2 1.0    [dLambda 0.04999999999999971]
TCL: Setting parameter firsttimestep to 0
TCL: Setting parameter alchLambda to 0.9500000000000003
Info: NONBONDED TABLE R-SQUARED SPACING: 0.0625
Info: NONBONDED TABLE SIZE: 705 POINTS
TCL: Setting parameter alchLambda2 to 1.0
Info: NONBONDED TABLE R-SQUARED SPACING: 0.0625
Info: NONBONDED TABLE SIZE: 705 POINTS
TCL: Running for 1500000 steps
ETITLE: TS BOND ANGLE DIHED IMPRP ELECT VDW BOUNDARY MISC KINETIC TOTAL TEMP POTENTIAL TOTALAVG TEMPAVG PRESSURE GPRESSURE VOLUME PRESSAVG GPRESSAVG
ENERGY: 0 4.0866 2.2221 2.9818 0.0000 -10705.8354 1332.6892 0.0000 0.0000 1755.1221 -7608.7336 295.6872 -9363.8557 -7608.7336 295.6872 -1105.3343 -1017.3233 31128.2155 -1105.3343 -1017.3233
ENERGY: 300000 3.6538 1.3972 1.7972 0.0000 -10868.3479 1492.4860 0.0000 0.0000 1782.8411 -7586.1727 300.3570 -9369.0138 -7582.2678 300.3280 155.1321 191.3531 31204.6164 -379.7481 -325.5573
ENERGY: 600000 2.8452 1.2965 2.8139 0.0000 -10826.7649 1496.4238 0.0000 0.0000 1750.7211 -7572.6645 294.9457 -9323.3855 -7601.4505 297.7895 345.8233 443.5025 31050.5356 -94.9086 -32.3164
ENERGY: 900000 2.7690 1.8813 5.1353 0.0000 -10793.2851 1467.6004 0.0000 0.0000 1731.3321 -7584.5670 291.6793 -9315.8991 -7600.1246 297.3106 281.3232 344.0232 30518.3559 26.2180 95.1321
ENERGY: 1200000 4.5113 4.2711 3.3069 0.0000 -10871.8510 1521.1980 0.0000 0.0000 1774.1055 -7564.4581 298.8853 -9338.5636 -7602.6828 297.1102 631.6370 711.8485 30613.7747 -24.6249 50.7776
ENERGY: 1500000 1.9862 3.6849 2.6285 0.0000 -10795.3051 1442.7520 0.0000 0.0000 1838.0554 -7506.1982 309.6590 -9344.2535 -7594.6817 298.6328 251.7031 359.7701 30388.7935 63.2986 140.5571
TCL: Exiting due to exit command.
