Info: SIMULATION PARAMETERS:
Info: TIMESTEP               2
Info: NUMBER OF STEPS        0
Info: STEPS PER CYCLE        10
Info: PERIODIC CELL BASIS 1  31.6967 0 0
Info: PERIODIC CELL BASIS 2  0 31.1738 0
Info: PERIODIC CELL BASIS 3  0 0 30.7714
Info: PERIODIC CELL CENTER   0 0 0
Info: WRAPPING WATERS AROUND PERIODIC BOUNDARIES ON OUTPUT.
Info: WRAPPING ALL CLUSTERS AROUND PERIODIC BOUNDARIES ON OUTPUT.
Info: FIRST LDB TIMESTEP     50
Info: LAST LDB TIMESTEP     -1
Info: HOM BACKGROUND SCALING 1
Info: PME BACKGROUND SCALING 1
Info: MIN ATOMS PER PATCH    40
Info: EMPTY PATCH LOAD       40 ATOMS
Info: VELOCITY FILE          mobley_4850657_equil.vel
Info: CENTER OF MASS MOVING INITIALLY? NO
Info: DIELECTRIC             1
Info: EXCLUDE                SCALED ONE-FOUR
Info: 1-4 ELECTROSTATICS SCALED BY 0.833333
Info: MODIFIED 1-4 VDW PARAMETERS WILL BE USED
Info: DCD FILENAME           mobley_4850657_prod.dcd
Info: DCD FREQUENCY          100000
Info: DCD FIRST STEP         100000
Info: DCD FILE WILL CONTAIN UNIT CELL DATA
Info: XST FILENAME           mobley_4850657_prod.xst
Info: XST FREQUENCY          100000
Info: NO VELOCITY DCD OUTPUT
Info: NO FORCE DCD OUTPUT
Info: OUTPUT FILENAME        mobley_4850657_prod
Info: BINARY OUTPUT FILES WILL BE USED
Info: RESTART FILENAME       mobley_4850657_prod.restart
Info: RESTART FREQUENCY      100000
Info: BINARY RESTART FILES WILL BE USED
Info: CUTOFF                 9
Info: PAIRLIST DISTANCE      11
Info: PAIRLIST SHRINK RATE   0.01
Info: PAIRLIST GROW RATE     0.01
Info: PAIRLIST TRIGGER       0.3
Info: PAIRLISTS PER CYCLE    2
Info: PAIRLISTS ENABLED
Info: MARGIN                 2
Info: HYDROGEN GROUP CUTOFF  2.5
Info: PATCH DIMENSION        15.5
Info: ENERGY OUTPUT STEPS    100000
Info: ENERGY EVALUATION STEPS    100000
Info: OUTPUT ENERGY PRECISION 4
Info: CROSSTERM ENERGY INCLUDED IN DIHEDRAL
Info: TIMING OUTPUT STEPS    1000000
Info: PRESSURE OUTPUT STEPS  100000
Info: ALCHEMICAL FEP ON
Info: FEP CURRENT LAMBDA VALUE     1
Info: FEP COMPARISON LAMBDA VALUE  0.95
Info: FEP INTRA-ALCHEMICAL NON-BONDED INTERACTIONS WILL BE RETAINED
Info: FEP INTRA-ALCHEMICAL BONDED INTERACTIONS WILL BE RETAINED
Info: FEP VDW SHIFTING COEFFICIENT 5
Info: FEP ELEC. ACTIVE FOR ANNIHILATED PARTICLES BETWEEN LAMBDA = 0 AND LAMBDA = 0.5
Info: FEP ELEC. ACTIVE FOR EXNIHILATED PARTICLES BETWEEN LAMBDA = 0.5 AND LAMBDA = 1
Info: FEP VDW ACTIVE FOR ANNIHILATED PARTICLES BETWEEN LAMBDA = 0 AND LAMBDA = 1
Info: FEP VDW ACTIVE FOR EXNIHILATED PARTICLES BETWEEN LAMBDA = 0 AND LAMBDA = 1
Info: FEP BOND ACTIVE FOR ANNIHILATED PARTICLES BETWEEN LAMBDA = 1 AND LAMBDA = 1
Info: FEP BOND ACTIVE FOR EXNIHILATED PARTICLES BETWEEN LAMBDA = 0 AND LAMBDA = 0
Info: LANGEVIN DYNAMICS ACTIVE
Info: LANGEVIN TEMPERATURE   300
Info: LANGEVIN USING BBK INTEGRATOR
Info: LANGEVIN DAMPING COEFFICIENT IS 1 INVERSE PS
Info: LANGEVIN DYNAMICS APPLIED TO HYDROGENS
Info: LANGEVIN PISTON PRESSURE CONTROL ACTIVE
Info:        TARGET PRESSURE IS 1.01325 BAR
Info:     OSCILLATION PERIOD IS 50 FS
Info:             DECAY TIME IS 25 FS
Info:     PISTON TEMPERATURE IS 300 K
Info:       PRESSURE CONTROL IS GROUP-BASED
Info:    INITIAL STRAIN RATE IS 0.000499872 0.000499872 0.000499872
Info:       CELL FLUCTUATION IS ISOTROPIC
Info: PARTICLE MESH EWALD (PME) ACTIVE
Info: PME TOLERANCE               1e-06
Info: PME EWALD COEFFICIENT       0.348832
Info: PME INTERPOLATION ORDER     4
Info: PME GRID DIMENSIONS         32 32 32
Info: PME MAXIMUM GRID SPACING    1
Info: PME CALCULATION WILL BE PERFORMED ON GPU
Info: FULL ELECTROSTATIC EVALUATION FREQUENCY      2
Info: USING VERLET I (r-RESPA) MTS SCHEME.
Info: C1 SPLITTING OF LONG RANGE ELECTROSTATICS
Info: PLACING ATOMS IN PATCHES BY HYDROGEN GROUPS
Info: RIGID BONDS TO HYDROGEN : ALL
Info:         ERROR TOLERANCE : 1e-08
Info:          MAX ITERATIONS : 100
Info: RIGID WATER USING SETTLE ALGORITHM
Info: RANDOM NUMBER SEED     1743507313
Info: USE HYDROGEN BONDS?    NO
Info: Using AMBER format force field!
Info: AMBER PARM FILE        mobley_4850657.prmtop
Info: COORDINATE PDB         mobley_4850657.pdb
Info: Exclusions will be read from PARM file!
Info: SCNB (VDW SCALING)     2
Info: USING ARITHMETIC MEAN TO COMBINE L-J SIGMA PARAMETERS
Info: BINARY COORDINATES     mobley_4850657_equil.coor
Info: SUMMARY OF PARAMETERS:
Info: 6 BONDS
Info: 6 ANGLES
Info:   6 HARMONIC
Info:   0 COSINE-BASED
Info: 1 DIHEDRAL
Info: 0 IMPROPER
Info: 0 CROSSTERM
Info: 0 VDW
Info: 28 VDW_PAIRS
Info: 0 NBTHOLE_PAIRS
Info: To read alchdata from file: mobley_4850657.pdb
Info: To read alchflag data from column: 5
Info: STRUCTURE SUMMARY:
Info: 2957 ATOMS
Info: 2956 BONDS
Info: 12 ANGLES
Info: 9 DIHEDRALS
Info: 0 IMPROPERS
Info: 0 CROSSTERMS
Info: 2977 EXCLUSIONS
Info: 2952 RIGID BONDS
Info: ALCH: 0 ATOMS TO DISAPPEAR IN FINAL STATE
Info: ALCH: 8 ATOMS TO APPEAR IN FINAL STATE
Info: 5919 DEGREES OF FREEDOM
Info: 988 HYDROGEN GROUPS
Info: 4 ATOMS IN LARGEST HYDROGEN GROUP
Info: 988 MIGRATION GROUPS
Info: 4 ATOMS IN LARGEST MIGRATION GROUP
Info: TOTAL MASS = 17824.3 amu
Info: TOTAL CHARGE = 9.9957e-05 e
Info: MASS DENSITY = 0.973464 g/cm^3
Info: ATOM DENSITY = 0.0972524 atoms/A^3
Info: ADDED 0 IMPLICIT EXCLUSIONS
Info: NONBONDED TABLE R-SQUARED SPACING: 0.0625
Info: NONBONDED TABLE SIZE: 705 POINTS
Info: REDUCING NUMBER OF PATCHES TO IMPROVE LOAD BALANCE
Info: REMOVING COM VELOCITY 0.00281363 0.14813 0.014794
Info: Use 3D box decompostion in PME FFT.
Info: Updated CUDA force table with 4096 elements.
Info: Updated CUDA LJ table with 7 x 7 elements.
Info: Found 11 unique exclusion lists needing 16 bytes
TCL: Running for 1500000 steps
ETITLE: TS BOND ANGLE DIHED IMPRP ELECT VDW BOUNDARY MISC KINETIC TOTAL TEMP POTENTIAL TOTALAVG TEMPAVG PRESSURE GPRESSURE VOLUME PRESSAVG GPRESSAVG
ENERGY: 0 1.3798 2.9499 0.5011 0.0000 -10717.6530 1349.4939 0.0000 0.0000 1766.9710 -7596.3573 300.4495 -9363.3283 -7596.3573 300.4495 -760.0872 -676.6615 30405.4214 -760.0872 -676.6615
ENERGY: 300000 2.5629 4.4285 0.3240 0.0000 -10784.3466 1430.3710 0.0000 0.0000 1779.1471 -7567.5131 302.5199 -9346.6602 -7572.6648 300.3292 -306.2394 -219.1117 30936.7026 -338.6867 -275.0682
ENERGY: 600000 0.5377 2.0787 0.1010 0.0000 -10880.6309 1454.1119 0.0000 0.0000 1762.3605 -7661.4413 299.6655 -9423.8017 -7610.6455 299.4945 -301.7687 -239.1038 30678.9308 -237.6652 -179.9918
ENERGY: 900000 1.8287 5.3589 0.0507 0.0000 -10708.3830 1384.3750 0.0000 0.0000 1757.2063 -7559.5633 298.7891 -9316.7696 -7594.4636 298.7558 -215.6860 -172.2736 30340.3745 -293.0871 -229.1041
ENERGY: 1200000 0.6165 2.3645 0.0625 0.0000 -10973.7535 1542.9102 0.0000 0.0000 1803.3743 -7624.4256 306.6394 -9427.7999 -7600.0679 299.4395 451.7668 519.5722 30293.1651 -171.5398 -102.0813
ENERGY: 1500000 1.8824 2.3669 0.2117 0.0000 -10727.3966 1390.5681 0.0000 0.0000 1741.3106 -7591.0568 296.0863 -9332.3674 -7597.0222 299.2093 -672.2070 -608.1034 31133.2733 -146.3816 -77.3393
TCL: Running FEP window   2: Lambda1 0.95   Lambda2 0.8999999999999999 [dLambda -0.050000000000000044]
TCL: Setting parameter firsttimestep to 0
TCL: Setting parameter alchLambda to 0.95
Info: NONBONDED TABLE R-SQUARED SPACING: 0.0625
Info: NONBONDED TABLE SIZE: 705 POINTS
TCL: Setting parameter alchLambda2 to 0.8999999999999999
Info: NONBONDED TABLE R-SQUARED SPACING: 0.0625
Info: NONBONDED TABLE SIZE: 705 POINTS
TCL: Running for 1500000 steps
ETITLE: TS BOND ANGLE DIHED IMPRP ELECT VDW BOUNDARY MISC KINETIC TOTAL TEMP POTENTIAL TOTALAVG TEMPAVG PRESSURE GPRESSURE VOLUME PRESSAVG GPRESSAVG
ENERGY: 0 1.8824 2.3669 0.2117 0.0000 -10725.9437 1390.0157 0.0000 0.0000 1740.4609 -7591.0060 295.9418 -9331.4669 -7591.0060 295.9418 -714.2570 -623.0841 31133.2733 -714.2570 -623.0841
ENERGY: 300000 2.8727 2.3223 0.0909 0.0000 -10766.9989 1355.6528 0.0000 0.0000 1774.4487 -7631.6116 301.7210 -9406.0603 -7547.3536 302.9263 -1127.5284 -1096.0654 30776.0741 -364.3677 -301.1559
ENERGY: 600000 2.2363 3.9304 0.3207 0.0000 -10713.5729 1369.5582 0.0000 0.0000 1743.9805 -7593.5469 296.5403 -9337.5274 -7539.7754 301.7635 -388.8274 -310.4730 30219.6423 -269.5956 -210.4923
ENERGY: 900000 2.4023 5.5427 0.0094 0.0000 -10757.3358 1436.3163 0.0000 0.0000 1755.2855 -7557.7795 298.4625 -9313.0650 -7549.9012 300.4430 151.4426 234.6172 30274.7259 -165.4812 -103.8377
ENERGY: 1200000 0.8839 4.1780 1.8035 0.0000 -10682.9586 1437.9713 0.0000 0.0000 1757.1467 -7480.9751 298.7790 -9238.1218 -7549.5850 300.7590 341.8984 362.9940 30467.6950 -117.6116 -60.7515
ENERGY: 1500000 2.4157 1.6552 0.6632 0.0000 -10745.5067 1424.9067 0.0000 0.0000 1783.7636 -7532.1024 303.3048 -9315.8660 -7558.8141 301.0027 -353.3929 -324.2065 31134.1667 -141.7297 -91.3058
TCL: Running FEP window   3: Lambda1 0.8999999999999999 Lambda2 0.8499999999999999 [dLambda -0.050000000000000044]
TCL: Setting parameter firsttimestep to 0
TCL: Setting parameter alchLambda to 0.8999999999999999
Info: NONBONDED TABLE R-SQUARED SPACING: 0.0625
Info: NONBONDED TABLE SIZE: 705 POINTS
TCL: Setting parameter alchLambda2 to 0.8499999999999999
Info: NONBONDED TABLE R-SQUARED SPACING: 0.0625
Info: NONBONDED TABLE SIZE: 705 POINTS
TCL: Running for 1500000 steps
ETITLE: TS BOND ANGLE DIHED IMPRP ELECT VDW BOUNDARY MISC KINETIC TOTAL TEMP POTENTIAL TOTALAVG TEMPAVG PRESSURE GPRESSURE VOLUME PRESSAVG GPRESSAVG
ENERGY: 0 2.4157 1.6552 0.6632 0.0000 -10744.1197 1424.5234 0.0000 0.0000 1782.8639 -7531.9984 303.1519 -9314.8622 -7531.9984 303.1519 -408.5021 -334.5791 31134.1667 -408.5021 -334.5791
ENERGY: 300000 0.0217 2.3717 0.1197 0.0000 -10819.0672 1410.9580 0.0000 0.0000 1740.2794 -7665.3168 295.9109 -9405.5962 -7589.6241 296.1892 -163.3426 -200.6445 30139.3713 -80.6627 -71.7978
ENERGY: 600000 1.0974 2.6343 0.0799 0.0000 -10753.3534 1388.5509 0.0000 0.0000 1746.1986 -7614.7923 296.9174 -9360.9909 -7584.5412 296.7052 -367.1739 -311.7868 30351.1913 -73.4472 -44.1929
ENERGY: 900000 1.8497 3.5517 0.0790 0.0000 -10723.8186 1328.1365 0.0000 0.0000 1758.9241 -7631.2776 299.0812 -9390.2017 -7599.0346 298.1056 -1120.3561 -1031.7799 30629.5434 -240.5290 -197.4091
ENERGY: 1200000 0.5451 5.0537 0.0903 0.0000 -10865.7895 1519.9403 0.0000 0.0000 1720.9504 -7619.2097 292.6243 -9340.1601 -7592.1431 298.7073 576.3044 555.9420 30447.0503 -227.8986 -183.7199
ENERGY: 1500000 1.6202 3.8624 0.4742 0.0000 -10885.9624 1539.7427 0.0000 0.0000 1742.5987 -7597.6642 296.3053 -9340.2629 -7586.3195 298.4059 793.3467 868.8757 30153.4928 -129.0319 -76.4842
TCL: Running FEP window   4: Lambda1 0.8499999999999999 Lambda2 0.7999999999999998 [dLambda -0.050000000000000044]
TCL: Setting parameter firsttimestep to 0
TCL: Setting parameter alchLambda to 0.8499999999999999
Info: NONBONDED TABLE R-SQUARED SPACING: 0.0625
Info: NONBONDED TABLE SIZE: 705 POINTS
TCL: Setting parameter alchLambda2 to 0.7999999999999998
Info: NONBONDED TABLE R-SQUARED SPACING: 0.0625
Info: NONBONDED TABLE SIZE: 705 POINTS
TCL: Running for 1500000 steps
ETITLE: TS BOND ANGLE DIHED IMPRP ELECT VDW BOUNDARY MISC KINETIC TOTAL TEMP POTENTIAL TOTALAVG TEMPAVG PRESSURE GPRESSURE VOLUME PRESSAVG GPRESSAVG
ENERGY: 0 1.6202 3.8624 0.4742 0.0000 -10885.0201 1540.0326 0.0000 0.0000 1741.6876 -7597.3431 296.1504 -9339.0307 -7597.3431 296.1504 779.1720 863.0331 30153.4928 779.1720 863.0331
ENERGY: 300000 0.6530 2.7089 0.0451 0.0000 -10883.3418 1492.3281 0.0000 0.0000 1834.1637 -7553.4430 311.8747 -9387.6067 -7549.0377 302.7209 581.3891 650.4382 30040.7335 146.5431 223.5904
ENERGY: 600000 1.4532 9.0753 0.2695 0.0000 -10687.3264 1317.1702 0.0000 0.0000 1739.4210 -7619.9372 295.7650 -9359.3582 -7569.3231 300.7957 -1030.7673 -921.5697 30189.7845 -32.2476 38.5702
ENERGY: 900000 3.2124 1.8739 0.0240 0.0000 -10939.3374 1485.3017 0.0000 0.0000 1771.5950 -7677.3304 301.2357 -9448.9254 -7572.5162 301.9082 150.3034 322.1876 30200.7217 110.3894 187.0524
ENERGY: 1200000 2.3785 1.5616 0.1194 0.0000 -10832.5930 1407.8113 0.0000 0.0000 1796.2808 -7624.4414 305.4332 -9420.7222 -7576.8110 302.2219 -456.7013 -392.4875 30557.4842 34.6774 103.6760
ENERGY: 1500000 0.4501 3.4849 0.2269 0.0000 -10804.4712 1429.6929 0.0000 0.0000 1725.5634 -7645.0529 293.4087 -9370.6162 -7573.5804 301.5730 -176.3734 -95.1268 30483.5756 -18.8719 51.2612
TCL: Running FEP window   5: Lambda1 0.7999999999999998 Lambda2 0.7499999999999998 [dLambda -0.050000000000000044]
TCL: Setting parameter firsttimestep to 0
TCL: Setting parameter alchLambda to 0.7999999999999998
Info: NONBONDED TABLE R-SQUARED SPACING: 0.0625
Info: NONBONDED TABLE SIZE: 705 POINTS
TCL: Setting parameter alchLambda2 to 0.7499999999999998
Info: NONBONDED TABLE R-SQUARED SPACING: 0.0625
Info: NONBONDED TABLE SIZE: 705 POINTS
TCL: Running for 1500000 steps
ETITLE: TS BOND ANGLE DIHED IMPRP ELECT VDW BOUNDARY MISC KINETIC TOTAL TEMP POTENTIAL TOTALAVG TEMPAVG PRESSURE GPRESSURE VOLUME PRESSAVG GPRESSAVG
ENERGY: 0 0.4501 3.4849 0.2269 0.0000 -10803.2698 1430.0525 0.0000 0.0000 1724.7102 -7644.3451 293.2636 -9369.0553 -7644.3451 293.2636 -180.3835 -95.2155 30483.5756 -180.3835 -95.2155
ENERGY: 300000 0.8766 2.1506 0.1567 0.0000 -10837.4711 1492.0260 0.0000 0.0000 1781.5016 -7560.7597 302.9202 -9342.2612 -7606.9493 300.8710 337.0381 381.9606 30406.9534 -176.3833 -105.4774
ENERGY: 600000 1.2901 3.5479 1.9885 0.0000 -10667.6484 1411.9743 0.0000 0.0000 1781.4632 -7467.3844 302.9137 -9248.8475 -7576.7746 300.3596 12.7174 86.2095 30288.1017 -91.8117 -12.6806
ENERGY: 900000 1.0693 1.3975 1.6054 0.0000 -10905.7828 1426.7691 0.0000 0.0000 1764.2441 -7710.6973 299.9858 -9474.9415 -7606.6721 298.8603 -86.3203 -60.9661 29783.2408 -99.4651 -22.3155
ENERGY: 1200000 1.1418 2.1795 0.1751 0.0000 -10788.9928 1442.8202 0.0000 0.0000 1836.1274 -7506.5488 312.2086 -9342.6762 -7600.9997 299.7036 -224.8206 -167.9251 30957.2881 -127.3722 -49.9805
ENERGY: 1500000 1.7528 1.3412 0.0580 0.0000 -10717.0628 1421.0589 0.0000 0.0000 1774.2170 -7518.6349 301.6816 -9292.8518 -7590.4381 300.0101 -153.6098 -88.8969 30872.3620 -122.0246 -45.7399
TCL: Running FEP window   6: Lambda1 0.7499999999999998 Lambda2 0.6999999999999997 [dLambda -0.050000000000000044]
TCL: Setting parameter firsttimestep to 0
TCL: Setting parameter alchLambda to 0.7499999999999998
Info: NONBONDED TABLE R-SQUARED SPACING: 0.0625
Info: NONBONDED TABLE SIZE: 705 POINTS
TCL: Setting parameter alchLambda2 to 0.6999999999999997
Info: NONBONDED TABLE R-SQUARED SPACING: 0.0625
Info: NONBONDED TABLE SIZE: 705 POINTS
TCL: Running for 1500000 steps
ETITLE: TS BOND ANGLE DIHED IMPRP ELECT VDW BOUNDARY MISC KINETIC TOTAL TEMP POTENTIAL TOTALAVG TEMPAVG PRESSURE GPRESSURE VOLUME PRESSAVG GPRESSAVG
ENERGY: 0 1.7528 1.3412 0.0580 0.0000 -10715.6481 1420.3926 0.0000 0.0000 1773.3332 -7518.7702 301.5313 -9292.1034 -7518.7702 301.5313 -199.3021 -100.7207 30872.3620 -199.3021 -100.7207
ENERGY: 300000 2.8900 3.1895 0.0855 0.0000 -10749.0902 1406.0141 0.0000 0.0000 1823.6128 -7513.2983 310.0807 -9336.9111 -7528.6874 306.4482 -208.6263 -201.7097 30575.7298 -264.0643 -189.8811
ENERGY: 600000 1.7434 3.2388 1.0422 0.0000 -10868.5923 1463.7347 0.0000 0.0000 1700.4798 -7698.3534 289.1436 -9398.8332 -7547.0749 302.2608 -51.6481 -7.0052 30331.9036 -199.6972 -115.2151
ENERGY: 900000 2.8059 1.7084 0.1914 0.0000 -10800.9656 1488.6776 0.0000 0.0000 1756.3551 -7551.2271 298.6444 -9307.5822 -7554.3225 300.6691 238.0088 307.1948 30766.7662 -154.2934 -85.5994
ENERGY: 1200000 0.1996 4.1714 0.2453 0.0000 -10860.5259 1473.4518 0.0000 0.0000 1800.4456 -7582.0122 306.1414 -9382.4579 -7557.8077 301.1887 253.8838 311.1010 30350.1357 -94.8294 -29.2297
ENERGY: 1500000 2.3287 2.6492 2.4870 0.0000 -10753.3116 1457.0181 0.0000 0.0000 1740.9330 -7547.8957 296.0221 -9288.8286 -7561.4691 299.9097 356.5267 463.2694 30490.7029 12.5555 76.4859
TCL: Running FEP window   7: Lambda1 0.6999999999999997 Lambda2 0.6499999999999997 [dLambda -0.050000000000000044]
TCL: Setting parameter firsttimestep to 0
TCL: Setting parameter alchLambda to 0.6999999999999997
Info: NONBONDED TABLE R-SQUARED SPACING: 0.0625
Info: NONBONDED TABLE SIZE: 705 POINTS
TCL: Setting parameter alchLambda2 to 0.6499999999999997
Info: NONBONDED TABLE R-SQUARED SPACING: 0.0625
Info: NONBONDED TABLE SIZE: 705 POINTS
TCL: Running for 1500000 steps
ETITLE: TS BOND ANGLE DIHED IMPRP ELECT VDW BOUNDARY MISC KINETIC TOTAL TEMP POTENTIAL TOTALAVG TEMPAVG PRESSURE GPRESSURE VOLUME PRESSAVG GPRESSAVG
ENERGY: 0 2.3287 2.6492 2.4870 0.0000 -10751.7434 1455.2607 0.0000 0.0000 1740.0378 -7548.9799 295.8699 -9289.0177 -7548.9799 295.8699 354.3102 439.3538 30490.7029 354.3102 439.3538
ENERGY: 300000 1.7907 2.8719 1.4605 0.0000 -10881.7635 1529.8100 0.0000 0.0000 1838.1702 -7507.6601 312.5559 -9345.8302 -7524.2395 304.2562 579.1476 672.3582 30423.8354 252.1988 315.3495
ENERGY: 600000 1.8041 3.0224 0.7302 0.0000 -10872.4030 1519.5495 0.0000 0.0000 1758.9049 -7588.3920 299.0780 -9347.2969 -7533.6528 303.6815 538.2769 632.2110 30400.7852 248.7525 308.2346
ENERGY: 900000 1.2258 4.7386 0.3809 0.0000 -10796.2644 1430.0950 0.0000 0.0000 1747.4306 -7612.3935 297.1269 -9359.8240 -7556.0673 302.3352 -35.9671 -16.4649 30514.7179 147.1880 206.7168
ENERGY: 1200000 2.1698 2.8370 0.0676 0.0000 -10780.4814 1452.9429 0.0000 0.0000 1801.5273 -7520.9368 306.3253 -9322.4642 -7549.6269 301.9896 19.7129 55.2767 30678.4673 259.1819 318.6186
ENERGY: 1500000 0.6377 3.3347 0.6810 0.0000 -10782.4075 1430.0964 0.0000 0.0000 1804.0794 -7543.5784 306.7593 -9347.6577 -7556.0092 301.6069 -255.7880 -139.9983 30356.0421 222.5488 288.1573
TCL: Running FEP window   8: Lambda1 0.6499999999999997 Lambda2 0.5999999999999996 [dLambda -0.050000000000000044]
TCL: Setting parameter firsttimestep to 0
TCL: Setting parameter alchLambda to 0.6499999999999997
Info: NONBONDED TABLE R-SQUARED SPACING: 0.0625
Info: NONBONDED TABLE SIZE: 705 POINTS
TCL: Setting parameter alchLambda2 to 0.5999999999999996
Info: NONBONDED TABLE R-SQUARED SPACING: 0.0625
Info: NONBONDED TABLE SIZE: 705 POINTS
TCL: Running for 1500000 steps
ETITLE: TS BOND ANGLE DIHED IMPRP ELECT VDW BOUNDARY MISC KINETIC TOTAL TEMP POTENTIAL TOTALAVG TEMPAVG PRESSURE GPRESSURE VOLUME PRESSAVG GPRESSAVG
ENERGY: 0 0.6377 3.3347 0.6810 0.0000 -10779.6499 1429.5706 0.0000 0.0000 1803.2047 -7542.2213 306.6105 -9345.4260 -7542.2213 306.6105 -230.7926 -145.6006 30356.0421 -230.7926 -145.6006
ENERGY: 300000 2.6727 2.4363 0.3662 0.0000 -10782.0412 1448.6831 0.0000 0.0000 1770.8158 -7557.0671 301.1032 -9327.8830 -7560.2541 302.9248 14.2923 135.5907 30473.0068 -207.0183 -119.7253
ENERGY: 600000 2.2325 1.8592 0.0534 0.0000 -10907.1699 1528.9109 0.0000 0.0000 1696.4383 -7677.6755 288.4564 -9374.1139 -7580.9147 299.9176 420.4933 481.2965 30499.8785 -192.3993 -117.0162
ENERGY: 900000 1.0045 1.6025 0.5305 0.0000 -10821.5979 1463.1076 0.0000 0.0000 1721.5732 -7633.7797 292.7302 -9355.3529 -7595.0843 299.5604 -250.5891 -170.4432 30792.8843 -164.1460 -92.7929
ENERGY: 1200000 2.1655 2.2314 1.5179 0.0000 -10947.6420 1565.8174 0.0000 0.0000 1758.2788 -7617.6310 298.9715 -9375.9098 -7581.2368 300.4795 743.6627 911.1430 30423.7499 -78.0422 0.9221
ENERGY: 1500000 1.8278 4.0649 0.8084 0.0000 -10813.5645 1454.9677 0.0000 0.0000 1790.0333 -7561.8624 304.3709 -9351.8957 -7586.8285 301.1784 256.5487 274.0728 30506.6245 -29.8724 40.8736
TCL: Running FEP window   9: Lambda1 0.5999999999999996 Lambda2 0.5499999999999996 [dLambda -0.050000000000000044]
TCL: Setting parameter firsttimestep to 0
TCL: Setting parameter alchLambda to 0.5999999999999996
Info: NONBONDED TABLE R-SQUARED SPACING: 0.0625
Info: NONBONDED TABLE SIZE: 705 POINTS
TCL: Setting parameter alchLambda2 to 0.5499999999999996
Info: NONBONDED TABLE R-SQUARED SPACING: 0.0625
Info: NONBONDED TABLE SIZE: 705 POINTS
TCL: Running for 1500000 steps
ETITLE: TS BOND ANGLE DIHED IMPRP ELECT VDW BOUNDARY MISC KINETIC TOTAL TEMP POTENTIAL TOTALAVG TEMPAVG PRESSURE GPRESSURE VOLUME PRESSAVG GPRESSAVG
ENERGY: 0 1.8278 4.0649 0.8084 0.0000 -10812.7751 1455.3482 0.0000 0.0000 1789.1351 -7561.5907 304.2182 -9350.7258 -7561.5907 304.2182 202.6488 274.7995 30506.6245 202.6488 274.7995
ENERGY: 300000 2.2493 1.3503 0.0682 0.0000 -10767.3291 1456.1857 0.0000 0.0000 1767.2763 -7540.1994 300.5014 -9307.4756 -7535.5221 304.2304 -54.9902 -51.7591 30844.2914 -30.4577 53.5148
ENERGY: 600000 1.3695 2.7978 0.3373 0.0000 -10719.1282 1404.8821 0.0000 0.0000 1761.8922 -7547.8492 299.5859 -9309.7414 -7532.3446 304.2467 -272.6331 -173.7831 30501.1943 38.1625 127.6452
ENERGY: 900000 1.2310 2.6440 0.2768 0.0000 -10715.0394 1333.0491 0.0000 0.0000 1725.7824 -7652.0560 293.4459 -9377.8384 -7546.5167 302.3082 -1056.2936 -1006.4312 30654.0998 -174.6954 -98.7853
ENERGY: 1200000 0.5335 1.8864 0.7720 0.0000 -10715.4117 1342.9892 0.0000 0.0000 1772.4505 -7596.7799 301.3812 -9369.2305 -7548.5558 302.0828 -829.2705 -861.2800 30644.7477 -185.0070 -110.5595
ENERGY: 1500000 0.8757 1.9730 0.5249 0.0000 -10667.3976 1387.4352 0.0000 0.0000 1749.3825 -7527.2064 297.4588 -9276.5889 -7557.8037 301.2678 -579.2225 -534.6204 30974.5046 -183.0906 -109.6906
TCL: Running FEP window  10: Lambda1 0.5499999999999996 Lambda2 0.4999999999999996 [dLambda -0.04999999999999999]
TCL: Setting parameter firsttimestep to 0
TCL: Setting parameter alchLambda to 0.5499999999999996
Info: NONBONDED TABLE R-SQUARED SPACING: 0.0625
Info: NONBONDED TABLE SIZE: 705 POINTS
TCL: Setting parameter alchLambda2 to 0.4999999999999996
Info: NONBONDED TABLE R-SQUARED SPACING: 0.0625
Info: NONBONDED TABLE SIZE: 705 POINTS
TCL: Running for 1500000 steps
ETITLE: TS BOND ANGLE DIHED IMPRP ELECT VDW BOUNDARY MISC KINETIC TOTAL TEMP POTENTIAL TOTALAVG TEMPAVG PRESSURE GPRESSURE VOLUME PRESSAVG GPRESSAVG
ENERGY: 0 0.8757 1.9730 0.5249 0.0000 -10667.5405 1387.9145 0.0000 0.0000 1748.5164 -7527.7362 297.3115 -9276.2525 -7527.7362 297.3115 -607.4112 -537.4365 30974.5046 -607.4112 -537.4365
ENERGY: 300000 1.6005 2.2438 0.0771 0.0000 -10929.4177 1497.6949 0.0000 0.0000 1763.6508 -7664.1507 299.8849 -9427.8015 -7571.6061 301.3159 263.2655 255.1640 30100.1332 72.4979 126.1057
ENERGY: 600000 0.6200 5.1758 0.1387 0.0000 -10795.7782 1457.8208 0.0000 0.0000 1713.6603 -7618.3625 291.3847 -9332.0229 -7581.3324 300.8986 -225.6410 -129.0780 30884.6954 -84.2715 -19.4007
ENERGY: 900000 1.7788 3.2800 0.2439 0.0000 -10965.8806 1532.4160 0.0000 0.0000 1826.2701 -7601.8917 310.5325 -9428.1618 -7586.8571 300.4951 616.4491 643.3807 30110.0815 -84.1482 -24.8580
ENERGY: 1200000 2.4427 2.9413 0.0398 0.0000 -10943.8089 1520.6366 0.0000 0.0000 1737.6159 -7680.1326 295.4581 -9417.7486 -7593.8048 299.4093 801.5335 859.6449 29571.4949 19.1502 75.9493
ENERGY: 1500000 3.6610 3.4811 0.1053 0.0000 -10873.4463 1413.6764 0.0000 0.0000 1809.0545 -7643.4680 307.6052 -9452.5226 -7599.5647 299.6602 -177.9146 -119.3755 29920.8028 -24.7275 34.1562
TCL: Running FEP window  11: Lambda1 0.4999999999999996 Lambda2 0.4499999999999996 [dLambda -0.04999999999999999]
TCL: Setting parameter firsttimestep to 0
TCL: Setting parameter alchLambda to 0.4999999999999996
Info: NONBONDED TABLE R-SQUARED SPACING: 0.0625
Info: NONBONDED TABLE SIZE: 705 POINTS
TCL: Setting parameter alchLambda2 to 0.4499999999999996
Info: NONBONDED TABLE R-SQUARED SPACING: 0.0625
Info: NONBONDED TABLE SIZE: 705 POINTS
TCL: Running for 1500000 steps
ETITLE: TS BOND ANGLE DIHED IMPRP ELECT VDW BOUNDARY MISC KINETIC TOTAL TEMP POTENTIAL TOTALAVG TEMPAVG PRESSURE GPRESSURE VOLUME PRESSAVG GPRESSAVG
ENERGY: 0 3.6610 3.4811 0.1053 0.0000 -10873.4472 1413.8256 0.0000 0.0000 1808.1663 -7644.2079 307.4542 -9452.3742 -7644.2079 307.4542 -211.6669 -123.2323 29920.8028 -211.6669 -123.2323
ENERGY: 300000 0.5848 2.6573 0.8974 0.0000 -10635.0051 1385.5346 0.0000 0.0000 1756.6926 -7488.6384 298.7018 -9245.3310 -7595.4877 300.9450 -380.9784 -291.1882 30772.9781 159.1357 241.4701
ENERGY: 600000 0.5788 7.0310 0.1625 0.0000 -10896.6697 1539.9552 0.0000 0.0000 1768.4258 -7580.5164 300.6969 -9348.9422 -7582.4431 301.8239 615.7519 692.6500 30434.5152 197.9955 268.2437
ENERGY: 900000 1.2321 5.4665 0.3530 0.0000 -10742.2643 1368.4752 0.0000 0.0000 1759.4789 -7607.2585 299.1756 -9366.7374 -7581.3060 302.0260 -647.9504 -581.0925 30275.2661 107.7213 173.6360
ENERGY: 1200000 1.2830 4.0439 0.4709 0.0000 -10783.5054 1490.3454 0.0000 0.0000 1753.1070 -7534.2552 298.0921 -9287.3623 -7576.6985 301.4843 496.7630 548.1351 30403.2616 151.5217 215.3380
ENERGY: 1500000 2.0429 3.1578 0.1157 0.0000 -10741.6678 1390.6296 0.0000 0.0000 1780.7443 -7564.9777 302.7915 -9345.7220 -7578.7066 301.7125 -601.5221 -505.3522 30516.8013 130.2204 196.4898
TCL: Running FEP window  12: Lambda1 0.4499999999999996 Lambda2 0.39999999999999963 [dLambda -0.04999999999999999]
TCL: Setting parameter firsttimestep to 0
TCL: Setting parameter alchLambda to 0.4499999999999996
Info: NONBONDED TABLE R-SQUARED SPACING: 0.0625
Info: NONBONDED TABLE SIZE: 705 POINTS
TCL: Setting parameter alchLambda2 to 0.39999999999999963
Info: NONBONDED TABLE R-SQUARED SPACING: 0.0625
Info: NONBONDED TABLE SIZE: 705 POINTS
TCL: Running for 1500000 steps
ETITLE: TS BOND ANGLE DIHED IMPRP ELECT VDW BOUNDARY MISC KINETIC TOTAL TEMP POTENTIAL TOTALAVG TEMPAVG PRESSURE GPRESSURE VOLUME PRESSAVG GPRESSAVG
ENERGY: 0 2.0429 3.1578 0.1157 0.0000 -10741.6682 1391.0595 0.0000 0.0000 1779.8771 -7565.4154 302.6440 -9345.2925 -7565.4154 302.6440 -592.1931 -508.4128 30516.8013 -592.1931 -508.4128
ENERGY: 300000 0.9074 2.6386 0.0574 0.0000 -10808.2139 1473.2075 0.0000 0.0000 1790.8895 -7540.5137 304.5165 -9331.4032 -7548.3941 302.8462 446.4953 492.8305 30158.2299 -117.7261 -52.9287
ENERGY: 600000 0.7588 3.9978 0.0710 0.0000 -10773.0133 1440.6984 0.0000 0.0000 1787.2635 -7540.2239 303.9000 -9327.4874 -7537.4368 303.8671 193.2136 215.3267 30226.7774 105.1635 158.8821
ENERGY: 900000 4.0077 3.6572 0.0443 0.0000 -10901.0769 1516.6959 0.0000 0.0000 1685.3197 -7691.3521 286.5658 -9376.6718 -7550.0982 300.8975 386.0436 468.6504 30467.9028 102.3758 168.3041
ENERGY: 1200000 1.7162 3.6777 0.1289 0.0000 -10943.1926 1515.5731 0.0000 0.0000 1792.6779 -7629.4189 304.8206 -9422.0968 -7558.3449 300.9350 492.6126 587.6979 30012.9697 160.8574 227.3802
ENERGY: 1500000 1.4360 2.1354 0.0755 0.0000 -10824.7791 1489.8458 0.0000 0.0000 1760.9621 -7570.3243 299.4278 -9331.2864 -7557.7035 301.0310 326.8574 358.3084 30249.3683 149.8102 210.8754
TCL: Running FEP window  13: Lambda1 0.39999999999999963 Lambda2 0.34999999999999964 [dLambda -0.04999999999999999]
TCL: Setting parameter firsttimestep to 0
TCL: Setting parameter alchLambda to 0.39999999999999963
Info: NONBONDED TABLE R-SQUARED SPACING: 0.0625
Info: NONBONDED TABLE SIZE: 705 POINTS
TCL: Setting parameter alchLambda2 to 0.34999999999999964
Info: NONBONDED TABLE R-SQUARED SPACING: 0.0625
Info: NONBONDED TABLE SIZE: 705 POINTS
TCL: Running for 1500000 steps
ETITLE: TS BOND ANGLE DIHED IMPRP ELECT VDW BOUNDARY MISC KINETIC TOTAL TEMP POTENTIAL TOTALAVG TEMPAVG PRESSURE GPRESSURE VOLUME PRESSAVG GPRESSAVG
ENERGY: 0 1.4360 2.1354 0.0755 0.0000 -10824.7785 1490.1152 0.0000 0.0000 1760.1021 -7570.9144 299.2815 -9331.0164 -7570.9144 299.2815 267.2480 354.5129 30249.3683 267.2480 354.5129
ENERGY: 300000 0.5863 2.2462 0.0591 0.0000 -10794.3573 1484.3790 0.0000 0.0000 1766.8514 -7540.2353 300.4292 -9307.0867 -7611.0758 298.8835 596.2934 701.1320 30231.6421 344.3522 406.4023
ENERGY: 600000 1.5761 4.0088 0.3890 0.0000 -10864.9003 1445.9307 0.0000 0.0000 1786.4165 -7626.5793 303.7559 -9412.9958 -7600.7649 299.8369 -119.9431 -58.9369 30131.4429 57.1731 102.1433
ENERGY: 900000 0.3140 8.4697 0.4967 0.0000 -10718.3198 1366.6419 0.0000 0.0000 1803.8653 -7538.5322 306.7229 -9342.3975 -7574.1012 301.5543 -853.1448 -748.4438 30656.2860 -80.7256 -25.8746
ENERGY: 1200000 2.8278 4.5970 0.1474 0.0000 -10589.6313 1311.4143 0.0000 0.0000 1763.7536 -7506.8912 299.9024 -9270.6448 -7577.3687 301.2066 -882.0674 -814.4972 30454.5119 -78.7857 -13.8257
ENERGY: 1500000 2.1404 3.8969 0.9090 0.0000 -10759.3606 1458.2063 0.0000 0.0000 1764.1896 -7530.0184 299.9766 -9294.2080 -7578.2474 300.8943 473.6247 435.0272 30260.6497 48.4120 110.0888
TCL: Running FEP window  14: Lambda1 0.34999999999999964 Lambda2 0.29999999999999966 [dLambda -0.04999999999999999]
TCL: Setting parameter firsttimestep to 0
TCL: Setting parameter alchLambda to 0.34999999999999964
Info: NONBONDED TABLE R-SQUARED SPACING: 0.0625
Info: NONBONDED TABLE SIZE: 705 POINTS
TCL: Setting parameter alchLambda2 to 0.29999999999999966
Info: NONBONDED TABLE R-SQUARED SPACING: 0.0625
Info: NONBONDED TABLE SIZE: 705 POINTS
TCL: Running for 1500000 steps
ETITLE: TS BOND ANGLE DIHED IMPRP ELECT VDW BOUNDARY MISC KINETIC TOTAL TEMP POTENTIAL TOTALAVG TEMPAVG PRESSURE GPRESSURE VOLUME PRESSAVG GPRESSAVG
ENERGY: 0 2.1404 3.8969 0.9090 0.0000 -10759.3603 1458.0405 0.0000 0.0000 1763.3130 -7531.0605 299.8275 -9294.3735 -7531.0605 299.8275 348.1316 428.9894 30260.6497 348.1316 428.9894
ENERGY: 300000 1.3249 6.3265 0.0806 0.0000 -10744.6960 1395.6478 0.0000 0.0000 1757.2305 -7584.0857 298.7932 -9341.3162 -7578.1371 297.2136 -386.8217 -295.0969 30411.8122 -57.7037 36.2006
ENERGY: 600000 3.5687 1.9960 0.2714 0.0000 -10877.2518 1462.7065 0.0000 0.0000 1795.3884 -7613.3207 305.2815 -9408.7091 -7565.3213 299.1173 142.0337 254.5462 29943.1074 -228.0246 -150.7745
ENERGY: 900000 1.3017 2.3013 0.1009 0.0000 -10749.9334 1412.8706 0.0000 0.0000 1710.2905 -7623.0685 290.8117 -9333.3590 -7577.4959 298.8097 -153.9969 -40.8231 30341.4558 -171.6527 -101.2476
ENERGY: 1200000 2.3017 1.7438 0.1151 0.0000 -10717.6822 1358.5206 0.0000 0.0000 1819.8138 -7535.1872 309.4347 -9355.0010 -7569.8458 299.6262 -497.4765 -461.2164 30422.3654 -220.9401 -154.0048
ENERGY: 1500000 0.8384 3.3348 0.6222 0.0000 -10712.5109 1371.7199 0.0000 0.0000 1766.8658 -7569.1297 300.4316 -9335.9955 -7571.9991 299.5294 -469.9041 -445.3425 30513.4574 -307.5333 -243.9285
TCL: Running FEP window  15: Lambda1 0.29999999999999966 Lambda2 0.24999999999999967 [dLambda -0.04999999999999999]
TCL: Setting parameter firsttimestep to 0
TCL: Setting parameter alchLambda to 0.29999999999999966
Info: NONBONDED TABLE R-SQUARED SPACING: 0.0625
Info: NONBONDED TABLE SIZE: 705 POINTS
TCL: Setting parameter alchLambda2 to 0.24999999999999967
Info: NONBONDED TABLE R-SQUARED SPACING: 0.0625
Info: NONBONDED TABLE SIZE: 705 POINTS
TCL: Running for 1500000 steps
ETITLE: TS BOND ANGLE DIHED IMPRP ELECT VDW BOUNDARY MISC KINETIC TOTAL TEMP POTENTIAL TOTALAVG TEMPAVG PRESSURE GPRESSURE VOLUME PRESSAVG GPRESSAVG
ENERGY: 0 0.8384 3.3348 0.6222 0.0000 -10712.5108 1372.0352 0.0000 0.0000 1765.9926 -7569.6875 300.2831 -9335.6801 -7569.6875 300.2831 -539.9073 -447.0124 30513.4574 -539.9073 -447.0124
ENERGY: 300000 0.8959 5.7866 0.1016 0.0000 -10805.9595 1500.0023 0.0000 0.0000 1793.1645 -7506.0086 304.9033 -9299.1731 -7557.4943 300.1958 721.1589 788.9695 30181.1174 112.9266 162.2201
ENERGY: 600000 1.8919 3.1388 0.6509 0.0000 -10773.2235 1432.0759 0.0000 0.0000 1803.7225 -7531.7435 306.6986 -9335.4660 -7573.4368 301.1847 35.2438 69.8545 30224.5798 31.0429 74.1208
ENERGY: 900000 0.7500 3.4805 0.0371 0.0000 -10659.2968 1350.9383 0.0000 0.0000 1747.4374 -7556.6534 297.1281 -9304.0909 -7581.4048 299.5345 -658.1175 -621.3377 30753.0980 57.7356 95.1986
ENERGY: 1200000 0.8766 3.5920 0.2326 0.0000 -10780.0483 1497.4832 0.0000 0.0000 1719.3792 -7558.4848 292.3571 -9277.8640 -7582.5667 299.5149 615.2735 731.8430 30350.0917 157.1892 206.1028
ENERGY: 1500000 4.3162 4.0204 0.1179 0.0000 -10758.4283 1426.8642 0.0000 0.0000 1753.8147 -7569.2949 298.2124 -9323.1096 -7579.0186 299.7177 -209.3910 -132.3455 30525.8175 89.7886 137.8279
TCL: Running FEP window  16: Lambda1 0.24999999999999967 Lambda2 0.19999999999999968 [dLambda -0.04999999999999999]
TCL: Setting parameter firsttimestep to 0
TCL: Setting parameter alchLambda to 0.24999999999999967
Info: NONBONDED TABLE R-SQUARED SPACING: 0.0625
Info: NONBONDED TABLE SIZE: 705 POINTS
TCL: Setting parameter alchLambda2 to 0.19999999999999968
Info: NONBONDED TABLE R-SQUARED SPACING: 0.0625
Info: NONBONDED TABLE SIZE: 705 POINTS
TCL: Running for 1500000 steps
ETITLE: TS BOND ANGLE DIHED IMPRP ELECT VDW BOUNDARY MISC KINETIC TOTAL TEMP POTENTIAL TOTALAVG TEMPAVG PRESSURE GPRESSURE VOLUME PRESSAVG GPRESSAVG
ENERGY: 0 4.3162 4.0204 0.1179 0.0000 -10758.4288 1427.2219 0.0000 0.0000 1752.9426 -7569.8099 298.0641 -9322.7525 -7569.8099 298.0641 -224.9157 -132.4835 30525.8175 -224.9157 -132.4835
ENERGY: 300000 1.2491 8.7745 0.1412 0.0000 -10762.5951 1438.4802 0.0000 0.0000 1718.2708 -7595.6793 292.1687 -9313.9501 -7554.1071 298.5127 159.6612 167.9780 30182.9141 -127.8164 -68.4017
ENERGY: 600000 1.4158 7.9459 0.1060 0.0000 -10776.3295 1444.1873 0.0000 0.0000 1729.2131 -7593.4613 294.0293 -9322.6744 -7551.5423 298.9012 -18.6448 67.5681 30581.1848 194.2799 258.0663
ENERGY: 900000 0.3777 4.2367 0.1097 0.0000 -10822.4479 1452.0263 0.0000 0.0000 1754.9738 -7610.7237 298.4095 -9365.6974 -7559.2445 299.6843 -526.0711 -464.9186 31259.6174 154.2626 209.2078
ENERGY: 1200000 2.5585 2.2252 1.1493 0.0000 -10861.4645 1464.0466 0.0000 0.0000 1773.8287 -7617.6564 301.6155 -9391.4851 -7565.5607 300.2045 -328.4139 -252.8222 30801.2875 22.2284 82.8212
ENERGY: 1500000 2.6667 3.4942 1.7695 0.0000 -10819.1843 1432.9947 0.0000 0.0000 1840.6093 -7537.6499 312.9707 -9378.2591 -7556.9867 301.7136 -184.4367 -54.1846 30129.0385 -17.6981 48.0065
TCL: Running FEP window  17: Lambda1 0.19999999999999968 Lambda2 0.1499999999999997 [dLambda -0.04999999999999999]
TCL: Setting parameter firsttimestep to 0
TCL: Setting parameter alchLambda to 0.19999999999999968
Info: NONBONDED TABLE R-SQUARED SPACING: 0.0625
Info: NONBONDED TABLE SIZE: 705 POINTS
TCL: Setting parameter alchLambda2 to 0.1499999999999997
Info: NONBONDED TABLE R-SQUARED SPACING: 0.0625
Info: NONBONDED TABLE SIZE: 705 POINTS
TCL: Running for 1500000 steps
ETITLE: TS BOND ANGLE DIHED IMPRP ELECT VDW BOUNDARY MISC KINETIC TOTAL TEMP POTENTIAL TOTALAVG TEMPAVG PRESSURE GPRESSURE VOLUME PRESSAVG GPRESSAVG
ENERGY: 0 2.6667 3.4942 1.7695 0.0000 -10819.1847 1433.2416 0.0000 0.0000 1839.7074 -7538.3053 312.8173 -9378.0127 -7538.3053 312.8173 -142.4483 -58.2694 30129.0385 -142.4483 -58.2694
ENERGY: 300000 0.8259 3.4391 1.8312 0.0000 -10881.2412 1507.6567 0.0000 0.0000 1758.3881 -7609.1002 298.9901 -9367.4883 -7553.5692 300.1437 214.6582 274.6804 30634.8044 21.5526 94.7929
ENERGY: 600000 1.0685 3.3637 0.0131 0.0000 -10764.3423 1382.9171 0.0000 0.0000 1757.0870 -7619.8929 298.7688 -9376.9800 -7567.0124 299.7474 -809.9049 -771.6873 30515.4000 -76.1052 -2.7987
ENERGY: 900000 1.1677 5.4358 0.5413 0.0000 -10874.1508 1449.8389 0.0000 0.0000 1749.0597 -7668.1074 297.4039 -9417.1671 -7591.9095 298.0120 -157.8245 -89.4886 30264.7717 -2.6100 66.3335
ENERGY: 1200000 0.8560 2.6553 0.2166 0.0000 -10796.4762 1465.5680 0.0000 0.0000 1748.9264 -7578.2539 297.3812 -9327.1803 -7593.4726 298.2434 125.8698 160.4179 30444.2827 -24.4903 36.9509
ENERGY: 1500000 0.8757 2.9368 0.5504 0.0000 -10761.7257 1377.7260 0.0000 0.0000 1788.5423 -7591.0944 304.1174 -9379.6367 -7584.1699 298.9950 -941.4135 -889.5781 30966.7180 -176.3950 -114.2618
TCL: Running FEP window  18: Lambda1 0.1499999999999997 Lambda2 0.09999999999999969 [dLambda -0.05 ]
TCL: Setting parameter firsttimestep to 0
TCL: Setting parameter alchLambda to 0.1499999999999997
Info: NONBONDED TABLE R-SQUARED SPACING: 0.0625
Info: NONBONDED TABLE SIZE: 705 POINTS
TCL: Setting parameter alchLambda2 to 0.09999999999999969
Info: NONBONDED TABLE R-SQUARED SPACING: 0.0625
Info: NONBONDED TABLE SIZE: 705 POINTS
TCL: Running for 1500000 steps
ETITLE: TS BOND ANGLE DIHED IMPRP ELECT VDW BOUNDARY MISC KINETIC TOTAL TEMP POTENTIAL TOTALAVG TEMPAVG PRESSURE GPRESSURE VOLUME PRESSAVG GPRESSAVG
ENERGY: 0 0.8757 2.9368 0.5504 0.0000 -10761.7252 1377.2261 0.0000 0.0000 1787.6786 -7592.4576 303.9705 -9380.1362 -7592.4576 303.9705 -978.0476 -892.9405 30966.7180 -978.0476 -892.9405
ENERGY: 300000 0.6858 4.4914 0.5836 0.0000 -10813.3578 1420.1657 0.0000 0.0000 1746.6258 -7640.8055 296.9901 -9387.4312 -7599.7105 300.8726 -479.9367 -404.0360 30322.0624 -274.4593 -214.4058
ENERGY: 600000 1.0157 2.3563 0.2738 0.0000 -10984.4990 1525.1898 0.0000 0.0000 1729.5301 -7726.1333 294.0832 -9455.6634 -7639.0795 298.2889 341.2493 411.6486 30122.8015 -245.9395 -183.7638
ENERGY: 900000 0.4263 3.9642 0.0344 0.0000 -10662.7252 1390.1308 0.0000 0.0000 1761.4967 -7506.6728 299.5186 -9268.1694 -7622.1236 297.5202 -369.9225 -318.5891 30756.9978 -278.2953 -212.0779
ENERGY: 1200000 0.2411 1.8201 0.3967 0.0000 -10896.9547 1459.8068 0.0000 0.0000 1740.6886 -7694.0013 295.9805 -9434.6899 -7621.0052 296.9971 -178.9046 -119.9679 30121.5306 -238.1870 -174.7198
ENERGY: 1500000 3.1648 3.3137 0.3608 0.0000 -10770.2322 1458.9156 0.0000 0.0000 1754.7987 -7549.6786 298.3798 -9304.4773 -7618.1949 297.0723 37.9471 155.5651 30576.9832 -146.4844 -77.3289
TCL: Running FEP window  19: Lambda1 0.09999999999999969 Lambda2 0.049999999999999684 [dLambda -0.05 ]
TCL: Setting parameter firsttimestep to 0
TCL: Setting parameter alchLambda to 0.09999999999999969
Info: NONBONDED TABLE R-SQUARED SPACING: 0.0625
Info: NONBONDED TABLE SIZE: 705 POINTS
TCL: Setting parameter alchLambda2 to 0.049999999999999684
Info: NONBONDED TABLE R-SQUARED SPACING: 0.0625
Info: NONBONDED TABLE SIZE: 705 POINTS
TCL: Running for 1500000 steps
ETITLE: TS BOND ANGLE DIHED IMPRP ELECT VDW BOUNDARY MISC KINETIC TOTAL TEMP POTENTIAL TOTALAVG TEMPAVG PRESSURE GPRESSURE VOLUME PRESSAVG GPRESSAVG
ENERGY: 0 3.1648 3.3137 0.3608 0.0000 -10770.2315 1458.5419 0.0000 0.0000 1753.9176 -7550.9328 298.2299 -9304.8503 -7550.9328 298.2299 92.8486 153.0814 30576.9832 92.8486 153.0814
ENERGY: 300000 3.6360 3.3489 0.0944 0.0000 -10771.0396 1416.6031 0.0000 0.0000 1758.1887 -7589.1685 298.9562 -9347.3571 -7546.7206 303.1041 -165.1186 -163.4692 30578.8599 -244.2532 -185.5519
ENERGY: 600000 0.7496 3.9805 0.2509 0.0000 -10740.8518 1443.2487 0.0000 0.0000 1708.5131 -7584.1089 290.5095 -9292.6220 -7554.1709 300.8049 237.2053 379.4527 29970.8486 -106.3767 -36.7159
ENERGY: 900000 1.7802 5.1755 0.4799 0.0000 -10688.5828 1414.8611 0.0000 0.0000 1733.7661 -7532.5201 294.8034 -9266.2861 -7550.9376 300.6601 -270.9017 -198.1314 30733.5808 -142.5876 -75.0172
ENERGY: 1200000 3.3210 6.3432 0.0843 0.0000 -10788.6248 1451.5243 0.0000 0.0000 1758.6388 -7568.7131 299.0327 -9327.3519 -7554.4439 301.3491 118.3058 209.3408 30445.0119 -77.0748 -12.5219
ENERGY: 1500000 1.8947 2.9101 0.5317 0.0000 -10653.3843 1406.8387 0.0000 0.0000 1739.7762 -7501.4330 295.8254 -9241.2092 -7562.4379 300.8895 8.7158 50.6700 30401.2784 -88.1128 -28.3958
TCL: Running FEP window  20: Lambda1 0.049999999999999684 Lambda2 0.0    [dLambda -0.049999999999999684]
TCL: Setting parameter firsttimestep to 0
TCL: Setting parameter alchLambda to 0.049999999999999684
Info: NONBONDED TABLE R-SQUARED SPACING: 0.0625
Info: NONBONDED TABLE SIZE: 705 POINTS
TCL: Setting parameter alchLambda2 to 0.0
Info: NONBONDED TABLE R-SQUARED SPACING: 0.0625
Info: NONBONDED TABLE SIZE: 705 POINTS
TCL: Running for 1500000 steps
ETITLE: TS BOND ANGLE DIHED IMPRP ELECT VDW BOUNDARY MISC KINETIC TOTAL TEMP POTENTIAL TOTALAVG TEMPAVG PRESSURE GPRESSURE VOLUME PRESSAVG GPRESSAVG
ENERGY: 0 1.8947 2.9101 0.5317 0.0000 -10653.3852 1406.8435 0.0000 0.0000 1738.8715 -7502.3337 295.6716 -9241.2053 -7502.3337 295.6716 -25.3505 49.9259 30401.2784 -25.3505 49.9259
ENERGY: 300000 2.2772 2.8676 0.3286 0.0000 -10824.8467 1447.0768 0.0000 0.0000 1756.3273 -7615.9693 298.6397 -9372.2966 -7562.4858 301.3414 76.6829 71.4790 30195.7100 -92.5727 -61.7851
ENERGY: 600000 0.7211 5.7611 0.1085 0.0000 -10724.8409 1386.6905 0.0000 0.0000 1769.6207 -7561.9391 300.9000 -9331.5598 -7563.7268 299.2670 -460.2663 -424.1557 30491.8754 -315.2131 -260.8532
ENERGY: 900000 0.8612 2.6092 0.0350 0.0000 -10781.2167 1496.9306 0.0000 0.0000 1826.2685 -7454.5122 310.5322 -9280.7807 -7554.8610 300.4601 767.5257 773.1614 30227.9630 -147.8291 -101.5062
ENERGY: 1200000 0.8538 1.9593 0.6801 0.0000 -10742.7901 1407.7339 0.0000 0.0000 1793.9066 -7537.6564 305.0295 -9331.5630 -7550.7342 300.3340 -348.5420 -249.4508 30330.3457 -208.4933 -159.7553
ENERGY: 1500000 1.1229 3.5438 0.0808 0.0000 -10846.5932 1512.6594 0.0000 0.0000 1762.1638 -7567.0225 299.6321 -9329.1863 -7548.0167 300.7654 513.0718 616.7994 30204.7207 -240.3396 -187.7346
TCL: Exiting due to exit command.
