Info: SIMULATION PARAMETERS:
Info: TIMESTEP               2
Info: NUMBER OF STEPS        0
Info: STEPS PER CYCLE        10
Info: PERIODIC CELL BASIS 1  31.8329 0 0
Info: PERIODIC CELL BASIS 2  0 30.6756 0
Info: PERIODIC CELL BASIS 3  0 0 31.5836
Info: PERIODIC CELL CENTER   0 0 0
Info: WRAPPING WATERS AROUND PERIODIC BOUNDARIES ON OUTPUT.
Info: WRAPPING ALL CLUSTERS AROUND PERIODIC BOUNDARIES ON OUTPUT.
Info: FIRST LDB TIMESTEP     50
Info: LAST LDB TIMESTEP     -1
Info: HOM BACKGROUND SCALING 1
Info: PME BACKGROUND SCALING 1
Info: MIN ATOMS PER PATCH    40
Info: EMPTY PATCH LOAD       40 ATOMS
Info: VELOCITY FILE          mobley_6714389_equil.vel
Info: CENTER OF MASS MOVING INITIALLY? NO
Info: DIELECTRIC             1
Info: EXCLUDE                SCALED ONE-FOUR
Info: 1-4 ELECTROSTATICS SCALED BY 0.833333
Info: MODIFIED 1-4 VDW PARAMETERS WILL BE USED
Info: DCD FILENAME           mobley_6714389_prod.dcd
Info: DCD FREQUENCY          100000
Info: DCD FIRST STEP         100000
Info: DCD FILE WILL CONTAIN UNIT CELL DATA
Info: XST FILENAME           mobley_6714389_prod.xst
Info: XST FREQUENCY          100000
Info: NO VELOCITY DCD OUTPUT
Info: NO FORCE DCD OUTPUT
Info: OUTPUT FILENAME        mobley_6714389_prod
Info: BINARY OUTPUT FILES WILL BE USED
Info: RESTART FILENAME       mobley_6714389_prod.restart
Info: RESTART FREQUENCY      100000
Info: BINARY RESTART FILES WILL BE USED
Info: CUTOFF                 9
Info: PAIRLIST DISTANCE      11
Info: PAIRLIST SHRINK RATE   0.01
Info: PAIRLIST GROW RATE     0.01
Info: PAIRLIST TRIGGER       0.3
Info: PAIRLISTS PER CYCLE    2
Info: PAIRLISTS ENABLED
Info: MARGIN                 2
Info: HYDROGEN GROUP CUTOFF  2.5
Info: PATCH DIMENSION        15.5
Info: ENERGY OUTPUT STEPS    100000
Info: ENERGY EVALUATION STEPS    100000
Info: OUTPUT ENERGY PRECISION 4
Info: CROSSTERM ENERGY INCLUDED IN DIHEDRAL
Info: TIMING OUTPUT STEPS    1000000
Info: PRESSURE OUTPUT STEPS  100000
Info: ALCHEMICAL FEP ON
Info: FEP CURRENT LAMBDA VALUE     1
Info: FEP COMPARISON LAMBDA VALUE  0.95
Info: FEP INTRA-ALCHEMICAL NON-BONDED INTERACTIONS WILL BE RETAINED
Info: FEP INTRA-ALCHEMICAL BONDED INTERACTIONS WILL BE RETAINED
Info: FEP VDW SHIFTING COEFFICIENT 5
Info: FEP ELEC. ACTIVE FOR ANNIHILATED PARTICLES BETWEEN LAMBDA = 0 AND LAMBDA = 0.5
Info: FEP ELEC. ACTIVE FOR EXNIHILATED PARTICLES BETWEEN LAMBDA = 0.5 AND LAMBDA = 1
Info: FEP VDW ACTIVE FOR ANNIHILATED PARTICLES BETWEEN LAMBDA = 0 AND LAMBDA = 1
Info: FEP VDW ACTIVE FOR EXNIHILATED PARTICLES BETWEEN LAMBDA = 0 AND LAMBDA = 1
Info: FEP BOND ACTIVE FOR ANNIHILATED PARTICLES BETWEEN LAMBDA = 1 AND LAMBDA = 1
Info: FEP BOND ACTIVE FOR EXNIHILATED PARTICLES BETWEEN LAMBDA = 0 AND LAMBDA = 0
Info: LANGEVIN DYNAMICS ACTIVE
Info: LANGEVIN TEMPERATURE   300
Info: LANGEVIN USING BBK INTEGRATOR
Info: LANGEVIN DAMPING COEFFICIENT IS 1 INVERSE PS
Info: LANGEVIN DYNAMICS APPLIED TO HYDROGENS
Info: LANGEVIN PISTON PRESSURE CONTROL ACTIVE
Info:        TARGET PRESSURE IS 1.01325 BAR
Info:     OSCILLATION PERIOD IS 50 FS
Info:             DECAY TIME IS 25 FS
Info:     PISTON TEMPERATURE IS 300 K
Info:       PRESSURE CONTROL IS GROUP-BASED
Info:    INITIAL STRAIN RATE IS 9.33542e-05 9.33542e-05 9.33542e-05
Info:       CELL FLUCTUATION IS ISOTROPIC
Info: PARTICLE MESH EWALD (PME) ACTIVE
Info: PME TOLERANCE               1e-06
Info: PME EWALD COEFFICIENT       0.348832
Info: PME INTERPOLATION ORDER     4
Info: PME GRID DIMENSIONS         32 32 32
Info: PME MAXIMUM GRID SPACING    1
Info: PME CALCULATION WILL BE PERFORMED ON GPU
Info: FULL ELECTROSTATIC EVALUATION FREQUENCY      2
Info: USING VERLET I (r-RESPA) MTS SCHEME.
Info: C1 SPLITTING OF LONG RANGE ELECTROSTATICS
Info: PLACING ATOMS IN PATCHES BY HYDROGEN GROUPS
Info: RIGID BONDS TO HYDROGEN : ALL
Info:         ERROR TOLERANCE : 1e-08
Info:          MAX ITERATIONS : 100
Info: RIGID WATER USING SETTLE ALGORITHM
Info: RANDOM NUMBER SEED     1743495925
Info: USE HYDROGEN BONDS?    NO
Info: Using AMBER format force field!
Info: AMBER PARM FILE        mobley_6714389.prmtop
Info: COORDINATE PDB         mobley_6714389.pdb
Info: Exclusions will be read from PARM file!
Info: SCNB (VDW SCALING)     2
Info: USING ARITHMETIC MEAN TO COMBINE L-J SIGMA PARAMETERS
Info: BINARY COORDINATES     mobley_6714389_equil.coor
Info: SUMMARY OF PARAMETERS:
Info: 5 BONDS
Info: 4 ANGLES
Info:   4 HARMONIC
Info:   0 COSINE-BASED
Info: 1 DIHEDRAL
Info: 0 IMPROPER
Info: 0 CROSSTERM
Info: 0 VDW
Info: 21 VDW_PAIRS
Info: 0 NBTHOLE_PAIRS
Info: To read alchdata from file: mobley_6714389.pdb
Info: To read alchflag data from column: 5
Info: STRUCTURE SUMMARY:
Info: 2974 ATOMS
Info: 2973 BONDS
Info: 9 ANGLES
Info: 6 DIHEDRALS
Info: 0 IMPROPERS
Info: 0 CROSSTERMS
Info: 2988 EXCLUSIONS
Info: 2972 RIGID BONDS
Info: ALCH: 0 ATOMS TO DISAPPEAR IN FINAL STATE
Info: ALCH: 7 ATOMS TO APPEAR IN FINAL STATE
Info: 5950 DEGREES OF FREEDOM
Info: 991 HYDROGEN GROUPS
Info: 4 ATOMS IN LARGEST HYDROGEN GROUP
Info: 991 MIGRATION GROUPS
Info: 4 ATOMS IN LARGEST MIGRATION GROUP
Info: TOTAL MASS = 17848.9 amu
Info: TOTAL CHARGE = 0.000100093 e
Info: MASS DENSITY = 0.961039 g/cm^3
Info: ATOM DENSITY = 0.0964299 atoms/A^3
Info: ADDED 0 IMPLICIT EXCLUSIONS
Info: NONBONDED TABLE R-SQUARED SPACING: 0.0625
Info: NONBONDED TABLE SIZE: 705 POINTS
Info: REMOVING COM VELOCITY 0.0312469 0.0584115 0.24579
Info: Use 3D box decompostion in PME FFT.
Info: Updated CUDA force table with 4096 elements.
Info: Updated CUDA LJ table with 6 x 6 elements.
Info: Found 10 unique exclusion lists needing 12 bytes
TCL: Running for 1500000 steps
ETITLE: TS BOND ANGLE DIHED IMPRP ELECT VDW BOUNDARY MISC KINETIC TOTAL TEMP POTENTIAL TOTALAVG TEMPAVG PRESSURE GPRESSURE VOLUME PRESSAVG GPRESSAVG
ENERGY: 0 0.2225 1.6780 0.2106 0.0000 -10821.7139 1496.8432 0.0000 0.0000 1747.6434 -7575.1162 295.6148 -9322.7596 -7575.1162 295.6148 278.1527 352.3822 30841.0635 278.1527 352.3822
ENERGY: 300000 0.3109 2.8941 0.5961 0.0000 -10740.2390 1443.4287 0.0000 0.0000 1794.4470 -7498.5622 303.5317 -9293.0092 -7548.0694 298.8101 189.4944 247.0614 30399.6911 -97.2675 -39.6088
ENERGY: 600000 0.0679 2.8428 0.1069 0.0000 -10725.2257 1422.3679 0.0000 0.0000 1747.1504 -7552.6900 295.5314 -9299.8403 -7561.8214 297.8601 -465.3631 -328.4885 31180.4709 -141.0186 -73.5440
ENERGY: 900000 0.0296 4.9174 0.0563 0.0000 -10670.1473 1331.3230 0.0000 0.0000 1790.8311 -7542.9900 302.9201 -9333.8211 -7572.7267 298.8390 -913.8608 -845.9692 30671.9906 -131.7904 -65.1632
ENERGY: 1200000 0.7942 1.3914 0.4693 0.0000 -10790.4259 1417.6638 0.0000 0.0000 1774.9196 -7595.1877 300.2286 -9370.1073 -7576.7801 299.5684 -291.1636 -230.1129 30536.4117 -114.6963 -50.7181
ENERGY: 1500000 0.7639 2.0706 0.4523 0.0000 -10901.9782 1503.5747 0.0000 0.0000 1791.6536 -7603.4631 303.0592 -9395.1167 -7580.4656 299.9268 529.6420 592.5459 30077.3899 -63.8316 -1.2419
TCL: Running FEP window   2: Lambda1 0.95   Lambda2 0.8999999999999999 [dLambda -0.050000000000000044]
TCL: Setting parameter firsttimestep to 0
TCL: Setting parameter alchLambda to 0.95
Info: NONBONDED TABLE R-SQUARED SPACING: 0.0625
Info: NONBONDED TABLE SIZE: 705 POINTS
TCL: Setting parameter alchLambda2 to 0.8999999999999999
Info: NONBONDED TABLE R-SQUARED SPACING: 0.0625
Info: NONBONDED TABLE SIZE: 705 POINTS
TCL: Running for 1500000 steps
ETITLE: TS BOND ANGLE DIHED IMPRP ELECT VDW BOUNDARY MISC KINETIC TOTAL TEMP POTENTIAL TOTALAVG TEMPAVG PRESSURE GPRESSURE VOLUME PRESSAVG GPRESSAVG
ENERGY: 0 0.7639 2.0706 0.4523 0.0000 -10900.0128 1502.4711 0.0000 0.0000 1790.7858 -7603.4692 302.9124 -9394.2550 -7603.4692 302.9124 489.5893 574.7448 30077.3899 489.5893 574.7448
ENERGY: 300000 0.4327 1.9525 0.9937 0.0000 -10770.8327 1438.6374 0.0000 0.0000 1715.5587 -7613.2577 290.1877 -9328.8165 -7597.7363 296.3476 -50.5355 -0.8492 30532.5082 -141.1093 -52.8104
ENERGY: 600000 0.2339 3.9961 0.6012 0.0000 -10873.0177 1490.7918 0.0000 0.0000 1747.1146 -7630.2801 295.5254 -9377.3947 -7567.3052 299.0638 187.5112 224.1994 30389.7953 -227.1961 -155.1023
ENERGY: 900000 0.0147 3.4405 0.0494 0.0000 -10685.1861 1350.9682 0.0000 0.0000 1786.4845 -7544.2288 302.1848 -9330.7133 -7576.8093 299.5129 -920.1563 -860.2097 31049.9349 -357.3328 -288.5704
ENERGY: 1200000 0.4268 4.6067 0.1173 0.0000 -10887.9318 1493.5017 0.0000 0.0000 1691.6005 -7697.6788 286.1352 -9389.2794 -7591.8828 298.8550 124.0757 174.7675 30657.9484 -348.9904 -276.6528
ENERGY: 1500000 0.0820 1.1926 0.3125 0.0000 -10847.2925 1439.0040 0.0000 0.0000 1753.8524 -7652.8490 296.6651 -9406.7014 -7589.1018 298.5769 -250.4803 -187.2194 30434.1312 -254.8279 -183.9661
TCL: Running FEP window   3: Lambda1 0.8999999999999999 Lambda2 0.8499999999999999 [dLambda -0.050000000000000044]
TCL: Setting parameter firsttimestep to 0
TCL: Setting parameter alchLambda to 0.8999999999999999
Info: NONBONDED TABLE R-SQUARED SPACING: 0.0625
Info: NONBONDED TABLE SIZE: 705 POINTS
TCL: Setting parameter alchLambda2 to 0.8499999999999999
Info: NONBONDED TABLE R-SQUARED SPACING: 0.0625
Info: NONBONDED TABLE SIZE: 705 POINTS
TCL: Running for 1500000 steps
ETITLE: TS BOND ANGLE DIHED IMPRP ELECT VDW BOUNDARY MISC KINETIC TOTAL TEMP POTENTIAL TOTALAVG TEMPAVG PRESSURE GPRESSURE VOLUME PRESSAVG GPRESSAVG
ENERGY: 0 0.0820 1.1926 0.3125 0.0000 -10845.5074 1437.7993 0.0000 0.0000 1752.9681 -7653.1529 296.5155 -9406.1209 -7653.1529 296.5155 -290.9829 -202.4022 30434.1312 -290.9829 -202.4022
ENERGY: 300000 0.6580 3.1885 0.1543 0.0000 -10816.4890 1434.6562 0.0000 0.0000 1794.5302 -7583.3018 303.5458 -9377.8320 -7570.5853 299.4611 -98.5128 -7.9371 30398.7857 -483.7093 -427.9515
ENERGY: 600000 0.0133 1.0373 0.1159 0.0000 -10817.8670 1462.1468 0.0000 0.0000 1802.0089 -7552.5449 304.8108 -9354.5538 -7561.4762 299.2266 -232.5002 -167.8740 31287.0254 -279.1124 -231.5827
ENERGY: 900000 0.0351 1.5651 0.2733 0.0000 -10721.6273 1410.7161 0.0000 0.0000 1744.5876 -7564.4501 295.0980 -9309.0377 -7580.3633 298.3807 -293.1877 -290.8855 30654.1181 -239.9618 -191.5808
ENERGY: 1200000 0.0120 1.8450 1.7733 0.0000 -10666.0748 1408.2486 0.0000 0.0000 1755.5001 -7498.6958 296.9438 -9254.1959 -7569.7317 298.5232 -181.0823 -175.4219 31026.4820 -180.4309 -130.7955
ENERGY: 1500000 1.1887 2.9805 0.4536 0.0000 -10762.8060 1422.3441 0.0000 0.0000 1870.0922 -7465.7469 316.3271 -9335.8391 -7567.3823 299.5510 -39.8473 45.4998 30429.3737 -205.1177 -149.4057
TCL: Running FEP window   4: Lambda1 0.8499999999999999 Lambda2 0.7999999999999998 [dLambda -0.050000000000000044]
TCL: Setting parameter firsttimestep to 0
TCL: Setting parameter alchLambda to 0.8499999999999999
Info: NONBONDED TABLE R-SQUARED SPACING: 0.0625
Info: NONBONDED TABLE SIZE: 705 POINTS
TCL: Setting parameter alchLambda2 to 0.7999999999999998
Info: NONBONDED TABLE R-SQUARED SPACING: 0.0625
Info: NONBONDED TABLE SIZE: 705 POINTS
TCL: Running for 1500000 steps
ETITLE: TS BOND ANGLE DIHED IMPRP ELECT VDW BOUNDARY MISC KINETIC TOTAL TEMP POTENTIAL TOTALAVG TEMPAVG PRESSURE GPRESSURE VOLUME PRESSAVG GPRESSAVG
ENERGY: 0 1.1887 2.9805 0.4536 0.0000 -10760.9176 1420.5142 0.0000 0.0000 1869.2374 -7466.5431 316.1825 -9335.7805 -7466.5431 316.1825 -60.0611 24.6988 30429.3737 -60.0611 24.6988
ENERGY: 300000 0.8862 2.3503 0.1007 0.0000 -10726.5648 1452.7438 0.0000 0.0000 1741.2520 -7529.2318 294.5337 -9270.4838 -7546.0417 300.3655 -244.4999 -143.6549 31264.7915 112.4323 205.6623
ENERGY: 600000 0.2916 1.0498 0.0680 0.0000 -10892.9306 1507.9997 0.0000 0.0000 1743.8118 -7639.7096 294.9667 -9383.5215 -7562.0302 300.7310 310.7248 360.8940 30434.2505 38.0026 107.3058
ENERGY: 900000 0.2666 1.2375 0.1895 0.0000 -10781.8858 1415.0706 0.0000 0.0000 1752.9906 -7612.1310 296.5193 -9365.1216 -7557.3740 300.0778 -516.8219 -530.2609 30794.6892 -90.6550 -26.6375
ENERGY: 1200000 0.0525 1.7247 0.0080 0.0000 -10936.5369 1511.7627 0.0000 0.0000 1742.8402 -7680.1487 294.8024 -9422.9889 -7572.7141 299.1416 222.5238 261.6951 30497.2771 -110.3941 -57.0936
ENERGY: 1500000 0.5564 2.3236 0.5230 0.0000 -10655.0845 1345.4547 0.0000 0.0000 1768.5989 -7537.6279 299.1595 -9306.2268 -7576.9485 298.1567 -615.6326 -688.5051 30838.9798 -158.4065 -114.9662
TCL: Running FEP window   5: Lambda1 0.7999999999999998 Lambda2 0.7499999999999998 [dLambda -0.050000000000000044]
TCL: Setting parameter firsttimestep to 0
TCL: Setting parameter alchLambda to 0.7999999999999998
Info: NONBONDED TABLE R-SQUARED SPACING: 0.0625
Info: NONBONDED TABLE SIZE: 705 POINTS
TCL: Setting parameter alchLambda2 to 0.7499999999999998
Info: NONBONDED TABLE R-SQUARED SPACING: 0.0625
Info: NONBONDED TABLE SIZE: 705 POINTS
TCL: Running for 1500000 steps
ETITLE: TS BOND ANGLE DIHED IMPRP ELECT VDW BOUNDARY MISC KINETIC TOTAL TEMP POTENTIAL TOTALAVG TEMPAVG PRESSURE GPRESSURE VOLUME PRESSAVG GPRESSAVG
ENERGY: 0 0.5564 2.3236 0.5230 0.0000 -10654.5555 1345.2407 0.0000 0.0000 1767.6949 -7538.2169 299.0066 -9305.9118 -7538.2169 299.0066 -784.2343 -694.0282 30838.9798 -784.2343 -694.0282
ENERGY: 300000 0.0023 1.5725 0.1223 0.0000 -10689.6489 1363.4265 0.0000 0.0000 1802.5764 -7521.9489 304.9068 -9324.5253 -7539.5341 300.0096 -551.4582 -489.9569 30577.0704 -275.7565 -191.9421
ENERGY: 600000 0.0749 2.1787 0.1353 0.0000 -10901.8061 1552.9209 0.0000 0.0000 1753.4072 -7593.0890 296.5898 -9346.4963 -7568.2164 298.4414 847.9502 938.4942 30350.9637 -102.9546 -20.2366
ENERGY: 900000 0.0561 1.3061 0.1610 0.0000 -10795.1528 1464.6761 0.0000 0.0000 1744.2364 -7584.7170 295.0386 -9328.9534 -7580.4945 299.0868 105.8619 198.9813 30652.4042 -151.2551 -75.1287
ENERGY: 1200000 0.0096 3.2562 0.3687 0.0000 -10747.5420 1416.7982 0.0000 0.0000 1786.3244 -7540.7848 302.1578 -9327.1092 -7571.7406 299.7860 -271.3724 -218.4875 30837.3147 -93.4197 -30.0686
ENERGY: 1500000 1.5917 1.7846 0.3550 0.0000 -10967.7916 1550.7696 0.0000 0.0000 1823.4106 -7589.8801 308.4309 -9413.2907 -7582.1799 300.4634 679.6421 758.4250 30298.5382 -7.0344 59.2045
TCL: Running FEP window   6: Lambda1 0.7499999999999998 Lambda2 0.6999999999999997 [dLambda -0.050000000000000044]
TCL: Setting parameter firsttimestep to 0
TCL: Setting parameter alchLambda to 0.7499999999999998
Info: NONBONDED TABLE R-SQUARED SPACING: 0.0625
Info: NONBONDED TABLE SIZE: 705 POINTS
TCL: Setting parameter alchLambda2 to 0.6999999999999997
Info: NONBONDED TABLE R-SQUARED SPACING: 0.0625
Info: NONBONDED TABLE SIZE: 705 POINTS
TCL: Running for 1500000 steps
ETITLE: TS BOND ANGLE DIHED IMPRP ELECT VDW BOUNDARY MISC KINETIC TOTAL TEMP POTENTIAL TOTALAVG TEMPAVG PRESSURE GPRESSURE VOLUME PRESSAVG GPRESSAVG
ENERGY: 0 1.5917 1.7846 0.3550 0.0000 -10966.8294 1550.5173 0.0000 0.0000 1822.5598 -7590.0210 308.2870 -9412.5808 -7590.0210 308.2870 655.8464 751.6109 30298.5382 655.8464 751.6109
ENERGY: 300000 0.0088 1.9554 0.0284 0.0000 -11001.6755 1548.3993 0.0000 0.0000 1746.0680 -7705.2155 295.3484 -9451.2835 -7604.2254 301.7246 571.2103 629.1052 30237.8821 460.7027 533.8481
ENERGY: 600000 0.4630 2.3494 0.1077 0.0000 -10708.7603 1457.8274 0.0000 0.0000 1777.5259 -7470.4869 300.6695 -9248.0128 -7567.0246 299.7567 164.5688 233.5423 30819.2213 257.2443 320.9540
ENERGY: 900000 0.3666 2.7009 0.1084 0.0000 -10942.6715 1489.8538 0.0000 0.0000 1746.4583 -7703.1835 295.4144 -9449.6418 -7592.7370 299.1848 22.8352 46.7586 30352.8765 202.9148 266.8657
ENERGY: 1200000 0.0039 3.4356 0.2949 0.0000 -10715.0069 1354.2554 0.0000 0.0000 1750.2750 -7606.7423 296.0600 -9357.0172 -7593.2212 299.6574 -806.8296 -806.4078 30805.8781 130.5065 192.5331
ENERGY: 1500000 1.0967 3.2476 0.2660 0.0000 -10802.2153 1446.1815 0.0000 0.0000 1769.2445 -7582.1790 299.2687 -9351.4235 -7594.3526 299.3875 -27.0557 66.2022 30405.1769 174.2236 244.4470
TCL: Running FEP window   7: Lambda1 0.6999999999999997 Lambda2 0.6499999999999997 [dLambda -0.050000000000000044]
TCL: Setting parameter firsttimestep to 0
TCL: Setting parameter alchLambda to 0.6999999999999997
Info: NONBONDED TABLE R-SQUARED SPACING: 0.0625
Info: NONBONDED TABLE SIZE: 705 POINTS
TCL: Setting parameter alchLambda2 to 0.6499999999999997
Info: NONBONDED TABLE R-SQUARED SPACING: 0.0625
Info: NONBONDED TABLE SIZE: 705 POINTS
TCL: Running for 1500000 steps
ETITLE: TS BOND ANGLE DIHED IMPRP ELECT VDW BOUNDARY MISC KINETIC TOTAL TEMP POTENTIAL TOTALAVG TEMPAVG PRESSURE GPRESSURE VOLUME PRESSAVG GPRESSAVG
ENERGY: 0 1.0967 3.2476 0.2660 0.0000 -10800.5572 1445.7114 0.0000 0.0000 1768.3453 -7581.8903 299.1166 -9350.2355 -7581.8903 299.1166 -22.9413 62.2510 30405.1769 -22.9413 62.2510
ENERGY: 300000 0.0842 2.3117 0.0532 0.0000 -10982.4435 1527.5704 0.0000 0.0000 1722.7192 -7729.7049 291.3989 -9452.4241 -7592.7795 299.8349 501.5027 500.1791 30235.8192 -0.6452 45.5249
ENERGY: 600000 0.1150 5.1557 0.9170 0.0000 -10669.3257 1327.9780 0.0000 0.0000 1771.0976 -7564.0624 299.5821 -9335.1601 -7565.2074 300.8467 -1154.9725 -1103.6469 31064.4094 -149.7454 -93.9404
ENERGY: 900000 0.0014 1.9093 0.5817 0.0000 -10774.1282 1404.5413 0.0000 0.0000 1844.1553 -7522.9392 311.9399 -9367.0945 -7548.3461 301.9250 -489.5734 -423.2802 30615.5062 -56.9286 -1.8836
ENERGY: 1200000 0.0141 2.0317 0.0989 0.0000 -10866.8045 1509.5241 0.0000 0.0000 1791.9846 -7563.1511 303.1152 -9355.1357 -7552.6474 300.7285 319.8645 351.9452 30660.8605 -8.9707 45.7809
ENERGY: 1500000 0.0010 1.4786 0.0494 0.0000 -10741.0768 1362.0693 0.0000 0.0000 1782.9469 -7594.5317 301.5865 -9377.4786 -7562.4713 300.6591 -691.7291 -657.8673 30397.0635 -61.6690 -6.7901
TCL: Running FEP window   8: Lambda1 0.6499999999999997 Lambda2 0.5999999999999996 [dLambda -0.050000000000000044]
TCL: Setting parameter firsttimestep to 0
TCL: Setting parameter alchLambda to 0.6499999999999997
Info: NONBONDED TABLE R-SQUARED SPACING: 0.0625
Info: NONBONDED TABLE SIZE: 705 POINTS
TCL: Setting parameter alchLambda2 to 0.5999999999999996
Info: NONBONDED TABLE R-SQUARED SPACING: 0.0625
Info: NONBONDED TABLE SIZE: 705 POINTS
TCL: Running for 1500000 steps
ETITLE: TS BOND ANGLE DIHED IMPRP ELECT VDW BOUNDARY MISC KINETIC TOTAL TEMP POTENTIAL TOTALAVG TEMPAVG PRESSURE GPRESSURE VOLUME PRESSAVG GPRESSAVG
ENERGY: 0 0.0010 1.4786 0.0494 0.0000 -10739.8948 1362.0452 0.0000 0.0000 1782.0702 -7594.2505 301.4381 -9376.3206 -7594.2505 301.4381 -741.7138 -658.3793 30397.0635 -741.7138 -658.3793
ENERGY: 300000 0.0438 2.3686 0.0281 0.0000 -10867.5243 1444.2394 0.0000 0.0000 1742.0889 -7678.7555 294.6753 -9420.8444 -7599.5475 299.9089 -339.4591 -221.0163 30385.5859 -124.5682 -47.5025
ENERGY: 600000 0.0876 1.2861 0.0529 0.0000 -10747.2804 1429.1032 0.0000 0.0000 1779.1142 -7537.6364 300.9382 -9316.7506 -7593.2935 298.4626 -121.2433 -62.4845 30741.7211 -159.3925 -86.6942
ENERGY: 900000 0.0011 3.4472 0.2913 0.0000 -10725.9548 1412.8285 0.0000 0.0000 1769.3144 -7540.0724 299.2805 -9309.3868 -7570.4518 300.5579 -323.1906 -241.4813 30846.2417 -93.3937 -30.5651
ENERGY: 1200000 0.0412 1.4858 0.1571 0.0000 -10982.4981 1589.8684 0.0000 0.0000 1708.0827 -7682.8628 288.9231 -9390.9456 -7575.6886 299.4975 837.2163 935.8094 30430.5969 108.2013 170.2072
ENERGY: 1500000 0.0189 4.7124 0.7777 0.0000 -10679.7027 1337.9530 0.0000 0.0000 1828.2307 -7508.0100 309.2462 -9336.2406 -7570.7274 299.8556 -933.4080 -881.4495 30683.8639 58.2602 124.8764
TCL: Running FEP window   9: Lambda1 0.5999999999999996 Lambda2 0.5499999999999996 [dLambda -0.050000000000000044]
TCL: Setting parameter firsttimestep to 0
TCL: Setting parameter alchLambda to 0.5999999999999996
Info: NONBONDED TABLE R-SQUARED SPACING: 0.0625
Info: NONBONDED TABLE SIZE: 705 POINTS
TCL: Setting parameter alchLambda2 to 0.5499999999999996
Info: NONBONDED TABLE R-SQUARED SPACING: 0.0625
Info: NONBONDED TABLE SIZE: 705 POINTS
TCL: Running for 1500000 steps
ETITLE: TS BOND ANGLE DIHED IMPRP ELECT VDW BOUNDARY MISC KINETIC TOTAL TEMP POTENTIAL TOTALAVG TEMPAVG PRESSURE GPRESSURE VOLUME PRESSAVG GPRESSAVG
ENERGY: 0 0.0189 4.7124 0.7777 0.0000 -10678.7470 1337.8417 0.0000 0.0000 1827.3612 -7508.0352 309.0991 -9335.3963 -7508.0352 309.0991 -968.7235 -882.7830 30683.8639 -968.7235 -882.7830
ENERGY: 300000 0.1358 1.3569 0.0562 0.0000 -10985.4547 1543.4543 0.0000 0.0000 1724.2197 -7716.2317 291.6527 -9440.4515 -7586.9985 302.9637 575.0452 630.0446 30143.7581 -555.1483 -488.2753
ENERGY: 600000 0.3563 1.3914 0.0563 0.0000 -10722.7919 1471.0413 0.0000 0.0000 1845.8207 -7404.1259 312.2216 -9249.9466 -7550.4734 305.0199 469.2704 511.2521 30548.8246 -221.6281 -161.0900
ENERGY: 900000 0.3610 5.2489 0.5887 0.0000 -10762.8842 1462.8863 0.0000 0.0000 1779.5080 -7514.2913 301.0048 -9293.7993 -7538.5795 304.5690 261.2789 290.5622 30550.5304 -139.1560 -79.8929
ENERGY: 1200000 0.0783 2.5931 0.1451 0.0000 -10832.5121 1453.7873 0.0000 0.0000 1780.1618 -7595.7465 301.1153 -9375.9083 -7553.2194 303.0225 -259.7309 -200.9131 30943.8821 -185.9933 -126.8829
ENERGY: 1500000 0.2605 1.7542 0.1388 0.0000 -10834.9026 1513.1564 0.0000 0.0000 1737.8100 -7581.7826 293.9515 -9319.5927 -7553.2768 302.3990 385.6050 540.3932 30369.7878 -171.3777 -109.1202
TCL: Running FEP window  10: Lambda1 0.5499999999999996 Lambda2 0.4999999999999996 [dLambda -0.04999999999999999]
TCL: Setting parameter firsttimestep to 0
TCL: Setting parameter alchLambda to 0.5499999999999996
Info: NONBONDED TABLE R-SQUARED SPACING: 0.0625
Info: NONBONDED TABLE SIZE: 705 POINTS
TCL: Setting parameter alchLambda2 to 0.4999999999999996
Info: NONBONDED TABLE R-SQUARED SPACING: 0.0625
Info: NONBONDED TABLE SIZE: 705 POINTS
TCL: Running for 1500000 steps
ETITLE: TS BOND ANGLE DIHED IMPRP ELECT VDW BOUNDARY MISC KINETIC TOTAL TEMP POTENTIAL TOTALAVG TEMPAVG PRESSURE GPRESSURE VOLUME PRESSAVG GPRESSAVG
ENERGY: 0 0.2605 1.7542 0.1388 0.0000 -10834.2704 1513.3547 0.0000 0.0000 1736.9306 -7581.8316 293.8028 -9318.7622 -7581.8316 293.8028 451.9595 542.4192 30369.7878 451.9595 542.4192
ENERGY: 300000 2.1317 1.4629 1.6811 0.0000 -10696.7728 1384.5913 0.0000 0.0000 1710.3614 -7596.5444 289.3086 -9306.9058 -7551.1905 298.5777 -498.0328 -429.3758 30727.4705 0.8308 77.1753
ENERGY: 600000 0.0052 0.9211 0.1555 0.0000 -10866.4461 1473.0582 0.0000 0.0000 1745.9037 -7646.4026 295.3206 -9392.3062 -7555.3449 299.4797 25.9305 208.4000 30148.1202 -90.3564 4.2140
ENERGY: 900000 0.1514 3.9764 0.0762 0.0000 -10837.3710 1438.5319 0.0000 0.0000 1728.3290 -7666.3061 292.3478 -9394.6351 -7565.3848 300.0116 -325.3578 -317.0836 30523.2153 -178.9397 -99.8032
ENERGY: 1200000 0.2552 6.0031 0.0857 0.0000 -10760.8156 1422.1751 0.0000 0.0000 1759.7733 -7572.5232 297.6666 -9332.2965 -7563.4293 299.8569 -291.1060 -223.6291 30859.4107 -164.7180 -89.2238
ENERGY: 1500000 0.0801 2.0887 0.0418 0.0000 -10873.8433 1480.1781 0.0000 0.0000 1803.0970 -7588.3576 304.9949 -9391.4547 -7566.6249 300.2828 258.6499 281.9565 30485.3416 -69.9080 8.9631
TCL: Running FEP window  11: Lambda1 0.4999999999999996 Lambda2 0.4499999999999996 [dLambda -0.04999999999999999]
TCL: Setting parameter firsttimestep to 0
TCL: Setting parameter alchLambda to 0.4999999999999996
Info: NONBONDED TABLE R-SQUARED SPACING: 0.0625
Info: NONBONDED TABLE SIZE: 705 POINTS
TCL: Setting parameter alchLambda2 to 0.4499999999999996
Info: NONBONDED TABLE R-SQUARED SPACING: 0.0625
Info: NONBONDED TABLE SIZE: 705 POINTS
TCL: Running for 1500000 steps
ETITLE: TS BOND ANGLE DIHED IMPRP ELECT VDW BOUNDARY MISC KINETIC TOTAL TEMP POTENTIAL TOTALAVG TEMPAVG PRESSURE GPRESSURE VOLUME PRESSAVG GPRESSAVG
ENERGY: 0 0.0801 2.0887 0.0418 0.0000 -10873.7789 1480.3186 0.0000 0.0000 1802.2281 -7589.0217 304.8479 -9391.2498 -7589.0217 304.8479 183.3673 281.2828 30485.3416 183.3673 281.2828
ENERGY: 300000 0.3621 0.5905 0.0840 0.0000 -10951.7514 1527.2386 0.0000 0.0000 1765.8422 -7657.6340 298.6932 -9423.4762 -7557.7656 300.6330 414.9224 453.1834 30314.5734 2.2214 96.8246
ENERGY: 600000 0.0249 2.4734 0.4323 0.0000 -10613.9730 1328.3341 0.0000 0.0000 1751.8773 -7530.8311 296.3310 -9282.7084 -7558.2728 300.5453 -772.4630 -689.9663 30483.5777 -211.0880 -122.0364
ENERGY: 900000 0.2027 2.5829 0.0556 0.0000 -10744.5131 1451.6496 0.0000 0.0000 1710.0523 -7579.9700 289.2563 -9290.0223 -7560.4827 299.3192 60.4047 132.2357 30593.8225 -128.2295 -45.9145
ENERGY: 1200000 0.0216 2.5844 0.1848 0.0000 -10742.9793 1408.6136 0.0000 0.0000 1756.4509 -7575.1240 297.1046 -9331.5749 -7566.1486 299.3173 -400.7216 -392.4787 30645.8831 -122.7130 -55.4179
ENERGY: 1500000 0.5574 2.8903 0.0824 0.0000 -10739.6281 1419.3219 0.0000 0.0000 1787.5106 -7529.2655 302.3584 -9316.7762 -7554.5712 299.5836 79.1973 79.5239 30191.0240 -74.7253 -8.9627
TCL: Running FEP window  12: Lambda1 0.4499999999999996 Lambda2 0.39999999999999963 [dLambda -0.04999999999999999]
TCL: Setting parameter firsttimestep to 0
TCL: Setting parameter alchLambda to 0.4499999999999996
Info: NONBONDED TABLE R-SQUARED SPACING: 0.0625
Info: NONBONDED TABLE SIZE: 705 POINTS
TCL: Setting parameter alchLambda2 to 0.39999999999999963
Info: NONBONDED TABLE R-SQUARED SPACING: 0.0625
Info: NONBONDED TABLE SIZE: 705 POINTS
TCL: Running for 1500000 steps
ETITLE: TS BOND ANGLE DIHED IMPRP ELECT VDW BOUNDARY MISC KINETIC TOTAL TEMP POTENTIAL TOTALAVG TEMPAVG PRESSURE GPRESSURE VOLUME PRESSAVG GPRESSAVG
ENERGY: 0 0.5574 2.8903 0.0824 0.0000 -10739.6283 1419.3690 0.0000 0.0000 1786.5850 -7530.1443 302.2018 -9316.7293 -7530.1443 302.2018 -19.4405 79.2266 30191.0240 -19.4405 79.2266
ENERGY: 300000 0.4421 1.5370 0.4795 0.0000 -10897.4458 1473.6069 0.0000 0.0000 1800.5756 -7620.8047 304.5684 -9421.3803 -7593.4694 299.0471 -9.4117 -34.0025 30395.5175 -41.9347 18.0752
ENERGY: 600000 3.3563 2.9408 0.0455 0.0000 -10866.8760 1471.1637 0.0000 0.0000 1736.1865 -7653.1833 293.6769 -9389.3697 -7574.9282 300.5739 331.6397 343.3259 30161.6046 -199.3733 -135.5925
ENERGY: 900000 0.0176 0.3720 0.4899 0.0000 -10602.5671 1319.1250 0.0000 0.0000 1744.4484 -7538.1142 295.0744 -9282.5625 -7562.1085 301.6115 -719.4990 -711.5886 30581.6383 -192.5805 -126.7084
ENERGY: 1200000 0.2349 3.4682 0.0097 0.0000 -10746.3264 1441.7700 0.0000 0.0000 1798.6522 -7502.1913 304.2430 -9300.8436 -7555.7804 302.3117 -356.7806 -274.0587 31157.2859 -159.3312 -93.6130
ENERGY: 1500000 0.0099 4.0751 0.2882 0.0000 -10693.1343 1369.3992 0.0000 0.0000 1756.7090 -7562.6528 297.1483 -9319.3618 -7558.9529 301.3955 -604.6087 -592.9767 30705.2128 -201.2241 -139.3167
TCL: Running FEP window  13: Lambda1 0.39999999999999963 Lambda2 0.34999999999999964 [dLambda -0.04999999999999999]
TCL: Setting parameter firsttimestep to 0
TCL: Setting parameter alchLambda to 0.39999999999999963
Info: NONBONDED TABLE R-SQUARED SPACING: 0.0625
Info: NONBONDED TABLE SIZE: 705 POINTS
TCL: Setting parameter alchLambda2 to 0.34999999999999964
Info: NONBONDED TABLE R-SQUARED SPACING: 0.0625
Info: NONBONDED TABLE SIZE: 705 POINTS
TCL: Running for 1500000 steps
ETITLE: TS BOND ANGLE DIHED IMPRP ELECT VDW BOUNDARY MISC KINETIC TOTAL TEMP POTENTIAL TOTALAVG TEMPAVG PRESSURE GPRESSURE VOLUME PRESSAVG GPRESSAVG
ENERGY: 0 0.0099 4.0751 0.2882 0.0000 -10693.1350 1369.4915 0.0000 0.0000 1755.8431 -7563.4271 297.0018 -9319.2702 -7563.4271 297.0018 -679.1595 -592.7240 30705.2128 -679.1595 -592.7240
ENERGY: 300000 0.0343 1.2877 0.0362 0.0000 -10888.0380 1501.5088 0.0000 0.0000 1871.6602 -7513.5108 316.5924 -9385.1709 -7537.2703 303.8866 421.3140 521.8814 30168.4931 -221.2113 -147.0989
ENERGY: 600000 0.0471 0.9033 0.4086 0.0000 -10770.2527 1391.8125 0.0000 0.0000 1782.0529 -7595.0282 301.4352 -9377.0811 -7545.8405 302.4604 -728.6203 -711.0762 30917.2155 -168.2179 -111.1772
ENERGY: 900000 0.0059 4.0158 0.1175 0.0000 -10776.6179 1411.5082 0.0000 0.0000 1777.6447 -7583.3257 300.6896 -9360.9704 -7554.0531 301.5382 -365.5802 -290.0560 30512.8457 -209.2245 -148.6670
ENERGY: 1200000 0.2859 1.0631 0.5865 0.0000 -10871.6778 1466.4880 0.0000 0.0000 1775.7983 -7627.4560 300.3773 -9403.2544 -7562.8879 301.3262 -139.8782 -122.0736 30722.1897 -220.4319 -150.9825
ENERGY: 1500000 0.2781 1.6523 0.0800 0.0000 -10774.7488 1451.2346 0.0000 0.0000 1765.3733 -7556.1306 298.6139 -9321.5038 -7553.1485 301.1437 225.9465 281.0213 30374.3772 -202.7307 -130.1629
TCL: Running FEP window  14: Lambda1 0.34999999999999964 Lambda2 0.29999999999999966 [dLambda -0.04999999999999999]
TCL: Setting parameter firsttimestep to 0
TCL: Setting parameter alchLambda to 0.34999999999999964
Info: NONBONDED TABLE R-SQUARED SPACING: 0.0625
Info: NONBONDED TABLE SIZE: 705 POINTS
TCL: Setting parameter alchLambda2 to 0.29999999999999966
Info: NONBONDED TABLE R-SQUARED SPACING: 0.0625
Info: NONBONDED TABLE SIZE: 705 POINTS
TCL: Running for 1500000 steps
ETITLE: TS BOND ANGLE DIHED IMPRP ELECT VDW BOUNDARY MISC KINETIC TOTAL TEMP POTENTIAL TOTALAVG TEMPAVG PRESSURE GPRESSURE VOLUME PRESSAVG GPRESSAVG
ENERGY: 0 0.2781 1.6523 0.0800 0.0000 -10774.7488 1451.0764 0.0000 0.0000 1764.4718 -7557.1902 298.4614 -9321.6620 -7557.1902 298.4614 200.8057 278.1079 30374.3772 200.8057 278.1079
ENERGY: 300000 0.1475 1.7164 0.0340 0.0000 -10650.2017 1384.4248 0.0000 0.0000 1817.4476 -7446.4314 307.4223 -9263.8789 -7554.5735 298.4496 -365.9802 -294.4915 30935.0726 -66.0433 14.8704
ENERGY: 600000 0.0078 2.7538 0.1310 0.0000 -10777.3397 1432.6934 0.0000 0.0000 1723.4245 -7618.3293 291.5182 -9341.7537 -7571.8185 297.0452 -110.7177 -87.6650 30479.4753 -45.9358 18.9900
ENERGY: 900000 0.9429 2.6598 1.5072 0.0000 -10848.7196 1500.2389 0.0000 0.0000 1851.9366 -7491.4342 313.2561 -9343.3708 -7562.3045 298.6935 190.0155 281.6832 30670.4743 -22.0118 46.8524
ENERGY: 1200000 0.4478 2.2769 1.4641 0.0000 -10744.8158 1415.4224 0.0000 0.0000 1765.2514 -7559.9533 298.5932 -9325.2047 -7561.1643 299.3653 -378.8592 -240.3405 30542.4664 -105.3238 -31.0041
ENERGY: 1500000 1.6289 2.9715 0.7825 0.0000 -10874.2971 1457.9993 0.0000 0.0000 1724.5471 -7686.3677 291.7081 -9410.9149 -7569.9365 298.6956 -302.2175 -189.4761 30567.0461 -20.9442 50.8046
TCL: Running FEP window  15: Lambda1 0.29999999999999966 Lambda2 0.24999999999999967 [dLambda -0.04999999999999999]
TCL: Setting parameter firsttimestep to 0
TCL: Setting parameter alchLambda to 0.29999999999999966
Info: NONBONDED TABLE R-SQUARED SPACING: 0.0625
Info: NONBONDED TABLE SIZE: 705 POINTS
TCL: Setting parameter alchLambda2 to 0.24999999999999967
Info: NONBONDED TABLE R-SQUARED SPACING: 0.0625
Info: NONBONDED TABLE SIZE: 705 POINTS
TCL: Running for 1500000 steps
ETITLE: TS BOND ANGLE DIHED IMPRP ELECT VDW BOUNDARY MISC KINETIC TOTAL TEMP POTENTIAL TOTALAVG TEMPAVG PRESSURE GPRESSURE VOLUME PRESSAVG GPRESSAVG
ENERGY: 0 1.6289 2.9715 0.7825 0.0000 -10874.2962 1458.0277 0.0000 0.0000 1723.6775 -7687.2081 291.5610 -9410.8856 -7687.2081 291.5610 -290.5124 -192.8382 30567.0461 -290.5124 -192.8382
ENERGY: 300000 0.3933 2.7067 0.1243 0.0000 -10871.7058 1474.5837 0.0000 0.0000 1769.1259 -7624.7717 299.2486 -9393.8977 -7617.2454 298.0979 -220.2185 -175.0958 30723.8940 -176.6425 -76.5857
ENERGY: 600000 0.9774 3.8208 0.2175 0.0000 -10861.1867 1534.2706 0.0000 0.0000 1755.0899 -7566.8105 296.8744 -9321.9004 -7589.4423 300.0579 887.3391 963.5920 30120.2149 -17.7063 56.3253
ENERGY: 900000 0.9194 1.2739 0.5202 0.0000 -10719.5969 1410.1899 0.0000 0.0000 1833.7719 -7472.9216 310.1835 -9306.6935 -7579.3266 300.2817 -144.8602 -61.9555 30416.8503 -99.7087 -24.9554
ENERGY: 1200000 0.0019 1.7307 0.0506 0.0000 -10761.4743 1485.5377 0.0000 0.0000 1761.2110 -7512.9424 297.9098 -9274.1534 -7569.9568 299.8396 371.6911 491.9621 30607.7475 -69.9745 5.0077
ENERGY: 1500000 1.4133 1.9704 0.1566 0.0000 -10631.9284 1279.0987 0.0000 0.0000 1758.1627 -7591.1268 297.3942 -9349.2894 -7577.0837 299.7970 -1364.8087 -1310.5501 30389.3744 -116.0867 -40.8892
TCL: Running FEP window  16: Lambda1 0.24999999999999967 Lambda2 0.19999999999999968 [dLambda -0.04999999999999999]
TCL: Setting parameter firsttimestep to 0
TCL: Setting parameter alchLambda to 0.24999999999999967
Info: NONBONDED TABLE R-SQUARED SPACING: 0.0625
Info: NONBONDED TABLE SIZE: 705 POINTS
TCL: Setting parameter alchLambda2 to 0.19999999999999968
Info: NONBONDED TABLE R-SQUARED SPACING: 0.0625
Info: NONBONDED TABLE SIZE: 705 POINTS
TCL: Running for 1500000 steps
ETITLE: TS BOND ANGLE DIHED IMPRP ELECT VDW BOUNDARY MISC KINETIC TOTAL TEMP POTENTIAL TOTALAVG TEMPAVG PRESSURE GPRESSURE VOLUME PRESSAVG GPRESSAVG
ENERGY: 0 1.4133 1.9704 0.1566 0.0000 -10631.9287 1278.6636 0.0000 0.0000 1757.2537 -7592.4710 297.2404 -9349.7247 -7592.4710 297.2404 -1393.5727 -1313.9341 30389.3744 -1393.5727 -1313.9341
ENERGY: 300000 0.2212 5.4697 0.3387 0.0000 -10692.4742 1401.0610 0.0000 0.0000 1766.1382 -7519.2455 298.7433 -9285.3837 -7524.2241 301.5749 -571.7072 -599.5035 31350.3559 -749.2156 -731.1881
ENERGY: 600000 0.4583 2.9390 0.1539 0.0000 -10910.3066 1509.0289 0.0000 0.0000 1800.2239 -7597.5027 304.5089 -9397.7265 -7535.6189 301.6348 337.5920 370.7411 30138.8824 -396.0564 -370.6015
ENERGY: 900000 0.0001 3.1430 0.2878 0.0000 -10718.2729 1382.3455 0.0000 0.0000 1766.2482 -7566.2482 298.7619 -9332.4964 -7551.7979 300.6208 -480.5343 -384.2365 30372.2995 -393.3534 -360.9544
ENERGY: 1200000 0.0179 2.5816 1.0358 0.0000 -10792.2585 1414.7408 0.0000 0.0000 1750.0879 -7623.7946 296.0283 -9373.8825 -7556.0662 299.6175 -519.4796 -490.7199 30748.8205 -372.4409 -330.6485
ENERGY: 1500000 0.4934 2.5164 0.0594 0.0000 -10735.4302 1430.6731 0.0000 0.0000 1830.9353 -7470.7524 309.7037 -9301.6877 -7549.6579 300.3864 50.8311 101.1229 30487.8218 -279.3055 -238.3308
TCL: Running FEP window  17: Lambda1 0.19999999999999968 Lambda2 0.1499999999999997 [dLambda -0.04999999999999999]
TCL: Setting parameter firsttimestep to 0
TCL: Setting parameter alchLambda to 0.19999999999999968
Info: NONBONDED TABLE R-SQUARED SPACING: 0.0625
Info: NONBONDED TABLE SIZE: 705 POINTS
TCL: Setting parameter alchLambda2 to 0.1499999999999997
Info: NONBONDED TABLE R-SQUARED SPACING: 0.0625
Info: NONBONDED TABLE SIZE: 705 POINTS
TCL: Running for 1500000 steps
ETITLE: TS BOND ANGLE DIHED IMPRP ELECT VDW BOUNDARY MISC KINETIC TOTAL TEMP POTENTIAL TOTALAVG TEMPAVG PRESSURE GPRESSURE VOLUME PRESSAVG GPRESSAVG
ENERGY: 0 0.4934 2.5164 0.0594 0.0000 -10735.4308 1430.5473 0.0000 0.0000 1830.0055 -7471.8087 309.5464 -9301.8141 -7471.8087 309.5464 27.7357 99.9209 30487.8218 27.7357 99.9209
ENERGY: 300000 0.0020 2.5706 0.0996 0.0000 -10709.7145 1362.2000 0.0000 0.0000 1748.2848 -7596.5575 295.7233 -9344.8423 -7561.6867 300.5339 -855.1799 -879.7884 30851.3055 -319.7799 -272.7646
ENERGY: 600000 0.0001 2.5896 1.2584 0.0000 -10835.2495 1475.5149 0.0000 0.0000 1744.6166 -7611.2699 295.1029 -9355.8865 -7576.8298 299.5112 104.4716 147.4618 30556.7877 -36.0624 24.2033
ENERGY: 900000 2.2123 1.3697 0.0189 0.0000 -10831.3287 1483.9214 0.0000 0.0000 1816.2047 -7527.6018 307.2120 -9343.8065 -7573.8214 299.6828 10.4618 42.0068 30675.8853 -29.9181 36.2617
ENERGY: 1200000 0.1044 0.9613 0.1209 0.0000 -10851.7755 1475.3965 0.0000 0.0000 1706.1560 -7669.0364 288.5972 -9375.1924 -7568.6716 299.6108 57.7812 134.0977 30410.7346 -84.3612 -8.5128
ENERGY: 1500000 0.0735 2.8808 0.0957 0.0000 -10766.8899 1436.2112 0.0000 0.0000 1746.5868 -7581.0419 295.4361 -9327.6287 -7572.1124 299.6342 -347.7448 -322.2528 31023.8073 -123.8997 -48.9237
TCL: Running FEP window  18: Lambda1 0.1499999999999997 Lambda2 0.09999999999999969 [dLambda -0.05 ]
TCL: Setting parameter firsttimestep to 0
TCL: Setting parameter alchLambda to 0.1499999999999997
Info: NONBONDED TABLE R-SQUARED SPACING: 0.0625
Info: NONBONDED TABLE SIZE: 705 POINTS
TCL: Setting parameter alchLambda2 to 0.09999999999999969
Info: NONBONDED TABLE R-SQUARED SPACING: 0.0625
Info: NONBONDED TABLE SIZE: 705 POINTS
TCL: Running for 1500000 steps
ETITLE: TS BOND ANGLE DIHED IMPRP ELECT VDW BOUNDARY MISC KINETIC TOTAL TEMP POTENTIAL TOTALAVG TEMPAVG PRESSURE GPRESSURE VOLUME PRESSAVG GPRESSAVG
ENERGY: 0 0.0735 2.8808 0.0957 0.0000 -10766.8882 1435.7704 0.0000 0.0000 1745.6811 -7582.3867 295.2829 -9328.0677 -7582.3867 295.2829 -405.9924 -323.1221 31023.8073 -405.9924 -323.1221
ENERGY: 300000 0.1995 2.1421 0.1174 0.0000 -10729.6283 1438.1782 0.0000 0.0000 1813.1655 -7475.8256 306.6979 -9288.9911 -7539.8327 301.4693 -277.8854 -210.3018 31165.8208 140.6328 198.0014
ENERGY: 600000 0.1073 2.5928 0.2425 0.0000 -10756.6198 1513.0264 0.0000 0.0000 1723.6754 -7516.9754 291.5606 -9240.6508 -7539.6787 300.3517 614.0501 640.1713 30844.5225 97.8100 155.6904
ENERGY: 900000 0.0098 2.1011 0.3863 0.0000 -10922.2587 1517.7108 0.0000 0.0000 1815.4227 -7586.6281 307.0797 -9402.0507 -7560.0702 299.7207 312.8474 422.7918 30523.3867 -34.1028 32.6892
ENERGY: 1200000 0.1670 3.6080 0.2011 0.0000 -10869.4465 1469.9839 0.0000 0.0000 1827.3302 -7568.1563 309.0939 -9395.4865 -7561.4113 301.4760 109.9754 214.8778 30272.9090 -140.2972 -67.4385
ENERGY: 1500000 0.0221 2.4751 0.3797 0.0000 -10865.0370 1472.6356 0.0000 0.0000 1734.0808 -7655.4438 293.3207 -9389.5246 -7575.4326 300.5479 -31.7200 24.0784 30346.9447 -99.6574 -27.9419
TCL: Running FEP window  19: Lambda1 0.09999999999999969 Lambda2 0.049999999999999684 [dLambda -0.05 ]
TCL: Setting parameter firsttimestep to 0
TCL: Setting parameter alchLambda to 0.09999999999999969
Info: NONBONDED TABLE R-SQUARED SPACING: 0.0625
Info: NONBONDED TABLE SIZE: 705 POINTS
TCL: Setting parameter alchLambda2 to 0.049999999999999684
Info: NONBONDED TABLE R-SQUARED SPACING: 0.0625
Info: NONBONDED TABLE SIZE: 705 POINTS
TCL: Running for 1500000 steps
ETITLE: TS BOND ANGLE DIHED IMPRP ELECT VDW BOUNDARY MISC KINETIC TOTAL TEMP POTENTIAL TOTALAVG TEMPAVG PRESSURE GPRESSURE VOLUME PRESSAVG GPRESSAVG
ENERGY: 0 0.0221 2.4751 0.3797 0.0000 -10865.0362 1472.8090 0.0000 0.0000 1733.2091 -7656.1412 293.1733 -9389.3503 -7656.1412 293.1733 -57.1994 25.0163 30346.9447 -57.1994 25.0163
ENERGY: 300000 0.0049 3.1661 0.4702 0.0000 -10771.7235 1434.1992 0.0000 0.0000 1830.4321 -7503.4510 309.6186 -9333.8831 -7545.7699 302.6123 -191.8130 -133.1643 30532.6352 -308.8961 -241.3990
ENERGY: 600000 0.4913 1.4854 0.0964 0.0000 -10718.0682 1429.6898 0.0000 0.0000 1808.3353 -7477.9701 305.8809 -9286.3054 -7535.0179 300.8943 -108.7324 -53.4144 30809.0425 -77.0204 -26.7331
ENERGY: 900000 0.4434 1.5357 0.1752 0.0000 -10875.3226 1464.4038 0.0000 0.0000 1790.8811 -7617.8834 302.9285 -9408.7645 -7550.0700 299.4410 5.4667 61.6827 30343.5194 -68.6707 -5.9190
ENERGY: 1200000 0.4668 2.1288 0.1087 0.0000 -10629.4559 1280.7731 0.0000 0.0000 1746.4951 -7599.4833 295.4206 -9345.9785 -7554.7145 298.6542 -1405.6357 -1321.5107 30575.3609 -232.2627 -167.9945
ENERGY: 1500000 0.0004 2.2284 0.2688 0.0000 -10841.5782 1516.9425 0.0000 0.0000 1834.8437 -7487.2944 310.3648 -9322.1381 -7561.8008 298.5599 487.9131 537.5103 30602.2057 -154.5784 -88.4012
TCL: Running FEP window  20: Lambda1 0.049999999999999684 Lambda2 0.0    [dLambda -0.049999999999999684]
TCL: Setting parameter firsttimestep to 0
TCL: Setting parameter alchLambda to 0.049999999999999684
Info: NONBONDED TABLE R-SQUARED SPACING: 0.0625
Info: NONBONDED TABLE SIZE: 705 POINTS
TCL: Setting parameter alchLambda2 to 0.0
Info: NONBONDED TABLE R-SQUARED SPACING: 0.0625
Info: NONBONDED TABLE SIZE: 705 POINTS
TCL: Running for 1500000 steps
ETITLE: TS BOND ANGLE DIHED IMPRP ELECT VDW BOUNDARY MISC KINETIC TOTAL TEMP POTENTIAL TOTALAVG TEMPAVG PRESSURE GPRESSURE VOLUME PRESSAVG GPRESSAVG
ENERGY: 0 0.0004 2.2284 0.2688 0.0000 -10841.5781 1516.6595 0.0000 0.0000 1833.9229 -7488.4982 310.2091 -9322.4210 -7488.4982 310.2091 442.7213 535.3075 30602.2057 442.7213 535.3075
ENERGY: 300000 0.1334 2.8899 0.1416 0.0000 -10856.7119 1486.6188 0.0000 0.0000 1773.9762 -7592.9520 300.0691 -9366.9282 -7516.1347 304.7850 53.0249 183.9515 30607.1124 210.5415 311.3615
ENERGY: 600000 0.0225 1.4426 0.1325 0.0000 -10853.4743 1486.4167 0.0000 0.0000 1771.9746 -7593.4854 299.7305 -9365.4600 -7539.7668 302.3590 -125.5053 -12.4091 31045.3768 102.4653 175.1399
ENERGY: 900000 0.1694 0.8282 0.7366 0.0000 -11016.3997 1635.3191 0.0000 0.0000 1781.9367 -7597.4097 301.4156 -9379.3464 -7551.6435 300.9990 1496.4134 1518.5675 30373.0211 240.4926 306.6739
ENERGY: 1200000 1.1741 1.2236 0.4732 0.0000 -10754.7423 1421.1044 0.0000 0.0000 1792.9837 -7537.7834 303.2842 -9330.7671 -7543.0450 301.7523 -268.5972 -215.9128 30639.0425 184.8825 248.2705
ENERGY: 1500000 0.0737 3.1775 1.4019 0.0000 -10725.8757 1401.6651 0.0000 0.0000 1762.0289 -7557.5286 298.0482 -9319.5575 -7545.6896 300.6234 -324.3123 -294.2907 30504.7048 162.6305 225.9740
TCL: Exiting due to exit command.
